4LHV_GDP_A_201


 36 38  0  0  0  0  0  0  0  0999 V2000
   -6.5852   39.8868   25.8297 C   0  0  0  0  0  0  0  0  0  0  0  0
   -7.8098   40.5636   25.5735 O   0  0  0  0  0  0  0  0  0  0  0  0
   -5.5310   40.9804   25.9298 C   0  0  0  0  0  0  0  0  0  0  0  0
   -4.9285   41.1402   24.6383 O   0  0  0  0  0  0  0  0  0  0  0  0
   -6.3372   42.2174   26.2467 C   0  0  0  0  0  0  0  0  0  0  0  0
   -5.7515   43.4367   25.8264 O   0  0  0  0  0  0  0  0  0  0  0  0
   -7.6367   41.9733   25.5103 C   0  0  0  0  0  0  0  0  0  0  0  0
   -5.6174   41.3234   23.9805 H   0  0  0  0  0  0  0  0  0  0  0  0
   -5.6232   43.4193   24.8650 H   0  0  0  0  0  0  0  0  0  0  0  0
   -8.8233   42.5879   26.1758 N   0  0  0  0  0  0  0  0  0  0  0  0
   -9.3022   42.2811   27.4086 C   0  0  0  0  0  0  0  0  0  0  0  0
  -10.3885   43.0230   27.6890 N   0  0  0  0  0  0  0  0  0  0  0  0
  -10.6221   43.7950   26.6156 C   0  0  0  0  0  0  0  0  0  0  0  0
  -11.6177   44.7877   26.2236 C   0  0  0  0  0  0  0  0  0  0  0  0
  -12.5633   45.1086   26.9741 O   0  0  0  0  0  0  0  0  0  0  0  0
  -11.5003   45.3353   25.0126 N   0  0  0  0  0  0  0  0  0  0  0  0
  -10.5164   45.0206   24.1676 C   0  0  0  0  0  0  0  0  0  0  0  0
  -10.5056   45.6228   23.0054 N   0  0  0  0  0  0  0  0  0  0  0  0
   -9.5779   44.1162   24.4164 N   0  0  0  0  0  0  0  0  0  0  0  0
   -9.5831   43.5069   25.6265 C   0  0  0  0  0  0  0  0  0  0  0  0
  -12.1687   46.0005   24.7300 H   0  0  0  0  0  0  0  0  0  0  0  0
  -11.1903   46.2981   22.7945 H   0  0  0  0  0  0  0  0  0  0  0  0
   -9.8128   45.4005   22.3422 H   0  0  0  0  0  0  0  0  0  0  0  0
   -6.7607   39.0365   27.0748 C   0  0  0  0  0  0  0  0  0  0  0  0
   -5.7056   39.3085   27.9969 O   0  0  0  0  0  0  0  0  0  0  0  0
   -5.7342   38.6640   29.4466 P   0  0  0  0  0  0  0  0  0  0  0  0
   -4.4083   38.3852   30.0301 O   0  0  0  0  0  0  0  0  0  0  0  0
   -6.5672   39.6157   30.2920 O   0  0  0  0  0  0  0  0  0  0  0  0
   -6.6245   39.2767   31.1990 H   0  0  0  0  0  0  0  0  0  0  0  0
   -6.4990   37.2718   29.1650 O   0  0  0  0  0  0  0  0  0  0  0  0
   -6.9797   36.2000   30.2464 P   0  0  0  0  0  0  0  0  0  0  0  0
   -6.3648   34.8165   30.0404 O   0  0  0  0  0  0  0  0  0  0  0  0
   -8.4452   36.0283   30.0228 O   0  0  0  0  0  0  0  0  0  0  0  0
   -6.7806   36.8954   31.5818 O   0  0  0  0  0  0  0  0  0  0  0  0
   -8.7955   35.3829   30.6566 H   0  0  0  0  0  0  0  0  0  0  0  0
   -7.0533   36.3020   32.2991 H   0  0  0  0  0  0  0  0  0  0  0  0
 31 32  2  0  0  0
 31 33  1  0  0  0
 31 34  1  0  0  0
 31 30  1  0  0  0
 30 26  1  0  0  0
 26 27  2  0  0  0
 26 28  1  0  0  0
 26 25  1  0  0  0
 25 24  1  0  0  0
 24  1  1  0  0  0
  1  2  1  0  0  0
  1  3  1  0  0  0
  2  7  1  0  0  0
  3  4  1  0  0  0
  3  5  1  0  0  0
  5  6  1  0  0  0
  5  7  1  0  0  0
  7 10  1  0  0  0
 10 11  1  0  0  0
 10 20  1  0  0  0
 11 12  2  0  0  0
 12 13  1  0  0  0
 13 14  1  0  0  0
 13 20  2  0  0  0
 14 15  2  0  0  0
 14 16  1  0  0  0
 16 17  1  0  0  0
 17 18  1  0  0  0
 17 19  2  0  0  0
 19 20  1  0  0  0
 33 35  1  0  0  0
 34 36  1  0  0  0
 28 29  1  0  0  0
  4  8  1  0  0  0
  6  9  1  0  0  0
 16 21  1  0  0  0
 18 22  1  0  0  0
 18 23  1  0  0  0
M  END
> <minimizedAffinity>
-10.89632

$$$$
4LHV_GDP_A_201


 36 38  0  0  0  0  0  0  0  0999 V2000
   -6.3834   39.7878   24.1530 C   0  0  0  0  0  0  0  0  0  0  0  0
   -7.5641   40.5669   24.3021 O   0  0  0  0  0  0  0  0  0  0  0  0
   -5.2397   40.7010   24.5714 C   0  0  0  0  0  0  0  0  0  0  0  0
   -4.7183   41.3327   23.3943 O   0  0  0  0  0  0  0  0  0  0  0  0
   -5.9187   41.7463   25.4240 C   0  0  0  0  0  0  0  0  0  0  0  0
   -5.2671   43.0035   25.4608 O   0  0  0  0  0  0  0  0  0  0  0  0
   -7.2821   41.8759   24.7800 C   0  0  0  0  0  0  0  0  0  0  0  0
   -5.4346   41.7942   22.9307 H   0  0  0  0  0  0  0  0  0  0  0  0
   -5.2084   43.3636   24.5620 H   0  0  0  0  0  0  0  0  0  0  0  0
   -8.3654   42.2300   25.7443 N   0  0  0  0  0  0  0  0  0  0  0  0
   -8.5743   41.6657   26.9614 C   0  0  0  0  0  0  0  0  0  0  0  0
   -9.6431   42.2213   27.5599 N   0  0  0  0  0  0  0  0  0  0  0  0
  -10.1380   43.1331   26.7078 C   0  0  0  0  0  0  0  0  0  0  0  0
  -11.2664   44.0589   26.6877 C   0  0  0  0  0  0  0  0  0  0  0  0
  -12.0740   44.1384   27.6372 O   0  0  0  0  0  0  0  0  0  0  0  0
  -11.4262   44.8142   25.5995 N   0  0  0  0  0  0  0  0  0  0  0  0
  -10.5995   44.7613   24.5532 C   0  0  0  0  0  0  0  0  0  0  0  0
  -10.8587   45.5498   23.5409 N   0  0  0  0  0  0  0  0  0  0  0  0
   -9.5615   43.9399   24.4613 N   0  0  0  0  0  0  0  0  0  0  0  0
   -9.2871   43.1370   25.5175 C   0  0  0  0  0  0  0  0  0  0  0  0
  -12.1873   45.4379   25.5671 H   0  0  0  0  0  0  0  0  0  0  0  0
  -11.6228   46.1692   23.5825 H   0  0  0  0  0  0  0  0  0  0  0  0
  -10.2895   45.5234   22.7380 H   0  0  0  0  0  0  0  0  0  0  0  0
   -6.5395   38.5218   24.9759 C   0  0  0  0  0  0  0  0  0  0  0  0
   -6.5481   38.8482   26.3654 O   0  0  0  0  0  0  0  0  0  0  0  0
   -5.5636   38.1016   27.3610 P   0  0  0  0  0  0  0  0  0  0  0  0
   -4.9066   36.9034   26.8050 O   0  0  0  0  0  0  0  0  0  0  0  0
   -4.5746   39.1633   27.8181 O   0  0  0  0  0  0  0  0  0  0  0  0
   -3.9387   38.7685   28.4350 H   0  0  0  0  0  0  0  0  0  0  0  0
   -6.5720   37.6607   28.5406 O   0  0  0  0  0  0  0  0  0  0  0  0
   -6.2026   36.8782   29.8823 P   0  0  0  0  0  0  0  0  0  0  0  0
   -7.2661   37.0109   30.9713 O   0  0  0  0  0  0  0  0  0  0  0  0
   -4.9852   37.5519   30.4222 O   0  0  0  0  0  0  0  0  0  0  0  0
   -5.8084   35.4886   29.4130 O   0  0  0  0  0  0  0  0  0  0  0  0
   -4.7120   37.1157   31.2444 H   0  0  0  0  0  0  0  0  0  0  0  0
   -5.5670   34.9449   30.1792 H   0  0  0  0  0  0  0  0  0  0  0  0
 31 32  2  0  0  0
 31 33  1  0  0  0
 31 34  1  0  0  0
 31 30  1  0  0  0
 30 26  1  0  0  0
 26 27  2  0  0  0
 26 28  1  0  0  0
 26 25  1  0  0  0
 25 24  1  0  0  0
 24  1  1  0  0  0
  1  2  1  0  0  0
  1  3  1  0  0  0
  2  7  1  0  0  0
  3  4  1  0  0  0
  3  5  1  0  0  0
  5  6  1  0  0  0
  5  7  1  0  0  0
  7 10  1  0  0  0
 10 11  1  0  0  0
 10 20  1  0  0  0
 11 12  2  0  0  0
 12 13  1  0  0  0
 13 14  1  0  0  0
 13 20  2  0  0  0
 14 15  2  0  0  0
 14 16  1  0  0  0
 16 17  1  0  0  0
 17 18  1  0  0  0
 17 19  2  0  0  0
 19 20  1  0  0  0
 33 35  1  0  0  0
 34 36  1  0  0  0
 28 29  1  0  0  0
  4  8  1  0  0  0
  6  9  1  0  0  0
 16 21  1  0  0  0
 18 22  1  0  0  0
 18 23  1  0  0  0
M  END
> <minimizedAffinity>
-8.27993

$$$$
4LHV_GDP_A_201


 36 38  0  0  0  0  0  0  0  0999 V2000
   -6.4238   40.0173   26.0195 C   0  0  0  0  0  0  0  0  0  0  0  0
   -7.7259   40.5426   25.7914 O   0  0  0  0  0  0  0  0  0  0  0  0
   -5.4712   41.1829   25.7934 C   0  0  0  0  0  0  0  0  0  0  0  0
   -5.0222   41.1358   24.4323 O   0  0  0  0  0  0  0  0  0  0  0  0
   -6.3520   42.3963   25.9732 C   0  0  0  0  0  0  0  0  0  0  0  0
   -5.9285   43.5518   25.2717 O   0  0  0  0  0  0  0  0  0  0  0  0
   -7.6920   41.9230   25.4527 C   0  0  0  0  0  0  0  0  0  0  0  0
   -5.7891   41.1398   23.8384 H   0  0  0  0  0  0  0  0  0  0  0  0
   -5.8987   43.3602   24.3212 H   0  0  0  0  0  0  0  0  0  0  0  0
   -8.8559   42.5664   26.1310 N   0  0  0  0  0  0  0  0  0  0  0  0
   -9.3191   42.2819   27.3751 C   0  0  0  0  0  0  0  0  0  0  0  0
  -10.3870   43.0465   27.6653 N   0  0  0  0  0  0  0  0  0  0  0  0
  -10.6248   43.8108   26.5873 C   0  0  0  0  0  0  0  0  0  0  0  0
  -11.6090   44.8170   26.2009 C   0  0  0  0  0  0  0  0  0  0  0  0
  -12.5357   45.1634   26.9635 O   0  0  0  0  0  0  0  0  0  0  0  0
  -11.5023   45.3490   24.9820 N   0  0  0  0  0  0  0  0  0  0  0  0
  -10.5388   45.0072   24.1242 C   0  0  0  0  0  0  0  0  0  0  0  0
  -10.5369   45.5964   22.9552 N   0  0  0  0  0  0  0  0  0  0  0  0
   -9.6127   44.0887   24.3674 N   0  0  0  0  0  0  0  0  0  0  0  0
   -9.6082   43.4929   25.5842 C   0  0  0  0  0  0  0  0  0  0  0  0
  -12.1634   46.0232   24.7031 H   0  0  0  0  0  0  0  0  0  0  0  0
  -11.2128   46.2816   22.7482 H   0  0  0  0  0  0  0  0  0  0  0  0
   -9.8596   45.3542   22.2830 H   0  0  0  0  0  0  0  0  0  0  0  0
   -6.3906   39.4103   27.4104 C   0  0  0  0  0  0  0  0  0  0  0  0
   -6.3526   37.9867   27.3142 O   0  0  0  0  0  0  0  0  0  0  0  0
   -4.9935   37.2106   27.5761 P   0  0  0  0  0  0  0  0  0  0  0  0
   -5.1067   36.0404   28.4672 O   0  0  0  0  0  0  0  0  0  0  0  0
   -4.4614   36.8570   26.1956 O   0  0  0  0  0  0  0  0  0  0  0  0
   -3.6237   36.3762   26.2853 H   0  0  0  0  0  0  0  0  0  0  0  0
   -4.1065   38.3490   28.2972 O   0  0  0  0  0  0  0  0  0  0  0  0
   -3.4029   38.2608   29.7277 P   0  0  0  0  0  0  0  0  0  0  0  0
   -2.1324   37.4118   29.7245 O   0  0  0  0  0  0  0  0  0  0  0  0
   -4.3676   37.5410   30.6100 O   0  0  0  0  0  0  0  0  0  0  0  0
   -3.3153   39.7030   30.1954 O   0  0  0  0  0  0  0  0  0  0  0  0
   -3.9910   37.4569   31.5000 H   0  0  0  0  0  0  0  0  0  0  0  0
   -2.8941   39.7348   31.0685 H   0  0  0  0  0  0  0  0  0  0  0  0
 31 32  2  0  0  0
 31 33  1  0  0  0
 31 34  1  0  0  0
 31 30  1  0  0  0
 30 26  1  0  0  0
 26 27  2  0  0  0
 26 28  1  0  0  0
 26 25  1  0  0  0
 25 24  1  0  0  0
 24  1  1  0  0  0
  1  2  1  0  0  0
  1  3  1  0  0  0
  2  7  1  0  0  0
  3  4  1  0  0  0
  3  5  1  0  0  0
  5  6  1  0  0  0
  5  7  1  0  0  0
  7 10  1  0  0  0
 10 11  1  0  0  0
 10 20  1  0  0  0
 11 12  2  0  0  0
 12 13  1  0  0  0
 13 14  1  0  0  0
 13 20  2  0  0  0
 14 15  2  0  0  0
 14 16  1  0  0  0
 16 17  1  0  0  0
 17 18  1  0  0  0
 17 19  2  0  0  0
 19 20  1  0  0  0
 33 35  1  0  0  0
 34 36  1  0  0  0
 28 29  1  0  0  0
  4  8  1  0  0  0
  6  9  1  0  0  0
 16 21  1  0  0  0
 18 22  1  0  0  0
 18 23  1  0  0  0
M  END
> <minimizedAffinity>
-7.97909

$$$$
