4FLP_JQ1_A_201


 32 35  0  0  0  0  0  0  0  0999 V2000
   10.4757    2.9274  -26.8805 C   0  0  0  0  0  0  0  0  0  0  0  0
    6.6723   -0.1564  -23.4362 C   0  0  0  0  0  0  0  0  0  0  0  0
    6.3229   -2.1050  -25.9610 C   0  0  0  0  0  0  0  0  0  0  0  0
    9.4114   -2.0609  -28.6276 N   0  0  0  0  0  0  0  0  0  0  0  0
   12.0107    1.4340  -28.2457 N   0  0  0  0  0  0  0  0  0  0  0  0
   12.0684    0.2046  -28.5428 N   0  0  0  0  0  0  0  0  0  0  0  0
    8.9557    0.7732  -24.9847 S   0  0  0  0  0  0  0  0  0  0  0  0
    8.2839   -1.6209  -28.0700 C   0  0  0  0  0  0  0  0  0  0  0  0
   10.9238    1.6346  -27.4615 C   0  0  0  0  0  0  0  0  0  0  0  0
    7.5562   -0.2390  -24.7361 C   0  0  0  0  0  0  0  0  0  0  0  0
    7.3991   -1.0676  -25.8070 C   0  0  0  0  0  0  0  0  0  0  0  0
   11.0645   -0.4366  -27.9487 C   0  0  0  0  0  0  0  0  0  0  0  0
    8.3153   -0.8630  -26.8557 C   0  0  0  0  0  0  0  0  0  0  0  0
    9.2681    0.1224  -26.5408 C   0  0  0  0  0  0  0  0  0  0  0  0
   10.7298   -1.9433  -27.9847 C   0  0  0  0  0  0  0  0  0  0  0  0
   10.3249    0.4597  -27.2847 N   0  0  0  0  0  0  0  0  0  0  0  0
   12.7479   -0.2111  -29.1213 H   0  0  0  0  0  0  0  0  0  0  0  0
    3.3030   -2.7054  -31.2149 Cl  0  0  0  0  0  0  0  0  0  0  0  0
    4.9860   -0.9577  -29.8576 C   0  0  0  0  0  0  0  0  0  0  0  0
    5.5483   -3.2948  -29.9527 C   0  0  0  0  0  0  0  0  0  0  0  0
    6.1940   -0.7591  -29.1378 C   0  0  0  0  0  0  0  0  0  0  0  0
    6.7142   -3.0813  -29.2493 C   0  0  0  0  0  0  0  0  0  0  0  0
    4.6996   -2.2437  -30.2879 C   0  0  0  0  0  0  0  0  0  0  0  0
    7.0883   -1.8130  -28.8339 C   0  0  0  0  0  0  0  0  0  0  0  0
   11.7280   -2.8434  -28.7168 C   0  0  0  0  0  0  0  0  0  0  0  0
   11.8867   -4.2567  -26.7643 O   0  0  0  0  0  0  0  0  0  0  0  0
   11.7001   -4.1722  -27.9560 C   0  0  0  0  0  0  0  0  0  0  0  0
   11.5003   -5.3204  -28.6387 O   0  0  0  0  0  0  0  0  0  0  0  0
   10.4313   -7.3603  -28.9211 C   0  0  0  0  0  0  0  0  0  0  0  0
    9.4452   -5.6248  -27.3618 C   0  0  0  0  0  0  0  0  0  0  0  0
    9.2821   -5.3412  -29.8582 C   0  0  0  0  0  0  0  0  0  0  0  0
   10.1501   -5.8771  -28.6989 C   0  0  0  0  0  0  0  0  0  0  0  0
  1  9  1  0  0  0
  2 10  1  0  0  0
  3 11  1  0  0  0
 29 32  1  0  0  0
 30 32  1  0  0  0
 31 32  1  0  0  0
 26 27  2  0  0  0
 18 23  1  0  0  0
 19 21  2  0  0  0
 19 23  1  0  0  0
 20 22  1  0  0  0
 20 23  2  0  0  0
 21 24  1  0  0  0
 22 24  2  0  0  0
 25 27  1  0  0  0
 25 15  1  0  0  0
  4  8  2  0  0  0
  4 15  1  0  0  0
  5  6  1  0  0  0
  5  9  2  0  0  0
  6 12  1  0  0  0
 28 27  1  0  0  0
 28 32  1  0  0  0
  7 10  1  0  0  0
  7 14  1  0  0  0
  8 24  1  0  0  0
  8 13  1  0  0  0
  9 16  1  0  0  0
 10 11  2  0  0  0
 11 13  1  0  0  0
 12 15  1  0  0  0
 12 16  2  0  0  0
 13 14  2  0  0  0
 14 16  1  0  0  0
  6 17  1  0  0  0
M  CHG 1  16   1
M  END
> <minimizedAffinity>
-8.15225

$$$$
4FLP_JQ1_A_201


 32 35  0  0  0  0  0  0  0  0999 V2000
    8.1333   -0.1159  -24.2841 C   0  0  0  0  0  0  0  0  0  0  0  0
   12.3896    0.5541  -28.4402 C   0  0  0  0  0  0  0  0  0  0  0  0
   11.6318   -2.4219  -29.3693 C   0  0  0  0  0  0  0  0  0  0  0  0
    7.8819   -3.6592  -28.3401 N   0  0  0  0  0  0  0  0  0  0  0  0
    6.0498   -1.2633  -25.1747 N   0  0  0  0  0  0  0  0  0  0  0  0
    5.7317   -1.9069  -26.2175 N   0  0  0  0  0  0  0  0  0  0  0  0
    9.8769    0.3045  -26.9912 S   0  0  0  0  0  0  0  0  0  0  0  0
    9.1782   -3.4224  -28.1418 C   0  0  0  0  0  0  0  0  0  0  0  0
    7.3489   -0.8921  -25.2802 C   0  0  0  0  0  0  0  0  0  0  0  0
   11.1294   -0.3019  -28.0441 C   0  0  0  0  0  0  0  0  0  0  0  0
   10.8160   -1.5680  -28.4402 C   0  0  0  0  0  0  0  0  0  0  0  0
    6.7765   -1.9496  -27.0411 C   0  0  0  0  0  0  0  0  0  0  0  0
    9.6462   -2.0980  -27.8643 C   0  0  0  0  0  0  0  0  0  0  0  0
    8.9909   -1.1634  -27.0426 C   0  0  0  0  0  0  0  0  0  0  0  0
    6.8725   -2.5934  -28.4411 C   0  0  0  0  0  0  0  0  0  0  0  0
    7.8065   -1.3333  -26.4491 N   0  0  0  0  0  0  0  0  0  0  0  0
    4.8513   -2.3116  -26.3917 H   0  0  0  0  0  0  0  0  0  0  0  0
   12.8170   -8.1464  -27.5766 Cl  0  0  0  0  0  0  0  0  0  0  0  0
   10.6107   -6.9038  -28.7245 C   0  0  0  0  0  0  0  0  0  0  0  0
   11.8760   -5.7351  -27.0450 C   0  0  0  0  0  0  0  0  0  0  0  0
    9.7985   -5.7438  -28.8324 C   0  0  0  0  0  0  0  0  0  0  0  0
   11.0732   -4.6209  -27.1621 C   0  0  0  0  0  0  0  0  0  0  0  0
   11.6754   -6.8613  -27.8382 C   0  0  0  0  0  0  0  0  0  0  0  0
   10.0233   -4.5756  -28.0658 C   0  0  0  0  0  0  0  0  0  0  0  0
    5.5778   -3.1796  -29.0092 C   0  0  0  0  0  0  0  0  0  0  0  0
    4.7036   -1.9987  -30.9265 O   0  0  0  0  0  0  0  0  0  0  0  0
    5.5483   -2.7368  -30.4749 C   0  0  0  0  0  0  0  0  0  0  0  0
    6.4781   -3.2166  -31.3289 O   0  0  0  0  0  0  0  0  0  0  0  0
    6.0054   -4.0691  -33.4346 C   0  0  0  0  0  0  0  0  0  0  0  0
    7.4779   -5.3802  -31.8445 C   0  0  0  0  0  0  0  0  0  0  0  0
    4.9900   -5.2591  -31.4779 C   0  0  0  0  0  0  0  0  0  0  0  0
    6.2331   -4.4981  -31.9880 C   0  0  0  0  0  0  0  0  0  0  0  0
  1  9  1  0  0  0
  2 10  1  0  0  0
  3 11  1  0  0  0
 29 32  1  0  0  0
 30 32  1  0  0  0
 31 32  1  0  0  0
 26 27  2  0  0  0
 18 23  1  0  0  0
 19 21  2  0  0  0
 19 23  1  0  0  0
 20 22  1  0  0  0
 20 23  2  0  0  0
 21 24  1  0  0  0
 22 24  2  0  0  0
 25 27  1  0  0  0
 25 15  1  0  0  0
  4  8  2  0  0  0
  4 15  1  0  0  0
  5  6  1  0  0  0
  5  9  2  0  0  0
  6 12  1  0  0  0
 28 27  1  0  0  0
 28 32  1  0  0  0
  7 10  1  0  0  0
  7 14  1  0  0  0
  8 24  1  0  0  0
  8 13  1  0  0  0
  9 16  1  0  0  0
 10 11  2  0  0  0
 11 13  1  0  0  0
 12 15  1  0  0  0
 12 16  2  0  0  0
 13 14  2  0  0  0
 14 16  1  0  0  0
  6 17  1  0  0  0
M  CHG 1  16   1
M  END
> <minimizedAffinity>
-8.03953

$$$$
4FLP_JQ1_A_201


 32 35  0  0  0  0  0  0  0  0999 V2000
    9.7993   -6.0520  -27.9497 C   0  0  0  0  0  0  0  0  0  0  0  0
    5.2459   -3.4131  -30.8032 C   0  0  0  0  0  0  0  0  0  0  0  0
    5.4802   -1.1153  -28.5762 C   0  0  0  0  0  0  0  0  0  0  0  0
    9.1140   -0.8428  -26.7397 N   0  0  0  0  0  0  0  0  0  0  0  0
   11.5945   -4.4114  -27.2174 N   0  0  0  0  0  0  0  0  0  0  0  0
   11.7047   -3.1537  -27.1233 N   0  0  0  0  0  0  0  0  0  0  0  0
    7.8439   -4.1597  -29.7221 S   0  0  0  0  0  0  0  0  0  0  0  0
    7.8923   -1.3339  -26.9447 C   0  0  0  0  0  0  0  0  0  0  0  0
   10.3553   -4.6990  -27.6844 C   0  0  0  0  0  0  0  0  0  0  0  0
    6.4120   -3.1638  -29.7756 C   0  0  0  0  0  0  0  0  0  0  0  0
    6.5027   -2.1870  -28.8293 C   0  0  0  0  0  0  0  0  0  0  0  0
   10.5800   -2.5829  -27.5488 C   0  0  0  0  0  0  0  0  0  0  0  0
    7.6444   -2.2587  -28.0093 C   0  0  0  0  0  0  0  0  0  0  0  0
    8.5083   -3.2993  -28.3952 C   0  0  0  0  0  0  0  0  0  0  0  0
   10.2434   -1.0797  -27.6526 C   0  0  0  0  0  0  0  0  0  0  0  0
    9.7159   -3.5491  -27.8821 N   0  0  0  0  0  0  0  0  0  0  0  0
   12.4966   -2.6740  -26.7886 H   0  0  0  0  0  0  0  0  0  0  0  0
    3.7963   -0.2431  -22.7128 Cl  0  0  0  0  0  0  0  0  0  0  0  0
    5.6606    0.6444  -24.5745 C   0  0  0  0  0  0  0  0  0  0  0  0
    5.3404   -1.7200  -24.2672 C   0  0  0  0  0  0  0  0  0  0  0  0
    6.6031    0.3231  -25.5871 C   0  0  0  0  0  0  0  0  0  0  0  0
    6.2616   -2.0105  -25.2504 C   0  0  0  0  0  0  0  0  0  0  0  0
    5.0109   -0.4063  -23.9462 C   0  0  0  0  0  0  0  0  0  0  0  0
    6.9099   -1.0085  -25.9553 C   0  0  0  0  0  0  0  0  0  0  0  0
   11.3748   -0.1056  -27.3158 C   0  0  0  0  0  0  0  0  0  0  0  0
   12.2161    1.7695  -28.5850 O   0  0  0  0  0  0  0  0  0  0  0  0
   11.3523    0.9361  -28.4381 C   0  0  0  0  0  0  0  0  0  0  0  0
   10.3042    0.9677  -29.2893 O   0  0  0  0  0  0  0  0  0  0  0  0
    9.7262    3.0367  -30.1664 C   0  0  0  0  0  0  0  0  0  0  0  0
    7.9134    1.4249  -29.4375 C   0  0  0  0  0  0  0  0  0  0  0  0
    9.2757    2.6751  -27.7288 C   0  0  0  0  0  0  0  0  0  0  0  0
    9.2939    2.0108  -29.1227 C   0  0  0  0  0  0  0  0  0  0  0  0
  1  9  1  0  0  0
  2 10  1  0  0  0
  3 11  1  0  0  0
 29 32  1  0  0  0
 30 32  1  0  0  0
 31 32  1  0  0  0
 26 27  2  0  0  0
 18 23  1  0  0  0
 19 21  2  0  0  0
 19 23  1  0  0  0
 20 22  1  0  0  0
 20 23  2  0  0  0
 21 24  1  0  0  0
 22 24  2  0  0  0
 25 27  1  0  0  0
 25 15  1  0  0  0
  4  8  2  0  0  0
  4 15  1  0  0  0
  5  6  1  0  0  0
  5  9  2  0  0  0
  6 12  1  0  0  0
 28 27  1  0  0  0
 28 32  1  0  0  0
  7 10  1  0  0  0
  7 14  1  0  0  0
  8 24  1  0  0  0
  8 13  1  0  0  0
  9 16  1  0  0  0
 10 11  2  0  0  0
 11 13  1  0  0  0
 12 15  1  0  0  0
 12 16  2  0  0  0
 13 14  2  0  0  0
 14 16  1  0  0  0
  6 17  1  0  0  0
M  CHG 1  16   1
M  END
> <minimizedAffinity>
-7.68540

$$$$
4FLP_JQ1_A_201


 32 35  0  0  0  0  0  0  0  0999 V2000
   12.0491   -0.2310  -28.4757 C   0  0  0  0  0  0  0  0  0  0  0  0
    7.6704    0.1710  -24.4132 C   0  0  0  0  0  0  0  0  0  0  0  0
    6.0021   -1.7638  -26.3542 C   0  0  0  0  0  0  0  0  0  0  0  0
    8.2506   -4.0346  -28.8917 N   0  0  0  0  0  0  0  0  0  0  0  0
   12.3458   -2.5842  -29.3840 N   0  0  0  0  0  0  0  0  0  0  0  0
   11.6935   -3.6688  -29.3524 N   0  0  0  0  0  0  0  0  0  0  0  0
    9.8705   -0.6937  -26.1124 S   0  0  0  0  0  0  0  0  0  0  0  0
    7.6211   -2.9328  -28.4849 C   0  0  0  0  0  0  0  0  0  0  0  0
   11.6508   -1.6462  -28.6958 C   0  0  0  0  0  0  0  0  0  0  0  0
    8.1927   -0.6754  -25.6333 C   0  0  0  0  0  0  0  0  0  0  0  0
    7.4766   -1.4927  -26.4562 C   0  0  0  0  0  0  0  0  0  0  0  0
   10.5897   -3.4946  -28.6291 C   0  0  0  0  0  0  0  0  0  0  0  0
    8.2132   -2.0704  -27.5073 C   0  0  0  0  0  0  0  0  0  0  0  0
    9.5780   -1.7369  -27.4423 C   0  0  0  0  0  0  0  0  0  0  0  0
    9.4953   -4.5261  -28.2800 C   0  0  0  0  0  0  0  0  0  0  0  0
   10.5427   -2.2177  -28.2311 N   0  0  0  0  0  0  0  0  0  0  0  0
   11.9602   -4.5079  -29.7929 H   0  0  0  0  0  0  0  0  0  0  0  0
    2.7047   -1.2556  -31.4668 Cl  0  0  0  0  0  0  0  0  0  0  0  0
    4.4112   -3.2329  -30.5141 C   0  0  0  0  0  0  0  0  0  0  0  0
    4.9503   -0.9227  -30.1147 C   0  0  0  0  0  0  0  0  0  0  0  0
    5.5761   -3.5691  -29.7747 C   0  0  0  0  0  0  0  0  0  0  0  0
    6.0789   -1.2702  -29.4038 C   0  0  0  0  0  0  0  0  0  0  0  0
    4.0984   -1.8888  -30.6424 C   0  0  0  0  0  0  0  0  0  0  0  0
    6.4228   -2.5960  -29.1923 C   0  0  0  0  0  0  0  0  0  0  0  0
    9.7468   -5.9645  -28.7385 C   0  0  0  0  0  0  0  0  0  0  0  0
   11.4727   -6.0087  -27.0491 O   0  0  0  0  0  0  0  0  0  0  0  0
   11.1137   -6.3361  -28.1564 C   0  0  0  0  0  0  0  0  0  0  0  0
   11.9903   -7.0267  -28.9172 O   0  0  0  0  0  0  0  0  0  0  0  0
   12.5919   -8.7464  -30.3541 C   0  0  0  0  0  0  0  0  0  0  0  0
   12.3874   -9.1925  -27.8692 C   0  0  0  0  0  0  0  0  0  0  0  0
   10.3294   -8.9005  -29.2898 C   0  0  0  0  0  0  0  0  0  0  0  0
   11.7967   -8.4661  -29.0823 C   0  0  0  0  0  0  0  0  0  0  0  0
  1  9  1  0  0  0
  2 10  1  0  0  0
  3 11  1  0  0  0
 29 32  1  0  0  0
 30 32  1  0  0  0
 31 32  1  0  0  0
 26 27  2  0  0  0
 18 23  1  0  0  0
 19 21  2  0  0  0
 19 23  1  0  0  0
 20 22  1  0  0  0
 20 23  2  0  0  0
 21 24  1  0  0  0
 22 24  2  0  0  0
 25 27  1  0  0  0
 25 15  1  0  0  0
  4  8  2  0  0  0
  4 15  1  0  0  0
  5  6  1  0  0  0
  5  9  2  0  0  0
  6 12  1  0  0  0
 28 27  1  0  0  0
 28 32  1  0  0  0
  7 10  1  0  0  0
  7 14  1  0  0  0
  8 24  1  0  0  0
  8 13  1  0  0  0
  9 16  1  0  0  0
 10 11  2  0  0  0
 11 13  1  0  0  0
 12 15  1  0  0  0
 12 16  2  0  0  0
 13 14  2  0  0  0
 14 16  1  0  0  0
  6 17  1  0  0  0
M  CHG 1  16   1
M  END
> <minimizedAffinity>
-7.54310

$$$$
4FLP_JQ1_A_201


 32 35  0  0  0  0  0  0  0  0999 V2000
   10.0428    3.0957  -25.7746 C   0  0  0  0  0  0  0  0  0  0  0  0
    6.0681   -0.3801  -22.9533 C   0  0  0  0  0  0  0  0  0  0  0  0
    6.0310   -2.1298  -25.6424 C   0  0  0  0  0  0  0  0  0  0  0  0
    9.3467   -1.7686  -27.9934 N   0  0  0  0  0  0  0  0  0  0  0  0
   11.7559    1.7688  -27.0994 N   0  0  0  0  0  0  0  0  0  0  0  0
   11.8904    0.5699  -27.4835 N   0  0  0  0  0  0  0  0  0  0  0  0
    8.4441    0.7465  -24.2027 S   0  0  0  0  0  0  0  0  0  0  0  0
    8.1559   -1.4126  -27.5128 C   0  0  0  0  0  0  0  0  0  0  0  0
   10.5944    1.8694  -26.4085 C   0  0  0  0  0  0  0  0  0  0  0  0
    7.0700   -0.3284  -24.1663 C   0  0  0  0  0  0  0  0  0  0  0  0
    7.0455   -1.0729  -25.3078 C   0  0  0  0  0  0  0  0  0  0  0  0
   10.8632   -0.1500  -27.0382 C   0  0  0  0  0  0  0  0  0  0  0  0
    8.0450   -0.7542  -26.2462 C   0  0  0  0  0  0  0  0  0  0  0  0
    8.9241    0.2338  -25.7676 C   0  0  0  0  0  0  0  0  0  0  0  0
   10.5947   -1.6593  -27.2216 C   0  0  0  0  0  0  0  0  0  0  0  0
   10.0301    0.6648  -26.3801 N   0  0  0  0  0  0  0  0  0  0  0  0
   12.6364    0.2249  -28.0254 H   0  0  0  0  0  0  0  0  0  0  0  0
    3.4971   -1.8383  -31.2531 Cl  0  0  0  0  0  0  0  0  0  0  0  0
    5.6464   -2.9821  -29.9109 C   0  0  0  0  0  0  0  0  0  0  0  0
    5.2174   -0.6290  -29.6532 C   0  0  0  0  0  0  0  0  0  0  0  0
    6.7223   -2.8236  -28.9976 C   0  0  0  0  0  0  0  0  0  0  0  0
    6.2687   -0.4957  -28.7719 C   0  0  0  0  0  0  0  0  0  0  0  0
    4.8797   -1.8640  -30.1993 C   0  0  0  0  0  0  0  0  0  0  0  0
    7.0441   -1.5823  -28.3989 C   0  0  0  0  0  0  0  0  0  0  0  0
   11.6915   -2.4638  -27.9231 C   0  0  0  0  0  0  0  0  0  0  0  0
   10.9561   -3.0761  -30.1410 O   0  0  0  0  0  0  0  0  0  0  0  0
   10.9576   -3.3226  -28.9571 C   0  0  0  0  0  0  0  0  0  0  0  0
   10.2375   -4.3867  -28.5409 O   0  0  0  0  0  0  0  0  0  0  0  0
   10.7689   -5.6935  -26.6987 C   0  0  0  0  0  0  0  0  0  0  0  0
   10.2432   -6.7960  -28.9177 C   0  0  0  0  0  0  0  0  0  0  0  0
   12.4442   -5.6270  -28.5601 C   0  0  0  0  0  0  0  0  0  0  0  0
   10.9393   -5.6264  -28.2136 C   0  0  0  0  0  0  0  0  0  0  0  0
  1  9  1  0  0  0
  2 10  1  0  0  0
  3 11  1  0  0  0
 29 32  1  0  0  0
 30 32  1  0  0  0
 31 32  1  0  0  0
 26 27  2  0  0  0
 18 23  1  0  0  0
 19 21  2  0  0  0
 19 23  1  0  0  0
 20 22  1  0  0  0
 20 23  2  0  0  0
 21 24  1  0  0  0
 22 24  2  0  0  0
 25 27  1  0  0  0
 25 15  1  0  0  0
  4  8  2  0  0  0
  4 15  1  0  0  0
  5  6  1  0  0  0
  5  9  2  0  0  0
  6 12  1  0  0  0
 28 27  1  0  0  0
 28 32  1  0  0  0
  7 10  1  0  0  0
  7 14  1  0  0  0
  8 24  1  0  0  0
  8 13  1  0  0  0
  9 16  1  0  0  0
 10 11  2  0  0  0
 11 13  1  0  0  0
 12 15  1  0  0  0
 12 16  2  0  0  0
 13 14  2  0  0  0
 14 16  1  0  0  0
  6 17  1  0  0  0
M  CHG 1  16   1
M  END
> <minimizedAffinity>
-7.29121

$$$$
4FLP_JQ1_A_201


 32 35  0  0  0  0  0  0  0  0999 V2000
   14.3327    3.5719  -27.7690 C   0  0  0  0  0  0  0  0  0  0  0  0
    9.0639    3.7561  -30.6054 C   0  0  0  0  0  0  0  0  0  0  0  0
    8.4044    1.0118  -29.0796 C   0  0  0  0  0  0  0  0  0  0  0  0
   10.5412    0.3690  -25.6631 N   0  0  0  0  0  0  0  0  0  0  0  0
   14.1278    2.8489  -25.3430 N   0  0  0  0  0  0  0  0  0  0  0  0
   13.2327    2.3314  -24.6124 N   0  0  0  0  0  0  0  0  0  0  0  0
   11.2199    3.8504  -28.6513 S   0  0  0  0  0  0  0  0  0  0  0  0
   10.3286    0.3705  -26.9787 C   0  0  0  0  0  0  0  0  0  0  0  0
   13.6261    3.0002  -26.5927 C   0  0  0  0  0  0  0  0  0  0  0  0
    9.8282    3.1040  -29.3936 C   0  0  0  0  0  0  0  0  0  0  0  0
    9.5440    1.9351  -28.7526 C   0  0  0  0  0  0  0  0  0  0  0  0
   12.1255    2.1611  -25.3313 C   0  0  0  0  0  0  0  0  0  0  0  0
   10.4523    1.5777  -27.7386 C   0  0  0  0  0  0  0  0  0  0  0  0
   11.4403    2.5595  -27.5434 C   0  0  0  0  0  0  0  0  0  0  0  0
   10.7624    1.5944  -24.8793 C   0  0  0  0  0  0  0  0  0  0  0  0
   12.3712    2.5579  -26.5857 N   0  0  0  0  0  0  0  0  0  0  0  0
   13.3387    2.0927  -23.6631 H   0  0  0  0  0  0  0  0  0  0  0  0
    9.2556   -5.0025  -29.3985 Cl  0  0  0  0  0  0  0  0  0  0  0  0
   10.7096   -2.6354  -29.2875 C   0  0  0  0  0  0  0  0  0  0  0  0
    8.8576   -2.9486  -27.7844 C   0  0  0  0  0  0  0  0  0  0  0  0
   10.9306   -1.3824  -28.6565 C   0  0  0  0  0  0  0  0  0  0  0  0
    9.0865   -1.7273  -27.1882 C   0  0  0  0  0  0  0  0  0  0  0  0
    9.6765   -3.4233  -28.8051 C   0  0  0  0  0  0  0  0  0  0  0  0
   10.1343   -0.9116  -27.5855 C   0  0  0  0  0  0  0  0  0  0  0  0
   10.6217    1.2707  -23.3901 C   0  0  0  0  0  0  0  0  0  0  0  0
    9.2241    2.3610  -21.7490 O   0  0  0  0  0  0  0  0  0  0  0  0
    9.4261    2.0999  -22.9123 C   0  0  0  0  0  0  0  0  0  0  0  0
    8.5200    2.5340  -23.8150 O   0  0  0  0  0  0  0  0  0  0  0  0
    6.2504    2.3974  -23.3521 C   0  0  0  0  0  0  0  0  0  0  0  0
    7.1177    1.7000  -25.6274 C   0  0  0  0  0  0  0  0  0  0  0  0
    7.4841    0.2329  -23.6144 C   0  0  0  0  0  0  0  0  0  0  0  0
    7.3658    1.6889  -24.1153 C   0  0  0  0  0  0  0  0  0  0  0  0
  1  9  1  0  0  0
  2 10  1  0  0  0
  3 11  1  0  0  0
 29 32  1  0  0  0
 30 32  1  0  0  0
 31 32  1  0  0  0
 26 27  2  0  0  0
 18 23  1  0  0  0
 19 21  2  0  0  0
 19 23  1  0  0  0
 20 22  1  0  0  0
 20 23  2  0  0  0
 21 24  1  0  0  0
 22 24  2  0  0  0
 25 27  1  0  0  0
 25 15  1  0  0  0
  4  8  2  0  0  0
  4 15  1  0  0  0
  5  6  1  0  0  0
  5  9  2  0  0  0
  6 12  1  0  0  0
 28 27  1  0  0  0
 28 32  1  0  0  0
  7 10  1  0  0  0
  7 14  1  0  0  0
  8 24  1  0  0  0
  8 13  1  0  0  0
  9 16  1  0  0  0
 10 11  2  0  0  0
 11 13  1  0  0  0
 12 15  1  0  0  0
 12 16  2  0  0  0
 13 14  2  0  0  0
 14 16  1  0  0  0
  6 17  1  0  0  0
M  CHG 1  16   1
M  END
> <minimizedAffinity>
-7.14619

$$$$
4FLP_JQ1_A_201


 32 35  0  0  0  0  0  0  0  0999 V2000
    8.4165    0.2791  -23.9435 C   0  0  0  0  0  0  0  0  0  0  0  0
   12.5295    0.8784  -28.2519 C   0  0  0  0  0  0  0  0  0  0  0  0
   11.6339   -2.0532  -29.1995 C   0  0  0  0  0  0  0  0  0  0  0  0
    7.8862   -3.1808  -28.0444 N   0  0  0  0  0  0  0  0  0  0  0  0
    6.2617   -0.7809  -24.7705 N   0  0  0  0  0  0  0  0  0  0  0  0
    5.8814   -1.3947  -25.8105 N   0  0  0  0  0  0  0  0  0  0  0  0
   10.0676    0.6884  -26.7097 S   0  0  0  0  0  0  0  0  0  0  0  0
    9.1966   -2.9916  -27.8932 C   0  0  0  0  0  0  0  0  0  0  0  0
    7.5678   -0.4522  -24.9207 C   0  0  0  0  0  0  0  0  0  0  0  0
   11.2567    0.0587  -27.8207 C   0  0  0  0  0  0  0  0  0  0  0  0
   10.8847   -1.1887  -28.2250 C   0  0  0  0  0  0  0  0  0  0  0  0
    6.8915   -1.4581  -26.6750 C   0  0  0  0  0  0  0  0  0  0  0  0
    9.7204   -1.6890  -27.6125 C   0  0  0  0  0  0  0  0  0  0  0  0
    9.1301   -0.7475  -26.7504 C   0  0  0  0  0  0  0  0  0  0  0  0
    6.9110   -2.0798  -28.0881 C   0  0  0  0  0  0  0  0  0  0  0  0
    7.9643   -0.8877  -26.1138 N   0  0  0  0  0  0  0  0  0  0  0  0
    4.9815   -1.7662  -25.9565 H   0  0  0  0  0  0  0  0  0  0  0  0
   12.6967   -7.8404  -27.5549 Cl  0  0  0  0  0  0  0  0  0  0  0  0
   10.4609   -6.5239  -28.5536 C   0  0  0  0  0  0  0  0  0  0  0  0
   11.8810   -5.3953  -26.9734 C   0  0  0  0  0  0  0  0  0  0  0  0
    9.6847   -5.3361  -28.6115 C   0  0  0  0  0  0  0  0  0  0  0  0
   11.1119   -4.2536  -27.0409 C   0  0  0  0  0  0  0  0  0  0  0  0
   11.5858   -6.5163  -27.7439 C   0  0  0  0  0  0  0  0  0  0  0  0
   10.0037   -4.1740  -27.8695 C   0  0  0  0  0  0  0  0  0  0  0  0
    5.5759   -2.6115  -28.6145 C   0  0  0  0  0  0  0  0  0  0  0  0
    5.1352   -2.3484  -30.9749 O   0  0  0  0  0  0  0  0  0  0  0  0
    5.3107   -1.8227  -29.9001 C   0  0  0  0  0  0  0  0  0  0  0  0
    5.3107   -0.4728  -29.8589 O   0  0  0  0  0  0  0  0  0  0  0  0
    4.2268    1.5205  -30.3446 C   0  0  0  0  0  0  0  0  0  0  0  0
    2.8867   -0.6133  -30.0860 C   0  0  0  0  0  0  0  0  0  0  0  0
    3.8426    0.5491  -28.0676 C   0  0  0  0  0  0  0  0  0  0  0  0
    4.0595    0.2218  -29.5611 C   0  0  0  0  0  0  0  0  0  0  0  0
  1  9  1  0  0  0
  2 10  1  0  0  0
  3 11  1  0  0  0
 29 32  1  0  0  0
 30 32  1  0  0  0
 31 32  1  0  0  0
 26 27  2  0  0  0
 18 23  1  0  0  0
 19 21  2  0  0  0
 19 23  1  0  0  0
 20 22  1  0  0  0
 20 23  2  0  0  0
 21 24  1  0  0  0
 22 24  2  0  0  0
 25 27  1  0  0  0
 25 15  1  0  0  0
  4  8  2  0  0  0
  4 15  1  0  0  0
  5  6  1  0  0  0
  5  9  2  0  0  0
  6 12  1  0  0  0
 28 27  1  0  0  0
 28 32  1  0  0  0
  7 10  1  0  0  0
  7 14  1  0  0  0
  8 24  1  0  0  0
  8 13  1  0  0  0
  9 16  1  0  0  0
 10 11  2  0  0  0
 11 13  1  0  0  0
 12 15  1  0  0  0
 12 16  2  0  0  0
 13 14  2  0  0  0
 14 16  1  0  0  0
  6 17  1  0  0  0
M  CHG 1  16   1
M  END
> <minimizedAffinity>
-7.06006

$$$$
4FLP_JQ1_A_201


 32 35  0  0  0  0  0  0  0  0999 V2000
   10.1422    3.8312  -28.9157 C   0  0  0  0  0  0  0  0  0  0  0  0
   11.6873    3.9997  -23.1345 C   0  0  0  0  0  0  0  0  0  0  0  0
    9.5677    1.6247  -22.7336 C   0  0  0  0  0  0  0  0  0  0  0  0
    8.7300   -0.5385  -26.0907 N   0  0  0  0  0  0  0  0  0  0  0  0
    9.8782    1.4661  -29.8028 N   0  0  0  0  0  0  0  0  0  0  0  0
    9.7999    0.3038  -29.3071 N   0  0  0  0  0  0  0  0  0  0  0  0
   11.3244    3.3028  -25.9377 S   0  0  0  0  0  0  0  0  0  0  0  0
    8.6183    0.4907  -25.2516 C   0  0  0  0  0  0  0  0  0  0  0  0
   10.0124    2.3557  -28.7894 C   0  0  0  0  0  0  0  0  0  0  0  0
   10.9932    3.1137  -24.2349 C   0  0  0  0  0  0  0  0  0  0  0  0
   10.0901    2.1084  -24.0570 C   0  0  0  0  0  0  0  0  0  0  0  0
    9.9127    0.3842  -27.9833 C   0  0  0  0  0  0  0  0  0  0  0  0
    9.5942    1.5384  -25.2445 C   0  0  0  0  0  0  0  0  0  0  0  0
   10.2036    2.0849  -26.3882 C   0  0  0  0  0  0  0  0  0  0  0  0
    9.9068   -0.7593  -26.9459 C   0  0  0  0  0  0  0  0  0  0  0  0
   10.0235    1.6746  -27.6464 N   0  0  0  0  0  0  0  0  0  0  0  0
    9.6752   -0.5276  -29.8195 H   0  0  0  0  0  0  0  0  0  0  0  0
    3.6169    0.5217  -21.9561 Cl  0  0  0  0  0  0  0  0  0  0  0  0
    5.4579    1.8162  -23.5883 C   0  0  0  0  0  0  0  0  0  0  0  0
    5.8193   -0.4904  -23.0082 C   0  0  0  0  0  0  0  0  0  0  0  0
    6.6381    1.7397  -24.3746 C   0  0  0  0  0  0  0  0  0  0  0  0
    6.9643   -0.5424  -23.7737 C   0  0  0  0  0  0  0  0  0  0  0  0
    5.0467    0.6652  -22.9349 C   0  0  0  0  0  0  0  0  0  0  0  0
    7.4045    0.5561  -24.4952 C   0  0  0  0  0  0  0  0  0  0  0  0
    9.8617   -2.1833  -27.5051 C   0  0  0  0  0  0  0  0  0  0  0  0
   12.2515   -2.0456  -27.8285 O   0  0  0  0  0  0  0  0  0  0  0  0
   11.3061   -2.6869  -27.4321 C   0  0  0  0  0  0  0  0  0  0  0  0
   11.5514   -3.9217  -26.9430 O   0  0  0  0  0  0  0  0  0  0  0  0
   12.6434   -5.8624  -27.5952 C   0  0  0  0  0  0  0  0  0  0  0  0
   10.1229   -5.8568  -27.3449 C   0  0  0  0  0  0  0  0  0  0  0  0
   11.2148   -4.7347  -29.3166 C   0  0  0  0  0  0  0  0  0  0  0  0
   11.3543   -5.0765  -27.8171 C   0  0  0  0  0  0  0  0  0  0  0  0
  1  9  1  0  0  0
  2 10  1  0  0  0
  3 11  1  0  0  0
 29 32  1  0  0  0
 30 32  1  0  0  0
 31 32  1  0  0  0
 26 27  2  0  0  0
 18 23  1  0  0  0
 19 21  2  0  0  0
 19 23  1  0  0  0
 20 22  1  0  0  0
 20 23  2  0  0  0
 21 24  1  0  0  0
 22 24  2  0  0  0
 25 27  1  0  0  0
 25 15  1  0  0  0
  4  8  2  0  0  0
  4 15  1  0  0  0
  5  6  1  0  0  0
  5  9  2  0  0  0
  6 12  1  0  0  0
 28 27  1  0  0  0
 28 32  1  0  0  0
  7 10  1  0  0  0
  7 14  1  0  0  0
  8 24  1  0  0  0
  8 13  1  0  0  0
  9 16  1  0  0  0
 10 11  2  0  0  0
 11 13  1  0  0  0
 12 15  1  0  0  0
 12 16  2  0  0  0
 13 14  2  0  0  0
 14 16  1  0  0  0
  6 17  1  0  0  0
M  CHG 1  16   1
M  END
> <minimizedAffinity>
-6.82034

$$$$
4FLP_JQ1_A_201


 32 35  0  0  0  0  0  0  0  0999 V2000
    6.6185   -2.8023  -27.8594 C   0  0  0  0  0  0  0  0  0  0  0  0
   12.5430   -2.4619  -28.6486 C   0  0  0  0  0  0  0  0  0  0  0  0
   12.2104    0.6766  -28.0716 C   0  0  0  0  0  0  0  0  0  0  0  0
    8.8770    1.7082  -25.9559 N   0  0  0  0  0  0  0  0  0  0  0  0
    5.7949   -1.3927  -25.9139 N   0  0  0  0  0  0  0  0  0  0  0  0
    6.2714   -0.4824  -25.1741 N   0  0  0  0  0  0  0  0  0  0  0  0
    9.8414   -2.5329  -27.5662 S   0  0  0  0  0  0  0  0  0  0  0  0
    9.5689    1.3862  -27.0483 C   0  0  0  0  0  0  0  0  0  0  0  0
    6.7467   -1.7623  -26.8049 C   0  0  0  0  0  0  0  0  0  0  0  0
   11.2991   -1.7050  -28.0506 C   0  0  0  0  0  0  0  0  0  0  0  0
   11.1638   -0.3699  -27.8117 C   0  0  0  0  0  0  0  0  0  0  0  0
    7.5353   -0.2524  -25.5224 C   0  0  0  0  0  0  0  0  0  0  0  0
    9.9013    0.0220  -27.3284 C   0  0  0  0  0  0  0  0  0  0  0  0
    9.0512   -1.0783  -27.1166 C   0  0  0  0  0  0  0  0  0  0  0  0
    8.5395    0.7412  -24.8994 C   0  0  0  0  0  0  0  0  0  0  0  0
    7.8360   -1.0374  -26.5638 N   0  0  0  0  0  0  0  0  0  0  0  0
    5.7843   -0.0183  -24.4553 H   0  0  0  0  0  0  0  0  0  0  0  0
   10.3611    5.7249  -31.1010 Cl  0  0  0  0  0  0  0  0  0  0  0  0
   10.7081    4.7014  -28.5395 C   0  0  0  0  0  0  0  0  0  0  0  0
    9.4668    3.4246  -30.1570 C   0  0  0  0  0  0  0  0  0  0  0  0
   10.5098    3.6281  -27.6308 C   0  0  0  0  0  0  0  0  0  0  0  0
    9.2820    2.3959  -29.2586 C   0  0  0  0  0  0  0  0  0  0  0  0
   10.2002    4.5591  -29.8212 C   0  0  0  0  0  0  0  0  0  0  0  0
    9.8075    2.4492  -27.9772 C   0  0  0  0  0  0  0  0  0  0  0  0
    8.0634    1.4991  -23.6579 C   0  0  0  0  0  0  0  0  0  0  0  0
   10.0305    0.7689  -22.4612 O   0  0  0  0  0  0  0  0  0  0  0  0
    9.3172    1.6852  -22.7984 C   0  0  0  0  0  0  0  0  0  0  0  0
    9.6345    2.9195  -22.3512 O   0  0  0  0  0  0  0  0  0  0  0  0
   11.1819    4.6332  -22.1219 C   0  0  0  0  0  0  0  0  0  0  0  0
   11.4991    2.8800  -23.9223 C   0  0  0  0  0  0  0  0  0  0  0  0
    9.7477    4.6709  -24.1755 C   0  0  0  0  0  0  0  0  0  0  0  0
   10.4971    3.7655  -23.1738 C   0  0  0  0  0  0  0  0  0  0  0  0
  1  9  1  0  0  0
  2 10  1  0  0  0
  3 11  1  0  0  0
 29 32  1  0  0  0
 30 32  1  0  0  0
 31 32  1  0  0  0
 26 27  2  0  0  0
 18 23  1  0  0  0
 19 21  2  0  0  0
 19 23  1  0  0  0
 20 22  1  0  0  0
 20 23  2  0  0  0
 21 24  1  0  0  0
 22 24  2  0  0  0
 25 27  1  0  0  0
 25 15  1  0  0  0
  4  8  2  0  0  0
  4 15  1  0  0  0
  5  6  1  0  0  0
  5  9  2  0  0  0
  6 12  1  0  0  0
 28 27  1  0  0  0
 28 32  1  0  0  0
  7 10  1  0  0  0
  7 14  1  0  0  0
  8 24  1  0  0  0
  8 13  1  0  0  0
  9 16  1  0  0  0
 10 11  2  0  0  0
 11 13  1  0  0  0
 12 15  1  0  0  0
 12 16  2  0  0  0
 13 14  2  0  0  0
 14 16  1  0  0  0
  6 17  1  0  0  0
M  CHG 1  16   1
M  END
> <minimizedAffinity>
-6.46894

$$$$
4FLP_JQ1_A_201


 32 35  0  0  0  0  0  0  0  0999 V2000
   12.0334    3.3582  -23.9875 C   0  0  0  0  0  0  0  0  0  0  0  0
   10.2844    3.4847  -29.7115 C   0  0  0  0  0  0  0  0  0  0  0  0
    9.0695    0.5654  -29.1675 C   0  0  0  0  0  0  0  0  0  0  0  0
    8.2584   -0.2757  -25.2578 N   0  0  0  0  0  0  0  0  0  0  0  0
   10.2746    2.3855  -22.4347 N   0  0  0  0  0  0  0  0  0  0  0  0
    9.1923    1.7413  -22.5636 N   0  0  0  0  0  0  0  0  0  0  0  0
   10.4251    3.5225  -26.8038 S   0  0  0  0  0  0  0  0  0  0  0  0
    9.0292   -0.1568  -26.3383 C   0  0  0  0  0  0  0  0  0  0  0  0
   10.7782    2.6279  -23.6693 C   0  0  0  0  0  0  0  0  0  0  0  0
   10.0503    2.7657  -28.3309 C   0  0  0  0  0  0  0  0  0  0  0  0
    9.5368    1.5229  -28.1078 C   0  0  0  0  0  0  0  0  0  0  0  0
    8.9350    1.5727  -23.8586 C   0  0  0  0  0  0  0  0  0  0  0  0
    9.5084    1.1255  -26.7579 C   0  0  0  0  0  0  0  0  0  0  0  0
    9.9544    2.1445  -25.8971 C   0  0  0  0  0  0  0  0  0  0  0  0
    7.7236    0.8773  -24.5164 C   0  0  0  0  0  0  0  0  0  0  0  0
    9.9402    2.1074  -24.5621 N   0  0  0  0  0  0  0  0  0  0  0  0
    8.6302    1.4167  -21.8234 H   0  0  0  0  0  0  0  0  0  0  0  0
   11.1123   -5.2399  -28.7255 Cl  0  0  0  0  0  0  0  0  0  0  0  0
    8.9991   -3.5950  -27.9783 C   0  0  0  0  0  0  0  0  0  0  0  0
   11.2544   -2.8873  -27.5310 C   0  0  0  0  0  0  0  0  0  0  0  0
    8.5671   -2.3605  -27.4248 C   0  0  0  0  0  0  0  0  0  0  0  0
   10.8141   -1.6968  -26.9938 C   0  0  0  0  0  0  0  0  0  0  0  0
   10.3644   -3.8222  -28.0517 C   0  0  0  0  0  0  0  0  0  0  0  0
    9.4655   -1.3819  -26.9370 C   0  0  0  0  0  0  0  0  0  0  0  0
    6.6195    0.3986  -23.5707 C   0  0  0  0  0  0  0  0  0  0  0  0
    4.2819    0.0651  -24.0795 O   0  0  0  0  0  0  0  0  0  0  0  0
    5.3107    0.6514  -24.3245 C   0  0  0  0  0  0  0  0  0  0  0  0
    5.2954    1.5382  -25.3431 O   0  0  0  0  0  0  0  0  0  0  0  0
    5.7738    1.9871  -27.5687 C   0  0  0  0  0  0  0  0  0  0  0  0
    5.3643   -0.3987  -26.8230 C   0  0  0  0  0  0  0  0  0  0  0  0
    3.4478    1.2190  -27.0438 C   0  0  0  0  0  0  0  0  0  0  0  0
    4.9410    1.0672  -26.6806 C   0  0  0  0  0  0  0  0  0  0  0  0
  1  9  1  0  0  0
  2 10  1  0  0  0
  3 11  1  0  0  0
 29 32  1  0  0  0
 30 32  1  0  0  0
 31 32  1  0  0  0
 26 27  2  0  0  0
 18 23  1  0  0  0
 19 21  2  0  0  0
 19 23  1  0  0  0
 20 22  1  0  0  0
 20 23  2  0  0  0
 21 24  1  0  0  0
 22 24  2  0  0  0
 25 27  1  0  0  0
 25 15  1  0  0  0
  4  8  2  0  0  0
  4 15  1  0  0  0
  5  6  1  0  0  0
  5  9  2  0  0  0
  6 12  1  0  0  0
 28 27  1  0  0  0
 28 32  1  0  0  0
  7 10  1  0  0  0
  7 14  1  0  0  0
  8 24  1  0  0  0
  8 13  1  0  0  0
  9 16  1  0  0  0
 10 11  2  0  0  0
 11 13  1  0  0  0
 12 15  1  0  0  0
 12 16  2  0  0  0
 13 14  2  0  0  0
 14 16  1  0  0  0
  6 17  1  0  0  0
M  CHG 1  16   1
M  END
> <minimizedAffinity>
-6.38052

$$$$
