4AIA_ADK_A_400


 13 14  0  0  0  0  0  0  0  0999 V2000
   30.6493  -19.8886    2.7213 N   0  0  0  0  0  0  0  0  0  0  0  0
   29.8041  -20.8496    2.3203 C   0  0  0  0  0  0  0  0  0  0  0  0
   30.0082  -22.1609    2.0554 N   0  0  0  0  0  0  0  0  0  0  0  0
   28.9514  -22.9482    1.6559 C   0  0  0  0  0  0  0  0  0  0  0  0
   27.7388  -22.4551    1.5283 N   0  0  0  0  0  0  0  0  0  0  0  0
   27.5458  -21.1220    1.8133 C   0  0  0  0  0  0  0  0  0  0  0  0
   26.3242  -20.6160    1.7050 N   0  0  0  0  0  0  0  0  0  0  0  0
   28.5722  -20.3348    2.2180 C   0  0  0  0  0  0  0  0  0  0  0  0
   28.6591  -19.0482    2.5567 N   0  0  0  0  0  0  0  0  0  0  0  0
   29.9277  -18.7563    2.8783 C   0  0  0  0  0  0  0  0  0  0  0  0
   31.3772  -22.7739    2.1596 C   0  0  0  0  0  0  0  0  0  0  0  0
   25.5787  -21.1879    1.4111 H   0  0  0  0  0  0  0  0  0  0  0  0
   26.1631  -19.6686    1.9187 H   0  0  0  0  0  0  0  0  0  0  0  0
  1  2  2  0  0  0
  1 10  1  0  0  0
  2  3  1  0  0  0
  2  8  1  0  0  0
  3  4  1  0  0  0
  3 11  1  0  0  0
  4  5  2  0  0  0
  5  6  1  0  0  0
  6  7  1  0  0  0
  6  8  2  0  0  0
  8  9  1  0  0  0
  9 10  2  0  0  0
  7 12  1  0  0  0
  7 13  1  0  0  0
M  END
> <minimizedAffinity>
-6.13688

$$$$
4AIA_ADK_A_400


 13 14  0  0  0  0  0  0  0  0999 V2000
   30.8162  -18.9107    1.9519 N   0  0  0  0  0  0  0  0  0  0  0  0
   30.0867  -19.8605    1.3482 C   0  0  0  0  0  0  0  0  0  0  0  0
   30.4140  -20.7620    0.3934 N   0  0  0  0  0  0  0  0  0  0  0  0
   29.4633  -21.6480   -0.0622 C   0  0  0  0  0  0  0  0  0  0  0  0
   28.2372  -21.6427    0.4137 N   0  0  0  0  0  0  0  0  0  0  0  0
   27.9239  -20.7273    1.3932 C   0  0  0  0  0  0  0  0  0  0  0  0
   26.6953  -20.7228    1.8939 N   0  0  0  0  0  0  0  0  0  0  0  0
   28.8498  -19.8550    1.8610 C   0  0  0  0  0  0  0  0  0  0  0  0
   28.8164  -18.8949    2.7855 N   0  0  0  0  0  0  0  0  0  0  0  0
   30.0196  -18.3081    2.8627 C   0  0  0  0  0  0  0  0  0  0  0  0
   31.7926  -20.7981   -0.2056 C   0  0  0  0  0  0  0  0  0  0  0  0
   26.0229  -21.3564    1.5540 H   0  0  0  0  0  0  0  0  0  0  0  0
   26.4560  -20.0857    2.6053 H   0  0  0  0  0  0  0  0  0  0  0  0
  1  2  2  0  0  0
  1 10  1  0  0  0
  2  3  1  0  0  0
  2  8  1  0  0  0
  3  4  1  0  0  0
  3 11  1  0  0  0
  4  5  2  0  0  0
  5  6  1  0  0  0
  6  7  1  0  0  0
  6  8  2  0  0  0
  8  9  1  0  0  0
  9 10  2  0  0  0
  7 12  1  0  0  0
  7 13  1  0  0  0
M  END
> <minimizedAffinity>
-5.82353

$$$$
4AIA_ADK_A_400


 13 14  0  0  0  0  0  0  0  0999 V2000
   31.1002  -21.2029   -0.0359 N   0  0  0  0  0  0  0  0  0  0  0  0
   30.2985  -20.5713    0.8342 C   0  0  0  0  0  0  0  0  0  0  0  0
   30.5673  -19.9647    2.0137 N   0  0  0  0  0  0  0  0  0  0  0  0
   29.5462  -19.3755    2.7255 C   0  0  0  0  0  0  0  0  0  0  0  0
   28.3078  -19.3840    2.2826 N   0  0  0  0  0  0  0  0  0  0  0  0
   28.0533  -19.9947    1.0752 C   0  0  0  0  0  0  0  0  0  0  0  0
   26.8113  -19.9954    0.6089 N   0  0  0  0  0  0  0  0  0  0  0  0
   29.0477  -20.5702    0.3561 C   0  0  0  0  0  0  0  0  0  0  0  0
   29.0786  -21.2064   -0.8152 N   0  0  0  0  0  0  0  0  0  0  0  0
   30.3345  -21.5956   -1.0784 C   0  0  0  0  0  0  0  0  0  0  0  0
   31.9593  -19.9456    2.5817 C   0  0  0  0  0  0  0  0  0  0  0  0
   26.0891  -19.5773    1.1313 H   0  0  0  0  0  0  0  0  0  0  0  0
   26.6118  -20.4140   -0.2595 H   0  0  0  0  0  0  0  0  0  0  0  0
  1  2  2  0  0  0
  1 10  1  0  0  0
  2  3  1  0  0  0
  2  8  1  0  0  0
  3  4  1  0  0  0
  3 11  1  0  0  0
  4  5  2  0  0  0
  5  6  1  0  0  0
  6  7  1  0  0  0
  6  8  2  0  0  0
  8  9  1  0  0  0
  9 10  2  0  0  0
  7 12  1  0  0  0
  7 13  1  0  0  0
M  END
> <minimizedAffinity>
-5.65881

$$$$
4AIA_ADK_A_400


 13 14  0  0  0  0  0  0  0  0999 V2000
   28.5237  -21.7647    1.7392 N   0  0  0  0  0  0  0  0  0  0  0  0
   29.5720  -21.0732    2.2100 C   0  0  0  0  0  0  0  0  0  0  0  0
   30.8609  -21.4351    2.4075 N   0  0  0  0  0  0  0  0  0  0  0  0
   31.7576  -20.5175    2.9079 C   0  0  0  0  0  0  0  0  0  0  0  0
   31.3910  -19.2879    3.1971 N   0  0  0  0  0  0  0  0  0  0  0  0
   30.0789  -18.9324    2.9791 C   0  0  0  0  0  0  0  0  0  0  0  0
   29.7000  -17.6903    3.2506 N   0  0  0  0  0  0  0  0  0  0  0  0
   29.1853  -19.8194    2.4771 C   0  0  0  0  0  0  0  0  0  0  0  0
   27.8903  -19.7381    2.1704 N   0  0  0  0  0  0  0  0  0  0  0  0
   27.4668  -20.9226    1.7061 C   0  0  0  0  0  0  0  0  0  0  0  0
   31.3315  -22.8336    2.1187 C   0  0  0  0  0  0  0  0  0  0  0  0
   30.3492  -17.0462    3.6152 H   0  0  0  0  0  0  0  0  0  0  0  0
   28.7696  -17.4127    3.0876 H   0  0  0  0  0  0  0  0  0  0  0  0
  1  2  2  0  0  0
  1 10  1  0  0  0
  2  3  1  0  0  0
  2  8  1  0  0  0
  3  4  1  0  0  0
  3 11  1  0  0  0
  4  5  2  0  0  0
  5  6  1  0  0  0
  6  7  1  0  0  0
  6  8  2  0  0  0
  8  9  1  0  0  0
  9 10  2  0  0  0
  7 12  1  0  0  0
  7 13  1  0  0  0
M  END
> <minimizedAffinity>
-5.60949

$$$$
4AIA_ADK_A_400


 13 14  0  0  0  0  0  0  0  0999 V2000
   30.6236  -22.8421    2.3256 N   0  0  0  0  0  0  0  0  0  0  0  0
   29.6069  -21.9801    2.1782 C   0  0  0  0  0  0  0  0  0  0  0  0
   28.2932  -22.1874    1.9280 N   0  0  0  0  0  0  0  0  0  0  0  0
   27.4406  -21.1108    1.8249 C   0  0  0  0  0  0  0  0  0  0  0  0
   27.8736  -19.8772    1.9686 N   0  0  0  0  0  0  0  0  0  0  0  0
   29.2105  -19.6842    2.2347 C   0  0  0  0  0  0  0  0  0  0  0  0
   29.6569  -18.4457    2.3988 N   0  0  0  0  0  0  0  0  0  0  0  0
   30.0618  -20.7325    2.3501 C   0  0  0  0  0  0  0  0  0  0  0  0
   31.3675  -20.8263    2.6037 N   0  0  0  0  0  0  0  0  0  0  0  0
   31.7306  -22.1171    2.6018 C   0  0  0  0  0  0  0  0  0  0  0  0
   27.7462  -23.5738    1.7295 C   0  0  0  0  0  0  0  0  0  0  0  0
   29.0384  -17.6844    2.3150 H   0  0  0  0  0  0  0  0  0  0  0  0
   30.6067  -18.2880    2.6043 H   0  0  0  0  0  0  0  0  0  0  0  0
  1  2  2  0  0  0
  1 10  1  0  0  0
  2  3  1  0  0  0
  2  8  1  0  0  0
  3  4  1  0  0  0
  3 11  1  0  0  0
  4  5  2  0  0  0
  5  6  1  0  0  0
  6  7  1  0  0  0
  6  8  2  0  0  0
  8  9  1  0  0  0
  9 10  2  0  0  0
  7 12  1  0  0  0
  7 13  1  0  0  0
M  END
> <minimizedAffinity>
-5.45082

$$$$
4AIA_ADK_A_400


 13 14  0  0  0  0  0  0  0  0999 V2000
   29.4073  -23.1618    2.2235 N   0  0  0  0  0  0  0  0  0  0  0  0
   29.4663  -21.8298    2.0787 C   0  0  0  0  0  0  0  0  0  0  0  0
   30.4619  -20.9497    2.3349 N   0  0  0  0  0  0  0  0  0  0  0  0
   30.2660  -19.6087    2.0903 C   0  0  0  0  0  0  0  0  0  0  0  0
   29.1286  -19.1589    1.6067 N   0  0  0  0  0  0  0  0  0  0  0  0
   28.1303  -20.0687    1.3403 C   0  0  0  0  0  0  0  0  0  0  0  0
   26.9841  -19.6302    0.8362 N   0  0  0  0  0  0  0  0  0  0  0  0
   28.3094  -21.3934    1.5648 C   0  0  0  0  0  0  0  0  0  0  0  0
   27.5321  -22.4630    1.3931 N   0  0  0  0  0  0  0  0  0  0  0  0
   28.1932  -23.5621    1.7843 C   0  0  0  0  0  0  0  0  0  0  0  0
   31.7743  -21.4028    2.9118 C   0  0  0  0  0  0  0  0  0  0  0  0
   26.8542  -18.6680    0.6732 H   0  0  0  0  0  0  0  0  0  0  0  0
   26.2636  -20.2669    0.6251 H   0  0  0  0  0  0  0  0  0  0  0  0
  1  2  2  0  0  0
  1 10  1  0  0  0
  2  3  1  0  0  0
  2  8  1  0  0  0
  3  4  1  0  0  0
  3 11  1  0  0  0
  4  5  2  0  0  0
  5  6  1  0  0  0
  6  7  1  0  0  0
  6  8  2  0  0  0
  8  9  1  0  0  0
  9 10  2  0  0  0
  7 12  1  0  0  0
  7 13  1  0  0  0
M  END
> <minimizedAffinity>
-5.44896

$$$$
4AIA_ADK_A_400


 13 14  0  0  0  0  0  0  0  0999 V2000
   31.4663  -21.2423    2.5392 N   0  0  0  0  0  0  0  0  0  0  0  0
   30.1398  -21.1561    2.3616 C   0  0  0  0  0  0  0  0  0  0  0  0
   29.3125  -20.0854    2.3381 N   0  0  0  0  0  0  0  0  0  0  0  0
   27.9639  -20.2703    2.1295 C   0  0  0  0  0  0  0  0  0  0  0  0
   27.4564  -21.4699    1.9472 N   0  0  0  0  0  0  0  0  0  0  0  0
   28.3133  -22.5474    1.9620 C   0  0  0  0  0  0  0  0  0  0  0  0
   27.8167  -23.7613    1.7624 N   0  0  0  0  0  0  0  0  0  0  0  0
   29.6448  -22.3830    2.1552 C   0  0  0  0  0  0  0  0  0  0  0  0
   30.6725  -23.2308    2.2074 N   0  0  0  0  0  0  0  0  0  0  0  0
   31.8035  -22.5471    2.4339 C   0  0  0  0  0  0  0  0  0  0  0  0
   29.8322  -18.6929    2.5656 C   0  0  0  0  0  0  0  0  0  0  0  0
   26.8495  -23.8806    1.6221 H   0  0  0  0  0  0  0  0  0  0  0  0
   28.4152  -24.5429    1.7546 H   0  0  0  0  0  0  0  0  0  0  0  0
  1  2  2  0  0  0
  1 10  1  0  0  0
  2  3  1  0  0  0
  2  8  1  0  0  0
  3  4  1  0  0  0
  3 11  1  0  0  0
  4  5  2  0  0  0
  5  6  1  0  0  0
  6  7  1  0  0  0
  6  8  2  0  0  0
  8  9  1  0  0  0
  9 10  2  0  0  0
  7 12  1  0  0  0
  7 13  1  0  0  0
M  END
> <minimizedAffinity>
-5.41123

$$$$
4AIA_ADK_A_400


 13 14  0  0  0  0  0  0  0  0999 V2000
   29.9632  -22.9686    2.0177 N   0  0  0  0  0  0  0  0  0  0  0  0
   30.2821  -22.0178    1.1272 C   0  0  0  0  0  0  0  0  0  0  0  0
   31.4785  -21.4902    0.7783 N   0  0  0  0  0  0  0  0  0  0  0  0
   31.5356  -20.5087   -0.1860 C   0  0  0  0  0  0  0  0  0  0  0  0
   30.4490  -20.0708   -0.7837 N   0  0  0  0  0  0  0  0  0  0  0  0
   29.2412  -20.6264   -0.4259 C   0  0  0  0  0  0  0  0  0  0  0  0
   28.1394  -20.2057   -1.0333 N   0  0  0  0  0  0  0  0  0  0  0  0
   29.1675  -21.6008    0.5135 C   0  0  0  0  0  0  0  0  0  0  0  0
   28.1552  -22.2980    1.0300 N   0  0  0  0  0  0  0  0  0  0  0  0
   28.6255  -23.1514    1.9511 C   0  0  0  0  0  0  0  0  0  0  0  0
   32.7510  -21.9336    1.4454 C   0  0  0  0  0  0  0  0  0  0  0  0
   28.1931  -19.4979   -1.7156 H   0  0  0  0  0  0  0  0  0  0  0  0
   27.2681  -20.6011   -0.8019 H   0  0  0  0  0  0  0  0  0  0  0  0
  1  2  2  0  0  0
  1 10  1  0  0  0
  2  3  1  0  0  0
  2  8  1  0  0  0
  3  4  1  0  0  0
  3 11  1  0  0  0
  4  5  2  0  0  0
  5  6  1  0  0  0
  6  7  1  0  0  0
  6  8  2  0  0  0
  8  9  1  0  0  0
  9 10  2  0  0  0
  7 12  1  0  0  0
  7 13  1  0  0  0
M  END
> <minimizedAffinity>
-5.36153

$$$$
4AIA_ADK_A_400


 13 14  0  0  0  0  0  0  0  0999 V2000
   27.7895  -20.0133    2.2844 N   0  0  0  0  0  0  0  0  0  0  0  0
   28.9917  -19.8878    1.7035 C   0  0  0  0  0  0  0  0  0  0  0  0
   30.0794  -19.1636    2.0557 N   0  0  0  0  0  0  0  0  0  0  0  0
   31.2131  -19.2129    1.2755 C   0  0  0  0  0  0  0  0  0  0  0  0
   31.2672  -19.9546    0.1908 N   0  0  0  0  0  0  0  0  0  0  0  0
   30.1564  -20.6946   -0.1469 C   0  0  0  0  0  0  0  0  0  0  0  0
   30.2037  -21.4602   -1.2294 N   0  0  0  0  0  0  0  0  0  0  0  0
   29.0358  -20.6665    0.6151 C   0  0  0  0  0  0  0  0  0  0  0  0
   27.8527  -21.2746    0.5239 N   0  0  0  0  0  0  0  0  0  0  0  0
   27.0749  -20.8925    1.5471 C   0  0  0  0  0  0  0  0  0  0  0  0
   30.0670  -18.2783    3.2710 C   0  0  0  0  0  0  0  0  0  0  0  0
   31.0177  -21.4805   -1.7828 H   0  0  0  0  0  0  0  0  0  0  0  0
   29.4248  -22.0081   -1.4792 H   0  0  0  0  0  0  0  0  0  0  0  0
  1  2  2  0  0  0
  1 10  1  0  0  0
  2  3  1  0  0  0
  2  8  1  0  0  0
  3  4  1  0  0  0
  3 11  1  0  0  0
  4  5  2  0  0  0
  5  6  1  0  0  0
  6  7  1  0  0  0
  6  8  2  0  0  0
  8  9  1  0  0  0
  9 10  2  0  0  0
  7 12  1  0  0  0
  7 13  1  0  0  0
M  END
> <minimizedAffinity>
-5.27815

$$$$
4AIA_ADK_A_400


 13 14  0  0  0  0  0  0  0  0999 V2000
   32.3915  -20.8891    0.1329 N   0  0  0  0  0  0  0  0  0  0  0  0
   31.1495  -21.2951    0.4352 C   0  0  0  0  0  0  0  0  0  0  0  0
   30.7010  -22.1745    1.3610 N   0  0  0  0  0  0  0  0  0  0  0  0
   29.3499  -22.4160    1.4736 C   0  0  0  0  0  0  0  0  0  0  0  0
   28.4776  -21.8060    0.7009 N   0  0  0  0  0  0  0  0  0  0  0  0
   28.9494  -20.9055   -0.2275 C   0  0  0  0  0  0  0  0  0  0  0  0
   28.0788  -20.2707   -1.0015 N   0  0  0  0  0  0  0  0  0  0  0  0
   30.2749  -20.6475   -0.3448 C   0  0  0  0  0  0  0  0  0  0  0  0
   30.9824  -19.8383   -1.1338 N   0  0  0  0  0  0  0  0  0  0  0  0
   32.2864  -19.9659   -0.8489 C   0  0  0  0  0  0  0  0  0  0  0  0
   31.6531  -22.9200    2.2544 C   0  0  0  0  0  0  0  0  0  0  0  0
   27.1161  -20.4581   -0.9161 H   0  0  0  0  0  0  0  0  0  0  0  0
   28.3954  -19.6121   -1.6612 H   0  0  0  0  0  0  0  0  0  0  0  0
  1  2  2  0  0  0
  1 10  1  0  0  0
  2  3  1  0  0  0
  2  8  1  0  0  0
  3  4  1  0  0  0
  3 11  1  0  0  0
  4  5  2  0  0  0
  5  6  1  0  0  0
  6  7  1  0  0  0
  6  8  2  0  0  0
  8  9  1  0  0  0
  9 10  2  0  0  0
  7 12  1  0  0  0
  7 13  1  0  0  0
M  END
> <minimizedAffinity>
-5.27281

$$$$
