2F7I_26C_A_326


 18 19  0  0  0  0  0  0  0  0999 V2000
   21.6322   85.1321    4.3747 C   0  0  0  0  0  0  0  0  0  0  0  0
   22.2749   84.0767    5.0760 C   0  0  0  0  0  0  0  0  0  0  0  0
   20.9888   86.1719    5.0865 C   0  0  0  0  0  0  0  0  0  0  0  0
   20.9890   86.1599    6.4685 C   0  0  0  0  0  0  0  0  0  0  0  0
   21.6335   85.1044    7.1887 C   0  0  0  0  0  0  0  0  0  0  0  0
   22.2765   84.0607    6.4569 C   0  0  0  0  0  0  0  0  0  0  0  0
   21.6350   85.0893    8.5787 C   0  0  0  0  0  0  0  0  0  0  0  0
   21.1171   83.9773    9.3149 C   0  0  0  0  0  0  0  0  0  0  0  0
   20.6623   82.8445    8.7085 F   0  0  0  0  0  0  0  0  0  0  0  0
   21.1213   83.9743   10.6961 C   0  0  0  0  0  0  0  0  0  0  0  0
   21.6318   85.0600   11.3817 C   0  0  0  0  0  0  0  0  0  0  0  0
   22.1415   86.1592   10.6953 C   0  0  0  0  0  0  0  0  0  0  0  0
   22.1485   86.1869    9.3145 C   0  0  0  0  0  0  0  0  0  0  0  0
   22.6059   87.3317    8.7079 F   0  0  0  0  0  0  0  0  0  0  0  0
   20.8575   84.2225    2.1888 O   0  0  0  0  0  0  0  0  0  0  0  0
   21.6385   85.1379    2.8767 C   0  0  0  0  0  0  0  0  0  0  0  0
   22.3426   85.9609    2.2568 O   0  0  0  0  0  0  0  0  0  0  0  0
   22.8681   86.5769    2.7284 H   0  0  0  0  0  0  0  0  0  0  0  0
 15 16  2  0  0  0
 16 17  1  0  0  0
 16  1  1  0  0  0
  1  2  2  0  0  0
  1  3  1  0  0  0
  2  6  1  0  0  0
  3  4  2  0  0  0
  4  5  1  0  0  0
  5  6  2  0  0  0
  5  7  1  0  0  0
  7  8  1  0  0  0
  7 13  2  0  0  0
  8  9  1  0  0  0
  8 10  2  0  0  0
 10 11  1  0  0  0
 11 12  2  0  0  0
 12 13  1  0  0  0
 13 14  1  0  0  0
 17 18  1  0  0  0
M  END
> <minimizedAffinity>
-7.68580

$$$$
2F7I_26C_A_326


 18 19  0  0  0  0  0  0  0  0999 V2000
   21.5944   85.1411    4.4345 C   0  0  0  0  0  0  0  0  0  0  0  0
   22.2594   84.1121    5.1540 C   0  0  0  0  0  0  0  0  0  0  0  0
   20.9312   86.1808    5.1281 C   0  0  0  0  0  0  0  0  0  0  0  0
   20.9338   86.1944    6.5101 C   0  0  0  0  0  0  0  0  0  0  0  0
   21.6006   85.1657    7.2485 C   0  0  0  0  0  0  0  0  0  0  0  0
   22.2633   84.1218    6.5350 C   0  0  0  0  0  0  0  0  0  0  0  0
   21.6045   85.1764    8.6386 C   0  0  0  0  0  0  0  0  0  0  0  0
   22.1001   86.2975    9.3762 C   0  0  0  0  0  0  0  0  0  0  0  0
   22.5269   87.4421    8.7717 F   0  0  0  0  0  0  0  0  0  0  0  0
   22.1015   86.2961   10.7574 C   0  0  0  0  0  0  0  0  0  0  0  0
   21.6182   85.1970   11.4416 C   0  0  0  0  0  0  0  0  0  0  0  0
   21.1307   84.0888   10.7537 C   0  0  0  0  0  0  0  0  0  0  0  0
   21.1188   84.0653    9.3729 C   0  0  0  0  0  0  0  0  0  0  0  0
   20.6848   82.9124    8.7644 F   0  0  0  0  0  0  0  0  0  0  0  0
   20.7647   84.2380    2.2662 O   0  0  0  0  0  0  0  0  0  0  0  0
   21.5983   85.1193    2.9367 C   0  0  0  0  0  0  0  0  0  0  0  0
   22.3475   85.8889    2.3013 O   0  0  0  0  0  0  0  0  0  0  0  0
   22.9085   86.4820    2.7611 H   0  0  0  0  0  0  0  0  0  0  0  0
 15 16  2  0  0  0
 16 17  1  0  0  0
 16  1  1  0  0  0
  1  2  2  0  0  0
  1  3  1  0  0  0
  2  6  1  0  0  0
  3  4  2  0  0  0
  4  5  1  0  0  0
  5  6  2  0  0  0
  5  7  1  0  0  0
  7  8  1  0  0  0
  7 13  2  0  0  0
  8  9  1  0  0  0
  8 10  2  0  0  0
 10 11  1  0  0  0
 11 12  2  0  0  0
 12 13  1  0  0  0
 13 14  1  0  0  0
 17 18  1  0  0  0
M  END
> <minimizedAffinity>
-7.68404

$$$$
2F7I_26C_A_326


 18 19  0  0  0  0  0  0  0  0999 V2000
   21.1487   84.4342    4.1057 C   0  0  0  0  0  0  0  0  0  0  0  0
   21.9293   85.6182    4.1914 C   0  0  0  0  0  0  0  0  0  0  0  0
   20.6439   83.8273    5.2800 C   0  0  0  0  0  0  0  0  0  0  0  0
   20.9106   84.3917    6.5131 C   0  0  0  0  0  0  0  0  0  0  0  0
   21.6940   85.5850    6.6152 C   0  0  0  0  0  0  0  0  0  0  0  0
   22.1986   86.1845    5.4219 C   0  0  0  0  0  0  0  0  0  0  0  0
   21.9643   86.1545    7.8541 C   0  0  0  0  0  0  0  0  0  0  0  0
   22.9339   85.5894    8.7412 C   0  0  0  0  0  0  0  0  0  0  0  0
   23.6979   84.5126    8.4025 F   0  0  0  0  0  0  0  0  0  0  0  0
   23.1926   86.1624    9.9711 C   0  0  0  0  0  0  0  0  0  0  0  0
   22.5062   87.2986   10.3551 C   0  0  0  0  0  0  0  0  0  0  0  0
   21.5545   87.8724    9.5160 C   0  0  0  0  0  0  0  0  0  0  0  0
   21.2774   87.3186    8.2816 C   0  0  0  0  0  0  0  0  0  0  0  0
   20.2800   87.9010    7.5374 F   0  0  0  0  0  0  0  0  0  0  0  0
   20.2908   82.5702    2.6931 O   0  0  0  0  0  0  0  0  0  0  0  0
   20.8632   83.8305    2.7648 C   0  0  0  0  0  0  0  0  0  0  0  0
   21.1402   84.4595    1.7232 O   0  0  0  0  0  0  0  0  0  0  0  0
   21.5270   85.3112    1.7791 H   0  0  0  0  0  0  0  0  0  0  0  0
 15 16  2  0  0  0
 16 17  1  0  0  0
 16  1  1  0  0  0
  1  2  2  0  0  0
  1  3  1  0  0  0
  2  6  1  0  0  0
  3  4  2  0  0  0
  4  5  1  0  0  0
  5  6  2  0  0  0
  5  7  1  0  0  0
  7  8  1  0  0  0
  7 13  2  0  0  0
  8  9  1  0  0  0
  8 10  2  0  0  0
 10 11  1  0  0  0
 11 12  2  0  0  0
 12 13  1  0  0  0
 13 14  1  0  0  0
 17 18  1  0  0  0
M  END
> <minimizedAffinity>
-7.41332

$$$$
2F7I_26C_A_326


 18 19  0  0  0  0  0  0  0  0999 V2000
   22.0424   85.8340    4.0763 C   0  0  0  0  0  0  0  0  0  0  0  0
   22.5854   86.4220    5.2501 C   0  0  0  0  0  0  0  0  0  0  0  0
   21.2325   84.6775    4.1682 C   0  0  0  0  0  0  0  0  0  0  0  0
   20.9683   84.1213    5.4056 C   0  0  0  0  0  0  0  0  0  0  0  0
   21.5069   84.7032    6.5970 C   0  0  0  0  0  0  0  0  0  0  0  0
   22.3245   85.8685    6.4882 C   0  0  0  0  0  0  0  0  0  0  0  0
   21.2434   84.1457    7.8428 C   0  0  0  0  0  0  0  0  0  0  0  0
   21.9231   82.9710    8.2951 C   0  0  0  0  0  0  0  0  0  0  0  0
   22.9127   82.3729    7.5734 F   0  0  0  0  0  0  0  0  0  0  0  0
   21.6513   82.4242    9.5340 C   0  0  0  0  0  0  0  0  0  0  0  0
   20.7088   83.0171   10.3523 C   0  0  0  0  0  0  0  0  0  0  0  0
   20.0280   84.1601    9.9412 C   0  0  0  0  0  0  0  0  0  0  0  0
   20.2812   84.7260    8.7072 C   0  0  0  0  0  0  0  0  0  0  0  0
   19.5240   85.8132    8.3434 F   0  0  0  0  0  0  0  0  0  0  0  0
   22.8793   87.7167    2.6760 O   0  0  0  0  0  0  0  0  0  0  0  0
   22.3325   86.4447    2.7395 C   0  0  0  0  0  0  0  0  0  0  0  0
   22.0821   85.8109    1.6940 O   0  0  0  0  0  0  0  0  0  0  0  0
   21.7125   84.9513    1.7444 H   0  0  0  0  0  0  0  0  0  0  0  0
 15 16  2  0  0  0
 16 17  1  0  0  0
 16  1  1  0  0  0
  1  2  2  0  0  0
  1  3  1  0  0  0
  2  6  1  0  0  0
  3  4  2  0  0  0
  4  5  1  0  0  0
  5  6  2  0  0  0
  5  7  1  0  0  0
  7  8  1  0  0  0
  7 13  2  0  0  0
  8  9  1  0  0  0
  8 10  2  0  0  0
 10 11  1  0  0  0
 11 12  2  0  0  0
 12 13  1  0  0  0
 13 14  1  0  0  0
 17 18  1  0  0  0
M  END
> <minimizedAffinity>
-7.40987

$$$$
2F7I_26C_A_326


 18 19  0  0  0  0  0  0  0  0999 V2000
   21.1747   84.4387    4.0797 C   0  0  0  0  0  0  0  0  0  0  0  0
   21.9492   85.6260    4.1739 C   0  0  0  0  0  0  0  0  0  0  0  0
   20.6708   83.8223    5.2493 C   0  0  0  0  0  0  0  0  0  0  0  0
   20.9324   84.3805    6.4863 C   0  0  0  0  0  0  0  0  0  0  0  0
   21.7096   85.5771    6.5970 C   0  0  0  0  0  0  0  0  0  0  0  0
   22.2134   86.1863    5.4082 C   0  0  0  0  0  0  0  0  0  0  0  0
   21.9748   86.1405    7.8398 C   0  0  0  0  0  0  0  0  0  0  0  0
   21.2899   87.3127    8.2907 C   0  0  0  0  0  0  0  0  0  0  0  0
   20.2937   87.9023    7.5711 F   0  0  0  0  0  0  0  0  0  0  0  0
   21.5633   87.8655    9.5266 C   0  0  0  0  0  0  0  0  0  0  0  0
   22.5127   87.2812   10.3432 C   0  0  0  0  0  0  0  0  0  0  0  0
   23.1988   86.1409    9.9333 C   0  0  0  0  0  0  0  0  0  0  0  0
   22.9440   85.5691    8.7023 C   0  0  0  0  0  0  0  0  0  0  0  0
   23.7063   84.4852    8.3392 F   0  0  0  0  0  0  0  0  0  0  0  0
   20.3232   82.5815    2.6543 O   0  0  0  0  0  0  0  0  0  0  0  0
   20.8946   83.8417    2.7345 C   0  0  0  0  0  0  0  0  0  0  0  0
   21.1755   84.4761    1.6973 O   0  0  0  0  0  0  0  0  0  0  0  0
   21.5617   85.3276    1.7590 H   0  0  0  0  0  0  0  0  0  0  0  0
 15 16  2  0  0  0
 16 17  1  0  0  0
 16  1  1  0  0  0
  1  2  2  0  0  0
  1  3  1  0  0  0
  2  6  1  0  0  0
  3  4  2  0  0  0
  4  5  1  0  0  0
  5  6  2  0  0  0
  5  7  1  0  0  0
  7  8  1  0  0  0
  7 13  2  0  0  0
  8  9  1  0  0  0
  8 10  2  0  0  0
 10 11  1  0  0  0
 11 12  2  0  0  0
 12 13  1  0  0  0
 13 14  1  0  0  0
 17 18  1  0  0  0
M  END
> <minimizedAffinity>
-7.39446

$$$$
2F7I_26C_A_326


 18 19  0  0  0  0  0  0  0  0999 V2000
   22.0631   85.7994    4.0471 C   0  0  0  0  0  0  0  0  0  0  0  0
   21.3330   84.5846    4.1464 C   0  0  0  0  0  0  0  0  0  0  0  0
   22.5241   86.4508    5.2155 C   0  0  0  0  0  0  0  0  0  0  0  0
   22.2642   85.9001    6.4561 C   0  0  0  0  0  0  0  0  0  0  0  0
   21.5315   84.6762    6.5720 C   0  0  0  0  0  0  0  0  0  0  0  0
   21.0705   84.0317    5.3844 C   0  0  0  0  0  0  0  0  0  0  0  0
   21.2681   84.1202    7.8185 C   0  0  0  0  0  0  0  0  0  0  0  0
   20.2982   84.6909    8.7018 C   0  0  0  0  0  0  0  0  0  0  0  0
   19.5276   85.7596    8.3526 F   0  0  0  0  0  0  0  0  0  0  0  0
   20.0465   84.1314    9.9393 C   0  0  0  0  0  0  0  0  0  0  0  0
   20.7400   83.0035   10.3347 C   0  0  0  0  0  0  0  0  0  0  0  0
   21.6920   82.4245    9.4995 C   0  0  0  0  0  0  0  0  0  0  0  0
   21.9624   82.9649    8.2577 C   0  0  0  0  0  0  0  0  0  0  0  0
   22.9605   82.3787    7.5174 F   0  0  0  0  0  0  0  0  0  0  0  0
   22.9587   87.6261    2.6094 O   0  0  0  0  0  0  0  0  0  0  0  0
   22.3417   86.3882    2.6980 C   0  0  0  0  0  0  0  0  0  0  0  0
   22.0191   85.7668    1.6650 O   0  0  0  0  0  0  0  0  0  0  0  0
   21.6023   84.9303    1.7324 H   0  0  0  0  0  0  0  0  0  0  0  0
 15 16  2  0  0  0
 16 17  1  0  0  0
 16  1  1  0  0  0
  1  2  2  0  0  0
  1  3  1  0  0  0
  2  6  1  0  0  0
  3  4  2  0  0  0
  4  5  1  0  0  0
  5  6  2  0  0  0
  5  7  1  0  0  0
  7  8  1  0  0  0
  7 13  2  0  0  0
  8  9  1  0  0  0
  8 10  2  0  0  0
 10 11  1  0  0  0
 11 12  2  0  0  0
 12 13  1  0  0  0
 13 14  1  0  0  0
 17 18  1  0  0  0
M  END
> <minimizedAffinity>
-7.37088

$$$$
2F7I_26C_A_326


 18 19  0  0  0  0  0  0  0  0999 V2000
   22.0610   86.3651    9.3935 C   0  0  0  0  0  0  0  0  0  0  0  0
   21.0950   87.0264    8.5884 C   0  0  0  0  0  0  0  0  0  0  0  0
   22.8663   85.3405    8.8424 C   0  0  0  0  0  0  0  0  0  0  0  0
   22.7123   84.9854    7.5157 C   0  0  0  0  0  0  0  0  0  0  0  0
   21.7447   85.6436    6.6919 C   0  0  0  0  0  0  0  0  0  0  0  0
   20.9377   86.6737    7.2625 C   0  0  0  0  0  0  0  0  0  0  0  0
   21.5872   85.2882    5.3573 C   0  0  0  0  0  0  0  0  0  0  0  0
   22.3153   85.9474    4.3171 C   0  0  0  0  0  0  0  0  0  0  0  0
   23.2526   86.9039    4.5710 F   0  0  0  0  0  0  0  0  0  0  0  0
   22.1489   85.5877    2.9940 C   0  0  0  0  0  0  0  0  0  0  0  0
   21.2663   84.5766    2.6650 C   0  0  0  0  0  0  0  0  0  0  0  0
   20.5407   83.9163    3.6532 C   0  0  0  0  0  0  0  0  0  0  0  0
   20.6887   84.2574    4.9832 C   0  0  0  0  0  0  0  0  0  0  0  0
   19.8915   83.6079    5.8945 F   0  0  0  0  0  0  0  0  0  0  0  0
   23.0099   87.8516   11.1530 O   0  0  0  0  0  0  0  0  0  0  0  0
   22.2222   86.7578   10.8301 C   0  0  0  0  0  0  0  0  0  0  0  0
   21.6511   86.1030   11.7259 O   0  0  0  0  0  0  0  0  0  0  0  0
   21.1201   85.3647   11.5004 H   0  0  0  0  0  0  0  0  0  0  0  0
 15 16  2  0  0  0
 16 17  1  0  0  0
 16  1  1  0  0  0
  1  2  2  0  0  0
  1  3  1  0  0  0
  2  6  1  0  0  0
  3  4  2  0  0  0
  4  5  1  0  0  0
  5  6  2  0  0  0
  5  7  1  0  0  0
  7  8  1  0  0  0
  7 13  2  0  0  0
  8  9  1  0  0  0
  8 10  2  0  0  0
 10 11  1  0  0  0
 11 12  2  0  0  0
 12 13  1  0  0  0
 13 14  1  0  0  0
 17 18  1  0  0  0
M  END
> <minimizedAffinity>
-7.34447

$$$$
2F7I_26C_A_326


 18 19  0  0  0  0  0  0  0  0999 V2000
   21.7610   85.6265   10.0436 C   0  0  0  0  0  0  0  0  0  0  0  0
   22.7155   86.2512    9.1967 C   0  0  0  0  0  0  0  0  0  0  0  0
   20.7536   84.7995    9.4930 C   0  0  0  0  0  0  0  0  0  0  0  0
   20.7017   84.5985    8.1266 C   0  0  0  0  0  0  0  0  0  0  0  0
   21.6572   85.2196    7.2610 C   0  0  0  0  0  0  0  0  0  0  0  0
   22.6663   86.0534    7.8308 C   0  0  0  0  0  0  0  0  0  0  0  0
   21.6071   85.0197    5.8863 C   0  0  0  0  0  0  0  0  0  0  0  0
   20.9309   85.9370    5.0215 C   0  0  0  0  0  0  0  0  0  0  0  0
   20.3625   87.0896    5.4757 F   0  0  0  0  0  0  0  0  0  0  0  0
   20.8853   85.7269    3.6571 C   0  0  0  0  0  0  0  0  0  0  0  0
   21.5004   84.6147    3.1147 C   0  0  0  0  0  0  0  0  0  0  0  0
   22.1651   83.7013    3.9289 C   0  0  0  0  0  0  0  0  0  0  0  0
   22.2248   83.8885    5.2958 C   0  0  0  0  0  0  0  0  0  0  0  0
   22.8404   82.9120    6.0409 F   0  0  0  0  0  0  0  0  0  0  0  0
   22.5184   86.9428   12.0184 O   0  0  0  0  0  0  0  0  0  0  0  0
   21.8260   85.8487   11.5237 C   0  0  0  0  0  0  0  0  0  0  0  0
   21.2611   85.0531   12.3016 O   0  0  0  0  0  0  0  0  0  0  0  0
   20.7948   84.3156   11.9602 H   0  0  0  0  0  0  0  0  0  0  0  0
 15 16  2  0  0  0
 16 17  1  0  0  0
 16  1  1  0  0  0
  1  2  2  0  0  0
  1  3  1  0  0  0
  2  6  1  0  0  0
  3  4  2  0  0  0
  4  5  1  0  0  0
  5  6  2  0  0  0
  5  7  1  0  0  0
  7  8  1  0  0  0
  7 13  2  0  0  0
  8  9  1  0  0  0
  8 10  2  0  0  0
 10 11  1  0  0  0
 11 12  2  0  0  0
 12 13  1  0  0  0
 13 14  1  0  0  0
 17 18  1  0  0  0
M  END
> <minimizedAffinity>
-7.32441

$$$$
2F7I_26C_A_326


 18 19  0  0  0  0  0  0  0  0999 V2000
   21.2408   84.0325    9.4307 C   0  0  0  0  0  0  0  0  0  0  0  0
   20.4559   85.0730    8.8652 C   0  0  0  0  0  0  0  0  0  0  0  0
   22.1645   83.3212    8.6290 C   0  0  0  0  0  0  0  0  0  0  0  0
   22.3035   83.6433    7.2922 C   0  0  0  0  0  0  0  0  0  0  0  0
   21.5210   84.6900    6.7088 C   0  0  0  0  0  0  0  0  0  0  0  0
   20.5913   85.3972    7.5296 C   0  0  0  0  0  0  0  0  0  0  0  0
   21.6583   85.0159    5.3645 C   0  0  0  0  0  0  0  0  0  0  0  0
   20.9078   84.3403    4.3511 C   0  0  0  0  0  0  0  0  0  0  0  0
   19.9681   83.3966    4.6411 F   0  0  0  0  0  0  0  0  0  0  0  0
   21.0542   84.6707    3.0179 C   0  0  0  0  0  0  0  0  0  0  0  0
   21.9383   85.6679    2.6527 C   0  0  0  0  0  0  0  0  0  0  0  0
   22.6854   86.3435    3.6142 C   0  0  0  0  0  0  0  0  0  0  0  0
   22.5576   86.0318    4.9535 C   0  0  0  0  0  0  0  0  0  0  0  0
   23.3750   86.6942    5.8371 F   0  0  0  0  0  0  0  0  0  0  0  0
   20.3988   82.5417   11.2403 O   0  0  0  0  0  0  0  0  0  0  0  0
   21.0847   83.6913   10.8810 C   0  0  0  0  0  0  0  0  0  0  0  0
   21.5688   84.4385   11.7555 O   0  0  0  0  0  0  0  0  0  0  0  0
   22.0313   85.2141   11.5053 H   0  0  0  0  0  0  0  0  0  0  0  0
 15 16  2  0  0  0
 16 17  1  0  0  0
 16  1  1  0  0  0
  1  2  2  0  0  0
  1  3  1  0  0  0
  2  6  1  0  0  0
  3  4  2  0  0  0
  4  5  1  0  0  0
  5  6  2  0  0  0
  5  7  1  0  0  0
  7  8  1  0  0  0
  7 13  2  0  0  0
  8  9  1  0  0  0
  8 10  2  0  0  0
 10 11  1  0  0  0
 11 12  2  0  0  0
 12 13  1  0  0  0
 13 14  1  0  0  0
 17 18  1  0  0  0
M  END
> <minimizedAffinity>
-7.32073

$$$$
2F7I_26C_A_326


 18 19  0  0  0  0  0  0  0  0999 V2000
   22.0716   86.3442    9.3918 C   0  0  0  0  0  0  0  0  0  0  0  0
   21.1222   87.0268    8.5849 C   0  0  0  0  0  0  0  0  0  0  0  0
   22.8557   85.3026    8.8421 C   0  0  0  0  0  0  0  0  0  0  0  0
   22.6973   84.9517    7.5148 C   0  0  0  0  0  0  0  0  0  0  0  0
   21.7462   85.6312    6.6890 C   0  0  0  0  0  0  0  0  0  0  0  0
   20.9604   86.6784    7.2583 C   0  0  0  0  0  0  0  0  0  0  0  0
   21.5843   85.2801    5.3538 C   0  0  0  0  0  0  0  0  0  0  0  0
   20.6817   84.2434    4.9576 C   0  0  0  0  0  0  0  0  0  0  0  0
   19.8784   83.5917    5.8453 F   0  0  0  0  0  0  0  0  0  0  0  0
   20.5307   83.9011    3.6280 C   0  0  0  0  0  0  0  0  0  0  0  0
   21.2610   84.5671    2.6623 C   0  0  0  0  0  0  0  0  0  0  0  0
   22.1497   85.5796    3.0147 C   0  0  0  0  0  0  0  0  0  0  0  0
   22.3190   85.9403    4.3369 C   0  0  0  0  0  0  0  0  0  0  0  0
   23.2610   86.9014    4.6139 F   0  0  0  0  0  0  0  0  0  0  0  0
   22.9906   87.8513   11.1497 O   0  0  0  0  0  0  0  0  0  0  0  0
   22.2378   86.7325   10.8291 C   0  0  0  0  0  0  0  0  0  0  0  0
   21.7022   86.0517   11.7275 O   0  0  0  0  0  0  0  0  0  0  0  0
   21.1946   85.2966   11.5034 H   0  0  0  0  0  0  0  0  0  0  0  0
 15 16  2  0  0  0
 16 17  1  0  0  0
 16  1  1  0  0  0
  1  2  2  0  0  0
  1  3  1  0  0  0
  2  6  1  0  0  0
  3  4  2  0  0  0
  4  5  1  0  0  0
  5  6  2  0  0  0
  5  7  1  0  0  0
  7  8  1  0  0  0
  7 13  2  0  0  0
  8  9  1  0  0  0
  8 10  2  0  0  0
 10 11  1  0  0  0
 11 12  2  0  0  0
 12 13  1  0  0  0
 13 14  1  0  0  0
 17 18  1  0  0  0
M  END
> <minimizedAffinity>
-7.31490

$$$$
