5MGJ_7MX_A_1901


 14 14  0  0  0  0  0  0  0  0999 V2000
   35.9162  -39.7201   28.8860 C   0  0  0  0  0  0  0  0  0  0  0  0
   34.9570  -38.6594   29.3580 C   0  0  0  0  0  0  0  0  0  0  0  0
   33.5617  -38.6894   28.9301 N   0  0  0  0  0  0  0  0  0  0  0  0
   32.6751  -37.6810   29.3834 C   0  0  0  0  0  0  0  0  0  0  0  0
   33.0781  -39.7379   28.0315 C   0  0  0  0  0  0  0  0  0  0  0  0
   31.9168  -39.7468   27.6817 O   0  0  0  0  0  0  0  0  0  0  0  0
   34.0253  -40.8047   27.5478 C   0  0  0  0  0  0  0  0  0  0  0  0
   35.4397  -40.7857   27.9764 C   0  0  0  0  0  0  0  0  0  0  0  0
   36.5157  -42.0376   27.4011 Cl  0  0  0  0  0  0  0  0  0  0  0  0
   37.3586  -39.6286   29.3616 C   0  0  0  0  0  0  0  0  0  0  0  0
   37.7939  -40.3227   30.2487 O   0  0  0  0  0  0  0  0  0  0  0  0
   38.2358  -38.7285   28.7558 O   0  0  0  0  0  0  0  0  0  0  0  0
   38.7633  -39.0662   26.4962 C   0  0  0  0  0  0  0  0  0  0  0  0
   39.1828  -39.3405   27.9130 C   0  0  0  0  0  0  0  0  0  0  0  0
  9  8  1  0  0  0
  7  8  2  0  0  0
  7  5  1  0  0  0
  8  1  1  0  0  0
  6  5  2  0  0  0
  5  3  1  0  0  0
 11 10  2  0  0  0
  1 10  1  0  0  0
  1  2  2  0  0  0
 10 12  1  0  0  0
  3  2  1  0  0  0
  3  4  1  0  0  0
 14 12  1  0  0  0
 14 13  1  0  0  0
M  END
> <minimizedAffinity>
-5.23131

$$$$
5MGJ_7MX_A_1901


 14 14  0  0  0  0  0  0  0  0999 V2000
   36.1469  -39.8172   28.8615 C   0  0  0  0  0  0  0  0  0  0  0  0
   35.1677  -38.7709   29.3244 C   0  0  0  0  0  0  0  0  0  0  0  0
   33.7744  -38.8281   28.8927 N   0  0  0  0  0  0  0  0  0  0  0  0
   32.8688  -37.8329   29.3374 C   0  0  0  0  0  0  0  0  0  0  0  0
   33.3121  -39.8903   27.9990 C   0  0  0  0  0  0  0  0  0  0  0  0
   32.1522  -39.9218   27.6459 O   0  0  0  0  0  0  0  0  0  0  0  0
   34.2794  -40.9431   27.5244 C   0  0  0  0  0  0  0  0  0  0  0  0
   35.6920  -40.8965   27.9570 C   0  0  0  0  0  0  0  0  0  0  0  0
   36.7917  -42.1325   27.3922 Cl  0  0  0  0  0  0  0  0  0  0  0  0
   37.5861  -39.6974   29.3408 C   0  0  0  0  0  0  0  0  0  0  0  0
   38.3319  -38.8347   28.9436 O   0  0  0  0  0  0  0  0  0  0  0  0
   38.0821  -40.5954   30.2863 O   0  0  0  0  0  0  0  0  0  0  0  0
   39.1135  -42.6829   30.0100 C   0  0  0  0  0  0  0  0  0  0  0  0
   39.3002  -41.1948   29.9140 C   0  0  0  0  0  0  0  0  0  0  0  0
  9  8  1  0  0  0
  7  8  2  0  0  0
  7  5  1  0  0  0
  8  1  1  0  0  0
  6  5  2  0  0  0
  5  3  1  0  0  0
 11 10  2  0  0  0
  1 10  1  0  0  0
  1  2  2  0  0  0
 10 12  1  0  0  0
  3  2  1  0  0  0
  3  4  1  0  0  0
 14 12  1  0  0  0
 14 13  1  0  0  0
M  END
> <minimizedAffinity>
-4.86593

$$$$
5MGJ_7MX_A_1901


 14 14  0  0  0  0  0  0  0  0999 V2000
   35.9050  -40.2876   28.5382 C   0  0  0  0  0  0  0  0  0  0  0  0
   36.9269  -39.3301   29.0921 C   0  0  0  0  0  0  0  0  0  0  0  0
   38.3504  -39.6382   28.9930 N   0  0  0  0  0  0  0  0  0  0  0  0
   39.2963  -38.7254   29.5223 C   0  0  0  0  0  0  0  0  0  0  0  0
   38.8040  -40.8809   28.3680 C   0  0  0  0  0  0  0  0  0  0  0  0
   39.9901  -41.1245   28.2970 O   0  0  0  0  0  0  0  0  0  0  0  0
   37.7947  -41.8509   27.8115 C   0  0  0  0  0  0  0  0  0  0  0  0
   36.3510  -41.5481   27.9041 C   0  0  0  0  0  0  0  0  0  0  0  0
   35.2024  -42.6911   27.2479 Cl  0  0  0  0  0  0  0  0  0  0  0  0
   34.4373  -39.9120   28.6795 C   0  0  0  0  0  0  0  0  0  0  0  0
   33.5453  -40.6216   28.2806 O   0  0  0  0  0  0  0  0  0  0  0  0
   34.0816  -38.7161   29.3039 O   0  0  0  0  0  0  0  0  0  0  0  0
   32.7349  -36.8298   28.9485 C   0  0  0  0  0  0  0  0  0  0  0  0
   32.7493  -38.3279   29.0673 C   0  0  0  0  0  0  0  0  0  0  0  0
  9  8  1  0  0  0
  7  8  2  0  0  0
  7  5  1  0  0  0
  8  1  1  0  0  0
  6  5  2  0  0  0
  5  3  1  0  0  0
 11 10  2  0  0  0
  1 10  1  0  0  0
  1  2  2  0  0  0
 10 12  1  0  0  0
  3  2  1  0  0  0
  3  4  1  0  0  0
 14 12  1  0  0  0
 14 13  1  0  0  0
M  END
> <minimizedAffinity>
-4.54238

$$$$
5MGJ_7MX_A_1901


 14 14  0  0  0  0  0  0  0  0999 V2000
   33.3838  -38.0743   28.8436 C   0  0  0  0  0  0  0  0  0  0  0  0
   34.1523  -36.8190   29.1619 C   0  0  0  0  0  0  0  0  0  0  0  0
   33.4781  -35.5242   29.1543 N   0  0  0  0  0  0  0  0  0  0  0  0
   34.2193  -34.3542   29.4544 C   0  0  0  0  0  0  0  0  0  0  0  0
   32.0554  -35.4246   28.8277 C   0  0  0  0  0  0  0  0  0  0  0  0
   31.5104  -34.3411   28.8216 O   0  0  0  0  0  0  0  0  0  0  0  0
   31.2726  -36.6703   28.5041 C   0  0  0  0  0  0  0  0  0  0  0  0
   31.9444  -37.9869   28.5110 C   0  0  0  0  0  0  0  0  0  0  0  0
   31.0107  -39.4158   28.1337 Cl  0  0  0  0  0  0  0  0  0  0  0  0
   34.1457  -39.3912   28.8610 C   0  0  0  0  0  0  0  0  0  0  0  0
   33.7681  -40.3666   28.2574 O   0  0  0  0  0  0  0  0  0  0  0  0
   35.3365  -39.4972   29.5803 O   0  0  0  0  0  0  0  0  0  0  0  0
   37.6173  -40.0252   29.7110 C   0  0  0  0  0  0  0  0  0  0  0  0
   36.4526  -39.8170   28.7843 C   0  0  0  0  0  0  0  0  0  0  0  0
  9  8  1  0  0  0
  7  8  2  0  0  0
  7  5  1  0  0  0
  8  1  1  0  0  0
  6  5  2  0  0  0
  5  3  1  0  0  0
 11 10  2  0  0  0
  1 10  1  0  0  0
  1  2  2  0  0  0
 10 12  1  0  0  0
  3  2  1  0  0  0
  3  4  1  0  0  0
 14 12  1  0  0  0
 14 13  1  0  0  0
M  END
> <minimizedAffinity>
-4.45320

$$$$
5MGJ_7MX_A_1901


 14 14  0  0  0  0  0  0  0  0999 V2000
   35.7110  -41.9486   27.8122 C   0  0  0  0  0  0  0  0  0  0  0  0
   35.4330  -43.4148   28.0147 C   0  0  0  0  0  0  0  0  0  0  0  0
   36.5136  -44.3211   28.3915 N   0  0  0  0  0  0  0  0  0  0  0  0
   36.2322  -45.6978   28.5753 C   0  0  0  0  0  0  0  0  0  0  0  0
   37.8787  -43.8243   28.5661 C   0  0  0  0  0  0  0  0  0  0  0  0
   38.7664  -44.5906   28.8754 O   0  0  0  0  0  0  0  0  0  0  0  0
   38.1743  -42.3610   28.3644 C   0  0  0  0  0  0  0  0  0  0  0  0
   37.0876  -41.4338   27.9851 C   0  0  0  0  0  0  0  0  0  0  0  0
   37.4594  -39.7405   27.7599 Cl  0  0  0  0  0  0  0  0  0  0  0  0
   34.5436  -41.0581   27.4129 C   0  0  0  0  0  0  0  0  0  0  0  0
   34.3458  -40.7223   26.2699 O   0  0  0  0  0  0  0  0  0  0  0  0
   33.6444  -40.6127   28.3822 O   0  0  0  0  0  0  0  0  0  0  0  0
   34.4482  -38.6748   29.4292 C   0  0  0  0  0  0  0  0  0  0  0  0
   33.4862  -39.2142   28.4083 C   0  0  0  0  0  0  0  0  0  0  0  0
  9  8  1  0  0  0
  7  8  2  0  0  0
  7  5  1  0  0  0
  8  1  1  0  0  0
  6  5  2  0  0  0
  5  3  1  0  0  0
 11 10  2  0  0  0
  1 10  1  0  0  0
  1  2  2  0  0  0
 10 12  1  0  0  0
  3  2  1  0  0  0
  3  4  1  0  0  0
 14 12  1  0  0  0
 14 13  1  0  0  0
M  END
> <minimizedAffinity>
-4.44895

$$$$
5MGJ_7MX_A_1901


 14 14  0  0  0  0  0  0  0  0999 V2000
   37.0717  -40.2977   28.4027 C   0  0  0  0  0  0  0  0  0  0  0  0
   37.7726  -41.5205   27.8723 C   0  0  0  0  0  0  0  0  0  0  0  0
   37.0045  -42.7098   27.5162 N   0  0  0  0  0  0  0  0  0  0  0  0
   37.6827  -43.8512   27.0208 C   0  0  0  0  0  0  0  0  0  0  0  0
   35.5507  -42.7367   27.6791 C   0  0  0  0  0  0  0  0  0  0  0  0
   34.9270  -43.7338   27.3826 O   0  0  0  0  0  0  0  0  0  0  0  0
   34.8345  -41.5229   28.2111 C   0  0  0  0  0  0  0  0  0  0  0  0
   35.6017  -40.3124   28.5726 C   0  0  0  0  0  0  0  0  0  0  0  0
   34.7439  -38.9180   29.1855 Cl  0  0  0  0  0  0  0  0  0  0  0  0
   37.9295  -39.0937   28.7624 C   0  0  0  0  0  0  0  0  0  0  0  0
   38.6816  -39.0926   29.7072 O   0  0  0  0  0  0  0  0  0  0  0  0
   37.8758  -37.9411   27.9779 O   0  0  0  0  0  0  0  0  0  0  0  0
   39.6341  -38.1950   26.4477 C   0  0  0  0  0  0  0  0  0  0  0  0
   39.1416  -37.4256   27.6411 C   0  0  0  0  0  0  0  0  0  0  0  0
  9  8  1  0  0  0
  7  8  2  0  0  0
  7  5  1  0  0  0
  8  1  1  0  0  0
  6  5  2  0  0  0
  5  3  1  0  0  0
 11 10  2  0  0  0
  1 10  1  0  0  0
  1  2  2  0  0  0
 10 12  1  0  0  0
  3  2  1  0  0  0
  3  4  1  0  0  0
 14 12  1  0  0  0
 14 13  1  0  0  0
M  END
> <minimizedAffinity>
-4.43362

$$$$
5MGJ_7MX_A_1901


 14 14  0  0  0  0  0  0  0  0999 V2000
   40.5192  -36.7224   28.4695 C   0  0  0  0  0  0  0  0  0  0  0  0
   39.3284  -37.6443   28.4726 C   0  0  0  0  0  0  0  0  0  0  0  0
   39.0218  -38.4506   27.2950 N   0  0  0  0  0  0  0  0  0  0  0  0
   37.8955  -39.3105   27.3168 C   0  0  0  0  0  0  0  0  0  0  0  0
   39.8550  -38.3677   26.0952 C   0  0  0  0  0  0  0  0  0  0  0  0
   39.5848  -39.0410   25.1232 O   0  0  0  0  0  0  0  0  0  0  0  0
   41.0482  -37.4483   26.0744 C   0  0  0  0  0  0  0  0  0  0  0  0
   41.3695  -36.6291   27.2619 C   0  0  0  0  0  0  0  0  0  0  0  0
   42.7614  -35.5726   27.2102 Cl  0  0  0  0  0  0  0  0  0  0  0  0
   40.7804  -35.9036   29.7250 C   0  0  0  0  0  0  0  0  0  0  0  0
   39.9815  -35.1085   30.1583 O   0  0  0  0  0  0  0  0  0  0  0  0
   41.9730  -36.0707   30.4296 O   0  0  0  0  0  0  0  0  0  0  0  0
   43.8763  -34.7259   30.6887 C   0  0  0  0  0  0  0  0  0  0  0  0
   42.4293  -34.8963   31.0575 C   0  0  0  0  0  0  0  0  0  0  0  0
  9  8  1  0  0  0
  7  8  2  0  0  0
  7  5  1  0  0  0
  8  1  1  0  0  0
  6  5  2  0  0  0
  5  3  1  0  0  0
 11 10  2  0  0  0
  1 10  1  0  0  0
  1  2  2  0  0  0
 10 12  1  0  0  0
  3  2  1  0  0  0
  3  4  1  0  0  0
 14 12  1  0  0  0
 14 13  1  0  0  0
M  END
> <minimizedAffinity>
-4.36078

$$$$
5MGJ_7MX_A_1901


 14 14  0  0  0  0  0  0  0  0999 V2000
   36.3936  -40.9852   28.4179 C   0  0  0  0  0  0  0  0  0  0  0  0
   37.6145  -41.7362   28.8798 C   0  0  0  0  0  0  0  0  0  0  0  0
   37.8222  -43.1217   28.4698 N   0  0  0  0  0  0  0  0  0  0  0  0
   38.9762  -43.8120   28.9168 C   0  0  0  0  0  0  0  0  0  0  0  0
   36.8471  -43.8029   27.6178 C   0  0  0  0  0  0  0  0  0  0  0  0
   37.0318  -44.9557   27.2890 O   0  0  0  0  0  0  0  0  0  0  0  0
   35.6190  -43.0670   27.1494 C   0  0  0  0  0  0  0  0  0  0  0  0
   35.3995  -41.6631   27.5563 C   0  0  0  0  0  0  0  0  0  0  0  0
   33.9666  -40.8332   26.9960 Cl  0  0  0  0  0  0  0  0  0  0  0  0
   36.2316  -39.5465   28.8861 C   0  0  0  0  0  0  0  0  0  0  0  0
   36.9577  -38.6573   28.5116 O   0  0  0  0  0  0  0  0  0  0  0  0
   35.2034  -39.2131   29.7683 O   0  0  0  0  0  0  0  0  0  0  0  0
   32.9898  -38.4751   29.5382 C   0  0  0  0  0  0  0  0  0  0  0  0
   34.4355  -38.1092   29.3520 C   0  0  0  0  0  0  0  0  0  0  0  0
  9  8  1  0  0  0
  7  8  2  0  0  0
  7  5  1  0  0  0
  8  1  1  0  0  0
  6  5  2  0  0  0
  5  3  1  0  0  0
 11 10  2  0  0  0
  1 10  1  0  0  0
  1  2  2  0  0  0
 10 12  1  0  0  0
  3  2  1  0  0  0
  3  4  1  0  0  0
 14 12  1  0  0  0
 14 13  1  0  0  0
M  END
> <minimizedAffinity>
-4.31486

$$$$
5MGJ_7MX_A_1901


 14 14  0  0  0  0  0  0  0  0999 V2000
   37.4464  -40.5784   28.5544 C   0  0  0  0  0  0  0  0  0  0  0  0
   36.6010  -39.4344   29.0488 C   0  0  0  0  0  0  0  0  0  0  0  0
   35.1518  -39.4648   28.8757 N   0  0  0  0  0  0  0  0  0  0  0  0
   34.3739  -38.3775   29.3458 C   0  0  0  0  0  0  0  0  0  0  0  0
   34.5023  -40.5955   28.2122 C   0  0  0  0  0  0  0  0  0  0  0  0
   33.2975  -40.6041   28.0723 O   0  0  0  0  0  0  0  0  0  0  0  0
   35.3336  -41.7466   27.7092 C   0  0  0  0  0  0  0  0  0  0  0  0
   36.8015  -41.7277   27.8812 C   0  0  0  0  0  0  0  0  0  0  0  0
   37.7409  -43.0781   27.2895 Cl  0  0  0  0  0  0  0  0  0  0  0  0
   38.9512  -40.4829   28.7585 C   0  0  0  0  0  0  0  0  0  0  0  0
   39.7330  -40.5070   27.8384 O   0  0  0  0  0  0  0  0  0  0  0  0
   39.4719  -40.3453   30.0456 O   0  0  0  0  0  0  0  0  0  0  0  0
   41.3861  -39.3253   30.9362 C   0  0  0  0  0  0  0  0  0  0  0  0
   40.0501  -39.0856   30.2911 C   0  0  0  0  0  0  0  0  0  0  0  0
  9  8  1  0  0  0
  7  8  2  0  0  0
  7  5  1  0  0  0
  8  1  1  0  0  0
  6  5  2  0  0  0
  5  3  1  0  0  0
 11 10  2  0  0  0
  1 10  1  0  0  0
  1  2  2  0  0  0
 10 12  1  0  0  0
  3  2  1  0  0  0
  3  4  1  0  0  0
 14 12  1  0  0  0
 14 13  1  0  0  0
M  END
> <minimizedAffinity>
-4.30158

$$$$
5MGJ_7MX_A_1901


 14 14  0  0  0  0  0  0  0  0999 V2000
   38.0659  -40.5687   27.6926 C   0  0  0  0  0  0  0  0  0  0  0  0
   39.2466  -40.5333   26.7585 C   0  0  0  0  0  0  0  0  0  0  0  0
   39.9181  -39.2690   26.4726 N   0  0  0  0  0  0  0  0  0  0  0  0
   41.0261  -39.2562   25.5892 C   0  0  0  0  0  0  0  0  0  0  0  0
   39.4501  -38.0212   27.0765 C   0  0  0  0  0  0  0  0  0  0  0  0
   40.0162  -36.9782   26.8258 O   0  0  0  0  0  0  0  0  0  0  0  0
   38.2686  -38.0387   28.0108 C   0  0  0  0  0  0  0  0  0  0  0  0
   37.5824  -39.3133   28.3094 C   0  0  0  0  0  0  0  0  0  0  0  0
   36.2153  -39.3040   29.3989 Cl  0  0  0  0  0  0  0  0  0  0  0  0
   37.4054  -41.9162   27.9436 C   0  0  0  0  0  0  0  0  0  0  0  0
   37.7068  -42.6223   28.8756 O   0  0  0  0  0  0  0  0  0  0  0  0
   36.3997  -42.3686   27.0888 O   0  0  0  0  0  0  0  0  0  0  0  0
   34.5741  -40.9552   26.6796 C   0  0  0  0  0  0  0  0  0  0  0  0
   35.0989  -42.0719   27.5376 C   0  0  0  0  0  0  0  0  0  0  0  0
  9  8  1  0  0  0
  7  8  2  0  0  0
  7  5  1  0  0  0
  8  1  1  0  0  0
  6  5  2  0  0  0
  5  3  1  0  0  0
 11 10  2  0  0  0
  1 10  1  0  0  0
  1  2  2  0  0  0
 10 12  1  0  0  0
  3  2  1  0  0  0
  3  4  1  0  0  0
 14 12  1  0  0  0
 14 13  1  0  0  0
M  END
> <minimizedAffinity>
-4.22146

$$$$
