1HP5_NGT_A_511


 17 18  0  0  0  0  0  0  0  0999 V2000
   -4.7670   66.1014   10.7630 C   0  0  0  0  0  0  0  0  0  0  0  0
   -4.0424   67.1797    9.9036 C   0  0  0  0  0  0  0  0  0  0  0  0
   -4.9447   67.6811    8.7250 C   0  0  0  0  0  0  0  0  0  0  0  0
   -5.7143   66.5408    8.0357 C   0  0  0  0  0  0  0  0  0  0  0  0
   -6.5068   65.7253    9.0801 C   0  0  0  0  0  0  0  0  0  0  0  0
   -4.4779   68.3998   11.7853 C   0  0  0  0  0  0  0  0  0  0  0  0
   -4.4182   69.4812   12.8387 C   0  0  0  0  0  0  0  0  0  0  0  0
   -3.7243   68.3017   10.7773 N   0  0  0  0  0  0  0  0  0  0  0  0
   -5.6985   67.1409   11.9918 S   0  0  0  0  0  0  0  0  0  0  0  0
   -4.1519   68.3849    7.7810 O   0  0  0  0  0  0  0  0  0  0  0  0
   -6.5964   67.0927    7.0742 O   0  0  0  0  0  0  0  0  0  0  0  0
   -5.5876   65.1826   10.1041 O   0  0  0  0  0  0  0  0  0  0  0  0
   -3.4877   67.7857    7.4059 H   0  0  0  0  0  0  0  0  0  0  0  0
   -7.2237   67.6872    7.5145 H   0  0  0  0  0  0  0  0  0  0  0  0
   -7.2828   64.5512    8.4886 C   0  0  0  0  0  0  0  0  0  0  0  0
   -6.3983   63.4924    8.1196 O   0  0  0  0  0  0  0  0  0  0  0  0
   -5.7730   63.8119    7.4504 H   0  0  0  0  0  0  0  0  0  0  0  0
  1  2  1  0  0  0
  1  9  1  0  0  0
  1 12  1  0  0  0
  2  3  1  0  0  0
  2  8  1  0  0  0
  3  4  1  0  0  0
  3 10  1  0  0  0
  4  5  1  0  0  0
  4 11  1  0  0  0
  5 15  1  0  0  0
  5 12  1  0  0  0
 15 16  1  0  0  0
  6  7  1  0  0  0
  6  8  2  0  0  0
  6  9  1  0  0  0
 10 13  1  0  0  0
 11 14  1  0  0  0
 16 17  1  0  0  0
M  END
> <minimizedAffinity>
-7.39103

$$$$
1HP5_NGT_A_511


 17 18  0  0  0  0  0  0  0  0999 V2000
   -6.0049   65.8596    9.9692 C   0  0  0  0  0  0  0  0  0  0  0  0
   -6.5852   66.5548    8.7017 C   0  0  0  0  0  0  0  0  0  0  0  0
   -5.4539   67.1841    7.8192 C   0  0  0  0  0  0  0  0  0  0  0  0
   -4.3695   67.8895    8.6524 C   0  0  0  0  0  0  0  0  0  0  0  0
   -3.8147   66.9296    9.7270 C   0  0  0  0  0  0  0  0  0  0  0  0
   -6.8884   64.3649    8.1261 C   0  0  0  0  0  0  0  0  0  0  0  0
   -7.3993   63.1209    7.4377 C   0  0  0  0  0  0  0  0  0  0  0  0
   -7.2935   65.5439    7.9274 N   0  0  0  0  0  0  0  0  0  0  0  0
   -5.6232   64.1521    9.3391 S   0  0  0  0  0  0  0  0  0  0  0  0
   -6.0233   68.0859    6.8824 O   0  0  0  0  0  0  0  0  0  0  0  0
   -3.3278   68.3148    7.7917 O   0  0  0  0  0  0  0  0  0  0  0  0
   -4.9112   66.4571   10.6003 O   0  0  0  0  0  0  0  0  0  0  0  0
   -6.4612   68.8103    7.3560 H   0  0  0  0  0  0  0  0  0  0  0  0
   -2.9431   67.5447    7.3445 H   0  0  0  0  0  0  0  0  0  0  0  0
   -2.7483   67.5544   10.6231 C   0  0  0  0  0  0  0  0  0  0  0  0
   -1.5853   67.8938    9.8671 O   0  0  0  0  0  0  0  0  0  0  0  0
   -1.2145   67.0918    9.4667 H   0  0  0  0  0  0  0  0  0  0  0  0
  1  2  1  0  0  0
  1  9  1  0  0  0
  1 12  1  0  0  0
  2  3  1  0  0  0
  2  8  1  0  0  0
  3  4  1  0  0  0
  3 10  1  0  0  0
  4  5  1  0  0  0
  4 11  1  0  0  0
  5 15  1  0  0  0
  5 12  1  0  0  0
 15 16  1  0  0  0
  6  7  1  0  0  0
  6  8  2  0  0  0
  6  9  1  0  0  0
 10 13  1  0  0  0
 11 14  1  0  0  0
 16 17  1  0  0  0
M  END
> <minimizedAffinity>
-6.83806

$$$$
1HP5_NGT_A_511


 17 18  0  0  0  0  0  0  0  0999 V2000
   -4.0039   67.5756   10.2870 C   0  0  0  0  0  0  0  0  0  0  0  0
   -4.9009   66.6177   11.1261 C   0  0  0  0  0  0  0  0  0  0  0  0
   -5.9031   67.4110   12.0323 C   0  0  0  0  0  0  0  0  0  0  0  0
   -5.2609   68.6405   12.6984 C   0  0  0  0  0  0  0  0  0  0  0  0
   -4.5931   69.5360   11.6324 C   0  0  0  0  0  0  0  0  0  0  0  0
   -5.8128   66.3018    9.0555 C   0  0  0  0  0  0  0  0  0  0  0  0
   -6.5815   65.6960    7.9045 C   0  0  0  0  0  0  0  0  0  0  0  0
   -5.6501   65.7839   10.1952 N   0  0  0  0  0  0  0  0  0  0  0  0
   -5.0496   67.8696    8.7776 S   0  0  0  0  0  0  0  0  0  0  0  0
   -6.4491   66.5442   13.0149 O   0  0  0  0  0  0  0  0  0  0  0  0
   -6.2607   69.3670   13.3909 O   0  0  0  0  0  0  0  0  0  0  0  0
   -3.5767   68.7636   10.8852 O   0  0  0  0  0  0  0  0  0  0  0  0
   -5.7379   66.2138   13.5858 H   0  0  0  0  0  0  0  0  0  0  0  0
   -6.9422   69.6567   12.7644 H   0  0  0  0  0  0  0  0  0  0  0  0
   -3.9035   70.7711   12.2064 C   0  0  0  0  0  0  0  0  0  0  0  0
   -4.8614   71.7714   12.5547 O   0  0  0  0  0  0  0  0  0  0  0  0
   -5.3531   72.0381   11.7622 H   0  0  0  0  0  0  0  0  0  0  0  0
  1  2  1  0  0  0
  1  9  1  0  0  0
  1 12  1  0  0  0
  2  3  1  0  0  0
  2  8  1  0  0  0
  3  4  1  0  0  0
  3 10  1  0  0  0
  4  5  1  0  0  0
  4 11  1  0  0  0
  5 15  1  0  0  0
  5 12  1  0  0  0
 15 16  1  0  0  0
  6  7  1  0  0  0
  6  8  2  0  0  0
  6  9  1  0  0  0
 10 13  1  0  0  0
 11 14  1  0  0  0
 16 17  1  0  0  0
M  END
> <minimizedAffinity>
-6.02283

$$$$
1HP5_NGT_A_511


 17 18  0  0  0  0  0  0  0  0999 V2000
   -5.2659   66.8369   11.6838 C   0  0  0  0  0  0  0  0  0  0  0  0
   -4.0155   67.4539   10.9894 C   0  0  0  0  0  0  0  0  0  0  0  0
   -4.2726   67.7195    9.4669 C   0  0  0  0  0  0  0  0  0  0  0  0
   -5.0439   66.5768    8.7835 C   0  0  0  0  0  0  0  0  0  0  0  0
   -6.3450   66.2744    9.5579 C   0  0  0  0  0  0  0  0  0  0  0  0
   -4.7129   69.2496   12.2173 C   0  0  0  0  0  0  0  0  0  0  0  0
   -4.7196   70.5740   12.9442 C   0  0  0  0  0  0  0  0  0  0  0  0
   -3.7171   68.7156   11.6545 N   0  0  0  0  0  0  0  0  0  0  0  0
   -6.2317   68.3506   12.1679 S   0  0  0  0  0  0  0  0  0  0  0  0
   -3.0375   67.9482    8.8055 O   0  0  0  0  0  0  0  0  0  0  0  0
   -5.3439   66.9528    7.4509 O   0  0  0  0  0  0  0  0  0  0  0  0
   -6.0308   65.9197   10.9591 O   0  0  0  0  0  0  0  0  0  0  0  0
   -2.4825   67.1556    8.8740 H   0  0  0  0  0  0  0  0  0  0  0  0
   -5.8899   67.7546    7.4563 H   0  0  0  0  0  0  0  0  0  0  0  0
   -7.1655   65.1313    8.9658 C   0  0  0  0  0  0  0  0  0  0  0  0
   -6.3129   64.1020    8.4627 O   0  0  0  0  0  0  0  0  0  0  0  0
   -5.7468   64.4642    7.7633 H   0  0  0  0  0  0  0  0  0  0  0  0
  1  2  1  0  0  0
  1  9  1  0  0  0
  1 12  1  0  0  0
  2  3  1  0  0  0
  2  8  1  0  0  0
  3  4  1  0  0  0
  3 10  1  0  0  0
  4  5  1  0  0  0
  4 11  1  0  0  0
  5 15  1  0  0  0
  5 12  1  0  0  0
 15 16  1  0  0  0
  6  7  1  0  0  0
  6  8  2  0  0  0
  6  9  1  0  0  0
 10 13  1  0  0  0
 11 14  1  0  0  0
 16 17  1  0  0  0
M  END
> <minimizedAffinity>
-5.86724

$$$$
1HP5_NGT_A_511


 17 18  0  0  0  0  0  0  0  0999 V2000
   -5.2401   69.5105   11.3165 C   0  0  0  0  0  0  0  0  0  0  0  0
   -5.9805   68.6942   12.4173 C   0  0  0  0  0  0  0  0  0  0  0  0
   -5.6908   67.1596   12.2914 C   0  0  0  0  0  0  0  0  0  0  0  0
   -5.7020   66.6676   10.8335 C   0  0  0  0  0  0  0  0  0  0  0  0
   -4.7436   67.5216    9.9755 C   0  0  0  0  0  0  0  0  0  0  0  0
   -4.3590   69.6870   13.6838 C   0  0  0  0  0  0  0  0  0  0  0  0
   -3.5959   70.2245   14.8718 C   0  0  0  0  0  0  0  0  0  0  0  0
   -5.5096   69.1684   13.7122 N   0  0  0  0  0  0  0  0  0  0  0  0
   -3.5828   69.8153   12.1031 S   0  0  0  0  0  0  0  0  0  0  0  0
   -6.6291   66.4300   13.0675 O   0  0  0  0  0  0  0  0  0  0  0  0
   -5.3073   65.3074   10.8009 O   0  0  0  0  0  0  0  0  0  0  0  0
   -5.1354   68.9464   10.0427 O   0  0  0  0  0  0  0  0  0  0  0  0
   -7.5232   66.5874   12.7259 H   0  0  0  0  0  0  0  0  0  0  0  0
   -4.4123   65.2217   11.1649 H   0  0  0  0  0  0  0  0  0  0  0  0
   -4.7098   67.1218    8.5026 C   0  0  0  0  0  0  0  0  0  0  0  0
   -4.3312   68.2295    7.6846 O   0  0  0  0  0  0  0  0  0  0  0  0
   -4.9769   68.9455    7.7907 H   0  0  0  0  0  0  0  0  0  0  0  0
  1  2  1  0  0  0
  1  9  1  0  0  0
  1 12  1  0  0  0
  2  3  1  0  0  0
  2  8  1  0  0  0
  3  4  1  0  0  0
  3 10  1  0  0  0
  4  5  1  0  0  0
  4 11  1  0  0  0
  5 15  1  0  0  0
  5 12  1  0  0  0
 15 16  1  0  0  0
  6  7  1  0  0  0
  6  8  2  0  0  0
  6  9  1  0  0  0
 10 13  1  0  0  0
 11 14  1  0  0  0
 16 17  1  0  0  0
M  END
> <minimizedAffinity>
-5.13969

$$$$
1HP5_NGT_A_511


 17 18  0  0  0  0  0  0  0  0999 V2000
   -5.0474   67.8440    8.5475 C   0  0  0  0  0  0  0  0  0  0  0  0
   -4.0173   66.7790    9.0284 C   0  0  0  0  0  0  0  0  0  0  0  0
   -3.7924   66.8512   10.5773 C   0  0  0  0  0  0  0  0  0  0  0  0
   -3.7039   68.2954   11.1009 C   0  0  0  0  0  0  0  0  0  0  0  0
   -4.9377   69.1040   10.6453 C   0  0  0  0  0  0  0  0  0  0  0  0
   -5.7994   65.4262    8.5670 C   0  0  0  0  0  0  0  0  0  0  0  0
   -6.6271   64.2007    8.2579 C   0  0  0  0  0  0  0  0  0  0  0  0
   -4.5426   65.4656    8.6790 N   0  0  0  0  0  0  0  0  0  0  0  0
   -6.6644   66.9524    8.7679 S   0  0  0  0  0  0  0  0  0  0  0  0
   -2.6232   66.1256   10.9256 O   0  0  0  0  0  0  0  0  0  0  0  0
   -3.6299   68.2712   12.5155 O   0  0  0  0  0  0  0  0  0  0  0  0
   -5.0337   69.0950    9.1693 O   0  0  0  0  0  0  0  0  0  0  0  0
   -1.8520   66.5311   10.4993 H   0  0  0  0  0  0  0  0  0  0  0  0
   -4.4242   67.8448   12.8735 H   0  0  0  0  0  0  0  0  0  0  0  0
   -4.9229   70.5621   11.0974 C   0  0  0  0  0  0  0  0  0  0  0  0
   -3.6175   70.9458   11.5311 O   0  0  0  0  0  0  0  0  0  0  0  0
   -3.3503   70.3919   12.2813 H   0  0  0  0  0  0  0  0  0  0  0  0
  1  2  1  0  0  0
  1  9  1  0  0  0
  1 12  1  0  0  0
  2  3  1  0  0  0
  2  8  1  0  0  0
  3  4  1  0  0  0
  3 10  1  0  0  0
  4  5  1  0  0  0
  4 11  1  0  0  0
  5 15  1  0  0  0
  5 12  1  0  0  0
 15 16  1  0  0  0
  6  7  1  0  0  0
  6  8  2  0  0  0
  6  9  1  0  0  0
 10 13  1  0  0  0
 11 14  1  0  0  0
 16 17  1  0  0  0
M  END
> <minimizedAffinity>
-4.89984

$$$$
1HP5_NGT_A_511


 17 18  0  0  0  0  0  0  0  0999 V2000
   -6.1082   68.4522   11.4649 C   0  0  0  0  0  0  0  0  0  0  0  0
   -4.9349   69.3702   11.0097 C   0  0  0  0  0  0  0  0  0  0  0  0
   -4.1823   69.9951   12.2335 C   0  0  0  0  0  0  0  0  0  0  0  0
   -5.1371   70.4648   13.3451 C   0  0  0  0  0  0  0  0  0  0  0  0
   -6.0815   69.3151   13.7573 C   0  0  0  0  0  0  0  0  0  0  0  0
   -4.0488   67.3225   10.5191 C   0  0  0  0  0  0  0  0  0  0  0  0
   -3.1781   66.2434    9.9192 C   0  0  0  0  0  0  0  0  0  0  0  0
   -4.0063   68.5528   10.2397 N   0  0  0  0  0  0  0  0  0  0  0  0
   -5.2556   66.8170   11.7048 S   0  0  0  0  0  0  0  0  0  0  0  0
   -3.3656   71.0702   11.7952 O   0  0  0  0  0  0  0  0  0  0  0  0
   -4.3748   70.8949   14.4590 O   0  0  0  0  0  0  0  0  0  0  0  0
   -6.8480   68.8424   12.5838 O   0  0  0  0  0  0  0  0  0  0  0  0
   -3.9236   71.7640   11.4102 H   0  0  0  0  0  0  0  0  0  0  0  0
   -3.8351   70.1580   14.7854 H   0  0  0  0  0  0  0  0  0  0  0  0
   -7.0867   69.6987   14.8403 C   0  0  0  0  0  0  0  0  0  0  0  0
   -7.3650   71.0989   14.8016 O   0  0  0  0  0  0  0  0  0  0  0  0
   -6.5464   71.5956   14.9565 H   0  0  0  0  0  0  0  0  0  0  0  0
  1  2  1  0  0  0
  1  9  1  0  0  0
  1 12  1  0  0  0
  2  3  1  0  0  0
  2  8  1  0  0  0
  3  4  1  0  0  0
  3 10  1  0  0  0
  4  5  1  0  0  0
  4 11  1  0  0  0
  5 15  1  0  0  0
  5 12  1  0  0  0
 15 16  1  0  0  0
  6  7  1  0  0  0
  6  8  2  0  0  0
  6  9  1  0  0  0
 10 13  1  0  0  0
 11 14  1  0  0  0
 16 17  1  0  0  0
M  END
> <minimizedAffinity>
-4.64150

$$$$
1HP5_NGT_A_511


 17 18  0  0  0  0  0  0  0  0999 V2000
   -6.4281   67.3463    9.9706 C   0  0  0  0  0  0  0  0  0  0  0  0
   -5.6462   67.5582    8.6401 C   0  0  0  0  0  0  0  0  0  0  0  0
   -4.1010   67.6417    8.8854 C   0  0  0  0  0  0  0  0  0  0  0  0
   -3.7379   68.4717   10.1291 C   0  0  0  0  0  0  0  0  0  0  0  0
   -4.5038   67.9464   11.3625 C   0  0  0  0  0  0  0  0  0  0  0  0
   -6.2734   65.3761    8.3876 C   0  0  0  0  0  0  0  0  0  0  0  0
   -6.5892   64.0384    7.7605 C   0  0  0  0  0  0  0  0  0  0  0  0
   -5.9352   66.4247    7.7714 N   0  0  0  0  0  0  0  0  0  0  0  0
   -6.4117   65.4948   10.1439 S   0  0  0  0  0  0  0  0  0  0  0  0
   -3.4612   68.1698    7.7335 O   0  0  0  0  0  0  0  0  0  0  0  0
   -2.3408   68.3892   10.3491 O   0  0  0  0  0  0  0  0  0  0  0  0
   -5.9612   67.9979   11.1148 O   0  0  0  0  0  0  0  0  0  0  0  0
   -3.7803   69.0713    7.5712 H   0  0  0  0  0  0  0  0  0  0  0  0
   -2.0903   67.4632   10.4931 H   0  0  0  0  0  0  0  0  0  0  0  0
   -4.2259   68.7300   12.6429 C   0  0  0  0  0  0  0  0  0  0  0  0
   -3.8259   70.0676   12.3427 O   0  0  0  0  0  0  0  0  0  0  0  0
   -3.0130   70.0510   11.8137 H   0  0  0  0  0  0  0  0  0  0  0  0
  1  2  1  0  0  0
  1  9  1  0  0  0
  1 12  1  0  0  0
  2  3  1  0  0  0
  2  8  1  0  0  0
  3  4  1  0  0  0
  3 10  1  0  0  0
  4  5  1  0  0  0
  4 11  1  0  0  0
  5 15  1  0  0  0
  5 12  1  0  0  0
 15 16  1  0  0  0
  6  7  1  0  0  0
  6  8  2  0  0  0
  6  9  1  0  0  0
 10 13  1  0  0  0
 11 14  1  0  0  0
 16 17  1  0  0  0
M  END
> <minimizedAffinity>
-4.44930

$$$$
