2YK1_NCT_H_300


 12 13  0  0  0  0  0  0  0  0999 V2000
  -20.9217    5.1748   -0.7549 N   0  0  0  0  0  0  0  0  0  0  0  0
  -20.5685    3.9357   -0.4553 C   0  0  0  0  0  0  0  0  0  0  0  0
  -21.3718    3.1063    0.3102 C   0  0  0  0  0  0  0  0  0  0  0  0
  -22.5933    3.6136    0.7952 C   0  0  0  0  0  0  0  0  0  0  0  0
  -22.9395    4.9186    0.4766 C   0  0  0  0  0  0  0  0  0  0  0  0
  -22.0694    5.6920   -0.3057 C   0  0  0  0  0  0  0  0  0  0  0  0
  -21.8058    0.8256    1.3796 N   0  0  0  0  0  0  0  0  0  0  0  0
  -20.8936    1.6909    0.5804 C   0  0  0  0  0  0  0  0  0  0  0  0
  -20.7576    0.8524   -0.7227 C   0  0  0  0  0  0  0  0  0  0  0  0
  -20.4771   -0.5486   -0.1251 C   0  0  0  0  0  0  0  0  0  0  0  0
  -21.1897   -0.5053    1.2485 C   0  0  0  0  0  0  0  0  0  0  0  0
  -21.7046    1.2014    2.8045 C   0  0  0  0  0  0  0  0  0  0  0  0
  1  2  2  0  0  0
  1  6  1  0  0  0
  2  3  1  0  0  0
  3  4  2  0  0  0
  3  8  1  0  0  0
  4  5  1  0  0  0
  5  6  2  0  0  0
  7  8  1  0  0  0
  7 11  1  0  0  0
  7 12  1  0  0  0
  8  9  1  0  0  0
  9 10  1  0  0  0
 10 11  1  0  0  0
M  END
> <minimizedAffinity>
-7.94979

$$$$
2YK1_NCT_H_300


 12 13  0  0  0  0  0  0  0  0999 V2000
  -21.2186   -0.2977    1.5037 N   0  0  0  0  0  0  0  0  0  0  0  0
  -21.3500    1.0106    1.3590 C   0  0  0  0  0  0  0  0  0  0  0  0
  -20.9772    1.6632    0.1953 C   0  0  0  0  0  0  0  0  0  0  0  0
  -20.4253    0.9033   -0.8548 C   0  0  0  0  0  0  0  0  0  0  0  0
  -20.2881   -0.4658   -0.6780 C   0  0  0  0  0  0  0  0  0  0  0  0
  -20.6920   -1.0492    0.5319 C   0  0  0  0  0  0  0  0  0  0  0  0
  -21.4580    3.7208   -1.2431 N   0  0  0  0  0  0  0  0  0  0  0  0
  -21.1897    3.1643    0.1126 C   0  0  0  0  0  0  0  0  0  0  0  0
  -22.4625    3.6257    0.8784 C   0  0  0  0  0  0  0  0  0  0  0  0
  -22.5274    5.1105    0.4429 C   0  0  0  0  0  0  0  0  0  0  0  0
  -21.8569    5.1080   -0.9524 C   0  0  0  0  0  0  0  0  0  0  0  0
  -20.1895    3.7932   -1.9964 C   0  0  0  0  0  0  0  0  0  0  0  0
  1  2  2  0  0  0
  1  6  1  0  0  0
  2  3  1  0  0  0
  3  4  2  0  0  0
  3  8  1  0  0  0
  4  5  1  0  0  0
  5  6  2  0  0  0
  7  8  1  0  0  0
  7 11  1  0  0  0
  7 12  1  0  0  0
  8  9  1  0  0  0
  9 10  1  0  0  0
 10 11  1  0  0  0
M  END
> <minimizedAffinity>
-7.46255

$$$$
2YK1_NCT_H_300


 12 13  0  0  0  0  0  0  0  0999 V2000
  -21.0347   -0.1439    0.0641 N   0  0  0  0  0  0  0  0  0  0  0  0
  -21.0802    1.1371   -0.2630 C   0  0  0  0  0  0  0  0  0  0  0  0
  -21.3293    2.1271    0.6734 C   0  0  0  0  0  0  0  0  0  0  0  0
  -21.5577    1.7464    2.0104 C   0  0  0  0  0  0  0  0  0  0  0  0
  -21.5144    0.3970    2.3294 C   0  0  0  0  0  0  0  0  0  0  0  0
  -21.2541   -0.5425    1.3209 C   0  0  0  0  0  0  0  0  0  0  0  0
  -21.3334    3.7926   -1.2657 N   0  0  0  0  0  0  0  0  0  0  0  0
  -21.3367    3.5722    0.2078 C   0  0  0  0  0  0  0  0  0  0  0  0
  -22.6385    4.3196    0.6153 C   0  0  0  0  0  0  0  0  0  0  0  0
  -22.4518    5.6478   -0.1589 C   0  0  0  0  0  0  0  0  0  0  0  0
  -21.5921    5.2376   -1.3792 C   0  0  0  0  0  0  0  0  0  0  0  0
  -19.9704    3.5634   -1.7865 C   0  0  0  0  0  0  0  0  0  0  0  0
  1  2  2  0  0  0
  1  6  1  0  0  0
  2  3  1  0  0  0
  3  4  2  0  0  0
  3  8  1  0  0  0
  4  5  1  0  0  0
  5  6  2  0  0  0
  7  8  1  0  0  0
  7 11  1  0  0  0
  7 12  1  0  0  0
  8  9  1  0  0  0
  9 10  1  0  0  0
 10 11  1  0  0  0
M  END
> <minimizedAffinity>
-7.15324

$$$$
2YK1_NCT_H_300


 12 13  0  0  0  0  0  0  0  0999 V2000
  -20.6865   -0.8149   -0.5453 N   0  0  0  0  0  0  0  0  0  0  0  0
  -20.8818    0.3854   -1.0661 C   0  0  0  0  0  0  0  0  0  0  0  0
  -21.2273    1.4779   -0.2875 C   0  0  0  0  0  0  0  0  0  0  0  0
  -21.3909    1.2908    1.0992 C   0  0  0  0  0  0  0  0  0  0  0  0
  -21.1902    0.0218    1.6227 C   0  0  0  0  0  0  0  0  0  0  0  0
  -20.8404   -1.0312    0.7646 C   0  0  0  0  0  0  0  0  0  0  0  0
  -21.5102    4.0097   -0.0793 N   0  0  0  0  0  0  0  0  0  0  0  0
  -21.4053    2.8214   -0.9718 C   0  0  0  0  0  0  0  0  0  0  0  0
  -20.1753    3.2119   -1.8401 C   0  0  0  0  0  0  0  0  0  0  0  0
  -20.5490    4.6673   -2.2150 C   0  0  0  0  0  0  0  0  0  0  0  0
  -21.4204    5.1354   -1.0242 C   0  0  0  0  0  0  0  0  0  0  0  0
  -22.8647    4.0559    0.5081 C   0  0  0  0  0  0  0  0  0  0  0  0
  1  2  2  0  0  0
  1  6  1  0  0  0
  2  3  1  0  0  0
  3  4  2  0  0  0
  3  8  1  0  0  0
  4  5  1  0  0  0
  5  6  2  0  0  0
  7  8  1  0  0  0
  7 11  1  0  0  0
  7 12  1  0  0  0
  8  9  1  0  0  0
  9 10  1  0  0  0
 10 11  1  0  0  0
M  END
> <minimizedAffinity>
-6.92275

$$$$
2YK1_NCT_H_300


 12 13  0  0  0  0  0  0  0  0999 V2000
  -21.4675    0.2008    1.6280 N   0  0  0  0  0  0  0  0  0  0  0  0
  -21.4472    1.0150    0.5856 C   0  0  0  0  0  0  0  0  0  0  0  0
  -21.5533    2.3893    0.7233 C   0  0  0  0  0  0  0  0  0  0  0  0
  -21.7053    2.9260    2.0170 C   0  0  0  0  0  0  0  0  0  0  0  0
  -21.7333    2.0532    3.0949 C   0  0  0  0  0  0  0  0  0  0  0  0
  -21.6180    0.6737    2.8690 C   0  0  0  0  0  0  0  0  0  0  0  0
  -21.5144    4.7202   -0.3253 N   0  0  0  0  0  0  0  0  0  0  0  0
  -21.4940    3.2446   -0.5298 C   0  0  0  0  0  0  0  0  0  0  0  0
  -20.1551    3.0719   -1.3024 C   0  0  0  0  0  0  0  0  0  0  0  0
  -20.3000    4.1891   -2.3651 C   0  0  0  0  0  0  0  0  0  0  0  0
  -21.1977    5.2390   -1.6663 C   0  0  0  0  0  0  0  0  0  0  0  0
  -22.8949    5.1476   -0.0201 C   0  0  0  0  0  0  0  0  0  0  0  0
  1  2  2  0  0  0
  1  6  1  0  0  0
  2  3  1  0  0  0
  3  4  2  0  0  0
  3  8  1  0  0  0
  4  5  1  0  0  0
  5  6  2  0  0  0
  7  8  1  0  0  0
  7 11  1  0  0  0
  7 12  1  0  0  0
  8  9  1  0  0  0
  9 10  1  0  0  0
 10 11  1  0  0  0
M  END
> <minimizedAffinity>
-6.61830

$$$$
2YK1_NCT_H_300


 12 13  0  0  0  0  0  0  0  0999 V2000
  -20.5884    5.1452   -0.3741 N   0  0  0  0  0  0  0  0  0  0  0  0
  -20.6271    3.8357   -0.1907 C   0  0  0  0  0  0  0  0  0  0  0  0
  -21.7797    3.1835    0.2156 C   0  0  0  0  0  0  0  0  0  0  0  0
  -22.9373    3.9499    0.4555 C   0  0  0  0  0  0  0  0  0  0  0  0
  -22.8716    5.3225    0.2658 C   0  0  0  0  0  0  0  0  0  0  0  0
  -21.6648    5.9048   -0.1487 C   0  0  0  0  0  0  0  0  0  0  0  0
  -20.6313    0.9672   -0.3347 N   0  0  0  0  0  0  0  0  0  0  0  0
  -21.7342    1.6743    0.3746 C   0  0  0  0  0  0  0  0  0  0  0  0
  -21.4658    1.2410    1.8442 C   0  0  0  0  0  0  0  0  0  0  0  0
  -21.2649   -0.2827    1.6537 C   0  0  0  0  0  0  0  0  0  0  0  0
  -20.7158   -0.3978    0.2109 C   0  0  0  0  0  0  0  0  0  0  0  0
  -20.9626    0.8712   -1.7710 C   0  0  0  0  0  0  0  0  0  0  0  0
  1  2  2  0  0  0
  1  6  1  0  0  0
  2  3  1  0  0  0
  3  4  2  0  0  0
  3  8  1  0  0  0
  4  5  1  0  0  0
  5  6  2  0  0  0
  7  8  1  0  0  0
  7 11  1  0  0  0
  7 12  1  0  0  0
  8  9  1  0  0  0
  9 10  1  0  0  0
 10 11  1  0  0  0
M  END
> <minimizedAffinity>
-6.56577

$$$$
2YK1_NCT_H_300


 12 13  0  0  0  0  0  0  0  0999 V2000
  -19.6055    3.7819   -1.9185 N   0  0  0  0  0  0  0  0  0  0  0  0
  -20.0309    3.0250   -0.9204 C   0  0  0  0  0  0  0  0  0  0  0  0
  -21.3133    3.1351   -0.4083 C   0  0  0  0  0  0  0  0  0  0  0  0
  -22.1786    4.0987   -0.9629 C   0  0  0  0  0  0  0  0  0  0  0  0
  -21.7088    4.8879   -2.0026 C   0  0  0  0  0  0  0  0  0  0  0  0
  -20.3959    4.7116   -2.4638 C   0  0  0  0  0  0  0  0  0  0  0  0
  -20.8698    0.9978    0.9216 N   0  0  0  0  0  0  0  0  0  0  0  0
  -21.7193    2.2052    0.7211 C   0  0  0  0  0  0  0  0  0  0  0  0
  -21.6043    2.8823    2.1167 C   0  0  0  0  0  0  0  0  0  0  0  0
  -21.8631    1.6658    3.0394 C   0  0  0  0  0  0  0  0  0  0  0  0
  -21.3605    0.4639    2.2031 C   0  0  0  0  0  0  0  0  0  0  0  0
  -21.2022   -0.0049   -0.1108 C   0  0  0  0  0  0  0  0  0  0  0  0
  1  2  2  0  0  0
  1  6  1  0  0  0
  2  3  1  0  0  0
  3  4  2  0  0  0
  3  8  1  0  0  0
  4  5  1  0  0  0
  5  6  2  0  0  0
  7  8  1  0  0  0
  7 11  1  0  0  0
  7 12  1  0  0  0
  8  9  1  0  0  0
  9 10  1  0  0  0
 10 11  1  0  0  0
M  END
> <minimizedAffinity>
-6.52781

$$$$
2YK1_NCT_H_300


 12 13  0  0  0  0  0  0  0  0999 V2000
  -21.1606   -0.8012    0.4096 N   0  0  0  0  0  0  0  0  0  0  0  0
  -21.5938    0.4488    0.4132 C   0  0  0  0  0  0  0  0  0  0  0  0
  -21.0144    1.4305   -0.3739 C   0  0  0  0  0  0  0  0  0  0  0  0
  -19.9184    1.0809   -1.1871 C   0  0  0  0  0  0  0  0  0  0  0  0
  -19.4748   -0.2334   -1.1683 C   0  0  0  0  0  0  0  0  0  0  0  0
  -20.1186   -1.1672   -0.3431 C   0  0  0  0  0  0  0  0  0  0  0  0
  -20.8594    3.8245    0.5086 N   0  0  0  0  0  0  0  0  0  0  0  0
  -21.5972    2.8315   -0.3216 C   0  0  0  0  0  0  0  0  0  0  0  0
  -21.5774    3.5338   -1.7093 C   0  0  0  0  0  0  0  0  0  0  0  0
  -22.0134    4.9637   -1.3047 C   0  0  0  0  0  0  0  0  0  0  0  0
  -21.5139    5.0950    0.1547 C   0  0  0  0  0  0  0  0  0  0  0  0
  -21.1546    3.5779    1.9347 C   0  0  0  0  0  0  0  0  0  0  0  0
  1  2  2  0  0  0
  1  6  1  0  0  0
  2  3  1  0  0  0
  3  4  2  0  0  0
  3  8  1  0  0  0
  4  5  1  0  0  0
  5  6  2  0  0  0
  7  8  1  0  0  0
  7 11  1  0  0  0
  7 12  1  0  0  0
  8  9  1  0  0  0
  9 10  1  0  0  0
 10 11  1  0  0  0
M  END
> <minimizedAffinity>
-6.13928

$$$$
2YK1_NCT_H_300


 12 13  0  0  0  0  0  0  0  0999 V2000
  -21.7336    2.6593    3.1291 N   0  0  0  0  0  0  0  0  0  0  0  0
  -21.4245    3.0377    1.8998 C   0  0  0  0  0  0  0  0  0  0  0  0
  -21.1786    2.1234    0.8885 C   0  0  0  0  0  0  0  0  0  0  0  0
  -21.2447    0.7495    1.1931 C   0  0  0  0  0  0  0  0  0  0  0  0
  -21.5614    0.3752    2.4908 C   0  0  0  0  0  0  0  0  0  0  0  0
  -21.7977    1.3649    3.4562 C   0  0  0  0  0  0  0  0  0  0  0  0
  -22.0024    2.7771   -1.4413 N   0  0  0  0  0  0  0  0  0  0  0  0
  -20.8564    2.6530   -0.4974 C   0  0  0  0  0  0  0  0  0  0  0  0
  -20.3395    4.1198   -0.4660 C   0  0  0  0  0  0  0  0  0  0  0  0
  -20.3084    4.4373   -1.9815 C   0  0  0  0  0  0  0  0  0  0  0  0
  -21.4192    3.5301   -2.5642 C   0  0  0  0  0  0  0  0  0  0  0  0
  -22.3480    1.4387   -1.9619 C   0  0  0  0  0  0  0  0  0  0  0  0
  1  2  2  0  0  0
  1  6  1  0  0  0
  2  3  1  0  0  0
  3  4  2  0  0  0
  3  8  1  0  0  0
  4  5  1  0  0  0
  5  6  2  0  0  0
  7  8  1  0  0  0
  7 11  1  0  0  0
  7 12  1  0  0  0
  8  9  1  0  0  0
  9 10  1  0  0  0
 10 11  1  0  0  0
M  END
> <minimizedAffinity>
-5.31791

$$$$
2YK1_NCT_H_300


 12 13  0  0  0  0  0  0  0  0999 V2000
  -21.6316    1.1083    2.6400 N   0  0  0  0  0  0  0  0  0  0  0  0
  -21.6856    2.1524    1.8295 C   0  0  0  0  0  0  0  0  0  0  0  0
  -21.3364    2.0642    0.4918 C   0  0  0  0  0  0  0  0  0  0  0  0
  -20.8941    0.8233   -0.0076 C   0  0  0  0  0  0  0  0  0  0  0  0
  -20.8364   -0.2559    0.8621 C   0  0  0  0  0  0  0  0  0  0  0  0
  -21.2095   -0.0823    2.2030 C   0  0  0  0  0  0  0  0  0  0  0  0
  -21.5973    4.6036    0.3606 N   0  0  0  0  0  0  0  0  0  0  0  0
  -21.4554    3.3110   -0.3664 C   0  0  0  0  0  0  0  0  0  0  0  0
  -20.1707    3.5810   -1.2008 C   0  0  0  0  0  0  0  0  0  0  0  0
  -20.5019    4.9791   -1.7787 C   0  0  0  0  0  0  0  0  0  0  0  0
  -21.4364    5.5996   -0.7118 C   0  0  0  0  0  0  0  0  0  0  0  0
  -22.9836    4.7318    0.8541 C   0  0  0  0  0  0  0  0  0  0  0  0
  1  2  2  0  0  0
  1  6  1  0  0  0
  2  3  1  0  0  0
  3  4  2  0  0  0
  3  8  1  0  0  0
  4  5  1  0  0  0
  5  6  2  0  0  0
  7  8  1  0  0  0
  7 11  1  0  0  0
  7 12  1  0  0  0
  8  9  1  0  0  0
  9 10  1  0  0  0
 10 11  1  0  0  0
M  END
> <minimizedAffinity>
-5.21724

$$$$
