3M37_M37_A_301


 42 45  0  0  0  0  0  0  0  0999 V2000
    8.4263   42.8918   62.4572 O   0  0  0  0  0  0  0  0  0  0  0  0
    6.4858   41.7356   62.1683 N   0  0  0  0  0  0  0  0  0  0  0  0
    7.2389   42.7316   62.7261 C   0  0  0  0  0  0  0  0  0  0  0  0
    5.5385   41.6563   62.4244 H   0  0  0  0  0  0  0  0  0  0  0  0
    6.0952   38.9335   62.4010 F   0  0  0  0  0  0  0  0  0  0  0  0
    7.0050   40.8415   61.2628 C   0  0  0  0  0  0  0  0  0  0  0  0
    7.3068   38.4636   60.4051 C   0  0  0  0  0  0  0  0  0  0  0  0
    8.0527   39.0025   59.2826 C   0  0  0  0  0  0  0  0  0  0  0  0
    8.2676   40.4385   59.1679 C   0  0  0  0  0  0  0  0  0  0  0  0
    7.7579   41.3761   60.1417 C   0  0  0  0  0  0  0  0  0  0  0  0
    6.8013   39.4038   61.3737 C   0  0  0  0  0  0  0  0  0  0  0  0
    9.9219   37.4131   58.5435 C   0  0  0  0  0  0  0  0  0  0  0  0
    8.6116   38.0265   58.2795 C   0  0  0  0  0  0  0  0  0  0  0  0
    7.9514   37.6774   57.0202 C   0  0  0  0  0  0  0  0  0  0  0  0
   10.5082   36.5071   57.5636 C   0  0  0  0  0  0  0  0  0  0  0  0
    8.5525   36.7612   56.0424 C   0  0  0  0  0  0  0  0  0  0  0  0
    9.8452   36.1623   56.3132 C   0  0  0  0  0  0  0  0  0  0  0  0
    6.3417   38.3219   56.5573 S   0  0  0  0  0  0  0  0  0  0  0  0
    6.0052   37.7341   55.0995 N   0  0  0  0  0  0  0  0  0  0  0  0
    6.4740   39.7323   56.4256 O   0  0  0  0  0  0  0  0  0  0  0  0
    5.3391   37.7949   57.4394 O   0  0  0  0  0  0  0  0  0  0  0  0
    6.6909   38.0785   54.4275 H   0  0  0  0  0  0  0  0  0  0  0  0
    5.0723   38.0359   54.8182 H   0  0  0  0  0  0  0  0  0  0  0  0
    7.2615   44.4408   64.5301 N   0  0  0  0  0  0  0  0  0  0  0  0
    6.3089   45.1173   65.2266 N   0  0  0  0  0  0  0  0  0  0  0  0
    5.0892   44.7278   64.8077 C   0  0  0  0  0  0  0  0  0  0  0  0
    5.2329   43.7608   63.7759 C   0  0  0  0  0  0  0  0  0  0  0  0
    6.6416   43.6024   63.6384 C   0  0  0  0  0  0  0  0  0  0  0  0
   11.4592   44.9352   65.5016 C   0  0  0  0  0  0  0  0  0  0  0  0
   10.6120   43.9785   66.1997 C   0  0  0  0  0  0  0  0  0  0  0  0
    9.1955   43.7863   65.9088 C   0  0  0  0  0  0  0  0  0  0  0  0
    8.6031   44.6048   64.8552 C   0  0  0  0  0  0  0  0  0  0  0  0
    9.4326   45.5587   64.1425 C   0  0  0  0  0  0  0  0  0  0  0  0
   10.8648   45.7385   64.4590 C   0  0  0  0  0  0  0  0  0  0  0  0
    8.8793   45.9353   61.6512 N   0  0  0  0  0  0  0  0  0  0  0  0
    8.7848   46.4092   63.0542 C   0  0  0  0  0  0  0  0  0  0  0  0
    8.4060   46.5971   61.0361 H   0  0  0  0  0  0  0  0  0  0  0  0
    8.4365   45.0200   61.5709 H   0  0  0  0  0  0  0  0  0  0  0  0
    3.1067   44.1533   65.7739 F   0  0  0  0  0  0  0  0  0  0  0  0
    3.9854   46.0155   66.4076 F   0  0  0  0  0  0  0  0  0  0  0  0
    3.1249   45.8868   64.4463 F   0  0  0  0  0  0  0  0  0  0  0  0
    3.7777   45.2128   65.3892 C   0  0  0  0  0  0  0  0  0  0  0  0
 29 34  1  0  0  0
 39 42  1  0  0  0
 24 32  1  0  0  0
 24 25  1  0  0  0
 18 14  1  0  0  0
 18 20  2  0  0  0
 30 29  2  0  0  0
 19 18  1  0  0  0
 31 30  1  0  0  0
 31 32  2  0  0  0
  1  3  2  0  0  0
 32 33  1  0  0  0
  5 11  1  0  0  0
 33 34  2  0  0  0
 33 36  1  0  0  0
  2  3  1  0  0  0
 21 18  2  0  0  0
  6  2  1  0  0  0
  6 10  1  0  0  0
  3 28  1  0  0  0
 36 35  1  0  0  0
 26 25  2  0  0  0
 26 42  1  0  0  0
 42 40  1  0  0  0
 42 41  1  0  0  0
 27 26  1  0  0  0
 28 24  1  0  0  0
 28 27  2  0  0  0
  7  8  2  0  0  0
  7 11  1  0  0  0
  8  9  1  0  0  0
 13 12  1  0  0  0
 13  8  1  0  0  0
  9 10  2  0  0  0
 14 13  2  0  0  0
 15 12  2  0  0  0
 16 14  1  0  0  0
 16 17  2  0  0  0
 17 15  1  0  0  0
 11  6  2  0  0  0
 19 22  1  0  0  0
 19 23  1  0  0  0
 35 37  1  0  0  0
 35 38  1  0  0  0
  2  4  1  0  0  0
M  END
> <minimizedAffinity>
-12.57413

$$$$
3M37_M37_A_301


 42 45  0  0  0  0  0  0  0  0999 V2000
    8.4629   42.8302   62.5977 O   0  0  0  0  0  0  0  0  0  0  0  0
    6.4429   41.8978   62.1118 N   0  0  0  0  0  0  0  0  0  0  0  0
    7.2490   42.7799   62.7768 C   0  0  0  0  0  0  0  0  0  0  0  0
    5.4764   41.9037   62.2990 H   0  0  0  0  0  0  0  0  0  0  0  0
    7.5823   42.7225   59.6460 F   0  0  0  0  0  0  0  0  0  0  0  0
    6.9346   41.0033   61.1915 C   0  0  0  0  0  0  0  0  0  0  0  0
    8.0823   40.4920   58.9774 C   0  0  0  0  0  0  0  0  0  0  0  0
    8.0309   39.0821   59.3185 C   0  0  0  0  0  0  0  0  0  0  0  0
    7.4338   38.6543   60.5762 C   0  0  0  0  0  0  0  0  0  0  0  0
    6.8788   39.5910   61.5259 C   0  0  0  0  0  0  0  0  0  0  0  0
    7.5266   41.4217   59.9285 C   0  0  0  0  0  0  0  0  0  0  0  0
    9.9227   37.5376   58.5429 C   0  0  0  0  0  0  0  0  0  0  0  0
    8.5820   38.0987   58.3183 C   0  0  0  0  0  0  0  0  0  0  0  0
    7.8834   37.6933   57.0972 C   0  0  0  0  0  0  0  0  0  0  0  0
   10.4998   36.6258   57.5630 C   0  0  0  0  0  0  0  0  0  0  0  0
    8.4757   36.7718   56.1189 C   0  0  0  0  0  0  0  0  0  0  0  0
    9.7986   36.2248   56.3508 C   0  0  0  0  0  0  0  0  0  0  0  0
    6.2345   38.2698   56.6857 S   0  0  0  0  0  0  0  0  0  0  0  0
    5.6750   37.2998   55.5325 N   0  0  0  0  0  0  0  0  0  0  0  0
    6.3706   39.5676   56.1189 O   0  0  0  0  0  0  0  0  0  0  0  0
    5.3648   38.0893   57.8136 O   0  0  0  0  0  0  0  0  0  0  0  0
    6.2593   37.3877   54.7012 H   0  0  0  0  0  0  0  0  0  0  0  0
    4.7162   37.5617   55.3034 H   0  0  0  0  0  0  0  0  0  0  0  0
    7.3076   44.6206   64.4455 N   0  0  0  0  0  0  0  0  0  0  0  0
    6.3794   45.2558   65.2104 N   0  0  0  0  0  0  0  0  0  0  0  0
    5.1660   44.7195   64.9763 C   0  0  0  0  0  0  0  0  0  0  0  0
    5.2860   43.6921   64.0013 C   0  0  0  0  0  0  0  0  0  0  0  0
    6.6770   43.6590   63.6973 C   0  0  0  0  0  0  0  0  0  0  0  0
   11.4985   45.6269   64.9283 C   0  0  0  0  0  0  0  0  0  0  0  0
   10.6564   46.2799   63.9359 C   0  0  0  0  0  0  0  0  0  0  0  0
    9.2457   45.9662   63.7365 C   0  0  0  0  0  0  0  0  0  0  0  0
    8.6538   44.9374   64.5864 C   0  0  0  0  0  0  0  0  0  0  0  0
    9.4746   44.2804   65.5866 C   0  0  0  0  0  0  0  0  0  0  0  0
   10.9033   44.6123   65.7661 C   0  0  0  0  0  0  0  0  0  0  0  0
    9.6389   42.6244   67.5577 N   0  0  0  0  0  0  0  0  0  0  0  0
    8.8331   43.2008   66.4530 C   0  0  0  0  0  0  0  0  0  0  0  0
    9.0881   41.9202   68.0488 H   0  0  0  0  0  0  0  0  0  0  0  0
    9.9024   43.3644   68.2084 H   0  0  0  0  0  0  0  0  0  0  0  0
    3.3997   44.0416   66.2470 F   0  0  0  0  0  0  0  0  0  0  0  0
    4.1279   46.0394   66.5939 F   0  0  0  0  0  0  0  0  0  0  0  0
    3.0505   45.6254   64.7851 F   0  0  0  0  0  0  0  0  0  0  0  0
    3.8897   45.1212   65.6857 C   0  0  0  0  0  0  0  0  0  0  0  0
 29 34  1  0  0  0
 39 42  1  0  0  0
 24 32  1  0  0  0
 24 25  1  0  0  0
 18 14  1  0  0  0
 18 20  2  0  0  0
 30 29  2  0  0  0
 19 18  1  0  0  0
 31 30  1  0  0  0
 31 32  2  0  0  0
  1  3  2  0  0  0
 32 33  1  0  0  0
  5 11  1  0  0  0
 33 34  2  0  0  0
 33 36  1  0  0  0
  2  3  1  0  0  0
 21 18  2  0  0  0
  6  2  1  0  0  0
  6 10  1  0  0  0
  3 28  1  0  0  0
 36 35  1  0  0  0
 26 25  2  0  0  0
 26 42  1  0  0  0
 42 40  1  0  0  0
 42 41  1  0  0  0
 27 26  1  0  0  0
 28 24  1  0  0  0
 28 27  2  0  0  0
  7  8  2  0  0  0
  7 11  1  0  0  0
  8  9  1  0  0  0
 13 12  1  0  0  0
 13  8  1  0  0  0
  9 10  2  0  0  0
 14 13  2  0  0  0
 15 12  2  0  0  0
 16 14  1  0  0  0
 16 17  2  0  0  0
 17 15  1  0  0  0
 11  6  2  0  0  0
 19 22  1  0  0  0
 19 23  1  0  0  0
 35 37  1  0  0  0
 35 38  1  0  0  0
  2  4  1  0  0  0
M  END
> <minimizedAffinity>
-12.08223

$$$$
