1OGD_RIP_A_1134


 14 14  0  0  0  0  0  0  0  0999 V2000
   51.2094    4.5167   26.3675 C   0  0  0  0  0  0  0  0  0  0  0  0
   51.3563    5.4929   27.5068 C   0  0  0  0  0  0  0  0  0  0  0  0
   50.9694    4.8132   28.8111 C   0  0  0  0  0  0  0  0  0  0  0  0
   51.7209    3.5149   29.0792 C   0  0  0  0  0  0  0  0  0  0  0  0
   51.5117    2.6045   27.8745 C   0  0  0  0  0  0  0  0  0  0  0  0
   49.8508    4.2267   26.1081 O   0  0  0  0  0  0  0  0  0  0  0  0
   52.7007    5.9231   27.5322 O   0  0  0  0  0  0  0  0  0  0  0  0
   51.1242    5.7000   29.8886 O   0  0  0  0  0  0  0  0  0  0  0  0
   53.1083    3.7467   29.2275 O   0  0  0  0  0  0  0  0  0  0  0  0
   51.8612    3.2453   26.6281 O   0  0  0  0  0  0  0  0  0  0  0  0
   49.4597    3.7915   26.8817 H   0  0  0  0  0  0  0  0  0  0  0  0
   53.2834    5.1565   27.6485 H   0  0  0  0  0  0  0  0  0  0  0  0
   52.0594    5.9424   29.9761 H   0  0  0  0  0  0  0  0  0  0  0  0
   53.4581    4.1455   28.4155 H   0  0  0  0  0  0  0  0  0  0  0  0
  1  2  1  0  0  0
  1  6  1  0  0  0
  1 10  1  0  0  0
  2  3  1  0  0  0
  2  7  1  0  0  0
  3  4  1  0  0  0
  3  8  1  0  0  0
  4  5  1  0  0  0
  4  9  1  0  0  0
  5 10  1  0  0  0
  6 11  1  0  0  0
  7 12  1  0  0  0
  8 13  1  0  0  0
  9 14  1  0  0  0
M  END
> <minimizedAffinity>
-6.36834

$$$$
1OGD_RIP_A_1134


 14 14  0  0  0  0  0  0  0  0999 V2000
   50.4822    3.2661   27.0685 C   0  0  0  0  0  0  0  0  0  0  0  0
   51.6977    4.1456   26.9211 C   0  0  0  0  0  0  0  0  0  0  0  0
   51.5590    5.3596   27.8266 C   0  0  0  0  0  0  0  0  0  0  0  0
   51.2843    5.0154   29.2855 C   0  0  0  0  0  0  0  0  0  0  0  0
   50.0459    4.1274   29.3239 C   0  0  0  0  0  0  0  0  0  0  0  0
   49.3358    3.8714   26.5060 O   0  0  0  0  0  0  0  0  0  0  0  0
   52.8290    3.3750   27.2666 O   0  0  0  0  0  0  0  0  0  0  0  0
   52.6944    6.1789   27.7221 O   0  0  0  0  0  0  0  0  0  0  0  0
   52.3635    4.3007   29.8558 O   0  0  0  0  0  0  0  0  0  0  0  0
   50.1601    2.9790   28.4552 O   0  0  0  0  0  0  0  0  0  0  0  0
   49.1317    4.6879   26.9882 H   0  0  0  0  0  0  0  0  0  0  0  0
   52.7356    3.0537   28.1770 H   0  0  0  0  0  0  0  0  0  0  0  0
   53.4733    5.6937   28.0364 H   0  0  0  0  0  0  0  0  0  0  0  0
   52.5017    3.4765   29.3634 H   0  0  0  0  0  0  0  0  0  0  0  0
  1  2  1  0  0  0
  1  6  1  0  0  0
  1 10  1  0  0  0
  2  3  1  0  0  0
  2  7  1  0  0  0
  3  4  1  0  0  0
  3  8  1  0  0  0
  4  5  1  0  0  0
  4  9  1  0  0  0
  5 10  1  0  0  0
  6 11  1  0  0  0
  7 12  1  0  0  0
  8 13  1  0  0  0
  9 14  1  0  0  0
M  END
> <minimizedAffinity>
-6.24389

$$$$
1OGD_RIP_A_1134


 14 14  0  0  0  0  0  0  0  0999 V2000
   49.7199    3.5393   28.3319 C   0  0  0  0  0  0  0  0  0  0  0  0
   50.6852    3.8760   29.4398 C   0  0  0  0  0  0  0  0  0  0  0  0
   52.0831    3.4198   29.0516 C   0  0  0  0  0  0  0  0  0  0  0  0
   52.5579    3.9558   27.7064 C   0  0  0  0  0  0  0  0  0  0  0  0
   51.5175    3.5666   26.6625 C   0  0  0  0  0  0  0  0  0  0  0  0
   49.5125    2.1449   28.2339 O   0  0  0  0  0  0  0  0  0  0  0  0
   50.6389    5.2729   29.6392 O   0  0  0  0  0  0  0  0  0  0  0  0
   53.0018    3.7478   30.0614 O   0  0  0  0  0  0  0  0  0  0  0  0
   52.6651    5.3660   27.7252 O   0  0  0  0  0  0  0  0  0  0  0  0
   50.1830    3.9813   27.0283 O   0  0  0  0  0  0  0  0  0  0  0  0
   50.3470    1.7096   27.9993 H   0  0  0  0  0  0  0  0  0  0  0  0
   50.8777    5.7252   28.8150 H   0  0  0  0  0  0  0  0  0  0  0  0
   53.0478    4.7121   30.1559 H   0  0  0  0  0  0  0  0  0  0  0  0
   51.7986    5.7535   27.9251 H   0  0  0  0  0  0  0  0  0  0  0  0
  1  2  1  0  0  0
  1  6  1  0  0  0
  1 10  1  0  0  0
  2  3  1  0  0  0
  2  7  1  0  0  0
  3  4  1  0  0  0
  3  8  1  0  0  0
  4  5  1  0  0  0
  4  9  1  0  0  0
  5 10  1  0  0  0
  6 11  1  0  0  0
  7 12  1  0  0  0
  8 13  1  0  0  0
  9 14  1  0  0  0
M  END
> <minimizedAffinity>
-6.08009

$$$$
1OGD_RIP_A_1134


 14 14  0  0  0  0  0  0  0  0999 V2000
   51.4244    4.4728   29.6214 C   0  0  0  0  0  0  0  0  0  0  0  0
   50.1503    4.1679   28.8756 C   0  0  0  0  0  0  0  0  0  0  0  0
   50.4325    4.1306   27.3817 C   0  0  0  0  0  0  0  0  0  0  0  0
   51.5583    3.1820   26.9880 C   0  0  0  0  0  0  0  0  0  0  0  0
   52.7918    3.5711   27.7948 C   0  0  0  0  0  0  0  0  0  0  0  0
   51.8401    5.8067   29.4094 O   0  0  0  0  0  0  0  0  0  0  0  0
   49.6703    2.9232   29.3378 O   0  0  0  0  0  0  0  0  0  0  0  0
   49.2615    3.8226   26.6710 O   0  0  0  0  0  0  0  0  0  0  0  0
   51.2296    1.8409   27.2945 O   0  0  0  0  0  0  0  0  0  0  0  0
   52.5312    3.6250   29.2146 O   0  0  0  0  0  0  0  0  0  0  0  0
   52.0456    5.9359   28.4703 H   0  0  0  0  0  0  0  0  0  0  0  0
   50.3410    2.2400   29.1821 H   0  0  0  0  0  0  0  0  0  0  0  0
   48.9614    2.9324   26.9125 H   0  0  0  0  0  0  0  0  0  0  0  0
   51.0720    1.7564   28.2479 H   0  0  0  0  0  0  0  0  0  0  0  0
  1  2  1  0  0  0
  1  6  1  0  0  0
  1 10  1  0  0  0
  2  3  1  0  0  0
  2  7  1  0  0  0
  3  4  1  0  0  0
  3  8  1  0  0  0
  4  5  1  0  0  0
  4  9  1  0  0  0
  5 10  1  0  0  0
  6 11  1  0  0  0
  7 12  1  0  0  0
  8 13  1  0  0  0
  9 14  1  0  0  0
M  END
> <minimizedAffinity>
-6.07787

$$$$
1OGD_RIP_A_1134


 14 14  0  0  0  0  0  0  0  0999 V2000
   51.7882    2.1470   28.3605 C   0  0  0  0  0  0  0  0  0  0  0  0
   52.0989    3.3240   27.4713 C   0  0  0  0  0  0  0  0  0  0  0  0
   51.0146    4.3789   27.6276 C   0  0  0  0  0  0  0  0  0  0  0  0
   50.7724    4.8087   29.0695 C   0  0  0  0  0  0  0  0  0  0  0  0
   50.4716    3.5531   29.8799 C   0  0  0  0  0  0  0  0  0  0  0  0
   50.6661    1.4275   27.8914 O   0  0  0  0  0  0  0  0  0  0  0  0
   53.3620    3.8271   27.8514 O   0  0  0  0  0  0  0  0  0  0  0  0
   51.3000    5.4951   26.8252 O   0  0  0  0  0  0  0  0  0  0  0  0
   51.9182    5.4302   29.6186 O   0  0  0  0  0  0  0  0  0  0  0  0
   51.4874    2.5377   29.7267 O   0  0  0  0  0  0  0  0  0  0  0  0
   49.8812    1.9967   27.9217 H   0  0  0  0  0  0  0  0  0  0  0  0
   53.3383    4.0884   28.7853 H   0  0  0  0  0  0  0  0  0  0  0  0
   52.1248    5.9074   27.1263 H   0  0  0  0  0  0  0  0  0  0  0  0
   52.6628    4.8088   29.6011 H   0  0  0  0  0  0  0  0  0  0  0  0
  1  2  1  0  0  0
  1  6  1  0  0  0
  1 10  1  0  0  0
  2  3  1  0  0  0
  2  7  1  0  0  0
  3  4  1  0  0  0
  3  8  1  0  0  0
  4  5  1  0  0  0
  4  9  1  0  0  0
  5 10  1  0  0  0
  6 11  1  0  0  0
  7 12  1  0  0  0
  8 13  1  0  0  0
  9 14  1  0  0  0
M  END
> <minimizedAffinity>
-5.91847

$$$$
1OGD_RIP_A_1134


 14 14  0  0  0  0  0  0  0  0999 V2000
   51.5398    3.1039   29.3239 C   0  0  0  0  0  0  0  0  0  0  0  0
   50.5027    2.7299   28.2958 C   0  0  0  0  0  0  0  0  0  0  0  0
   49.9513    3.9907   27.6485 C   0  0  0  0  0  0  0  0  0  0  0  0
   51.0213    4.9055   27.0647 C   0  0  0  0  0  0  0  0  0  0  0  0
   52.0153    5.2198   28.1769 C   0  0  0  0  0  0  0  0  0  0  0  0
   50.9517    3.7281   30.4471 O   0  0  0  0  0  0  0  0  0  0  0  0
   51.1253    1.8947   27.3429 O   0  0  0  0  0  0  0  0  0  0  0  0
   49.0010    3.6613   26.6689 O   0  0  0  0  0  0  0  0  0  0  0  0
   51.7181    4.2714   26.0097 O   0  0  0  0  0  0  0  0  0  0  0  0
   52.5339    4.0294   28.8097 O   0  0  0  0  0  0  0  0  0  0  0  0
   50.5373    4.5614   30.1737 H   0  0  0  0  0  0  0  0  0  0  0  0
   51.8692    2.3662   26.9366 H   0  0  0  0  0  0  0  0  0  0  0  0
   49.4294    3.1573   25.9594 H   0  0  0  0  0  0  0  0  0  0  0  0
   52.1458    3.4668   26.3423 H   0  0  0  0  0  0  0  0  0  0  0  0
  1  2  1  0  0  0
  1  6  1  0  0  0
  1 10  1  0  0  0
  2  3  1  0  0  0
  2  7  1  0  0  0
  3  4  1  0  0  0
  3  8  1  0  0  0
  4  5  1  0  0  0
  4  9  1  0  0  0
  5 10  1  0  0  0
  6 11  1  0  0  0
  7 12  1  0  0  0
  8 13  1  0  0  0
  9 14  1  0  0  0
M  END
> <minimizedAffinity>
-5.82498

$$$$
1OGD_RIP_A_1134


 14 14  0  0  0  0  0  0  0  0999 V2000
   50.7539    4.8549   29.1373 C   0  0  0  0  0  0  0  0  0  0  0  0
   50.9406    4.4409   27.6999 C   0  0  0  0  0  0  0  0  0  0  0  0
   52.0460    3.4002   27.6106 C   0  0  0  0  0  0  0  0  0  0  0  0
   51.8386    2.1971   28.5226 C   0  0  0  0  0  0  0  0  0  0  0  0
   51.6585    2.7213   29.9426 C   0  0  0  0  0  0  0  0  0  0  0  0
   51.8523    5.6123   29.6032 O   0  0  0  0  0  0  0  0  0  0  0  0
   49.7106    3.9229   27.2396 O   0  0  0  0  0  0  0  0  0  0  0  0
   52.2176    2.9830   26.2810 O   0  0  0  0  0  0  0  0  0  0  0  0
   50.6768    1.4751   28.1629 O   0  0  0  0  0  0  0  0  0  0  0  0
   50.6213    3.7223   30.0367 O   0  0  0  0  0  0  0  0  0  0  0  0
   52.6527    5.0646   29.5873 H   0  0  0  0  0  0  0  0  0  0  0  0
   49.4503    3.1691   27.7918 H   0  0  0  0  0  0  0  0  0  0  0  0
   51.4084    2.5462   25.9721 H   0  0  0  0  0  0  0  0  0  0  0  0
   49.9017    2.0542   28.2324 H   0  0  0  0  0  0  0  0  0  0  0  0
  1  2  1  0  0  0
  1  6  1  0  0  0
  1 10  1  0  0  0
  2  3  1  0  0  0
  2  7  1  0  0  0
  3  4  1  0  0  0
  3  8  1  0  0  0
  4  5  1  0  0  0
  4  9  1  0  0  0
  5 10  1  0  0  0
  6 11  1  0  0  0
  7 12  1  0  0  0
  8 13  1  0  0  0
  9 14  1  0  0  0
M  END
> <minimizedAffinity>
-5.77668

$$$$
1OGD_RIP_A_1134


 14 14  0  0  0  0  0  0  0  0999 V2000
   50.9028    2.2665   28.7653 C   0  0  0  0  0  0  0  0  0  0  0  0
   50.6030    3.6192   29.3595 C   0  0  0  0  0  0  0  0  0  0  0  0
   51.7261    4.5852   29.0157 C   0  0  0  0  0  0  0  0  0  0  0  0
   52.0286    4.6775   27.5250 C   0  0  0  0  0  0  0  0  0  0  0  0
   52.3135    3.2660   27.0246 C   0  0  0  0  0  0  0  0  0  0  0  0
   51.9848    1.6412   29.4251 O   0  0  0  0  0  0  0  0  0  0  0  0
   49.3701    4.0569   28.8289 O   0  0  0  0  0  0  0  0  0  0  0  0
   51.4524    5.8587   29.5396 O   0  0  0  0  0  0  0  0  0  0  0  0
   50.9223    5.1902   26.8081 O   0  0  0  0  0  0  0  0  0  0  0  0
   51.2601    2.3361   27.3593 O   0  0  0  0  0  0  0  0  0  0  0  0
   52.7887    2.1694   29.2999 H   0  0  0  0  0  0  0  0  0  0  0  0
   49.4324    4.1034   27.8621 H   0  0  0  0  0  0  0  0  0  0  0  0
   50.6518    6.2144   29.1231 H   0  0  0  0  0  0  0  0  0  0  0  0
   50.1573    4.6072   26.9338 H   0  0  0  0  0  0  0  0  0  0  0  0
  1  2  1  0  0  0
  1  6  1  0  0  0
  1 10  1  0  0  0
  2  3  1  0  0  0
  2  7  1  0  0  0
  3  4  1  0  0  0
  3  8  1  0  0  0
  4  5  1  0  0  0
  4  9  1  0  0  0
  5 10  1  0  0  0
  6 11  1  0  0  0
  7 12  1  0  0  0
  8 13  1  0  0  0
  9 14  1  0  0  0
M  END
> <minimizedAffinity>
-5.63389

$$$$
1OGD_RIP_A_1134


 14 14  0  0  0  0  0  0  0  0999 V2000
   49.5810    3.6237   28.5333 C   0  0  0  0  0  0  0  0  0  0  0  0
   50.3917    2.7937   29.4958 C   0  0  0  0  0  0  0  0  0  0  0  0
   51.4722    2.0425   28.7335 C   0  0  0  0  0  0  0  0  0  0  0  0
   52.3577    2.9360   27.8734 C   0  0  0  0  0  0  0  0  0  0  0  0
   51.4467    3.7294   26.9437 C   0  0  0  0  0  0  0  0  0  0  0  0
   48.7821    2.8114   27.6972 O   0  0  0  0  0  0  0  0  0  0  0  0
   50.9526    3.6697   30.4503 O   0  0  0  0  0  0  0  0  0  0  0  0
   52.2547    1.2826   29.6174 O   0  0  0  0  0  0  0  0  0  0  0  0
   53.0895    3.8497   28.6674 O   0  0  0  0  0  0  0  0  0  0  0  0
   50.4065    4.4347   27.6558 O   0  0  0  0  0  0  0  0  0  0  0  0
   49.3536    2.2521   27.1481 H   0  0  0  0  0  0  0  0  0  0  0  0
   51.5060    4.3269   30.0001 H   0  0  0  0  0  0  0  0  0  0  0  0
   52.7175    1.8749   30.2306 H   0  0  0  0  0  0  0  0  0  0  0  0
   52.4742    4.4101   29.1656 H   0  0  0  0  0  0  0  0  0  0  0  0
  1  2  1  0  0  0
  1  6  1  0  0  0
  1 10  1  0  0  0
  2  3  1  0  0  0
  2  7  1  0  0  0
  3  4  1  0  0  0
  3  8  1  0  0  0
  4  5  1  0  0  0
  4  9  1  0  0  0
  5 10  1  0  0  0
  6 11  1  0  0  0
  7 12  1  0  0  0
  8 13  1  0  0  0
  9 14  1  0  0  0
M  END
> <minimizedAffinity>
-5.53070

$$$$
1OGD_RIP_A_1134


 14 14  0  0  0  0  0  0  0  0999 V2000
   51.7641    4.0544   27.3351 C   0  0  0  0  0  0  0  0  0  0  0  0
   52.0396    2.6465   27.7982 C   0  0  0  0  0  0  0  0  0  0  0  0
   52.0765    2.6098   29.3181 C   0  0  0  0  0  0  0  0  0  0  0  0
   50.8332    3.1896   29.9817 C   0  0  0  0  0  0  0  0  0  0  0  0
   50.6433    4.6045   29.4470 C   0  0  0  0  0  0  0  0  0  0  0  0
   52.8662    4.9039   27.5817 O   0  0  0  0  0  0  0  0  0  0  0  0
   51.0142    1.8197   27.2903 O   0  0  0  0  0  0  0  0  0  0  0  0
   52.3070    1.3004   29.7695 O   0  0  0  0  0  0  0  0  0  0  0  0
   49.6814    2.4335   29.6619 O   0  0  0  0  0  0  0  0  0  0  0  0
   50.6224    4.6535   28.0036 O   0  0  0  0  0  0  0  0  0  0  0  0
   53.0199    4.9649   28.5375 H   0  0  0  0  0  0  0  0  0  0  0  0
   50.1553    2.1344   27.6131 H   0  0  0  0  0  0  0  0  0  0  0  0
   51.5682    0.7315   29.5024 H   0  0  0  0  0  0  0  0  0  0  0  0
   49.5497    2.4358   28.7009 H   0  0  0  0  0  0  0  0  0  0  0  0
  1  2  1  0  0  0
  1  6  1  0  0  0
  1 10  1  0  0  0
  2  3  1  0  0  0
  2  7  1  0  0  0
  3  4  1  0  0  0
  3  8  1  0  0  0
  4  5  1  0  0  0
  4  9  1  0  0  0
  5 10  1  0  0  0
  6 11  1  0  0  0
  7 12  1  0  0  0
  8 13  1  0  0  0
  9 14  1  0  0  0
M  END
> <minimizedAffinity>
-5.51369

$$$$
