4EA2_RWZ_A_301


 26 28  0  0  0  0  0  0  0  0999 V2000
  -19.8331  -15.3979   -8.4516 C   0  0  0  0  0  0  0  0  0  0  0  0
  -20.5234  -14.7839   -9.5698 N   0  0  0  0  0  0  0  0  0  0  0  0
  -19.8337  -14.4512  -10.2437 H   0  0  0  0  0  0  0  0  0  0  0  0
  -21.3411  -13.6619   -9.1358 C   0  0  0  0  0  0  0  0  0  0  0  0
  -25.0681  -13.9829   -9.5776 C   0  0  0  0  0  0  0  0  0  0  0  0
  -22.6114  -13.8438   -9.5985 C   0  0  0  0  0  0  0  0  0  0  0  0
  -23.7742  -13.7294   -8.8816 C   0  0  0  0  0  0  0  0  0  0  0  0
  -23.8317  -13.3770   -7.4236 C   0  0  0  0  0  0  0  0  0  0  0  0
  -25.2672  -13.4505   -6.9440 C   0  0  0  0  0  0  0  0  0  0  0  0
  -25.7306  -12.8464   -3.2129 C   0  0  0  0  0  0  0  0  0  0  0  0
  -25.8204  -11.2511   -5.2749 C   0  0  0  0  0  0  0  0  0  0  0  0
  -25.3736  -13.6289   -5.5879 C   0  0  0  0  0  0  0  0  0  0  0  0
  -25.6211  -12.6191   -4.7065 C   0  0  0  0  0  0  0  0  0  0  0  0
  -20.0454  -16.8737   -8.5103 C   0  0  0  0  0  0  0  0  0  0  0  0
  -21.4581  -17.0896   -8.7293 N   0  0  0  0  0  0  0  0  0  0  0  0
  -21.6325  -17.3340   -9.7041 H   0  0  0  0  0  0  0  0  0  0  0  0
  -24.6156  -18.0293   -5.7761 C   0  0  0  0  0  0  0  0  0  0  0  0
  -22.7225  -16.5343   -6.2405 C   0  0  0  0  0  0  0  0  0  0  0  0
  -22.2772  -18.7909   -5.5202 C   0  0  0  0  0  0  0  0  0  0  0  0
  -24.1508  -17.4030   -8.1128 C   0  0  0  0  0  0  0  0  0  0  0  0
  -23.7556  -19.6773   -7.3404 C   0  0  0  0  0  0  0  0  0  0  0  0
  -24.1292  -16.9277   -6.6660 C   0  0  0  0  0  0  0  0  0  0  0  0
  -23.6821  -19.2004   -5.9133 C   0  0  0  0  0  0  0  0  0  0  0  0
  -21.7830  -17.7015   -6.4310 C   0  0  0  0  0  0  0  0  0  0  0  0
  -23.2372  -18.5929   -8.2566 C   0  0  0  0  0  0  0  0  0  0  0  0
  -21.8314  -18.1823   -7.8637 C   0  0  0  0  0  0  0  0  0  0  0  0
 10 13  1  0  0  0
 13 11  1  0  0  0
  5  7  1  0  0  0
 12  9  1  0  0  0
 12 13  2  0  0  0
  6  4  1  0  0  0
  6  7  2  0  0  0
  8  9  1  0  0  0
  4  2  1  0  0  0
  1  2  1  0  0  0
  1 14  1  0  0  0
 15 14  1  0  0  0
  7  8  1  0  0  0
 23 17  1  0  0  0
 22 17  1  0  0  0
 24 18  1  0  0  0
 18 22  1  0  0  0
 24 19  1  0  0  0
 19 23  1  0  0  0
 25 20  1  0  0  0
 22 20  1  0  0  0
 25 21  1  0  0  0
 23 21  1  0  0  0
 15 26  1  0  0  0
 24 26  1  0  0  0
 26 25  1  0  0  0
  2  3  1  0  0  0
 15 16  1  0  0  0
M  END
> <minimizedAffinity>
-8.67375

$$$$
4EA2_RWZ_A_301


 26 28  0  0  0  0  0  0  0  0999 V2000
  -19.5492  -16.1423   -8.1738 C   0  0  0  0  0  0  0  0  0  0  0  0
  -20.0445  -15.2103   -9.1687 N   0  0  0  0  0  0  0  0  0  0  0  0
  -19.2928  -14.9925   -9.8229 H   0  0  0  0  0  0  0  0  0  0  0  0
  -20.5094  -13.9768   -8.5537 C   0  0  0  0  0  0  0  0  0  0  0  0
  -24.1442  -13.3817   -9.3426 C   0  0  0  0  0  0  0  0  0  0  0  0
  -21.7080  -13.6375   -9.1097 C   0  0  0  0  0  0  0  0  0  0  0  0
  -22.9511  -13.8132   -8.5594 C   0  0  0  0  0  0  0  0  0  0  0  0
  -23.1951  -14.4311   -7.2134 C   0  0  0  0  0  0  0  0  0  0  0  0
  -24.6818  -14.4295   -6.9205 C   0  0  0  0  0  0  0  0  0  0  0  0
  -25.6540  -12.8078   -3.6150 C   0  0  0  0  0  0  0  0  0  0  0  0
  -25.4792  -11.8748   -6.0448 C   0  0  0  0  0  0  0  0  0  0  0  0
  -24.9696  -14.2179   -5.5959 C   0  0  0  0  0  0  0  0  0  0  0  0
  -25.3449  -13.0118   -5.0838 C   0  0  0  0  0  0  0  0  0  0  0  0
  -19.5616  -17.5158   -8.7567 C   0  0  0  0  0  0  0  0  0  0  0  0
  -20.1858  -18.3832   -7.7828 N   0  0  0  0  0  0  0  0  0  0  0  0
  -19.6341  -18.4084   -6.9252 H   0  0  0  0  0  0  0  0  0  0  0  0
  -24.3239  -19.7991   -7.1160 C   0  0  0  0  0  0  0  0  0  0  0  0
  -22.5055  -19.7080   -8.7651 C   0  0  0  0  0  0  0  0  0  0  0  0
  -23.8054  -17.7209   -8.3512 C   0  0  0  0  0  0  0  0  0  0  0  0
  -21.9966  -19.8977   -6.3146 C   0  0  0  0  0  0  0  0  0  0  0  0
  -23.3675  -17.9311   -5.8918 C   0  0  0  0  0  0  0  0  0  0  0  0
  -22.9484  -20.2976   -7.4344 C   0  0  0  0  0  0  0  0  0  0  0  0
  -24.2799  -18.2981   -7.0330 C   0  0  0  0  0  0  0  0  0  0  0  0
  -22.4147  -18.2042   -8.6558 C   0  0  0  0  0  0  0  0  0  0  0  0
  -21.9637  -18.3950   -6.2058 C   0  0  0  0  0  0  0  0  0  0  0  0
  -21.4882  -17.8180   -7.5250 C   0  0  0  0  0  0  0  0  0  0  0  0
 10 13  1  0  0  0
 13 11  1  0  0  0
  5  7  1  0  0  0
 12  9  1  0  0  0
 12 13  2  0  0  0
  6  4  1  0  0  0
  6  7  2  0  0  0
  8  9  1  0  0  0
  4  2  1  0  0  0
  1  2  1  0  0  0
  1 14  1  0  0  0
 15 14  1  0  0  0
  7  8  1  0  0  0
 23 17  1  0  0  0
 22 17  1  0  0  0
 24 18  1  0  0  0
 18 22  1  0  0  0
 24 19  1  0  0  0
 19 23  1  0  0  0
 25 20  1  0  0  0
 22 20  1  0  0  0
 25 21  1  0  0  0
 23 21  1  0  0  0
 15 26  1  0  0  0
 24 26  1  0  0  0
 26 25  1  0  0  0
  2  3  1  0  0  0
 15 16  1  0  0  0
M  END
> <minimizedAffinity>
-8.64196

$$$$
4EA2_RWZ_A_301


 26 28  0  0  0  0  0  0  0  0999 V2000
  -22.7088  -14.5949   -8.7147 C   0  0  0  0  0  0  0  0  0  0  0  0
  -23.3753  -13.7467   -9.6844 N   0  0  0  0  0  0  0  0  0  0  0  0
  -22.8202  -12.9025   -9.8243 H   0  0  0  0  0  0  0  0  0  0  0  0
  -24.7053  -13.3694   -9.2321 C   0  0  0  0  0  0  0  0  0  0  0  0
  -25.3560  -12.1512   -5.7277 C   0  0  0  0  0  0  0  0  0  0  0  0
  -24.6282  -12.9832   -7.9260 C   0  0  0  0  0  0  0  0  0  0  0  0
  -25.6561  -12.5381   -7.1359 C   0  0  0  0  0  0  0  0  0  0  0  0
  -27.0758  -12.3983   -7.6031 C   0  0  0  0  0  0  0  0  0  0  0  0
  -27.3331  -10.9613   -8.0094 C   0  0  0  0  0  0  0  0  0  0  0  0
  -30.9173   -9.8221   -7.4122 C   0  0  0  0  0  0  0  0  0  0  0  0
  -28.7856   -9.7744   -5.9093 C   0  0  0  0  0  0  0  0  0  0  0  0
  -28.6655  -10.6779   -8.1722 C   0  0  0  0  0  0  0  0  0  0  0  0
  -29.4471  -10.1213   -7.2041 C   0  0  0  0  0  0  0  0  0  0  0  0
  -22.6766  -15.9904   -9.2418 C   0  0  0  0  0  0  0  0  0  0  0  0
  -23.7092  -16.7283   -8.5492 N   0  0  0  0  0  0  0  0  0  0  0  0
  -24.5485  -16.7898   -9.1256 H   0  0  0  0  0  0  0  0  0  0  0  0
  -23.1112  -19.4870   -5.1425 C   0  0  0  0  0  0  0  0  0  0  0  0
  -22.4641  -17.2998   -6.0544 C   0  0  0  0  0  0  0  0  0  0  0  0
  -21.4953  -19.2922   -7.0037 C   0  0  0  0  0  0  0  0  0  0  0  0
  -24.7662  -18.2172   -6.4528 C   0  0  0  0  0  0  0  0  0  0  0  0
  -23.7835  -20.2570   -7.3466 C   0  0  0  0  0  0  0  0  0  0  0  0
  -23.6087  -18.1129   -5.4684 C   0  0  0  0  0  0  0  0  0  0  0  0
  -22.6117  -20.1262   -6.4089 C   0  0  0  0  0  0  0  0  0  0  0  0
  -22.0043  -17.9210   -7.3521 C   0  0  0  0  0  0  0  0  0  0  0  0
  -24.2826  -18.8794   -7.7173 C   0  0  0  0  0  0  0  0  0  0  0  0
  -23.1658  -18.0440   -8.3124 C   0  0  0  0  0  0  0  0  0  0  0  0
 10 13  1  0  0  0
 13 11  1  0  0  0
  5  7  1  0  0  0
 12  9  1  0  0  0
 12 13  2  0  0  0
  6  4  1  0  0  0
  6  7  2  0  0  0
  8  9  1  0  0  0
  4  2  1  0  0  0
  1  2  1  0  0  0
  1 14  1  0  0  0
 15 14  1  0  0  0
  7  8  1  0  0  0
 23 17  1  0  0  0
 22 17  1  0  0  0
 24 18  1  0  0  0
 18 22  1  0  0  0
 24 19  1  0  0  0
 19 23  1  0  0  0
 25 20  1  0  0  0
 22 20  1  0  0  0
 25 21  1  0  0  0
 23 21  1  0  0  0
 15 26  1  0  0  0
 24 26  1  0  0  0
 26 25  1  0  0  0
  2  3  1  0  0  0
 15 16  1  0  0  0
M  END
> <minimizedAffinity>
-8.15966

$$$$
4EA2_RWZ_A_301


 26 28  0  0  0  0  0  0  0  0999 V2000
  -21.8691  -14.4022   -8.7252 C   0  0  0  0  0  0  0  0  0  0  0  0
  -23.3004  -14.5625   -8.8965 N   0  0  0  0  0  0  0  0  0  0  0  0
  -23.4809  -14.9805   -9.8093 H   0  0  0  0  0  0  0  0  0  0  0  0
  -23.9898  -13.2841   -8.8164 C   0  0  0  0  0  0  0  0  0  0  0  0
  -25.7401  -12.5108   -5.5720 C   0  0  0  0  0  0  0  0  0  0  0  0
  -24.3339  -13.0553   -7.5164 C   0  0  0  0  0  0  0  0  0  0  0  0
  -25.5772  -12.7337   -7.0371 C   0  0  0  0  0  0  0  0  0  0  0  0
  -26.7954  -12.5744   -7.8996 C   0  0  0  0  0  0  0  0  0  0  0  0
  -27.0983  -11.1002   -8.0759 C   0  0  0  0  0  0  0  0  0  0  0  0
  -30.6707   -9.9735   -7.3908 C   0  0  0  0  0  0  0  0  0  0  0  0
  -28.4855   -9.8442   -5.9719 C   0  0  0  0  0  0  0  0  0  0  0  0
  -28.4390  -10.8368   -8.1999 C   0  0  0  0  0  0  0  0  0  0  0  0
  -29.1904  -10.2495   -7.2262 C   0  0  0  0  0  0  0  0  0  0  0  0
  -21.4288  -15.2379   -7.5702 C   0  0  0  0  0  0  0  0  0  0  0  0
  -21.4630  -16.6157   -8.0074 N   0  0  0  0  0  0  0  0  0  0  0  0
  -20.5534  -16.8932   -8.3762 H   0  0  0  0  0  0  0  0  0  0  0  0
  -23.7282  -20.2835   -7.0126 C   0  0  0  0  0  0  0  0  0  0  0  0
  -23.9462  -18.0022   -7.8971 C   0  0  0  0  0  0  0  0  0  0  0  0
  -23.6592  -18.3105   -5.5240 C   0  0  0  0  0  0  0  0  0  0  0  0
  -21.8717  -19.3461   -8.3329 C   0  0  0  0  0  0  0  0  0  0  0  0
  -21.6242  -19.7142   -5.9394 C   0  0  0  0  0  0  0  0  0  0  0  0
  -23.3847  -19.3906   -8.1645 C   0  0  0  0  0  0  0  0  0  0  0  0
  -23.1204  -19.7062   -5.7640 C   0  0  0  0  0  0  0  0  0  0  0  0
  -23.2917  -17.4107   -6.6710 C   0  0  0  0  0  0  0  0  0  0  0  0
  -21.2498  -18.7921   -7.0769 C   0  0  0  0  0  0  0  0  0  0  0  0
  -21.7890  -17.3952   -6.8376 C   0  0  0  0  0  0  0  0  0  0  0  0
 10 13  1  0  0  0
 13 11  1  0  0  0
  5  7  1  0  0  0
 12  9  1  0  0  0
 12 13  2  0  0  0
  6  4  1  0  0  0
  6  7  2  0  0  0
  8  9  1  0  0  0
  4  2  1  0  0  0
  1  2  1  0  0  0
  1 14  1  0  0  0
 15 14  1  0  0  0
  7  8  1  0  0  0
 23 17  1  0  0  0
 22 17  1  0  0  0
 24 18  1  0  0  0
 18 22  1  0  0  0
 24 19  1  0  0  0
 19 23  1  0  0  0
 25 20  1  0  0  0
 22 20  1  0  0  0
 25 21  1  0  0  0
 23 21  1  0  0  0
 15 26  1  0  0  0
 24 26  1  0  0  0
 26 25  1  0  0  0
  2  3  1  0  0  0
 15 16  1  0  0  0
M  END
> <minimizedAffinity>
-7.89280

$$$$
4EA2_RWZ_A_301


 26 28  0  0  0  0  0  0  0  0999 V2000
  -18.5342  -18.1941   -8.1920 C   0  0  0  0  0  0  0  0  0  0  0  0
  -18.6035  -16.7458   -8.1569 N   0  0  0  0  0  0  0  0  0  0  0  0
  -18.7132  -16.4419   -7.1894 H   0  0  0  0  0  0  0  0  0  0  0  0
  -19.7253  -16.2502   -8.9391 C   0  0  0  0  0  0  0  0  0  0  0  0
  -20.9014  -12.6827   -8.6597 C   0  0  0  0  0  0  0  0  0  0  0  0
  -19.8649  -14.9140   -8.7027 C   0  0  0  0  0  0  0  0  0  0  0  0
  -20.9561  -14.1356   -8.9898 C   0  0  0  0  0  0  0  0  0  0  0  0
  -22.2099  -14.6506   -9.6349 C   0  0  0  0  0  0  0  0  0  0  0  0
  -23.4124  -13.9707   -9.0122 C   0  0  0  0  0  0  0  0  0  0  0  0
  -25.0132  -14.6456   -5.6235 C   0  0  0  0  0  0  0  0  0  0  0  0
  -24.9314  -12.5216   -7.1356 C   0  0  0  0  0  0  0  0  0  0  0  0
  -23.8373  -14.5788   -7.8581 C   0  0  0  0  0  0  0  0  0  0  0  0
  -24.5601  -13.9484   -6.8896 C   0  0  0  0  0  0  0  0  0  0  0  0
  -19.8163  -18.7212   -8.7441 C   0  0  0  0  0  0  0  0  0  0  0  0
  -20.4899  -19.4099   -7.6660 N   0  0  0  0  0  0  0  0  0  0  0  0
  -20.3236  -18.9313   -6.7808 H   0  0  0  0  0  0  0  0  0  0  0  0
  -24.3164  -18.3589   -5.7098 C   0  0  0  0  0  0  0  0  0  0  0  0
  -22.4133  -19.9099   -5.6284 C   0  0  0  0  0  0  0  0  0  0  0  0
  -24.1055  -20.2275   -7.3151 C   0  0  0  0  0  0  0  0  0  0  0  0
  -22.0934  -17.5371   -6.3816 C   0  0  0  0  0  0  0  0  0  0  0  0
  -23.8518  -17.8404   -8.0374 C   0  0  0  0  0  0  0  0  0  0  0  0
  -22.8478  -18.4644   -5.4378 C   0  0  0  0  0  0  0  0  0  0  0  0
  -24.5722  -18.7985   -7.1251 C   0  0  0  0  0  0  0  0  0  0  0  0
  -22.6261  -20.3252   -7.0650 C   0  0  0  0  0  0  0  0  0  0  0  0
  -22.3627  -17.9533   -7.8048 C   0  0  0  0  0  0  0  0  0  0  0  0
  -21.8948  -19.3831   -7.9945 C   0  0  0  0  0  0  0  0  0  0  0  0
 10 13  1  0  0  0
 13 11  1  0  0  0
  5  7  1  0  0  0
 12  9  1  0  0  0
 12 13  2  0  0  0
  6  4  1  0  0  0
  6  7  2  0  0  0
  8  9  1  0  0  0
  4  2  1  0  0  0
  1  2  1  0  0  0
  1 14  1  0  0  0
 15 14  1  0  0  0
  7  8  1  0  0  0
 23 17  1  0  0  0
 22 17  1  0  0  0
 24 18  1  0  0  0
 18 22  1  0  0  0
 24 19  1  0  0  0
 19 23  1  0  0  0
 25 20  1  0  0  0
 22 20  1  0  0  0
 25 21  1  0  0  0
 23 21  1  0  0  0
 15 26  1  0  0  0
 24 26  1  0  0  0
 26 25  1  0  0  0
  2  3  1  0  0  0
 15 16  1  0  0  0
M  END
> <minimizedAffinity>
-7.79062

$$$$
4EA2_RWZ_A_301


 26 28  0  0  0  0  0  0  0  0999 V2000
  -19.9572  -18.6427   -8.1095 C   0  0  0  0  0  0  0  0  0  0  0  0
  -19.6132  -19.6991   -9.0419 N   0  0  0  0  0  0  0  0  0  0  0  0
  -18.6128  -19.6576   -9.2365 H   0  0  0  0  0  0  0  0  0  0  0  0
  -20.3448  -19.5613  -10.2916 C   0  0  0  0  0  0  0  0  0  0  0  0
  -22.9961  -22.2369  -10.2923 C   0  0  0  0  0  0  0  0  0  0  0  0
  -21.0978  -20.6828  -10.4817 C   0  0  0  0  0  0  0  0  0  0  0  0
  -22.3454  -20.9342   -9.9724 C   0  0  0  0  0  0  0  0  0  0  0  0
  -23.1018  -19.9819   -9.0925 C   0  0  0  0  0  0  0  0  0  0  0  0
  -23.1200  -20.5137   -7.6736 C   0  0  0  0  0  0  0  0  0  0  0  0
  -24.5489  -18.4981   -4.7759 C   0  0  0  0  0  0  0  0  0  0  0  0
  -22.1490  -19.3857   -5.2833 C   0  0  0  0  0  0  0  0  0  0  0  0
  -23.9688  -19.8194   -6.8491 C   0  0  0  0  0  0  0  0  0  0  0  0
  -23.5879  -19.2572   -5.6673 C   0  0  0  0  0  0  0  0  0  0  0  0
  -19.3321  -17.3707   -8.5758 C   0  0  0  0  0  0  0  0  0  0  0  0
  -20.3916  -16.5553   -9.1262 N   0  0  0  0  0  0  0  0  0  0  0  0
  -20.6569  -16.8954  -10.0505 H   0  0  0  0  0  0  0  0  0  0  0  0
  -23.7253  -14.0560   -7.6385 C   0  0  0  0  0  0  0  0  0  0  0  0
  -21.2780  -14.2599   -7.6958 C   0  0  0  0  0  0  0  0  0  0  0  0
  -22.5324  -15.6818   -6.2078 C   0  0  0  0  0  0  0  0  0  0  0  0
  -22.6687  -15.0431   -9.6329 C   0  0  0  0  0  0  0  0  0  0  0  0
  -23.9785  -16.4247   -8.1159 C   0  0  0  0  0  0  0  0  0  0  0  0
  -22.5238  -14.0025   -8.5303 C   0  0  0  0  0  0  0  0  0  0  0  0
  -23.7916  -15.4202   -7.0089 C   0  0  0  0  0  0  0  0  0  0  0  0
  -21.3303  -15.6513   -7.1104 C   0  0  0  0  0  0  0  0  0  0  0  0
  -22.7612  -16.4130   -9.0116 C   0  0  0  0  0  0  0  0  0  0  0  0
  -21.5005  -16.6745   -8.2105 C   0  0  0  0  0  0  0  0  0  0  0  0
 10 13  1  0  0  0
 13 11  1  0  0  0
  5  7  1  0  0  0
 12  9  1  0  0  0
 12 13  2  0  0  0
  6  4  1  0  0  0
  6  7  2  0  0  0
  8  9  1  0  0  0
  4  2  1  0  0  0
  1  2  1  0  0  0
  1 14  1  0  0  0
 15 14  1  0  0  0
  7  8  1  0  0  0
 23 17  1  0  0  0
 22 17  1  0  0  0
 24 18  1  0  0  0
 18 22  1  0  0  0
 24 19  1  0  0  0
 19 23  1  0  0  0
 25 20  1  0  0  0
 22 20  1  0  0  0
 25 21  1  0  0  0
 23 21  1  0  0  0
 15 26  1  0  0  0
 24 26  1  0  0  0
 26 25  1  0  0  0
  2  3  1  0  0  0
 15 16  1  0  0  0
M  END
> <minimizedAffinity>
-7.76496

$$$$
4EA2_RWZ_A_301


 26 28  0  0  0  0  0  0  0  0999 V2000
  -19.5805  -19.6270   -9.1031 C   0  0  0  0  0  0  0  0  0  0  0  0
  -18.5316  -18.6343   -9.2372 N   0  0  0  0  0  0  0  0  0  0  0  0
  -17.9282  -18.6757   -8.4159 H   0  0  0  0  0  0  0  0  0  0  0  0
  -19.0833  -17.2933   -9.3525 C   0  0  0  0  0  0  0  0  0  0  0  0
  -19.4175  -15.0207   -6.3672 C   0  0  0  0  0  0  0  0  0  0  0  0
  -19.0171  -16.6885   -8.1315 C   0  0  0  0  0  0  0  0  0  0  0  0
  -19.6292  -15.5210   -7.7556 C   0  0  0  0  0  0  0  0  0  0  0  0
  -20.4952  -14.6959   -8.6625 C   0  0  0  0  0  0  0  0  0  0  0  0
  -21.7035  -14.2020   -7.8929 C   0  0  0  0  0  0  0  0  0  0  0  0
  -25.3061  -13.9310   -9.0964 C   0  0  0  0  0  0  0  0  0  0  0  0
  -24.2669  -14.2928   -6.7312 C   0  0  0  0  0  0  0  0  0  0  0  0
  -22.8178  -14.0508   -8.6787 C   0  0  0  0  0  0  0  0  0  0  0  0
  -24.0943  -14.0989   -8.2032 C   0  0  0  0  0  0  0  0  0  0  0  0
  -20.7950  -19.1396   -9.8201 C   0  0  0  0  0  0  0  0  0  0  0  0
  -21.9410  -19.7054   -9.1442 N   0  0  0  0  0  0  0  0  0  0  0  0
  -21.9190  -20.7236   -9.2006 H   0  0  0  0  0  0  0  0  0  0  0  0
  -24.6359  -18.3364   -5.9135 C   0  0  0  0  0  0  0  0  0  0  0  0
  -23.7776  -17.7739   -8.1453 C   0  0  0  0  0  0  0  0  0  0  0  0
  -22.3581  -17.4276   -6.2284 C   0  0  0  0  0  0  0  0  0  0  0  0
  -24.1155  -20.1690   -7.4752 C   0  0  0  0  0  0  0  0  0  0  0  0
  -22.7382  -19.7969   -5.5028 C   0  0  0  0  0  0  0  0  0  0  0  0
  -24.6412  -18.7448   -7.3540 C   0  0  0  0  0  0  0  0  0  0  0  0
  -23.2181  -18.3717   -5.4130 C   0  0  0  0  0  0  0  0  0  0  0  0
  -22.3462  -17.8548   -7.6700 C   0  0  0  0  0  0  0  0  0  0  0  0
  -22.7028  -20.2214   -6.9529 C   0  0  0  0  0  0  0  0  0  0  0  0
  -21.8425  -19.2769   -7.7697 C   0  0  0  0  0  0  0  0  0  0  0  0
 10 13  1  0  0  0
 13 11  1  0  0  0
  5  7  1  0  0  0
 12  9  1  0  0  0
 12 13  2  0  0  0
  6  4  1  0  0  0
  6  7  2  0  0  0
  8  9  1  0  0  0
  4  2  1  0  0  0
  1  2  1  0  0  0
  1 14  1  0  0  0
 15 14  1  0  0  0
  7  8  1  0  0  0
 23 17  1  0  0  0
 22 17  1  0  0  0
 24 18  1  0  0  0
 18 22  1  0  0  0
 24 19  1  0  0  0
 19 23  1  0  0  0
 25 20  1  0  0  0
 22 20  1  0  0  0
 25 21  1  0  0  0
 23 21  1  0  0  0
 15 26  1  0  0  0
 24 26  1  0  0  0
 26 25  1  0  0  0
  2  3  1  0  0  0
 15 16  1  0  0  0
M  END
> <minimizedAffinity>
-7.51811

$$$$
4EA2_RWZ_A_301


 26 28  0  0  0  0  0  0  0  0999 V2000
  -22.3082  -14.3655   -9.2397 C   0  0  0  0  0  0  0  0  0  0  0  0
  -23.5167  -13.5674   -9.1583 N   0  0  0  0  0  0  0  0  0  0  0  0
  -23.4603  -12.9621   -8.3392 H   0  0  0  0  0  0  0  0  0  0  0  0
  -24.6992  -14.4071   -9.0462 C   0  0  0  0  0  0  0  0  0  0  0  0
  -27.2021  -11.9507   -7.6715 C   0  0  0  0  0  0  0  0  0  0  0  0
  -25.7784  -13.6094   -8.8012 C   0  0  0  0  0  0  0  0  0  0  0  0
  -25.9306  -12.7234   -7.7664 C   0  0  0  0  0  0  0  0  0  0  0  0
  -24.8980  -12.4876   -6.7027 C   0  0  0  0  0  0  0  0  0  0  0  0
  -25.0376  -13.5415   -5.6230 C   0  0  0  0  0  0  0  0  0  0  0  0
  -27.1409  -13.1452   -2.4733 C   0  0  0  0  0  0  0  0  0  0  0  0
  -26.9858  -15.0449   -4.2543 C   0  0  0  0  0  0  0  0  0  0  0  0
  -25.5889  -13.0560   -4.4643 C   0  0  0  0  0  0  0  0  0  0  0  0
  -26.5485  -13.7079   -3.7488 C   0  0  0  0  0  0  0  0  0  0  0  0
  -21.9477  -14.8291   -7.8681 C   0  0  0  0  0  0  0  0  0  0  0  0
  -21.7271  -16.2558   -7.9479 N   0  0  0  0  0  0  0  0  0  0  0  0
  -20.7282  -16.4583   -7.9888 H   0  0  0  0  0  0  0  0  0  0  0  0
  -23.9339  -19.8922   -6.7317 C   0  0  0  0  0  0  0  0  0  0  0  0
  -24.0540  -17.8835   -8.1404 C   0  0  0  0  0  0  0  0  0  0  0  0
  -24.3941  -17.6638   -5.7644 C   0  0  0  0  0  0  0  0  0  0  0  0
  -21.8562  -19.0243   -7.7306 C   0  0  0  0  0  0  0  0  0  0  0  0
  -22.2359  -18.8633   -5.3315 C   0  0  0  0  0  0  0  0  0  0  0  0
  -23.3528  -19.2180   -7.9357 C   0  0  0  0  0  0  0  0  0  0  0  0
  -23.7216  -19.0026   -5.5379 C   0  0  0  0  0  0  0  0  0  0  0  0
  -23.7917  -16.9789   -6.9596 C   0  0  0  0  0  0  0  0  0  0  0  0
  -21.6308  -18.1539   -6.5211 C   0  0  0  0  0  0  0  0  0  0  0  0
  -22.3035  -16.8141   -6.7486 C   0  0  0  0  0  0  0  0  0  0  0  0
 10 13  1  0  0  0
 13 11  1  0  0  0
  5  7  1  0  0  0
 12  9  1  0  0  0
 12 13  2  0  0  0
  6  4  1  0  0  0
  6  7  2  0  0  0
  8  9  1  0  0  0
  4  2  1  0  0  0
  1  2  1  0  0  0
  1 14  1  0  0  0
 15 14  1  0  0  0
  7  8  1  0  0  0
 23 17  1  0  0  0
 22 17  1  0  0  0
 24 18  1  0  0  0
 18 22  1  0  0  0
 24 19  1  0  0  0
 19 23  1  0  0  0
 25 20  1  0  0  0
 22 20  1  0  0  0
 25 21  1  0  0  0
 23 21  1  0  0  0
 15 26  1  0  0  0
 24 26  1  0  0  0
 26 25  1  0  0  0
  2  3  1  0  0  0
 15 16  1  0  0  0
M  END
> <minimizedAffinity>
-7.50604

$$$$
4EA2_RWZ_A_301


 26 28  0  0  0  0  0  0  0  0999 V2000
  -24.6382  -14.7511   -8.4338 C   0  0  0  0  0  0  0  0  0  0  0  0
  -24.4711  -13.3368   -8.7086 N   0  0  0  0  0  0  0  0  0  0  0  0
  -23.5817  -13.0254   -8.3182 H   0  0  0  0  0  0  0  0  0  0  0  0
  -25.5465  -12.5526   -8.1216 C   0  0  0  0  0  0  0  0  0  0  0  0
  -26.2718  -13.1507   -4.4740 C   0  0  0  0  0  0  0  0  0  0  0  0
  -25.8458  -13.0721   -6.8963 C   0  0  0  0  0  0  0  0  0  0  0  0
  -25.9438  -12.3880   -5.7125 C   0  0  0  0  0  0  0  0  0  0  0  0
  -25.7259  -10.9091   -5.5755 C   0  0  0  0  0  0  0  0  0  0  0  0
  -26.5843  -10.1778   -6.5876 C   0  0  0  0  0  0  0  0  0  0  0  0
  -30.3876  -10.2939   -6.7373 C   0  0  0  0  0  0  0  0  0  0  0  0
  -28.5479  -10.6016   -8.5608 C   0  0  0  0  0  0  0  0  0  0  0  0
  -27.9134  -10.1525   -6.2485 C   0  0  0  0  0  0  0  0  0  0  0  0
  -28.9281  -10.3298   -7.1411 C   0  0  0  0  0  0  0  0  0  0  0  0
  -23.4061  -15.2565   -7.7609 C   0  0  0  0  0  0  0  0  0  0  0  0
  -23.0801  -16.5255   -8.3724 N   0  0  0  0  0  0  0  0  0  0  0  0
  -22.0709  -16.6732   -8.3664 H   0  0  0  0  0  0  0  0  0  0  0  0
  -21.9903  -20.1247   -6.0419 C   0  0  0  0  0  0  0  0  0  0  0  0
  -22.0272  -19.1689   -8.3045 C   0  0  0  0  0  0  0  0  0  0  0  0
  -24.0896  -19.9566   -7.3373 C   0  0  0  0  0  0  0  0  0  0  0  0
  -21.6389  -17.7009   -6.3060 C   0  0  0  0  0  0  0  0  0  0  0  0
  -23.6866  -18.5510   -5.3011 C   0  0  0  0  0  0  0  0  0  0  0  0
  -21.3952  -19.0714   -6.9241 C   0  0  0  0  0  0  0  0  0  0  0  0
  -23.4735  -19.8916   -5.9545 C   0  0  0  0  0  0  0  0  0  0  0  0
  -23.5074  -18.8822   -8.2132 C   0  0  0  0  0  0  0  0  0  0  0  0
  -23.1232  -17.4667   -6.1906 C   0  0  0  0  0  0  0  0  0  0  0  0
  -23.7391  -17.5314   -7.5747 C   0  0  0  0  0  0  0  0  0  0  0  0
 10 13  1  0  0  0
 13 11  1  0  0  0
  5  7  1  0  0  0
 12  9  1  0  0  0
 12 13  2  0  0  0
  6  4  1  0  0  0
  6  7  2  0  0  0
  8  9  1  0  0  0
  4  2  1  0  0  0
  1  2  1  0  0  0
  1 14  1  0  0  0
 15 14  1  0  0  0
  7  8  1  0  0  0
 23 17  1  0  0  0
 22 17  1  0  0  0
 24 18  1  0  0  0
 18 22  1  0  0  0
 24 19  1  0  0  0
 19 23  1  0  0  0
 25 20  1  0  0  0
 22 20  1  0  0  0
 25 21  1  0  0  0
 23 21  1  0  0  0
 15 26  1  0  0  0
 24 26  1  0  0  0
 26 25  1  0  0  0
  2  3  1  0  0  0
 15 16  1  0  0  0
M  END
> <minimizedAffinity>
-7.08877

$$$$
4EA2_RWZ_A_301


 26 28  0  0  0  0  0  0  0  0999 V2000
  -24.9219  -15.8466   -6.0140 C   0  0  0  0  0  0  0  0  0  0  0  0
  -25.7857  -14.9746   -5.2411 N   0  0  0  0  0  0  0  0  0  0  0  0
  -26.7524  -15.1238   -5.5299 H   0  0  0  0  0  0  0  0  0  0  0  0
  -25.4420  -13.5755   -5.4418 C   0  0  0  0  0  0  0  0  0  0  0  0
  -24.6515  -12.9960   -9.0788 C   0  0  0  0  0  0  0  0  0  0  0  0
  -24.8588  -13.4416   -6.6677 C   0  0  0  0  0  0  0  0  0  0  0  0
  -25.4721  -13.0710   -7.8363 C   0  0  0  0  0  0  0  0  0  0  0  0
  -26.9332  -12.7469   -7.9529 C   0  0  0  0  0  0  0  0  0  0  0  0
  -27.1179  -11.2430   -7.9405 C   0  0  0  0  0  0  0  0  0  0  0  0
  -30.6168   -9.7884   -7.5619 C   0  0  0  0  0  0  0  0  0  0  0  0
  -28.5598   -9.8559   -5.9591 C   0  0  0  0  0  0  0  0  0  0  0  0
  -28.4128  -10.8574   -8.1787 C   0  0  0  0  0  0  0  0  0  0  0  0
  -29.1881  -10.1994   -7.2711 C   0  0  0  0  0  0  0  0  0  0  0  0
  -25.1722  -17.2579   -5.5995 C   0  0  0  0  0  0  0  0  0  0  0  0
  -23.9291  -17.9761   -5.7707 N   0  0  0  0  0  0  0  0  0  0  0  0
  -23.9102  -18.8003   -5.1701 H   0  0  0  0  0  0  0  0  0  0  0  0
  -21.0254  -19.7232   -8.6150 C   0  0  0  0  0  0  0  0  0  0  0  0
  -21.4803  -17.7634   -7.2056 C   0  0  0  0  0  0  0  0  0  0  0  0
  -22.6831  -18.0132   -9.2792 C   0  0  0  0  0  0  0  0  0  0  0  0
  -22.2231  -20.0508   -6.4873 C   0  0  0  0  0  0  0  0  0  0  0  0
  -23.3787  -20.3273   -8.6119 C   0  0  0  0  0  0  0  0  0  0  0  0
  -21.1436  -19.2470   -7.2003 C   0  0  0  0  0  0  0  0  0  0  0  0
  -22.3391  -19.4886   -9.3085 C   0  0  0  0  0  0  0  0  0  0  0  0
  -22.8248  -17.5440   -7.8578 C   0  0  0  0  0  0  0  0  0  0  0  0
  -23.5402  -19.8427   -7.1895 C   0  0  0  0  0  0  0  0  0  0  0  0
  -23.8843  -18.3662   -7.1593 C   0  0  0  0  0  0  0  0  0  0  0  0
 10 13  1  0  0  0
 13 11  1  0  0  0
  5  7  1  0  0  0
 12  9  1  0  0  0
 12 13  2  0  0  0
  6  4  1  0  0  0
  6  7  2  0  0  0
  8  9  1  0  0  0
  4  2  1  0  0  0
  1  2  1  0  0  0
  1 14  1  0  0  0
 15 14  1  0  0  0
  7  8  1  0  0  0
 23 17  1  0  0  0
 22 17  1  0  0  0
 24 18  1  0  0  0
 18 22  1  0  0  0
 24 19  1  0  0  0
 19 23  1  0  0  0
 25 20  1  0  0  0
 22 20  1  0  0  0
 25 21  1  0  0  0
 23 21  1  0  0  0
 15 26  1  0  0  0
 24 26  1  0  0  0
 26 25  1  0  0  0
  2  3  1  0  0  0
 15 16  1  0  0  0
M  END
> <minimizedAffinity>
-6.81941

$$$$
