4IBE_11Y_A_401


 33 36  0  0  0  0  0  0  0  0999 V2000
    2.1891   20.0359   -0.1640 N   0  0  0  0  0  0  0  0  0  0  0  0
    3.0873   20.9013    0.3267 C   0  0  0  0  0  0  0  0  0  0  0  0
    2.5296   18.7745    0.1057 C   0  0  0  0  0  0  0  0  0  0  0  0
    1.7845   17.6632   -0.2295 O   0  0  0  0  0  0  0  0  0  0  0  0
    3.7607   18.8120    0.7630 C   0  0  0  0  0  0  0  0  0  0  0  0
    4.4887   17.7295    1.2020 O   0  0  0  0  0  0  0  0  0  0  0  0
    4.1278   20.1584    0.8689 C   0  0  0  0  0  0  0  0  0  0  0  0
    5.3091   17.8612    1.6351 H   0  0  0  0  0  0  0  0  0  0  0  0
   -0.2040   20.8117   -2.9106 C   0  0  0  0  0  0  0  0  0  0  0  0
    0.9451   20.4234   -2.2299 C   0  0  0  0  0  0  0  0  0  0  0  0
   -1.3219   21.2317   -2.1786 C   0  0  0  0  0  0  0  0  0  0  0  0
   -2.8045   21.7342   -2.9168 Cl  0  0  0  0  0  0  0  0  0  0  0  0
   -1.2569   21.2537   -0.7905 C   0  0  0  0  0  0  0  0  0  0  0  0
   -0.1037   20.8686   -0.1218 C   0  0  0  0  0  0  0  0  0  0  0  0
    1.0042   20.4528   -0.8450 C   0  0  0  0  0  0  0  0  0  0  0  0
   -0.7393   19.8108   -5.0107 O   0  0  0  0  0  0  0  0  0  0  0  0
   -0.1509   20.7512   -4.4103 C   0  0  0  0  0  0  0  0  0  0  0  0
    0.4273   21.6262   -5.1024 O   0  0  0  0  0  0  0  0  0  0  0  0
    0.8724   22.3363   -4.6834 H   0  0  0  0  0  0  0  0  0  0  0  0
    2.5532   21.9356    1.2565 C   0  0  0  0  0  0  0  0  0  0  0  0
    1.9191   21.5326    2.7562 S   0  0  0  0  0  0  0  0  0  0  0  0
    1.5018   23.0678    3.3003 C   0  0  0  0  0  0  0  0  0  0  0  0
    1.8789   23.9400    2.2727 C   0  0  0  0  0  0  0  0  0  0  0  0
    1.6169   25.8494    2.4137 Br  0  0  0  0  0  0  0  0  0  0  0  0
    2.4688   23.3274    1.1213 C   0  0  0  0  0  0  0  0  0  0  0  0
    5.3836   20.7944    1.3705 C   0  0  0  0  0  0  0  0  0  0  0  0
    5.8519   21.7148    0.7135 O   0  0  0  0  0  0  0  0  0  0  0  0
    6.0883   20.3952    2.6208 C   0  0  0  0  0  0  0  0  0  0  0  0
    7.4621   20.5762    2.6929 C   0  0  0  0  0  0  0  0  0  0  0  0
    8.1610   20.2368    3.8388 C   0  0  0  0  0  0  0  0  0  0  0  0
    7.4729   19.7178    4.9243 C   0  0  0  0  0  0  0  0  0  0  0  0
    6.0970   19.5420    4.8632 C   0  0  0  0  0  0  0  0  0  0  0  0
    5.3981   19.8863    3.7112 C   0  0  0  0  0  0  0  0  0  0  0  0
 31 32  2  0  0  0
 31 30  1  0  0  0
 32 33  1  0  0  0
 30 29  2  0  0  0
 33 28  2  0  0  0
 22 21  1  0  0  0
 22 23  2  0  0  0
 21 20  1  0  0  0
 29 28  1  0  0  0
 28 26  1  0  0  0
 24 23  1  0  0  0
 23 25  1  0  0  0
  6  5  1  0  0  0
 26 27  2  0  0  0
 26  7  1  0  0  0
 20 25  2  0  0  0
 20  2  1  0  0  0
  7  5  2  0  0  0
  7  2  1  0  0  0
  5  3  1  0  0  0
  3  4  2  0  0  0
  3  1  1  0  0  0
  2  1  1  0  0  0
 16 17  2  0  0  0
  1 15  1  0  0  0
 10 15  2  0  0  0
 10  9  1  0  0  0
 17  9  1  0  0  0
 17 18  1  0  0  0
 15 14  1  0  0  0
  9 11  2  0  0  0
 14 13  2  0  0  0
 11 13  1  0  0  0
 11 12  1  0  0  0
 18 19  1  0  0  0
  6  8  1  0  0  0
M  END
> <minimizedAffinity>
-7.44395

$$$$
4IBE_11Y_A_401


 33 36  0  0  0  0  0  0  0  0999 V2000
    0.0645   20.2699    0.8641 N   0  0  0  0  0  0  0  0  0  0  0  0
    1.0779   20.5035    1.7097 C   0  0  0  0  0  0  0  0  0  0  0  0
   -1.0185   19.8338    1.5096 C   0  0  0  0  0  0  0  0  0  0  0  0
   -2.2323   19.5495    0.9194 O   0  0  0  0  0  0  0  0  0  0  0  0
   -0.6749   19.7164    2.8576 C   0  0  0  0  0  0  0  0  0  0  0  0
   -1.4897   19.2763    3.8758 O   0  0  0  0  0  0  0  0  0  0  0  0
    0.6641   20.1069    2.9746 C   0  0  0  0  0  0  0  0  0  0  0  0
   -1.1623   19.2339    4.7528 H   0  0  0  0  0  0  0  0  0  0  0  0
    0.9610   19.8614   -2.7278 C   0  0  0  0  0  0  0  0  0  0  0  0
    0.8713   19.6493   -1.3561 C   0  0  0  0  0  0  0  0  0  0  0  0
    0.3090   20.9653   -3.2919 C   0  0  0  0  0  0  0  0  0  0  0  0
    0.3486   21.3271   -4.9840 Cl  0  0  0  0  0  0  0  0  0  0  0  0
   -0.4096   21.8243   -2.4690 C   0  0  0  0  0  0  0  0  0  0  0  0
   -0.4885   21.6058   -1.1011 C   0  0  0  0  0  0  0  0  0  0  0  0
    0.1568   20.5135   -0.5409 C   0  0  0  0  0  0  0  0  0  0  0  0
    1.1806   18.0504   -4.2677 O   0  0  0  0  0  0  0  0  0  0  0  0
    1.7715   18.8686   -3.5110 C   0  0  0  0  0  0  0  0  0  0  0  0
    3.0272   18.8421   -3.4749 O   0  0  0  0  0  0  0  0  0  0  0  0
    3.4927   19.4383   -2.9219 H   0  0  0  0  0  0  0  0  0  0  0  0
    1.6461   21.8804    1.6791 C   0  0  0  0  0  0  0  0  0  0  0  0
    3.1397   22.2046    0.9881 S   0  0  0  0  0  0  0  0  0  0  0  0
    3.2151   23.8621    1.2601 C   0  0  0  0  0  0  0  0  0  0  0  0
    2.0197   24.1849    1.9127 C   0  0  0  0  0  0  0  0  0  0  0  0
    1.6093   25.9972    2.4431 Br  0  0  0  0  0  0  0  0  0  0  0  0
    1.1286   23.0915    2.1563 C   0  0  0  0  0  0  0  0  0  0  0  0
    1.5937   20.0786    4.1443 C   0  0  0  0  0  0  0  0  0  0  0  0
    2.6805   19.5376    3.9890 O   0  0  0  0  0  0  0  0  0  0  0  0
    1.2923   20.6788    5.4740 C   0  0  0  0  0  0  0  0  0  0  0  0
    0.9031   22.0096    5.5266 C   0  0  0  0  0  0  0  0  0  0  0  0
    0.5957   22.6094    6.7360 C   0  0  0  0  0  0  0  0  0  0  0  0
    0.6730   21.8638    7.9018 C   0  0  0  0  0  0  0  0  0  0  0  0
    1.0531   20.5292    7.8566 C   0  0  0  0  0  0  0  0  0  0  0  0
    1.3588   19.9296    6.6396 C   0  0  0  0  0  0  0  0  0  0  0  0
 31 32  2  0  0  0
 31 30  1  0  0  0
 32 33  1  0  0  0
 30 29  2  0  0  0
 33 28  2  0  0  0
 22 21  1  0  0  0
 22 23  2  0  0  0
 21 20  1  0  0  0
 29 28  1  0  0  0
 28 26  1  0  0  0
 24 23  1  0  0  0
 23 25  1  0  0  0
  6  5  1  0  0  0
 26 27  2  0  0  0
 26  7  1  0  0  0
 20 25  2  0  0  0
 20  2  1  0  0  0
  7  5  2  0  0  0
  7  2  1  0  0  0
  5  3  1  0  0  0
  3  4  2  0  0  0
  3  1  1  0  0  0
  2  1  1  0  0  0
 16 17  2  0  0  0
  1 15  1  0  0  0
 10 15  2  0  0  0
 10  9  1  0  0  0
 17  9  1  0  0  0
 17 18  1  0  0  0
 15 14  1  0  0  0
  9 11  2  0  0  0
 14 13  2  0  0  0
 11 13  1  0  0  0
 11 12  1  0  0  0
 18 19  1  0  0  0
  6  8  1  0  0  0
M  END
> <minimizedAffinity>
-7.40802

$$$$
4IBE_11Y_A_401


 33 36  0  0  0  0  0  0  0  0999 V2000
    2.1029   20.4375   -0.2458 N   0  0  0  0  0  0  0  0  0  0  0  0
    2.8841   21.2435    0.4868 C   0  0  0  0  0  0  0  0  0  0  0  0
    2.5908   19.1967   -0.2930 C   0  0  0  0  0  0  0  0  0  0  0  0
    1.9896   18.1323   -0.9317 O   0  0  0  0  0  0  0  0  0  0  0  0
    3.8009   19.2035    0.4031 C   0  0  0  0  0  0  0  0  0  0  0  0
    4.6499   18.1349    0.5813 O   0  0  0  0  0  0  0  0  0  0  0  0
    4.0009   20.5097    0.8644 C   0  0  0  0  0  0  0  0  0  0  0  0
    5.4435   18.2431    1.0677 H   0  0  0  0  0  0  0  0  0  0  0  0
   -1.5325   20.8190   -0.9601 C   0  0  0  0  0  0  0  0  0  0  0  0
   -0.3344   20.3918   -0.3976 C   0  0  0  0  0  0  0  0  0  0  0  0
   -1.5028   21.7638   -1.9938 C   0  0  0  0  0  0  0  0  0  0  0  0
   -2.9284   22.3695   -2.7661 Cl  0  0  0  0  0  0  0  0  0  0  0  0
   -0.2782   22.2504   -2.4354 C   0  0  0  0  0  0  0  0  0  0  0  0
    0.9114   21.8138   -1.8701 C   0  0  0  0  0  0  0  0  0  0  0  0
    0.8837   20.8780   -0.8469 C   0  0  0  0  0  0  0  0  0  0  0  0
   -3.1415   20.5000    0.7744 O   0  0  0  0  0  0  0  0  0  0  0  0
   -2.7905   20.2161   -0.4035 C   0  0  0  0  0  0  0  0  0  0  0  0
   -3.5365   19.4639   -1.0791 O   0  0  0  0  0  0  0  0  0  0  0  0
   -3.3009   19.2361   -1.9570 H   0  0  0  0  0  0  0  0  0  0  0  0
    2.2183   21.9342    1.6266 C   0  0  0  0  0  0  0  0  0  0  0  0
    1.6285   21.0883    2.9495 S   0  0  0  0  0  0  0  0  0  0  0  0
    1.0189   22.3722    3.8479 C   0  0  0  0  0  0  0  0  0  0  0  0
    1.2917   23.5168    3.0900 C   0  0  0  0  0  0  0  0  0  0  0  0
    0.7925   25.2814    3.6995 Br  0  0  0  0  0  0  0  0  0  0  0  0
    1.9618   23.2940    1.8450 C   0  0  0  0  0  0  0  0  0  0  0  0
    5.1647   21.1336    1.5640 C   0  0  0  0  0  0  0  0  0  0  0  0
    5.5725   22.2054    1.1360 O   0  0  0  0  0  0  0  0  0  0  0  0
    5.8452   20.5480    2.7528 C   0  0  0  0  0  0  0  0  0  0  0  0
    7.2009   20.7887    2.9248 C   0  0  0  0  0  0  0  0  0  0  0  0
    7.8758   20.2810    4.0218 C   0  0  0  0  0  0  0  0  0  0  0  0
    7.1813   19.5311    4.9579 C   0  0  0  0  0  0  0  0  0  0  0  0
    5.8229   19.2932    4.7976 C   0  0  0  0  0  0  0  0  0  0  0  0
    5.1478   19.8069    3.6956 C   0  0  0  0  0  0  0  0  0  0  0  0
 31 32  2  0  0  0
 31 30  1  0  0  0
 32 33  1  0  0  0
 30 29  2  0  0  0
 33 28  2  0  0  0
 22 21  1  0  0  0
 22 23  2  0  0  0
 21 20  1  0  0  0
 29 28  1  0  0  0
 28 26  1  0  0  0
 24 23  1  0  0  0
 23 25  1  0  0  0
  6  5  1  0  0  0
 26 27  2  0  0  0
 26  7  1  0  0  0
 20 25  2  0  0  0
 20  2  1  0  0  0
  7  5  2  0  0  0
  7  2  1  0  0  0
  5  3  1  0  0  0
  3  4  2  0  0  0
  3  1  1  0  0  0
  2  1  1  0  0  0
 16 17  2  0  0  0
  1 15  1  0  0  0
 10 15  2  0  0  0
 10  9  1  0  0  0
 17  9  1  0  0  0
 17 18  1  0  0  0
 15 14  1  0  0  0
  9 11  2  0  0  0
 14 13  2  0  0  0
 11 13  1  0  0  0
 11 12  1  0  0  0
 18 19  1  0  0  0
  6  8  1  0  0  0
M  END
> <minimizedAffinity>
-7.31523

$$$$
4IBE_11Y_A_401


 33 36  0  0  0  0  0  0  0  0999 V2000
    3.2154   19.7896    1.1917 N   0  0  0  0  0  0  0  0  0  0  0  0
    1.9907   20.3017    1.3776 C   0  0  0  0  0  0  0  0  0  0  0  0
    3.3044   19.1500    0.0243 C   0  0  0  0  0  0  0  0  0  0  0  0
    4.4474   18.5565   -0.4694 O   0  0  0  0  0  0  0  0  0  0  0  0
    2.0401   19.1935   -0.5663 C   0  0  0  0  0  0  0  0  0  0  0  0
    1.6784   18.6340   -1.7707 O   0  0  0  0  0  0  0  0  0  0  0  0
    1.2021   19.8923    0.3103 C   0  0  0  0  0  0  0  0  0  0  0  0
    0.7987   18.7195   -2.0817 H   0  0  0  0  0  0  0  0  0  0  0  0
    5.3388   19.3845    4.2247 C   0  0  0  0  0  0  0  0  0  0  0  0
    4.3046   19.2362    3.3066 C   0  0  0  0  0  0  0  0  0  0  0  0
    6.3753   20.2844    3.9459 C   0  0  0  0  0  0  0  0  0  0  0  0
    7.7132   20.5494    5.0114 Cl  0  0  0  0  0  0  0  0  0  0  0  0
    6.3456   21.0101    2.7609 C   0  0  0  0  0  0  0  0  0  0  0  0
    5.3065   20.8577    1.8542 C   0  0  0  0  0  0  0  0  0  0  0  0
    4.2792   19.9673    2.1289 C   0  0  0  0  0  0  0  0  0  0  0  0
    5.8175   17.4214    5.4959 O   0  0  0  0  0  0  0  0  0  0  0  0
    5.2569   18.5511    5.4715 C   0  0  0  0  0  0  0  0  0  0  0  0
    4.6815   18.9498    6.5149 O   0  0  0  0  0  0  0  0  0  0  0  0
    4.2568   19.7849    6.5258 H   0  0  0  0  0  0  0  0  0  0  0  0
    1.9305   21.7692    1.6274 C   0  0  0  0  0  0  0  0  0  0  0  0
    2.5853   22.8762    0.5508 S   0  0  0  0  0  0  0  0  0  0  0  0
    2.2148   24.3016    1.3622 C   0  0  0  0  0  0  0  0  0  0  0  0
    1.5427   23.9027    2.5233 C   0  0  0  0  0  0  0  0  0  0  0  0
    0.8873   25.1873    3.8096 Br  0  0  0  0  0  0  0  0  0  0  0  0
    1.3730   22.4913    2.6906 C   0  0  0  0  0  0  0  0  0  0  0  0
   -0.2692   20.1491    0.2625 C   0  0  0  0  0  0  0  0  0  0  0  0
   -0.9375   19.7849    1.2211 O   0  0  0  0  0  0  0  0  0  0  0  0
   -0.9686   20.8320   -0.8616 C   0  0  0  0  0  0  0  0  0  0  0  0
   -2.3412   20.6693   -0.9836 C   0  0  0  0  0  0  0  0  0  0  0  0
   -3.0402   21.2962   -2.0010 C   0  0  0  0  0  0  0  0  0  0  0  0
   -2.3554   22.0995   -2.8993 C   0  0  0  0  0  0  0  0  0  0  0  0
   -0.9834   22.2745   -2.7788 C   0  0  0  0  0  0  0  0  0  0  0  0
   -0.2851   21.6449   -1.7540 C   0  0  0  0  0  0  0  0  0  0  0  0
 31 32  2  0  0  0
 31 30  1  0  0  0
 32 33  1  0  0  0
 30 29  2  0  0  0
 33 28  2  0  0  0
 22 21  1  0  0  0
 22 23  2  0  0  0
 21 20  1  0  0  0
 29 28  1  0  0  0
 28 26  1  0  0  0
 24 23  1  0  0  0
 23 25  1  0  0  0
  6  5  1  0  0  0
 26 27  2  0  0  0
 26  7  1  0  0  0
 20 25  2  0  0  0
 20  2  1  0  0  0
  7  5  2  0  0  0
  7  2  1  0  0  0
  5  3  1  0  0  0
  3  4  2  0  0  0
  3  1  1  0  0  0
  2  1  1  0  0  0
 16 17  2  0  0  0
  1 15  1  0  0  0
 10 15  2  0  0  0
 10  9  1  0  0  0
 17  9  1  0  0  0
 17 18  1  0  0  0
 15 14  1  0  0  0
  9 11  2  0  0  0
 14 13  2  0  0  0
 11 13  1  0  0  0
 11 12  1  0  0  0
 18 19  1  0  0  0
  6  8  1  0  0  0
M  END
> <minimizedAffinity>
-7.06441

$$$$
4IBE_11Y_A_401


 33 36  0  0  0  0  0  0  0  0999 V2000
   -1.0495   20.8761   -0.8891 N   0  0  0  0  0  0  0  0  0  0  0  0
   -0.1895   21.0983    0.1147 C   0  0  0  0  0  0  0  0  0  0  0  0
   -0.6106   21.4038   -2.0331 C   0  0  0  0  0  0  0  0  0  0  0  0
   -1.2522   21.3039   -3.2499 O   0  0  0  0  0  0  0  0  0  0  0  0
    0.5848   22.0665   -1.7487 C   0  0  0  0  0  0  0  0  0  0  0  0
    1.3635   22.7706   -2.6388 O   0  0  0  0  0  0  0  0  0  0  0  0
    0.8294   21.9014   -0.3805 C   0  0  0  0  0  0  0  0  0  0  0  0
    2.1532   23.1821   -2.3470 H   0  0  0  0  0  0  0  0  0  0  0  0
   -4.3733   19.7881    0.3920 C   0  0  0  0  0  0  0  0  0  0  0  0
   -3.1891   20.4987    0.2267 C   0  0  0  0  0  0  0  0  0  0  0  0
   -4.6237   18.6791   -0.4262 C   0  0  0  0  0  0  0  0  0  0  0  0
   -6.0616   17.7225   -0.3127 Cl  0  0  0  0  0  0  0  0  0  0  0  0
   -3.6832   18.3125   -1.3815 C   0  0  0  0  0  0  0  0  0  0  0  0
   -2.5030   19.0259   -1.5346 C   0  0  0  0  0  0  0  0  0  0  0  0
   -2.2533   20.1240   -0.7251 C   0  0  0  0  0  0  0  0  0  0  0  0
   -6.4431   20.7180    1.1338 O   0  0  0  0  0  0  0  0  0  0  0  0
   -5.3079   20.2763    1.4615 C   0  0  0  0  0  0  0  0  0  0  0  0
   -5.0210   20.2282    2.6839 O   0  0  0  0  0  0  0  0  0  0  0  0
   -4.1850   19.9046    2.9565 H   0  0  0  0  0  0  0  0  0  0  0  0
    0.3063   19.8869    0.8263 C   0  0  0  0  0  0  0  0  0  0  0  0
    1.2010   18.7053    0.0411 S   0  0  0  0  0  0  0  0  0  0  0  0
    1.4471   17.6477    1.3248 C   0  0  0  0  0  0  0  0  0  0  0  0
    0.8110   18.2416    2.4210 C   0  0  0  0  0  0  0  0  0  0  0  0
    0.8121   17.4138    4.1671 Br  0  0  0  0  0  0  0  0  0  0  0  0
    0.1674   19.4940    2.1637 C   0  0  0  0  0  0  0  0  0  0  0  0
    1.8885   22.4788    0.5016 C   0  0  0  0  0  0  0  0  0  0  0  0
    3.0387   22.0989    0.3260 O   0  0  0  0  0  0  0  0  0  0  0  0
    1.6392   23.4944    1.5626 C   0  0  0  0  0  0  0  0  0  0  0  0
    2.1093   24.7851    1.3670 C   0  0  0  0  0  0  0  0  0  0  0  0
    1.8889   25.7695    2.3152 C   0  0  0  0  0  0  0  0  0  0  0  0
    1.1839   25.4563    3.4667 C   0  0  0  0  0  0  0  0  0  0  0  0
    0.7025   24.1693    3.6658 C   0  0  0  0  0  0  0  0  0  0  0  0
    0.9238   23.1837    2.7099 C   0  0  0  0  0  0  0  0  0  0  0  0
 31 32  2  0  0  0
 31 30  1  0  0  0
 32 33  1  0  0  0
 30 29  2  0  0  0
 33 28  2  0  0  0
 22 21  1  0  0  0
 22 23  2  0  0  0
 21 20  1  0  0  0
 29 28  1  0  0  0
 28 26  1  0  0  0
 24 23  1  0  0  0
 23 25  1  0  0  0
  6  5  1  0  0  0
 26 27  2  0  0  0
 26  7  1  0  0  0
 20 25  2  0  0  0
 20  2  1  0  0  0
  7  5  2  0  0  0
  7  2  1  0  0  0
  5  3  1  0  0  0
  3  4  2  0  0  0
  3  1  1  0  0  0
  2  1  1  0  0  0
 16 17  2  0  0  0
  1 15  1  0  0  0
 10 15  2  0  0  0
 10  9  1  0  0  0
 17  9  1  0  0  0
 17 18  1  0  0  0
 15 14  1  0  0  0
  9 11  2  0  0  0
 14 13  2  0  0  0
 11 13  1  0  0  0
 11 12  1  0  0  0
 18 19  1  0  0  0
  6  8  1  0  0  0
M  END
> <minimizedAffinity>
-7.05719

$$$$
4IBE_11Y_A_401


 33 36  0  0  0  0  0  0  0  0999 V2000
   -1.0625   20.8783   -0.9502 N   0  0  0  0  0  0  0  0  0  0  0  0
   -0.2195   21.0762    0.0729 C   0  0  0  0  0  0  0  0  0  0  0  0
   -0.5929   21.4118   -2.0792 C   0  0  0  0  0  0  0  0  0  0  0  0
   -1.2114   21.3351   -3.3096 O   0  0  0  0  0  0  0  0  0  0  0  0
    0.6065   22.0529   -1.7637 C   0  0  0  0  0  0  0  0  0  0  0  0
    1.4134   22.7547   -2.6302 O   0  0  0  0  0  0  0  0  0  0  0  0
    0.8212   21.8690   -0.3929 C   0  0  0  0  0  0  0  0  0  0  0  0
    2.2032   23.1507   -2.3182 H   0  0  0  0  0  0  0  0  0  0  0  0
   -3.6175   18.1984   -1.3531 C   0  0  0  0  0  0  0  0  0  0  0  0
   -2.4450   18.9357   -1.4799 C   0  0  0  0  0  0  0  0  0  0  0  0
   -4.6449   18.6851   -0.5348 C   0  0  0  0  0  0  0  0  0  0  0  0
   -6.1445   17.8536   -0.2998 Cl  0  0  0  0  0  0  0  0  0  0  0  0
   -4.4708   19.8937    0.1290 C   0  0  0  0  0  0  0  0  0  0  0  0
   -3.2987   20.6234   -0.0084 C   0  0  0  0  0  0  0  0  0  0  0  0
   -2.2806   20.1431   -0.8185 C   0  0  0  0  0  0  0  0  0  0  0  0
   -3.9516   16.9467   -3.3583 O   0  0  0  0  0  0  0  0  0  0  0  0
   -3.6906   16.9119   -2.1246 C   0  0  0  0  0  0  0  0  0  0  0  0
   -3.4632   15.7938   -1.5983 O   0  0  0  0  0  0  0  0  0  0  0  0
   -3.2666   15.7377   -0.6839 H   0  0  0  0  0  0  0  0  0  0  0  0
    0.2436   19.8497    0.7805 C   0  0  0  0  0  0  0  0  0  0  0  0
    1.1784   18.6871    0.0137 S   0  0  0  0  0  0  0  0  0  0  0  0
    1.3636   17.6010    1.2838 C   0  0  0  0  0  0  0  0  0  0  0  0
    0.6733   18.1694    2.3605 C   0  0  0  0  0  0  0  0  0  0  0  0
    0.5907   17.3022    4.0855 Br  0  0  0  0  0  0  0  0  0  0  0  0
    0.0402   19.4265    2.1003 C   0  0  0  0  0  0  0  0  0  0  0  0
    1.8710   22.4203    0.5165 C   0  0  0  0  0  0  0  0  0  0  0  0
    3.0150   22.0096    0.3727 O   0  0  0  0  0  0  0  0  0  0  0  0
    1.6202   23.4449    1.5685 C   0  0  0  0  0  0  0  0  0  0  0  0
    2.0499   24.7447    1.3423 C   0  0  0  0  0  0  0  0  0  0  0  0
    1.8261   25.7371    2.2813 C   0  0  0  0  0  0  0  0  0  0  0  0
    1.1585   25.4227    3.4545 C   0  0  0  0  0  0  0  0  0  0  0  0
    0.7176   24.1264    3.6844 C   0  0  0  0  0  0  0  0  0  0  0  0
    0.9422   23.1326    2.7377 C   0  0  0  0  0  0  0  0  0  0  0  0
 31 32  2  0  0  0
 31 30  1  0  0  0
 32 33  1  0  0  0
 30 29  2  0  0  0
 33 28  2  0  0  0
 22 21  1  0  0  0
 22 23  2  0  0  0
 21 20  1  0  0  0
 29 28  1  0  0  0
 28 26  1  0  0  0
 24 23  1  0  0  0
 23 25  1  0  0  0
  6  5  1  0  0  0
 26 27  2  0  0  0
 26  7  1  0  0  0
 20 25  2  0  0  0
 20  2  1  0  0  0
  7  5  2  0  0  0
  7  2  1  0  0  0
  5  3  1  0  0  0
  3  4  2  0  0  0
  3  1  1  0  0  0
  2  1  1  0  0  0
 16 17  2  0  0  0
  1 15  1  0  0  0
 10 15  2  0  0  0
 10  9  1  0  0  0
 17  9  1  0  0  0
 17 18  1  0  0  0
 15 14  1  0  0  0
  9 11  2  0  0  0
 14 13  2  0  0  0
 11 13  1  0  0  0
 11 12  1  0  0  0
 18 19  1  0  0  0
  6  8  1  0  0  0
M  END
> <minimizedAffinity>
-6.87413

$$$$
4IBE_11Y_A_401


 33 36  0  0  0  0  0  0  0  0999 V2000
    4.8942   19.2580    0.8708 N   0  0  0  0  0  0  0  0  0  0  0  0
    6.2296   19.2312    0.9828 C   0  0  0  0  0  0  0  0  0  0  0  0
    4.4543   18.3002    0.0528 C   0  0  0  0  0  0  0  0  0  0  0  0
    3.1284   18.0456   -0.2291 O   0  0  0  0  0  0  0  0  0  0  0  0
    5.5773   17.6413   -0.4510 C   0  0  0  0  0  0  0  0  0  0  0  0
    5.5815   16.5997   -1.3507 O   0  0  0  0  0  0  0  0  0  0  0  0
    6.7009   18.2573    0.1122 C   0  0  0  0  0  0  0  0  0  0  0  0
    6.3936   16.2236   -1.6283 H   0  0  0  0  0  0  0  0  0  0  0  0
    3.0765   22.3776    1.7849 C   0  0  0  0  0  0  0  0  0  0  0  0
    3.8813   21.4678    1.1074 C   0  0  0  0  0  0  0  0  0  0  0  0
    2.4464   21.9805    2.9712 C   0  0  0  0  0  0  0  0  0  0  0  0
    1.4219   23.0246    3.8962 Cl  0  0  0  0  0  0  0  0  0  0  0  0
    2.6417   20.6888    3.4455 C   0  0  0  0  0  0  0  0  0  0  0  0
    3.4505   19.7907    2.7639 C   0  0  0  0  0  0  0  0  0  0  0  0
    4.0754   20.1824    1.5894 C   0  0  0  0  0  0  0  0  0  0  0  0
    3.9613   24.4945    1.1253 O   0  0  0  0  0  0  0  0  0  0  0  0
    2.9478   23.7453    1.1776 C   0  0  0  0  0  0  0  0  0  0  0  0
    1.8736   24.1659    0.6797 O   0  0  0  0  0  0  0  0  0  0  0  0
    1.1048   23.6308    0.7042 H   0  0  0  0  0  0  0  0  0  0  0  0
    6.7634   19.0941    2.3670 C   0  0  0  0  0  0  0  0  0  0  0  0
    7.5543   20.3564    3.1379 S   0  0  0  0  0  0  0  0  0  0  0  0
    7.9008   19.6099    4.6041 C   0  0  0  0  0  0  0  0  0  0  0  0
    7.3710   18.3188    4.4964 C   0  0  0  0  0  0  0  0  0  0  0  0
    7.4999   17.0441    5.9431 Br  0  0  0  0  0  0  0  0  0  0  0  0
    6.7308   18.0103    3.2539 C   0  0  0  0  0  0  0  0  0  0  0  0
    8.1594   18.0551   -0.1426 C   0  0  0  0  0  0  0  0  0  0  0  0
    8.7148   17.1402    0.4509 O   0  0  0  0  0  0  0  0  0  0  0  0
    8.9723   18.8788   -1.0807 C   0  0  0  0  0  0  0  0  0  0  0  0
    9.1650   20.2210   -0.7863 C   0  0  0  0  0  0  0  0  0  0  0  0
    9.9263   21.0252   -1.6172 C   0  0  0  0  0  0  0  0  0  0  0  0
   10.5052   20.4745   -2.7498 C   0  0  0  0  0  0  0  0  0  0  0  0
   10.3245   19.1303   -3.0466 C   0  0  0  0  0  0  0  0  0  0  0  0
    9.5609   18.3251   -2.2082 C   0  0  0  0  0  0  0  0  0  0  0  0
 31 32  2  0  0  0
 31 30  1  0  0  0
 32 33  1  0  0  0
 30 29  2  0  0  0
 33 28  2  0  0  0
 22 21  1  0  0  0
 22 23  2  0  0  0
 21 20  1  0  0  0
 29 28  1  0  0  0
 28 26  1  0  0  0
 24 23  1  0  0  0
 23 25  1  0  0  0
  6  5  1  0  0  0
 26 27  2  0  0  0
 26  7  1  0  0  0
 20 25  2  0  0  0
 20  2  1  0  0  0
  7  5  2  0  0  0
  7  2  1  0  0  0
  5  3  1  0  0  0
  3  4  2  0  0  0
  3  1  1  0  0  0
  2  1  1  0  0  0
 16 17  2  0  0  0
  1 15  1  0  0  0
 10 15  2  0  0  0
 10  9  1  0  0  0
 17  9  1  0  0  0
 17 18  1  0  0  0
 15 14  1  0  0  0
  9 11  2  0  0  0
 14 13  2  0  0  0
 11 13  1  0  0  0
 11 12  1  0  0  0
 18 19  1  0  0  0
  6  8  1  0  0  0
M  END
> <minimizedAffinity>
-6.78579

$$$$
4IBE_11Y_A_401


 33 36  0  0  0  0  0  0  0  0999 V2000
   -0.3925   20.3828    0.5984 N   0  0  0  0  0  0  0  0  0  0  0  0
    0.5422   20.5083    1.5508 C   0  0  0  0  0  0  0  0  0  0  0  0
   -1.5841   20.0874    1.1206 C   0  0  0  0  0  0  0  0  0  0  0  0
   -2.7508   19.9393    0.4000 O   0  0  0  0  0  0  0  0  0  0  0  0
   -1.4072   19.9510    2.4987 C   0  0  0  0  0  0  0  0  0  0  0  0
   -2.3755   19.6257    3.4212 O   0  0  0  0  0  0  0  0  0  0  0  0
   -0.0523   20.1826    2.7628 C   0  0  0  0  0  0  0  0  0  0  0  0
   -2.1539   19.5585    4.3291 H   0  0  0  0  0  0  0  0  0  0  0  0
    0.9236   19.8634   -2.8469 C   0  0  0  0  0  0  0  0  0  0  0  0
    0.6570   19.6847   -1.4936 C   0  0  0  0  0  0  0  0  0  0  0  0
    0.3903   20.9783   -3.5063 C   0  0  0  0  0  0  0  0  0  0  0  0
    0.6526   21.3016   -5.1862 Cl  0  0  0  0  0  0  0  0  0  0  0  0
   -0.3899   21.8811   -2.7936 C   0  0  0  0  0  0  0  0  0  0  0  0
   -0.6456   21.6954   -1.4425 C   0  0  0  0  0  0  0  0  0  0  0  0
   -0.1180   20.5923   -0.7881 C   0  0  0  0  0  0  0  0  0  0  0  0
    1.2485   17.9687   -4.2624 O   0  0  0  0  0  0  0  0  0  0  0  0
    1.7846   18.8246   -3.5065 C   0  0  0  0  0  0  0  0  0  0  0  0
    3.0330   18.7934   -3.3677 O   0  0  0  0  0  0  0  0  0  0  0  0
    3.4584   19.4170   -2.8125 H   0  0  0  0  0  0  0  0  0  0  0  0
    1.2700   21.8079    1.5805 C   0  0  0  0  0  0  0  0  0  0  0  0
    2.8042   21.9765    0.9238 S   0  0  0  0  0  0  0  0  0  0  0  0
    3.0702   23.6025    1.2594 C   0  0  0  0  0  0  0  0  0  0  0  0
    1.9095   24.0416    1.9065 C   0  0  0  0  0  0  0  0  0  0  0  0
    1.7068   25.8698    2.4991 Br  0  0  0  0  0  0  0  0  0  0  0  0
    0.8907   23.0541    2.0957 C   0  0  0  0  0  0  0  0  0  0  0  0
    0.7330   20.0629    4.0285 C   0  0  0  0  0  0  0  0  0  0  0  0
    0.2820   20.6089    5.0268 O   0  0  0  0  0  0  0  0  0  0  0  0
    2.0126   19.3111    4.1575 C   0  0  0  0  0  0  0  0  0  0  0  0
    1.9584   17.9324    4.3045 C   0  0  0  0  0  0  0  0  0  0  0  0
    3.1196   17.1862    4.4114 C   0  0  0  0  0  0  0  0  0  0  0  0
    4.3462   17.8298    4.3630 C   0  0  0  0  0  0  0  0  0  0  0  0
    4.4092   19.2080    4.2072 C   0  0  0  0  0  0  0  0  0  0  0  0
    3.2405   19.9539    4.0977 C   0  0  0  0  0  0  0  0  0  0  0  0
 31 32  2  0  0  0
 31 30  1  0  0  0
 32 33  1  0  0  0
 30 29  2  0  0  0
 33 28  2  0  0  0
 22 21  1  0  0  0
 22 23  2  0  0  0
 21 20  1  0  0  0
 29 28  1  0  0  0
 28 26  1  0  0  0
 24 23  1  0  0  0
 23 25  1  0  0  0
  6  5  1  0  0  0
 26 27  2  0  0  0
 26  7  1  0  0  0
 20 25  2  0  0  0
 20  2  1  0  0  0
  7  5  2  0  0  0
  7  2  1  0  0  0
  5  3  1  0  0  0
  3  4  2  0  0  0
  3  1  1  0  0  0
  2  1  1  0  0  0
 16 17  2  0  0  0
  1 15  1  0  0  0
 10 15  2  0  0  0
 10  9  1  0  0  0
 17  9  1  0  0  0
 17 18  1  0  0  0
 15 14  1  0  0  0
  9 11  2  0  0  0
 14 13  2  0  0  0
 11 13  1  0  0  0
 11 12  1  0  0  0
 18 19  1  0  0  0
  6  8  1  0  0  0
M  END
> <minimizedAffinity>
-6.78249

$$$$
4IBE_11Y_A_401


 33 36  0  0  0  0  0  0  0  0999 V2000
    3.9219   21.3041    0.9878 N   0  0  0  0  0  0  0  0  0  0  0  0
    3.1645   20.3076    0.5085 C   0  0  0  0  0  0  0  0  0  0  0  0
    3.3332   22.4891    0.8179 C   0  0  0  0  0  0  0  0  0  0  0  0
    3.8439   23.6968    1.2457 O   0  0  0  0  0  0  0  0  0  0  0  0
    2.1405   22.2612    0.1289 C   0  0  0  0  0  0  0  0  0  0  0  0
    1.2322   23.2133   -0.2746 O   0  0  0  0  0  0  0  0  0  0  0  0
    2.0549   20.8825   -0.0971 C   0  0  0  0  0  0  0  0  0  0  0  0
    0.4570   22.9563   -0.7341 H   0  0  0  0  0  0  0  0  0  0  0  0
    7.5037   20.4297    1.5154 C   0  0  0  0  0  0  0  0  0  0  0  0
    6.2707   20.6392    0.9069 C   0  0  0  0  0  0  0  0  0  0  0  0
    7.6391   20.6787    2.8871 C   0  0  0  0  0  0  0  0  0  0  0  0
    9.1232   20.4563    3.7493 Cl  0  0  0  0  0  0  0  0  0  0  0  0
    6.5389   21.1262    3.6089 C   0  0  0  0  0  0  0  0  0  0  0  0
    5.3122   21.3273    2.9925 C   0  0  0  0  0  0  0  0  0  0  0  0
    5.1764   21.0809    1.6345 C   0  0  0  0  0  0  0  0  0  0  0  0
    8.9709   18.7304    0.7037 O   0  0  0  0  0  0  0  0  0  0  0  0
    8.6153   19.9386    0.6328 C   0  0  0  0  0  0  0  0  0  0  0  0
    9.1868   20.6761   -0.2088 O   0  0  0  0  0  0  0  0  0  0  0  0
    8.9430   21.5777   -0.2836 H   0  0  0  0  0  0  0  0  0  0  0  0
    2.8167   19.2310    1.4778 C   0  0  0  0  0  0  0  0  0  0  0  0
    1.9290   19.5450    2.8659 S   0  0  0  0  0  0  0  0  0  0  0  0
    1.8737   17.9946    3.5141 C   0  0  0  0  0  0  0  0  0  0  0  0
    2.5715   17.1890    2.6068 C   0  0  0  0  0  0  0  0  0  0  0  0
    2.7886   15.2902    2.8929 Br  0  0  0  0  0  0  0  0  0  0  0  0
    3.1065   17.8605    1.4615 C   0  0  0  0  0  0  0  0  0  0  0  0
    1.0670   20.0777   -0.8776 C   0  0  0  0  0  0  0  0  0  0  0  0
    0.3140   19.3447   -0.2499 O   0  0  0  0  0  0  0  0  0  0  0  0
    0.9277   20.1230   -2.3601 C   0  0  0  0  0  0  0  0  0  0  0  0
    0.3748   21.2564   -2.9386 C   0  0  0  0  0  0  0  0  0  0  0  0
    0.2391   21.3547   -4.3129 C   0  0  0  0  0  0  0  0  0  0  0  0
    0.6694   20.3082   -5.1134 C   0  0  0  0  0  0  0  0  0  0  0  0
    1.2319   19.1743   -4.5428 C   0  0  0  0  0  0  0  0  0  0  0  0
    1.3687   19.0804   -3.1619 C   0  0  0  0  0  0  0  0  0  0  0  0
 31 32  2  0  0  0
 31 30  1  0  0  0
 32 33  1  0  0  0
 30 29  2  0  0  0
 33 28  2  0  0  0
 22 21  1  0  0  0
 22 23  2  0  0  0
 21 20  1  0  0  0
 29 28  1  0  0  0
 28 26  1  0  0  0
 24 23  1  0  0  0
 23 25  1  0  0  0
  6  5  1  0  0  0
 26 27  2  0  0  0
 26  7  1  0  0  0
 20 25  2  0  0  0
 20  2  1  0  0  0
  7  5  2  0  0  0
  7  2  1  0  0  0
  5  3  1  0  0  0
  3  4  2  0  0  0
  3  1  1  0  0  0
  2  1  1  0  0  0
 16 17  2  0  0  0
  1 15  1  0  0  0
 10 15  2  0  0  0
 10  9  1  0  0  0
 17  9  1  0  0  0
 17 18  1  0  0  0
 15 14  1  0  0  0
  9 11  2  0  0  0
 14 13  2  0  0  0
 11 13  1  0  0  0
 11 12  1  0  0  0
 18 19  1  0  0  0
  6  8  1  0  0  0
M  END
> <minimizedAffinity>
-6.51488

$$$$
4IBE_11Y_A_401


 33 36  0  0  0  0  0  0  0  0999 V2000
    1.7211   20.3064    1.0844 N   0  0  0  0  0  0  0  0  0  0  0  0
    0.7095   19.7279    0.4222 C   0  0  0  0  0  0  0  0  0  0  0  0
    2.7177   19.4463    1.3004 C   0  0  0  0  0  0  0  0  0  0  0  0
    3.9118   19.7552    1.9176 O   0  0  0  0  0  0  0  0  0  0  0  0
    2.3085   18.2084    0.8010 C   0  0  0  0  0  0  0  0  0  0  0  0
    3.0235   17.0329    0.8377 O   0  0  0  0  0  0  0  0  0  0  0  0
    1.0219   18.3824    0.2783 C   0  0  0  0  0  0  0  0  0  0  0  0
    2.6584   16.2509    0.4728 H   0  0  0  0  0  0  0  0  0  0  0  0
    1.0463   23.4381    2.9844 C   0  0  0  0  0  0  0  0  0  0  0  0
    1.0518   22.1016    2.5994 C   0  0  0  0  0  0  0  0  0  0  0  0
    1.7317   24.3765    2.2024 C   0  0  0  0  0  0  0  0  0  0  0  0
    1.7959   26.0634    2.5846 Cl  0  0  0  0  0  0  0  0  0  0  0  0
    2.3986   23.9521    1.0593 C   0  0  0  0  0  0  0  0  0  0  0  0
    2.3935   22.6169    0.6819 C   0  0  0  0  0  0  0  0  0  0  0  0
    1.7151   21.6864    1.4549 C   0  0  0  0  0  0  0  0  0  0  0  0
    0.7056   23.3512    5.3456 O   0  0  0  0  0  0  0  0  0  0  0  0
    0.2854   23.7755    4.2345 C   0  0  0  0  0  0  0  0  0  0  0  0
   -0.7404   24.5012    4.2268 O   0  0  0  0  0  0  0  0  0  0  0  0
   -1.0751   24.8306    3.4160 H   0  0  0  0  0  0  0  0  0  0  0  0
    0.3107   20.3814   -0.8558 C   0  0  0  0  0  0  0  0  0  0  0  0
   -1.0817   21.3088   -0.9770 S   0  0  0  0  0  0  0  0  0  0  0  0
   -0.9806   21.7468   -2.5972 C   0  0  0  0  0  0  0  0  0  0  0  0
    0.1951   21.1517   -3.0690 C   0  0  0  0  0  0  0  0  0  0  0  0
    0.7771   21.3638   -4.8995 Br  0  0  0  0  0  0  0  0  0  0  0  0
    0.9320   20.3843   -2.1114 C   0  0  0  0  0  0  0  0  0  0  0  0
    0.0492   17.3940   -0.2784 C   0  0  0  0  0  0  0  0  0  0  0  0
   -0.7948   16.9415    0.4837 O   0  0  0  0  0  0  0  0  0  0  0  0
    0.0290   16.9402   -1.6972 C   0  0  0  0  0  0  0  0  0  0  0  0
   -1.0935   17.2166   -2.4646 C   0  0  0  0  0  0  0  0  0  0  0  0
   -1.1547   16.8309   -3.7929 C   0  0  0  0  0  0  0  0  0  0  0  0
   -0.0759   16.1683   -4.3571 C   0  0  0  0  0  0  0  0  0  0  0  0
    1.0544   15.8958   -3.5983 C   0  0  0  0  0  0  0  0  0  0  0  0
    1.1131   16.2869   -2.2650 C   0  0  0  0  0  0  0  0  0  0  0  0
 31 32  2  0  0  0
 31 30  1  0  0  0
 32 33  1  0  0  0
 30 29  2  0  0  0
 33 28  2  0  0  0
 22 21  1  0  0  0
 22 23  2  0  0  0
 21 20  1  0  0  0
 29 28  1  0  0  0
 28 26  1  0  0  0
 24 23  1  0  0  0
 23 25  1  0  0  0
  6  5  1  0  0  0
 26 27  2  0  0  0
 26  7  1  0  0  0
 20 25  2  0  0  0
 20  2  1  0  0  0
  7  5  2  0  0  0
  7  2  1  0  0  0
  5  3  1  0  0  0
  3  4  2  0  0  0
  3  1  1  0  0  0
  2  1  1  0  0  0
 16 17  2  0  0  0
  1 15  1  0  0  0
 10 15  2  0  0  0
 10  9  1  0  0  0
 17  9  1  0  0  0
 17 18  1  0  0  0
 15 14  1  0  0  0
  9 11  2  0  0  0
 14 13  2  0  0  0
 11 13  1  0  0  0
 11 12  1  0  0  0
 18 19  1  0  0  0
  6  8  1  0  0  0
M  END
> <minimizedAffinity>
-6.42682

$$$$
