4AVH_FK9_A_201


 23 23  0  0  0  0  0  0  0  0999 V2000
  -61.5225  -18.3175  -21.1053 C   0  0  0  0  0  0  0  0  0  0  0  0
  -61.2378  -18.7497  -22.4584 O   0  0  0  0  0  0  0  0  0  0  0  0
  -60.6511  -19.0743  -20.1065 C   0  0  0  0  0  0  0  0  0  0  0  0
  -61.0095  -18.7322  -18.7601 O   0  0  0  0  0  0  0  0  0  0  0  0
  -60.8131  -20.5783  -20.2765 C   0  0  0  0  0  0  0  0  0  0  0  0
  -59.9305  -21.2389  -19.3615 O   0  0  0  0  0  0  0  0  0  0  0  0
  -60.5202  -20.9715  -21.7253 C   0  0  0  0  0  0  0  0  0  0  0  0
  -59.1551  -20.6770  -22.0794 O   0  0  0  0  0  0  0  0  0  0  0  0
  -61.4237  -20.1666  -22.6547 C   0  0  0  0  0  0  0  0  0  0  0  0
  -61.9310  -18.9869  -18.5962 H   0  0  0  0  0  0  0  0  0  0  0  0
  -59.0155  -20.9770  -19.5488 H   0  0  0  0  0  0  0  0  0  0  0  0
  -58.9964  -19.7242  -21.9906 H   0  0  0  0  0  0  0  0  0  0  0  0
  -59.8912  -16.5704  -20.7663 O   0  0  0  0  0  0  0  0  0  0  0  0
  -61.2944  -16.8212  -20.9622 C   0  0  0  0  0  0  0  0  0  0  0  0
  -59.7430  -15.6162  -20.6747 H   0  0  0  0  0  0  0  0  0  0  0  0
  -62.7783  -20.5278  -22.3788 O   0  0  0  0  0  0  0  0  0  0  0  0
  -63.6147  -20.2582  -23.5000 C   0  0  0  0  0  0  0  0  0  0  0  0
  -65.0476  -20.0355  -23.0458 C   0  0  0  0  0  0  0  0  0  0  0  0
  -65.0801  -18.9237  -22.0109 C   0  0  0  0  0  0  0  0  0  0  0  0
  -66.7440  -18.5946  -21.5638 S   0  0  0  0  0  0  0  0  0  0  0  0
  -67.3034  -17.1977  -22.4862 C   0  0  0  0  0  0  0  0  0  0  0  0
  -67.6986  -16.0624  -21.5491 C   0  0  0  0  0  0  0  0  0  0  0  0
  -68.0035  -16.5765  -20.1537 C   0  0  0  0  0  0  0  0  0  0  0  0
 13 14  1  0  0  0
 14  1  1  0  0  0
  1  2  1  0  0  0
  1  3  1  0  0  0
  2  9  1  0  0  0
  3  4  1  0  0  0
  3  5  1  0  0  0
  5  6  1  0  0  0
  5  7  1  0  0  0
  7  8  1  0  0  0
  7  9  1  0  0  0
  9 16  1  0  0  0
 16 17  1  0  0  0
 17 18  1  0  0  0
 18 19  1  0  0  0
 19 20  1  0  0  0
 23 22  1  0  0  0
 22 21  1  0  0  0
 21 20  1  0  0  0
 13 15  1  0  0  0
  4 10  1  0  0  0
  6 11  1  0  0  0
  8 12  1  0  0  0
M  END
> <minimizedAffinity>
-7.11776

$$$$
4AVH_FK9_A_201


 23 23  0  0  0  0  0  0  0  0999 V2000
  -61.5173  -18.3851  -21.1784 C   0  0  0  0  0  0  0  0  0  0  0  0
  -61.1958  -18.8374  -22.5167 O   0  0  0  0  0  0  0  0  0  0  0  0
  -60.6442  -19.0965  -20.1482 C   0  0  0  0  0  0  0  0  0  0  0  0
  -61.0368  -18.7364  -18.8161 O   0  0  0  0  0  0  0  0  0  0  0  0
  -60.7621  -20.6076  -20.2890 C   0  0  0  0  0  0  0  0  0  0  0  0
  -59.8790  -21.2244  -19.3443 O   0  0  0  0  0  0  0  0  0  0  0  0
  -60.4317  -21.0227  -21.7235 C   0  0  0  0  0  0  0  0  0  0  0  0
  -59.0688  -20.6981  -22.0591 O   0  0  0  0  0  0  0  0  0  0  0  0
  -61.3394  -20.2626  -22.6859 C   0  0  0  0  0  0  0  0  0  0  0  0
  -61.9539  -19.0130  -18.6634 H   0  0  0  0  0  0  0  0  0  0  0  0
  -58.9681  -20.9413  -19.5206 H   0  0  0  0  0  0  0  0  0  0  0  0
  -58.9378  -19.7396  -21.9879 H   0  0  0  0  0  0  0  0  0  0  0  0
  -59.9490  -16.5898  -20.7964 O   0  0  0  0  0  0  0  0  0  0  0  0
  -61.3326  -16.8804  -21.0633 C   0  0  0  0  0  0  0  0  0  0  0  0
  -59.8286  -15.6302  -20.7225 H   0  0  0  0  0  0  0  0  0  0  0  0
  -62.6885  -20.6553  -22.4268 O   0  0  0  0  0  0  0  0  0  0  0  0
  -63.0645  -21.7560  -23.2495 C   0  0  0  0  0  0  0  0  0  0  0  0
  -63.2922  -21.2910  -24.6781 C   0  0  0  0  0  0  0  0  0  0  0  0
  -64.7827  -21.2823  -24.9726 C   0  0  0  0  0  0  0  0  0  0  0  0
  -65.4462  -19.7105  -24.5651 S   0  0  0  0  0  0  0  0  0  0  0  0
  -66.2262  -19.8269  -22.9861 C   0  0  0  0  0  0  0  0  0  0  0  0
  -66.1471  -18.4936  -22.2518 C   0  0  0  0  0  0  0  0  0  0  0  0
  -67.2479  -17.5487  -22.6987 C   0  0  0  0  0  0  0  0  0  0  0  0
 13 14  1  0  0  0
 14  1  1  0  0  0
  1  2  1  0  0  0
  1  3  1  0  0  0
  2  9  1  0  0  0
  3  4  1  0  0  0
  3  5  1  0  0  0
  5  6  1  0  0  0
  5  7  1  0  0  0
  7  8  1  0  0  0
  7  9  1  0  0  0
  9 16  1  0  0  0
 16 17  1  0  0  0
 17 18  1  0  0  0
 18 19  1  0  0  0
 19 20  1  0  0  0
 23 22  1  0  0  0
 22 21  1  0  0  0
 21 20  1  0  0  0
 13 15  1  0  0  0
  4 10  1  0  0  0
  6 11  1  0  0  0
  8 12  1  0  0  0
M  END
> <minimizedAffinity>
-6.69121

$$$$
4AVH_FK9_A_201


 23 23  0  0  0  0  0  0  0  0999 V2000
  -61.4937  -18.3480  -21.0968 C   0  0  0  0  0  0  0  0  0  0  0  0
  -61.1965  -18.7831  -22.4463 O   0  0  0  0  0  0  0  0  0  0  0  0
  -60.6238  -19.0947  -20.0892 C   0  0  0  0  0  0  0  0  0  0  0  0
  -60.9941  -18.7503  -18.7466 O   0  0  0  0  0  0  0  0  0  0  0  0
  -60.7739  -20.6005  -20.2547 C   0  0  0  0  0  0  0  0  0  0  0  0
  -59.8929  -21.2514  -19.3311 O   0  0  0  0  0  0  0  0  0  0  0  0
  -60.4680  -20.9969  -21.6999 C   0  0  0  0  0  0  0  0  0  0  0  0
  -59.1026  -20.6938  -22.0456 O   0  0  0  0  0  0  0  0  0  0  0  0
  -61.3708  -20.2020  -22.6385 C   0  0  0  0  0  0  0  0  0  0  0  0
  -61.9148  -19.0110  -18.5881 H   0  0  0  0  0  0  0  0  0  0  0  0
  -58.9785  -20.9835  -19.5130 H   0  0  0  0  0  0  0  0  0  0  0  0
  -58.9514  -19.7396  -21.9593 H   0  0  0  0  0  0  0  0  0  0  0  0
  -59.8735  -16.5854  -20.7861 O   0  0  0  0  0  0  0  0  0  0  0  0
  -61.2774  -16.8495  -20.9578 C   0  0  0  0  0  0  0  0  0  0  0  0
  -59.7328  -15.6298  -20.6972 H   0  0  0  0  0  0  0  0  0  0  0  0
  -62.7246  -20.5720  -22.3707 O   0  0  0  0  0  0  0  0  0  0  0  0
  -63.4325  -20.8212  -23.5816 C   0  0  0  0  0  0  0  0  0  0  0  0
  -63.0877  -22.2005  -24.1181 C   0  0  0  0  0  0  0  0  0  0  0  0
  -63.4455  -23.2485  -23.0780 C   0  0  0  0  0  0  0  0  0  0  0  0
  -64.7633  -24.2376  -23.6794 S   0  0  0  0  0  0  0  0  0  0  0  0
  -66.0969  -24.1507  -22.5264 C   0  0  0  0  0  0  0  0  0  0  0  0
  -66.1541  -22.7720  -21.8790 C   0  0  0  0  0  0  0  0  0  0  0  0
  -67.4303  -22.5887  -21.0777 C   0  0  0  0  0  0  0  0  0  0  0  0
 13 14  1  0  0  0
 14  1  1  0  0  0
  1  2  1  0  0  0
  1  3  1  0  0  0
  2  9  1  0  0  0
  3  4  1  0  0  0
  3  5  1  0  0  0
  5  6  1  0  0  0
  5  7  1  0  0  0
  7  8  1  0  0  0
  7  9  1  0  0  0
  9 16  1  0  0  0
 16 17  1  0  0  0
 17 18  1  0  0  0
 18 19  1  0  0  0
 19 20  1  0  0  0
 23 22  1  0  0  0
 22 21  1  0  0  0
 21 20  1  0  0  0
 13 15  1  0  0  0
  4 10  1  0  0  0
  6 11  1  0  0  0
  8 12  1  0  0  0
M  END
> <minimizedAffinity>
-6.24944

$$$$
4AVH_FK9_A_201


 23 23  0  0  0  0  0  0  0  0999 V2000
  -60.4345  -20.7693  -21.5802 C   0  0  0  0  0  0  0  0  0  0  0  0
  -61.7279  -21.3748  -21.8231 O   0  0  0  0  0  0  0  0  0  0  0  0
  -60.3841  -20.1549  -20.1839 C   0  0  0  0  0  0  0  0  0  0  0  0
  -59.1474  -19.4562  -19.9821 O   0  0  0  0  0  0  0  0  0  0  0  0
  -61.5274  -19.1701  -19.9836 C   0  0  0  0  0  0  0  0  0  0  0  0
  -61.4706  -18.6714  -18.6416 O   0  0  0  0  0  0  0  0  0  0  0  0
  -62.8622  -19.8585  -20.2729 C   0  0  0  0  0  0  0  0  0  0  0  0
  -63.1024  -20.9384  -19.3499 O   0  0  0  0  0  0  0  0  0  0  0  0
  -62.8257  -20.4503  -21.6787 C   0  0  0  0  0  0  0  0  0  0  0  0
  -59.0770  -18.7317  -20.6232 H   0  0  0  0  0  0  0  0  0  0  0  0
  -61.5514  -19.4103  -18.0184 H   0  0  0  0  0  0  0  0  0  0  0  0
  -62.3994  -21.6010  -19.4376 H   0  0  0  0  0  0  0  0  0  0  0  0
  -58.1740  -21.1698  -22.3275 O   0  0  0  0  0  0  0  0  0  0  0  0
  -59.3249  -21.7972  -21.7343 C   0  0  0  0  0  0  0  0  0  0  0  0
  -57.4645  -21.8237  -22.4268 H   0  0  0  0  0  0  0  0  0  0  0  0
  -62.6885  -19.3747  -22.6092 O   0  0  0  0  0  0  0  0  0  0  0  0
  -63.2463  -19.7219  -23.8733 C   0  0  0  0  0  0  0  0  0  0  0  0
  -64.6577  -20.2563  -23.6964 C   0  0  0  0  0  0  0  0  0  0  0  0
  -65.5892  -19.5461  -24.6640 C   0  0  0  0  0  0  0  0  0  0  0  0
  -67.0698  -19.1098  -23.8306 S   0  0  0  0  0  0  0  0  0  0  0  0
  -66.6499  -18.1286  -22.4249 C   0  0  0  0  0  0  0  0  0  0  0  0
  -67.5601  -16.9094  -22.3335 C   0  0  0  0  0  0  0  0  0  0  0  0
  -67.3762  -16.1782  -21.0160 C   0  0  0  0  0  0  0  0  0  0  0  0
 13 14  1  0  0  0
 14  1  1  0  0  0
  1  2  1  0  0  0
  1  3  1  0  0  0
  2  9  1  0  0  0
  3  4  1  0  0  0
  3  5  1  0  0  0
  5  6  1  0  0  0
  5  7  1  0  0  0
  7  8  1  0  0  0
  7  9  1  0  0  0
  9 16  1  0  0  0
 16 17  1  0  0  0
 17 18  1  0  0  0
 18 19  1  0  0  0
 19 20  1  0  0  0
 23 22  1  0  0  0
 22 21  1  0  0  0
 21 20  1  0  0  0
 13 15  1  0  0  0
  4 10  1  0  0  0
  6 11  1  0  0  0
  8 12  1  0  0  0
M  END
> <minimizedAffinity>
-6.17504

$$$$
4AVH_FK9_A_201


 23 23  0  0  0  0  0  0  0  0999 V2000
  -61.5017  -18.3206  -21.0716 C   0  0  0  0  0  0  0  0  0  0  0  0
  -61.2482  -18.7533  -22.4308 O   0  0  0  0  0  0  0  0  0  0  0  0
  -60.6098  -19.0794  -20.0926 C   0  0  0  0  0  0  0  0  0  0  0  0
  -60.9374  -18.7367  -18.7385 O   0  0  0  0  0  0  0  0  0  0  0  0
  -60.7790  -20.5831  -20.2591 C   0  0  0  0  0  0  0  0  0  0  0  0
  -59.8777  -21.2458  -19.3640 O   0  0  0  0  0  0  0  0  0  0  0  0
  -60.5194  -20.9768  -21.7141 C   0  0  0  0  0  0  0  0  0  0  0  0
  -59.1618  -20.6853  -22.0984 O   0  0  0  0  0  0  0  0  0  0  0  0
  -61.4416  -20.1697  -22.6230 C   0  0  0  0  0  0  0  0  0  0  0  0
  -61.8555  -18.9893  -18.5541 H   0  0  0  0  0  0  0  0  0  0  0  0
  -58.9665  -20.9859  -19.5716 H   0  0  0  0  0  0  0  0  0  0  0  0
  -58.9991  -19.7328  -22.0132 H   0  0  0  0  0  0  0  0  0  0  0  0
  -59.8566  -16.5750  -20.7982 O   0  0  0  0  0  0  0  0  0  0  0  0
  -61.2670  -16.8248  -20.9336 C   0  0  0  0  0  0  0  0  0  0  0  0
  -59.7042  -15.6211  -20.7099 H   0  0  0  0  0  0  0  0  0  0  0  0
  -62.7905  -20.5280  -22.3169 O   0  0  0  0  0  0  0  0  0  0  0  0
  -63.0519  -21.8806  -22.6797 C   0  0  0  0  0  0  0  0  0  0  0  0
  -63.2932  -21.9864  -24.1763 C   0  0  0  0  0  0  0  0  0  0  0  0
  -64.6113  -22.7003  -24.4239 C   0  0  0  0  0  0  0  0  0  0  0  0
  -65.5609  -21.7829  -25.5786 S   0  0  0  0  0  0  0  0  0  0  0  0
  -64.4677  -21.1102  -26.7901 C   0  0  0  0  0  0  0  0  0  0  0  0
  -64.6627  -19.6030  -26.9072 C   0  0  0  0  0  0  0  0  0  0  0  0
  -63.3348  -18.8823  -27.0540 C   0  0  0  0  0  0  0  0  0  0  0  0
 13 14  1  0  0  0
 14  1  1  0  0  0
  1  2  1  0  0  0
  1  3  1  0  0  0
  2  9  1  0  0  0
  3  4  1  0  0  0
  3  5  1  0  0  0
  5  6  1  0  0  0
  5  7  1  0  0  0
  7  8  1  0  0  0
  7  9  1  0  0  0
  9 16  1  0  0  0
 16 17  1  0  0  0
 17 18  1  0  0  0
 18 19  1  0  0  0
 19 20  1  0  0  0
 23 22  1  0  0  0
 22 21  1  0  0  0
 21 20  1  0  0  0
 13 15  1  0  0  0
  4 10  1  0  0  0
  6 11  1  0  0  0
  8 12  1  0  0  0
M  END
> <minimizedAffinity>
-6.15887

$$$$
4AVH_FK9_A_201


 23 23  0  0  0  0  0  0  0  0999 V2000
  -61.6528  -18.1961  -20.8795 C   0  0  0  0  0  0  0  0  0  0  0  0
  -61.7716  -18.4349  -22.3034 O   0  0  0  0  0  0  0  0  0  0  0  0
  -60.5901  -19.1066  -20.2702 C   0  0  0  0  0  0  0  0  0  0  0  0
  -60.5493  -18.9544  -18.8442 O   0  0  0  0  0  0  0  0  0  0  0  0
  -60.8814  -20.5668  -20.5867 C   0  0  0  0  0  0  0  0  0  0  0  0
  -59.8249  -21.3705  -20.0475 O   0  0  0  0  0  0  0  0  0  0  0  0
  -61.0159  -20.7535  -22.0988 C   0  0  0  0  0  0  0  0  0  0  0  0
  -59.7827  -20.4395  -22.7743 O   0  0  0  0  0  0  0  0  0  0  0  0
  -62.0877  -19.8046  -22.6267 C   0  0  0  0  0  0  0  0  0  0  0  0
  -61.4054  -19.2109  -18.4671 H   0  0  0  0  0  0  0  0  0  0  0  0
  -58.9810  -21.1034  -20.4441 H   0  0  0  0  0  0  0  0  0  0  0  0
  -59.5494  -19.5129  -22.6073 H   0  0  0  0  0  0  0  0  0  0  0  0
  -59.8879  -16.5529  -20.7645 O   0  0  0  0  0  0  0  0  0  0  0  0
  -61.3057  -16.7410  -20.6080 C   0  0  0  0  0  0  0  0  0  0  0  0
  -59.6638  -15.6250  -20.5918 H   0  0  0  0  0  0  0  0  0  0  0  0
  -63.3359  -20.1736  -22.0374 O   0  0  0  0  0  0  0  0  0  0  0  0
  -64.4217  -19.5415  -22.7090 C   0  0  0  0  0  0  0  0  0  0  0  0
  -65.1178  -20.5301  -23.6296 C   0  0  0  0  0  0  0  0  0  0  0  0
  -65.1858  -19.9494  -25.0319 C   0  0  0  0  0  0  0  0  0  0  0  0
  -64.5519  -21.1181  -26.1760 S   0  0  0  0  0  0  0  0  0  0  0  0
  -63.4229  -22.1751  -25.3255 C   0  0  0  0  0  0  0  0  0  0  0  0
  -63.4201  -23.5658  -25.9493 C   0  0  0  0  0  0  0  0  0  0  0  0
  -62.4166  -23.6620  -27.0842 C   0  0  0  0  0  0  0  0  0  0  0  0
 13 14  1  0  0  0
 14  1  1  0  0  0
  1  2  1  0  0  0
  1  3  1  0  0  0
  2  9  1  0  0  0
  3  4  1  0  0  0
  3  5  1  0  0  0
  5  6  1  0  0  0
  5  7  1  0  0  0
  7  8  1  0  0  0
  7  9  1  0  0  0
  9 16  1  0  0  0
 16 17  1  0  0  0
 17 18  1  0  0  0
 18 19  1  0  0  0
 19 20  1  0  0  0
 23 22  1  0  0  0
 22 21  1  0  0  0
 21 20  1  0  0  0
 13 15  1  0  0  0
  4 10  1  0  0  0
  6 11  1  0  0  0
  8 12  1  0  0  0
M  END
> <minimizedAffinity>
-5.85552

$$$$
4AVH_FK9_A_201


 23 23  0  0  0  0  0  0  0  0999 V2000
  -61.9283  -18.1077  -21.0861 C   0  0  0  0  0  0  0  0  0  0  0  0
  -62.2445  -18.6883  -22.3751 O   0  0  0  0  0  0  0  0  0  0  0  0
  -61.8099  -19.1961  -20.0226 C   0  0  0  0  0  0  0  0  0  0  0  0
  -61.6101  -18.6173  -18.7252 O   0  0  0  0  0  0  0  0  0  0  0  0
  -63.0705  -20.0482  -19.9766 C   0  0  0  0  0  0  0  0  0  0  0  0
  -62.8832  -21.0887  -19.0097 O   0  0  0  0  0  0  0  0  0  0  0  0
  -63.3642  -20.6161  -21.3660 C   0  0  0  0  0  0  0  0  0  0  0  0
  -62.3084  -21.4930  -21.8043 O   0  0  0  0  0  0  0  0  0  0  0  0
  -63.4580  -19.4679  -22.3664 C   0  0  0  0  0  0  0  0  0  0  0  0
  -62.3746  -18.0661  -18.4958 H   0  0  0  0  0  0  0  0  0  0  0  0
  -62.1205  -21.6319  -19.2630 H   0  0  0  0  0  0  0  0  0  0  0  0
  -61.4762  -20.9972  -21.8542 H   0  0  0  0  0  0  0  0  0  0  0  0
  -60.7785  -16.0979  -20.4026 O   0  0  0  0  0  0  0  0  0  0  0  0
  -60.6345  -17.3127  -21.1600 C   0  0  0  0  0  0  0  0  0  0  0  0
  -59.9541  -15.5888  -20.4482 H   0  0  0  0  0  0  0  0  0  0  0  0
  -64.5674  -18.6470  -21.9965 O   0  0  0  0  0  0  0  0  0  0  0  0
  -65.7507  -19.0548  -22.6769 C   0  0  0  0  0  0  0  0  0  0  0  0
  -66.8707  -19.3045  -21.6807 C   0  0  0  0  0  0  0  0  0  0  0  0
  -68.1578  -18.6926  -22.2072 C   0  0  0  0  0  0  0  0  0  0  0  0
  -67.8429  -17.0543  -22.7493 S   0  0  0  0  0  0  0  0  0  0  0  0
  -67.6377  -16.0268  -21.3289 C   0  0  0  0  0  0  0  0  0  0  0  0
  -68.9682  -15.4029  -20.9244 C   0  0  0  0  0  0  0  0  0  0  0  0
  -69.4324  -15.9153  -19.5730 C   0  0  0  0  0  0  0  0  0  0  0  0
 13 14  1  0  0  0
 14  1  1  0  0  0
  1  2  1  0  0  0
  1  3  1  0  0  0
  2  9  1  0  0  0
  3  4  1  0  0  0
  3  5  1  0  0  0
  5  6  1  0  0  0
  5  7  1  0  0  0
  7  8  1  0  0  0
  7  9  1  0  0  0
  9 16  1  0  0  0
 16 17  1  0  0  0
 17 18  1  0  0  0
 18 19  1  0  0  0
 19 20  1  0  0  0
 23 22  1  0  0  0
 22 21  1  0  0  0
 21 20  1  0  0  0
 13 15  1  0  0  0
  4 10  1  0  0  0
  6 11  1  0  0  0
  8 12  1  0  0  0
M  END
> <minimizedAffinity>
-5.47578

$$$$
4AVH_FK9_A_201


 23 23  0  0  0  0  0  0  0  0999 V2000
  -60.6810  -20.4908  -21.5774 C   0  0  0  0  0  0  0  0  0  0  0  0
  -61.8890  -21.2824  -21.6911 O   0  0  0  0  0  0  0  0  0  0  0  0
  -60.5624  -19.8921  -20.1784 C   0  0  0  0  0  0  0  0  0  0  0  0
  -59.4289  -19.0165  -20.0963 O   0  0  0  0  0  0  0  0  0  0  0  0
  -61.8091  -19.0943  -19.8229 C   0  0  0  0  0  0  0  0  0  0  0  0
  -61.6733  -18.6083  -18.4820 O   0  0  0  0  0  0  0  0  0  0  0  0
  -63.0507  -19.9736  -19.9805 C   0  0  0  0  0  0  0  0  0  0  0  0
  -63.0192  -21.0880  -19.0680 O   0  0  0  0  0  0  0  0  0  0  0  0
  -63.0883  -20.5366  -21.3981 C   0  0  0  0  0  0  0  0  0  0  0  0
  -59.5417  -18.2823  -20.7202 H   0  0  0  0  0  0  0  0  0  0  0  0
  -61.5707  -19.3581  -17.8752 H   0  0  0  0  0  0  0  0  0  0  0  0
  -62.2401  -21.6354  -19.2529 H   0  0  0  0  0  0  0  0  0  0  0  0
  -58.7117  -21.5542  -20.6722 O   0  0  0  0  0  0  0  0  0  0  0  0
  -59.4557  -21.3370  -21.8843 C   0  0  0  0  0  0  0  0  0  0  0  0
  -57.9293  -22.0939  -20.8654 H   0  0  0  0  0  0  0  0  0  0  0  0
  -63.2211  -19.4419  -22.3067 O   0  0  0  0  0  0  0  0  0  0  0  0
  -64.5420  -18.9095  -22.2714 C   0  0  0  0  0  0  0  0  0  0  0  0
  -65.5251  -19.9012  -22.8706 C   0  0  0  0  0  0  0  0  0  0  0  0
  -66.2471  -19.2505  -24.0384 C   0  0  0  0  0  0  0  0  0  0  0  0
  -65.8177  -20.0811  -25.5225 S   0  0  0  0  0  0  0  0  0  0  0  0
  -64.1408  -19.6933  -25.9134 C   0  0  0  0  0  0  0  0  0  0  0  0
  -63.3605  -20.9622  -26.2363 C   0  0  0  0  0  0  0  0  0  0  0  0
  -63.1316  -21.8033  -24.9936 C   0  0  0  0  0  0  0  0  0  0  0  0
 13 14  1  0  0  0
 14  1  1  0  0  0
  1  2  1  0  0  0
  1  3  1  0  0  0
  2  9  1  0  0  0
  3  4  1  0  0  0
  3  5  1  0  0  0
  5  6  1  0  0  0
  5  7  1  0  0  0
  7  8  1  0  0  0
  7  9  1  0  0  0
  9 16  1  0  0  0
 16 17  1  0  0  0
 17 18  1  0  0  0
 18 19  1  0  0  0
 19 20  1  0  0  0
 23 22  1  0  0  0
 22 21  1  0  0  0
 21 20  1  0  0  0
 13 15  1  0  0  0
  4 10  1  0  0  0
  6 11  1  0  0  0
  8 12  1  0  0  0
M  END
> <minimizedAffinity>
-5.45743

$$$$
4AVH_FK9_A_201


 23 23  0  0  0  0  0  0  0  0999 V2000
  -61.8383  -19.1779  -20.9851 C   0  0  0  0  0  0  0  0  0  0  0  0
  -61.0459  -19.5332  -22.1447 O   0  0  0  0  0  0  0  0  0  0  0  0
  -62.5055  -20.4160  -20.3921 C   0  0  0  0  0  0  0  0  0  0  0  0
  -63.3804  -20.0532  -19.3146 O   0  0  0  0  0  0  0  0  0  0  0  0
  -63.3241  -21.1478  -21.4464 C   0  0  0  0  0  0  0  0  0  0  0  0
  -63.8758  -22.3310  -20.8560 O   0  0  0  0  0  0  0  0  0  0  0  0
  -62.4421  -21.4781  -22.6516 C   0  0  0  0  0  0  0  0  0  0  0  0
  -61.3744  -22.3737  -22.2861 O   0  0  0  0  0  0  0  0  0  0  0  0
  -61.8093  -20.1925  -23.1758 C   0  0  0  0  0  0  0  0  0  0  0  0
  -64.0830  -19.4743  -19.6495 H   0  0  0  0  0  0  0  0  0  0  0  0
  -63.1568  -22.8982  -20.5364 H   0  0  0  0  0  0  0  0  0  0  0  0
  -60.8159  -21.9534  -21.6135 H   0  0  0  0  0  0  0  0  0  0  0  0
  -60.3744  -19.5039  -19.0933 O   0  0  0  0  0  0  0  0  0  0  0  0
  -60.9739  -18.5013  -19.9332 C   0  0  0  0  0  0  0  0  0  0  0  0
  -59.8222  -19.0747  -18.4212 H   0  0  0  0  0  0  0  0  0  0  0  0
  -62.8578  -19.3371  -23.6345 O   0  0  0  0  0  0  0  0  0  0  0  0
  -63.1609  -19.5934  -25.0027 C   0  0  0  0  0  0  0  0  0  0  0  0
  -64.6556  -19.8017  -25.1802 C   0  0  0  0  0  0  0  0  0  0  0  0
  -65.3435  -19.6841  -23.8307 C   0  0  0  0  0  0  0  0  0  0  0  0
  -66.8551  -18.8153  -24.0229 S   0  0  0  0  0  0  0  0  0  0  0  0
  -67.5407  -18.5282  -22.4220 C   0  0  0  0  0  0  0  0  0  0  0  0
  -67.0510  -17.1979  -21.8620 C   0  0  0  0  0  0  0  0  0  0  0  0
  -67.7710  -16.8400  -20.5745 C   0  0  0  0  0  0  0  0  0  0  0  0
 13 14  1  0  0  0
 14  1  1  0  0  0
  1  2  1  0  0  0
  1  3  1  0  0  0
  2  9  1  0  0  0
  3  4  1  0  0  0
  3  5  1  0  0  0
  5  6  1  0  0  0
  5  7  1  0  0  0
  7  8  1  0  0  0
  7  9  1  0  0  0
  9 16  1  0  0  0
 16 17  1  0  0  0
 17 18  1  0  0  0
 18 19  1  0  0  0
 19 20  1  0  0  0
 23 22  1  0  0  0
 22 21  1  0  0  0
 21 20  1  0  0  0
 13 15  1  0  0  0
  4 10  1  0  0  0
  6 11  1  0  0  0
  8 12  1  0  0  0
M  END
> <minimizedAffinity>
-5.26844

$$$$
4AVH_FK9_A_201


 23 23  0  0  0  0  0  0  0  0999 V2000
  -62.2125  -20.0752  -20.4774 C   0  0  0  0  0  0  0  0  0  0  0  0
  -62.8842  -19.4649  -21.6067 O   0  0  0  0  0  0  0  0  0  0  0  0
  -60.7177  -20.2127  -20.7534 C   0  0  0  0  0  0  0  0  0  0  0  0
  -60.0683  -20.9187  -19.6866 O   0  0  0  0  0  0  0  0  0  0  0  0
  -60.4735  -20.9743  -22.0486 C   0  0  0  0  0  0  0  0  0  0  0  0
  -59.0623  -21.0206  -22.2918 O   0  0  0  0  0  0  0  0  0  0  0  0
  -61.2215  -20.2970  -23.1980 C   0  0  0  0  0  0  0  0  0  0  0  0
  -60.7302  -18.9617  -23.4242 O   0  0  0  0  0  0  0  0  0  0  0  0
  -62.7007  -20.1917  -22.8391 C   0  0  0  0  0  0  0  0  0  0  0  0
  -60.4370  -21.8134  -19.6195 H   0  0  0  0  0  0  0  0  0  0  0  0
  -58.7168  -20.1171  -22.3639 H   0  0  0  0  0  0  0  0  0  0  0  0
  -60.8642  -18.4282  -22.6253 H   0  0  0  0  0  0  0  0  0  0  0  0
  -61.2216  -18.5523  -18.8877 O   0  0  0  0  0  0  0  0  0  0  0  0
  -62.4333  -19.2550  -19.2165 C   0  0  0  0  0  0  0  0  0  0  0  0
  -61.3598  -18.0282  -18.0833 H   0  0  0  0  0  0  0  0  0  0  0  0
  -63.2214  -21.5161  -22.7113 O   0  0  0  0  0  0  0  0  0  0  0  0
  -64.6355  -21.5252  -22.8838 C   0  0  0  0  0  0  0  0  0  0  0  0
  -65.2765  -22.5107  -21.9210 C   0  0  0  0  0  0  0  0  0  0  0  0
  -65.8875  -23.6577  -22.7081 C   0  0  0  0  0  0  0  0  0  0  0  0
  -64.8723  -25.0790  -22.5462 S   0  0  0  0  0  0  0  0  0  0  0  0
  -64.0366  -25.3446  -24.0780 C   0  0  0  0  0  0  0  0  0  0  0  0
  -62.6498  -24.7132  -24.0462 C   0  0  0  0  0  0  0  0  0  0  0  0
  -62.0171  -24.8344  -22.6717 C   0  0  0  0  0  0  0  0  0  0  0  0
 13 14  1  0  0  0
 14  1  1  0  0  0
  1  2  1  0  0  0
  1  3  1  0  0  0
  2  9  1  0  0  0
  3  4  1  0  0  0
  3  5  1  0  0  0
  5  6  1  0  0  0
  5  7  1  0  0  0
  7  8  1  0  0  0
  7  9  1  0  0  0
  9 16  1  0  0  0
 16 17  1  0  0  0
 17 18  1  0  0  0
 18 19  1  0  0  0
 19 20  1  0  0  0
 23 22  1  0  0  0
 22 21  1  0  0  0
 21 20  1  0  0  0
 13 15  1  0  0  0
  4 10  1  0  0  0
  6 11  1  0  0  0
  8 12  1  0  0  0
M  END
> <minimizedAffinity>
-4.76092

$$$$
