6G98_ER5_A_302


 42 44  0  0  0  0  0  0  0  0999 V2000
   17.1026  -24.2491  -52.8795 F   0  0  0  0  0  0  0  0  0  0  0  0
   18.0576  -23.6260  -53.5602 C   0  0  0  0  0  0  0  0  0  0  0  0
   19.3325  -23.3705  -52.8738 C   0  0  0  0  0  0  0  0  0  0  0  0
   20.4141  -22.6804  -53.5712 C   0  0  0  0  0  0  0  0  0  0  0  0
   21.5812  -22.4636  -52.9553 F   0  0  0  0  0  0  0  0  0  0  0  0
   20.2051  -22.2198  -54.9413 C   0  0  0  0  0  0  0  0  0  0  0  0
   21.2406  -21.6066  -55.4953 F   0  0  0  0  0  0  0  0  0  0  0  0
   17.8220  -23.1522  -54.9414 C   0  0  0  0  0  0  0  0  0  0  0  0
   18.9279  -22.4478  -55.6677 C   0  0  0  0  0  0  0  0  0  0  0  0
   18.8267  -21.9072  -57.1957 S   0  0  0  0  0  0  0  0  0  0  0  0
   17.5301  -22.0700  -57.7873 O   0  0  0  0  0  0  0  0  0  0  0  0
   19.1790  -20.3420  -57.2037 N   0  0  0  0  0  0  0  0  0  0  0  0
   19.7799  -22.6481  -57.9975 O   0  0  0  0  0  0  0  0  0  0  0  0
   19.1202  -19.9851  -58.1575 H   0  0  0  0  0  0  0  0  0  0  0  0
   20.1246  -20.2044  -56.8469 H   0  0  0  0  0  0  0  0  0  0  0  0
   16.6995  -23.4843  -55.6050 N   0  0  0  0  0  0  0  0  0  0  0  0
   16.2591  -22.8082  -56.1691 H   0  0  0  0  0  0  0  0  0  0  0  0
   16.1125  -24.8290  -55.5109 C   0  0  0  0  0  0  0  0  0  0  0  0
   14.5951  -24.8474  -55.7680 C   0  0  0  0  0  0  0  0  0  0  0  0
   13.9752  -25.3671  -57.0670 C   0  0  0  0  0  0  0  0  0  0  0  0
   13.3848  -26.7763  -56.9887 C   0  0  0  0  0  0  0  0  0  0  0  0
   14.3773  -27.9112  -57.2221 C   0  0  0  0  0  0  0  0  0  0  0  0
   14.9125  -27.9369  -58.6481 C   0  0  0  0  0  0  0  0  0  0  0  0
   16.0455  -28.9549  -58.7819 C   0  0  0  0  0  0  0  0  0  0  0  0
   17.4300  -28.3620  -58.5532 C   0  0  0  0  0  0  0  0  0  0  0  0
   18.0121  -28.6801  -57.1781 C   0  0  0  0  0  0  0  0  0  0  0  0
   18.7390  -27.4786  -56.5827 C   0  0  0  0  0  0  0  0  0  0  0  0
   17.8112  -26.6796  -55.6741 C   0  0  0  0  0  0  0  0  0  0  0  0
   16.9844  -25.6718  -56.4553 C   0  0  0  0  0  0  0  0  0  0  0  0
   19.6295  -23.9180  -51.3136 S   0  0  0  0  0  0  0  0  0  0  0  0
   20.6498  -25.3740  -51.5822 C   0  0  0  0  0  0  0  0  0  0  0  0
   20.0930  -26.5402  -52.4401 C   0  0  0  0  0  0  0  0  0  0  0  0
   19.0850  -27.3347  -51.6403 C   0  0  0  0  0  0  0  0  0  0  0  0
   19.5098  -28.0728  -50.5338 C   0  0  0  0  0  0  0  0  0  0  0  0
   18.5705  -28.7736  -49.7690 C   0  0  0  0  0  0  0  0  0  0  0  0
   17.2076  -28.7518  -50.1201 C   0  0  0  0  0  0  0  0  0  0  0  0
   16.7817  -27.9978  -51.2283 C   0  0  0  0  0  0  0  0  0  0  0  0
   17.7206  -27.2976  -51.9850 C   0  0  0  0  0  0  0  0  0  0  0  0
   16.2084  -29.4756  -49.2612 C   0  0  0  0  0  0  0  0  0  0  0  0
   16.1084  -30.7058  -49.2825 O   0  0  0  0  0  0  0  0  0  0  0  0
   15.3449  -28.7618  -48.5472 O   0  0  0  0  0  0  0  0  0  0  0  0
   15.4140  -27.8276  -48.5259 H   0  0  0  0  0  0  0  0  0  0  0  0
 24 25  1  0  0  0
 24 23  1  0  0  0
 25 26  1  0  0  0
 23 22  1  0  0  0
 13 10  2  0  0  0
 26 27  1  0  0  0
 11 10  2  0  0  0
 10 12  1  0  0  0
 10  9  1  0  0  0
 27 28  1  0  0  0
 22 21  1  0  0  0
 20 21  1  0  0  0
 20 19  1  0  0  0
 29 28  1  0  0  0
 29 18  1  0  0  0
  9  6  2  0  0  0
  9  8  1  0  0  0
 16 18  1  0  0  0
 16  8  1  0  0  0
  7  6  1  0  0  0
 19 18  1  0  0  0
  6  4  1  0  0  0
  8  2  2  0  0  0
  4  5  1  0  0  0
  4  3  2  0  0  0
  2  3  1  0  0  0
  2  1  1  0  0  0
  3 30  1  0  0  0
 32 31  1  0  0  0
 32 33  1  0  0  0
 31 30  1  0  0  0
 38 33  2  0  0  0
 38 37  1  0  0  0
 33 34  1  0  0  0
 37 36  2  0  0  0
 34 35  2  0  0  0
 36 35  1  0  0  0
 36 39  1  0  0  0
 39 40  2  0  0  0
 39 41  1  0  0  0
 41 42  1  0  0  0
 12 14  1  0  0  0
 12 15  1  0  0  0
 16 17  1  0  0  0
M  END
> <minimizedAffinity>
-8.64608

$$$$
6G98_ER5_A_302


 42 44  0  0  0  0  0  0  0  0999 V2000
   17.1470  -24.3922  -52.7910 F   0  0  0  0  0  0  0  0  0  0  0  0
   18.0712  -23.7498  -53.4957 C   0  0  0  0  0  0  0  0  0  0  0  0
   19.3777  -23.5184  -52.8620 C   0  0  0  0  0  0  0  0  0  0  0  0
   20.4278  -22.8086  -53.5872 C   0  0  0  0  0  0  0  0  0  0  0  0
   21.6231  -22.6134  -53.0201 F   0  0  0  0  0  0  0  0  0  0  0  0
   20.1566  -22.3047  -54.9310 C   0  0  0  0  0  0  0  0  0  0  0  0
   21.1671  -21.6763  -55.5134 F   0  0  0  0  0  0  0  0  0  0  0  0
   17.7730  -23.2323  -54.8488 C   0  0  0  0  0  0  0  0  0  0  0  0
   18.8461  -22.5075  -55.6036 C   0  0  0  0  0  0  0  0  0  0  0  0
   18.6755  -21.9188  -57.1075 S   0  0  0  0  0  0  0  0  0  0  0  0
   17.3248  -21.9352  -57.5905 O   0  0  0  0  0  0  0  0  0  0  0  0
   19.1837  -20.3970  -57.1167 N   0  0  0  0  0  0  0  0  0  0  0  0
   19.4791  -22.7297  -58.0003 O   0  0  0  0  0  0  0  0  0  0  0  0
   19.0835  -20.0108  -58.0554 H   0  0  0  0  0  0  0  0  0  0  0  0
   20.1645  -20.3645  -56.8385 H   0  0  0  0  0  0  0  0  0  0  0  0
   16.6196  -23.5413  -55.4693 N   0  0  0  0  0  0  0  0  0  0  0  0
   15.8637  -22.9129  -55.4152 H   0  0  0  0  0  0  0  0  0  0  0  0
   16.4572  -24.7915  -56.2259 C   0  0  0  0  0  0  0  0  0  0  0  0
   17.5745  -25.8144  -55.9531 C   0  0  0  0  0  0  0  0  0  0  0  0
   17.3710  -27.0622  -55.0908 C   0  0  0  0  0  0  0  0  0  0  0  0
   17.1741  -28.3655  -55.8673 C   0  0  0  0  0  0  0  0  0  0  0  0
   15.7402  -28.6540  -56.3009 C   0  0  0  0  0  0  0  0  0  0  0  0
   14.8133  -28.9167  -55.1209 C   0  0  0  0  0  0  0  0  0  0  0  0
   13.3586  -29.0003  -55.5845 C   0  0  0  0  0  0  0  0  0  0  0  0
   12.6217  -27.6681  -55.5281 C   0  0  0  0  0  0  0  0  0  0  0  0
   12.4677  -26.9961  -56.8903 C   0  0  0  0  0  0  0  0  0  0  0  0
   12.6824  -25.4887  -56.8020 C   0  0  0  0  0  0  0  0  0  0  0  0
   14.1289  -25.1277  -57.1217 C   0  0  0  0  0  0  0  0  0  0  0  0
   15.0217  -25.2306  -55.8962 C   0  0  0  0  0  0  0  0  0  0  0  0
   19.7453  -24.1152  -51.3353 S   0  0  0  0  0  0  0  0  0  0  0  0
   20.6127  -25.6481  -51.6975 C   0  0  0  0  0  0  0  0  0  0  0  0
   19.8627  -26.7844  -52.4406 C   0  0  0  0  0  0  0  0  0  0  0  0
   18.9379  -27.5044  -51.4849 C   0  0  0  0  0  0  0  0  0  0  0  0
   19.4689  -28.1555  -50.3699 C   0  0  0  0  0  0  0  0  0  0  0  0
   18.6091  -28.7855  -49.4632 C   0  0  0  0  0  0  0  0  0  0  0  0
   17.2184  -28.7805  -49.6797 C   0  0  0  0  0  0  0  0  0  0  0  0
   16.6859  -28.1137  -50.7977 C   0  0  0  0  0  0  0  0  0  0  0  0
   17.5462  -27.4837  -51.6963 C   0  0  0  0  0  0  0  0  0  0  0  0
   16.3081  -29.4254  -48.6721 C   0  0  0  0  0  0  0  0  0  0  0  0
   15.0874  -29.2427  -48.6931 O   0  0  0  0  0  0  0  0  0  0  0  0
   16.8482  -30.1189  -47.6759 O   0  0  0  0  0  0  0  0  0  0  0  0
   17.7739  -30.2620  -47.6526 H   0  0  0  0  0  0  0  0  0  0  0  0
 24 25  1  0  0  0
 24 23  1  0  0  0
 25 26  1  0  0  0
 23 22  1  0  0  0
 13 10  2  0  0  0
 26 27  1  0  0  0
 11 10  2  0  0  0
 10 12  1  0  0  0
 10  9  1  0  0  0
 27 28  1  0  0  0
 22 21  1  0  0  0
 20 21  1  0  0  0
 20 19  1  0  0  0
 29 28  1  0  0  0
 29 18  1  0  0  0
  9  6  2  0  0  0
  9  8  1  0  0  0
 16 18  1  0  0  0
 16  8  1  0  0  0
  7  6  1  0  0  0
 19 18  1  0  0  0
  6  4  1  0  0  0
  8  2  2  0  0  0
  4  5  1  0  0  0
  4  3  2  0  0  0
  2  3  1  0  0  0
  2  1  1  0  0  0
  3 30  1  0  0  0
 32 31  1  0  0  0
 32 33  1  0  0  0
 31 30  1  0  0  0
 38 33  2  0  0  0
 38 37  1  0  0  0
 33 34  1  0  0  0
 37 36  2  0  0  0
 34 35  2  0  0  0
 36 35  1  0  0  0
 36 39  1  0  0  0
 39 40  2  0  0  0
 39 41  1  0  0  0
 41 42  1  0  0  0
 12 14  1  0  0  0
 12 15  1  0  0  0
 16 17  1  0  0  0
M  END
> <minimizedAffinity>
-8.53509

$$$$
6G98_ER5_A_302


 42 44  0  0  0  0  0  0  0  0999 V2000
   17.6398  -24.3026  -52.4709 F   0  0  0  0  0  0  0  0  0  0  0  0
   18.4734  -23.6398  -53.2642 C   0  0  0  0  0  0  0  0  0  0  0  0
   19.7934  -23.2817  -52.7246 C   0  0  0  0  0  0  0  0  0  0  0  0
   20.7463  -22.5443  -53.5496 C   0  0  0  0  0  0  0  0  0  0  0  0
   21.9544  -22.2339  -53.0676 F   0  0  0  0  0  0  0  0  0  0  0  0
   20.3632  -22.1397  -54.8997 C   0  0  0  0  0  0  0  0  0  0  0  0
   21.2907  -21.4777  -55.5756 F   0  0  0  0  0  0  0  0  0  0  0  0
   18.0619  -23.2240  -54.6227 C   0  0  0  0  0  0  0  0  0  0  0  0
   19.0349  -22.4717  -55.4795 C   0  0  0  0  0  0  0  0  0  0  0  0
   18.7368  -21.9850  -56.9998 S   0  0  0  0  0  0  0  0  0  0  0  0
   17.3657  -22.1238  -57.3985 O   0  0  0  0  0  0  0  0  0  0  0  0
   19.1309  -20.4346  -57.1220 N   0  0  0  0  0  0  0  0  0  0  0  0
   19.5457  -22.7884  -57.8946 O   0  0  0  0  0  0  0  0  0  0  0  0
   18.9498  -20.1116  -58.0724 H   0  0  0  0  0  0  0  0  0  0  0  0
   20.1209  -20.3174  -56.9060 H   0  0  0  0  0  0  0  0  0  0  0  0
   16.9007  -23.6479  -55.1543 N   0  0  0  0  0  0  0  0  0  0  0  0
   16.1729  -22.9996  -55.2933 H   0  0  0  0  0  0  0  0  0  0  0  0
   16.6888  -25.0526  -55.5333 C   0  0  0  0  0  0  0  0  0  0  0  0
   16.4043  -25.9689  -54.3297 C   0  0  0  0  0  0  0  0  0  0  0  0
   15.0116  -26.5152  -54.0079 C   0  0  0  0  0  0  0  0  0  0  0  0
   14.7702  -27.9681  -54.4218 C   0  0  0  0  0  0  0  0  0  0  0  0
   14.3151  -28.1663  -55.8644 C   0  0  0  0  0  0  0  0  0  0  0  0
   12.9283  -27.5923  -56.1250 C   0  0  0  0  0  0  0  0  0  0  0  0
   12.5986  -27.6321  -57.6175 C   0  0  0  0  0  0  0  0  0  0  0  0
   12.9778  -26.3577  -58.3613 C   0  0  0  0  0  0  0  0  0  0  0  0
   14.2619  -26.4847  -59.1772 C   0  0  0  0  0  0  0  0  0  0  0  0
   15.1182  -25.2264  -59.0788 C   0  0  0  0  0  0  0  0  0  0  0  0
   16.1605  -25.3652  -57.9746 C   0  0  0  0  0  0  0  0  0  0  0  0
   15.6010  -24.9756  -56.6164 C   0  0  0  0  0  0  0  0  0  0  0  0
   20.2895  -23.7616  -51.1930 S   0  0  0  0  0  0  0  0  0  0  0  0
   20.8870  -25.4354  -51.4664 C   0  0  0  0  0  0  0  0  0  0  0  0
   20.0714  -26.6306  -50.9074 C   0  0  0  0  0  0  0  0  0  0  0  0
   19.4885  -27.4363  -52.0467 C   0  0  0  0  0  0  0  0  0  0  0  0
   20.0521  -27.3381  -53.3203 C   0  0  0  0  0  0  0  0  0  0  0  0
   19.5393  -28.1157  -54.3646 C   0  0  0  0  0  0  0  0  0  0  0  0
   18.4508  -28.9794  -54.1409 C   0  0  0  0  0  0  0  0  0  0  0  0
   17.8929  -29.0847  -52.8541 C   0  0  0  0  0  0  0  0  0  0  0  0
   18.4099  -28.3110  -51.8155 C   0  0  0  0  0  0  0  0  0  0  0  0
   17.9418  -29.8385  -55.2647 C   0  0  0  0  0  0  0  0  0  0  0  0
   17.5926  -29.3514  -56.3439 O   0  0  0  0  0  0  0  0  0  0  0  0
   17.7657  -31.1370  -55.0461 O   0  0  0  0  0  0  0  0  0  0  0  0
   18.0281  -31.5144  -54.2296 H   0  0  0  0  0  0  0  0  0  0  0  0
 24 25  1  0  0  0
 24 23  1  0  0  0
 25 26  1  0  0  0
 23 22  1  0  0  0
 13 10  2  0  0  0
 26 27  1  0  0  0
 11 10  2  0  0  0
 10 12  1  0  0  0
 10  9  1  0  0  0
 27 28  1  0  0  0
 22 21  1  0  0  0
 20 21  1  0  0  0
 20 19  1  0  0  0
 29 28  1  0  0  0
 29 18  1  0  0  0
  9  6  2  0  0  0
  9  8  1  0  0  0
 16 18  1  0  0  0
 16  8  1  0  0  0
  7  6  1  0  0  0
 19 18  1  0  0  0
  6  4  1  0  0  0
  8  2  2  0  0  0
  4  5  1  0  0  0
  4  3  2  0  0  0
  2  3  1  0  0  0
  2  1  1  0  0  0
  3 30  1  0  0  0
 32 31  1  0  0  0
 32 33  1  0  0  0
 31 30  1  0  0  0
 38 33  2  0  0  0
 38 37  1  0  0  0
 33 34  1  0  0  0
 37 36  2  0  0  0
 34 35  2  0  0  0
 36 35  1  0  0  0
 36 39  1  0  0  0
 39 40  2  0  0  0
 39 41  1  0  0  0
 41 42  1  0  0  0
 12 14  1  0  0  0
 12 15  1  0  0  0
 16 17  1  0  0  0
M  END
> <minimizedAffinity>
-8.42345

$$$$
6G98_ER5_A_302


 42 44  0  0  0  0  0  0  0  0999 V2000
   19.5675  -27.1017  -54.3043 F   0  0  0  0  0  0  0  0  0  0  0  0
   19.0470  -27.5089  -53.1525 C   0  0  0  0  0  0  0  0  0  0  0  0
   19.8269  -27.2755  -51.9280 C   0  0  0  0  0  0  0  0  0  0  0  0
   19.3073  -27.7114  -50.6347 C   0  0  0  0  0  0  0  0  0  0  0  0
   20.0060  -27.4835  -49.5175 F   0  0  0  0  0  0  0  0  0  0  0  0
   18.0249  -28.4078  -50.5748 C   0  0  0  0  0  0  0  0  0  0  0  0
   17.6313  -28.7636  -49.3609 F   0  0  0  0  0  0  0  0  0  0  0  0
   17.7547  -28.2272  -53.1132 C   0  0  0  0  0  0  0  0  0  0  0  0
   17.2101  -28.6736  -51.7900 C   0  0  0  0  0  0  0  0  0  0  0  0
   15.7908  -29.4369  -51.5896 S   0  0  0  0  0  0  0  0  0  0  0  0
   15.8364  -30.5144  -50.6437 O   0  0  0  0  0  0  0  0  0  0  0  0
   14.7108  -28.3703  -51.0700 N   0  0  0  0  0  0  0  0  0  0  0  0
   15.3911  -29.9838  -52.8708 O   0  0  0  0  0  0  0  0  0  0  0  0
   13.8115  -28.8335  -50.9385 H   0  0  0  0  0  0  0  0  0  0  0  0
   14.6114  -27.6241  -51.7582 H   0  0  0  0  0  0  0  0  0  0  0  0
   16.9918  -28.3401  -54.2159 N   0  0  0  0  0  0  0  0  0  0  0  0
   16.7770  -29.2373  -54.5596 H   0  0  0  0  0  0  0  0  0  0  0  0
   16.4702  -27.1604  -54.9217 C   0  0  0  0  0  0  0  0  0  0  0  0
   17.3721  -26.6997  -56.0807 C   0  0  0  0  0  0  0  0  0  0  0  0
   17.0255  -26.9360  -57.5524 C   0  0  0  0  0  0  0  0  0  0  0  0
   16.4567  -25.7228  -58.2905 C   0  0  0  0  0  0  0  0  0  0  0  0
   14.9497  -25.5273  -58.1558 C   0  0  0  0  0  0  0  0  0  0  0  0
   14.1527  -26.6352  -58.8325 C   0  0  0  0  0  0  0  0  0  0  0  0
   12.6650  -26.5096  -58.5027 C   0  0  0  0  0  0  0  0  0  0  0  0
   12.2404  -27.3120  -57.2792 C   0  0  0  0  0  0  0  0  0  0  0  0
   12.0529  -26.4618  -56.0251 C   0  0  0  0  0  0  0  0  0  0  0  0
   12.5910  -27.1645  -54.7829 C   0  0  0  0  0  0  0  0  0  0  0  0
   14.0258  -26.7354  -54.4964 C   0  0  0  0  0  0  0  0  0  0  0  0
   15.0309  -27.5610  -55.2823 C   0  0  0  0  0  0  0  0  0  0  0  0
   21.2862  -26.4436  -51.9464 S   0  0  0  0  0  0  0  0  0  0  0  0
   20.7907  -24.7485  -51.6080 C   0  0  0  0  0  0  0  0  0  0  0  0
   19.3324  -24.3126  -51.9068 C   0  0  0  0  0  0  0  0  0  0  0  0
   19.2724  -23.5802  -53.2285 C   0  0  0  0  0  0  0  0  0  0  0  0
   20.2579  -22.6424  -53.5429 C   0  0  0  0  0  0  0  0  0  0  0  0
   20.2257  -21.9959  -54.7835 C   0  0  0  0  0  0  0  0  0  0  0  0
   19.1980  -22.2731  -55.7044 C   0  0  0  0  0  0  0  0  0  0  0  0
   18.2135  -23.2269  -55.3893 C   0  0  0  0  0  0  0  0  0  0  0  0
   18.2519  -23.8717  -54.1535 C   0  0  0  0  0  0  0  0  0  0  0  0
   19.2047  -21.6005  -57.0488 C   0  0  0  0  0  0  0  0  0  0  0  0
   19.4030  -22.2356  -58.0886 O   0  0  0  0  0  0  0  0  0  0  0  0
   19.1015  -20.2770  -57.1008 O   0  0  0  0  0  0  0  0  0  0  0  0
   18.9510  -19.7877  -56.3160 H   0  0  0  0  0  0  0  0  0  0  0  0
 24 25  1  0  0  0
 24 23  1  0  0  0
 25 26  1  0  0  0
 23 22  1  0  0  0
 13 10  2  0  0  0
 26 27  1  0  0  0
 11 10  2  0  0  0
 10 12  1  0  0  0
 10  9  1  0  0  0
 27 28  1  0  0  0
 22 21  1  0  0  0
 20 21  1  0  0  0
 20 19  1  0  0  0
 29 28  1  0  0  0
 29 18  1  0  0  0
  9  6  2  0  0  0
  9  8  1  0  0  0
 16 18  1  0  0  0
 16  8  1  0  0  0
  7  6  1  0  0  0
 19 18  1  0  0  0
  6  4  1  0  0  0
  8  2  2  0  0  0
  4  5  1  0  0  0
  4  3  2  0  0  0
  2  3  1  0  0  0
  2  1  1  0  0  0
  3 30  1  0  0  0
 32 31  1  0  0  0
 32 33  1  0  0  0
 31 30  1  0  0  0
 38 33  2  0  0  0
 38 37  1  0  0  0
 33 34  1  0  0  0
 37 36  2  0  0  0
 34 35  2  0  0  0
 36 35  1  0  0  0
 36 39  1  0  0  0
 39 40  2  0  0  0
 39 41  1  0  0  0
 41 42  1  0  0  0
 12 14  1  0  0  0
 12 15  1  0  0  0
 16 17  1  0  0  0
M  END
> <minimizedAffinity>
-8.06213

$$$$
6G98_ER5_A_302


 42 44  0  0  0  0  0  0  0  0999 V2000
   18.0320  -25.8150  -53.3889 F   0  0  0  0  0  0  0  0  0  0  0  0
   18.0142  -26.6954  -52.3949 C   0  0  0  0  0  0  0  0  0  0  0  0
   19.2403  -26.8549  -51.5993 C   0  0  0  0  0  0  0  0  0  0  0  0
   19.2803  -27.8158  -50.5004 C   0  0  0  0  0  0  0  0  0  0  0  0
   20.3882  -27.9493  -49.7634 F   0  0  0  0  0  0  0  0  0  0  0  0
   18.1045  -28.6363  -50.2220 C   0  0  0  0  0  0  0  0  0  0  0  0
   18.2304  -29.4777  -49.2064 F   0  0  0  0  0  0  0  0  0  0  0  0
   16.8198  -27.5293  -52.1384 C   0  0  0  0  0  0  0  0  0  0  0  0
   16.8489  -28.5144  -51.0091 C   0  0  0  0  0  0  0  0  0  0  0  0
   15.6034  -29.4673  -50.5874 S   0  0  0  0  0  0  0  0  0  0  0  0
   15.7555  -30.0928  -49.3054 O   0  0  0  0  0  0  0  0  0  0  0  0
   14.2726  -28.5722  -50.5441 N   0  0  0  0  0  0  0  0  0  0  0  0
   15.4817  -30.5131  -51.5833 O   0  0  0  0  0  0  0  0  0  0  0  0
   13.4787  -29.1558  -50.2803 H   0  0  0  0  0  0  0  0  0  0  0  0
   14.1054  -28.1667  -51.4650 H   0  0  0  0  0  0  0  0  0  0  0  0
   15.6652  -27.3042  -52.7919 N   0  0  0  0  0  0  0  0  0  0  0  0
   14.9984  -26.7007  -52.3915 H   0  0  0  0  0  0  0  0  0  0  0  0
   15.3721  -27.9347  -54.0874 C   0  0  0  0  0  0  0  0  0  0  0  0
   13.9989  -28.6289  -54.1267 C   0  0  0  0  0  0  0  0  0  0  0  0
   12.7904  -28.0464  -54.8628 C   0  0  0  0  0  0  0  0  0  0  0  0
   12.4914  -28.6765  -56.2244 C   0  0  0  0  0  0  0  0  0  0  0  0
   13.2630  -28.0832  -57.3992 C   0  0  0  0  0  0  0  0  0  0  0  0
   12.8667  -26.6417  -57.6918 C   0  0  0  0  0  0  0  0  0  0  0  0
   13.7989  -26.0263  -58.7360 C   0  0  0  0  0  0  0  0  0  0  0  0
   14.9944  -25.2984  -58.1345 C   0  0  0  0  0  0  0  0  0  0  0  0
   16.2952  -26.0942  -58.2079 C   0  0  0  0  0  0  0  0  0  0  0  0
   17.1164  -25.9497  -56.9307 C   0  0  0  0  0  0  0  0  0  0  0  0
   16.8218  -27.0923  -55.9649 C   0  0  0  0  0  0  0  0  0  0  0  0
   15.6048  -26.8037  -55.1018 C   0  0  0  0  0  0  0  0  0  0  0  0
   20.6008  -25.9042  -51.8591 S   0  0  0  0  0  0  0  0  0  0  0  0
   20.0798  -24.2840  -51.2787 C   0  0  0  0  0  0  0  0  0  0  0  0
   20.7659  -23.0175  -51.8544 C   0  0  0  0  0  0  0  0  0  0  0  0
   20.2175  -22.7130  -53.2305 C   0  0  0  0  0  0  0  0  0  0  0  0
   20.9823  -21.9656  -54.1280 C   0  0  0  0  0  0  0  0  0  0  0  0
   20.4925  -21.7201  -55.4157 C   0  0  0  0  0  0  0  0  0  0  0  0
   19.2294  -22.2066  -55.8016 C   0  0  0  0  0  0  0  0  0  0  0  0
   18.4666  -22.9692  -54.8989 C   0  0  0  0  0  0  0  0  0  0  0  0
   18.9606  -23.2148  -53.6183 C   0  0  0  0  0  0  0  0  0  0  0  0
   18.7392  -21.9694  -57.2028 C   0  0  0  0  0  0  0  0  0  0  0  0
   19.4944  -21.5678  -58.0928 O   0  0  0  0  0  0  0  0  0  0  0  0
   17.4406  -22.0940  -57.4543 O   0  0  0  0  0  0  0  0  0  0  0  0
   16.8607  -22.3982  -56.7841 H   0  0  0  0  0  0  0  0  0  0  0  0
 24 25  1  0  0  0
 24 23  1  0  0  0
 25 26  1  0  0  0
 23 22  1  0  0  0
 13 10  2  0  0  0
 26 27  1  0  0  0
 11 10  2  0  0  0
 10 12  1  0  0  0
 10  9  1  0  0  0
 27 28  1  0  0  0
 22 21  1  0  0  0
 20 21  1  0  0  0
 20 19  1  0  0  0
 29 28  1  0  0  0
 29 18  1  0  0  0
  9  6  2  0  0  0
  9  8  1  0  0  0
 16 18  1  0  0  0
 16  8  1  0  0  0
  7  6  1  0  0  0
 19 18  1  0  0  0
  6  4  1  0  0  0
  8  2  2  0  0  0
  4  5  1  0  0  0
  4  3  2  0  0  0
  2  3  1  0  0  0
  2  1  1  0  0  0
  3 30  1  0  0  0
 32 31  1  0  0  0
 32 33  1  0  0  0
 31 30  1  0  0  0
 38 33  2  0  0  0
 38 37  1  0  0  0
 33 34  1  0  0  0
 37 36  2  0  0  0
 34 35  2  0  0  0
 36 35  1  0  0  0
 36 39  1  0  0  0
 39 40  2  0  0  0
 39 41  1  0  0  0
 41 42  1  0  0  0
 12 14  1  0  0  0
 12 15  1  0  0  0
 16 17  1  0  0  0
M  END
> <minimizedAffinity>
-7.89222

$$$$
6G98_ER5_A_302


 42 44  0  0  0  0  0  0  0  0999 V2000
   16.3369  -24.7711  -53.9583 F   0  0  0  0  0  0  0  0  0  0  0  0
   17.3625  -24.0296  -54.3605 C   0  0  0  0  0  0  0  0  0  0  0  0
   18.5223  -23.9206  -53.4634 C   0  0  0  0  0  0  0  0  0  0  0  0
   19.6740  -23.1104  -53.8506 C   0  0  0  0  0  0  0  0  0  0  0  0
   20.7378  -23.0249  -53.0448 F   0  0  0  0  0  0  0  0  0  0  0  0
   19.6478  -22.3866  -55.1188 C   0  0  0  0  0  0  0  0  0  0  0  0
   20.7355  -21.6801  -55.3887 F   0  0  0  0  0  0  0  0  0  0  0  0
   17.3112  -23.2904  -55.6406 C   0  0  0  0  0  0  0  0  0  0  0  0
   18.4906  -22.4607  -56.0497 C   0  0  0  0  0  0  0  0  0  0  0  0
   18.5913  -21.6275  -57.4399 S   0  0  0  0  0  0  0  0  0  0  0  0
   17.3271  -21.4092  -58.0819 O   0  0  0  0  0  0  0  0  0  0  0  0
   19.2385  -20.1935  -57.1256 N   0  0  0  0  0  0  0  0  0  0  0  0
   19.4320  -22.3771  -58.3520 O   0  0  0  0  0  0  0  0  0  0  0  0
   19.3094  -19.6557  -57.9894 H   0  0  0  0  0  0  0  0  0  0  0  0
   20.1687  -20.3204  -56.7268 H   0  0  0  0  0  0  0  0  0  0  0  0
   16.3009  -23.4796  -56.5091 N   0  0  0  0  0  0  0  0  0  0  0  0
   15.5823  -22.8087  -56.5610 H   0  0  0  0  0  0  0  0  0  0  0  0
   16.2407  -24.6608  -57.3826 C   0  0  0  0  0  0  0  0  0  0  0  0
   17.5936  -25.3814  -57.5216 C   0  0  0  0  0  0  0  0  0  0  0  0
   17.9076  -26.7080  -56.8263 C   0  0  0  0  0  0  0  0  0  0  0  0
   17.8220  -27.9475  -57.7190 C   0  0  0  0  0  0  0  0  0  0  0  0
   16.4300  -28.5570  -57.8538 C   0  0  0  0  0  0  0  0  0  0  0  0
   15.9204  -29.1483  -56.5456 C   0  0  0  0  0  0  0  0  0  0  0  0
   14.4545  -29.5634  -56.6748 C   0  0  0  0  0  0  0  0  0  0  0  0
   13.4724  -28.4751  -56.2601 C   0  0  0  0  0  0  0  0  0  0  0  0
   12.8264  -27.7523  -57.4395 C   0  0  0  0  0  0  0  0  0  0  0  0
   12.7064  -26.2534  -57.1841 C   0  0  0  0  0  0  0  0  0  0  0  0
   13.9013  -25.5070  -57.7670 C   0  0  0  0  0  0  0  0  0  0  0  0
   15.0765  -25.4805  -56.8039 C   0  0  0  0  0  0  0  0  0  0  0  0
   18.6111  -24.7677  -52.0154 S   0  0  0  0  0  0  0  0  0  0  0  0
   19.5540  -26.2327  -52.4600 C   0  0  0  0  0  0  0  0  0  0  0  0
   19.2984  -27.5578  -51.6952 C   0  0  0  0  0  0  0  0  0  0  0  0
   17.8295  -27.9126  -51.7527 C   0  0  0  0  0  0  0  0  0  0  0  0
   17.1536  -28.2450  -50.5771 C   0  0  0  0  0  0  0  0  0  0  0  0
   15.7847  -28.5320  -50.6248 C   0  0  0  0  0  0  0  0  0  0  0  0
   15.0938  -28.5043  -51.8507 C   0  0  0  0  0  0  0  0  0  0  0  0
   15.7752  -28.1576  -53.0312 C   0  0  0  0  0  0  0  0  0  0  0  0
   17.1382  -27.8684  -52.9783 C   0  0  0  0  0  0  0  0  0  0  0  0
   13.6149  -28.7733  -51.8753 C   0  0  0  0  0  0  0  0  0  0  0  0
   12.8904  -28.4918  -50.9163 O   0  0  0  0  0  0  0  0  0  0  0  0
   13.1023  -29.4265  -52.9123 O   0  0  0  0  0  0  0  0  0  0  0  0
   13.6455  -29.6439  -53.6442 H   0  0  0  0  0  0  0  0  0  0  0  0
 24 25  1  0  0  0
 24 23  1  0  0  0
 25 26  1  0  0  0
 23 22  1  0  0  0
 13 10  2  0  0  0
 26 27  1  0  0  0
 11 10  2  0  0  0
 10 12  1  0  0  0
 10  9  1  0  0  0
 27 28  1  0  0  0
 22 21  1  0  0  0
 20 21  1  0  0  0
 20 19  1  0  0  0
 29 28  1  0  0  0
 29 18  1  0  0  0
  9  6  2  0  0  0
  9  8  1  0  0  0
 16 18  1  0  0  0
 16  8  1  0  0  0
  7  6  1  0  0  0
 19 18  1  0  0  0
  6  4  1  0  0  0
  8  2  2  0  0  0
  4  5  1  0  0  0
  4  3  2  0  0  0
  2  3  1  0  0  0
  2  1  1  0  0  0
  3 30  1  0  0  0
 32 31  1  0  0  0
 32 33  1  0  0  0
 31 30  1  0  0  0
 38 33  2  0  0  0
 38 37  1  0  0  0
 33 34  1  0  0  0
 37 36  2  0  0  0
 34 35  2  0  0  0
 36 35  1  0  0  0
 36 39  1  0  0  0
 39 40  2  0  0  0
 39 41  1  0  0  0
 41 42  1  0  0  0
 12 14  1  0  0  0
 12 15  1  0  0  0
 16 17  1  0  0  0
M  END
> <minimizedAffinity>
-7.87794

$$$$
6G98_ER5_A_302


 42 44  0  0  0  0  0  0  0  0999 V2000
   18.8756  -28.3478  -54.3596 F   0  0  0  0  0  0  0  0  0  0  0  0
   18.5874  -27.0904  -54.0443 C   0  0  0  0  0  0  0  0  0  0  0  0
   17.2491  -26.5877  -54.3879 C   0  0  0  0  0  0  0  0  0  0  0  0
   16.8814  -25.2099  -54.0732 C   0  0  0  0  0  0  0  0  0  0  0  0
   15.6584  -24.7560  -54.3677 F   0  0  0  0  0  0  0  0  0  0  0  0
   17.8644  -24.3307  -53.4457 C   0  0  0  0  0  0  0  0  0  0  0  0
   17.4429  -23.1001  -53.1947 F   0  0  0  0  0  0  0  0  0  0  0  0
   19.6012  -26.2100  -53.4241 C   0  0  0  0  0  0  0  0  0  0  0  0
   19.2317  -24.7958  -53.0921 C   0  0  0  0  0  0  0  0  0  0  0  0
   20.2258  -23.7290  -52.3773 S   0  0  0  0  0  0  0  0  0  0  0  0
   21.6104  -24.1020  -52.4210 O   0  0  0  0  0  0  0  0  0  0  0  0
   20.0724  -22.3160  -53.1216 N   0  0  0  0  0  0  0  0  0  0  0  0
   19.8371  -23.6166  -50.9857 O   0  0  0  0  0  0  0  0  0  0  0  0
   20.6909  -21.6326  -52.6848 H   0  0  0  0  0  0  0  0  0  0  0  0
   19.1066  -21.9962  -53.0483 H   0  0  0  0  0  0  0  0  0  0  0  0
   20.7834  -26.7009  -53.0091 N   0  0  0  0  0  0  0  0  0  0  0  0
   21.5733  -26.6003  -53.5882 H   0  0  0  0  0  0  0  0  0  0  0  0
   20.9280  -27.3834  -51.7149 C   0  0  0  0  0  0  0  0  0  0  0  0
   19.6931  -27.2322  -50.8087 C   0  0  0  0  0  0  0  0  0  0  0  0
   18.6921  -28.3642  -50.5669 C   0  0  0  0  0  0  0  0  0  0  0  0
   18.8497  -29.0996  -49.2347 C   0  0  0  0  0  0  0  0  0  0  0  0
   19.8620  -30.2409  -49.2376 C   0  0  0  0  0  0  0  0  0  0  0  0
   19.4309  -31.4037  -50.1223 C   0  0  0  0  0  0  0  0  0  0  0  0
   20.5577  -32.4289  -50.2545 C   0  0  0  0  0  0  0  0  0  0  0  0
   21.4613  -32.1919  -51.4579 C   0  0  0  0  0  0  0  0  0  0  0  0
   22.7987  -31.5478  -51.1012 C   0  0  0  0  0  0  0  0  0  0  0  0
   23.2090  -30.4969  -52.1276 C   0  0  0  0  0  0  0  0  0  0  0  0
   22.7626  -29.1068  -51.6881 C   0  0  0  0  0  0  0  0  0  0  0  0
   21.3301  -28.8151  -52.1031 C   0  0  0  0  0  0  0  0  0  0  0  0
   16.0754  -27.5753  -55.0729 S   0  0  0  0  0  0  0  0  0  0  0  0
   16.4512  -27.4931  -56.8294 C   0  0  0  0  0  0  0  0  0  0  0  0
   15.8349  -26.3535  -57.6824 C   0  0  0  0  0  0  0  0  0  0  0  0
   16.6723  -25.1008  -57.5536 C   0  0  0  0  0  0  0  0  0  0  0  0
   18.0624  -25.1872  -57.6510 C   0  0  0  0  0  0  0  0  0  0  0  0
   18.8341  -24.0224  -57.5741 C   0  0  0  0  0  0  0  0  0  0  0  0
   18.2180  -22.7716  -57.3819 C   0  0  0  0  0  0  0  0  0  0  0  0
   16.8167  -22.6867  -57.2960 C   0  0  0  0  0  0  0  0  0  0  0  0
   16.0515  -23.8496  -57.3773 C   0  0  0  0  0  0  0  0  0  0  0  0
   19.0605  -21.5271  -57.3451 C   0  0  0  0  0  0  0  0  0  0  0  0
   19.4293  -20.9650  -58.3804 O   0  0  0  0  0  0  0  0  0  0  0  0
   19.5033  -21.0907  -56.1710 O   0  0  0  0  0  0  0  0  0  0  0  0
   19.2281  -21.5119  -55.3805 H   0  0  0  0  0  0  0  0  0  0  0  0
 24 25  1  0  0  0
 24 23  1  0  0  0
 25 26  1  0  0  0
 23 22  1  0  0  0
 13 10  2  0  0  0
 26 27  1  0  0  0
 11 10  2  0  0  0
 10 12  1  0  0  0
 10  9  1  0  0  0
 27 28  1  0  0  0
 22 21  1  0  0  0
 20 21  1  0  0  0
 20 19  1  0  0  0
 29 28  1  0  0  0
 29 18  1  0  0  0
  9  6  2  0  0  0
  9  8  1  0  0  0
 16 18  1  0  0  0
 16  8  1  0  0  0
  7  6  1  0  0  0
 19 18  1  0  0  0
  6  4  1  0  0  0
  8  2  2  0  0  0
  4  5  1  0  0  0
  4  3  2  0  0  0
  2  3  1  0  0  0
  2  1  1  0  0  0
  3 30  1  0  0  0
 32 31  1  0  0  0
 32 33  1  0  0  0
 31 30  1  0  0  0
 38 33  2  0  0  0
 38 37  1  0  0  0
 33 34  1  0  0  0
 37 36  2  0  0  0
 34 35  2  0  0  0
 36 35  1  0  0  0
 36 39  1  0  0  0
 39 40  2  0  0  0
 39 41  1  0  0  0
 41 42  1  0  0  0
 12 14  1  0  0  0
 12 15  1  0  0  0
 16 17  1  0  0  0
M  END
> <minimizedAffinity>
-7.86672

$$$$
6G98_ER5_A_302


 42 44  0  0  0  0  0  0  0  0999 V2000
   17.2989  -28.1256  -53.6883 F   0  0  0  0  0  0  0  0  0  0  0  0
   17.6146  -26.8404  -53.5781 C   0  0  0  0  0  0  0  0  0  0  0  0
   16.6861  -25.8555  -54.1523 C   0  0  0  0  0  0  0  0  0  0  0  0
   16.9879  -24.4291  -54.0685 C   0  0  0  0  0  0  0  0  0  0  0  0
   16.1359  -23.5304  -54.5734 F   0  0  0  0  0  0  0  0  0  0  0  0
   18.2325  -23.9951  -53.4395 C   0  0  0  0  0  0  0  0  0  0  0  0
   18.4215  -22.6842  -53.4061 F   0  0  0  0  0  0  0  0  0  0  0  0
   18.8874  -26.4205  -52.9525 C   0  0  0  0  0  0  0  0  0  0  0  0
   19.2036  -24.9585  -52.8565 C   0  0  0  0  0  0  0  0  0  0  0  0
   20.5409  -24.3501  -52.1647 S   0  0  0  0  0  0  0  0  0  0  0  0
   21.0806  -23.2074  -52.8436 O   0  0  0  0  0  0  0  0  0  0  0  0
   20.1793  -23.9074  -50.6656 N   0  0  0  0  0  0  0  0  0  0  0  0
   21.5541  -25.3864  -52.1596 O   0  0  0  0  0  0  0  0  0  0  0  0
   21.0095  -23.5222  -50.2153 H   0  0  0  0  0  0  0  0  0  0  0  0
   19.8534  -24.7189  -50.1407 H   0  0  0  0  0  0  0  0  0  0  0  0
   19.6797  -27.3122  -52.3296 N   0  0  0  0  0  0  0  0  0  0  0  0
   19.9824  -27.1244  -51.4118 H   0  0  0  0  0  0  0  0  0  0  0  0
   20.1056  -28.5591  -52.9818 C   0  0  0  0  0  0  0  0  0  0  0  0
   21.2943  -28.3663  -53.9405 C   0  0  0  0  0  0  0  0  0  0  0  0
   22.7192  -28.8107  -53.6026 C   0  0  0  0  0  0  0  0  0  0  0  0
   23.1645  -30.1211  -54.2543 C   0  0  0  0  0  0  0  0  0  0  0  0
   22.7842  -31.3878  -53.4939 C   0  0  0  0  0  0  0  0  0  0  0  0
   23.5065  -31.5080  -52.1581 C   0  0  0  0  0  0  0  0  0  0  0  0
   22.9496  -32.6776  -51.3458 C   0  0  0  0  0  0  0  0  0  0  0  0
   21.8214  -32.2832  -50.4011 C   0  0  0  0  0  0  0  0  0  0  0  0
   20.4340  -32.6619  -50.9136 C   0  0  0  0  0  0  0  0  0  0  0  0
   19.4106  -31.5673  -50.6292 C   0  0  0  0  0  0  0  0  0  0  0  0
   19.2695  -30.6331  -51.8259 C   0  0  0  0  0  0  0  0  0  0  0  0
   20.3138  -29.5292  -51.8080 C   0  0  0  0  0  0  0  0  0  0  0  0
   15.2257  -26.3081  -54.8482 S   0  0  0  0  0  0  0  0  0  0  0  0
   15.7278  -27.0024  -56.4290 C   0  0  0  0  0  0  0  0  0  0  0  0
   15.5881  -26.1417  -57.7119 C   0  0  0  0  0  0  0  0  0  0  0  0
   16.4720  -24.9186  -57.6124 C   0  0  0  0  0  0  0  0  0  0  0  0
   17.8554  -25.0740  -57.5056 C   0  0  0  0  0  0  0  0  0  0  0  0
   18.6761  -23.9416  -57.4562 C   0  0  0  0  0  0  0  0  0  0  0  0
   18.1131  -22.6522  -57.4957 C   0  0  0  0  0  0  0  0  0  0  0  0
   16.7202  -22.4992  -57.6152 C   0  0  0  0  0  0  0  0  0  0  0  0
   15.9066  -23.6305  -57.6683 C   0  0  0  0  0  0  0  0  0  0  0  0
   19.0138  -21.4486  -57.4850 C   0  0  0  0  0  0  0  0  0  0  0  0
   19.2968  -20.8435  -58.5231 O   0  0  0  0  0  0  0  0  0  0  0  0
   19.5997  -21.1000  -56.3448 O   0  0  0  0  0  0  0  0  0  0  0  0
   19.3904  -21.5544  -55.5525 H   0  0  0  0  0  0  0  0  0  0  0  0
 24 25  1  0  0  0
 24 23  1  0  0  0
 25 26  1  0  0  0
 23 22  1  0  0  0
 13 10  2  0  0  0
 26 27  1  0  0  0
 11 10  2  0  0  0
 10 12  1  0  0  0
 10  9  1  0  0  0
 27 28  1  0  0  0
 22 21  1  0  0  0
 20 21  1  0  0  0
 20 19  1  0  0  0
 29 28  1  0  0  0
 29 18  1  0  0  0
  9  6  2  0  0  0
  9  8  1  0  0  0
 16 18  1  0  0  0
 16  8  1  0  0  0
  7  6  1  0  0  0
 19 18  1  0  0  0
  6  4  1  0  0  0
  8  2  2  0  0  0
  4  5  1  0  0  0
  4  3  2  0  0  0
  2  3  1  0  0  0
  2  1  1  0  0  0
  3 30  1  0  0  0
 32 31  1  0  0  0
 32 33  1  0  0  0
 31 30  1  0  0  0
 38 33  2  0  0  0
 38 37  1  0  0  0
 33 34  1  0  0  0
 37 36  2  0  0  0
 34 35  2  0  0  0
 36 35  1  0  0  0
 36 39  1  0  0  0
 39 40  2  0  0  0
 39 41  1  0  0  0
 41 42  1  0  0  0
 12 14  1  0  0  0
 12 15  1  0  0  0
 16 17  1  0  0  0
M  END
> <minimizedAffinity>
-7.81973

$$$$
6G98_ER5_A_302


 42 44  0  0  0  0  0  0  0  0999 V2000
   15.4500  -24.9745  -55.1690 F   0  0  0  0  0  0  0  0  0  0  0  0
   16.5810  -24.2865  -55.0643 C   0  0  0  0  0  0  0  0  0  0  0  0
   17.0478  -23.5516  -56.2492 C   0  0  0  0  0  0  0  0  0  0  0  0
   18.2902  -22.7861  -56.1936 C   0  0  0  0  0  0  0  0  0  0  0  0
   18.7071  -22.1016  -57.2642 F   0  0  0  0  0  0  0  0  0  0  0  0
   19.0774  -22.7849  -54.9635 C   0  0  0  0  0  0  0  0  0  0  0  0
   20.1869  -22.0621  -55.0035 F   0  0  0  0  0  0  0  0  0  0  0  0
   17.3734  -24.3105  -53.8156 C   0  0  0  0  0  0  0  0  0  0  0  0
   18.6471  -23.5233  -53.7467 C   0  0  0  0  0  0  0  0  0  0  0  0
   19.5982  -23.4257  -52.4340 S   0  0  0  0  0  0  0  0  0  0  0  0
   18.9758  -23.8883  -51.2271 O   0  0  0  0  0  0  0  0  0  0  0  0
   20.9059  -24.3198  -52.6881 N   0  0  0  0  0  0  0  0  0  0  0  0
   19.9605  -22.0352  -52.2452 O   0  0  0  0  0  0  0  0  0  0  0  0
   21.5157  -24.2700  -51.8720 H   0  0  0  0  0  0  0  0  0  0  0  0
   21.4037  -23.9692  -53.5064 H   0  0  0  0  0  0  0  0  0  0  0  0
   16.8907  -24.8889  -52.7006 N   0  0  0  0  0  0  0  0  0  0  0  0
   16.5793  -24.3179  -51.9615 H   0  0  0  0  0  0  0  0  0  0  0  0
   16.8154  -26.3501  -52.5557 C   0  0  0  0  0  0  0  0  0  0  0  0
   15.3882  -26.9027  -52.7195 C   0  0  0  0  0  0  0  0  0  0  0  0
   14.9202  -27.6465  -53.9724 C   0  0  0  0  0  0  0  0  0  0  0  0
   14.8635  -29.1698  -53.8423 C   0  0  0  0  0  0  0  0  0  0  0  0
   16.1755  -29.8959  -54.1231 C   0  0  0  0  0  0  0  0  0  0  0  0
   16.6093  -29.7794  -55.5787 C   0  0  0  0  0  0  0  0  0  0  0  0
   18.0173  -30.3440  -55.7699 C   0  0  0  0  0  0  0  0  0  0  0  0
   19.1182  -29.3000  -55.6327 C   0  0  0  0  0  0  0  0  0  0  0  0
   19.8471  -29.3521  -54.2922 C   0  0  0  0  0  0  0  0  0  0  0  0
   20.1399  -27.9546  -53.7558 C   0  0  0  0  0  0  0  0  0  0  0  0
   19.0415  -27.4993  -52.8014 C   0  0  0  0  0  0  0  0  0  0  0  0
   17.8748  -26.8670  -53.5420 C   0  0  0  0  0  0  0  0  0  0  0  0
   16.1539  -23.4931  -57.6704 S   0  0  0  0  0  0  0  0  0  0  0  0
   16.0616  -25.2201  -58.1625 C   0  0  0  0  0  0  0  0  0  0  0  0
   14.8094  -25.7229  -58.9275 C   0  0  0  0  0  0  0  0  0  0  0  0
   13.8423  -26.3741  -57.9643 C   0  0  0  0  0  0  0  0  0  0  0  0
   12.9632  -25.5791  -57.2264 C   0  0  0  0  0  0  0  0  0  0  0  0
   12.0398  -26.1848  -56.3669 C   0  0  0  0  0  0  0  0  0  0  0  0
   12.0062  -27.5853  -56.2308 C   0  0  0  0  0  0  0  0  0  0  0  0
   12.8852  -28.3837  -56.9844 C   0  0  0  0  0  0  0  0  0  0  0  0
   13.8009  -27.7760  -57.8427 C   0  0  0  0  0  0  0  0  0  0  0  0
   10.9785  -28.2194  -55.3353 C   0  0  0  0  0  0  0  0  0  0  0  0
   11.2880  -28.7248  -54.2524 O   0  0  0  0  0  0  0  0  0  0  0  0
    9.7298  -28.3300  -55.7752 O   0  0  0  0  0  0  0  0  0  0  0  0
    9.4869  -27.9492  -56.5962 H   0  0  0  0  0  0  0  0  0  0  0  0
 24 25  1  0  0  0
 24 23  1  0  0  0
 25 26  1  0  0  0
 23 22  1  0  0  0
 13 10  2  0  0  0
 26 27  1  0  0  0
 11 10  2  0  0  0
 10 12  1  0  0  0
 10  9  1  0  0  0
 27 28  1  0  0  0
 22 21  1  0  0  0
 20 21  1  0  0  0
 20 19  1  0  0  0
 29 28  1  0  0  0
 29 18  1  0  0  0
  9  6  2  0  0  0
  9  8  1  0  0  0
 16 18  1  0  0  0
 16  8  1  0  0  0
  7  6  1  0  0  0
 19 18  1  0  0  0
  6  4  1  0  0  0
  8  2  2  0  0  0
  4  5  1  0  0  0
  4  3  2  0  0  0
  2  3  1  0  0  0
  2  1  1  0  0  0
  3 30  1  0  0  0
 32 31  1  0  0  0
 32 33  1  0  0  0
 31 30  1  0  0  0
 38 33  2  0  0  0
 38 37  1  0  0  0
 33 34  1  0  0  0
 37 36  2  0  0  0
 34 35  2  0  0  0
 36 35  1  0  0  0
 36 39  1  0  0  0
 39 40  2  0  0  0
 39 41  1  0  0  0
 41 42  1  0  0  0
 12 14  1  0  0  0
 12 15  1  0  0  0
 16 17  1  0  0  0
M  END
> <minimizedAffinity>
-7.78135

$$$$
6G98_ER5_A_302


 42 44  0  0  0  0  0  0  0  0999 V2000
   17.8119  -25.4755  -52.7468 F   0  0  0  0  0  0  0  0  0  0  0  0
   18.3475  -24.5006  -53.4721 C   0  0  0  0  0  0  0  0  0  0  0  0
   19.3435  -23.6337  -52.8254 C   0  0  0  0  0  0  0  0  0  0  0  0
   19.9578  -22.5398  -53.5729 C   0  0  0  0  0  0  0  0  0  0  0  0
   20.8777  -21.7617  -52.9926 F   0  0  0  0  0  0  0  0  0  0  0  0
   19.5498  -22.2972  -54.9541 C   0  0  0  0  0  0  0  0  0  0  0  0
   20.1610  -21.2866  -55.5545 F   0  0  0  0  0  0  0  0  0  0  0  0
   17.9099  -24.2596  -54.8643 C   0  0  0  0  0  0  0  0  0  0  0  0
   18.5385  -23.1429  -55.6418 C   0  0  0  0  0  0  0  0  0  0  0  0
   18.1862  -22.7852  -57.1862 S   0  0  0  0  0  0  0  0  0  0  0  0
   17.0492  -21.9242  -57.3407 O   0  0  0  0  0  0  0  0  0  0  0  0
   19.4541  -22.0490  -57.8377 N   0  0  0  0  0  0  0  0  0  0  0  0
   17.9049  -24.0257  -57.8808 O   0  0  0  0  0  0  0  0  0  0  0  0
   19.2499  -21.8166  -58.8097 H   0  0  0  0  0  0  0  0  0  0  0  0
   20.2637  -22.6681  -57.7990 H   0  0  0  0  0  0  0  0  0  0  0  0
   17.0844  -25.1193  -55.4889 N   0  0  0  0  0  0  0  0  0  0  0  0
   17.4530  -25.7283  -56.1691 H   0  0  0  0  0  0  0  0  0  0  0  0
   15.6472  -25.1743  -55.1837 C   0  0  0  0  0  0  0  0  0  0  0  0
   14.7739  -24.4946  -56.2535 C   0  0  0  0  0  0  0  0  0  0  0  0
   13.9344  -25.2771  -57.2658 C   0  0  0  0  0  0  0  0  0  0  0  0
   12.4412  -25.3641  -56.9448 C   0  0  0  0  0  0  0  0  0  0  0  0
   12.0421  -26.5013  -56.0094 C   0  0  0  0  0  0  0  0  0  0  0  0
   12.2497  -27.8745  -56.6353 C   0  0  0  0  0  0  0  0  0  0  0  0
   12.0306  -28.9788  -55.6006 C   0  0  0  0  0  0  0  0  0  0  0  0
   13.3047  -29.4046  -54.8822 C   0  0  0  0  0  0  0  0  0  0  0  0
   13.4323  -28.8327  -53.4723 C   0  0  0  0  0  0  0  0  0  0  0  0
   14.8623  -28.3977  -53.1685 C   0  0  0  0  0  0  0  0  0  0  0  0
   15.0518  -26.9140  -53.4645 C   0  0  0  0  0  0  0  0  0  0  0  0
   15.3884  -26.6673  -54.9258 C   0  0  0  0  0  0  0  0  0  0  0  0
   19.8708  -23.9018  -51.2530 S   0  0  0  0  0  0  0  0  0  0  0  0
   20.8630  -25.3934  -51.4070 C   0  0  0  0  0  0  0  0  0  0  0  0
   20.3105  -26.7307  -50.8481 C   0  0  0  0  0  0  0  0  0  0  0  0
   19.8351  -27.6085  -51.9841 C   0  0  0  0  0  0  0  0  0  0  0  0
   18.7728  -28.4904  -51.7764 C   0  0  0  0  0  0  0  0  0  0  0  0
   18.3057  -29.2718  -52.8392 C   0  0  0  0  0  0  0  0  0  0  0  0
   18.9118  -29.1852  -54.1066 C   0  0  0  0  0  0  0  0  0  0  0  0
   19.9739  -28.2873  -54.3153 C   0  0  0  0  0  0  0  0  0  0  0  0
   20.4333  -27.5076  -53.2544 C   0  0  0  0  0  0  0  0  0  0  0  0
   18.3681  -30.0008  -55.2465 C   0  0  0  0  0  0  0  0  0  0  0  0
   19.1145  -30.5590  -56.0559 O   0  0  0  0  0  0  0  0  0  0  0  0
   17.0544  -30.0273  -55.4425 O   0  0  0  0  0  0  0  0  0  0  0  0
   16.4811  -29.6060  -54.8328 H   0  0  0  0  0  0  0  0  0  0  0  0
 24 25  1  0  0  0
 24 23  1  0  0  0
 25 26  1  0  0  0
 23 22  1  0  0  0
 13 10  2  0  0  0
 26 27  1  0  0  0
 11 10  2  0  0  0
 10 12  1  0  0  0
 10  9  1  0  0  0
 27 28  1  0  0  0
 22 21  1  0  0  0
 20 21  1  0  0  0
 20 19  1  0  0  0
 29 28  1  0  0  0
 29 18  1  0  0  0
  9  6  2  0  0  0
  9  8  1  0  0  0
 16 18  1  0  0  0
 16  8  1  0  0  0
  7  6  1  0  0  0
 19 18  1  0  0  0
  6  4  1  0  0  0
  8  2  2  0  0  0
  4  5  1  0  0  0
  4  3  2  0  0  0
  2  3  1  0  0  0
  2  1  1  0  0  0
  3 30  1  0  0  0
 32 31  1  0  0  0
 32 33  1  0  0  0
 31 30  1  0  0  0
 38 33  2  0  0  0
 38 37  1  0  0  0
 33 34  1  0  0  0
 37 36  2  0  0  0
 34 35  2  0  0  0
 36 35  1  0  0  0
 36 39  1  0  0  0
 39 40  2  0  0  0
 39 41  1  0  0  0
 41 42  1  0  0  0
 12 14  1  0  0  0
 12 15  1  0  0  0
 16 17  1  0  0  0
M  END
> <minimizedAffinity>
-7.65411

$$$$
