5OP5_3FE_A_301


 24 27  0  0  0  0  0  0  0  0999 V2000
    3.9869   -2.0645   20.4328 N   0  0  0  0  0  0  0  0  0  0  0  0
    2.6976   -3.7508   19.6279 N   0  0  0  0  0  0  0  0  0  0  0  0
    6.1190   -3.4765   18.1057 C   0  0  0  0  0  0  0  0  0  0  0  0
    5.0192   -2.3993   19.6615 C   0  0  0  0  0  0  0  0  0  0  0  0
    6.9148   -2.4501   18.6166 C   0  0  0  0  0  0  0  0  0  0  0  0
    6.2118   -1.8295   19.5480 N   0  0  0  0  0  0  0  0  0  0  0  0
    4.8918   -3.4359   18.7618 C   0  0  0  0  0  0  0  0  0  0  0  0
    3.6693   -4.1075   18.7650 C   0  0  0  0  0  0  0  0  0  0  0  0
    2.8366   -2.7200   20.4586 C   0  0  0  0  0  0  0  0  0  0  0  0
    6.5257   -1.0610   20.0773 H   0  0  0  0  0  0  0  0  0  0  0  0
    7.9045   -4.5479   16.7514 C   0  0  0  0  0  0  0  0  0  0  0  0
    5.6930   -4.4054   15.8897 C   0  0  0  0  0  0  0  0  0  0  0  0
    6.1303   -5.0478   14.7086 C   0  0  0  0  0  0  0  0  0  0  0  0
    7.4666   -5.4314   14.5494 C   0  0  0  0  0  0  0  0  0  0  0  0
    8.3537   -5.1820   15.5878 C   0  0  0  0  0  0  0  0  0  0  0  0
    6.5855   -4.2473   16.9478 C   0  0  0  0  0  0  0  0  0  0  0  0
   10.8318   -5.7809   15.3639 N   0  0  0  0  0  0  0  0  0  0  0  0
    9.7284   -5.5232   15.4955 C   0  0  0  0  0  0  0  0  0  0  0  0
    2.1187   -5.1929   17.2432 C   0  0  0  0  0  0  0  0  0  0  0  0
    4.0522   -6.4592   18.3230 C   0  0  0  0  0  0  0  0  0  0  0  0
    3.3615   -5.1932   18.0104 N   0  0  0  0  0  0  0  0  0  0  0  0
    2.2030   -6.2962   16.1701 C   0  0  0  0  0  0  0  0  0  0  0  0
    2.5616   -7.5311   16.6592 O   0  0  0  0  0  0  0  0  0  0  0  0
    3.8291   -7.5737   17.2967 C   0  0  0  0  0  0  0  0  0  0  0  0
 17 18  3  0  0  0
 18 15  1  0  0  0
 15 14  2  0  0  0
 15 11  1  0  0  0
 14 13  1  0  0  0
 11 16  2  0  0  0
 13 12  2  0  0  0
 22 23  1  0  0  0
 22 19  1  0  0  0
 16 12  1  0  0  0
 16  3  1  0  0  0
 23 24  1  0  0  0
 19 21  1  0  0  0
  3  5  2  0  0  0
  3  7  1  0  0  0
  5  6  1  0  0  0
 24 20  1  0  0  0
 21 20  1  0  0  0
 21  8  1  0  0  0
  7  8  2  0  0  0
  7  4  1  0  0  0
  6  4  1  0  0  0
  8  2  1  0  0  0
  4  1  2  0  0  0
  2  9  2  0  0  0
  1  9  1  0  0  0
  6 10  1  0  0  0
M  END
> <minimizedAffinity>
-8.79041

$$$$
5OP5_3FE_A_301


 24 27  0  0  0  0  0  0  0  0999 V2000
    7.3911   -3.1978   18.5546 N   0  0  0  0  0  0  0  0  0  0  0  0
    6.6264   -4.9170   17.2842 N   0  0  0  0  0  0  0  0  0  0  0  0
    4.0042   -3.0730   19.2391 C   0  0  0  0  0  0  0  0  0  0  0  0
    6.1685   -2.8809   18.9761 C   0  0  0  0  0  0  0  0  0  0  0  0
    4.4762   -2.0053   20.0042 C   0  0  0  0  0  0  0  0  0  0  0  0
    5.7820   -1.9289   19.8151 N   0  0  0  0  0  0  0  0  0  0  0  0
    5.0920   -3.6510   18.5906 C   0  0  0  0  0  0  0  0  0  0  0  0
    5.3692   -4.7055   17.7208 C   0  0  0  0  0  0  0  0  0  0  0  0
    7.6517   -4.1796   17.7049 C   0  0  0  0  0  0  0  0  0  0  0  0
    6.3776   -1.2659   20.2335 H   0  0  0  0  0  0  0  0  0  0  0  0
    1.8366   -3.8173   18.2811 C   0  0  0  0  0  0  0  0  0  0  0  0
    1.9780   -3.2543   20.5868 C   0  0  0  0  0  0  0  0  0  0  0  0
    0.6004   -3.5412   20.7237 C   0  0  0  0  0  0  0  0  0  0  0  0
   -0.1612   -3.9588   19.6264 C   0  0  0  0  0  0  0  0  0  0  0  0
    0.4719   -4.1025   18.3993 C   0  0  0  0  0  0  0  0  0  0  0  0
    2.6035   -3.4912   19.3647 C   0  0  0  0  0  0  0  0  0  0  0  0
   -0.8513   -4.8329   16.3339 N   0  0  0  0  0  0  0  0  0  0  0  0
   -0.2349   -4.5029   17.2353 C   0  0  0  0  0  0  0  0  0  0  0  0
    4.0938   -6.7665   17.8761 C   0  0  0  0  0  0  0  0  0  0  0  0
    4.1768   -5.3949   15.7268 C   0  0  0  0  0  0  0  0  0  0  0  0
    4.4497   -5.5387   17.1699 N   0  0  0  0  0  0  0  0  0  0  0  0
    2.7683   -7.2999   17.2978 C   0  0  0  0  0  0  0  0  0  0  0  0
    2.7587   -7.4168   15.9270 O   0  0  0  0  0  0  0  0  0  0  0  0
    2.9767   -6.2028   15.2246 C   0  0  0  0  0  0  0  0  0  0  0  0
 17 18  3  0  0  0
 18 15  1  0  0  0
 15 14  2  0  0  0
 15 11  1  0  0  0
 14 13  1  0  0  0
 11 16  2  0  0  0
 13 12  2  0  0  0
 22 23  1  0  0  0
 22 19  1  0  0  0
 16 12  1  0  0  0
 16  3  1  0  0  0
 23 24  1  0  0  0
 19 21  1  0  0  0
  3  5  2  0  0  0
  3  7  1  0  0  0
  5  6  1  0  0  0
 24 20  1  0  0  0
 21 20  1  0  0  0
 21  8  1  0  0  0
  7  8  2  0  0  0
  7  4  1  0  0  0
  6  4  1  0  0  0
  8  2  1  0  0  0
  4  1  2  0  0  0
  2  9  2  0  0  0
  1  9  1  0  0  0
  6 10  1  0  0  0
M  END
> <minimizedAffinity>
-8.74321

$$$$
5OP5_3FE_A_301


 24 27  0  0  0  0  0  0  0  0999 V2000
    0.8318   -4.0269   20.2746 N   0  0  0  0  0  0  0  0  0  0  0  0
    1.2432   -5.5627   18.6541 N   0  0  0  0  0  0  0  0  0  0  0  0
    4.0806   -3.2218   19.4072 C   0  0  0  0  0  0  0  0  0  0  0  0
    2.0583   -3.5155   20.1911 C   0  0  0  0  0  0  0  0  0  0  0  0
    3.8298   -2.2914   20.4169 C   0  0  0  0  0  0  0  0  0  0  0  0
    2.6022   -2.5056   20.8574 N   0  0  0  0  0  0  0  0  0  0  0  0
    2.9372   -3.9993   19.2456 C   0  0  0  0  0  0  0  0  0  0  0  0
    2.4759   -5.0546   18.4588 C   0  0  0  0  0  0  0  0  0  0  0  0
    0.4029   -5.0485   19.5494 C   0  0  0  0  0  0  0  0  0  0  0  0
    2.1587   -1.9933   21.5717 H   0  0  0  0  0  0  0  0  0  0  0  0
    5.8260   -4.1883   17.9276 C   0  0  0  0  0  0  0  0  0  0  0  0
    6.1364   -2.0248   18.8635 C   0  0  0  0  0  0  0  0  0  0  0  0
    7.3908   -1.9436   18.2164 C   0  0  0  0  0  0  0  0  0  0  0  0
    7.8651   -2.9989   17.4292 C   0  0  0  0  0  0  0  0  0  0  0  0
    7.0662   -4.1248   17.2829 C   0  0  0  0  0  0  0  0  0  0  0  0
    5.3201   -3.1289   18.6278 C   0  0  0  0  0  0  0  0  0  0  0  0
    7.8135   -6.1114   15.8528 N   0  0  0  0  0  0  0  0  0  0  0  0
    7.4845   -5.2445   16.5173 C   0  0  0  0  0  0  0  0  0  0  0  0
    2.9788   -5.4137   16.1101 C   0  0  0  0  0  0  0  0  0  0  0  0
    3.8472   -6.9804   17.9264 C   0  0  0  0  0  0  0  0  0  0  0  0
    3.2004   -5.7174   17.5213 N   0  0  0  0  0  0  0  0  0  0  0  0
    4.1755   -5.9476   15.2984 C   0  0  0  0  0  0  0  0  0  0  0  0
    4.4825   -7.2651   15.5485 O   0  0  0  0  0  0  0  0  0  0  0  0
    4.8258   -7.5509   16.8958 C   0  0  0  0  0  0  0  0  0  0  0  0
 17 18  3  0  0  0
 18 15  1  0  0  0
 15 14  2  0  0  0
 15 11  1  0  0  0
 14 13  1  0  0  0
 11 16  2  0  0  0
 13 12  2  0  0  0
 22 23  1  0  0  0
 22 19  1  0  0  0
 16 12  1  0  0  0
 16  3  1  0  0  0
 23 24  1  0  0  0
 19 21  1  0  0  0
  3  5  2  0  0  0
  3  7  1  0  0  0
  5  6  1  0  0  0
 24 20  1  0  0  0
 21 20  1  0  0  0
 21  8  1  0  0  0
  7  8  2  0  0  0
  7  4  1  0  0  0
  6  4  1  0  0  0
  8  2  1  0  0  0
  4  1  2  0  0  0
  2  9  2  0  0  0
  1  9  1  0  0  0
  6 10  1  0  0  0
M  END
> <minimizedAffinity>
-8.20107

$$$$
5OP5_3FE_A_301


 24 27  0  0  0  0  0  0  0  0999 V2000
    6.6755   -3.2479   19.0591 N   0  0  0  0  0  0  0  0  0  0  0  0
    6.2184   -4.9575   17.6370 N   0  0  0  0  0  0  0  0  0  0  0  0
    3.2187   -3.2666   19.1339 C   0  0  0  0  0  0  0  0  0  0  0  0
    5.3858   -2.9880   19.2635 C   0  0  0  0  0  0  0  0  0  0  0  0
    3.5039   -2.2043   19.9931 C   0  0  0  0  0  0  0  0  0  0  0  0
    4.8184   -2.0748   20.0406 N   0  0  0  0  0  0  0  0  0  0  0  0
    4.4268   -3.7859   18.6767 C   0  0  0  0  0  0  0  0  0  0  0  0
    4.8963   -4.8046   17.8477 C   0  0  0  0  0  0  0  0  0  0  0  0
    7.1222   -4.1952   18.2487 C   0  0  0  0  0  0  0  0  0  0  0  0
    5.3030   -1.4025   20.5720 H   0  0  0  0  0  0  0  0  0  0  0  0
    1.1865   -4.3975   20.0064 C   0  0  0  0  0  0  0  0  0  0  0  0
    1.2998   -3.7745   17.7146 C   0  0  0  0  0  0  0  0  0  0  0  0
    0.0106   -4.3213   17.5200 C   0  0  0  0  0  0  0  0  0  0  0  0
   -0.6862   -4.9178   18.5769 C   0  0  0  0  0  0  0  0  0  0  0  0
   -0.0887   -4.9456   19.8297 C   0  0  0  0  0  0  0  0  0  0  0  0
    1.8363   -3.7392   18.9999 C   0  0  0  0  0  0  0  0  0  0  0  0
   -1.2054   -5.9936   21.8803 N   0  0  0  0  0  0  0  0  0  0  0  0
   -0.7221   -5.5494   20.9473 C   0  0  0  0  0  0  0  0  0  0  0  0
    3.5571   -6.8296   17.7825 C   0  0  0  0  0  0  0  0  0  0  0  0
    4.2377   -5.5980   15.6547 C   0  0  0  0  0  0  0  0  0  0  0  0
    4.1235   -5.6551   17.1248 N   0  0  0  0  0  0  0  0  0  0  0  0
    2.4093   -7.3757   16.9106 C   0  0  0  0  0  0  0  0  0  0  0  0
    2.7503   -7.5787   15.5933 O   0  0  0  0  0  0  0  0  0  0  0  0
    3.1823   -6.4154   14.9042 C   0  0  0  0  0  0  0  0  0  0  0  0
 17 18  3  0  0  0
 18 15  1  0  0  0
 15 14  2  0  0  0
 15 11  1  0  0  0
 14 13  1  0  0  0
 11 16  2  0  0  0
 13 12  2  0  0  0
 22 23  1  0  0  0
 22 19  1  0  0  0
 16 12  1  0  0  0
 16  3  1  0  0  0
 23 24  1  0  0  0
 19 21  1  0  0  0
  3  5  2  0  0  0
  3  7  1  0  0  0
  5  6  1  0  0  0
 24 20  1  0  0  0
 21 20  1  0  0  0
 21  8  1  0  0  0
  7  8  2  0  0  0
  7  4  1  0  0  0
  6  4  1  0  0  0
  8  2  1  0  0  0
  4  1  2  0  0  0
  2  9  2  0  0  0
  1  9  1  0  0  0
  6 10  1  0  0  0
M  END
> <minimizedAffinity>
-7.97196

$$$$
5OP5_3FE_A_301


 24 27  0  0  0  0  0  0  0  0999 V2000
    6.8966   -5.2590   16.7555 N   0  0  0  0  0  0  0  0  0  0  0  0
    5.4483   -6.5893   15.6211 N   0  0  0  0  0  0  0  0  0  0  0  0
    3.8906   -4.3530   18.2039 C   0  0  0  0  0  0  0  0  0  0  0  0
    5.9214   -4.6883   17.4597 C   0  0  0  0  0  0  0  0  0  0  0  0
    4.7823   -3.5236   18.8858 C   0  0  0  0  0  0  0  0  0  0  0  0
    5.9907   -3.7608   18.4055 N   0  0  0  0  0  0  0  0  0  0  0  0
    4.6213   -5.1175   17.2986 C   0  0  0  0  0  0  0  0  0  0  0  0
    4.4152   -6.1128   16.3434 C   0  0  0  0  0  0  0  0  0  0  0  0
    6.6989   -6.1822   15.8269 C   0  0  0  0  0  0  0  0  0  0  0  0
    6.8168   -3.3164   18.7044 H   0  0  0  0  0  0  0  0  0  0  0  0
    1.4598   -4.5728   17.7425 C   0  0  0  0  0  0  0  0  0  0  0  0
    2.2002   -3.9992   19.9279 C   0  0  0  0  0  0  0  0  0  0  0  0
    0.8522   -3.9384   20.3500 C   0  0  0  0  0  0  0  0  0  0  0  0
   -0.1948   -4.1875   19.4556 C   0  0  0  0  0  0  0  0  0  0  0  0
    0.1206   -4.5140   18.1436 C   0  0  0  0  0  0  0  0  0  0  0  0
    2.4879   -4.4141   18.6294 C   0  0  0  0  0  0  0  0  0  0  0  0
   -1.7326   -4.9540   16.4343 N   0  0  0  0  0  0  0  0  0  0  0  0
   -0.8842   -4.7615   17.1721 C   0  0  0  0  0  0  0  0  0  0  0  0
    2.3913   -5.8962   15.0185 C   0  0  0  0  0  0  0  0  0  0  0  0
    2.6066   -7.6373   16.8706 C   0  0  0  0  0  0  0  0  0  0  0  0
    3.2110   -6.6254   15.9826 N   0  0  0  0  0  0  0  0  0  0  0  0
    1.3208   -6.8540   14.4594 C   0  0  0  0  0  0  0  0  0  0  0  0
    0.5981   -7.5160   15.4249 O   0  0  0  0  0  0  0  0  0  0  0  0
    1.3708   -8.3321   16.2919 C   0  0  0  0  0  0  0  0  0  0  0  0
 17 18  3  0  0  0
 18 15  1  0  0  0
 15 14  2  0  0  0
 15 11  1  0  0  0
 14 13  1  0  0  0
 11 16  2  0  0  0
 13 12  2  0  0  0
 22 23  1  0  0  0
 22 19  1  0  0  0
 16 12  1  0  0  0
 16  3  1  0  0  0
 23 24  1  0  0  0
 19 21  1  0  0  0
  3  5  2  0  0  0
  3  7  1  0  0  0
  5  6  1  0  0  0
 24 20  1  0  0  0
 21 20  1  0  0  0
 21  8  1  0  0  0
  7  8  2  0  0  0
  7  4  1  0  0  0
  6  4  1  0  0  0
  8  2  1  0  0  0
  4  1  2  0  0  0
  2  9  2  0  0  0
  1  9  1  0  0  0
  6 10  1  0  0  0
M  END
> <minimizedAffinity>
-7.67997

$$$$
5OP5_3FE_A_301


 24 27  0  0  0  0  0  0  0  0999 V2000
    3.6087   -2.0061   19.9419 N   0  0  0  0  0  0  0  0  0  0  0  0
    5.1280   -3.5037   19.1654 N   0  0  0  0  0  0  0  0  0  0  0  0
    1.5851   -4.0942   18.0710 C   0  0  0  0  0  0  0  0  0  0  0  0
    2.6047   -2.5897   19.2906 C   0  0  0  0  0  0  0  0  0  0  0  0
    0.6574   -3.1606   18.5356 C   0  0  0  0  0  0  0  0  0  0  0  0
    1.3160   -2.2763   19.2646 N   0  0  0  0  0  0  0  0  0  0  0  0
    2.8362   -3.7416   18.5695 C   0  0  0  0  0  0  0  0  0  0  0  0
    4.1557   -4.1924   18.5358 C   0  0  0  0  0  0  0  0  0  0  0  0
    4.8668   -2.4154   19.8861 C   0  0  0  0  0  0  0  0  0  0  0  0
    0.9114   -1.5026   19.7194 H   0  0  0  0  0  0  0  0  0  0  0  0
    1.6798   -5.6962   16.1751 C   0  0  0  0  0  0  0  0  0  0  0  0
   -0.1144   -5.8120   17.7309 C   0  0  0  0  0  0  0  0  0  0  0  0
   -0.6576   -6.8920   16.9979 C   0  0  0  0  0  0  0  0  0  0  0  0
   -0.0290   -7.3664   15.8411 C   0  0  0  0  0  0  0  0  0  0  0  0
    1.1538   -6.7621   15.4370 C   0  0  0  0  0  0  0  0  0  0  0  0
    1.1175   -5.2838   17.3508 C   0  0  0  0  0  0  0  0  0  0  0  0
    2.4101   -7.5517   13.3517 N   0  0  0  0  0  0  0  0  0  0  0  0
    1.8409   -7.1725   14.2647 C   0  0  0  0  0  0  0  0  0  0  0  0
    4.3608   -6.6052   18.3495 C   0  0  0  0  0  0  0  0  0  0  0  0
    5.6700   -5.0232   16.8359 C   0  0  0  0  0  0  0  0  0  0  0  0
    4.6082   -5.2619   17.8326 N   0  0  0  0  0  0  0  0  0  0  0  0
    4.5703   -7.6182   17.2068 C   0  0  0  0  0  0  0  0  0  0  0  0
    5.7694   -7.4819   16.5464 O   0  0  0  0  0  0  0  0  0  0  0  0
    5.9685   -6.2198   15.9281 C   0  0  0  0  0  0  0  0  0  0  0  0
 17 18  3  0  0  0
 18 15  1  0  0  0
 15 14  2  0  0  0
 15 11  1  0  0  0
 14 13  1  0  0  0
 11 16  2  0  0  0
 13 12  2  0  0  0
 22 23  1  0  0  0
 22 19  1  0  0  0
 16 12  1  0  0  0
 16  3  1  0  0  0
 23 24  1  0  0  0
 19 21  1  0  0  0
  3  5  2  0  0  0
  3  7  1  0  0  0
  5  6  1  0  0  0
 24 20  1  0  0  0
 21 20  1  0  0  0
 21  8  1  0  0  0
  7  8  2  0  0  0
  7  4  1  0  0  0
  6  4  1  0  0  0
  8  2  1  0  0  0
  4  1  2  0  0  0
  2  9  2  0  0  0
  1  9  1  0  0  0
  6 10  1  0  0  0
M  END
> <minimizedAffinity>
-7.62684

$$$$
5OP5_3FE_A_301


 24 27  0  0  0  0  0  0  0  0999 V2000
    5.1545   -2.7705   19.6795 N   0  0  0  0  0  0  0  0  0  0  0  0
    5.2296   -4.3325   18.0336 N   0  0  0  0  0  0  0  0  0  0  0  0
    1.8614   -3.8221   19.6124 C   0  0  0  0  0  0  0  0  0  0  0  0
    3.8461   -2.9341   19.8634 C   0  0  0  0  0  0  0  0  0  0  0  0
    1.8159   -2.8479   20.6109 C   0  0  0  0  0  0  0  0  0  0  0  0
    3.0316   -2.3424   20.7273 N   0  0  0  0  0  0  0  0  0  0  0  0
    3.1695   -3.8942   19.1416 C   0  0  0  0  0  0  0  0  0  0  0  0
    3.9221   -4.6077   18.2089 C   0  0  0  0  0  0  0  0  0  0  0  0
    5.8640   -3.4257   18.7733 C   0  0  0  0  0  0  0  0  0  0  0  0
    3.2930   -1.6342   21.3592 H   0  0  0  0  0  0  0  0  0  0  0  0
    0.1163   -4.7782   18.1256 C   0  0  0  0  0  0  0  0  0  0  0  0
   -0.0325   -5.0948   20.4774 C   0  0  0  0  0  0  0  0  0  0  0  0
   -1.2340   -5.8152   20.2870 C   0  0  0  0  0  0  0  0  0  0  0  0
   -1.7643   -6.0065   19.0062 C   0  0  0  0  0  0  0  0  0  0  0  0
   -1.0729   -5.4863   17.9205 C   0  0  0  0  0  0  0  0  0  0  0  0
    0.6834   -4.6605   19.3639 C   0  0  0  0  0  0  0  0  0  0  0  0
   -1.9669   -5.7816   15.5407 N   0  0  0  0  0  0  0  0  0  0  0  0
   -1.5551   -5.6211   16.5923 C   0  0  0  0  0  0  0  0  0  0  0  0
    3.1194   -6.8739   17.8653 C   0  0  0  0  0  0  0  0  0  0  0  0
    3.6571   -5.3264   15.9098 C   0  0  0  0  0  0  0  0  0  0  0  0
    3.4390   -5.5441   17.3529 N   0  0  0  0  0  0  0  0  0  0  0  0
    2.2126   -7.5893   16.8445 C   0  0  0  0  0  0  0  0  0  0  0  0
    2.7000   -7.5846   15.5580 O   0  0  0  0  0  0  0  0  0  0  0  0
    2.8948   -6.2941   15.0000 C   0  0  0  0  0  0  0  0  0  0  0  0
 17 18  3  0  0  0
 18 15  1  0  0  0
 15 14  2  0  0  0
 15 11  1  0  0  0
 14 13  1  0  0  0
 11 16  2  0  0  0
 13 12  2  0  0  0
 22 23  1  0  0  0
 22 19  1  0  0  0
 16 12  1  0  0  0
 16  3  1  0  0  0
 23 24  1  0  0  0
 19 21  1  0  0  0
  3  5  2  0  0  0
  3  7  1  0  0  0
  5  6  1  0  0  0
 24 20  1  0  0  0
 21 20  1  0  0  0
 21  8  1  0  0  0
  7  8  2  0  0  0
  7  4  1  0  0  0
  6  4  1  0  0  0
  8  2  1  0  0  0
  4  1  2  0  0  0
  2  9  2  0  0  0
  1  9  1  0  0  0
  6 10  1  0  0  0
M  END
> <minimizedAffinity>
-7.54285

$$$$
5OP5_3FE_A_301


 24 27  0  0  0  0  0  0  0  0999 V2000
    7.6476   -5.3724   15.0473 N   0  0  0  0  0  0  0  0  0  0  0  0
    5.7175   -6.5163   14.7007 N   0  0  0  0  0  0  0  0  0  0  0  0
    5.6240   -4.0179   17.5021 C   0  0  0  0  0  0  0  0  0  0  0  0
    7.1192   -4.6529   16.0352 C   0  0  0  0  0  0  0  0  0  0  0  0
    6.8069   -3.3038   17.6995 C   0  0  0  0  0  0  0  0  0  0  0  0
    7.6768   -3.7198   16.7956 N   0  0  0  0  0  0  0  0  0  0  0  0
    5.8262   -4.9003   16.4444 C   0  0  0  0  0  0  0  0  0  0  0  0
    5.1331   -5.8815   15.7358 C   0  0  0  0  0  0  0  0  0  0  0  0
    6.9813   -6.2827   14.3539 C   0  0  0  0  0  0  0  0  0  0  0  0
    8.5987   -3.3877   16.7010 H   0  0  0  0  0  0  0  0  0  0  0  0
    3.2152   -4.0716   18.1060 C   0  0  0  0  0  0  0  0  0  0  0  0
    4.8038   -3.2239   19.6588 C   0  0  0  0  0  0  0  0  0  0  0  0
    3.7518   -2.9636   20.5667 C   0  0  0  0  0  0  0  0  0  0  0  0
    2.4237   -3.2518   20.2326 C   0  0  0  0  0  0  0  0  0  0  0  0
    2.1625   -3.8174   18.9920 C   0  0  0  0  0  0  0  0  0  0  0  0
    4.5208   -3.8713   18.4580 C   0  0  0  0  0  0  0  0  0  0  0  0
   -0.2072   -4.3420   18.1801 N   0  0  0  0  0  0  0  0  0  0  0  0
    0.8412   -4.1209   18.5715 C   0  0  0  0  0  0  0  0  0  0  0  0
    3.5321   -7.3923   16.7619 C   0  0  0  0  0  0  0  0  0  0  0  0
    2.8373   -5.7037   14.9804 C   0  0  0  0  0  0  0  0  0  0  0  0
    3.8356   -6.2300   15.9312 N   0  0  0  0  0  0  0  0  0  0  0  0
    2.0494   -7.3255   17.1781 C   0  0  0  0  0  0  0  0  0  0  0  0
    1.1781   -7.1409   16.1296 O   0  0  0  0  0  0  0  0  0  0  0  0
    1.3817   -5.9469   15.3896 C   0  0  0  0  0  0  0  0  0  0  0  0
 17 18  3  0  0  0
 18 15  1  0  0  0
 15 14  2  0  0  0
 15 11  1  0  0  0
 14 13  1  0  0  0
 11 16  2  0  0  0
 13 12  2  0  0  0
 22 23  1  0  0  0
 22 19  1  0  0  0
 16 12  1  0  0  0
 16  3  1  0  0  0
 23 24  1  0  0  0
 19 21  1  0  0  0
  3  5  2  0  0  0
  3  7  1  0  0  0
  5  6  1  0  0  0
 24 20  1  0  0  0
 21 20  1  0  0  0
 21  8  1  0  0  0
  7  8  2  0  0  0
  7  4  1  0  0  0
  6  4  1  0  0  0
  8  2  1  0  0  0
  4  1  2  0  0  0
  2  9  2  0  0  0
  1  9  1  0  0  0
  6 10  1  0  0  0
M  END
> <minimizedAffinity>
-7.42613

$$$$
5OP5_3FE_A_301


 24 27  0  0  0  0  0  0  0  0999 V2000
   -1.3829   -4.1584   19.9765 N   0  0  0  0  0  0  0  0  0  0  0  0
   -1.0758   -5.4386   18.1269 N   0  0  0  0  0  0  0  0  0  0  0  0
    2.0475   -3.9568   19.5926 C   0  0  0  0  0  0  0  0  0  0  0  0
   -0.0788   -3.9261   20.1109 C   0  0  0  0  0  0  0  0  0  0  0  0
    1.8561   -3.1858   20.7402 C   0  0  0  0  0  0  0  0  0  0  0  0
    0.5629   -3.1954   21.0132 N   0  0  0  0  0  0  0  0  0  0  0  0
    0.8032   -4.4198   19.1734 C   0  0  0  0  0  0  0  0  0  0  0  0
    0.2487   -5.1912   18.1523 C   0  0  0  0  0  0  0  0  0  0  0  0
   -1.9075   -4.9156   19.0251 C   0  0  0  0  0  0  0  0  0  0  0  0
    0.1401   -2.7308   21.7712 H   0  0  0  0  0  0  0  0  0  0  0  0
    3.7874   -5.0696   18.2126 C   0  0  0  0  0  0  0  0  0  0  0  0
    4.3185   -3.0836   19.4071 C   0  0  0  0  0  0  0  0  0  0  0  0
    5.6404   -3.1595   18.9113 C   0  0  0  0  0  0  0  0  0  0  0  0
    6.0353   -4.2051   18.0693 C   0  0  0  0  0  0  0  0  0  0  0  0
    5.0922   -5.1607   17.7158 C   0  0  0  0  0  0  0  0  0  0  0  0
    3.3730   -4.0068   18.9658 C   0  0  0  0  0  0  0  0  0  0  0  0
    5.7364   -7.1477   16.2371 N   0  0  0  0  0  0  0  0  0  0  0  0
    5.4194   -6.2618   16.8820 C   0  0  0  0  0  0  0  0  0  0  0  0
    1.0689   -5.1824   15.8664 C   0  0  0  0  0  0  0  0  0  0  0  0
    1.1678   -7.2745   17.3228 C   0  0  0  0  0  0  0  0  0  0  0  0
    0.9438   -5.8237   17.1725 N   0  0  0  0  0  0  0  0  0  0  0  0
    2.2220   -5.8558   15.0964 C   0  0  0  0  0  0  0  0  0  0  0  0
    2.1379   -7.2280   15.0434 O   0  0  0  0  0  0  0  0  0  0  0  0
    2.1447   -7.8740   16.3072 C   0  0  0  0  0  0  0  0  0  0  0  0
 17 18  3  0  0  0
 18 15  1  0  0  0
 15 14  2  0  0  0
 15 11  1  0  0  0
 14 13  1  0  0  0
 11 16  2  0  0  0
 13 12  2  0  0  0
 22 23  1  0  0  0
 22 19  1  0  0  0
 16 12  1  0  0  0
 16  3  1  0  0  0
 23 24  1  0  0  0
 19 21  1  0  0  0
  3  5  2  0  0  0
  3  7  1  0  0  0
  5  6  1  0  0  0
 24 20  1  0  0  0
 21 20  1  0  0  0
 21  8  1  0  0  0
  7  8  2  0  0  0
  7  4  1  0  0  0
  6  4  1  0  0  0
  8  2  1  0  0  0
  4  1  2  0  0  0
  2  9  2  0  0  0
  1  9  1  0  0  0
  6 10  1  0  0  0
M  END
> <minimizedAffinity>
-7.38007

$$$$
5OP5_3FE_A_301


 24 27  0  0  0  0  0  0  0  0999 V2000
    1.2915   -3.1793   19.9493 N   0  0  0  0  0  0  0  0  0  0  0  0
    0.5479   -4.5583   18.3062 N   0  0  0  0  0  0  0  0  0  0  0  0
    4.2760   -4.4337   18.7350 C   0  0  0  0  0  0  0  0  0  0  0  0
    2.5650   -3.5013   19.7318 C   0  0  0  0  0  0  0  0  0  0  0  0
    4.7277   -3.5989   19.7584 C   0  0  0  0  0  0  0  0  0  0  0  0
    3.6643   -3.0596   20.3286 N   0  0  0  0  0  0  0  0  0  0  0  0
    2.8862   -4.3597   18.7020 C   0  0  0  0  0  0  0  0  0  0  0  0
    1.8144   -4.8802   17.9770 C   0  0  0  0  0  0  0  0  0  0  0  0
    0.2711   -3.6960   19.2818 C   0  0  0  0  0  0  0  0  0  0  0  0
    3.6849   -2.4262   21.0819 H   0  0  0  0  0  0  0  0  0  0  0  0
    6.2905   -4.3641   17.2833 C   0  0  0  0  0  0  0  0  0  0  0  0
    4.9035   -6.2953   17.2876 C   0  0  0  0  0  0  0  0  0  0  0  0
    5.7546   -6.8875   16.3264 C   0  0  0  0  0  0  0  0  0  0  0  0
    6.8737   -6.2048   15.8367 C   0  0  0  0  0  0  0  0  0  0  0  0
    7.1409   -4.9349   16.3302 C   0  0  0  0  0  0  0  0  0  0  0  0
    5.2455   -5.0574   17.8275 C   0  0  0  0  0  0  0  0  0  0  0  0
    9.1673   -3.6035   15.5108 N   0  0  0  0  0  0  0  0  0  0  0  0
    8.2450   -4.1706   15.8700 C   0  0  0  0  0  0  0  0  0  0  0  0
    1.9219   -5.3185   15.5906 C   0  0  0  0  0  0  0  0  0  0  0  0
    1.5605   -7.1893   17.2868 C   0  0  0  0  0  0  0  0  0  0  0  0
    1.9060   -5.7894   16.9730 N   0  0  0  0  0  0  0  0  0  0  0  0
    2.4546   -6.4513   14.6913 C   0  0  0  0  0  0  0  0  0  0  0  0
    1.8161   -7.6573   14.8671 O   0  0  0  0  0  0  0  0  0  0  0  0
    1.9024   -8.1906   16.1797 C   0  0  0  0  0  0  0  0  0  0  0  0
 17 18  3  0  0  0
 18 15  1  0  0  0
 15 14  2  0  0  0
 15 11  1  0  0  0
 14 13  1  0  0  0
 11 16  2  0  0  0
 13 12  2  0  0  0
 22 23  1  0  0  0
 22 19  1  0  0  0
 16 12  1  0  0  0
 16  3  1  0  0  0
 23 24  1  0  0  0
 19 21  1  0  0  0
  3  5  2  0  0  0
  3  7  1  0  0  0
  5  6  1  0  0  0
 24 20  1  0  0  0
 21 20  1  0  0  0
 21  8  1  0  0  0
  7  8  2  0  0  0
  7  4  1  0  0  0
  6  4  1  0  0  0
  8  2  1  0  0  0
  4  1  2  0  0  0
  2  9  2  0  0  0
  1  9  1  0  0  0
  6 10  1  0  0  0
M  END
> <minimizedAffinity>
-7.24730

$$$$
