4NNR_FK5_A_201


 60 63  0  0  0  0  0  0  0  0999 V2000
   19.6049   32.7528    9.0443 C   0  0  0  0  0  0  0  0  0  0  0  0
   18.1963   32.5451    9.5326 C   0  0  0  0  0  0  0  0  0  0  0  0
   17.2725   32.4791    8.3208 C   0  0  0  0  0  0  0  0  0  0  0  0
   17.0323   33.8246    7.6962 C   0  0  0  0  0  0  0  0  0  0  0  0
   16.5131   34.8331    8.7075 C   0  0  0  0  0  0  0  0  0  0  0  0
   17.3916   34.9116    9.9431 C   0  0  0  0  0  0  0  0  0  0  0  0
   17.5181   33.2538   11.7534 C   0  0  0  0  0  0  0  0  0  0  0  0
   17.0243   34.1830   12.6243 C   0  0  0  0  0  0  0  0  0  0  0  0
   17.9106   35.1069   13.4307 C   0  0  0  0  0  0  0  0  0  0  0  0
   19.1647   34.3931   13.9186 C   0  0  0  0  0  0  0  0  0  0  0  0
   20.1383   35.4451   14.4861 C   0  0  0  0  0  0  0  0  0  0  0  0
   20.3701   36.5315   13.4482 C   0  0  0  0  0  0  0  0  0  0  0  0
   19.0339   37.1944   13.1587 C   0  0  0  0  0  0  0  0  0  0  0  0
   19.0771   38.4143   12.2267 C   0  0  0  0  0  0  0  0  0  0  0  0
   19.8971   38.2346   10.9305 C   0  0  0  0  0  0  0  0  0  0  0  0
   19.7852   39.4466    9.9907 C   0  0  0  0  0  0  0  0  0  0  0  0
   20.8301   40.5367   10.3067 C   0  0  0  0  0  0  0  0  0  0  0  0
   22.1879   40.1318    9.7638 C   0  0  0  0  0  0  0  0  0  0  0  0
   23.1613   39.4918   10.6488 C   0  0  0  0  0  0  0  0  0  0  0  0
   24.4443   38.8786   10.1914 C   0  0  0  0  0  0  0  0  0  0  0  0
   24.1655   37.4827    9.7573 C   0  0  0  0  0  0  0  0  0  0  0  0
   23.8867   37.1238    8.3319 C   0  0  0  0  0  0  0  0  0  0  0  0
   23.4234   35.6728    8.2746 C   0  0  0  0  0  0  0  0  0  0  0  0
   22.0121   35.3703    8.8653 C   0  0  0  0  0  0  0  0  0  0  0  0
   21.6138   33.8790    8.8241 C   0  0  0  0  0  0  0  0  0  0  0  0
   18.8819   33.3207   14.9553 C   0  0  0  0  0  0  0  0  0  0  0  0
   18.3675   40.0355   10.0594 C   0  0  0  0  0  0  0  0  0  0  0  0
   22.5031   40.4027    8.3268 C   0  0  0  0  0  0  0  0  0  0  0  0
   20.8704   36.1675    8.2274 C   0  0  0  0  0  0  0  0  0  0  0  0
   17.7089   33.5716   10.4620 N   0  0  0  0  0  0  0  0  0  0  0  0
   20.3325   33.7139    9.4121 O   0  0  0  0  0  0  0  0  0  0  0  0
   20.0713   31.8059    8.1522 O   0  0  0  0  0  0  0  0  0  0  0  0
   17.7587   31.9712   12.2484 O   0  0  0  0  0  0  0  0  0  0  0  0
   15.6547   34.2975   12.7115 O   0  0  0  0  0  0  0  0  0  0  0  0
   18.2300   36.1935   12.5682 O   0  0  0  0  0  0  0  0  0  0  0  0
   17.1869   35.6121   14.5751 O   0  0  0  0  0  0  0  0  0  0  0  0
   24.1613   36.4682   10.7196 O   0  0  0  0  0  0  0  0  0  0  0  0
   23.4619   35.4483    6.8905 O   0  0  0  0  0  0  0  0  0  0  0  0
   16.9656   34.8769   15.1680 H   0  0  0  0  0  0  0  0  0  0  0  0
   22.8747   36.0784    6.4443 H   0  0  0  0  0  0  0  0  0  0  0  0
   22.6112   33.1192    9.6295 C   0  0  0  0  0  0  0  0  0  0  0  0
   23.3744   32.0541    9.0099 C   0  0  0  0  0  0  0  0  0  0  0  0
   22.8016   33.4820   11.0633 C   0  0  0  0  0  0  0  0  0  0  0  0
   24.4596   31.3318    9.7665 C   0  0  0  0  0  0  0  0  0  0  0  0
   24.4079   29.8366    9.4171 C   0  0  0  0  0  0  0  0  0  0  0  0
   25.5751   29.1141   10.0691 C   0  0  0  0  0  0  0  0  0  0  0  0
   26.8551   29.6920    9.4545 C   0  0  0  0  0  0  0  0  0  0  0  0
   26.9816   31.1662    9.8509 C   0  0  0  0  0  0  0  0  0  0  0  0
   25.7812   31.9835    9.3873 C   0  0  0  0  0  0  0  0  0  0  0  0
   28.0257   29.0331    9.8832 O   0  0  0  0  0  0  0  0  0  0  0  0
   28.1230   29.1382   10.8425 H   0  0  0  0  0  0  0  0  0  0  0  0
   24.6183   27.3504    8.8469 C   0  0  0  0  0  0  0  0  0  0  0  0
   25.4262   27.7089    9.9518 O   0  0  0  0  0  0  0  0  0  0  0  0
   21.3297   37.4845   15.3129 C   0  0  0  0  0  0  0  0  0  0  0  0
   21.3523   37.4311   13.8999 O   0  0  0  0  0  0  0  0  0  0  0  0
   18.6762   39.9633   13.9476 C   0  0  0  0  0  0  0  0  0  0  0  0
   19.5651   39.5254   12.9532 O   0  0  0  0  0  0  0  0  0  0  0  0
   25.4153   38.7114   11.3691 C   0  0  0  0  0  0  0  0  0  0  0  0
   24.8402   39.3021   12.6288 C   0  0  0  0  0  0  0  0  0  0  0  0
   24.7895   38.4923   13.8454 C   0  0  0  0  0  0  0  0  0  0  0  0
  1  2  1  0  0  0
  1 31  1  0  0  0
  1 32  2  0  0  0
  2  3  1  0  0  0
  2 30  1  0  0  0
  3  4  1  0  0  0
  4  5  1  0  0  0
  5  6  1  0  0  0
  6 30  1  0  0  0
  7  8  1  0  0  0
  7 30  1  0  0  0
  7 33  2  0  0  0
  8  9  1  0  0  0
  8 34  2  0  0  0
  9 10  1  0  0  0
  9 35  1  0  0  0
  9 36  1  0  0  0
 10 11  1  0  0  0
 10 26  1  0  0  0
 11 12  1  0  0  0
 12 13  1  0  0  0
 12 55  1  0  0  0
 13 14  1  0  0  0
 13 35  1  0  0  0
 14 15  1  0  0  0
 14 57  1  0  0  0
 15 16  1  0  0  0
 16 17  1  0  0  0
 16 27  1  0  0  0
 17 18  1  0  0  0
 18 19  2  0  0  0
 18 28  1  0  0  0
 19 20  1  0  0  0
 20 21  1  0  0  0
 20 58  1  0  0  0
 21 22  1  0  0  0
 21 37  2  0  0  0
 22 23  1  0  0  0
 23 24  1  0  0  0
 23 38  1  0  0  0
 24 25  1  0  0  0
 24 29  1  0  0  0
 25 41  1  0  0  0
 25 31  1  0  0  0
 41 42  2  0  0  0
 41 43  1  0  0  0
 42 44  1  0  0  0
 44 45  1  0  0  0
 44 49  1  0  0  0
 45 46  1  0  0  0
 46 47  1  0  0  0
 46 53  1  0  0  0
 47 48  1  0  0  0
 47 50  1  0  0  0
 48 49  1  0  0  0
 58 59  1  0  0  0
 59 60  2  0  0  0
 54 55  1  0  0  0
 56 57  1  0  0  0
 52 53  1  0  0  0
 36 39  1  0  0  0
 38 40  1  0  0  0
 50 51  1  0  0  0
M  END
> <minimizedAffinity>
-9.72805

$$$$
4NNR_FK5_A_201


 60 63  0  0  0  0  0  0  0  0999 V2000
   19.5361   32.8959    8.9810 C   0  0  0  0  0  0  0  0  0  0  0  0
   18.1568   32.6406    9.5268 C   0  0  0  0  0  0  0  0  0  0  0  0
   17.1873   32.5378    8.3539 C   0  0  0  0  0  0  0  0  0  0  0  0
   16.8747   33.8718    7.7366 C   0  0  0  0  0  0  0  0  0  0  0  0
   16.3618   34.8652    8.7658 C   0  0  0  0  0  0  0  0  0  0  0  0
   17.2866   34.9790    9.9644 C   0  0  0  0  0  0  0  0  0  0  0  0
   17.5449   33.3334   11.7718 C   0  0  0  0  0  0  0  0  0  0  0  0
   17.0546   34.2479   12.6601 C   0  0  0  0  0  0  0  0  0  0  0  0
   17.9399   35.2053   13.4275 C   0  0  0  0  0  0  0  0  0  0  0  0
   19.2372   34.5378   13.8655 C   0  0  0  0  0  0  0  0  0  0  0  0
   20.1954   35.6253   14.3904 C   0  0  0  0  0  0  0  0  0  0  0  0
   20.3464   36.7154   13.3415 C   0  0  0  0  0  0  0  0  0  0  0  0
   18.9770   37.3299   13.1051 C   0  0  0  0  0  0  0  0  0  0  0  0
   18.9393   38.5471   12.1694 C   0  0  0  0  0  0  0  0  0  0  0  0
   19.7117   38.3915   10.8413 C   0  0  0  0  0  0  0  0  0  0  0  0
   19.5191   39.5953    9.9041 C   0  0  0  0  0  0  0  0  0  0  0  0
   20.5369   40.7225   10.1748 C   0  0  0  0  0  0  0  0  0  0  0  0
   21.8850   40.3636    9.5779 C   0  0  0  0  0  0  0  0  0  0  0  0
   22.9154   39.7613   10.4239 C   0  0  0  0  0  0  0  0  0  0  0  0
   24.1996   39.1919    9.9159 C   0  0  0  0  0  0  0  0  0  0  0  0
   23.9526   37.7854    9.4967 C   0  0  0  0  0  0  0  0  0  0  0  0
   23.6289   37.4117    8.0847 C   0  0  0  0  0  0  0  0  0  0  0  0
   23.2151   35.9451    8.0496 C   0  0  0  0  0  0  0  0  0  0  0  0
   21.8404   35.5955    8.6981 C   0  0  0  0  0  0  0  0  0  0  0  0
   21.4935   34.0910    8.6765 C   0  0  0  0  0  0  0  0  0  0  0  0
   19.0346   33.4599   14.9153 C   0  0  0  0  0  0  0  0  0  0  0  0
   18.0855   40.1344   10.0292 C   0  0  0  0  0  0  0  0  0  0  0  0
   22.1317   40.6400    8.1286 C   0  0  0  0  0  0  0  0  0  0  0  0
   20.6464   36.3498    8.1054 C   0  0  0  0  0  0  0  0  0  0  0  0
   17.6718   33.6529   10.4731 N   0  0  0  0  0  0  0  0  0  0  0  0
   20.2438   33.8832    9.3167 O   0  0  0  0  0  0  0  0  0  0  0  0
   19.9989   31.9626    8.0728 O   0  0  0  0  0  0  0  0  0  0  0  0
   17.8505   32.0619   12.2595 O   0  0  0  0  0  0  0  0  0  0  0  0
   15.6865   34.3147   12.8028 O   0  0  0  0  0  0  0  0  0  0  0  0
   18.1854   36.2992   12.5503 O   0  0  0  0  0  0  0  0  0  0  0  0
   17.2460   35.6890   14.5994 O   0  0  0  0  0  0  0  0  0  0  0  0
   24.0233   36.7749   10.4606 O   0  0  0  0  0  0  0  0  0  0  0  0
   23.2051   35.7170    6.6656 O   0  0  0  0  0  0  0  0  0  0  0  0
   17.0750   34.9487   15.2024 H   0  0  0  0  0  0  0  0  0  0  0  0
   22.5784   36.3245    6.2423 H   0  0  0  0  0  0  0  0  0  0  0  0
   22.5489   33.3696    9.4423 C   0  0  0  0  0  0  0  0  0  0  0  0
   22.8945   33.8094   10.7794 C   0  0  0  0  0  0  0  0  0  0  0  0
   23.2238   32.2012    8.8075 C   0  0  0  0  0  0  0  0  0  0  0  0
   23.8854   33.0446   11.6191 C   0  0  0  0  0  0  0  0  0  0  0  0
   25.3088   33.4873   11.2472 C   0  0  0  0  0  0  0  0  0  0  0  0
   26.3140   32.8226   12.1731 C   0  0  0  0  0  0  0  0  0  0  0  0
   26.0217   33.3350   13.5880 C   0  0  0  0  0  0  0  0  0  0  0  0
   24.6384   32.8430   14.0248 C   0  0  0  0  0  0  0  0  0  0  0  0
   23.5425   33.3157   13.0765 C   0  0  0  0  0  0  0  0  0  0  0  0
   26.9552   32.8888   14.5460 O   0  0  0  0  0  0  0  0  0  0  0  0
   26.9219   31.9211   14.6037 H   0  0  0  0  0  0  0  0  0  0  0  0
   27.8592   34.3762   11.3254 C   0  0  0  0  0  0  0  0  0  0  0  0
   27.6385   33.0333   11.7127 O   0  0  0  0  0  0  0  0  0  0  0  0
   21.3336   37.7222   15.1629 C   0  0  0  0  0  0  0  0  0  0  0  0
   21.3139   37.6505   13.7507 O   0  0  0  0  0  0  0  0  0  0  0  0
   18.4926   40.1734   13.8057 C   0  0  0  0  0  0  0  0  0  0  0  0
   19.4170   39.6773   12.8729 O   0  0  0  0  0  0  0  0  0  0  0  0
   25.2229   39.0632   11.0534 C   0  0  0  0  0  0  0  0  0  0  0  0
   24.6873   39.6570   12.3290 C   0  0  0  0  0  0  0  0  0  0  0  0
   24.7110   38.8640   13.5574 C   0  0  0  0  0  0  0  0  0  0  0  0
  1  2  1  0  0  0
  1 31  1  0  0  0
  1 32  2  0  0  0
  2  3  1  0  0  0
  2 30  1  0  0  0
  3  4  1  0  0  0
  4  5  1  0  0  0
  5  6  1  0  0  0
  6 30  1  0  0  0
  7  8  1  0  0  0
  7 30  1  0  0  0
  7 33  2  0  0  0
  8  9  1  0  0  0
  8 34  2  0  0  0
  9 10  1  0  0  0
  9 35  1  0  0  0
  9 36  1  0  0  0
 10 11  1  0  0  0
 10 26  1  0  0  0
 11 12  1  0  0  0
 12 13  1  0  0  0
 12 55  1  0  0  0
 13 14  1  0  0  0
 13 35  1  0  0  0
 14 15  1  0  0  0
 14 57  1  0  0  0
 15 16  1  0  0  0
 16 17  1  0  0  0
 16 27  1  0  0  0
 17 18  1  0  0  0
 18 19  2  0  0  0
 18 28  1  0  0  0
 19 20  1  0  0  0
 20 21  1  0  0  0
 20 58  1  0  0  0
 21 22  1  0  0  0
 21 37  2  0  0  0
 22 23  1  0  0  0
 23 24  1  0  0  0
 23 38  1  0  0  0
 24 25  1  0  0  0
 24 29  1  0  0  0
 25 41  1  0  0  0
 25 31  1  0  0  0
 41 42  2  0  0  0
 41 43  1  0  0  0
 42 44  1  0  0  0
 44 45  1  0  0  0
 44 49  1  0  0  0
 45 46  1  0  0  0
 46 47  1  0  0  0
 46 53  1  0  0  0
 47 48  1  0  0  0
 47 50  1  0  0  0
 48 49  1  0  0  0
 58 59  1  0  0  0
 59 60  2  0  0  0
 54 55  1  0  0  0
 56 57  1  0  0  0
 52 53  1  0  0  0
 36 39  1  0  0  0
 38 40  1  0  0  0
 50 51  1  0  0  0
M  END
> <minimizedAffinity>
-9.38651

$$$$
4NNR_FK5_A_201


 60 63  0  0  0  0  0  0  0  0999 V2000
   22.0044   41.4418   10.8086 C   0  0  0  0  0  0  0  0  0  0  0  0
   22.2072   41.8997   12.2280 C   0  0  0  0  0  0  0  0  0  0  0  0
   23.6090   42.4887   12.3473 C   0  0  0  0  0  0  0  0  0  0  0  0
   24.6841   41.4387   12.3589 C   0  0  0  0  0  0  0  0  0  0  0  0
   24.4487   40.4001   13.4431 C   0  0  0  0  0  0  0  0  0  0  0  0
   23.0533   39.8061   13.3758 C   0  0  0  0  0  0  0  0  0  0  0  0
   20.9635   40.9043   14.0601 C   0  0  0  0  0  0  0  0  0  0  0  0
   20.8033   39.9656   15.0393 C   0  0  0  0  0  0  0  0  0  0  0  0
   20.0378   38.6779   14.8268 C   0  0  0  0  0  0  0  0  0  0  0  0
   18.8046   38.8976   13.9599 C   0  0  0  0  0  0  0  0  0  0  0  0
   18.2349   37.5220   13.5602 C   0  0  0  0  0  0  0  0  0  0  0  0
   19.3341   36.6838   12.9275 C   0  0  0  0  0  0  0  0  0  0  0  0
   20.4279   36.4879   13.9637 C   0  0  0  0  0  0  0  0  0  0  0  0
   21.5757   35.5508   13.5600 C   0  0  0  0  0  0  0  0  0  0  0  0
   22.1788   35.7995   12.1602 C   0  0  0  0  0  0  0  0  0  0  0  0
   23.4040   34.9130   11.8815 C   0  0  0  0  0  0  0  0  0  0  0  0
   23.0176   33.5410   11.2917 C   0  0  0  0  0  0  0  0  0  0  0  0
   22.6769   33.6823    9.8198 C   0  0  0  0  0  0  0  0  0  0  0  0
   21.2793   33.8162    9.4086 C   0  0  0  0  0  0  0  0  0  0  0  0
   20.8346   34.1526    8.0227 C   0  0  0  0  0  0  0  0  0  0  0  0
   20.8498   35.6334    7.8746 C   0  0  0  0  0  0  0  0  0  0  0  0
   22.0199   36.3734    7.3075 C   0  0  0  0  0  0  0  0  0  0  0  0
   21.7980   37.8678    7.5095 C   0  0  0  0  0  0  0  0  0  0  0  0
   21.8871   38.3913    8.9760 C   0  0  0  0  0  0  0  0  0  0  0  0
   21.6077   39.9023    9.1278 C   0  0  0  0  0  0  0  0  0  0  0  0
   17.7353   39.7366   14.6364 C   0  0  0  0  0  0  0  0  0  0  0  0
   24.2206   34.7252   13.1697 C   0  0  0  0  0  0  0  0  0  0  0  0
   23.7862   33.6772    8.8162 C   0  0  0  0  0  0  0  0  0  0  0  0
   23.2168   38.0983    9.6773 C   0  0  0  0  0  0  0  0  0  0  0  0
   22.0293   40.8547   13.2437 N   0  0  0  0  0  0  0  0  0  0  0  0
   21.6832   40.2632   10.4985 O   0  0  0  0  0  0  0  0  0  0  0  0
   22.1888   42.4093    9.8390 O   0  0  0  0  0  0  0  0  0  0  0  0
   20.0148   41.9253   13.9855 O   0  0  0  0  0  0  0  0  0  0  0  0
   21.4222   40.2044   16.2463 O   0  0  0  0  0  0  0  0  0  0  0  0
   20.9529   37.7756   14.2145 O   0  0  0  0  0  0  0  0  0  0  0  0
   19.6218   38.1341   16.0995 O   0  0  0  0  0  0  0  0  0  0  0  0
   19.7280   36.3610    8.2838 O   0  0  0  0  0  0  0  0  0  0  0  0
   22.8291   38.3876    6.7131 O   0  0  0  0  0  0  0  0  0  0  0  0
   18.9976   38.7438   16.5232 H   0  0  0  0  0  0  0  0  0  0  0  0
   23.6831   38.0583    7.0342 H   0  0  0  0  0  0  0  0  0  0  0  0
   20.2230   40.1602    8.6410 C   0  0  0  0  0  0  0  0  0  0  0  0
   19.0987   39.9658    9.5349 C   0  0  0  0  0  0  0  0  0  0  0  0
   20.0306   40.6199    7.2355 C   0  0  0  0  0  0  0  0  0  0  0  0
   17.6951   40.3110    9.1075 C   0  0  0  0  0  0  0  0  0  0  0  0
   16.7400   40.0934   10.2911 C   0  0  0  0  0  0  0  0  0  0  0  0
   15.3425   40.5596    9.9183 C   0  0  0  0  0  0  0  0  0  0  0  0
   15.4306   42.0685    9.6624 C   0  0  0  0  0  0  0  0  0  0  0  0
   16.3130   42.3194    8.4356 C   0  0  0  0  0  0  0  0  0  0  0  0
   17.7159   41.7523    8.6203 C   0  0  0  0  0  0  0  0  0  0  0  0
   14.1774   42.6658    9.4157 O   0  0  0  0  0  0  0  0  0  0  0  0
   13.7898   42.2842    8.6125 H   0  0  0  0  0  0  0  0  0  0  0  0
   14.7584   40.6205   12.1932 C   0  0  0  0  0  0  0  0  0  0  0  0
   14.4009   40.1647   10.9023 O   0  0  0  0  0  0  0  0  0  0  0  0
   17.9259   35.7436   11.3657 C   0  0  0  0  0  0  0  0  0  0  0  0
   18.8030   35.4754   12.4422 O   0  0  0  0  0  0  0  0  0  0  0  0
   20.7197   33.8657   14.9563 C   0  0  0  0  0  0  0  0  0  0  0  0
   21.1275   34.2129   13.6586 O   0  0  0  0  0  0  0  0  0  0  0  0
   19.3596   33.7771    7.8208 C   0  0  0  0  0  0  0  0  0  0  0  0
   19.0762   32.3999    8.3589 C   0  0  0  0  0  0  0  0  0  0  0  0
   17.8184   31.7377    8.0153 C   0  0  0  0  0  0  0  0  0  0  0  0
  1  2  1  0  0  0
  1 31  1  0  0  0
  1 32  2  0  0  0
  2  3  1  0  0  0
  2 30  1  0  0  0
  3  4  1  0  0  0
  4  5  1  0  0  0
  5  6  1  0  0  0
  6 30  1  0  0  0
  7  8  1  0  0  0
  7 30  1  0  0  0
  7 33  2  0  0  0
  8  9  1  0  0  0
  8 34  2  0  0  0
  9 10  1  0  0  0
  9 35  1  0  0  0
  9 36  1  0  0  0
 10 11  1  0  0  0
 10 26  1  0  0  0
 11 12  1  0  0  0
 12 13  1  0  0  0
 12 55  1  0  0  0
 13 14  1  0  0  0
 13 35  1  0  0  0
 14 15  1  0  0  0
 14 57  1  0  0  0
 15 16  1  0  0  0
 16 17  1  0  0  0
 16 27  1  0  0  0
 17 18  1  0  0  0
 18 19  2  0  0  0
 18 28  1  0  0  0
 19 20  1  0  0  0
 20 21  1  0  0  0
 20 58  1  0  0  0
 21 22  1  0  0  0
 21 37  2  0  0  0
 22 23  1  0  0  0
 23 24  1  0  0  0
 23 38  1  0  0  0
 24 25  1  0  0  0
 24 29  1  0  0  0
 25 41  1  0  0  0
 25 31  1  0  0  0
 41 42  2  0  0  0
 41 43  1  0  0  0
 42 44  1  0  0  0
 44 45  1  0  0  0
 44 49  1  0  0  0
 45 46  1  0  0  0
 46 47  1  0  0  0
 46 53  1  0  0  0
 47 48  1  0  0  0
 47 50  1  0  0  0
 48 49  1  0  0  0
 58 59  1  0  0  0
 59 60  2  0  0  0
 54 55  1  0  0  0
 56 57  1  0  0  0
 52 53  1  0  0  0
 36 39  1  0  0  0
 38 40  1  0  0  0
 50 51  1  0  0  0
M  END
> <minimizedAffinity>
-7.07728

$$$$
4NNR_FK5_A_201


 60 63  0  0  0  0  0  0  0  0999 V2000
   19.5116   37.8808   13.0319 C   0  0  0  0  0  0  0  0  0  0  0  0
   18.7038   36.7016   13.5036 C   0  0  0  0  0  0  0  0  0  0  0  0
   18.9724   36.4993   14.9912 C   0  0  0  0  0  0  0  0  0  0  0  0
   20.3204   35.8936   15.2637 C   0  0  0  0  0  0  0  0  0  0  0  0
   20.5197   34.5922   14.5047 C   0  0  0  0  0  0  0  0  0  0  0  0
   20.2370   34.7439   13.0209 C   0  0  0  0  0  0  0  0  0  0  0  0
   18.0253   34.9475   11.9683 C   0  0  0  0  0  0  0  0  0  0  0  0
   18.2338   33.7607   11.3252 C   0  0  0  0  0  0  0  0  0  0  0  0
   18.8611   33.6690    9.9513 C   0  0  0  0  0  0  0  0  0  0  0  0
   18.3901   34.7996    9.0456 C   0  0  0  0  0  0  0  0  0  0  0  0
   19.2635   34.8064    7.7753 C   0  0  0  0  0  0  0  0  0  0  0  0
   20.7306   34.8575    8.1706 C   0  0  0  0  0  0  0  0  0  0  0  0
   21.0403   33.6103    8.9813 C   0  0  0  0  0  0  0  0  0  0  0  0
   22.5132   33.4076    9.3660 C   0  0  0  0  0  0  0  0  0  0  0  0
   23.2234   34.6434    9.9604 C   0  0  0  0  0  0  0  0  0  0  0  0
   24.6495   34.3277   10.4412 C   0  0  0  0  0  0  0  0  0  0  0  0
   25.6962   34.4702    9.3170 C   0  0  0  0  0  0  0  0  0  0  0  0
   26.0087   35.9355    9.0768 C   0  0  0  0  0  0  0  0  0  0  0  0
   25.3272   36.6554    8.0008 C   0  0  0  0  0  0  0  0  0  0  0  0
   25.4046   38.1323    7.7907 C   0  0  0  0  0  0  0  0  0  0  0  0
   24.3791   38.7804    8.6527 C   0  0  0  0  0  0  0  0  0  0  0  0
   24.6914   39.3065   10.0180 C   0  0  0  0  0  0  0  0  0  0  0  0
   23.3858   39.6903   10.7046 C   0  0  0  0  0  0  0  0  0  0  0  0
   22.4493   38.5153   11.1227 C   0  0  0  0  0  0  0  0  0  0  0  0
   21.1210   38.9629   11.7704 C   0  0  0  0  0  0  0  0  0  0  0  0
   16.9207   34.7025    8.6765 C   0  0  0  0  0  0  0  0  0  0  0  0
   24.7017   32.9125   11.0376 C   0  0  0  0  0  0  0  0  0  0  0  0
   27.0168   36.6133    9.9497 C   0  0  0  0  0  0  0  0  0  0  0  0
   23.0937   37.4897   12.0600 C   0  0  0  0  0  0  0  0  0  0  0  0
   18.9666   35.4483   12.7857 N   0  0  0  0  0  0  0  0  0  0  0  0
   20.3364   37.8215   12.0809 O   0  0  0  0  0  0  0  0  0  0  0  0
   19.2908   39.0637   13.7117 O   0  0  0  0  0  0  0  0  0  0  0  0
   16.7921   35.5736   11.7804 O   0  0  0  0  0  0  0  0  0  0  0  0
   17.8978   32.6104   12.0039 O   0  0  0  0  0  0  0  0  0  0  0  0
   20.2683   33.7184   10.1599 O   0  0  0  0  0  0  0  0  0  0  0  0
   18.5210   32.4064    9.3358 O   0  0  0  0  0  0  0  0  0  0  0  0
   23.0727   38.8995    8.1685 O   0  0  0  0  0  0  0  0  0  0  0  0
   23.8796   40.3787   11.8226 O   0  0  0  0  0  0  0  0  0  0  0  0
   17.5629   32.3653    9.1903 H   0  0  0  0  0  0  0  0  0  0  0  0
   24.4504   39.7888   12.3394 H   0  0  0  0  0  0  0  0  0  0  0  0
   20.3857   39.7922   10.7743 C   0  0  0  0  0  0  0  0  0  0  0  0
   19.9232   39.1907    9.5393 C   0  0  0  0  0  0  0  0  0  0  0  0
   20.1395   41.2307   11.0803 C   0  0  0  0  0  0  0  0  0  0  0  0
   19.0920   39.9734    8.5552 C   0  0  0  0  0  0  0  0  0  0  0  0
   17.7909   40.4213    9.2386 C   0  0  0  0  0  0  0  0  0  0  0  0
   17.0004   41.3209    8.3030 C   0  0  0  0  0  0  0  0  0  0  0  0
   17.8539   42.5712    8.0617 C   0  0  0  0  0  0  0  0  0  0  0  0
   19.1266   42.1730    7.3078 C   0  0  0  0  0  0  0  0  0  0  0  0
   19.9428   41.1411    8.0778 C   0  0  0  0  0  0  0  0  0  0  0  0
   17.1956   43.5560    7.2970 O   0  0  0  0  0  0  0  0  0  0  0  0
   16.9936   43.2008    6.4173 H   0  0  0  0  0  0  0  0  0  0  0  0
   15.0098   40.3614    9.1012 C   0  0  0  0  0  0  0  0  0  0  0  0
   15.7008   41.5628    8.8161 O   0  0  0  0  0  0  0  0  0  0  0  0
   21.6071   36.3557    6.6562 C   0  0  0  0  0  0  0  0  0  0  0  0
   21.5362   34.9924    7.0257 O   0  0  0  0  0  0  0  0  0  0  0  0
   23.3167   31.5473    8.1762 C   0  0  0  0  0  0  0  0  0  0  0  0
   23.2209   32.9468    8.2314 O   0  0  0  0  0  0  0  0  0  0  0  0
   24.9728   38.5001    6.3639 C   0  0  0  0  0  0  0  0  0  0  0  0
   24.9715   37.2870    5.4723 C   0  0  0  0  0  0  0  0  0  0  0  0
   25.8107   37.2732    4.2748 C   0  0  0  0  0  0  0  0  0  0  0  0
  1  2  1  0  0  0
  1 31  1  0  0  0
  1 32  2  0  0  0
  2  3  1  0  0  0
  2 30  1  0  0  0
  3  4  1  0  0  0
  4  5  1  0  0  0
  5  6  1  0  0  0
  6 30  1  0  0  0
  7  8  1  0  0  0
  7 30  1  0  0  0
  7 33  2  0  0  0
  8  9  1  0  0  0
  8 34  2  0  0  0
  9 10  1  0  0  0
  9 35  1  0  0  0
  9 36  1  0  0  0
 10 11  1  0  0  0
 10 26  1  0  0  0
 11 12  1  0  0  0
 12 13  1  0  0  0
 12 55  1  0  0  0
 13 14  1  0  0  0
 13 35  1  0  0  0
 14 15  1  0  0  0
 14 57  1  0  0  0
 15 16  1  0  0  0
 16 17  1  0  0  0
 16 27  1  0  0  0
 17 18  1  0  0  0
 18 19  2  0  0  0
 18 28  1  0  0  0
 19 20  1  0  0  0
 20 21  1  0  0  0
 20 58  1  0  0  0
 21 22  1  0  0  0
 21 37  2  0  0  0
 22 23  1  0  0  0
 23 24  1  0  0  0
 23 38  1  0  0  0
 24 25  1  0  0  0
 24 29  1  0  0  0
 25 41  1  0  0  0
 25 31  1  0  0  0
 41 42  2  0  0  0
 41 43  1  0  0  0
 42 44  1  0  0  0
 44 45  1  0  0  0
 44 49  1  0  0  0
 45 46  1  0  0  0
 46 47  1  0  0  0
 46 53  1  0  0  0
 47 48  1  0  0  0
 47 50  1  0  0  0
 48 49  1  0  0  0
 58 59  1  0  0  0
 59 60  2  0  0  0
 54 55  1  0  0  0
 56 57  1  0  0  0
 52 53  1  0  0  0
 36 39  1  0  0  0
 38 40  1  0  0  0
 50 51  1  0  0  0
M  END
> <minimizedAffinity>
-6.88663

$$$$
4NNR_FK5_A_201


 60 63  0  0  0  0  0  0  0  0999 V2000
   26.2502   35.5687    9.9530 C   0  0  0  0  0  0  0  0  0  0  0  0
   26.4101   36.6591    8.9279 C   0  0  0  0  0  0  0  0  0  0  0  0
   27.6773   37.4429    9.2536 C   0  0  0  0  0  0  0  0  0  0  0  0
   27.5119   38.3540   10.4372 C   0  0  0  0  0  0  0  0  0  0  0  0
   26.3323   39.2965   10.2650 C   0  0  0  0  0  0  0  0  0  0  0  0
   25.0535   38.5575    9.9140 C   0  0  0  0  0  0  0  0  0  0  0  0
   24.4935   37.5582    7.7393 C   0  0  0  0  0  0  0  0  0  0  0  0
   23.4591   38.4410    7.6120 C   0  0  0  0  0  0  0  0  0  0  0  0
   22.0566   38.1392    8.0933 C   0  0  0  0  0  0  0  0  0  0  0  0
   21.6778   36.6866    7.8351 C   0  0  0  0  0  0  0  0  0  0  0  0
   20.3666   36.3809    8.5860 C   0  0  0  0  0  0  0  0  0  0  0  0
   20.5211   36.7629   10.0494 C   0  0  0  0  0  0  0  0  0  0  0  0
   20.7972   38.2555   10.1165 C   0  0  0  0  0  0  0  0  0  0  0  0
   20.8540   38.8656   11.5248 C   0  0  0  0  0  0  0  0  0  0  0  0
   21.7166   38.0975   12.5499 C   0  0  0  0  0  0  0  0  0  0  0  0
   21.8311   38.8366   13.8935 C   0  0  0  0  0  0  0  0  0  0  0  0
   20.6746   38.4947   14.8555 C   0  0  0  0  0  0  0  0  0  0  0  0
   20.9045   37.1338   15.4860 C   0  0  0  0  0  0  0  0  0  0  0  0
   20.2603   35.9515   14.9139 C   0  0  0  0  0  0  0  0  0  0  0  0
   20.5588   34.5458   15.3218 C   0  0  0  0  0  0  0  0  0  0  0  0
   21.7396   34.0761   14.5471 C   0  0  0  0  0  0  0  0  0  0  0  0
   23.1357   34.1606   15.0779 C   0  0  0  0  0  0  0  0  0  0  0  0
   24.1073   33.8128   13.9561 C   0  0  0  0  0  0  0  0  0  0  0  0
   24.2391   34.8548   12.8032 C   0  0  0  0  0  0  0  0  0  0  0  0
   25.2000   34.4302   11.6716 C   0  0  0  0  0  0  0  0  0  0  0  0
   21.5322   36.3557    6.3606 C   0  0  0  0  0  0  0  0  0  0  0  0
   21.8915   40.3535   13.6552 C   0  0  0  0  0  0  0  0  0  0  0  0
   21.7877   37.0333   16.6892 C   0  0  0  0  0  0  0  0  0  0  0  0
   24.6560   36.2571   13.2566 C   0  0  0  0  0  0  0  0  0  0  0  0
   25.2751   37.5853    8.8317 N   0  0  0  0  0  0  0  0  0  0  0  0
   25.2198   35.4314   10.6655 O   0  0  0  0  0  0  0  0  0  0  0  0
   27.3193   34.7007   10.0703 O   0  0  0  0  0  0  0  0  0  0  0  0
   24.7263   36.6818    6.6783 O   0  0  0  0  0  0  0  0  0  0  0  0
   23.7469   39.6723    7.0665 O   0  0  0  0  0  0  0  0  0  0  0  0
   22.0469   38.4425    9.4841 O   0  0  0  0  0  0  0  0  0  0  0  0
   21.1075   38.9953    7.4187 O   0  0  0  0  0  0  0  0  0  0  0  0
   21.5359   33.5376   13.2728 O   0  0  0  0  0  0  0  0  0  0  0  0
   25.3015   33.6936   14.6823 O   0  0  0  0  0  0  0  0  0  0  0  0
   21.1084   38.7944    6.4698 H   0  0  0  0  0  0  0  0  0  0  0  0
   25.4894   34.5306   15.1352 H   0  0  0  0  0  0  0  0  0  0  0  0
   24.6756   33.1673   11.0792 C   0  0  0  0  0  0  0  0  0  0  0  0
   25.5041   31.9780   11.0725 C   0  0  0  0  0  0  0  0  0  0  0  0
   23.2981   33.1606   10.5082 C   0  0  0  0  0  0  0  0  0  0  0  0
   24.9707   30.6601   10.5718 C   0  0  0  0  0  0  0  0  0  0  0  0
   25.2059   30.5643    9.0566 C   0  0  0  0  0  0  0  0  0  0  0  0
   24.7929   29.1899    8.5567 C   0  0  0  0  0  0  0  0  0  0  0  0
   25.7170   28.1732    9.2367 C   0  0  0  0  0  0  0  0  0  0  0  0
   25.4519   28.1836   10.7453 C   0  0  0  0  0  0  0  0  0  0  0  0
   25.6801   29.5632   11.3521 C   0  0  0  0  0  0  0  0  0  0  0  0
   25.5257   26.8533    8.7790 O   0  0  0  0  0  0  0  0  0  0  0  0
   24.6220   26.5674    8.9851 H   0  0  0  0  0  0  0  0  0  0  0  0
   24.9108   30.4409    6.5715 C   0  0  0  0  0  0  0  0  0  0  0  0
   24.7859   29.1510    7.1393 O   0  0  0  0  0  0  0  0  0  0  0  0
   18.2593   36.3485    9.9129 C   0  0  0  0  0  0  0  0  0  0  0  0
   19.3805   36.3738   10.7744 O   0  0  0  0  0  0  0  0  0  0  0  0
   18.7851   39.9591   11.3111 C   0  0  0  0  0  0  0  0  0  0  0  0
   19.5345   39.0032   12.0150 O   0  0  0  0  0  0  0  0  0  0  0  0
   19.4302   33.6024   14.8816 C   0  0  0  0  0  0  0  0  0  0  0  0
   18.2563   34.3798   14.3482 C   0  0  0  0  0  0  0  0  0  0  0  0
   17.5862   33.9259   13.1302 C   0  0  0  0  0  0  0  0  0  0  0  0
  1  2  1  0  0  0
  1 31  1  0  0  0
  1 32  2  0  0  0
  2  3  1  0  0  0
  2 30  1  0  0  0
  3  4  1  0  0  0
  4  5  1  0  0  0
  5  6  1  0  0  0
  6 30  1  0  0  0
  7  8  1  0  0  0
  7 30  1  0  0  0
  7 33  2  0  0  0
  8  9  1  0  0  0
  8 34  2  0  0  0
  9 10  1  0  0  0
  9 35  1  0  0  0
  9 36  1  0  0  0
 10 11  1  0  0  0
 10 26  1  0  0  0
 11 12  1  0  0  0
 12 13  1  0  0  0
 12 55  1  0  0  0
 13 14  1  0  0  0
 13 35  1  0  0  0
 14 15  1  0  0  0
 14 57  1  0  0  0
 15 16  1  0  0  0
 16 17  1  0  0  0
 16 27  1  0  0  0
 17 18  1  0  0  0
 18 19  2  0  0  0
 18 28  1  0  0  0
 19 20  1  0  0  0
 20 21  1  0  0  0
 20 58  1  0  0  0
 21 22  1  0  0  0
 21 37  2  0  0  0
 22 23  1  0  0  0
 23 24  1  0  0  0
 23 38  1  0  0  0
 24 25  1  0  0  0
 24 29  1  0  0  0
 25 41  1  0  0  0
 25 31  1  0  0  0
 41 42  2  0  0  0
 41 43  1  0  0  0
 42 44  1  0  0  0
 44 45  1  0  0  0
 44 49  1  0  0  0
 45 46  1  0  0  0
 46 47  1  0  0  0
 46 53  1  0  0  0
 47 48  1  0  0  0
 47 50  1  0  0  0
 48 49  1  0  0  0
 58 59  1  0  0  0
 59 60  2  0  0  0
 54 55  1  0  0  0
 56 57  1  0  0  0
 52 53  1  0  0  0
 36 39  1  0  0  0
 38 40  1  0  0  0
 50 51  1  0  0  0
M  END
> <minimizedAffinity>
-6.86649

$$$$
4NNR_FK5_A_201


 60 63  0  0  0  0  0  0  0  0999 V2000
   17.7425   36.6921    9.6424 C   0  0  0  0  0  0  0  0  0  0  0  0
   17.7920   35.3115    9.0447 C   0  0  0  0  0  0  0  0  0  0  0  0
   16.4574   34.6237    9.3127 C   0  0  0  0  0  0  0  0  0  0  0  0
   16.3066   34.1786   10.7401 C   0  0  0  0  0  0  0  0  0  0  0  0
   17.4601   33.2933   11.1815 C   0  0  0  0  0  0  0  0  0  0  0  0
   18.8104   33.9311   10.9085 C   0  0  0  0  0  0  0  0  0  0  0  0
   19.9031   34.1577    8.7185 C   0  0  0  0  0  0  0  0  0  0  0  0
   20.9072   33.3365    9.1464 C   0  0  0  0  0  0  0  0  0  0  0  0
   22.1656   33.8528    9.8093 C   0  0  0  0  0  0  0  0  0  0  0  0
   22.6447   35.1480    9.1663 C   0  0  0  0  0  0  0  0  0  0  0  0
   23.7508   35.7552   10.0520 C   0  0  0  0  0  0  0  0  0  0  0  0
   23.2414   35.8864   11.4784 C   0  0  0  0  0  0  0  0  0  0  0  0
   22.9059   34.4939   11.9852 C   0  0  0  0  0  0  0  0  0  0  0  0
   22.4965   34.3970   13.4622 C   0  0  0  0  0  0  0  0  0  0  0  0
   21.4430   35.4242   13.9310 C   0  0  0  0  0  0  0  0  0  0  0  0
   20.9884   35.1813   15.3797 C   0  0  0  0  0  0  0  0  0  0  0  0
   21.8956   35.8866   16.4089 C   0  0  0  0  0  0  0  0  0  0  0  0
   21.5702   37.3677   16.4638 C   0  0  0  0  0  0  0  0  0  0  0  0
   22.3720   38.3154   15.6896 C   0  0  0  0  0  0  0  0  0  0  0  0
   22.0342   39.7595   15.5104 C   0  0  0  0  0  0  0  0  0  0  0  0
   21.0872   39.8788   14.3685 C   0  0  0  0  0  0  0  0  0  0  0  0
   19.6030   39.9109   14.5540 C   0  0  0  0  0  0  0  0  0  0  0  0
   18.9370   39.8081   13.1869 C   0  0  0  0  0  0  0  0  0  0  0  0
   19.0458   38.4310   12.4629 C   0  0  0  0  0  0  0  0  0  0  0  0
   18.3951   38.3975   11.0630 C   0  0  0  0  0  0  0  0  0  0  0  0
   23.1463   34.9646    7.7452 C   0  0  0  0  0  0  0  0  0  0  0  0
   20.9337   33.6728   15.6672 C   0  0  0  0  0  0  0  0  0  0  0  0
   20.4315   37.8276   17.3179 C   0  0  0  0  0  0  0  0  0  0  0  0
   18.4852   37.2477   13.2575 C   0  0  0  0  0  0  0  0  0  0  0  0
   18.8849   34.4651    9.5393 N   0  0  0  0  0  0  0  0  0  0  0  0
   18.5792   37.1142   10.4850 O   0  0  0  0  0  0  0  0  0  0  0  0
   16.7067   37.4943    9.2024 O   0  0  0  0  0  0  0  0  0  0  0  0
   19.9583   34.6085    7.3988 O   0  0  0  0  0  0  0  0  0  0  0  0
   20.7142   31.9805    9.0035 O   0  0  0  0  0  0  0  0  0  0  0  0
   21.8356   34.0414   11.1812 O   0  0  0  0  0  0  0  0  0  0  0  0
   23.2171   32.8664    9.7100 O   0  0  0  0  0  0  0  0  0  0  0  0
   21.6051   39.9613   13.0723 O   0  0  0  0  0  0  0  0  0  0  0  0
   17.6098   40.1079   13.5277 O   0  0  0  0  0  0  0  0  0  0  0  0
   23.4477   32.7324    8.7774 H   0  0  0  0  0  0  0  0  0  0  0  0
   17.2913   39.4667   14.1822 H   0  0  0  0  0  0  0  0  0  0  0  0
   19.0880   39.4080   10.2148 C   0  0  0  0  0  0  0  0  0  0  0  0
   18.3566   40.5601    9.7266 C   0  0  0  0  0  0  0  0  0  0  0  0
   20.5299   39.2064    9.8921 C   0  0  0  0  0  0  0  0  0  0  0  0
   19.0492   41.6505    8.9499 C   0  0  0  0  0  0  0  0  0  0  0  0
   18.8287   41.4171    7.4475 C   0  0  0  0  0  0  0  0  0  0  0  0
   19.4090   42.5766    6.6549 C   0  0  0  0  0  0  0  0  0  0  0  0
   18.6173   43.8276    7.0530 C   0  0  0  0  0  0  0  0  0  0  0  0
   18.8781   44.1384    8.5301 C   0  0  0  0  0  0  0  0  0  0  0  0
   18.4805   42.9765    9.4332 C   0  0  0  0  0  0  0  0  0  0  0  0
   18.9707   44.9711    6.3075 O   0  0  0  0  0  0  0  0  0  0  0  0
   19.9027   45.1865    6.4683 H   0  0  0  0  0  0  0  0  0  0  0  0
   18.1941   41.7308    4.8305 C   0  0  0  0  0  0  0  0  0  0  0  0
   19.4216   42.2820    5.2680 O   0  0  0  0  0  0  0  0  0  0  0  0
   24.1489   37.9403   11.9924 C   0  0  0  0  0  0  0  0  0  0  0  0
   24.1909   36.5546   12.2721 O   0  0  0  0  0  0  0  0  0  0  0  0
   24.4261   33.3252   14.2682 C   0  0  0  0  0  0  0  0  0  0  0  0
   23.6570   34.4996   14.2641 O   0  0  0  0  0  0  0  0  0  0  0  0
   23.2669   40.5514   15.0513 C   0  0  0  0  0  0  0  0  0  0  0  0
   23.5751   41.6708   16.0097 C   0  0  0  0  0  0  0  0  0  0  0  0
   22.9214   41.6989   17.3175 C   0  0  0  0  0  0  0  0  0  0  0  0
  1  2  1  0  0  0
  1 31  1  0  0  0
  1 32  2  0  0  0
  2  3  1  0  0  0
  2 30  1  0  0  0
  3  4  1  0  0  0
  4  5  1  0  0  0
  5  6  1  0  0  0
  6 30  1  0  0  0
  7  8  1  0  0  0
  7 30  1  0  0  0
  7 33  2  0  0  0
  8  9  1  0  0  0
  8 34  2  0  0  0
  9 10  1  0  0  0
  9 35  1  0  0  0
  9 36  1  0  0  0
 10 11  1  0  0  0
 10 26  1  0  0  0
 11 12  1  0  0  0
 12 13  1  0  0  0
 12 55  1  0  0  0
 13 14  1  0  0  0
 13 35  1  0  0  0
 14 15  1  0  0  0
 14 57  1  0  0  0
 15 16  1  0  0  0
 16 17  1  0  0  0
 16 27  1  0  0  0
 17 18  1  0  0  0
 18 19  2  0  0  0
 18 28  1  0  0  0
 19 20  1  0  0  0
 20 21  1  0  0  0
 20 58  1  0  0  0
 21 22  1  0  0  0
 21 37  2  0  0  0
 22 23  1  0  0  0
 23 24  1  0  0  0
 23 38  1  0  0  0
 24 25  1  0  0  0
 24 29  1  0  0  0
 25 41  1  0  0  0
 25 31  1  0  0  0
 41 42  2  0  0  0
 41 43  1  0  0  0
 42 44  1  0  0  0
 44 45  1  0  0  0
 44 49  1  0  0  0
 45 46  1  0  0  0
 46 47  1  0  0  0
 46 53  1  0  0  0
 47 48  1  0  0  0
 47 50  1  0  0  0
 48 49  1  0  0  0
 58 59  1  0  0  0
 59 60  2  0  0  0
 54 55  1  0  0  0
 56 57  1  0  0  0
 52 53  1  0  0  0
 36 39  1  0  0  0
 38 40  1  0  0  0
 50 51  1  0  0  0
M  END
> <minimizedAffinity>
-6.73052

$$$$
