3IWW_YZE_A_1


 34 34  0  0  0  0  0  0  0  0999 V2000
   20.4269   44.6446   44.0402 C   0  0  0  0  0  0  0  0  0  0  0  0
   17.7741   45.1732   41.6855 N   0  0  0  0  0  0  0  0  0  0  0  0
   18.4159   44.5928   42.6752 C   0  0  0  0  0  0  0  0  0  0  0  0
   19.5358   45.1979   43.0253 N   0  0  0  0  0  0  0  0  0  0  0  0
   17.9933   43.5665   43.2406 O   0  0  0  0  0  0  0  0  0  0  0  0
   18.1071   46.0129   41.2939 H   0  0  0  0  0  0  0  0  0  0  0  0
   19.7768   46.0470   42.5891 H   0  0  0  0  0  0  0  0  0  0  0  0
   16.5722   44.5534   41.1861 C   0  0  0  0  0  0  0  0  0  0  0  0
   16.9611   44.1606   39.7319 C   0  0  0  0  0  0  0  0  0  0  0  0
   16.2552   43.2930   39.1330 O   0  0  0  0  0  0  0  0  0  0  0  0
   18.0262   44.6472   39.2743 O   0  0  0  0  0  0  0  0  0  0  0  0
   18.5001   45.2860   39.7696 H   0  0  0  0  0  0  0  0  0  0  0  0
   15.3650   45.5003   41.2268 C   0  0  0  0  0  0  0  0  0  0  0  0
   14.3037   47.1579   39.6858 C   0  0  0  0  0  0  0  0  0  0  0  0
   15.4622   46.6292   40.2153 C   0  0  0  0  0  0  0  0  0  0  0  0
   20.1697   45.3914   45.3752 C   0  0  0  0  0  0  0  0  0  0  0  0
   19.8238   46.6119   45.3479 O   0  0  0  0  0  0  0  0  0  0  0  0
   20.2220   44.6902   46.3954 O   0  0  0  0  0  0  0  0  0  0  0  0
   20.4878   43.7938   46.3346 H   0  0  0  0  0  0  0  0  0  0  0  0
   21.8611   44.9093   43.4969 C   0  0  0  0  0  0  0  0  0  0  0  0
   22.0019   46.1473   42.5862 C   0  0  0  0  0  0  0  0  0  0  0  0
   23.4627   46.4691   42.0801 C   0  0  0  0  0  0  0  0  0  0  0  0
   23.9284   47.9385   42.2641 C   0  0  0  0  0  0  0  0  0  0  0  0
   24.0512   48.3183   43.6986 N   0  0  0  0  0  0  0  0  0  0  0  0
   23.1976   49.1818   44.2755 C   0  0  0  0  0  0  0  0  0  0  0  0
   22.2452   49.6374   43.6468 O   0  0  0  0  0  0  0  0  0  0  0  0
   24.7759   47.9272   44.2382 H   0  0  0  0  0  0  0  0  0  0  0  0
   23.3166   49.4707   45.8122 C   0  0  0  0  0  0  0  0  0  0  0  0
   23.2062   50.7895   46.3474 C   0  0  0  0  0  0  0  0  0  0  0  0
   23.3027   51.0414   47.7591 C   0  0  0  0  0  0  0  0  0  0  0  0
   23.5245   50.0148   48.7089 C   0  0  0  0  0  0  0  0  0  0  0  0
   23.6654   50.2611   50.9230 I   0  0  0  0  0  0  0  0  0  0  0  0
   23.6309   48.7281   48.1164 C   0  0  0  0  0  0  0  0  0  0  0  0
   23.5301   48.4390   46.7314 C   0  0  0  0  0  0  0  0  0  0  0  0
 15 14  2  0  0  0
 15 13  1  0  0  0
 13  8  1  0  0  0
  8  2  1  0  0  0
  9  8  1  0  0  0
  9 11  1  0  0  0
 10  9  2  0  0  0
  2  3  1  0  0  0
  3  4  1  0  0  0
  4  1  1  0  0  0
  1 16  1  0  0  0
 20  1  1  0  0  0
 20 21  1  0  0  0
 22 21  1  0  0  0
 22 23  1  0  0  0
 23 24  1  0  0  0
 24 25  1  0  0  0
 25 28  1  0  0  0
 28 29  2  0  0  0
 28 34  1  0  0  0
 29 30  1  0  0  0
 30 31  2  0  0  0
 31 32  1  0  0  0
 33 31  1  0  0  0
 34 33  2  0  0  0
 26 25  2  0  0  0
 16 17  2  0  0  0
 16 18  1  0  0  0
  5  3  2  0  0  0
 11 12  1  0  0  0
  2  6  1  0  0  0
  4  7  1  0  0  0
 24 27  1  0  0  0
 18 19  1  0  0  0
M  END
> <minimizedAffinity>
-10.29146

$$$$
3IWW_YZE_A_1


 34 34  0  0  0  0  0  0  0  0999 V2000
   19.4778   45.0920   44.6157 C   0  0  0  0  0  0  0  0  0  0  0  0
   17.3690   45.0941   41.7150 N   0  0  0  0  0  0  0  0  0  0  0  0
   17.8098   44.7035   42.8905 C   0  0  0  0  0  0  0  0  0  0  0  0
   18.8003   45.4335   43.3689 N   0  0  0  0  0  0  0  0  0  0  0  0
   17.3230   43.7345   43.5031 O   0  0  0  0  0  0  0  0  0  0  0  0
   17.7396   45.8955   41.2797 H   0  0  0  0  0  0  0  0  0  0  0  0
   19.0903   46.2313   42.8702 H   0  0  0  0  0  0  0  0  0  0  0  0
   16.3310   44.3231   41.0775 C   0  0  0  0  0  0  0  0  0  0  0  0
   16.8557   44.1698   39.6210 C   0  0  0  0  0  0  0  0  0  0  0  0
   16.1219   43.5718   38.7762 O   0  0  0  0  0  0  0  0  0  0  0  0
   18.0321   44.5510   39.3946 O   0  0  0  0  0  0  0  0  0  0  0  0
   18.5201   44.9881   40.0646 H   0  0  0  0  0  0  0  0  0  0  0  0
   14.9660   45.0227   41.1304 C   0  0  0  0  0  0  0  0  0  0  0  0
   14.0068   47.0533   40.0326 C   0  0  0  0  0  0  0  0  0  0  0  0
   15.0382   46.4931   40.7569 C   0  0  0  0  0  0  0  0  0  0  0  0
   20.0639   46.3926   45.2250 C   0  0  0  0  0  0  0  0  0  0  0  0
   19.5320   47.5082   44.9374 O   0  0  0  0  0  0  0  0  0  0  0  0
   20.9702   46.2300   46.0540 O   0  0  0  0  0  0  0  0  0  0  0  0
   21.3125   45.3722   46.2118 H   0  0  0  0  0  0  0  0  0  0  0  0
   20.5968   44.0935   44.1996 C   0  0  0  0  0  0  0  0  0  0  0  0
   21.3192   43.3901   45.3680 C   0  0  0  0  0  0  0  0  0  0  0  0
   22.6307   42.5959   44.9905 C   0  0  0  0  0  0  0  0  0  0  0  0
   23.7842   43.4482   44.3966 C   0  0  0  0  0  0  0  0  0  0  0  0
   23.6421   44.8954   44.7172 N   0  0  0  0  0  0  0  0  0  0  0  0
   23.8492   45.8470   43.7905 C   0  0  0  0  0  0  0  0  0  0  0  0
   24.1016   45.5452   42.6264 O   0  0  0  0  0  0  0  0  0  0  0  0
   23.3902   45.1621   45.6308 H   0  0  0  0  0  0  0  0  0  0  0  0
   23.5915   47.3492   44.1593 C   0  0  0  0  0  0  0  0  0  0  0  0
   22.9692   48.2579   43.2511 C   0  0  0  0  0  0  0  0  0  0  0  0
   22.7248   49.6294   43.6047 C   0  0  0  0  0  0  0  0  0  0  0  0
   23.0906   50.1759   44.8588 C   0  0  0  0  0  0  0  0  0  0  0  0
   22.7456   52.2714   45.5464 I   0  0  0  0  0  0  0  0  0  0  0  0
   23.7092   49.2265   45.7155 C   0  0  0  0  0  0  0  0  0  0  0  0
   23.9567   47.8643   45.4069 C   0  0  0  0  0  0  0  0  0  0  0  0
 15 14  2  0  0  0
 15 13  1  0  0  0
 13  8  1  0  0  0
  8  2  1  0  0  0
  9  8  1  0  0  0
  9 11  1  0  0  0
 10  9  2  0  0  0
  2  3  1  0  0  0
  3  4  1  0  0  0
  4  1  1  0  0  0
  1 16  1  0  0  0
 20  1  1  0  0  0
 20 21  1  0  0  0
 22 21  1  0  0  0
 22 23  1  0  0  0
 23 24  1  0  0  0
 24 25  1  0  0  0
 25 28  1  0  0  0
 28 29  2  0  0  0
 28 34  1  0  0  0
 29 30  1  0  0  0
 30 31  2  0  0  0
 31 32  1  0  0  0
 33 31  1  0  0  0
 34 33  2  0  0  0
 26 25  2  0  0  0
 16 17  2  0  0  0
 16 18  1  0  0  0
  5  3  2  0  0  0
 11 12  1  0  0  0
  2  6  1  0  0  0
  4  7  1  0  0  0
 24 27  1  0  0  0
 18 19  1  0  0  0
M  END
> <minimizedAffinity>
-9.35727

$$$$
3IWW_YZE_A_1


 34 34  0  0  0  0  0  0  0  0999 V2000
   20.6675   44.8280   43.5960 C   0  0  0  0  0  0  0  0  0  0  0  0
   17.7096   45.3499   41.6366 N   0  0  0  0  0  0  0  0  0  0  0  0
   18.5216   44.7227   42.4585 C   0  0  0  0  0  0  0  0  0  0  0  0
   19.6089   45.4027   42.7718 N   0  0  0  0  0  0  0  0  0  0  0  0
   18.2761   43.5885   42.9110 O   0  0  0  0  0  0  0  0  0  0  0  0
   17.9064   46.2670   41.3374 H   0  0  0  0  0  0  0  0  0  0  0  0
   19.7086   46.3242   42.4399 H   0  0  0  0  0  0  0  0  0  0  0  0
   16.5246   44.6655   41.1829 C   0  0  0  0  0  0  0  0  0  0  0  0
   16.8631   44.3270   39.7027 C   0  0  0  0  0  0  0  0  0  0  0  0
   16.0620   43.5856   39.0559 O   0  0  0  0  0  0  0  0  0  0  0  0
   17.9754   44.7189   39.2671 O   0  0  0  0  0  0  0  0  0  0  0  0
   18.5199   45.2664   39.7979 H   0  0  0  0  0  0  0  0  0  0  0  0
   15.2647   45.5335   41.3046 C   0  0  0  0  0  0  0  0  0  0  0  0
   14.2162   47.6124   40.3951 C   0  0  0  0  0  0  0  0  0  0  0  0
   15.2977   46.7566   40.4048 C   0  0  0  0  0  0  0  0  0  0  0  0
   20.4546   45.2951   45.0598 C   0  0  0  0  0  0  0  0  0  0  0  0
   21.1882   46.2173   45.5307 O   0  0  0  0  0  0  0  0  0  0  0  0
   19.4860   44.7894   45.6438 O   0  0  0  0  0  0  0  0  0  0  0  0
   18.9914   44.1102   45.2292 H   0  0  0  0  0  0  0  0  0  0  0  0
   21.9885   45.3911   42.9960 C   0  0  0  0  0  0  0  0  0  0  0  0
   23.2021   44.4405   43.0684 C   0  0  0  0  0  0  0  0  0  0  0  0
   24.1583   44.6354   44.3099 C   0  0  0  0  0  0  0  0  0  0  0  0
   25.0308   45.9193   44.2901 C   0  0  0  0  0  0  0  0  0  0  0  0
   24.2608   47.1334   44.6780 N   0  0  0  0  0  0  0  0  0  0  0  0
   23.9982   48.1139   43.7967 C   0  0  0  0  0  0  0  0  0  0  0  0
   24.3340   48.0063   42.6196 O   0  0  0  0  0  0  0  0  0  0  0  0
   23.9358   47.2202   45.6033 H   0  0  0  0  0  0  0  0  0  0  0  0
   23.1014   49.3231   44.2356 C   0  0  0  0  0  0  0  0  0  0  0  0
   21.7633   49.4855   43.7657 C   0  0  0  0  0  0  0  0  0  0  0  0
   20.9449   50.5901   44.1856 C   0  0  0  0  0  0  0  0  0  0  0  0
   21.4047   51.5921   45.0741 C   0  0  0  0  0  0  0  0  0  0  0  0
   20.2353   53.3377   45.8279 I   0  0  0  0  0  0  0  0  0  0  0  0
   22.7425   51.3792   45.5019 C   0  0  0  0  0  0  0  0  0  0  0  0
   23.5762   50.2972   45.1191 C   0  0  0  0  0  0  0  0  0  0  0  0
 15 14  2  0  0  0
 15 13  1  0  0  0
 13  8  1  0  0  0
  8  2  1  0  0  0
  9  8  1  0  0  0
  9 11  1  0  0  0
 10  9  2  0  0  0
  2  3  1  0  0  0
  3  4  1  0  0  0
  4  1  1  0  0  0
  1 16  1  0  0  0
 20  1  1  0  0  0
 20 21  1  0  0  0
 22 21  1  0  0  0
 22 23  1  0  0  0
 23 24  1  0  0  0
 24 25  1  0  0  0
 25 28  1  0  0  0
 28 29  2  0  0  0
 28 34  1  0  0  0
 29 30  1  0  0  0
 30 31  2  0  0  0
 31 32  1  0  0  0
 33 31  1  0  0  0
 34 33  2  0  0  0
 26 25  2  0  0  0
 16 17  2  0  0  0
 16 18  1  0  0  0
  5  3  2  0  0  0
 11 12  1  0  0  0
  2  6  1  0  0  0
  4  7  1  0  0  0
 24 27  1  0  0  0
 18 19  1  0  0  0
M  END
> <minimizedAffinity>
-9.15631

$$$$
3IWW_YZE_A_1


 34 34  0  0  0  0  0  0  0  0999 V2000
   23.8898   45.3505   43.0831 C   0  0  0  0  0  0  0  0  0  0  0  0
   23.0323   47.9351   45.4166 N   0  0  0  0  0  0  0  0  0  0  0  0
   23.7605   47.3069   44.5202 C   0  0  0  0  0  0  0  0  0  0  0  0
   23.1919   46.2257   44.0197 N   0  0  0  0  0  0  0  0  0  0  0  0
   24.8854   47.7082   44.1666 O   0  0  0  0  0  0  0  0  0  0  0  0
   22.1252   47.6222   45.6368 H   0  0  0  0  0  0  0  0  0  0  0  0
   22.2706   46.0033   44.2859 H   0  0  0  0  0  0  0  0  0  0  0  0
   23.5911   49.0923   46.0701 C   0  0  0  0  0  0  0  0  0  0  0  0
   23.6298   48.6634   47.5650 C   0  0  0  0  0  0  0  0  0  0  0  0
   22.6830   49.0355   48.3231 O   0  0  0  0  0  0  0  0  0  0  0  0
   24.6618   48.0643   47.9607 O   0  0  0  0  0  0  0  0  0  0  0  0
   25.3246   47.8170   47.3463 H   0  0  0  0  0  0  0  0  0  0  0  0
   22.7444   50.3537   45.8515 C   0  0  0  0  0  0  0  0  0  0  0  0
   21.0350   50.3481   44.0276 C   0  0  0  0  0  0  0  0  0  0  0  0
   22.3465   50.5569   44.3999 C   0  0  0  0  0  0  0  0  0  0  0  0
   23.3010   45.5823   41.6669 C   0  0  0  0  0  0  0  0  0  0  0  0
   22.0470   45.4951   41.4933 O   0  0  0  0  0  0  0  0  0  0  0  0
   24.1137   45.9488   40.8065 O   0  0  0  0  0  0  0  0  0  0  0  0
   25.0272   45.9874   41.0113 H   0  0  0  0  0  0  0  0  0  0  0  0
   23.6056   43.9096   43.5983 C   0  0  0  0  0  0  0  0  0  0  0  0
   23.7868   43.7060   45.1173 C   0  0  0  0  0  0  0  0  0  0  0  0
   22.9318   42.5473   45.7652 C   0  0  0  0  0  0  0  0  0  0  0  0
   21.5613   42.9742   46.3563 C   0  0  0  0  0  0  0  0  0  0  0  0
   20.5424   43.2258   45.3000 N   0  0  0  0  0  0  0  0  0  0  0  0
   20.1893   44.4727   44.9430 C   0  0  0  0  0  0  0  0  0  0  0  0
   20.7478   45.4492   45.4374 O   0  0  0  0  0  0  0  0  0  0  0  0
   20.1167   42.4596   44.8517 H   0  0  0  0  0  0  0  0  0  0  0  0
   19.1823   44.6780   43.7585 C   0  0  0  0  0  0  0  0  0  0  0  0
   18.0875   43.7907   43.5306 C   0  0  0  0  0  0  0  0  0  0  0  0
   17.1620   43.9962   42.4503 C   0  0  0  0  0  0  0  0  0  0  0  0
   17.2747   45.0724   41.5369 C   0  0  0  0  0  0  0  0  0  0  0  0
   15.8970   45.5242   39.8397 I   0  0  0  0  0  0  0  0  0  0  0  0
   18.3843   45.9158   41.8116 C   0  0  0  0  0  0  0  0  0  0  0  0
   19.3111   45.7522   42.8728 C   0  0  0  0  0  0  0  0  0  0  0  0
 15 14  2  0  0  0
 15 13  1  0  0  0
 13  8  1  0  0  0
  8  2  1  0  0  0
  9  8  1  0  0  0
  9 11  1  0  0  0
 10  9  2  0  0  0
  2  3  1  0  0  0
  3  4  1  0  0  0
  4  1  1  0  0  0
  1 16  1  0  0  0
 20  1  1  0  0  0
 20 21  1  0  0  0
 22 21  1  0  0  0
 22 23  1  0  0  0
 23 24  1  0  0  0
 24 25  1  0  0  0
 25 28  1  0  0  0
 28 29  2  0  0  0
 28 34  1  0  0  0
 29 30  1  0  0  0
 30 31  2  0  0  0
 31 32  1  0  0  0
 33 31  1  0  0  0
 34 33  2  0  0  0
 26 25  2  0  0  0
 16 17  2  0  0  0
 16 18  1  0  0  0
  5  3  2  0  0  0
 11 12  1  0  0  0
  2  6  1  0  0  0
  4  7  1  0  0  0
 24 27  1  0  0  0
 18 19  1  0  0  0
M  END
> <minimizedAffinity>
-8.71461

$$$$
3IWW_YZE_A_1


 34 34  0  0  0  0  0  0  0  0999 V2000
   25.1408   46.1516   44.4773 C   0  0  0  0  0  0  0  0  0  0  0  0
   23.8264   49.4247   45.1257 N   0  0  0  0  0  0  0  0  0  0  0  0
   24.0446   48.1451   45.3341 C   0  0  0  0  0  0  0  0  0  0  0  0
   24.8581   47.5834   44.4591 N   0  0  0  0  0  0  0  0  0  0  0  0
   23.5355   47.5223   46.2851 O   0  0  0  0  0  0  0  0  0  0  0  0
   24.2846   49.9008   44.3959 H   0  0  0  0  0  0  0  0  0  0  0  0
   25.2864   48.1466   43.7745 H   0  0  0  0  0  0  0  0  0  0  0  0
   22.9013   50.1154   45.9890 C   0  0  0  0  0  0  0  0  0  0  0  0
   22.0966   51.0040   44.9974 C   0  0  0  0  0  0  0  0  0  0  0  0
   21.1769   50.4612   44.3124 O   0  0  0  0  0  0  0  0  0  0  0  0
   22.4835   52.1911   44.8511 O   0  0  0  0  0  0  0  0  0  0  0  0
   23.1695   52.5303   45.3918 H   0  0  0  0  0  0  0  0  0  0  0  0
   23.6138   50.9471   47.0643 C   0  0  0  0  0  0  0  0  0  0  0  0
   23.4807   49.3953   49.0195 C   0  0  0  0  0  0  0  0  0  0  0  0
   23.1506   50.6177   48.4727 C   0  0  0  0  0  0  0  0  0  0  0  0
   26.5845   45.9323   43.9539 C   0  0  0  0  0  0  0  0  0  0  0  0
   27.3248   45.0686   44.5161 O   0  0  0  0  0  0  0  0  0  0  0  0
   26.8800   46.5625   42.9289 O   0  0  0  0  0  0  0  0  0  0  0  0
   26.2782   47.1861   42.5725 H   0  0  0  0  0  0  0  0  0  0  0  0
   24.0800   45.5248   43.5264 C   0  0  0  0  0  0  0  0  0  0  0  0
   23.8249   44.0162   43.7281 C   0  0  0  0  0  0  0  0  0  0  0  0
   23.8194   43.5112   45.2243 C   0  0  0  0  0  0  0  0  0  0  0  0
   22.4775   42.9133   45.7260 C   0  0  0  0  0  0  0  0  0  0  0  0
   21.3543   43.1725   44.7834 N   0  0  0  0  0  0  0  0  0  0  0  0
   20.5073   44.2012   44.9610 C   0  0  0  0  0  0  0  0  0  0  0  0
   20.6752   45.0013   45.8783 O   0  0  0  0  0  0  0  0  0  0  0  0
   21.2288   42.5755   44.0107 H   0  0  0  0  0  0  0  0  0  0  0  0
   19.4022   44.4825   43.8846 C   0  0  0  0  0  0  0  0  0  0  0  0
   19.5330   45.5232   42.9164 C   0  0  0  0  0  0  0  0  0  0  0  0
   18.5204   45.7633   41.9251 C   0  0  0  0  0  0  0  0  0  0  0  0
   17.3282   45.0034   41.8457 C   0  0  0  0  0  0  0  0  0  0  0  0
   15.6934   45.2493   40.3457 I   0  0  0  0  0  0  0  0  0  0  0  0
   17.2533   43.9885   42.8368 C   0  0  0  0  0  0  0  0  0  0  0  0
   18.2355   43.7143   43.8227 C   0  0  0  0  0  0  0  0  0  0  0  0
 15 14  2  0  0  0
 15 13  1  0  0  0
 13  8  1  0  0  0
  8  2  1  0  0  0
  9  8  1  0  0  0
  9 11  1  0  0  0
 10  9  2  0  0  0
  2  3  1  0  0  0
  3  4  1  0  0  0
  4  1  1  0  0  0
  1 16  1  0  0  0
 20  1  1  0  0  0
 20 21  1  0  0  0
 22 21  1  0  0  0
 22 23  1  0  0  0
 23 24  1  0  0  0
 24 25  1  0  0  0
 25 28  1  0  0  0
 28 29  2  0  0  0
 28 34  1  0  0  0
 29 30  1  0  0  0
 30 31  2  0  0  0
 31 32  1  0  0  0
 33 31  1  0  0  0
 34 33  2  0  0  0
 26 25  2  0  0  0
 16 17  2  0  0  0
 16 18  1  0  0  0
  5  3  2  0  0  0
 11 12  1  0  0  0
  2  6  1  0  0  0
  4  7  1  0  0  0
 24 27  1  0  0  0
 18 19  1  0  0  0
M  END
> <minimizedAffinity>
-8.66320

$$$$
3IWW_YZE_A_1


 34 34  0  0  0  0  0  0  0  0999 V2000
   24.0510   45.9589   43.0200 C   0  0  0  0  0  0  0  0  0  0  0  0
   22.1302   47.9839   45.2719 N   0  0  0  0  0  0  0  0  0  0  0  0
   23.0572   47.7115   44.3803 C   0  0  0  0  0  0  0  0  0  0  0  0
   23.0390   46.4667   43.9409 N   0  0  0  0  0  0  0  0  0  0  0  0
   23.8732   48.5620   43.9774 O   0  0  0  0  0  0  0  0  0  0  0  0
   21.4668   47.3044   45.5314 H   0  0  0  0  0  0  0  0  0  0  0  0
   22.3220   45.8636   44.2432 H   0  0  0  0  0  0  0  0  0  0  0  0
   22.1064   49.2994   45.8612 C   0  0  0  0  0  0  0  0  0  0  0  0
   21.6820   50.2067   44.6708 C   0  0  0  0  0  0  0  0  0  0  0  0
   20.5759   49.9689   44.0967 O   0  0  0  0  0  0  0  0  0  0  0  0
   22.5189   51.0567   44.2739 O   0  0  0  0  0  0  0  0  0  0  0  0
   23.3185   51.1827   44.7459 H   0  0  0  0  0  0  0  0  0  0  0  0
   23.4678   49.7053   46.4418 C   0  0  0  0  0  0  0  0  0  0  0  0
   23.2397   49.1147   48.8600 C   0  0  0  0  0  0  0  0  0  0  0  0
   23.8657   48.8806   47.6536 C   0  0  0  0  0  0  0  0  0  0  0  0
   23.3564   45.6017   41.6798 C   0  0  0  0  0  0  0  0  0  0  0  0
   22.1013   45.4155   41.6607 O   0  0  0  0  0  0  0  0  0  0  0  0
   24.0863   45.6279   40.6790 O   0  0  0  0  0  0  0  0  0  0  0  0
   25.0073   45.7712   40.7745 H   0  0  0  0  0  0  0  0  0  0  0  0
   24.6321   44.6982   43.7237 C   0  0  0  0  0  0  0  0  0  0  0  0
   23.6004   43.6049   44.0728 C   0  0  0  0  0  0  0  0  0  0  0  0
   23.4653   43.2475   45.6050 C   0  0  0  0  0  0  0  0  0  0  0  0
   22.0582   42.7787   46.0634 C   0  0  0  0  0  0  0  0  0  0  0  0
   21.0046   43.0797   45.0552 N   0  0  0  0  0  0  0  0  0  0  0  0
   20.3721   44.2656   45.0281 C   0  0  0  0  0  0  0  0  0  0  0  0
   20.6926   45.1657   45.8008 O   0  0  0  0  0  0  0  0  0  0  0  0
   20.7651   42.3929   44.3918 H   0  0  0  0  0  0  0  0  0  0  0  0
   19.3402   44.5614   43.8850 C   0  0  0  0  0  0  0  0  0  0  0  0
   18.2025   43.7303   43.6557 C   0  0  0  0  0  0  0  0  0  0  0  0
   17.2550   44.0186   42.6140 C   0  0  0  0  0  0  0  0  0  0  0  0
   17.3862   45.1264   41.7419 C   0  0  0  0  0  0  0  0  0  0  0  0
   15.9794   45.7051   40.1082 I   0  0  0  0  0  0  0  0  0  0  0  0
   18.5383   45.9113   42.0157 C   0  0  0  0  0  0  0  0  0  0  0  0
   19.4882   45.6654   43.0399 C   0  0  0  0  0  0  0  0  0  0  0  0
 15 14  2  0  0  0
 15 13  1  0  0  0
 13  8  1  0  0  0
  8  2  1  0  0  0
  9  8  1  0  0  0
  9 11  1  0  0  0
 10  9  2  0  0  0
  2  3  1  0  0  0
  3  4  1  0  0  0
  4  1  1  0  0  0
  1 16  1  0  0  0
 20  1  1  0  0  0
 20 21  1  0  0  0
 22 21  1  0  0  0
 22 23  1  0  0  0
 23 24  1  0  0  0
 24 25  1  0  0  0
 25 28  1  0  0  0
 28 29  2  0  0  0
 28 34  1  0  0  0
 29 30  1  0  0  0
 30 31  2  0  0  0
 31 32  1  0  0  0
 33 31  1  0  0  0
 34 33  2  0  0  0
 26 25  2  0  0  0
 16 17  2  0  0  0
 16 18  1  0  0  0
  5  3  2  0  0  0
 11 12  1  0  0  0
  2  6  1  0  0  0
  4  7  1  0  0  0
 24 27  1  0  0  0
 18 19  1  0  0  0
M  END
> <minimizedAffinity>
-7.53825

$$$$
