2AYR_L4G_A_201


 38 42  0  0  0  0  0  0  0  0999 V2000
   30.0651    1.4872   28.1699 C   0  0  0  0  0  0  0  0  0  0  0  0
   27.9763    0.3263   27.6035 C   0  0  0  0  0  0  0  0  0  0  0  0
   28.0026   -2.0728   26.9385 C   0  0  0  0  0  0  0  0  0  0  0  0
   26.5693    0.3486   27.4442 C   0  0  0  0  0  0  0  0  0  0  0  0
   30.1366   -0.9118   27.5011 C   0  0  0  0  0  0  0  0  0  0  0  0
   30.8300    0.3014   27.9283 C   0  0  0  0  0  0  0  0  0  0  0  0
   28.7150   -0.8939   27.3462 C   0  0  0  0  0  0  0  0  0  0  0  0
   28.6579    1.4995   28.0086 C   0  0  0  0  0  0  0  0  0  0  0  0
   26.5994   -2.0348   26.7853 C   0  0  0  0  0  0  0  0  0  0  0  0
   25.8818   -0.8321   27.0361 C   0  0  0  0  0  0  0  0  0  0  0  0
   24.5515   -0.8081   26.8806 O   0  0  0  0  0  0  0  0  0  0  0  0
   24.0747   -0.0183   27.0446 H   0  0  0  0  0  0  0  0  0  0  0  0
   32.3033    0.3471   28.1117 C   0  0  0  0  0  0  0  0  0  0  0  0
   32.9283   -0.2764   29.2457 C   0  0  0  0  0  0  0  0  0  0  0  0
   34.3386   -0.2137   29.4054 C   0  0  0  0  0  0  0  0  0  0  0  0
   35.1328    0.4728   28.4501 C   0  0  0  0  0  0  0  0  0  0  0  0
   33.1304    1.0282   27.1601 C   0  0  0  0  0  0  0  0  0  0  0  0
   34.5309    1.0893   27.3294 C   0  0  0  0  0  0  0  0  0  0  0  0
   36.9036    0.5552   28.6316 S   0  0  0  0  0  0  0  0  0  0  0  0
   38.1157   -0.2816   27.5362 C   0  0  0  0  0  0  0  0  0  0  0  0
   37.2178    0.1123   30.0640 O   0  0  0  0  0  0  0  0  0  0  0  0
   37.3026    2.0371   28.7670 O   0  0  0  0  0  0  0  0  0  0  0  0
   30.8334   -2.1273   27.2366 O   0  0  0  0  0  0  0  0  0  0  0  0
   32.5077   -3.2179   25.7910 C   0  0  0  0  0  0  0  0  0  0  0  0
   33.2432   -3.3102   24.5874 C   0  0  0  0  0  0  0  0  0  0  0  0
   32.0999   -1.3113   23.7091 C   0  0  0  0  0  0  0  0  0  0  0  0
   33.0474   -2.3522   23.5247 C   0  0  0  0  0  0  0  0  0  0  0  0
   31.5602   -2.1824   25.9842 C   0  0  0  0  0  0  0  0  0  0  0  0
   31.3663   -1.2211   24.9127 C   0  0  0  0  0  0  0  0  0  0  0  0
   33.7390   -2.3706   22.2876 O   0  0  0  0  0  0  0  0  0  0  0  0
   33.9890   -3.6282   21.6327 C   0  0  0  0  0  0  0  0  0  0  0  0
   33.6114   -3.4965   20.1417 C   0  0  0  0  0  0  0  0  0  0  0  0
   32.3215   -2.9256   19.7507 N   0  0  0  0  0  0  0  0  0  0  0  0
   31.2085   -3.6340   20.4211 C   0  0  0  0  0  0  0  0  0  0  0  0
   32.0808   -2.9279   18.2780 C   0  0  0  0  0  0  0  0  0  0  0  0
   29.9027   -2.8376   20.2287 C   0  0  0  0  0  0  0  0  0  0  0  0
   30.8078   -2.1208   17.9401 C   0  0  0  0  0  0  0  0  0  0  0  0
   29.6014   -2.6856   18.7206 C   0  0  0  0  0  0  0  0  0  0  0  0
 13 14  1  0  0  0
 13  6  1  0  0  0
 13 17  2  0  0  0
  1  6  1  0  0  0
  1  8  2  0  0  0
  2  4  2  0  0  0
  2  7  1  0  0  0
  2  8  1  0  0  0
  3  7  2  0  0  0
  3  9  1  0  0  0
 14 15  2  0  0  0
  4 10  1  0  0  0
 24 25  2  0  0  0
 24 28  1  0  0  0
 15 16  1  0  0  0
 25 27  1  0  0  0
 26 27  2  0  0  0
 26 29  1  0  0  0
 16 18  2  0  0  0
 16 19  1  0  0  0
 27 30  1  0  0  0
  5  6  2  0  0  0
  5  7  1  0  0  0
  5 23  1  0  0  0
 23 28  1  0  0  0
 28 29  2  0  0  0
 17 18  1  0  0  0
  9 10  2  0  0  0
 10 11  1  0  0  0
 19 20  1  0  0  0
 19 21  2  0  0  0
 19 22  2  0  0  0
 30 31  1  0  0  0
 31 32  1  0  0  0
 32 33  1  0  0  0
 33 34  1  0  0  0
 33 35  1  0  0  0
 34 36  1  0  0  0
 35 37  1  0  0  0
 36 38  1  0  0  0
 37 38  1  0  0  0
 11 12  1  0  0  0
M  END
> <minimizedAffinity>
-11.86869

$$$$
2AYR_L4G_A_201


 38 42  0  0  0  0  0  0  0  0999 V2000
   30.0947    1.4888   28.2996 C   0  0  0  0  0  0  0  0  0  0  0  0
   28.0070    0.3433   27.6985 C   0  0  0  0  0  0  0  0  0  0  0  0
   28.0367   -2.0318   26.9526 C   0  0  0  0  0  0  0  0  0  0  0  0
   26.5996    0.3681   27.5431 C   0  0  0  0  0  0  0  0  0  0  0  0
   30.1696   -0.8861   27.5498 C   0  0  0  0  0  0  0  0  0  0  0  0
   30.8614    0.3134   28.0163 C   0  0  0  0  0  0  0  0  0  0  0  0
   28.7476   -0.8659   27.3985 C   0  0  0  0  0  0  0  0  0  0  0  0
   28.6871    1.5036   28.1418 C   0  0  0  0  0  0  0  0  0  0  0  0
   26.6331   -1.9915   26.8037 C   0  0  0  0  0  0  0  0  0  0  0  0
   25.9136   -0.7994   27.0967 C   0  0  0  0  0  0  0  0  0  0  0  0
   24.5829   -0.7730   26.9449 O   0  0  0  0  0  0  0  0  0  0  0  0
   24.1049    0.0098   27.1366 H   0  0  0  0  0  0  0  0  0  0  0  0
   32.3351    0.3559   28.1981 C   0  0  0  0  0  0  0  0  0  0  0  0
   32.9471   -0.1314   29.4035 C   0  0  0  0  0  0  0  0  0  0  0  0
   34.3581   -0.0739   29.5594 C   0  0  0  0  0  0  0  0  0  0  0  0
   35.1658    0.4735   28.5287 C   0  0  0  0  0  0  0  0  0  0  0  0
   33.1756    0.8978   27.1718 C   0  0  0  0  0  0  0  0  0  0  0  0
   34.5767    0.9551   27.3373 C   0  0  0  0  0  0  0  0  0  0  0  0
   36.9375    0.5469   28.7050 S   0  0  0  0  0  0  0  0  0  0  0  0
   38.1430   -0.2714   27.5885 C   0  0  0  0  0  0  0  0  0  0  0  0
   37.2558    0.0745   30.1271 O   0  0  0  0  0  0  0  0  0  0  0  0
   37.3416    2.0246   28.8686 O   0  0  0  0  0  0  0  0  0  0  0  0
   30.8683   -2.0905   27.2427 O   0  0  0  0  0  0  0  0  0  0  0  0
   32.4964   -3.1358   25.7134 C   0  0  0  0  0  0  0  0  0  0  0  0
   33.1678   -3.2126   24.4719 C   0  0  0  0  0  0  0  0  0  0  0  0
   31.9129   -1.2584   23.6469 C   0  0  0  0  0  0  0  0  0  0  0  0
   32.8828   -2.2689   23.4165 C   0  0  0  0  0  0  0  0  0  0  0  0
   31.5270   -2.1305   25.9528 C   0  0  0  0  0  0  0  0  0  0  0  0
   31.2434   -1.1837   24.8885 C   0  0  0  0  0  0  0  0  0  0  0  0
   33.5061   -2.2734   22.1435 O   0  0  0  0  0  0  0  0  0  0  0  0
   33.3163   -3.3974   21.2640 C   0  0  0  0  0  0  0  0  0  0  0  0
   34.6954   -3.8725   20.7587 C   0  0  0  0  0  0  0  0  0  0  0  0
   35.7374   -4.2678   21.7078 N   0  0  0  0  0  0  0  0  0  0  0  0
   36.8133   -3.2530   21.7595 C   0  0  0  0  0  0  0  0  0  0  0  0
   36.3420   -5.6015   21.4209 C   0  0  0  0  0  0  0  0  0  0  0  0
   37.7337   -3.5411   22.9621 C   0  0  0  0  0  0  0  0  0  0  0  0
   37.2678   -6.0327   22.5798 C   0  0  0  0  0  0  0  0  0  0  0  0
   38.3448   -4.9540   22.8250 C   0  0  0  0  0  0  0  0  0  0  0  0
 13 14  1  0  0  0
 13  6  1  0  0  0
 13 17  2  0  0  0
  1  6  1  0  0  0
  1  8  2  0  0  0
  2  4  2  0  0  0
  2  7  1  0  0  0
  2  8  1  0  0  0
  3  7  2  0  0  0
  3  9  1  0  0  0
 14 15  2  0  0  0
  4 10  1  0  0  0
 24 25  2  0  0  0
 24 28  1  0  0  0
 15 16  1  0  0  0
 25 27  1  0  0  0
 26 27  2  0  0  0
 26 29  1  0  0  0
 16 18  2  0  0  0
 16 19  1  0  0  0
 27 30  1  0  0  0
  5  6  2  0  0  0
  5  7  1  0  0  0
  5 23  1  0  0  0
 23 28  1  0  0  0
 28 29  2  0  0  0
 17 18  1  0  0  0
  9 10  2  0  0  0
 10 11  1  0  0  0
 19 20  1  0  0  0
 19 21  2  0  0  0
 19 22  2  0  0  0
 30 31  1  0  0  0
 31 32  1  0  0  0
 32 33  1  0  0  0
 33 34  1  0  0  0
 33 35  1  0  0  0
 34 36  1  0  0  0
 35 37  1  0  0  0
 36 38  1  0  0  0
 37 38  1  0  0  0
 11 12  1  0  0  0
M  END
> <minimizedAffinity>
-11.79591

$$$$
2AYR_L4G_A_201


 38 42  0  0  0  0  0  0  0  0999 V2000
   32.3882   -0.0322   30.1158 C   0  0  0  0  0  0  0  0  0  0  0  0
   34.6677    0.7744   29.6860 C   0  0  0  0  0  0  0  0  0  0  0  0
   35.3762    1.3965   27.3818 C   0  0  0  0  0  0  0  0  0  0  0  0
   35.9584    1.1057   30.1657 C   0  0  0  0  0  0  0  0  0  0  0  0
   33.0592    0.5717   27.7936 C   0  0  0  0  0  0  0  0  0  0  0  0
   32.0457    0.0940   28.7314 C   0  0  0  0  0  0  0  0  0  0  0  0
   34.3613    0.9134   28.2763 C   0  0  0  0  0  0  0  0  0  0  0  0
   33.6817    0.3024   30.5862 C   0  0  0  0  0  0  0  0  0  0  0  0
   36.6580    1.7238   27.8756 C   0  0  0  0  0  0  0  0  0  0  0  0
   36.9522    1.5810   29.2604 C   0  0  0  0  0  0  0  0  0  0  0  0
   38.1744    1.8888   29.7145 O   0  0  0  0  0  0  0  0  0  0  0  0
   38.3727    1.7963   30.6255 H   0  0  0  0  0  0  0  0  0  0  0  0
   30.6743   -0.2731   28.2944 C   0  0  0  0  0  0  0  0  0  0  0  0
   29.6821    0.7356   28.0428 C   0  0  0  0  0  0  0  0  0  0  0  0
   28.3742    0.3616   27.6331 C   0  0  0  0  0  0  0  0  0  0  0  0
   28.0417   -1.0098   27.4802 C   0  0  0  0  0  0  0  0  0  0  0  0
   30.3123   -1.6494   28.1262 C   0  0  0  0  0  0  0  0  0  0  0  0
   29.0086   -2.0121   27.7231 C   0  0  0  0  0  0  0  0  0  0  0  0
   26.4081   -1.4960   26.9603 S   0  0  0  0  0  0  0  0  0  0  0  0
   24.9167   -0.4284   27.0344 C   0  0  0  0  0  0  0  0  0  0  0  0
   26.0723   -2.7835   27.7194 O   0  0  0  0  0  0  0  0  0  0  0  0
   26.5147   -2.0963   25.5454 O   0  0  0  0  0  0  0  0  0  0  0  0
   32.7916    0.7166   26.4006 O   0  0  0  0  0  0  0  0  0  0  0  0
   32.1581   -0.4842   24.3417 C   0  0  0  0  0  0  0  0  0  0  0  0
   32.0820   -1.6578   23.5575 C   0  0  0  0  0  0  0  0  0  0  0  0
   33.1801   -2.9507   25.3455 C   0  0  0  0  0  0  0  0  0  0  0  0
   32.5952   -2.9137   24.0526 C   0  0  0  0  0  0  0  0  0  0  0  0
   32.7399   -0.5115   25.6333 C   0  0  0  0  0  0  0  0  0  0  0  0
   33.2549   -1.7766   26.1272 C   0  0  0  0  0  0  0  0  0  0  0  0
   32.5616   -4.1354   23.3348 O   0  0  0  0  0  0  0  0  0  0  0  0
   32.3460   -4.1167   21.9113 C   0  0  0  0  0  0  0  0  0  0  0  0
   33.6678   -4.4831   21.2030 C   0  0  0  0  0  0  0  0  0  0  0  0
   34.4511   -3.4548   20.5160 N   0  0  0  0  0  0  0  0  0  0  0  0
   35.1817   -2.6131   21.4895 C   0  0  0  0  0  0  0  0  0  0  0  0
   33.6419   -2.5737   19.6241 C   0  0  0  0  0  0  0  0  0  0  0  0
   36.2137   -1.7437   20.7441 C   0  0  0  0  0  0  0  0  0  0  0  0
   34.5662   -1.6670   18.7817 C   0  0  0  0  0  0  0  0  0  0  0  0
   35.4933   -0.8512   19.7082 C   0  0  0  0  0  0  0  0  0  0  0  0
 13 14  1  0  0  0
 13  6  1  0  0  0
 13 17  2  0  0  0
  1  6  1  0  0  0
  1  8  2  0  0  0
  2  4  2  0  0  0
  2  7  1  0  0  0
  2  8  1  0  0  0
  3  7  2  0  0  0
  3  9  1  0  0  0
 14 15  2  0  0  0
  4 10  1  0  0  0
 24 25  2  0  0  0
 24 28  1  0  0  0
 15 16  1  0  0  0
 25 27  1  0  0  0
 26 27  2  0  0  0
 26 29  1  0  0  0
 16 18  2  0  0  0
 16 19  1  0  0  0
 27 30  1  0  0  0
  5  6  2  0  0  0
  5  7  1  0  0  0
  5 23  1  0  0  0
 23 28  1  0  0  0
 28 29  2  0  0  0
 17 18  1  0  0  0
  9 10  2  0  0  0
 10 11  1  0  0  0
 19 20  1  0  0  0
 19 21  2  0  0  0
 19 22  2  0  0  0
 30 31  1  0  0  0
 31 32  1  0  0  0
 32 33  1  0  0  0
 33 34  1  0  0  0
 33 35  1  0  0  0
 34 36  1  0  0  0
 35 37  1  0  0  0
 36 38  1  0  0  0
 37 38  1  0  0  0
 11 12  1  0  0  0
M  END
> <minimizedAffinity>
-11.03483

$$$$
2AYR_L4G_A_201


 38 42  0  0  0  0  0  0  0  0999 V2000
   30.1844    1.6194   27.8798 C   0  0  0  0  0  0  0  0  0  0  0  0
   28.1104    0.3744   27.4552 C   0  0  0  0  0  0  0  0  0  0  0  0
   28.1706   -2.0796   27.0392 C   0  0  0  0  0  0  0  0  0  0  0  0
   26.7020    0.3586   27.3079 C   0  0  0  0  0  0  0  0  0  0  0  0
   30.2897   -0.8342   27.4596 C   0  0  0  0  0  0  0  0  0  0  0  0
   30.9666    0.4269   27.7536 C   0  0  0  0  0  0  0  0  0  0  0  0
   28.8669   -0.8542   27.3172 C   0  0  0  0  0  0  0  0  0  0  0  0
   28.7759    1.5934   27.7315 C   0  0  0  0  0  0  0  0  0  0  0  0
   26.7658   -2.0791   26.8963 C   0  0  0  0  0  0  0  0  0  0  0  0
   26.0306   -0.8681   27.0295 C   0  0  0  0  0  0  0  0  0  0  0  0
   24.6989   -0.8807   26.8850 O   0  0  0  0  0  0  0  0  0  0  0  0
   24.2107   -0.0857   26.9718 H   0  0  0  0  0  0  0  0  0  0  0  0
   32.4404    0.5139   27.9173 C   0  0  0  0  0  0  0  0  0  0  0  0
   33.2495    1.2331   26.9722 C   0  0  0  0  0  0  0  0  0  0  0  0
   34.6583    1.2969   27.1439 C   0  0  0  0  0  0  0  0  0  0  0  0
   35.2710    0.6428   28.2444 C   0  0  0  0  0  0  0  0  0  0  0  0
   33.0853   -0.1318   29.0221 C   0  0  0  0  0  0  0  0  0  0  0  0
   34.4867   -0.0669   29.1823 C   0  0  0  0  0  0  0  0  0  0  0  0
   37.0359    0.7186   28.4785 S   0  0  0  0  0  0  0  0  0  0  0  0
   37.8894    1.7478   29.7362 C   0  0  0  0  0  0  0  0  0  0  0  0
   37.6426    1.0818   27.1196 O   0  0  0  0  0  0  0  0  0  0  0  0
   37.5681   -0.7239   28.5785 O   0  0  0  0  0  0  0  0  0  0  0  0
   31.0042   -2.0596   27.3143 O   0  0  0  0  0  0  0  0  0  0  0  0
   32.5961   -3.3178   25.9126 C   0  0  0  0  0  0  0  0  0  0  0  0
   33.2562   -3.5576   24.6859 C   0  0  0  0  0  0  0  0  0  0  0  0
   32.0404   -1.6861   23.6401 C   0  0  0  0  0  0  0  0  0  0  0  0
   32.9850   -2.7397   23.5270 C   0  0  0  0  0  0  0  0  0  0  0  0
   31.6520   -2.2684   26.0352 C   0  0  0  0  0  0  0  0  0  0  0  0
   31.3822   -1.4484   24.8671 C   0  0  0  0  0  0  0  0  0  0  0  0
   33.5984   -2.9104   22.2607 O   0  0  0  0  0  0  0  0  0  0  0  0
   33.6818   -1.7935   21.3559 C   0  0  0  0  0  0  0  0  0  0  0  0
   35.1559   -1.5978   20.9415 C   0  0  0  0  0  0  0  0  0  0  0  0
   35.4976   -0.7657   19.7866 N   0  0  0  0  0  0  0  0  0  0  0  0
   34.9093   -1.3203   18.5471 C   0  0  0  0  0  0  0  0  0  0  0  0
   36.9649   -0.5818   19.5870 C   0  0  0  0  0  0  0  0  0  0  0  0
   35.0312   -0.2840   17.4123 C   0  0  0  0  0  0  0  0  0  0  0  0
   37.2303    0.4730   18.4901 C   0  0  0  0  0  0  0  0  0  0  0  0
   36.5189    0.0654   17.1820 C   0  0  0  0  0  0  0  0  0  0  0  0
 13 14  1  0  0  0
 13  6  1  0  0  0
 13 17  2  0  0  0
  1  6  1  0  0  0
  1  8  2  0  0  0
  2  4  2  0  0  0
  2  7  1  0  0  0
  2  8  1  0  0  0
  3  7  2  0  0  0
  3  9  1  0  0  0
 14 15  2  0  0  0
  4 10  1  0  0  0
 24 25  2  0  0  0
 24 28  1  0  0  0
 15 16  1  0  0  0
 25 27  1  0  0  0
 26 27  2  0  0  0
 26 29  1  0  0  0
 16 18  2  0  0  0
 16 19  1  0  0  0
 27 30  1  0  0  0
  5  6  2  0  0  0
  5  7  1  0  0  0
  5 23  1  0  0  0
 23 28  1  0  0  0
 28 29  2  0  0  0
 17 18  1  0  0  0
  9 10  2  0  0  0
 10 11  1  0  0  0
 19 20  1  0  0  0
 19 21  2  0  0  0
 19 22  2  0  0  0
 30 31  1  0  0  0
 31 32  1  0  0  0
 32 33  1  0  0  0
 33 34  1  0  0  0
 33 35  1  0  0  0
 34 36  1  0  0  0
 35 37  1  0  0  0
 36 38  1  0  0  0
 37 38  1  0  0  0
 11 12  1  0  0  0
M  END
> <minimizedAffinity>
-10.74303

$$$$
2AYR_L4G_A_201


 38 42  0  0  0  0  0  0  0  0999 V2000
   32.4839   -0.1604   30.2058 C   0  0  0  0  0  0  0  0  0  0  0  0
   34.7023    0.7103   29.6122 C   0  0  0  0  0  0  0  0  0  0  0  0
   35.2029    1.4106   27.2760 C   0  0  0  0  0  0  0  0  0  0  0  0
   36.0212    1.0584   29.9927 C   0  0  0  0  0  0  0  0  0  0  0  0
   32.9461    0.5213   27.8543 C   0  0  0  0  0  0  0  0  0  0  0  0
   32.0245   -0.0048   28.8588 C   0  0  0  0  0  0  0  0  0  0  0  0
   34.2764    0.8801   28.2372 C   0  0  0  0  0  0  0  0  0  0  0  0
   33.8049    0.1914   30.5769 C   0  0  0  0  0  0  0  0  0  0  0  0
   36.5143    1.7541   27.6713 C   0  0  0  0  0  0  0  0  0  0  0  0
   36.9259    1.5809   29.0222 C   0  0  0  0  0  0  0  0  0  0  0  0
   38.1750    1.9047   29.3822 O   0  0  0  0  0  0  0  0  0  0  0  0
   38.4505    1.7922   30.2707 H   0  0  0  0  0  0  0  0  0  0  0  0
   30.6294   -0.3918   28.5264 C   0  0  0  0  0  0  0  0  0  0  0  0
   30.2811   -1.7630   28.2742 C   0  0  0  0  0  0  0  0  0  0  0  0
   28.9420   -2.1097   27.9504 C   0  0  0  0  0  0  0  0  0  0  0  0
   27.9467   -1.1013   27.8661 C   0  0  0  0  0  0  0  0  0  0  0  0
   29.6029    0.6044   28.4402 C   0  0  0  0  0  0  0  0  0  0  0  0
   28.2755    0.2512   28.1132 C   0  0  0  0  0  0  0  0  0  0  0  0
   26.2610   -1.5197   27.4679 S   0  0  0  0  0  0  0  0  0  0  0  0
   25.2250   -0.6529   26.2250 C   0  0  0  0  0  0  0  0  0  0  0  0
   25.4823   -1.5021   28.7870 O   0  0  0  0  0  0  0  0  0  0  0  0
   26.1955   -3.0345   27.1940 O   0  0  0  0  0  0  0  0  0  0  0  0
   32.5602    0.6975   26.4930 O   0  0  0  0  0  0  0  0  0  0  0  0
   33.1119   -1.6902   26.2161 C   0  0  0  0  0  0  0  0  0  0  0  0
   33.1766   -2.8723   25.4437 C   0  0  0  0  0  0  0  0  0  0  0  0
   32.2135   -1.6875   23.5090 C   0  0  0  0  0  0  0  0  0  0  0  0
   32.7254   -2.8859   24.0719 C   0  0  0  0  0  0  0  0  0  0  0  0
   32.6029   -0.4892   25.6628 C   0  0  0  0  0  0  0  0  0  0  0  0
   32.1501   -0.5075   24.2828 C   0  0  0  0  0  0  0  0  0  0  0  0
   32.7526   -4.0240   23.2275 O   0  0  0  0  0  0  0  0  0  0  0  0
   32.4821   -3.8716   21.8216 C   0  0  0  0  0  0  0  0  0  0  0  0
   33.7929   -4.0903   21.0361 C   0  0  0  0  0  0  0  0  0  0  0  0
   35.0423   -4.3772   21.7429 N   0  0  0  0  0  0  0  0  0  0  0  0
   35.9753   -3.2327   21.6461 C   0  0  0  0  0  0  0  0  0  0  0  0
   35.7360   -5.6101   21.2680 C   0  0  0  0  0  0  0  0  0  0  0  0
   37.1436   -3.4377   22.6308 C   0  0  0  0  0  0  0  0  0  0  0  0
   36.9183   -5.9547   22.2007 C   0  0  0  0  0  0  0  0  0  0  0  0
   37.8829   -4.7531   22.2969 C   0  0  0  0  0  0  0  0  0  0  0  0
 13 14  1  0  0  0
 13  6  1  0  0  0
 13 17  2  0  0  0
  1  6  1  0  0  0
  1  8  2  0  0  0
  2  4  2  0  0  0
  2  7  1  0  0  0
  2  8  1  0  0  0
  3  7  2  0  0  0
  3  9  1  0  0  0
 14 15  2  0  0  0
  4 10  1  0  0  0
 24 25  2  0  0  0
 24 28  1  0  0  0
 15 16  1  0  0  0
 25 27  1  0  0  0
 26 27  2  0  0  0
 26 29  1  0  0  0
 16 18  2  0  0  0
 16 19  1  0  0  0
 27 30  1  0  0  0
  5  6  2  0  0  0
  5  7  1  0  0  0
  5 23  1  0  0  0
 23 28  1  0  0  0
 28 29  2  0  0  0
 17 18  1  0  0  0
  9 10  2  0  0  0
 10 11  1  0  0  0
 19 20  1  0  0  0
 19 21  2  0  0  0
 19 22  2  0  0  0
 30 31  1  0  0  0
 31 32  1  0  0  0
 32 33  1  0  0  0
 33 34  1  0  0  0
 33 35  1  0  0  0
 34 36  1  0  0  0
 35 37  1  0  0  0
 36 38  1  0  0  0
 37 38  1  0  0  0
 11 12  1  0  0  0
M  END
> <minimizedAffinity>
-10.06697

$$$$
2AYR_L4G_A_201


 38 42  0  0  0  0  0  0  0  0999 V2000
   32.4679   -0.2167   30.1654 C   0  0  0  0  0  0  0  0  0  0  0  0
   34.6964    0.7229   29.7384 C   0  0  0  0  0  0  0  0  0  0  0  0
   35.2853    1.6103   27.4880 C   0  0  0  0  0  0  0  0  0  0  0  0
   35.9928    1.0549   30.2018 C   0  0  0  0  0  0  0  0  0  0  0  0
   33.0192    0.6530   27.8966 C   0  0  0  0  0  0  0  0  0  0  0  0
   32.0637    0.0391   28.8160 C   0  0  0  0  0  0  0  0  0  0  0  0
   34.3268    0.9955   28.3637 C   0  0  0  0  0  0  0  0  0  0  0  0
   33.7666    0.1197   30.6198 C   0  0  0  0  0  0  0  0  0  0  0  0
   36.5736    1.9365   27.9654 C   0  0  0  0  0  0  0  0  0  0  0  0
   36.9301    1.6622   29.3153 C   0  0  0  0  0  0  0  0  0  0  0  0
   38.1579    1.9707   29.7534 O   0  0  0  0  0  0  0  0  0  0  0  0
   38.3971    1.7919   30.6415 H   0  0  0  0  0  0  0  0  0  0  0  0
   30.6898   -0.3362   28.3942 C   0  0  0  0  0  0  0  0  0  0  0  0
   30.3372   -1.7088   28.1553 C   0  0  0  0  0  0  0  0  0  0  0  0
   29.0192   -2.0444   27.7450 C   0  0  0  0  0  0  0  0  0  0  0  0
   28.0499   -1.0240   27.5610 C   0  0  0  0  0  0  0  0  0  0  0  0
   29.6894    0.6724   28.2063 C   0  0  0  0  0  0  0  0  0  0  0  0
   28.3831    0.3299   27.7938 C   0  0  0  0  0  0  0  0  0  0  0  0
   26.3903   -1.4283   27.0533 S   0  0  0  0  0  0  0  0  0  0  0  0
   24.9418   -0.3101   27.1975 C   0  0  0  0  0  0  0  0  0  0  0  0
   26.0194   -2.7319   27.7674 O   0  0  0  0  0  0  0  0  0  0  0  0
   26.4496   -1.9751   25.6141 O   0  0  0  0  0  0  0  0  0  0  0  0
   32.6889    0.9313   26.5377 O   0  0  0  0  0  0  0  0  0  0  0  0
   33.3023   -1.4009   26.0211 C   0  0  0  0  0  0  0  0  0  0  0  0
   33.2663   -2.5434   25.1896 C   0  0  0  0  0  0  0  0  0  0  0  0
   31.8451   -1.3474   23.5698 C   0  0  0  0  0  0  0  0  0  0  0  0
   32.5328   -2.5310   23.9457 C   0  0  0  0  0  0  0  0  0  0  0  0
   32.6194   -0.2150   25.6541 C   0  0  0  0  0  0  0  0  0  0  0  0
   31.8827   -0.2069   24.4024 C   0  0  0  0  0  0  0  0  0  0  0  0
   32.4423   -3.6292   23.0542 O   0  0  0  0  0  0  0  0  0  0  0  0
   33.6448   -4.1941   22.4993 C   0  0  0  0  0  0  0  0  0  0  0  0
   33.5729   -4.1033   20.9600 C   0  0  0  0  0  0  0  0  0  0  0  0
   32.5022   -3.3450   20.3107 N   0  0  0  0  0  0  0  0  0  0  0  0
   31.1779   -3.9147   20.6448 C   0  0  0  0  0  0  0  0  0  0  0  0
   32.6343   -3.2622   18.8267 C   0  0  0  0  0  0  0  0  0  0  0  0
   30.0714   -2.9381   20.1993 C   0  0  0  0  0  0  0  0  0  0  0  0
   31.5966   -2.2745   18.2489 C   0  0  0  0  0  0  0  0  0  0  0  0
   30.1735   -2.6929   18.6769 C   0  0  0  0  0  0  0  0  0  0  0  0
 13 14  1  0  0  0
 13  6  1  0  0  0
 13 17  2  0  0  0
  1  6  1  0  0  0
  1  8  2  0  0  0
  2  4  2  0  0  0
  2  7  1  0  0  0
  2  8  1  0  0  0
  3  7  2  0  0  0
  3  9  1  0  0  0
 14 15  2  0  0  0
  4 10  1  0  0  0
 24 25  2  0  0  0
 24 28  1  0  0  0
 15 16  1  0  0  0
 25 27  1  0  0  0
 26 27  2  0  0  0
 26 29  1  0  0  0
 16 18  2  0  0  0
 16 19  1  0  0  0
 27 30  1  0  0  0
  5  6  2  0  0  0
  5  7  1  0  0  0
  5 23  1  0  0  0
 23 28  1  0  0  0
 28 29  2  0  0  0
 17 18  1  0  0  0
  9 10  2  0  0  0
 10 11  1  0  0  0
 19 20  1  0  0  0
 19 21  2  0  0  0
 19 22  2  0  0  0
 30 31  1  0  0  0
 31 32  1  0  0  0
 32 33  1  0  0  0
 33 34  1  0  0  0
 33 35  1  0  0  0
 34 36  1  0  0  0
 35 37  1  0  0  0
 36 38  1  0  0  0
 37 38  1  0  0  0
 11 12  1  0  0  0
M  END
> <minimizedAffinity>
-9.99615

$$$$
