4KNJ_E1F_A_302


 23 24  0  0  0  0  0  0  0  0999 V2000
   -4.8069    4.2920   13.9972 C   0  0  0  0  0  0  0  0  0  0  0  0
   -4.7652    2.1540   15.0380 C   0  0  0  0  0  0  0  0  0  0  0  0
   -4.3138    0.4701   14.9807 Cl  0  0  0  0  0  0  0  0  0  0  0  0
   -4.3732    2.9633   13.9749 C   0  0  0  0  0  0  0  0  0  0  0  0
   -5.5643    4.8478   15.0638 C   0  0  0  0  0  0  0  0  0  0  0  0
   -5.9539    4.0317   16.1412 C   0  0  0  0  0  0  0  0  0  0  0  0
   -5.5523    2.6956   16.0933 C   0  0  0  0  0  0  0  0  0  0  0  0
   -5.0121    0.4067   17.6393 O   0  0  0  0  0  0  0  0  0  0  0  0
   -6.0790    1.6518   17.4631 S   0  0  0  0  0  0  0  0  0  0  0  0
   -7.5815    0.9537   16.9333 N   0  0  0  0  0  0  0  0  0  0  0  0
   -6.0906    2.5529   18.7212 O   0  0  0  0  0  0  0  0  0  0  0  0
   -8.2748    1.6918   16.8106 H   0  0  0  0  0  0  0  0  0  0  0  0
   -7.9127    0.2889   17.6323 H   0  0  0  0  0  0  0  0  0  0  0  0
   -4.4194    5.1236   12.8410 C   0  0  0  0  0  0  0  0  0  0  0  0
   -5.2297    5.9120   12.3385 O   0  0  0  0  0  0  0  0  0  0  0  0
   -3.0000    5.0133   12.3922 C   0  0  0  0  0  0  0  0  0  0  0  0
   -3.0790    4.6643   10.6103 S   0  0  0  0  0  0  0  0  0  0  0  0
   -4.8628    1.0321   10.6493 C   0  0  0  0  0  0  0  0  0  0  0  0
   -3.4183    2.9267   10.7751 C   0  0  0  0  0  0  0  0  0  0  0  0
   -2.3510    2.1749   11.1990 N   0  0  0  0  0  0  0  0  0  0  0  0
   -2.5567    0.8233   11.3652 C   0  0  0  0  0  0  0  0  0  0  0  0
   -3.8148    0.2424   11.0810 C   0  0  0  0  0  0  0  0  0  0  0  0
   -4.6637    2.3786   10.5180 N   0  0  0  0  0  0  0  0  0  0  0  0
 17 19  1  0  0  0
 17 16  1  0  0  0
 20 19  2  0  0  0
 20 21  1  0  0  0
 19 23  1  0  0  0
 16 14  1  0  0  0
 15 14  2  0  0  0
 21 22  2  0  0  0
 14  1  1  0  0  0
  5  1  2  0  0  0
  5  6  1  0  0  0
  1  4  1  0  0  0
 23 18  2  0  0  0
 22 18  1  0  0  0
  6  7  2  0  0  0
  4  2  2  0  0  0
  7  2  1  0  0  0
  7  9  1  0  0  0
  2  3  1  0  0  0
 10  9  1  0  0  0
 11  9  2  0  0  0
  9  8  2  0  0  0
 10 12  1  0  0  0
 10 13  1  0  0  0
M  END
> <minimizedAffinity>
-8.48776

$$$$
4KNJ_E1F_A_302


 23 24  0  0  0  0  0  0  0  0999 V2000
   -4.1182    4.0121   14.1899 C   0  0  0  0  0  0  0  0  0  0  0  0
   -5.7213    3.7974   15.9334 C   0  0  0  0  0  0  0  0  0  0  0  0
   -6.9560    4.5233   16.9289 Cl  0  0  0  0  0  0  0  0  0  0  0  0
   -5.1589    4.5813   14.9295 C   0  0  0  0  0  0  0  0  0  0  0  0
   -3.6634    2.6790   14.3809 C   0  0  0  0  0  0  0  0  0  0  0  0
   -4.2370    1.8848   15.3904 C   0  0  0  0  0  0  0  0  0  0  0  0
   -5.2480    2.4728   16.1526 C   0  0  0  0  0  0  0  0  0  0  0  0
   -5.0834    0.0672   17.6038 O   0  0  0  0  0  0  0  0  0  0  0  0
   -5.9573    1.4583   17.4606 S   0  0  0  0  0  0  0  0  0  0  0  0
   -7.5275    1.0053   16.8650 N   0  0  0  0  0  0  0  0  0  0  0  0
   -5.8776    2.2980   18.7581 O   0  0  0  0  0  0  0  0  0  0  0  0
   -8.1052    1.8395   16.7606 H   0  0  0  0  0  0  0  0  0  0  0  0
   -7.9700    0.3659   17.5251 H   0  0  0  0  0  0  0  0  0  0  0  0
   -3.5042    4.8724   13.1597 C   0  0  0  0  0  0  0  0  0  0  0  0
   -2.3150    5.2021   13.2481 O   0  0  0  0  0  0  0  0  0  0  0  0
   -4.3679    5.2315   11.9964 C   0  0  0  0  0  0  0  0  0  0  0  0
   -3.4249    4.7432   10.5213 S   0  0  0  0  0  0  0  0  0  0  0  0
   -2.5547    0.8630   11.2716 C   0  0  0  0  0  0  0  0  0  0  0  0
   -3.5274    2.9910   10.8056 C   0  0  0  0  0  0  0  0  0  0  0  0
   -4.7987    2.4769   10.7451 N   0  0  0  0  0  0  0  0  0  0  0  0
   -4.9414    1.1206   10.9374 C   0  0  0  0  0  0  0  0  0  0  0  0
   -3.8176    0.3065   11.2119 C   0  0  0  0  0  0  0  0  0  0  0  0
   -2.4137    2.2044   11.0467 N   0  0  0  0  0  0  0  0  0  0  0  0
 17 19  1  0  0  0
 17 16  1  0  0  0
 20 19  2  0  0  0
 20 21  1  0  0  0
 19 23  1  0  0  0
 16 14  1  0  0  0
 15 14  2  0  0  0
 21 22  2  0  0  0
 14  1  1  0  0  0
  5  1  2  0  0  0
  5  6  1  0  0  0
  1  4  1  0  0  0
 23 18  2  0  0  0
 22 18  1  0  0  0
  6  7  2  0  0  0
  4  2  2  0  0  0
  7  2  1  0  0  0
  7  9  1  0  0  0
  2  3  1  0  0  0
 10  9  1  0  0  0
 11  9  2  0  0  0
  9  8  2  0  0  0
 10 12  1  0  0  0
 10 13  1  0  0  0
M  END
> <minimizedAffinity>
-8.06511

$$$$
4KNJ_E1F_A_302


 23 24  0  0  0  0  0  0  0  0999 V2000
   -4.7888    4.4141   14.0577 C   0  0  0  0  0  0  0  0  0  0  0  0
   -4.7559    2.2409   15.0234 C   0  0  0  0  0  0  0  0  0  0  0  0
   -4.3090    0.5588   14.9084 Cl  0  0  0  0  0  0  0  0  0  0  0  0
   -4.3587    3.0858   13.9902 C   0  0  0  0  0  0  0  0  0  0  0  0
   -5.5477    4.9345   15.1411 C   0  0  0  0  0  0  0  0  0  0  0  0
   -5.9426    4.0823   16.1883 C   0  0  0  0  0  0  0  0  0  0  0  0
   -5.5445    2.7475   16.0948 C   0  0  0  0  0  0  0  0  0  0  0  0
   -4.9840    0.4363   17.5996 O   0  0  0  0  0  0  0  0  0  0  0  0
   -6.0779    1.6580   17.4258 S   0  0  0  0  0  0  0  0  0  0  0  0
   -7.5484    0.9355   16.8418 N   0  0  0  0  0  0  0  0  0  0  0  0
   -6.1438    2.5279   18.7041 O   0  0  0  0  0  0  0  0  0  0  0  0
   -8.2572    1.6587   16.7191 H   0  0  0  0  0  0  0  0  0  0  0  0
   -7.8796    0.2459   17.5164 H   0  0  0  0  0  0  0  0  0  0  0  0
   -4.3958    5.2845   12.9324 C   0  0  0  0  0  0  0  0  0  0  0  0
   -5.2572    5.8696   12.2642 O   0  0  0  0  0  0  0  0  0  0  0  0
   -2.9301    5.4718   12.7209 C   0  0  0  0  0  0  0  0  0  0  0  0
   -2.7703    6.9981   11.7469 S   0  0  0  0  0  0  0  0  0  0  0  0
   -1.4998    8.4221   15.3154 C   0  0  0  0  0  0  0  0  0  0  0  0
   -1.9973    7.9576   13.0288 C   0  0  0  0  0  0  0  0  0  0  0  0
   -1.2773    9.0360   12.5784 N   0  0  0  0  0  0  0  0  0  0  0  0
   -0.6707    9.8306   13.5257 C   0  0  0  0  0  0  0  0  0  0  0  0
   -0.7715    9.5208   14.9023 C   0  0  0  0  0  0  0  0  0  0  0  0
   -2.1284    7.6553   14.3737 N   0  0  0  0  0  0  0  0  0  0  0  0
 17 19  1  0  0  0
 17 16  1  0  0  0
 20 19  2  0  0  0
 20 21  1  0  0  0
 19 23  1  0  0  0
 16 14  1  0  0  0
 15 14  2  0  0  0
 21 22  2  0  0  0
 14  1  1  0  0  0
  5  1  2  0  0  0
  5  6  1  0  0  0
  1  4  1  0  0  0
 23 18  2  0  0  0
 22 18  1  0  0  0
  6  7  2  0  0  0
  4  2  2  0  0  0
  7  2  1  0  0  0
  7  9  1  0  0  0
  2  3  1  0  0  0
 10  9  1  0  0  0
 11  9  2  0  0  0
  9  8  2  0  0  0
 10 12  1  0  0  0
 10 13  1  0  0  0
M  END
> <minimizedAffinity>
-7.25661

$$$$
4KNJ_E1F_A_302


 23 24  0  0  0  0  0  0  0  0999 V2000
   -4.7649    4.2978   13.9628 C   0  0  0  0  0  0  0  0  0  0  0  0
   -4.7538    2.1568   14.9983 C   0  0  0  0  0  0  0  0  0  0  0  0
   -4.3242    0.4674   14.9378 Cl  0  0  0  0  0  0  0  0  0  0  0  0
   -4.3484    2.9636   13.9383 C   0  0  0  0  0  0  0  0  0  0  0  0
   -5.5180    4.8607   15.0288 C   0  0  0  0  0  0  0  0  0  0  0  0
   -5.9212    4.0469   16.1030 C   0  0  0  0  0  0  0  0  0  0  0  0
   -5.5368    2.7059   16.0528 C   0  0  0  0  0  0  0  0  0  0  0  0
   -5.0012    0.4369   17.6293 O   0  0  0  0  0  0  0  0  0  0  0  0
   -6.0808    1.6655   17.4184 S   0  0  0  0  0  0  0  0  0  0  0  0
   -7.5608    0.9424   16.8595 N   0  0  0  0  0  0  0  0  0  0  0  0
   -6.1341    2.5762   18.6685 O   0  0  0  0  0  0  0  0  0  0  0  0
   -8.2611    1.6698   16.7149 H   0  0  0  0  0  0  0  0  0  0  0  0
   -7.8990    0.2785   17.5561 H   0  0  0  0  0  0  0  0  0  0  0  0
   -4.3634    5.1272   12.8099 C   0  0  0  0  0  0  0  0  0  0  0  0
   -5.1695    5.9101   12.2921 O   0  0  0  0  0  0  0  0  0  0  0  0
   -2.9367    5.0221   12.3835 C   0  0  0  0  0  0  0  0  0  0  0  0
   -2.9798    4.3089   10.7122 S   0  0  0  0  0  0  0  0  0  0  0  0
    0.7420    3.4605    9.3691 C   0  0  0  0  0  0  0  0  0  0  0  0
   -1.2166    4.2138   10.5041 C   0  0  0  0  0  0  0  0  0  0  0  0
   -0.4932    4.9022   11.4460 N   0  0  0  0  0  0  0  0  0  0  0  0
    0.8797    4.8503   11.3499 C   0  0  0  0  0  0  0  0  0  0  0  0
    1.5054    4.1349   10.3022 C   0  0  0  0  0  0  0  0  0  0  0  0
   -0.6200    3.4868    9.4878 N   0  0  0  0  0  0  0  0  0  0  0  0
 17 19  1  0  0  0
 17 16  1  0  0  0
 20 19  2  0  0  0
 20 21  1  0  0  0
 19 23  1  0  0  0
 16 14  1  0  0  0
 15 14  2  0  0  0
 21 22  2  0  0  0
 14  1  1  0  0  0
  5  1  2  0  0  0
  5  6  1  0  0  0
  1  4  1  0  0  0
 23 18  2  0  0  0
 22 18  1  0  0  0
  6  7  2  0  0  0
  4  2  2  0  0  0
  7  2  1  0  0  0
  7  9  1  0  0  0
  2  3  1  0  0  0
 10  9  1  0  0  0
 11  9  2  0  0  0
  9  8  2  0  0  0
 10 12  1  0  0  0
 10 13  1  0  0  0
M  END
> <minimizedAffinity>
-7.14777

$$$$
4KNJ_E1F_A_302


 23 24  0  0  0  0  0  0  0  0999 V2000
   -4.1331    3.8766   13.8529 C   0  0  0  0  0  0  0  0  0  0  0  0
   -5.5927    3.4848   15.6893 C   0  0  0  0  0  0  0  0  0  0  0  0
   -6.6668    4.1184   16.9089 Cl  0  0  0  0  0  0  0  0  0  0  0  0
   -5.0509    4.3857   14.7762 C   0  0  0  0  0  0  0  0  0  0  0  0
   -3.7850    2.5006   13.7763 C   0  0  0  0  0  0  0  0  0  0  0  0
   -4.3382    1.5895   14.6943 C   0  0  0  0  0  0  0  0  0  0  0  0
   -5.2230    2.1111   15.6399 C   0  0  0  0  0  0  0  0  0  0  0  0
   -7.5514    0.9843   16.7485 O   0  0  0  0  0  0  0  0  0  0  0  0
   -5.9048    0.9423   16.8283 S   0  0  0  0  0  0  0  0  0  0  0  0
   -5.4613    1.5845   18.3827 N   0  0  0  0  0  0  0  0  0  0  0  0
   -5.3668   -0.4527   16.4288 O   0  0  0  0  0  0  0  0  0  0  0  0
   -4.4456    1.5775   18.4763 H   0  0  0  0  0  0  0  0  0  0  0  0
   -5.8744    1.0109   19.1181 H   0  0  0  0  0  0  0  0  0  0  0  0
   -3.5356    4.8532   12.9214 C   0  0  0  0  0  0  0  0  0  0  0  0
   -2.3176    4.8458   12.7045 O   0  0  0  0  0  0  0  0  0  0  0  0
   -4.4863    5.7625   12.2159 C   0  0  0  0  0  0  0  0  0  0  0  0
   -4.2525    5.4308   10.4443 S   0  0  0  0  0  0  0  0  0  0  0  0
   -6.5337    8.7056    9.7750 C   0  0  0  0  0  0  0  0  0  0  0  0
   -5.5091    6.5535    9.8766 C   0  0  0  0  0  0  0  0  0  0  0  0
   -6.4484    5.9879    9.0509 N   0  0  0  0  0  0  0  0  0  0  0  0
   -7.4602    6.8028    8.5936 C   0  0  0  0  0  0  0  0  0  0  0  0
   -7.5022    8.1719    8.9469 C   0  0  0  0  0  0  0  0  0  0  0  0
   -5.5501    7.8852   10.2539 N   0  0  0  0  0  0  0  0  0  0  0  0
 17 19  1  0  0  0
 17 16  1  0  0  0
 20 19  2  0  0  0
 20 21  1  0  0  0
 19 23  1  0  0  0
 16 14  1  0  0  0
 15 14  2  0  0  0
 21 22  2  0  0  0
 14  1  1  0  0  0
  5  1  2  0  0  0
  5  6  1  0  0  0
  1  4  1  0  0  0
 23 18  2  0  0  0
 22 18  1  0  0  0
  6  7  2  0  0  0
  4  2  2  0  0  0
  7  2  1  0  0  0
  7  9  1  0  0  0
  2  3  1  0  0  0
 10  9  1  0  0  0
 11  9  2  0  0  0
  9  8  2  0  0  0
 10 12  1  0  0  0
 10 13  1  0  0  0
M  END
> <minimizedAffinity>
-7.12153

$$$$
4KNJ_E1F_A_302


 23 24  0  0  0  0  0  0  0  0999 V2000
   -4.8725    4.5768   13.9970 C   0  0  0  0  0  0  0  0  0  0  0  0
   -4.7490    2.3263   14.7559 C   0  0  0  0  0  0  0  0  0  0  0  0
   -4.2984    0.6682   14.4556 Cl  0  0  0  0  0  0  0  0  0  0  0  0
   -4.4379    3.2665   13.7771 C   0  0  0  0  0  0  0  0  0  0  0  0
   -5.5516    4.9862   15.1767 C   0  0  0  0  0  0  0  0  0  0  0  0
   -5.8592    4.0373   16.1686 C   0  0  0  0  0  0  0  0  0  0  0  0
   -5.4584    2.7225   15.9248 C   0  0  0  0  0  0  0  0  0  0  0  0
   -7.3136    0.7935   16.7953 O   0  0  0  0  0  0  0  0  0  0  0  0
   -5.8808    1.5098   17.1873 S   0  0  0  0  0  0  0  0  0  0  0  0
   -6.1658    2.4490   18.6233 N   0  0  0  0  0  0  0  0  0  0  0  0
   -4.7305    0.4746   17.2025 O   0  0  0  0  0  0  0  0  0  0  0  0
   -5.3014    2.9124   18.9036 H   0  0  0  0  0  0  0  0  0  0  0  0
   -6.4813    1.8349   19.3742 H   0  0  0  0  0  0  0  0  0  0  0  0
   -4.5728    5.5507   12.9293 C   0  0  0  0  0  0  0  0  0  0  0  0
   -5.4675    5.9389   12.1680 O   0  0  0  0  0  0  0  0  0  0  0  0
   -3.1787    6.0830   12.8910 C   0  0  0  0  0  0  0  0  0  0  0  0
   -2.8878    6.5609   11.1617 S   0  0  0  0  0  0  0  0  0  0  0  0
   -0.5526    3.2622   11.3657 C   0  0  0  0  0  0  0  0  0  0  0  0
   -1.7799    5.2230   10.7820 C   0  0  0  0  0  0  0  0  0  0  0  0
   -1.3164    5.2156    9.4899 N   0  0  0  0  0  0  0  0  0  0  0  0
   -0.4381    4.2142    9.1398 C   0  0  0  0  0  0  0  0  0  0  0  0
   -0.0585    3.2243   10.0763 C   0  0  0  0  0  0  0  0  0  0  0  0
   -1.3979    4.2774   11.7187 N   0  0  0  0  0  0  0  0  0  0  0  0
 17 19  1  0  0  0
 17 16  1  0  0  0
 20 19  2  0  0  0
 20 21  1  0  0  0
 19 23  1  0  0  0
 16 14  1  0  0  0
 15 14  2  0  0  0
 21 22  2  0  0  0
 14  1  1  0  0  0
  5  1  2  0  0  0
  5  6  1  0  0  0
  1  4  1  0  0  0
 23 18  2  0  0  0
 22 18  1  0  0  0
  6  7  2  0  0  0
  4  2  2  0  0  0
  7  2  1  0  0  0
  7  9  1  0  0  0
  2  3  1  0  0  0
 10  9  1  0  0  0
 11  9  2  0  0  0
  9  8  2  0  0  0
 10 12  1  0  0  0
 10 13  1  0  0  0
M  END
> <minimizedAffinity>
-7.03527

$$$$
4KNJ_E1F_A_302


 23 24  0  0  0  0  0  0  0  0999 V2000
   -4.7888    4.4307   13.8547 C   0  0  0  0  0  0  0  0  0  0  0  0
   -5.8785    3.6532   15.8205 C   0  0  0  0  0  0  0  0  0  0  0  0
   -6.7703    4.0078   17.2770 Cl  0  0  0  0  0  0  0  0  0  0  0  0
   -5.5689    4.7181   14.9785 C   0  0  0  0  0  0  0  0  0  0  0  0
   -4.3595    3.1182   13.5178 C   0  0  0  0  0  0  0  0  0  0  0  0
   -4.6786    2.0415   14.3649 C   0  0  0  0  0  0  0  0  0  0  0  0
   -5.4234    2.3413   15.5070 C   0  0  0  0  0  0  0  0  0  0  0  0
   -5.1646    1.2567   18.0910 O   0  0  0  0  0  0  0  0  0  0  0  0
   -5.8036    0.9613   16.5997 S   0  0  0  0  0  0  0  0  0  0  0  0
   -4.9239   -0.3836   15.9343 N   0  0  0  0  0  0  0  0  0  0  0  0
   -7.3470    0.8686   16.6675 O   0  0  0  0  0  0  0  0  0  0  0  0
   -5.2876   -0.6024   15.0068 H   0  0  0  0  0  0  0  0  0  0  0  0
   -5.0326   -1.1953   16.5423 H   0  0  0  0  0  0  0  0  0  0  0  0
   -4.4333    5.5782   12.9972 C   0  0  0  0  0  0  0  0  0  0  0  0
   -5.2317    5.9960   12.1494 O   0  0  0  0  0  0  0  0  0  0  0  0
   -3.1210    6.2322   13.2770 C   0  0  0  0  0  0  0  0  0  0  0  0
   -2.5542    6.8884   11.6796 S   0  0  0  0  0  0  0  0  0  0  0  0
    0.9419    4.8710   11.3916 C   0  0  0  0  0  0  0  0  0  0  0  0
   -1.3145    5.6457   11.3963 C   0  0  0  0  0  0  0  0  0  0  0  0
   -1.8008    4.4527   10.9225 N   0  0  0  0  0  0  0  0  0  0  0  0
   -0.8863    3.4557   10.6643 C   0  0  0  0  0  0  0  0  0  0  0  0
    0.4925    3.6577   10.9075 C   0  0  0  0  0  0  0  0  0  0  0  0
    0.0344    5.8693   11.6147 N   0  0  0  0  0  0  0  0  0  0  0  0
 17 19  1  0  0  0
 17 16  1  0  0  0
 20 19  2  0  0  0
 20 21  1  0  0  0
 19 23  1  0  0  0
 16 14  1  0  0  0
 15 14  2  0  0  0
 21 22  2  0  0  0
 14  1  1  0  0  0
  5  1  2  0  0  0
  5  6  1  0  0  0
  1  4  1  0  0  0
 23 18  2  0  0  0
 22 18  1  0  0  0
  6  7  2  0  0  0
  4  2  2  0  0  0
  7  2  1  0  0  0
  7  9  1  0  0  0
  2  3  1  0  0  0
 10  9  1  0  0  0
 11  9  2  0  0  0
  9  8  2  0  0  0
 10 12  1  0  0  0
 10 13  1  0  0  0
M  END
> <minimizedAffinity>
-6.98402

$$$$
4KNJ_E1F_A_302


 23 24  0  0  0  0  0  0  0  0999 V2000
   -4.6845    4.1565   13.7587 C   0  0  0  0  0  0  0  0  0  0  0  0
   -5.8428    3.6056   15.7614 C   0  0  0  0  0  0  0  0  0  0  0  0
   -6.7578    4.1256   17.1524 Cl  0  0  0  0  0  0  0  0  0  0  0  0
   -5.4819    4.5740   14.8282 C   0  0  0  0  0  0  0  0  0  0  0  0
   -4.2866    2.8061   13.5626 C   0  0  0  0  0  0  0  0  0  0  0  0
   -4.6576    1.8267   14.5018 C   0  0  0  0  0  0  0  0  0  0  0  0
   -5.4198    2.2574   15.5892 C   0  0  0  0  0  0  0  0  0  0  0  0
   -5.3387    1.4722   18.2906 O   0  0  0  0  0  0  0  0  0  0  0  0
   -5.8666    1.0021   16.8007 S   0  0  0  0  0  0  0  0  0  0  0  0
   -4.9308   -0.3945   16.3545 N   0  0  0  0  0  0  0  0  0  0  0  0
   -7.4101    0.8930   16.7695 O   0  0  0  0  0  0  0  0  0  0  0  0
   -5.2253   -0.7212   15.4342 H   0  0  0  0  0  0  0  0  0  0  0  0
   -5.0765   -1.1349   17.0407 H   0  0  0  0  0  0  0  0  0  0  0  0
   -4.2748    5.2042   12.8032 C   0  0  0  0  0  0  0  0  0  0  0  0
   -5.1176    5.9619   12.3070 O   0  0  0  0  0  0  0  0  0  0  0  0
   -2.8089    5.3369   12.5546 C   0  0  0  0  0  0  0  0  0  0  0  0
   -2.6235    6.8184   11.5181 S   0  0  0  0  0  0  0  0  0  0  0  0
   -1.5662    8.3627   15.1060 C   0  0  0  0  0  0  0  0  0  0  0  0
   -2.0476    7.8854   12.8187 C   0  0  0  0  0  0  0  0  0  0  0  0
   -1.6388    9.1267   12.3989 N   0  0  0  0  0  0  0  0  0  0  0  0
   -1.2000   10.0067   13.3632 C   0  0  0  0  0  0  0  0  0  0  0  0
   -1.1525    9.6242   14.7242 C   0  0  0  0  0  0  0  0  0  0  0  0
   -2.0328    7.5039   14.1497 N   0  0  0  0  0  0  0  0  0  0  0  0
 17 19  1  0  0  0
 17 16  1  0  0  0
 20 19  2  0  0  0
 20 21  1  0  0  0
 19 23  1  0  0  0
 16 14  1  0  0  0
 15 14  2  0  0  0
 21 22  2  0  0  0
 14  1  1  0  0  0
  5  1  2  0  0  0
  5  6  1  0  0  0
  1  4  1  0  0  0
 23 18  2  0  0  0
 22 18  1  0  0  0
  6  7  2  0  0  0
  4  2  2  0  0  0
  7  2  1  0  0  0
  7  9  1  0  0  0
  2  3  1  0  0  0
 10  9  1  0  0  0
 11  9  2  0  0  0
  9  8  2  0  0  0
 10 12  1  0  0  0
 10 13  1  0  0  0
M  END
> <minimizedAffinity>
-6.94139

$$$$
4KNJ_E1F_A_302


 23 24  0  0  0  0  0  0  0  0999 V2000
   -4.5583    4.4272   14.1054 C   0  0  0  0  0  0  0  0  0  0  0  0
   -4.6393    2.2550   15.0704 C   0  0  0  0  0  0  0  0  0  0  0  0
   -4.2398    0.5598   14.9762 Cl  0  0  0  0  0  0  0  0  0  0  0  0
   -4.1669    3.0861   14.0580 C   0  0  0  0  0  0  0  0  0  0  0  0
   -5.3518    4.9720   15.1513 C   0  0  0  0  0  0  0  0  0  0  0  0
   -5.8228    4.1335   16.1779 C   0  0  0  0  0  0  0  0  0  0  0  0
   -5.4623    2.7869   16.1030 C   0  0  0  0  0  0  0  0  0  0  0  0
   -5.0206    0.4905   17.6688 O   0  0  0  0  0  0  0  0  0  0  0  0
   -6.0925    1.7158   17.4063 S   0  0  0  0  0  0  0  0  0  0  0  0
   -7.5237    0.9942   16.7305 N   0  0  0  0  0  0  0  0  0  0  0  0
   -6.2410    2.6009   18.6671 O   0  0  0  0  0  0  0  0  0  0  0  0
   -8.2179    1.7196   16.5511 H   0  0  0  0  0  0  0  0  0  0  0  0
   -7.9047    0.3142   17.3884 H   0  0  0  0  0  0  0  0  0  0  0  0
   -4.0848    5.2839   13.0007 C   0  0  0  0  0  0  0  0  0  0  0  0
   -2.8786    5.3493   12.7331 O   0  0  0  0  0  0  0  0  0  0  0  0
   -5.1386    5.9739   12.1996 C   0  0  0  0  0  0  0  0  0  0  0  0
   -4.2418    6.9838   10.9834 S   0  0  0  0  0  0  0  0  0  0  0  0
   -7.2535    8.7945    8.9766 C   0  0  0  0  0  0  0  0  0  0  0  0
   -5.6475    7.3220    9.9485 C   0  0  0  0  0  0  0  0  0  0  0  0
   -6.1779    6.2182    9.3284 N   0  0  0  0  0  0  0  0  0  0  0  0
   -7.2818    6.4128    8.5282 C   0  0  0  0  0  0  0  0  0  0  0  0
   -7.8204    7.7072    8.3404 C   0  0  0  0  0  0  0  0  0  0  0  0
   -6.1783    8.5919    9.7969 N   0  0  0  0  0  0  0  0  0  0  0  0
 17 19  1  0  0  0
 17 16  1  0  0  0
 20 19  2  0  0  0
 20 21  1  0  0  0
 19 23  1  0  0  0
 16 14  1  0  0  0
 15 14  2  0  0  0
 21 22  2  0  0  0
 14  1  1  0  0  0
  5  1  2  0  0  0
  5  6  1  0  0  0
  1  4  1  0  0  0
 23 18  2  0  0  0
 22 18  1  0  0  0
  6  7  2  0  0  0
  4  2  2  0  0  0
  7  2  1  0  0  0
  7  9  1  0  0  0
  2  3  1  0  0  0
 10  9  1  0  0  0
 11  9  2  0  0  0
  9  8  2  0  0  0
 10 12  1  0  0  0
 10 13  1  0  0  0
M  END
> <minimizedAffinity>
-6.93418

$$$$
4KNJ_E1F_A_302


 23 24  0  0  0  0  0  0  0  0999 V2000
   -4.0036    2.2544   13.0178 C   0  0  0  0  0  0  0  0  0  0  0  0
   -5.2978    3.1305   14.8105 C   0  0  0  0  0  0  0  0  0  0  0  0
   -6.0608    4.4995   15.5760 Cl  0  0  0  0  0  0  0  0  0  0  0  0
   -4.6761    3.3420   13.5826 C   0  0  0  0  0  0  0  0  0  0  0  0
   -3.9797    0.9607   13.6060 C   0  0  0  0  0  0  0  0  0  0  0  0
   -4.6142    0.7456   14.8430 C   0  0  0  0  0  0  0  0  0  0  0  0
   -5.2494    1.8458   15.4218 C   0  0  0  0  0  0  0  0  0  0  0  0
   -5.7483    2.8630   17.9980 O   0  0  0  0  0  0  0  0  0  0  0  0
   -6.0351    1.5680   17.0182 S   0  0  0  0  0  0  0  0  0  0  0  0
   -5.1760    0.2200   17.7040 N   0  0  0  0  0  0  0  0  0  0  0  0
   -7.5492    1.4094   16.7395 O   0  0  0  0  0  0  0  0  0  0  0  0
   -5.3259   -0.6078   17.1271 H   0  0  0  0  0  0  0  0  0  0  0  0
   -5.5190    0.0430   18.6481 H   0  0  0  0  0  0  0  0  0  0  0  0
   -3.3133    2.5081   11.7381 C   0  0  0  0  0  0  0  0  0  0  0  0
   -3.1451    1.5900   10.9259 O   0  0  0  0  0  0  0  0  0  0  0  0
   -2.9241    3.9230   11.4649 C   0  0  0  0  0  0  0  0  0  0  0  0
   -1.3209    4.1544   12.2894 S   0  0  0  0  0  0  0  0  0  0  0  0
    1.7502    3.7348    9.6878 C   0  0  0  0  0  0  0  0  0  0  0  0
   -0.3322    4.0125   10.8184 C   0  0  0  0  0  0  0  0  0  0  0  0
   -1.0398    4.0974    9.6452 N   0  0  0  0  0  0  0  0  0  0  0  0
   -0.3265    4.0144    8.4700 C   0  0  0  0  0  0  0  0  0  0  0  0
    1.0749    3.8225    8.4859 C   0  0  0  0  0  0  0  0  0  0  0  0
    1.0427    3.8515   10.8521 N   0  0  0  0  0  0  0  0  0  0  0  0
 17 19  1  0  0  0
 17 16  1  0  0  0
 20 19  2  0  0  0
 20 21  1  0  0  0
 19 23  1  0  0  0
 16 14  1  0  0  0
 15 14  2  0  0  0
 21 22  2  0  0  0
 14  1  1  0  0  0
  5  1  2  0  0  0
  5  6  1  0  0  0
  1  4  1  0  0  0
 23 18  2  0  0  0
 22 18  1  0  0  0
  6  7  2  0  0  0
  4  2  2  0  0  0
  7  2  1  0  0  0
  7  9  1  0  0  0
  2  3  1  0  0  0
 10  9  1  0  0  0
 11  9  2  0  0  0
  9  8  2  0  0  0
 10 12  1  0  0  0
 10 13  1  0  0  0
M  END
> <minimizedAffinity>
-6.55950

$$$$
