5MSB_V13_A_303


 23 23  0  0  0  0  0  0  0  0999 V2000
   27.0094    5.7302   10.7175 C   0  0  0  0  0  0  0  0  0  0  0  0
   25.9206    5.2254   11.4625 C   0  0  0  0  0  0  0  0  0  0  0  0
   25.6848    5.6077   12.7288 F   0  0  0  0  0  0  0  0  0  0  0  0
   24.9807    4.3336   10.9348 C   0  0  0  0  0  0  0  0  0  0  0  0
   24.0173    3.9001   11.7466 F   0  0  0  0  0  0  0  0  0  0  0  0
   25.1329    3.9199    9.6362 C   0  0  0  0  0  0  0  0  0  0  0  0
   26.2072    4.3781    8.8995 C   0  0  0  0  0  0  0  0  0  0  0  0
   26.3494    3.9923    7.6426 F   0  0  0  0  0  0  0  0  0  0  0  0
   27.0923    5.3228    9.4000 C   0  0  0  0  0  0  0  0  0  0  0  0
   28.0548    5.7381    8.5357 F   0  0  0  0  0  0  0  0  0  0  0  0
   24.1395    2.5605    8.9864 S   0  0  0  0  0  0  0  0  0  0  0  0
   24.8461    1.4170    9.5608 O   0  0  0  0  0  0  0  0  0  0  0  0
   22.6538    2.6079    9.4526 N   0  0  0  0  0  0  0  0  0  0  0  0
   24.2295    2.6727    7.5404 O   0  0  0  0  0  0  0  0  0  0  0  0
   22.1919    3.4154    9.0345 H   0  0  0  0  0  0  0  0  0  0  0  0
   22.6188    2.6847   10.4691 H   0  0  0  0  0  0  0  0  0  0  0  0
   28.2752    6.9664   12.8335 O   0  0  0  0  0  0  0  0  0  0  0  0
   28.3571    6.8224   11.2514 S   0  0  0  0  0  0  0  0  0  0  0  0
   28.0339    8.0662   10.4568 O   0  0  0  0  0  0  0  0  0  0  0  0
   29.9953    6.2887   10.9401 C   0  0  0  0  0  0  0  0  0  0  0  0
   31.0579    7.0080   11.7505 C   0  0  0  0  0  0  0  0  0  0  0  0
   30.7093    8.3454   11.8535 O   0  0  0  0  0  0  0  0  0  0  0  0
   30.6471    8.7326   10.9663 H   0  0  0  0  0  0  0  0  0  0  0  0
 21 20  1  0  0  0
 21 22  1  0  0  0
  3  2  1  0  0  0
 17 18  2  0  0  0
 20 18  1  0  0  0
 18  1  1  0  0  0
 18 19  2  0  0  0
  5  4  1  0  0  0
  2  4  2  0  0  0
  2  1  1  0  0  0
  4  6  1  0  0  0
  1  9  2  0  0  0
  9 10  1  0  0  0
  9  7  1  0  0  0
  6  7  2  0  0  0
  6 11  1  0  0  0
 14 11  2  0  0  0
 12 11  2  0  0  0
  7  8  1  0  0  0
 11 13  1  0  0  0
 22 23  1  0  0  0
 13 15  1  0  0  0
 13 16  1  0  0  0
M  END
> <minimizedAffinity>
-7.66706

$$$$
5MSB_V13_A_303


 23 23  0  0  0  0  0  0  0  0999 V2000
   26.7866    6.0098   10.6450 C   0  0  0  0  0  0  0  0  0  0  0  0
   27.0236    5.4160    9.3853 C   0  0  0  0  0  0  0  0  0  0  0  0
   27.9985    5.8456    8.5667 F   0  0  0  0  0  0  0  0  0  0  0  0
   26.3039    4.3138    8.9119 C   0  0  0  0  0  0  0  0  0  0  0  0
   26.5952    3.8640    7.6921 F   0  0  0  0  0  0  0  0  0  0  0  0
   25.3119    3.7946    9.7038 C   0  0  0  0  0  0  0  0  0  0  0  0
   25.0439    4.3786   10.9261 C   0  0  0  0  0  0  0  0  0  0  0  0
   24.0975    3.8721   11.6985 F   0  0  0  0  0  0  0  0  0  0  0  0
   25.8112    5.4212   11.4266 C   0  0  0  0  0  0  0  0  0  0  0  0
   25.4806    5.8439   12.6747 F   0  0  0  0  0  0  0  0  0  0  0  0
   24.1593    2.5727    9.0438 S   0  0  0  0  0  0  0  0  0  0  0  0
   24.7242    1.3458    9.6027 O   0  0  0  0  0  0  0  0  0  0  0  0
   22.6917    2.7942    9.5171 N   0  0  0  0  0  0  0  0  0  0  0  0
   24.2577    2.6896    7.5987 O   0  0  0  0  0  0  0  0  0  0  0  0
   22.3295    3.6563    9.1098 H   0  0  0  0  0  0  0  0  0  0  0  0
   22.6694    2.8632   10.5346 H   0  0  0  0  0  0  0  0  0  0  0  0
   28.4015    8.2117   10.2555 O   0  0  0  0  0  0  0  0  0  0  0  0
   27.5592    7.4753   11.3864 S   0  0  0  0  0  0  0  0  0  0  0  0
   28.3604    6.8326   12.4945 O   0  0  0  0  0  0  0  0  0  0  0  0
   26.4938    8.7117   12.0201 C   0  0  0  0  0  0  0  0  0  0  0  0
   25.4149    9.1697   11.0560 C   0  0  0  0  0  0  0  0  0  0  0  0
   24.2314    8.5215   11.3723 O   0  0  0  0  0  0  0  0  0  0  0  0
   24.3586    7.5626   11.2999 H   0  0  0  0  0  0  0  0  0  0  0  0
 21 20  1  0  0  0
 21 22  1  0  0  0
  3  2  1  0  0  0
 17 18  2  0  0  0
 20 18  1  0  0  0
 18  1  1  0  0  0
 18 19  2  0  0  0
  5  4  1  0  0  0
  2  4  2  0  0  0
  2  1  1  0  0  0
  4  6  1  0  0  0
  1  9  2  0  0  0
  9 10  1  0  0  0
  9  7  1  0  0  0
  6  7  2  0  0  0
  6 11  1  0  0  0
 14 11  2  0  0  0
 12 11  2  0  0  0
  7  8  1  0  0  0
 11 13  1  0  0  0
 22 23  1  0  0  0
 13 15  1  0  0  0
 13 16  1  0  0  0
M  END
> <minimizedAffinity>
-7.62964

$$$$
5MSB_V13_A_303


 23 23  0  0  0  0  0  0  0  0999 V2000
   27.1688    5.4769   10.0015 C   0  0  0  0  0  0  0  0  0  0  0  0
   26.6310    4.6492    8.9909 C   0  0  0  0  0  0  0  0  0  0  0  0
   27.2147    4.5225    7.7874 F   0  0  0  0  0  0  0  0  0  0  0  0
   25.4872    3.8646    9.1731 C   0  0  0  0  0  0  0  0  0  0  0  0
   25.0556    3.1517    8.1337 F   0  0  0  0  0  0  0  0  0  0  0  0
   24.8508    3.9130   10.3870 C   0  0  0  0  0  0  0  0  0  0  0  0
   25.3428    4.7383   11.3787 C   0  0  0  0  0  0  0  0  0  0  0  0
   24.7398    4.7769   12.5551 F   0  0  0  0  0  0  0  0  0  0  0  0
   26.5213    5.4543   11.2217 C   0  0  0  0  0  0  0  0  0  0  0  0
   26.9245    6.1627   12.3086 F   0  0  0  0  0  0  0  0  0  0  0  0
   23.2227    3.1631   10.5972 S   0  0  0  0  0  0  0  0  0  0  0  0
   22.3939    4.1178    9.8634 O   0  0  0  0  0  0  0  0  0  0  0  0
   23.1223    1.7325    9.9889 N   0  0  0  0  0  0  0  0  0  0  0  0
   22.9947    3.1300   12.0320 O   0  0  0  0  0  0  0  0  0  0  0  0
   23.7110    1.0936   10.5233 H   0  0  0  0  0  0  0  0  0  0  0  0
   23.4361    1.7528    9.0185 H   0  0  0  0  0  0  0  0  0  0  0  0
   29.1030    6.6463    8.4205 O   0  0  0  0  0  0  0  0  0  0  0  0
   28.5839    6.6108    9.9238 S   0  0  0  0  0  0  0  0  0  0  0  0
   29.5096    5.9641   10.9277 O   0  0  0  0  0  0  0  0  0  0  0  0
   28.2927    8.2886   10.3308 C   0  0  0  0  0  0  0  0  0  0  0  0
   29.2828    9.2660    9.7244 C   0  0  0  0  0  0  0  0  0  0  0  0
   30.5678    8.8246    9.9981 O   0  0  0  0  0  0  0  0  0  0  0  0
   30.6946    8.7737   10.9584 H   0  0  0  0  0  0  0  0  0  0  0  0
 21 20  1  0  0  0
 21 22  1  0  0  0
  3  2  1  0  0  0
 17 18  2  0  0  0
 20 18  1  0  0  0
 18  1  1  0  0  0
 18 19  2  0  0  0
  5  4  1  0  0  0
  2  4  2  0  0  0
  2  1  1  0  0  0
  4  6  1  0  0  0
  1  9  2  0  0  0
  9 10  1  0  0  0
  9  7  1  0  0  0
  6  7  2  0  0  0
  6 11  1  0  0  0
 14 11  2  0  0  0
 12 11  2  0  0  0
  7  8  1  0  0  0
 11 13  1  0  0  0
 22 23  1  0  0  0
 13 15  1  0  0  0
 13 16  1  0  0  0
M  END
> <minimizedAffinity>
-7.59609

$$$$
5MSB_V13_A_303


 23 23  0  0  0  0  0  0  0  0999 V2000
   27.2716    6.0258   10.5904 C   0  0  0  0  0  0  0  0  0  0  0  0
   27.1724    5.4151    9.3205 C   0  0  0  0  0  0  0  0  0  0  0  0
   28.0398    5.6840    8.3303 F   0  0  0  0  0  0  0  0  0  0  0  0
   26.2043    4.4551    9.0070 C   0  0  0  0  0  0  0  0  0  0  0  0
   26.1891    3.9767    7.7637 F   0  0  0  0  0  0  0  0  0  0  0  0
   25.3003    4.1012    9.9758 C   0  0  0  0  0  0  0  0  0  0  0  0
   25.3611    4.7079   11.2147 C   0  0  0  0  0  0  0  0  0  0  0  0
   24.4998    4.3590   12.1557 F   0  0  0  0  0  0  0  0  0  0  0  0
   26.3702    5.6008   11.5473 C   0  0  0  0  0  0  0  0  0  0  0  0
   26.3479    6.0587   12.8262 F   0  0  0  0  0  0  0  0  0  0  0  0
   23.8588    3.0982    9.5598 S   0  0  0  0  0  0  0  0  0  0  0  0
   24.1788    1.8640   10.2747 O   0  0  0  0  0  0  0  0  0  0  0  0
   22.5172    3.7153   10.0560 N   0  0  0  0  0  0  0  0  0  0  0  0
   23.8702    2.9873    8.1108 O   0  0  0  0  0  0  0  0  0  0  0  0
   22.3251    4.5725    9.5377 H   0  0  0  0  0  0  0  0  0  0  0  0
   22.5884    3.9283   11.0509 H   0  0  0  0  0  0  0  0  0  0  0  0
   29.2185    6.7734   12.3955 O   0  0  0  0  0  0  0  0  0  0  0  0
   28.4005    7.3319   11.1506 S   0  0  0  0  0  0  0  0  0  0  0  0
   27.4150    8.4374   11.4495 O   0  0  0  0  0  0  0  0  0  0  0  0
   29.6258    7.8732   10.0232 C   0  0  0  0  0  0  0  0  0  0  0  0
   30.6819    8.7807   10.6269 C   0  0  0  0  0  0  0  0  0  0  0  0
   30.1073    9.5077   11.6575 O   0  0  0  0  0  0  0  0  0  0  0  0
   29.3722   10.0364   11.3095 H   0  0  0  0  0  0  0  0  0  0  0  0
 21 20  1  0  0  0
 21 22  1  0  0  0
  3  2  1  0  0  0
 17 18  2  0  0  0
 20 18  1  0  0  0
 18  1  1  0  0  0
 18 19  2  0  0  0
  5  4  1  0  0  0
  2  4  2  0  0  0
  2  1  1  0  0  0
  4  6  1  0  0  0
  1  9  2  0  0  0
  9 10  1  0  0  0
  9  7  1  0  0  0
  6  7  2  0  0  0
  6 11  1  0  0  0
 14 11  2  0  0  0
 12 11  2  0  0  0
  7  8  1  0  0  0
 11 13  1  0  0  0
 22 23  1  0  0  0
 13 15  1  0  0  0
 13 16  1  0  0  0
M  END
> <minimizedAffinity>
-7.47642

$$$$
5MSB_V13_A_303


 23 23  0  0  0  0  0  0  0  0999 V2000
   27.2260    5.8921   10.9287 C   0  0  0  0  0  0  0  0  0  0  0  0
   26.1717    5.4626   11.7651 C   0  0  0  0  0  0  0  0  0  0  0  0
   26.0843    5.8384   13.0521 F   0  0  0  0  0  0  0  0  0  0  0  0
   25.1176    4.6599   11.3160 C   0  0  0  0  0  0  0  0  0  0  0  0
   24.1998    4.2901   12.2081 F   0  0  0  0  0  0  0  0  0  0  0  0
   25.1166    4.2602   10.0041 C   0  0  0  0  0  0  0  0  0  0  0  0
   26.1534    4.6442    9.1769 C   0  0  0  0  0  0  0  0  0  0  0  0
   26.1484    4.2722    7.9078 F   0  0  0  0  0  0  0  0  0  0  0  0
   27.1548    5.5046    9.6045 C   0  0  0  0  0  0  0  0  0  0  0  0
   28.0655    5.8573    8.6600 F   0  0  0  0  0  0  0  0  0  0  0  0
   23.9599    2.9980    9.4330 S   0  0  0  0  0  0  0  0  0  0  0  0
   22.6863    3.6541    9.7233 O   0  0  0  0  0  0  0  0  0  0  0  0
   24.1038    2.6741    7.9161 N   0  0  0  0  0  0  0  0  0  0  0  0
   24.2412    1.8225   10.2398 O   0  0  0  0  0  0  0  0  0  0  0  0
   25.0010    2.2183    7.7494 H   0  0  0  0  0  0  0  0  0  0  0  0
   24.0568    3.5393    7.3778 H   0  0  0  0  0  0  0  0  0  0  0  0
   29.9760    6.0721   10.8159 O   0  0  0  0  0  0  0  0  0  0  0  0
   28.7018    6.8616   11.3486 S   0  0  0  0  0  0  0  0  0  0  0  0
   28.5567    6.9464   12.8501 O   0  0  0  0  0  0  0  0  0  0  0  0
   28.8429    8.4573   10.6420 C   0  0  0  0  0  0  0  0  0  0  0  0
   29.9848    8.6111    9.6542 C   0  0  0  0  0  0  0  0  0  0  0  0
   31.1263    8.9807   10.3480 O   0  0  0  0  0  0  0  0  0  0  0  0
   30.9676    9.8198   10.8080 H   0  0  0  0  0  0  0  0  0  0  0  0
 21 20  1  0  0  0
 21 22  1  0  0  0
  3  2  1  0  0  0
 17 18  2  0  0  0
 20 18  1  0  0  0
 18  1  1  0  0  0
 18 19  2  0  0  0
  5  4  1  0  0  0
  2  4  2  0  0  0
  2  1  1  0  0  0
  4  6  1  0  0  0
  1  9  2  0  0  0
  9 10  1  0  0  0
  9  7  1  0  0  0
  6  7  2  0  0  0
  6 11  1  0  0  0
 14 11  2  0  0  0
 12 11  2  0  0  0
  7  8  1  0  0  0
 11 13  1  0  0  0
 22 23  1  0  0  0
 13 15  1  0  0  0
 13 16  1  0  0  0
M  END
> <minimizedAffinity>
-7.37799

$$$$
5MSB_V13_A_303


 23 23  0  0  0  0  0  0  0  0999 V2000
   25.7843    6.0763   12.9201 C   0  0  0  0  0  0  0  0  0  0  0  0
   26.3102    5.9358   11.6166 C   0  0  0  0  0  0  0  0  0  0  0  0
   27.3679    6.6484   11.1939 F   0  0  0  0  0  0  0  0  0  0  0  0
   25.8106    5.0196   10.6849 C   0  0  0  0  0  0  0  0  0  0  0  0
   26.3671    5.0044    9.4745 F   0  0  0  0  0  0  0  0  0  0  0  0
   24.7506    4.2305   11.0514 C   0  0  0  0  0  0  0  0  0  0  0  0
   24.2023    4.3726   12.3108 C   0  0  0  0  0  0  0  0  0  0  0  0
   23.1890    3.6036   12.6725 F   0  0  0  0  0  0  0  0  0  0  0  0
   24.7497    5.2256   13.2588 C   0  0  0  0  0  0  0  0  0  0  0  0
   24.1525    5.2044   14.4789 F   0  0  0  0  0  0  0  0  0  0  0  0
   23.8748    3.2443    9.8194 S   0  0  0  0  0  0  0  0  0  0  0  0
   22.5484    3.8551    9.8844 O   0  0  0  0  0  0  0  0  0  0  0  0
   24.4881    3.3589    8.3920 N   0  0  0  0  0  0  0  0  0  0  0  0
   23.9429    1.8749   10.3011 O   0  0  0  0  0  0  0  0  0  0  0  0
   25.4107    2.9239    8.3824 H   0  0  0  0  0  0  0  0  0  0  0  0
   24.5733    4.3427    8.1366 H   0  0  0  0  0  0  0  0  0  0  0  0
   27.2931    8.2800   13.6093 O   0  0  0  0  0  0  0  0  0  0  0  0
   26.2479    7.2504   14.2243 S   0  0  0  0  0  0  0  0  0  0  0  0
   26.7903    6.3018   15.2678 O   0  0  0  0  0  0  0  0  0  0  0  0
   24.9776    8.2544   14.8905 C   0  0  0  0  0  0  0  0  0  0  0  0
   25.4673    9.5039   15.5992 C   0  0  0  0  0  0  0  0  0  0  0  0
   26.6480    9.2060   16.2611 O   0  0  0  0  0  0  0  0  0  0  0  0
   26.4880    8.4982   16.9048 H   0  0  0  0  0  0  0  0  0  0  0  0
 21 20  1  0  0  0
 21 22  1  0  0  0
  3  2  1  0  0  0
 17 18  2  0  0  0
 20 18  1  0  0  0
 18  1  1  0  0  0
 18 19  2  0  0  0
  5  4  1  0  0  0
  2  4  2  0  0  0
  2  1  1  0  0  0
  4  6  1  0  0  0
  1  9  2  0  0  0
  9 10  1  0  0  0
  9  7  1  0  0  0
  6  7  2  0  0  0
  6 11  1  0  0  0
 14 11  2  0  0  0
 12 11  2  0  0  0
  7  8  1  0  0  0
 11 13  1  0  0  0
 22 23  1  0  0  0
 13 15  1  0  0  0
 13 16  1  0  0  0
M  END
> <minimizedAffinity>
-7.14171

$$$$
5MSB_V13_A_303


 23 23  0  0  0  0  0  0  0  0999 V2000
   25.7047    5.6017   12.4835 C   0  0  0  0  0  0  0  0  0  0  0  0
   26.4535    5.3666   11.3090 C   0  0  0  0  0  0  0  0  0  0  0  0
   27.6039    6.0128   11.0556 F   0  0  0  0  0  0  0  0  0  0  0  0
   26.0897    4.4184   10.3470 C   0  0  0  0  0  0  0  0  0  0  0  0
   26.8574    4.3124    9.2633 F   0  0  0  0  0  0  0  0  0  0  0  0
   24.9435    3.6928   10.5485 C   0  0  0  0  0  0  0  0  0  0  0  0
   24.1809    3.9278   11.6755 C   0  0  0  0  0  0  0  0  0  0  0  0
   23.0825    3.2202   11.8801 F   0  0  0  0  0  0  0  0  0  0  0  0
   24.5856    4.8122   12.6655 C   0  0  0  0  0  0  0  0  0  0  0  0
   23.7744    4.8838   13.7530 F   0  0  0  0  0  0  0  0  0  0  0  0
   24.2621    2.6719    9.2254 S   0  0  0  0  0  0  0  0  0  0  0  0
   24.8845    1.3859    9.5349 O   0  0  0  0  0  0  0  0  0  0  0  0
   22.7075    2.5782    9.2604 N   0  0  0  0  0  0  0  0  0  0  0  0
   24.7134    3.2891    7.9896 O   0  0  0  0  0  0  0  0  0  0  0  0
   22.3069    3.4901    9.0406 H   0  0  0  0  0  0  0  0  0  0  0  0
   22.4052    2.2894   10.1907 H   0  0  0  0  0  0  0  0  0  0  0  0
   26.2009    6.0493   15.1596 O   0  0  0  0  0  0  0  0  0  0  0  0
   25.9772    6.8300   13.7916 S   0  0  0  0  0  0  0  0  0  0  0  0
   24.6994    7.6297   13.6882 O   0  0  0  0  0  0  0  0  0  0  0  0
   27.3793    7.8677   13.6403 C   0  0  0  0  0  0  0  0  0  0  0  0
   28.3958    7.7217   14.7577 C   0  0  0  0  0  0  0  0  0  0  0  0
   27.8716    8.2820   15.9119 O   0  0  0  0  0  0  0  0  0  0  0  0
   27.6782    9.2199   15.7570 H   0  0  0  0  0  0  0  0  0  0  0  0
 21 20  1  0  0  0
 21 22  1  0  0  0
  3  2  1  0  0  0
 17 18  2  0  0  0
 20 18  1  0  0  0
 18  1  1  0  0  0
 18 19  2  0  0  0
  5  4  1  0  0  0
  2  4  2  0  0  0
  2  1  1  0  0  0
  4  6  1  0  0  0
  1  9  2  0  0  0
  9 10  1  0  0  0
  9  7  1  0  0  0
  6  7  2  0  0  0
  6 11  1  0  0  0
 14 11  2  0  0  0
 12 11  2  0  0  0
  7  8  1  0  0  0
 11 13  1  0  0  0
 22 23  1  0  0  0
 13 15  1  0  0  0
 13 16  1  0  0  0
M  END
> <minimizedAffinity>
-6.96701

$$$$
5MSB_V13_A_303


 23 23  0  0  0  0  0  0  0  0999 V2000
   26.4622    6.3619   11.9609 C   0  0  0  0  0  0  0  0  0  0  0  0
   26.4324    5.8360   10.6501 C   0  0  0  0  0  0  0  0  0  0  0  0
   27.2752    6.2589    9.6930 F   0  0  0  0  0  0  0  0  0  0  0  0
   25.5667    4.8097   10.2572 C   0  0  0  0  0  0  0  0  0  0  0  0
   25.6073    4.4216    8.9834 F   0  0  0  0  0  0  0  0  0  0  0  0
   24.6963    4.3003   11.1866 C   0  0  0  0  0  0  0  0  0  0  0  0
   24.6884    4.8206   12.4657 C   0  0  0  0  0  0  0  0  0  0  0  0
   23.8601    4.3224   13.3683 F   0  0  0  0  0  0  0  0  0  0  0  0
   25.6014    5.7830   12.8734 C   0  0  0  0  0  0  0  0  0  0  0  0
   25.5254    6.1446   14.1808 F   0  0  0  0  0  0  0  0  0  0  0  0
   23.3644    3.1918   10.6821 S   0  0  0  0  0  0  0  0  0  0  0  0
   22.6413    4.0533    9.7484 O   0  0  0  0  0  0  0  0  0  0  0  0
   23.8751    1.8952    9.9859 N   0  0  0  0  0  0  0  0  0  0  0  0
   22.6446    2.8717   11.9032 O   0  0  0  0  0  0  0  0  0  0  0  0
   24.3735    1.3189   10.6640 H   0  0  0  0  0  0  0  0  0  0  0  0
   24.5049    2.1443    9.2232 H   0  0  0  0  0  0  0  0  0  0  0  0
   28.0590    7.2642   14.0209 O   0  0  0  0  0  0  0  0  0  0  0  0
   27.4519    7.7301   12.6262 S   0  0  0  0  0  0  0  0  0  0  0  0
   26.4066    8.8192   12.6910 O   0  0  0  0  0  0  0  0  0  0  0  0
   28.8386    8.2479   11.6911 C   0  0  0  0  0  0  0  0  0  0  0  0
   29.8440    7.1507   11.3933 C   0  0  0  0  0  0  0  0  0  0  0  0
   30.2546    6.5866   12.5908 O   0  0  0  0  0  0  0  0  0  0  0  0
   30.6607    7.2694   13.1474 H   0  0  0  0  0  0  0  0  0  0  0  0
 21 20  1  0  0  0
 21 22  1  0  0  0
  3  2  1  0  0  0
 17 18  2  0  0  0
 20 18  1  0  0  0
 18  1  1  0  0  0
 18 19  2  0  0  0
  5  4  1  0  0  0
  2  4  2  0  0  0
  2  1  1  0  0  0
  4  6  1  0  0  0
  1  9  2  0  0  0
  9 10  1  0  0  0
  9  7  1  0  0  0
  6  7  2  0  0  0
  6 11  1  0  0  0
 14 11  2  0  0  0
 12 11  2  0  0  0
  7  8  1  0  0  0
 11 13  1  0  0  0
 22 23  1  0  0  0
 13 15  1  0  0  0
 13 16  1  0  0  0
M  END
> <minimizedAffinity>
-6.72690

$$$$
5MSB_V13_A_303


 23 23  0  0  0  0  0  0  0  0999 V2000
   25.2057    5.6610   13.8135 C   0  0  0  0  0  0  0  0  0  0  0  0
   24.9364    5.0586   12.5644 C   0  0  0  0  0  0  0  0  0  0  0  0
   23.9786    4.1286   12.4132 F   0  0  0  0  0  0  0  0  0  0  0  0
   25.6028    5.4107   11.3859 C   0  0  0  0  0  0  0  0  0  0  0  0
   25.2859    4.7463   10.2754 F   0  0  0  0  0  0  0  0  0  0  0  0
   26.5735    6.3773   11.4505 C   0  0  0  0  0  0  0  0  0  0  0  0
   26.8733    6.9578   12.6670 C   0  0  0  0  0  0  0  0  0  0  0  0
   27.7989    7.9002   12.7306 F   0  0  0  0  0  0  0  0  0  0  0  0
   26.1567    6.6632   13.8185 C   0  0  0  0  0  0  0  0  0  0  0  0
   26.5117    7.3677   14.9246 F   0  0  0  0  0  0  0  0  0  0  0  0
   27.6662    6.6723   10.0446 S   0  0  0  0  0  0  0  0  0  0  0  0
   27.3787    8.0801    9.7758 O   0  0  0  0  0  0  0  0  0  0  0  0
   29.1712    6.4495   10.3791 N   0  0  0  0  0  0  0  0  0  0  0  0
   27.2256    5.7492    9.0124 O   0  0  0  0  0  0  0  0  0  0  0  0
   29.3362    5.4595   10.5607 H   0  0  0  0  0  0  0  0  0  0  0  0
   29.4199    6.9929   11.2057 H   0  0  0  0  0  0  0  0  0  0  0  0
   23.9210    6.6336   16.0521 O   0  0  0  0  0  0  0  0  0  0  0  0
   24.5043    5.2840   15.4444 S   0  0  0  0  0  0  0  0  0  0  0  0
   25.7186    4.7159   16.1412 O   0  0  0  0  0  0  0  0  0  0  0  0
   23.1649    4.1578   15.5025 C   0  0  0  0  0  0  0  0  0  0  0  0
   21.8654    4.7489   16.0172 C   0  0  0  0  0  0  0  0  0  0  0  0
   21.0968    3.7303   16.5582 O   0  0  0  0  0  0  0  0  0  0  0  0
   20.9140    3.0658   15.8756 H   0  0  0  0  0  0  0  0  0  0  0  0
 21 20  1  0  0  0
 21 22  1  0  0  0
  3  2  1  0  0  0
 17 18  2  0  0  0
 20 18  1  0  0  0
 18  1  1  0  0  0
 18 19  2  0  0  0
  5  4  1  0  0  0
  2  4  2  0  0  0
  2  1  1  0  0  0
  4  6  1  0  0  0
  1  9  2  0  0  0
  9 10  1  0  0  0
  9  7  1  0  0  0
  6  7  2  0  0  0
  6 11  1  0  0  0
 14 11  2  0  0  0
 12 11  2  0  0  0
  7  8  1  0  0  0
 11 13  1  0  0  0
 22 23  1  0  0  0
 13 15  1  0  0  0
 13 16  1  0  0  0
M  END
> <minimizedAffinity>
-6.49507

$$$$
5MSB_V13_A_303


 23 23  0  0  0  0  0  0  0  0999 V2000
   26.0010    6.1241   12.1347 C   0  0  0  0  0  0  0  0  0  0  0  0
   26.1716    5.8262   10.7644 C   0  0  0  0  0  0  0  0  0  0  0  0
   25.2889    5.0773   10.0824 F   0  0  0  0  0  0  0  0  0  0  0  0
   27.2346    6.3201   10.0008 C   0  0  0  0  0  0  0  0  0  0  0  0
   27.3078    5.9402    8.7259 F   0  0  0  0  0  0  0  0  0  0  0  0
   28.1624    7.1205   10.6169 C   0  0  0  0  0  0  0  0  0  0  0  0
   28.0308    7.3998   11.9628 C   0  0  0  0  0  0  0  0  0  0  0  0
   28.9158    8.1826   12.5570 F   0  0  0  0  0  0  0  0  0  0  0  0
   26.9336    6.9736   12.6981 C   0  0  0  0  0  0  0  0  0  0  0  0
   26.8994    7.3885   13.9914 F   0  0  0  0  0  0  0  0  0  0  0  0
   29.7016    7.5500    9.7781 S   0  0  0  0  0  0  0  0  0  0  0  0
   30.6648    6.8206   10.6009 O   0  0  0  0  0  0  0  0  0  0  0  0
   29.7445    7.0787    8.2939 N   0  0  0  0  0  0  0  0  0  0  0  0
   29.7965    8.9976    9.8620 O   0  0  0  0  0  0  0  0  0  0  0  0
   29.0621    7.6065    7.7498 H   0  0  0  0  0  0  0  0  0  0  0  0
   29.5216    6.0845    8.2463 H   0  0  0  0  0  0  0  0  0  0  0  0
   23.9201    4.3659   12.5665 O   0  0  0  0  0  0  0  0  0  0  0  0
   24.7409    5.5193   13.2924 S   0  0  0  0  0  0  0  0  0  0  0  0
   23.9834    6.7975   13.5665 O   0  0  0  0  0  0  0  0  0  0  0  0
   25.3019    4.7919   14.7829 C   0  0  0  0  0  0  0  0  0  0  0  0
   24.2713    4.7605   15.8966 C   0  0  0  0  0  0  0  0  0  0  0  0
   23.0353    4.4528   15.3503 O   0  0  0  0  0  0  0  0  0  0  0  0
   22.7960    5.1247   14.6929 H   0  0  0  0  0  0  0  0  0  0  0  0
 21 20  1  0  0  0
 21 22  1  0  0  0
  3  2  1  0  0  0
 17 18  2  0  0  0
 20 18  1  0  0  0
 18  1  1  0  0  0
 18 19  2  0  0  0
  5  4  1  0  0  0
  2  4  2  0  0  0
  2  1  1  0  0  0
  4  6  1  0  0  0
  1  9  2  0  0  0
  9 10  1  0  0  0
  9  7  1  0  0  0
  6  7  2  0  0  0
  6 11  1  0  0  0
 14 11  2  0  0  0
 12 11  2  0  0  0
  7  8  1  0  0  0
 11 13  1  0  0  0
 22 23  1  0  0  0
 13 15  1  0  0  0
 13 16  1  0  0  0
M  END
> <minimizedAffinity>
-6.36988

$$$$
