3WTO_N2Y_A_301


 16 17  0  0  0  0  0  0  0  0999 V2000
  -18.7297    0.0851   25.0280 N   0  0  0  0  0  0  0  0  0  0  0  0
  -21.0241    0.1156   24.3923 N   0  0  0  0  0  0  0  0  0  0  0  0
  -19.9427    0.4260   25.2578 C   0  0  0  0  0  0  0  0  0  0  0  0
  -20.3918    1.1523   26.3805 N   0  0  0  0  0  0  0  0  0  0  0  0
  -21.8352    1.3501   26.2896 C   0  0  0  0  0  0  0  0  0  0  0  0
  -22.2569    0.6654   24.9714 C   0  0  0  0  0  0  0  0  0  0  0  0
  -18.5069   -0.4234   24.2150 H   0  0  0  0  0  0  0  0  0  0  0  0
  -19.8195    1.4762   27.1131 H   0  0  0  0  0  0  0  0  0  0  0  0
  -20.9811   -0.6196   23.0993 C   0  0  0  0  0  0  0  0  0  0  0  0
  -22.4065   -4.6585   22.3770 C   0  0  0  0  0  0  0  0  0  0  0  0
  -22.9494   -6.2538   21.9187 Cl  0  0  0  0  0  0  0  0  0  0  0  0
  -22.0376   -3.8400   21.4013 N   0  0  0  0  0  0  0  0  0  0  0  0
  -21.6050   -2.6007   21.6312 C   0  0  0  0  0  0  0  0  0  0  0  0
  -21.5073   -2.0622   22.9452 C   0  0  0  0  0  0  0  0  0  0  0  0
  -21.8995   -2.9129   24.0292 C   0  0  0  0  0  0  0  0  0  0  0  0
  -22.3597   -4.2386   23.7517 C   0  0  0  0  0  0  0  0  0  0  0  0
 16 15  1  0  0  0
 16 10  2  0  0  0
  6  5  1  0  0  0
  6  2  1  0  0  0
 15 14  2  0  0  0
 11 10  1  0  0  0
 10 12  1  0  0  0
  5  4  1  0  0  0
 14  9  1  0  0  0
 14 13  1  0  0  0
  9  2  1  0  0  0
  2  3  1  0  0  0
 12 13  2  0  0  0
  4  3  1  0  0  0
  3  1  2  0  0  0
  1  7  1  0  0  0
  4  8  1  0  0  0
M  END
> <minimizedAffinity>
-6.68491

$$$$
3WTO_N2Y_A_301


 16 17  0  0  0  0  0  0  0  0999 V2000
  -21.0947   -4.4244   19.2585 N   0  0  0  0  0  0  0  0  0  0  0  0
  -21.8251   -3.9646   21.4776 N   0  0  0  0  0  0  0  0  0  0  0  0
  -21.6798   -4.7953   20.3358 C   0  0  0  0  0  0  0  0  0  0  0  0
  -22.2584   -6.0620   20.5605 N   0  0  0  0  0  0  0  0  0  0  0  0
  -22.8258   -6.1089   21.9046 C   0  0  0  0  0  0  0  0  0  0  0  0
  -22.5384   -4.7203   22.5157 C   0  0  0  0  0  0  0  0  0  0  0  0
  -20.7183   -3.5173   19.1900 H   0  0  0  0  0  0  0  0  0  0  0  0
  -22.2768   -6.8011   19.9104 H   0  0  0  0  0  0  0  0  0  0  0  0
  -21.3452   -2.5683   21.6621 C   0  0  0  0  0  0  0  0  0  0  0  0
  -21.8714   -0.1023   25.1987 C   0  0  0  0  0  0  0  0  0  0  0  0
  -21.9946    1.0124   26.5375 Cl  0  0  0  0  0  0  0  0  0  0  0  0
  -21.1810    0.2964   24.1393 N   0  0  0  0  0  0  0  0  0  0  0  0
  -21.0210   -0.4679   23.0595 C   0  0  0  0  0  0  0  0  0  0  0  0
  -21.5806   -1.7733   22.9637 C   0  0  0  0  0  0  0  0  0  0  0  0
  -22.3321   -2.2446   24.0887 C   0  0  0  0  0  0  0  0  0  0  0  0
  -22.4870   -1.4015   25.2339 C   0  0  0  0  0  0  0  0  0  0  0  0
 16 15  1  0  0  0
 16 10  2  0  0  0
  6  5  1  0  0  0
  6  2  1  0  0  0
 15 14  2  0  0  0
 11 10  1  0  0  0
 10 12  1  0  0  0
  5  4  1  0  0  0
 14  9  1  0  0  0
 14 13  1  0  0  0
  9  2  1  0  0  0
  2  3  1  0  0  0
 12 13  2  0  0  0
  4  3  1  0  0  0
  3  1  2  0  0  0
  1  7  1  0  0  0
  4  8  1  0  0  0
M  END
> <minimizedAffinity>
-6.03269

$$$$
3WTO_N2Y_A_301


 16 17  0  0  0  0  0  0  0  0999 V2000
  -19.1942   -0.3663   25.5621 N   0  0  0  0  0  0  0  0  0  0  0  0
  -21.5417    0.0021   25.4121 N   0  0  0  0  0  0  0  0  0  0  0  0
  -20.1930    0.4337   25.5091 C   0  0  0  0  0  0  0  0  0  0  0  0
  -20.1179    1.8421   25.5335 N   0  0  0  0  0  0  0  0  0  0  0  0
  -21.4623    2.4050   25.4524 C   0  0  0  0  0  0  0  0  0  0  0  0
  -22.4083    1.1874   25.3700 C   0  0  0  0  0  0  0  0  0  0  0  0
  -19.3412   -1.3395   25.5391 H   0  0  0  0  0  0  0  0  0  0  0  0
  -19.2862    2.3652   25.5958 H   0  0  0  0  0  0  0  0  0  0  0  0
  -22.0548   -1.3929   25.3426 C   0  0  0  0  0  0  0  0  0  0  0  0
  -21.5810   -3.6098   21.6376 C   0  0  0  0  0  0  0  0  0  0  0  0
  -21.3366   -4.3532   20.0763 Cl  0  0  0  0  0  0  0  0  0  0  0  0
  -21.3509   -2.3074   21.7317 N   0  0  0  0  0  0  0  0  0  0  0  0
  -21.5023   -1.6338   22.8715 C   0  0  0  0  0  0  0  0  0  0  0  0
  -21.9245   -2.2646   24.0758 C   0  0  0  0  0  0  0  0  0  0  0  0
  -22.1873   -3.6717   24.0172 C   0  0  0  0  0  0  0  0  0  0  0  0
  -22.0158   -4.3682   22.7795 C   0  0  0  0  0  0  0  0  0  0  0  0
 16 15  1  0  0  0
 16 10  2  0  0  0
  6  5  1  0  0  0
  6  2  1  0  0  0
 15 14  2  0  0  0
 11 10  1  0  0  0
 10 12  1  0  0  0
  5  4  1  0  0  0
 14  9  1  0  0  0
 14 13  1  0  0  0
  9  2  1  0  0  0
  2  3  1  0  0  0
 12 13  2  0  0  0
  4  3  1  0  0  0
  3  1  2  0  0  0
  1  7  1  0  0  0
  4  8  1  0  0  0
M  END
> <minimizedAffinity>
-5.79049

$$$$
3WTO_N2Y_A_301


 16 17  0  0  0  0  0  0  0  0999 V2000
  -22.6199    0.7454   26.8652 N   0  0  0  0  0  0  0  0  0  0  0  0
  -21.6303   -0.2869   24.9614 N   0  0  0  0  0  0  0  0  0  0  0  0
  -21.8229    0.7919   25.8637 C   0  0  0  0  0  0  0  0  0  0  0  0
  -21.0214    1.8955   25.5039 N   0  0  0  0  0  0  0  0  0  0  0  0
  -20.2482    1.5697   24.3095 C   0  0  0  0  0  0  0  0  0  0  0  0
  -20.6484    0.1226   23.9486 C   0  0  0  0  0  0  0  0  0  0  0  0
  -23.1425   -0.0702   27.0410 H   0  0  0  0  0  0  0  0  0  0  0  0
  -20.9886    2.7540   25.9848 H   0  0  0  0  0  0  0  0  0  0  0  0
  -22.2673   -1.6312   24.9910 C   0  0  0  0  0  0  0  0  0  0  0  0
  -22.2174   -4.5835   21.8055 C   0  0  0  0  0  0  0  0  0  0  0  0
  -22.2771   -5.8779   20.6346 Cl  0  0  0  0  0  0  0  0  0  0  0  0
  -22.6965   -4.8379   23.0154 N   0  0  0  0  0  0  0  0  0  0  0  0
  -22.7046   -3.9276   23.9886 C   0  0  0  0  0  0  0  0  0  0  0  0
  -22.1973   -2.6109   23.8006 C   0  0  0  0  0  0  0  0  0  0  0  0
  -21.6668   -2.2950   22.5078 C   0  0  0  0  0  0  0  0  0  0  0  0
  -21.6716   -3.2928   21.4828 C   0  0  0  0  0  0  0  0  0  0  0  0
 16 15  1  0  0  0
 16 10  2  0  0  0
  6  5  1  0  0  0
  6  2  1  0  0  0
 15 14  2  0  0  0
 11 10  1  0  0  0
 10 12  1  0  0  0
  5  4  1  0  0  0
 14  9  1  0  0  0
 14 13  1  0  0  0
  9  2  1  0  0  0
  2  3  1  0  0  0
 12 13  2  0  0  0
  4  3  1  0  0  0
  3  1  2  0  0  0
  1  7  1  0  0  0
  4  8  1  0  0  0
M  END
> <minimizedAffinity>
-5.34248

$$$$
3WTO_N2Y_A_301


 16 17  0  0  0  0  0  0  0  0999 V2000
  -23.0871   -6.5032   22.0958 N   0  0  0  0  0  0  0  0  0  0  0  0
  -22.1454   -4.3228   21.9281 N   0  0  0  0  0  0  0  0  0  0  0  0
  -22.4458   -5.6173   21.4292 C   0  0  0  0  0  0  0  0  0  0  0  0
  -21.9483   -5.7775   20.1191 N   0  0  0  0  0  0  0  0  0  0  0  0
  -21.2782   -4.5512   19.6971 C   0  0  0  0  0  0  0  0  0  0  0  0
  -21.4090   -3.5843   20.8938 C   0  0  0  0  0  0  0  0  0  0  0  0
  -23.3982   -6.3033   23.0082 H   0  0  0  0  0  0  0  0  0  0  0  0
  -22.0390   -6.5916   19.5730 H   0  0  0  0  0  0  0  0  0  0  0  0
  -22.5016   -3.7457   23.2525 C   0  0  0  0  0  0  0  0  0  0  0  0
  -21.4118    0.1898   24.7325 C   0  0  0  0  0  0  0  0  0  0  0  0
  -21.0605    1.7326   25.4717 Cl  0  0  0  0  0  0  0  0  0  0  0  0
  -22.1780   -0.6495   25.4156 N   0  0  0  0  0  0  0  0  0  0  0  0
  -22.5109   -1.8539   24.9527 C   0  0  0  0  0  0  0  0  0  0  0  0
  -22.0678   -2.3296   23.6863 C   0  0  0  0  0  0  0  0  0  0  0  0
  -21.2398   -1.4521   22.9136 C   0  0  0  0  0  0  0  0  0  0  0  0
  -20.8988   -0.1651   23.4367 C   0  0  0  0  0  0  0  0  0  0  0  0
 16 15  1  0  0  0
 16 10  2  0  0  0
  6  5  1  0  0  0
  6  2  1  0  0  0
 15 14  2  0  0  0
 11 10  1  0  0  0
 10 12  1  0  0  0
  5  4  1  0  0  0
 14  9  1  0  0  0
 14 13  1  0  0  0
  9  2  1  0  0  0
  2  3  1  0  0  0
 12 13  2  0  0  0
  4  3  1  0  0  0
  3  1  2  0  0  0
  1  7  1  0  0  0
  4  8  1  0  0  0
M  END
> <minimizedAffinity>
-5.26698

$$$$
3WTO_N2Y_A_301


 16 17  0  0  0  0  0  0  0  0999 V2000
  -21.5116   -5.2693   24.9090 N   0  0  0  0  0  0  0  0  0  0  0  0
  -22.6920   -3.7033   23.5586 N   0  0  0  0  0  0  0  0  0  0  0  0
  -21.9833   -4.9145   23.7723 C   0  0  0  0  0  0  0  0  0  0  0  0
  -21.8818   -5.6538   22.5753 N   0  0  0  0  0  0  0  0  0  0  0  0
  -22.5421   -4.9279   21.4946 C   0  0  0  0  0  0  0  0  0  0  0  0
  -23.0818   -3.6351   22.1440 C   0  0  0  0  0  0  0  0  0  0  0  0
  -21.6300   -4.6876   25.6944 H   0  0  0  0  0  0  0  0  0  0  0  0
  -21.4342   -6.5259   22.4829 H   0  0  0  0  0  0  0  0  0  0  0  0
  -23.0307   -2.6516   24.5552 C   0  0  0  0  0  0  0  0  0  0  0  0
  -21.0621    1.1932   25.0107 C   0  0  0  0  0  0  0  0  0  0  0  0
  -20.3527    2.7536   25.3454 Cl  0  0  0  0  0  0  0  0  0  0  0  0
  -21.9286    0.7188   25.8951 N   0  0  0  0  0  0  0  0  0  0  0  0
  -22.5313   -0.4603   25.7460 C   0  0  0  0  0  0  0  0  0  0  0  0
  -22.2891   -1.2999   24.6223 C   0  0  0  0  0  0  0  0  0  0  0  0
  -21.3612   -0.8232   23.6402 C   0  0  0  0  0  0  0  0  0  0  0  0
  -20.7296    0.4465   23.8275 C   0  0  0  0  0  0  0  0  0  0  0  0
 16 15  1  0  0  0
 16 10  2  0  0  0
  6  5  1  0  0  0
  6  2  1  0  0  0
 15 14  2  0  0  0
 11 10  1  0  0  0
 10 12  1  0  0  0
  5  4  1  0  0  0
 14  9  1  0  0  0
 14 13  1  0  0  0
  9  2  1  0  0  0
  2  3  1  0  0  0
 12 13  2  0  0  0
  4  3  1  0  0  0
  3  1  2  0  0  0
  1  7  1  0  0  0
  4  8  1  0  0  0
M  END
> <minimizedAffinity>
-4.93902

$$$$
3WTO_N2Y_A_301


 16 17  0  0  0  0  0  0  0  0999 V2000
  -21.6774   -5.8015   25.5645 N   0  0  0  0  0  0  0  0  0  0  0  0
  -23.7234   -4.6135   25.2972 N   0  0  0  0  0  0  0  0  0  0  0  0
  -22.9092   -5.6262   25.8683 C   0  0  0  0  0  0  0  0  0  0  0  0
  -23.6404   -6.3904   26.8016 N   0  0  0  0  0  0  0  0  0  0  0  0
  -25.0096   -5.8900   26.8778 C   0  0  0  0  0  0  0  0  0  0  0  0
  -25.0670   -4.7106   25.8827 C   0  0  0  0  0  0  0  0  0  0  0  0
  -21.2466   -5.2178   24.8989 H   0  0  0  0  0  0  0  0  0  0  0  0
  -23.2822   -7.1456   27.3219 H   0  0  0  0  0  0  0  0  0  0  0  0
  -23.3391   -3.5884   24.2895 C   0  0  0  0  0  0  0  0  0  0  0  0
  -21.5329   -4.3624   20.4160 C   0  0  0  0  0  0  0  0  0  0  0  0
  -20.7403   -4.5142   18.8672 Cl  0  0  0  0  0  0  0  0  0  0  0  0
  -21.4204   -3.1998   21.0433 N   0  0  0  0  0  0  0  0  0  0  0  0
  -21.9810   -2.9690   22.2301 C   0  0  0  0  0  0  0  0  0  0  0  0
  -22.7450   -3.9566   22.9136 C   0  0  0  0  0  0  0  0  0  0  0  0
  -22.8943   -5.2272   22.2687 C   0  0  0  0  0  0  0  0  0  0  0  0
  -22.2809   -5.4457   20.9950 C   0  0  0  0  0  0  0  0  0  0  0  0
 16 15  1  0  0  0
 16 10  2  0  0  0
  6  5  1  0  0  0
  6  2  1  0  0  0
 15 14  2  0  0  0
 11 10  1  0  0  0
 10 12  1  0  0  0
  5  4  1  0  0  0
 14  9  1  0  0  0
 14 13  1  0  0  0
  9  2  1  0  0  0
  2  3  1  0  0  0
 12 13  2  0  0  0
  4  3  1  0  0  0
  3  1  2  0  0  0
  1  7  1  0  0  0
  4  8  1  0  0  0
M  END
> <minimizedAffinity>
-4.73721

$$$$
3WTO_N2Y_A_301


 16 17  0  0  0  0  0  0  0  0999 V2000
  -22.4237   -6.8067   26.9376 N   0  0  0  0  0  0  0  0  0  0  0  0
  -23.8043   -5.3787   25.6245 N   0  0  0  0  0  0  0  0  0  0  0  0
  -23.5145   -6.1549   26.7771 C   0  0  0  0  0  0  0  0  0  0  0  0
  -24.5802   -6.0997   27.6996 N   0  0  0  0  0  0  0  0  0  0  0  0
  -25.6458   -5.2568   27.1659 C   0  0  0  0  0  0  0  0  0  0  0  0
  -25.1334   -4.7759   25.7909 C   0  0  0  0  0  0  0  0  0  0  0  0
  -21.7317   -6.7882   26.2376 H   0  0  0  0  0  0  0  0  0  0  0  0
  -24.6019   -6.5591   28.5701 H   0  0  0  0  0  0  0  0  0  0  0  0
  -22.9465   -5.1579   24.4289 C   0  0  0  0  0  0  0  0  0  0  0  0
  -21.5591   -1.1356   23.5558 C   0  0  0  0  0  0  0  0  0  0  0  0
  -21.0499    0.5240   23.3652 Cl  0  0  0  0  0  0  0  0  0  0  0  0
  -22.1273   -1.4671   24.7070 N   0  0  0  0  0  0  0  0  0  0  0  0
  -22.5538   -2.7029   24.9656 C   0  0  0  0  0  0  0  0  0  0  0  0
  -22.4312   -3.7614   24.0217 C   0  0  0  0  0  0  0  0  0  0  0  0
  -21.8254   -3.4451   22.7626 C   0  0  0  0  0  0  0  0  0  0  0  0
  -21.3770   -2.1097   22.5136 C   0  0  0  0  0  0  0  0  0  0  0  0
 16 15  1  0  0  0
 16 10  2  0  0  0
  6  5  1  0  0  0
  6  2  1  0  0  0
 15 14  2  0  0  0
 11 10  1  0  0  0
 10 12  1  0  0  0
  5  4  1  0  0  0
 14  9  1  0  0  0
 14 13  1  0  0  0
  9  2  1  0  0  0
  2  3  1  0  0  0
 12 13  2  0  0  0
  4  3  1  0  0  0
  3  1  2  0  0  0
  1  7  1  0  0  0
  4  8  1  0  0  0
M  END
> <minimizedAffinity>
-4.32880

$$$$
3WTO_N2Y_A_301


 16 17  0  0  0  0  0  0  0  0999 V2000
  -21.5155   -2.0103   23.7008 N   0  0  0  0  0  0  0  0  0  0  0  0
  -21.9052   -4.3118   23.2308 N   0  0  0  0  0  0  0  0  0  0  0  0
  -21.7143   -2.9552   22.8593 C   0  0  0  0  0  0  0  0  0  0  0  0
  -21.7708   -2.8066   21.4577 N   0  0  0  0  0  0  0  0  0  0  0  0
  -22.0109   -4.1060   20.8374 C   0  0  0  0  0  0  0  0  0  0  0  0
  -22.0987   -5.1061   22.0106 C   0  0  0  0  0  0  0  0  0  0  0  0
  -21.4918   -2.2070   24.6652 H   0  0  0  0  0  0  0  0  0  0  0  0
  -21.6644   -1.9567   20.9722 H   0  0  0  0  0  0  0  0  0  0  0  0
  -21.9029   -4.8962   24.5992 C   0  0  0  0  0  0  0  0  0  0  0  0
  -25.4305   -6.0773   26.8413 C   0  0  0  0  0  0  0  0  0  0  0  0
  -26.7649   -6.6986   27.7812 Cl  0  0  0  0  0  0  0  0  0  0  0  0
  -24.3681   -6.8591   26.7063 N   0  0  0  0  0  0  0  0  0  0  0  0
  -23.2911   -6.4907   26.0133 C   0  0  0  0  0  0  0  0  0  0  0  0
  -23.2017   -5.2270   25.3643 C   0  0  0  0  0  0  0  0  0  0  0  0
  -24.3301   -4.3521   25.4824 C   0  0  0  0  0  0  0  0  0  0  0  0
  -25.4722   -4.7749   26.2329 C   0  0  0  0  0  0  0  0  0  0  0  0
 16 15  1  0  0  0
 16 10  2  0  0  0
  6  5  1  0  0  0
  6  2  1  0  0  0
 15 14  2  0  0  0
 11 10  1  0  0  0
 10 12  1  0  0  0
  5  4  1  0  0  0
 14  9  1  0  0  0
 14 13  1  0  0  0
  9  2  1  0  0  0
  2  3  1  0  0  0
 12 13  2  0  0  0
  4  3  1  0  0  0
  3  1  2  0  0  0
  1  7  1  0  0  0
  4  8  1  0  0  0
M  END
> <minimizedAffinity>
-4.15553

$$$$
