2XJJ_L81_A_1225


 25 28  0  0  0  0  0  0  0  0999 V2000
    1.8696   -1.5797   -2.9593 C   0  0  0  0  0  0  0  0  0  0  0  0
    2.1826    0.4504   -4.3730 C   0  0  0  0  0  0  0  0  0  0  0  0
    1.1762   -0.3553   -3.5733 C   0  0  0  0  0  0  0  0  0  0  0  0
    0.4851    0.4994   -2.4896 C   0  0  0  0  0  0  0  0  0  0  0  0
   -0.0001   -0.8165   -4.4094 C   0  0  0  0  0  0  0  0  0  0  0  0
   -0.0265   -1.4540   -5.6504 C   0  0  0  0  0  0  0  0  0  0  0  0
   -1.2435   -1.8802   -6.2051 C   0  0  0  0  0  0  0  0  0  0  0  0
   -2.4388   -1.6556   -5.4850 C   0  0  0  0  0  0  0  0  0  0  0  0
   -3.6335   -2.0815   -5.9954 O   0  0  0  0  0  0  0  0  0  0  0  0
   -2.3998   -1.0351   -4.2297 C   0  0  0  0  0  0  0  0  0  0  0  0
   -1.1807   -0.6281   -3.7029 C   0  0  0  0  0  0  0  0  0  0  0  0
   -0.8849   -0.0051   -2.4980 N   0  0  0  0  0  0  0  0  0  0  0  0
   -3.6630   -2.4969   -6.8347 H   0  0  0  0  0  0  0  0  0  0  0  0
   -1.5160    0.0847   -1.7478 H   0  0  0  0  0  0  0  0  0  0  0  0
   -1.2603   -2.5384   -7.5600 C   0  0  0  0  0  0  0  0  0  0  0  0
   -1.5227   -3.7372   -7.6520 O   0  0  0  0  0  0  0  0  0  0  0  0
   -1.0482   -1.7683   -8.6715 N   0  0  0  0  0  0  0  0  0  0  0  0
   -1.0327   -2.3127  -10.0478 C   0  0  0  0  0  0  0  0  0  0  0  0
   -1.3999   -1.1079  -10.8684 C   0  0  0  0  0  0  0  0  0  0  0  0
   -1.7145   -1.0102  -12.2166 C   0  0  0  0  0  0  0  0  0  0  0  0
   -2.0141    0.2238  -12.7719 C   0  0  0  0  0  0  0  0  0  0  0  0
   -2.0101    1.3626  -11.9805 C   0  0  0  0  0  0  0  0  0  0  0  0
   -1.6931    1.2750  -10.6354 C   0  0  0  0  0  0  0  0  0  0  0  0
   -1.3814    0.0437  -10.0736 C   0  0  0  0  0  0  0  0  0  0  0  0
   -1.0083   -0.2984   -8.6556 C   0  0  0  0  0  0  0  0  0  0  0  0
  1  3  1  0  0  0
  3  4  1  0  0  0
  3  5  1  0  0  0
  3  2  1  0  0  0
  4 12  1  0  0  0
  5  6  1  0  0  0
  5 11  2  0  0  0
  6  7  2  0  0  0
  7 15  1  0  0  0
  7  8  1  0  0  0
 15 16  2  0  0  0
 15 17  1  0  0  0
 17 18  1  0  0  0
 17 25  1  0  0  0
 18 19  1  0  0  0
 19 20  1  0  0  0
 19 24  2  0  0  0
 20 21  2  0  0  0
 21 22  1  0  0  0
 22 23  2  0  0  0
 23 24  1  0  0  0
 24 25  1  0  0  0
  8  9  1  0  0  0
  8 10  2  0  0  0
 10 11  1  0  0  0
 11 12  1  0  0  0
  9 13  1  0  0  0
 12 14  1  0  0  0
M  END
> <minimizedAffinity>
-11.30254

$$$$
