1DRK_RIP_A_272


 14 14  0  0  0  0  0  0  0  0999 V2000
   49.9044   33.7290   43.5895 C   0  0  0  0  0  0  0  0  0  0  0  0
   49.1193   33.2056   44.8168 C   0  0  0  0  0  0  0  0  0  0  0  0
   48.7569   34.3778   45.7326 C   0  0  0  0  0  0  0  0  0  0  0  0
   50.0074   35.2084   46.0403 C   0  0  0  0  0  0  0  0  0  0  0  0
   50.7258   35.6316   44.7822 C   0  0  0  0  0  0  0  0  0  0  0  0
   50.3450   32.6681   42.7693 O   0  0  0  0  0  0  0  0  0  0  0  0
   47.9275   32.5212   44.4274 O   0  0  0  0  0  0  0  0  0  0  0  0
   47.7636   35.1908   45.1259 O   0  0  0  0  0  0  0  0  0  0  0  0
   49.6564   36.3580   46.7422 O   0  0  0  0  0  0  0  0  0  0  0  0
   51.0460   34.4913   44.0134 O   0  0  0  0  0  0  0  0  0  0  0  0
   50.9494   32.1002   43.2722 H   0  0  0  0  0  0  0  0  0  0  0  0
   47.3432   33.1336   43.9536 H   0  0  0  0  0  0  0  0  0  0  0  0
   48.1051   35.5505   44.2923 H   0  0  0  0  0  0  0  0  0  0  0  0
   49.0682   36.9031   46.1966 H   0  0  0  0  0  0  0  0  0  0  0  0
  1  2  1  0  0  0
  1  6  1  0  0  0
  1 10  1  0  0  0
  2  3  1  0  0  0
  2  7  1  0  0  0
  3  4  1  0  0  0
  3  8  1  0  0  0
  4  5  1  0  0  0
  4  9  1  0  0  0
  5 10  1  0  0  0
  6 11  1  0  0  0
  7 12  1  0  0  0
  8 13  1  0  0  0
  9 14  1  0  0  0
M  END
> <minimizedAffinity>
-7.71181

$$$$
1DRK_RIP_A_272


 14 14  0  0  0  0  0  0  0  0999 V2000
   48.7766   33.1932   45.0497 C   0  0  0  0  0  0  0  0  0  0  0  0
   49.2508   33.7876   43.7012 C   0  0  0  0  0  0  0  0  0  0  0  0
   50.3755   34.7958   43.9516 C   0  0  0  0  0  0  0  0  0  0  0  0
   49.9431   35.8093   45.0167 C   0  0  0  0  0  0  0  0  0  0  0  0
   49.4562   35.1313   46.2741 C   0  0  0  0  0  0  0  0  0  0  0  0
   47.6719   32.3326   44.8731 O   0  0  0  0  0  0  0  0  0  0  0  0
   49.7139   32.7711   42.8109 O   0  0  0  0  0  0  0  0  0  0  0  0
   51.5581   34.1260   44.3616 O   0  0  0  0  0  0  0  0  0  0  0  0
   51.0145   36.6298   45.3580 O   0  0  0  0  0  0  0  0  0  0  0  0
   48.4049   34.2435   45.9567 O   0  0  0  0  0  0  0  0  0  0  0  0
   46.9270   32.8339   44.5059 H   0  0  0  0  0  0  0  0  0  0  0  0
   50.4740   32.3166   43.2065 H   0  0  0  0  0  0  0  0  0  0  0  0
   51.3888   33.6478   45.1884 H   0  0  0  0  0  0  0  0  0  0  0  0
   51.7266   36.0909   45.7367 H   0  0  0  0  0  0  0  0  0  0  0  0
  1  2  1  0  0  0
  1  6  1  0  0  0
  1 10  1  0  0  0
  2  3  1  0  0  0
  2  7  1  0  0  0
  3  4  1  0  0  0
  3  8  1  0  0  0
  4  5  1  0  0  0
  4  9  1  0  0  0
  5 10  1  0  0  0
  6 11  1  0  0  0
  7 12  1  0  0  0
  8 13  1  0  0  0
  9 14  1  0  0  0
M  END
> <minimizedAffinity>
-5.56809

$$$$
1DRK_RIP_A_272


 14 14  0  0  0  0  0  0  0  0999 V2000
   49.0985   33.3801   43.6036 C   0  0  0  0  0  0  0  0  0  0  0  0
   48.7459   33.4035   45.1108 C   0  0  0  0  0  0  0  0  0  0  0  0
   49.1252   34.7623   45.7059 C   0  0  0  0  0  0  0  0  0  0  0  0
   50.5765   35.1031   45.3509 C   0  0  0  0  0  0  0  0  0  0  0  0
   50.8300   35.0082   43.8661 C   0  0  0  0  0  0  0  0  0  0  0  0
   48.8570   32.1098   43.0379 O   0  0  0  0  0  0  0  0  0  0  0  0
   47.3556   33.1603   45.3307 O   0  0  0  0  0  0  0  0  0  0  0  0
   48.2514   35.7734   45.2269 O   0  0  0  0  0  0  0  0  0  0  0  0
   50.8751   36.4009   45.7558 O   0  0  0  0  0  0  0  0  0  0  0  0
   50.4808   33.7191   43.4075 O   0  0  0  0  0  0  0  0  0  0  0  0
   49.4205   31.4502   43.4718 H   0  0  0  0  0  0  0  0  0  0  0  0
   46.8339   33.8578   44.9038 H   0  0  0  0  0  0  0  0  0  0  0  0
   48.3245   35.8332   44.2615 H   0  0  0  0  0  0  0  0  0  0  0  0
   50.3025   37.0263   45.2849 H   0  0  0  0  0  0  0  0  0  0  0  0
  1  2  1  0  0  0
  1  6  1  0  0  0
  1 10  1  0  0  0
  2  3  1  0  0  0
  2  7  1  0  0  0
  3  4  1  0  0  0
  3  8  1  0  0  0
  4  5  1  0  0  0
  4  9  1  0  0  0
  5 10  1  0  0  0
  6 11  1  0  0  0
  7 12  1  0  0  0
  8 13  1  0  0  0
  9 14  1  0  0  0
M  END
> <minimizedAffinity>
-5.14876

$$$$
1DRK_RIP_A_272


 14 14  0  0  0  0  0  0  0  0999 V2000
   51.0201   35.1828   45.0945 C   0  0  0  0  0  0  0  0  0  0  0  0
   49.5748   35.7354   45.0437 C   0  0  0  0  0  0  0  0  0  0  0  0
   48.5888   34.5784   44.8613 C   0  0  0  0  0  0  0  0  0  0  0  0
   49.0164   33.7076   43.6750 C   0  0  0  0  0  0  0  0  0  0  0  0
   50.4518   33.2573   43.7957 C   0  0  0  0  0  0  0  0  0  0  0  0
   51.9683   36.2262   45.1615 O   0  0  0  0  0  0  0  0  0  0  0  0
   49.2447   36.4578   46.2309 O   0  0  0  0  0  0  0  0  0  0  0  0
   48.5185   33.7972   46.0446 O   0  0  0  0  0  0  0  0  0  0  0  0
   48.2144   32.5723   43.6024 O   0  0  0  0  0  0  0  0  0  0  0  0
   51.2918   34.3842   43.9316 O   0  0  0  0  0  0  0  0  0  0  0  0
   51.9018   36.7752   44.3646 H   0  0  0  0  0  0  0  0  0  0  0  0
   49.2974   35.8639   46.9960 H   0  0  0  0  0  0  0  0  0  0  0  0
   49.3927   33.4240   46.2381 H   0  0  0  0  0  0  0  0  0  0  0  0
   48.3259   32.0455   44.4092 H   0  0  0  0  0  0  0  0  0  0  0  0
  1  2  1  0  0  0
  1  6  1  0  0  0
  1 10  1  0  0  0
  2  3  1  0  0  0
  2  7  1  0  0  0
  3  4  1  0  0  0
  3  8  1  0  0  0
  4  5  1  0  0  0
  4  9  1  0  0  0
  5 10  1  0  0  0
  6 11  1  0  0  0
  7 12  1  0  0  0
  8 13  1  0  0  0
  9 14  1  0  0  0
M  END
> <minimizedAffinity>
-5.01386

$$$$
