2C94_TSF_A_701


 40 41  0  0  0  0  0  0  0  0999 V2000
   43.5477    0.4373    4.0886 N   0  0  0  0  0  0  0  0  0  0  0  0
   42.9817   -0.6471    4.6295 C   0  0  0  0  0  0  0  0  0  0  0  0
   43.0338   -2.0766    4.2494 C   0  0  0  0  0  0  0  0  0  0  0  0
   43.6887   -2.4813    3.2609 O   0  0  0  0  0  0  0  0  0  0  0  0
   42.3253   -2.9150    5.0239 N   0  0  0  0  0  0  0  0  0  0  0  0
   43.1273    1.4244    4.8849 C   0  0  0  0  0  0  0  0  0  0  0  0
   43.4457    2.6581    4.6978 O   0  0  0  0  0  0  0  0  0  0  0  0
   42.3291    1.0829    5.8972 N   0  0  0  0  0  0  0  0  0  0  0  0
   42.1825   -0.2481    5.8020 C   0  0  0  0  0  0  0  0  0  0  0  0
   41.5419   -1.2044    6.4765 N   0  0  0  0  0  0  0  0  0  0  0  0
   41.6138   -2.4910    6.1011 C   0  0  0  0  0  0  0  0  0  0  0  0
   40.9813   -3.3189    6.7830 O   0  0  0  0  0  0  0  0  0  0  0  0
   42.3214   -3.8743    4.8023 H   0  0  0  0  0  0  0  0  0  0  0  0
   41.0057   -0.9615    7.2656 H   0  0  0  0  0  0  0  0  0  0  0  0
   44.4095    0.5490    2.9157 C   0  0  0  0  0  0  0  0  0  0  0  0
   45.8383    0.2024    3.3047 C   0  0  0  0  0  0  0  0  0  0  0  0
   46.7623    1.3087    2.8079 C   0  0  0  0  0  0  0  0  0  0  0  0
   45.9864    2.3413    1.9900 C   0  0  0  0  0  0  0  0  0  0  0  0
   46.3556    2.3020    0.5102 C   0  0  0  0  0  0  0  0  0  0  0  0
   45.2616    2.4648   -0.2097 F   0  0  0  0  0  0  0  0  0  0  0  0
   46.9184    1.1450    0.2129 F   0  0  0  0  0  0  0  0  0  0  0  0
   46.9035    4.8682    0.6444 O   0  0  0  0  0  0  0  0  0  0  0  0
   47.5398    3.6153    0.1095 P   0  0  0  0  0  0  0  0  0  0  0  0
   47.6217    3.5881   -1.4014 O   0  0  0  0  0  0  0  0  0  0  0  0
   48.8203    3.2169    0.8118 O   0  0  0  0  0  0  0  0  0  0  0  0
   48.2425    4.2692   -1.7039 H   0  0  0  0  0  0  0  0  0  0  0  0
   49.5045    3.8822    0.6386 H   0  0  0  0  0  0  0  0  0  0  0  0
   41.7918    2.0544    6.8406 C   0  0  0  0  0  0  0  0  0  0  0  0
   40.3101    2.3622    6.7212 C   0  0  0  0  0  0  0  0  0  0  0  0
   39.4517    1.2325    6.9483 O   0  0  0  0  0  0  0  0  0  0  0  0
   39.5297    0.9478    7.8722 H   0  0  0  0  0  0  0  0  0  0  0  0
   39.8893    3.5722    7.5490 C   0  0  0  0  0  0  0  0  0  0  0  0
   41.0475    3.7823    8.3633 O   0  0  0  0  0  0  0  0  0  0  0  0
   41.2059    2.9963    8.9091 H   0  0  0  0  0  0  0  0  0  0  0  0
   38.6585    3.4345    8.4669 C   0  0  0  0  0  0  0  0  0  0  0  0
   37.4295    3.6342    7.7522 O   0  0  0  0  0  0  0  0  0  0  0  0
   37.4011    4.5392    7.4043 H   0  0  0  0  0  0  0  0  0  0  0  0
   38.6989    4.4459    9.6129 C   0  0  0  0  0  0  0  0  0  0  0  0
   39.3594    3.8378   10.7367 O   0  0  0  0  0  0  0  0  0  0  0  0
   38.8728    3.0432   11.0066 H   0  0  0  0  0  0  0  0  0  0  0  0
 22 23  2  0  0  0
 23 24  1  0  0  0
 23 25  1  0  0  0
 23 19  1  0  0  0
 19 20  1  0  0  0
 19 21  1  0  0  0
 19 18  1  0  0  0
 18 17  1  0  0  0
 17 16  1  0  0  0
 16 15  1  0  0  0
 15  1  1  0  0  0
  1  2  1  0  0  0
  1  6  1  0  0  0
  2  3  1  0  0  0
  2  9  2  0  0  0
  3  4  2  0  0  0
  3  5  1  0  0  0
  5 11  1  0  0  0
  6  7  2  0  0  0
  6  8  1  0  0  0
  8  9  1  0  0  0
  8 28  1  0  0  0
  9 10  1  0  0  0
 10 11  1  0  0  0
 11 12  2  0  0  0
 28 29  1  0  0  0
 29 30  1  0  0  0
 29 32  1  0  0  0
 32 33  1  0  0  0
 32 35  1  0  0  0
 35 36  1  0  0  0
 35 38  1  0  0  0
 38 39  1  0  0  0
 24 26  1  0  0  0
 25 27  1  0  0  0
  5 13  1  0  0  0
 10 14  1  0  0  0
 30 31  1  0  0  0
 33 34  1  0  0  0
 36 37  1  0  0  0
 39 40  1  0  0  0
M  END
> <minimizedAffinity>
-10.56346

$$$$
2C94_TSF_A_701


 40 41  0  0  0  0  0  0  0  0999 V2000
   42.3232    0.6792    6.3828 N   0  0  0  0  0  0  0  0  0  0  0  0
   42.5911   -0.4006    5.6403 C   0  0  0  0  0  0  0  0  0  0  0  0
   42.2942   -1.8356    5.8489 C   0  0  0  0  0  0  0  0  0  0  0  0
   41.6893   -2.2516    6.8641 O   0  0  0  0  0  0  0  0  0  0  0  0
   42.7237   -2.6686    4.8864 N   0  0  0  0  0  0  0  0  0  0  0  0
   42.8406    1.6766    5.6599 C   0  0  0  0  0  0  0  0  0  0  0  0
   42.8028    2.9073    6.0376 O   0  0  0  0  0  0  0  0  0  0  0  0
   43.4306    1.3445    4.5110 N   0  0  0  0  0  0  0  0  0  0  0  0
   43.3140    0.0100    4.4232 C   0  0  0  0  0  0  0  0  0  0  0  0
   43.6650   -0.9396    3.5544 N   0  0  0  0  0  0  0  0  0  0  0  0
   43.3774   -2.2313    3.7783 C   0  0  0  0  0  0  0  0  0  0  0  0
   43.7457   -3.0536    2.9188 O   0  0  0  0  0  0  0  0  0  0  0  0
   42.5583   -3.6338    4.9879 H   0  0  0  0  0  0  0  0  0  0  0  0
   44.1447   -0.6878    2.7324 H   0  0  0  0  0  0  0  0  0  0  0  0
   41.6432    0.7764    7.6708 C   0  0  0  0  0  0  0  0  0  0  0  0
   40.1539    0.9806    7.4407 C   0  0  0  0  0  0  0  0  0  0  0  0
   39.5459    1.5999    8.6942 C   0  0  0  0  0  0  0  0  0  0  0  0
   40.0488    3.0295    8.8954 C   0  0  0  0  0  0  0  0  0  0  0  0
   39.0930    4.0657    8.3119 C   0  0  0  0  0  0  0  0  0  0  0  0
   38.8131    4.9618    9.2392 F   0  0  0  0  0  0  0  0  0  0  0  0
   37.9812    3.4803    7.9057 F   0  0  0  0  0  0  0  0  0  0  0  0
   39.6733    3.9134    5.7538 O   0  0  0  0  0  0  0  0  0  0  0  0
   39.8396    4.8935    6.8819 P   0  0  0  0  0  0  0  0  0  0  0  0
   41.2839    5.0952    7.2865 O   0  0  0  0  0  0  0  0  0  0  0  0
   39.0526    6.1758    6.7155 O   0  0  0  0  0  0  0  0  0  0  0  0
   41.7621    5.5381    6.5682 H   0  0  0  0  0  0  0  0  0  0  0  0
   39.4021    6.6740    5.9601 H   0  0  0  0  0  0  0  0  0  0  0  0
   44.0414    2.3267    3.6250 C   0  0  0  0  0  0  0  0  0  0  0  0
   45.4945    2.0897    3.2552 C   0  0  0  0  0  0  0  0  0  0  0  0
   46.1334    1.0462    4.0086 O   0  0  0  0  0  0  0  0  0  0  0  0
   45.7236    0.1940    3.7924 H   0  0  0  0  0  0  0  0  0  0  0  0
   45.7017    1.9163    1.7541 C   0  0  0  0  0  0  0  0  0  0  0  0
   44.8691    0.7856    1.4761 O   0  0  0  0  0  0  0  0  0  0  0  0
   45.1818    0.0210    1.9846 H   0  0  0  0  0  0  0  0  0  0  0  0
   47.1258    1.6181    1.2448 C   0  0  0  0  0  0  0  0  0  0  0  0
   47.6344    0.3799    1.7638 O   0  0  0  0  0  0  0  0  0  0  0  0
   47.7049    0.4388    2.7294 H   0  0  0  0  0  0  0  0  0  0  0  0
   48.1046    2.7243    1.6397 C   0  0  0  0  0  0  0  0  0  0  0  0
   48.5527    3.3870    0.4443 O   0  0  0  0  0  0  0  0  0  0  0  0
   48.9883    2.7447   -0.1376 H   0  0  0  0  0  0  0  0  0  0  0  0
 22 23  2  0  0  0
 23 24  1  0  0  0
 23 25  1  0  0  0
 23 19  1  0  0  0
 19 20  1  0  0  0
 19 21  1  0  0  0
 19 18  1  0  0  0
 18 17  1  0  0  0
 17 16  1  0  0  0
 16 15  1  0  0  0
 15  1  1  0  0  0
  1  2  1  0  0  0
  1  6  1  0  0  0
  2  3  1  0  0  0
  2  9  2  0  0  0
  3  4  2  0  0  0
  3  5  1  0  0  0
  5 11  1  0  0  0
  6  7  2  0  0  0
  6  8  1  0  0  0
  8  9  1  0  0  0
  8 28  1  0  0  0
  9 10  1  0  0  0
 10 11  1  0  0  0
 11 12  2  0  0  0
 28 29  1  0  0  0
 29 30  1  0  0  0
 29 32  1  0  0  0
 32 33  1  0  0  0
 32 35  1  0  0  0
 35 36  1  0  0  0
 35 38  1  0  0  0
 38 39  1  0  0  0
 24 26  1  0  0  0
 25 27  1  0  0  0
  5 13  1  0  0  0
 10 14  1  0  0  0
 30 31  1  0  0  0
 33 34  1  0  0  0
 36 37  1  0  0  0
 39 40  1  0  0  0
M  END
> <minimizedAffinity>
-10.29455

$$$$
2C94_TSF_A_701


 40 41  0  0  0  0  0  0  0  0999 V2000
   42.2446    1.4026    5.9128 N   0  0  0  0  0  0  0  0  0  0  0  0
   42.7903    2.5403    6.3564 C   0  0  0  0  0  0  0  0  0  0  0  0
   43.8908    3.3755    5.8250 C   0  0  0  0  0  0  0  0  0  0  0  0
   44.5106    3.0762    4.7781 O   0  0  0  0  0  0  0  0  0  0  0  0
   44.1932    4.4710    6.5414 N   0  0  0  0  0  0  0  0  0  0  0  0
   41.2965    1.1507    6.8199 C   0  0  0  0  0  0  0  0  0  0  0  0
   40.5318    0.1159    6.7640 O   0  0  0  0  0  0  0  0  0  0  0  0
   41.1772    2.0205    7.8237 N   0  0  0  0  0  0  0  0  0  0  0  0
   42.1143    2.9551    7.5987 C   0  0  0  0  0  0  0  0  0  0  0  0
   42.5255    4.0785    8.1890 N   0  0  0  0  0  0  0  0  0  0  0  0
   43.5272    4.8100    7.6762 C   0  0  0  0  0  0  0  0  0  0  0  0
   43.8519    5.8419    8.2930 O   0  0  0  0  0  0  0  0  0  0  0  0
   44.9261    5.0510    6.2319 H   0  0  0  0  0  0  0  0  0  0  0  0
   42.0854    4.3771    9.0174 H   0  0  0  0  0  0  0  0  0  0  0  0
   42.5830    0.6055    4.7376 C   0  0  0  0  0  0  0  0  0  0  0  0
   43.4796   -0.5504    5.1533 C   0  0  0  0  0  0  0  0  0  0  0  0
   44.2190   -1.0627    3.9223 C   0  0  0  0  0  0  0  0  0  0  0  0
   44.7699    0.0983    3.0943 C   0  0  0  0  0  0  0  0  0  0  0  0
   46.2523    0.3442    3.3585 C   0  0  0  0  0  0  0  0  0  0  0  0
   46.8682   -0.8182    3.4638 F   0  0  0  0  0  0  0  0  0  0  0  0
   46.4066    1.0346    4.4736 F   0  0  0  0  0  0  0  0  0  0  0  0
   48.4427    1.4274    2.3928 O   0  0  0  0  0  0  0  0  0  0  0  0
   46.9951    1.2979    2.0071 P   0  0  0  0  0  0  0  0  0  0  0  0
   46.2518    2.6158    2.0353 O   0  0  0  0  0  0  0  0  0  0  0  0
   46.7525    0.4703    0.7630 O   0  0  0  0  0  0  0  0  0  0  0  0
   46.5917    3.1938    1.3344 H   0  0  0  0  0  0  0  0  0  0  0  0
   47.1280    0.9258   -0.0066 H   0  0  0  0  0  0  0  0  0  0  0  0
   40.1913    1.8692    8.8857 C   0  0  0  0  0  0  0  0  0  0  0  0
   39.1250    2.9461    8.9743 C   0  0  0  0  0  0  0  0  0  0  0  0
   39.5793    4.1817    9.5500 O   0  0  0  0  0  0  0  0  0  0  0  0
   40.2362    4.5892    8.9640 H   0  0  0  0  0  0  0  0  0  0  0  0
   38.3979    3.1679    7.6520 C   0  0  0  0  0  0  0  0  0  0  0  0
   38.2892    4.5947    7.6177 O   0  0  0  0  0  0  0  0  0  0  0  0
   37.7726    4.8981    8.3806 H   0  0  0  0  0  0  0  0  0  0  0  0
   36.9908    2.5611    7.4835 C   0  0  0  0  0  0  0  0  0  0  0  0
   36.9462    1.1851    7.8904 O   0  0  0  0  0  0  0  0  0  0  0  0
   37.5311    0.6605    7.3215 H   0  0  0  0  0  0  0  0  0  0  0  0
   36.5213    2.6312    6.0301 C   0  0  0  0  0  0  0  0  0  0  0  0
   37.6330    3.0295    5.2088 O   0  0  0  0  0  0  0  0  0  0  0  0
   37.9557    3.8967    5.4999 H   0  0  0  0  0  0  0  0  0  0  0  0
 22 23  2  0  0  0
 23 24  1  0  0  0
 23 25  1  0  0  0
 23 19  1  0  0  0
 19 20  1  0  0  0
 19 21  1  0  0  0
 19 18  1  0  0  0
 18 17  1  0  0  0
 17 16  1  0  0  0
 16 15  1  0  0  0
 15  1  1  0  0  0
  1  2  1  0  0  0
  1  6  1  0  0  0
  2  3  1  0  0  0
  2  9  2  0  0  0
  3  4  2  0  0  0
  3  5  1  0  0  0
  5 11  1  0  0  0
  6  7  2  0  0  0
  6  8  1  0  0  0
  8  9  1  0  0  0
  8 28  1  0  0  0
  9 10  1  0  0  0
 10 11  1  0  0  0
 11 12  2  0  0  0
 28 29  1  0  0  0
 29 30  1  0  0  0
 29 32  1  0  0  0
 32 33  1  0  0  0
 32 35  1  0  0  0
 35 36  1  0  0  0
 35 38  1  0  0  0
 38 39  1  0  0  0
 24 26  1  0  0  0
 25 27  1  0  0  0
  5 13  1  0  0  0
 10 14  1  0  0  0
 30 31  1  0  0  0
 33 34  1  0  0  0
 36 37  1  0  0  0
 39 40  1  0  0  0
M  END
> <minimizedAffinity>
-9.82830

$$$$
2C94_TSF_A_701


 40 41  0  0  0  0  0  0  0  0999 V2000
   43.9787    0.4062    3.4957 N   0  0  0  0  0  0  0  0  0  0  0  0
   44.1734   -0.2175    2.3286 C   0  0  0  0  0  0  0  0  0  0  0  0
   44.3132   -1.6521    1.9917 C   0  0  0  0  0  0  0  0  0  0  0  0
   44.2613   -2.5508    2.8631 O   0  0  0  0  0  0  0  0  0  0  0  0
   44.5110   -1.9322    0.6928 N   0  0  0  0  0  0  0  0  0  0  0  0
   43.9347    1.6944    3.1440 C   0  0  0  0  0  0  0  0  0  0  0  0
   43.7698    2.6468    3.9951 O   0  0  0  0  0  0  0  0  0  0  0  0
   44.0903    1.9707    1.8487 N   0  0  0  0  0  0  0  0  0  0  0  0
   44.2535    0.7814    1.2477 C   0  0  0  0  0  0  0  0  0  0  0  0
   44.4439    0.3414    0.0028 N   0  0  0  0  0  0  0  0  0  0  0  0
   44.5657   -0.9684   -0.2635 C   0  0  0  0  0  0  0  0  0  0  0  0
   44.7464   -1.2931   -1.4520 O   0  0  0  0  0  0  0  0  0  0  0  0
   44.6207   -2.8727    0.4232 H   0  0  0  0  0  0  0  0  0  0  0  0
   44.4962    0.9905   -0.7355 H   0  0  0  0  0  0  0  0  0  0  0  0
   43.8497   -0.1525    4.8381 C   0  0  0  0  0  0  0  0  0  0  0  0
   42.4549   -0.7333    5.0108 C   0  0  0  0  0  0  0  0  0  0  0  0
   41.9177   -0.3176    6.3758 C   0  0  0  0  0  0  0  0  0  0  0  0
   41.2645    1.0630    6.3076 C   0  0  0  0  0  0  0  0  0  0  0  0
   41.3244    1.7971    7.6437 C   0  0  0  0  0  0  0  0  0  0  0  0
   41.6976    3.0449    7.4317 F   0  0  0  0  0  0  0  0  0  0  0  0
   42.1856    1.2036    8.4500 F   0  0  0  0  0  0  0  0  0  0  0  0
   39.5923    3.1429    9.0902 O   0  0  0  0  0  0  0  0  0  0  0  0
   39.7032    1.7842    8.4558 P   0  0  0  0  0  0  0  0  0  0  0  0
   39.8071    0.6625    9.4664 O   0  0  0  0  0  0  0  0  0  0  0  0
   38.7087    1.5322    7.3428 O   0  0  0  0  0  0  0  0  0  0  0  0
   38.9707    0.5860    9.9516 H   0  0  0  0  0  0  0  0  0  0  0  0
   37.8109    1.5125    7.7097 H   0  0  0  0  0  0  0  0  0  0  0  0
   44.0700    3.3297    1.3239 C   0  0  0  0  0  0  0  0  0  0  0  0
   45.1895    3.7002    0.3680 C   0  0  0  0  0  0  0  0  0  0  0  0
   44.9204    4.8605   -0.4358 O   0  0  0  0  0  0  0  0  0  0  0  0
   44.8678    5.6436    0.1342 H   0  0  0  0  0  0  0  0  0  0  0  0
   46.5486    3.7865    1.0547 C   0  0  0  0  0  0  0  0  0  0  0  0
   47.0361    5.0436    0.5740 O   0  0  0  0  0  0  0  0  0  0  0  0
   47.1101    5.0134   -0.3927 H   0  0  0  0  0  0  0  0  0  0  0  0
   47.5943    2.6984    0.7402 C   0  0  0  0  0  0  0  0  0  0  0  0
   47.1319    1.7821   -0.2636 O   0  0  0  0  0  0  0  0  0  0  0  0
   46.3495    1.3115    0.0639 H   0  0  0  0  0  0  0  0  0  0  0  0
   47.9466    1.8840    1.9854 C   0  0  0  0  0  0  0  0  0  0  0  0
   49.3783    1.8518    2.1211 O   0  0  0  0  0  0  0  0  0  0  0  0
   49.7688    1.4450    1.3318 H   0  0  0  0  0  0  0  0  0  0  0  0
 22 23  2  0  0  0
 23 24  1  0  0  0
 23 25  1  0  0  0
 23 19  1  0  0  0
 19 20  1  0  0  0
 19 21  1  0  0  0
 19 18  1  0  0  0
 18 17  1  0  0  0
 17 16  1  0  0  0
 16 15  1  0  0  0
 15  1  1  0  0  0
  1  2  1  0  0  0
  1  6  1  0  0  0
  2  3  1  0  0  0
  2  9  2  0  0  0
  3  4  2  0  0  0
  3  5  1  0  0  0
  5 11  1  0  0  0
  6  7  2  0  0  0
  6  8  1  0  0  0
  8  9  1  0  0  0
  8 28  1  0  0  0
  9 10  1  0  0  0
 10 11  1  0  0  0
 11 12  2  0  0  0
 28 29  1  0  0  0
 29 30  1  0  0  0
 29 32  1  0  0  0
 32 33  1  0  0  0
 32 35  1  0  0  0
 35 36  1  0  0  0
 35 38  1  0  0  0
 38 39  1  0  0  0
 24 26  1  0  0  0
 25 27  1  0  0  0
  5 13  1  0  0  0
 10 14  1  0  0  0
 30 31  1  0  0  0
 33 34  1  0  0  0
 36 37  1  0  0  0
 39 40  1  0  0  0
M  END
> <minimizedAffinity>
-9.50947

$$$$
2C94_TSF_A_701


 40 41  0  0  0  0  0  0  0  0999 V2000
   43.3361    0.4501    4.1805 N   0  0  0  0  0  0  0  0  0  0  0  0
   42.8225   -0.6580    4.7258 C   0  0  0  0  0  0  0  0  0  0  0  0
   43.1166   -2.0912    4.5020 C   0  0  0  0  0  0  0  0  0  0  0  0
   43.9793   -2.4753    3.6786 O   0  0  0  0  0  0  0  0  0  0  0  0
   42.3926   -2.9584    5.2291 N   0  0  0  0  0  0  0  0  0  0  0  0
   42.6640    1.4270    4.7961 C   0  0  0  0  0  0  0  0  0  0  0  0
   42.8554    2.6752    4.5429 O   0  0  0  0  0  0  0  0  0  0  0  0
   41.7495    1.0563    5.6930 N   0  0  0  0  0  0  0  0  0  0  0  0
   41.7874   -0.2856    5.7068 C   0  0  0  0  0  0  0  0  0  0  0  0
   41.1618   -1.2673    6.3584 N   0  0  0  0  0  0  0  0  0  0  0  0
   41.4566   -2.5563    6.1284 C   0  0  0  0  0  0  0  0  0  0  0  0
   40.8218   -3.4096    6.7761 O   0  0  0  0  0  0  0  0  0  0  0  0
   42.5461   -3.9229    5.1055 H   0  0  0  0  0  0  0  0  0  0  0  0
   40.4699   -1.0417    7.0214 H   0  0  0  0  0  0  0  0  0  0  0  0
   44.3693    0.5906    3.1589 C   0  0  0  0  0  0  0  0  0  0  0  0
   45.7382    0.4201    3.7993 C   0  0  0  0  0  0  0  0  0  0  0  0
   46.7660    1.1758    2.9644 C   0  0  0  0  0  0  0  0  0  0  0  0
   46.1082    2.3219    2.1957 C   0  0  0  0  0  0  0  0  0  0  0  0
   46.4002    2.2568    0.6996 C   0  0  0  0  0  0  0  0  0  0  0  0
   45.2644    2.3590    0.0356 F   0  0  0  0  0  0  0  0  0  0  0  0
   46.9913    1.1142    0.4014 F   0  0  0  0  0  0  0  0  0  0  0  0
   47.4145    3.6313   -1.2968 O   0  0  0  0  0  0  0  0  0  0  0  0
   47.5097    3.6024    0.2036 P   0  0  0  0  0  0  0  0  0  0  0  0
   48.8682    3.1626    0.7050 O   0  0  0  0  0  0  0  0  0  0  0  0
   46.9607    4.8362    0.8875 O   0  0  0  0  0  0  0  0  0  0  0  0
   49.5297    3.8348    0.4784 H   0  0  0  0  0  0  0  0  0  0  0  0
   47.5119    5.6023    0.6636 H   0  0  0  0  0  0  0  0  0  0  0  0
   40.9394    2.0129    6.4356 C   0  0  0  0  0  0  0  0  0  0  0  0
   41.4417    2.3930    7.8168 C   0  0  0  0  0  0  0  0  0  0  0  0
   42.5373    1.5918    8.2884 O   0  0  0  0  0  0  0  0  0  0  0  0
   43.3169    1.7516    7.7339 H   0  0  0  0  0  0  0  0  0  0  0  0
   41.7287    3.8849    7.9514 C   0  0  0  0  0  0  0  0  0  0  0  0
   40.8835    4.4347    6.9353 O   0  0  0  0  0  0  0  0  0  0  0  0
   41.1467    4.0828    6.0705 H   0  0  0  0  0  0  0  0  0  0  0  0
   43.1709    4.3740    7.7122 C   0  0  0  0  0  0  0  0  0  0  0  0
   44.0006    4.1883    8.8689 O   0  0  0  0  0  0  0  0  0  0  0  0
   43.6575    4.7226    9.6022 H   0  0  0  0  0  0  0  0  0  0  0  0
   43.2055    5.8589    7.3493 C   0  0  0  0  0  0  0  0  0  0  0  0
   43.7018    6.5950    8.4810 O   0  0  0  0  0  0  0  0  0  0  0  0
   43.1193    6.4487    9.2426 H   0  0  0  0  0  0  0  0  0  0  0  0
 22 23  2  0  0  0
 23 24  1  0  0  0
 23 25  1  0  0  0
 23 19  1  0  0  0
 19 20  1  0  0  0
 19 21  1  0  0  0
 19 18  1  0  0  0
 18 17  1  0  0  0
 17 16  1  0  0  0
 16 15  1  0  0  0
 15  1  1  0  0  0
  1  2  1  0  0  0
  1  6  1  0  0  0
  2  3  1  0  0  0
  2  9  2  0  0  0
  3  4  2  0  0  0
  3  5  1  0  0  0
  5 11  1  0  0  0
  6  7  2  0  0  0
  6  8  1  0  0  0
  8  9  1  0  0  0
  8 28  1  0  0  0
  9 10  1  0  0  0
 10 11  1  0  0  0
 11 12  2  0  0  0
 28 29  1  0  0  0
 29 30  1  0  0  0
 29 32  1  0  0  0
 32 33  1  0  0  0
 32 35  1  0  0  0
 35 36  1  0  0  0
 35 38  1  0  0  0
 38 39  1  0  0  0
 24 26  1  0  0  0
 25 27  1  0  0  0
  5 13  1  0  0  0
 10 14  1  0  0  0
 30 31  1  0  0  0
 33 34  1  0  0  0
 36 37  1  0  0  0
 39 40  1  0  0  0
M  END
> <minimizedAffinity>
-9.32477

$$$$
2C94_TSF_A_701


 40 41  0  0  0  0  0  0  0  0999 V2000
   43.9292    0.0960    4.2859 N   0  0  0  0  0  0  0  0  0  0  0  0
   44.1603   -0.2805    3.0235 C   0  0  0  0  0  0  0  0  0  0  0  0
   44.1073   -1.6064    2.3675 C   0  0  0  0  0  0  0  0  0  0  0  0
   43.8071   -2.6495    2.9933 O   0  0  0  0  0  0  0  0  0  0  0  0
   44.4126   -1.6255    1.0594 N   0  0  0  0  0  0  0  0  0  0  0  0
   44.1354    1.4155    4.2482 C   0  0  0  0  0  0  0  0  0  0  0  0
   44.0244    2.1710    5.2852 O   0  0  0  0  0  0  0  0  0  0  0  0
   44.4884    1.9366    3.0724 N   0  0  0  0  0  0  0  0  0  0  0  0
   44.5295    0.8994    2.2210 C   0  0  0  0  0  0  0  0  0  0  0  0
   44.7953    0.7167    0.9265 N   0  0  0  0  0  0  0  0  0  0  0  0
   44.7362   -0.5019    0.3671 C   0  0  0  0  0  0  0  0  0  0  0  0
   45.0043   -0.5847   -0.8461 O   0  0  0  0  0  0  0  0  0  0  0  0
   44.4014   -2.4873    0.5836 H   0  0  0  0  0  0  0  0  0  0  0  0
   45.0398    1.4914    0.3703 H   0  0  0  0  0  0  0  0  0  0  0  0
   43.5513   -0.7107    5.4423 C   0  0  0  0  0  0  0  0  0  0  0  0
   42.0420   -0.8961    5.4564 C   0  0  0  0  0  0  0  0  0  0  0  0
   41.5232   -0.5762    6.8539 C   0  0  0  0  0  0  0  0  0  0  0  0
   40.7924    0.7666    6.8704 C   0  0  0  0  0  0  0  0  0  0  0  0
   41.0530    1.5505    8.1530 C   0  0  0  0  0  0  0  0  0  0  0  0
   42.2788    2.0378    8.1168 F   0  0  0  0  0  0  0  0  0  0  0  0
   40.9162    0.7618    9.2033 F   0  0  0  0  0  0  0  0  0  0  0  0
   39.2402    2.6954    9.6718 O   0  0  0  0  0  0  0  0  0  0  0  0
   39.8691    2.9133    8.3235 P   0  0  0  0  0  0  0  0  0  0  0  0
   38.9037    2.7073    7.1765 O   0  0  0  0  0  0  0  0  0  0  0  0
   40.7027    4.1726    8.2201 O   0  0  0  0  0  0  0  0  0  0  0  0
   38.2280    3.4030    7.1936 H   0  0  0  0  0  0  0  0  0  0  0  0
   40.1272    4.9490    8.3038 H   0  0  0  0  0  0  0  0  0  0  0  0
   44.7500    3.3576    2.8858 C   0  0  0  0  0  0  0  0  0  0  0  0
   45.0475    3.8078    1.4669 C   0  0  0  0  0  0  0  0  0  0  0  0
   44.3426    4.9930    1.0629 O   0  0  0  0  0  0  0  0  0  0  0  0
   44.6514    5.7477    1.5882 H   0  0  0  0  0  0  0  0  0  0  0  0
   46.5421    3.9092    1.1802 C   0  0  0  0  0  0  0  0  0  0  0  0
   46.7352    5.3272    1.1503 O   0  0  0  0  0  0  0  0  0  0  0  0
   46.1947    5.7123    0.4429 H   0  0  0  0  0  0  0  0  0  0  0  0
   47.0735    3.3105   -0.1372 C   0  0  0  0  0  0  0  0  0  0  0  0
   48.1837    4.0571   -0.6580 O   0  0  0  0  0  0  0  0  0  0  0  0
   47.8951    4.9578   -0.8734 H   0  0  0  0  0  0  0  0  0  0  0  0
   45.9894    3.2778   -1.2148 C   0  0  0  0  0  0  0  0  0  0  0  0
   45.9267    1.9484   -1.7606 O   0  0  0  0  0  0  0  0  0  0  0  0
   46.7872    1.7147   -2.1424 H   0  0  0  0  0  0  0  0  0  0  0  0
 22 23  2  0  0  0
 23 24  1  0  0  0
 23 25  1  0  0  0
 23 19  1  0  0  0
 19 20  1  0  0  0
 19 21  1  0  0  0
 19 18  1  0  0  0
 18 17  1  0  0  0
 17 16  1  0  0  0
 16 15  1  0  0  0
 15  1  1  0  0  0
  1  2  1  0  0  0
  1  6  1  0  0  0
  2  3  1  0  0  0
  2  9  2  0  0  0
  3  4  2  0  0  0
  3  5  1  0  0  0
  5 11  1  0  0  0
  6  7  2  0  0  0
  6  8  1  0  0  0
  8  9  1  0  0  0
  8 28  1  0  0  0
  9 10  1  0  0  0
 10 11  1  0  0  0
 11 12  2  0  0  0
 28 29  1  0  0  0
 29 30  1  0  0  0
 29 32  1  0  0  0
 32 33  1  0  0  0
 32 35  1  0  0  0
 35 36  1  0  0  0
 35 38  1  0  0  0
 38 39  1  0  0  0
 24 26  1  0  0  0
 25 27  1  0  0  0
  5 13  1  0  0  0
 10 14  1  0  0  0
 30 31  1  0  0  0
 33 34  1  0  0  0
 36 37  1  0  0  0
 39 40  1  0  0  0
M  END
> <minimizedAffinity>
-9.16798

$$$$
2C94_TSF_A_701


 40 41  0  0  0  0  0  0  0  0999 V2000
   43.4805    0.3200    4.0056 N   0  0  0  0  0  0  0  0  0  0  0  0
   42.9529   -0.7808    4.5521 C   0  0  0  0  0  0  0  0  0  0  0  0
   43.0373   -2.2073    4.1665 C   0  0  0  0  0  0  0  0  0  0  0  0
   43.6865   -2.5914    3.1662 O   0  0  0  0  0  0  0  0  0  0  0  0
   42.3643   -3.0668    4.9497 N   0  0  0  0  0  0  0  0  0  0  0  0
   43.0466    1.2931    4.8118 C   0  0  0  0  0  0  0  0  0  0  0  0
   43.3286    2.5355    4.6236 O   0  0  0  0  0  0  0  0  0  0  0  0
   42.2747    0.9273    5.8358 N   0  0  0  0  0  0  0  0  0  0  0  0
   42.1624   -0.4069    5.7387 C   0  0  0  0  0  0  0  0  0  0  0  0
   41.5590   -1.3821    6.4204 N   0  0  0  0  0  0  0  0  0  0  0  0
   41.6593   -2.6651    6.0397 C   0  0  0  0  0  0  0  0  0  0  0  0
   41.0607   -3.5118    6.7291 O   0  0  0  0  0  0  0  0  0  0  0  0
   42.3827   -4.0251    4.7251 H   0  0  0  0  0  0  0  0  0  0  0  0
   41.0294   -1.1559    7.2189 H   0  0  0  0  0  0  0  0  0  0  0  0
   44.3197    0.4583    2.8192 C   0  0  0  0  0  0  0  0  0  0  0  0
   45.7553    0.1021    3.1726 C   0  0  0  0  0  0  0  0  0  0  0  0
   46.5863    1.3802    3.1887 C   0  0  0  0  0  0  0  0  0  0  0  0
   47.5250    1.4360    1.9833 C   0  0  0  0  0  0  0  0  0  0  0  0
   47.0992    2.4921    0.9679 C   0  0  0  0  0  0  0  0  0  0  0  0
   48.1738    3.1081    0.5129 F   0  0  0  0  0  0  0  0  0  0  0  0
   46.2887    3.3669    1.5350 F   0  0  0  0  0  0  0  0  0  0  0  0
   44.7693    2.0754   -0.1730 O   0  0  0  0  0  0  0  0  0  0  0  0
   46.2120    1.7292   -0.4172 P   0  0  0  0  0  0  0  0  0  0  0  0
   46.5021    0.2512   -0.2703 O   0  0  0  0  0  0  0  0  0  0  0  0
   46.8039    2.3616   -1.6586 O   0  0  0  0  0  0  0  0  0  0  0  0
   46.0589   -0.2376   -0.9813 H   0  0  0  0  0  0  0  0  0  0  0  0
   46.3709    1.9957   -2.4458 H   0  0  0  0  0  0  0  0  0  0  0  0
   41.7269    1.8813    6.7911 C   0  0  0  0  0  0  0  0  0  0  0  0
   40.4672    1.4549    7.5230 C   0  0  0  0  0  0  0  0  0  0  0  0
   40.7077    0.7292    8.7397 O   0  0  0  0  0  0  0  0  0  0  0  0
   41.1342    1.3136    9.3858 H   0  0  0  0  0  0  0  0  0  0  0  0
   39.4864    2.6044    7.7306 C   0  0  0  0  0  0  0  0  0  0  0  0
   38.5779    2.0410    8.6824 O   0  0  0  0  0  0  0  0  0  0  0  0
   38.1545    1.2565    8.3001 H   0  0  0  0  0  0  0  0  0  0  0  0
   38.6811    3.1035    6.5146 C   0  0  0  0  0  0  0  0  0  0  0  0
   39.0105    4.4579    6.1705 O   0  0  0  0  0  0  0  0  0  0  0  0
   38.7730    5.0450    6.9051 H   0  0  0  0  0  0  0  0  0  0  0  0
   37.1760    3.0441    6.7772 C   0  0  0  0  0  0  0  0  0  0  0  0
   36.5385    2.4230    5.6472 O   0  0  0  0  0  0  0  0  0  0  0  0
   36.7200    2.9419    4.8481 H   0  0  0  0  0  0  0  0  0  0  0  0
 22 23  2  0  0  0
 23 24  1  0  0  0
 23 25  1  0  0  0
 23 19  1  0  0  0
 19 20  1  0  0  0
 19 21  1  0  0  0
 19 18  1  0  0  0
 18 17  1  0  0  0
 17 16  1  0  0  0
 16 15  1  0  0  0
 15  1  1  0  0  0
  1  2  1  0  0  0
  1  6  1  0  0  0
  2  3  1  0  0  0
  2  9  2  0  0  0
  3  4  2  0  0  0
  3  5  1  0  0  0
  5 11  1  0  0  0
  6  7  2  0  0  0
  6  8  1  0  0  0
  8  9  1  0  0  0
  8 28  1  0  0  0
  9 10  1  0  0  0
 10 11  1  0  0  0
 11 12  2  0  0  0
 28 29  1  0  0  0
 29 30  1  0  0  0
 29 32  1  0  0  0
 32 33  1  0  0  0
 32 35  1  0  0  0
 35 36  1  0  0  0
 35 38  1  0  0  0
 38 39  1  0  0  0
 24 26  1  0  0  0
 25 27  1  0  0  0
  5 13  1  0  0  0
 10 14  1  0  0  0
 30 31  1  0  0  0
 33 34  1  0  0  0
 36 37  1  0  0  0
 39 40  1  0  0  0
M  END
> <minimizedAffinity>
-8.95762

$$$$
2C94_TSF_A_701


 40 41  0  0  0  0  0  0  0  0999 V2000
   43.8457    0.6522    3.6839 N   0  0  0  0  0  0  0  0  0  0  0  0
   44.0409   -0.1483    2.6304 C   0  0  0  0  0  0  0  0  0  0  0  0
   44.1380   -1.6211    2.5191 C   0  0  0  0  0  0  0  0  0  0  0  0
   44.0392   -2.3740    3.5157 O   0  0  0  0  0  0  0  0  0  0  0  0
   44.3504   -2.1025    1.2830 N   0  0  0  0  0  0  0  0  0  0  0  0
   43.8523    1.8722    3.1394 C   0  0  0  0  0  0  0  0  0  0  0  0
   43.7041    2.9482    3.8315 O   0  0  0  0  0  0  0  0  0  0  0  0
   44.0415    1.9424    1.8212 N   0  0  0  0  0  0  0  0  0  0  0  0
   44.1752    0.6707    1.4123 C   0  0  0  0  0  0  0  0  0  0  0  0
   44.3738    0.0398    0.2537 N   0  0  0  0  0  0  0  0  0  0  0  0
   44.4557   -1.2984    0.1927 C   0  0  0  0  0  0  0  0  0  0  0  0
   44.6475   -1.8064   -0.9278 O   0  0  0  0  0  0  0  0  0  0  0  0
   44.4330   -3.0761    1.1624 H   0  0  0  0  0  0  0  0  0  0  0  0
   44.4620    0.5666   -0.5734 H   0  0  0  0  0  0  0  0  0  0  0  0
   43.6727    0.3096    5.0923 C   0  0  0  0  0  0  0  0  0  0  0  0
   42.2090   -0.0058    5.3585 C   0  0  0  0  0  0  0  0  0  0  0  0
   41.5471    1.2244    5.9693 C   0  0  0  0  0  0  0  0  0  0  0  0
   42.4901    1.9207    6.9508 C   0  0  0  0  0  0  0  0  0  0  0  0
   41.9862    3.3030    7.3543 C   0  0  0  0  0  0  0  0  0  0  0  0
   41.3928    3.2173    8.5299 F   0  0  0  0  0  0  0  0  0  0  0  0
   41.1324    3.7559    6.4544 F   0  0  0  0  0  0  0  0  0  0  0  0
   43.9325    4.2669    8.8329 O   0  0  0  0  0  0  0  0  0  0  0  0
   43.3604    4.4812    7.4590 P   0  0  0  0  0  0  0  0  0  0  0  0
   42.6994    5.8326    7.2941 O   0  0  0  0  0  0  0  0  0  0  0  0
   44.2920    4.0993    6.3287 O   0  0  0  0  0  0  0  0  0  0  0  0
   43.3727    6.5294    7.3382 H   0  0  0  0  0  0  0  0  0  0  0  0
   45.0575    4.6950    6.3253 H   0  0  0  0  0  0  0  0  0  0  0  0
   44.0773    3.2051    1.0953 C   0  0  0  0  0  0  0  0  0  0  0  0
   45.3916    3.5598    0.4238 C   0  0  0  0  0  0  0  0  0  0  0  0
   45.2761    4.5402   -0.6204 O   0  0  0  0  0  0  0  0  0  0  0  0
   45.0036    5.3891   -0.2383 H   0  0  0  0  0  0  0  0  0  0  0  0
   46.4875    3.9185    1.4222 C   0  0  0  0  0  0  0  0  0  0  0  0
   46.8343    5.2437    1.0070 O   0  0  0  0  0  0  0  0  0  0  0  0
   47.1580    5.2219    0.0929 H   0  0  0  0  0  0  0  0  0  0  0  0
   47.7655    3.0568    1.4421 C   0  0  0  0  0  0  0  0  0  0  0  0
   48.2997    2.8563    0.1247 O   0  0  0  0  0  0  0  0  0  0  0  0
   47.6580    2.3667   -0.4133 H   0  0  0  0  0  0  0  0  0  0  0  0
   47.5025    1.6793    2.0513 C   0  0  0  0  0  0  0  0  0  0  0  0
   47.3510    0.7280    0.9831 O   0  0  0  0  0  0  0  0  0  0  0  0
   46.6089    0.9926    0.4173 H   0  0  0  0  0  0  0  0  0  0  0  0
 22 23  2  0  0  0
 23 24  1  0  0  0
 23 25  1  0  0  0
 23 19  1  0  0  0
 19 20  1  0  0  0
 19 21  1  0  0  0
 19 18  1  0  0  0
 18 17  1  0  0  0
 17 16  1  0  0  0
 16 15  1  0  0  0
 15  1  1  0  0  0
  1  2  1  0  0  0
  1  6  1  0  0  0
  2  3  1  0  0  0
  2  9  2  0  0  0
  3  4  2  0  0  0
  3  5  1  0  0  0
  5 11  1  0  0  0
  6  7  2  0  0  0
  6  8  1  0  0  0
  8  9  1  0  0  0
  8 28  1  0  0  0
  9 10  1  0  0  0
 10 11  1  0  0  0
 11 12  2  0  0  0
 28 29  1  0  0  0
 29 30  1  0  0  0
 29 32  1  0  0  0
 32 33  1  0  0  0
 32 35  1  0  0  0
 35 36  1  0  0  0
 35 38  1  0  0  0
 38 39  1  0  0  0
 24 26  1  0  0  0
 25 27  1  0  0  0
  5 13  1  0  0  0
 10 14  1  0  0  0
 30 31  1  0  0  0
 33 34  1  0  0  0
 36 37  1  0  0  0
 39 40  1  0  0  0
M  END
> <minimizedAffinity>
-8.90716

$$$$
2C94_TSF_A_701


 40 41  0  0  0  0  0  0  0  0999 V2000
   43.4790    0.6573    4.5119 N   0  0  0  0  0  0  0  0  0  0  0  0
   42.9758   -0.5202    4.8984 C   0  0  0  0  0  0  0  0  0  0  0  0
   43.1754   -1.8924    4.3805 C   0  0  0  0  0  0  0  0  0  0  0  0
   43.9240   -2.1359    3.4059 O   0  0  0  0  0  0  0  0  0  0  0  0
   42.4945   -2.8622    5.0134 N   0  0  0  0  0  0  0  0  0  0  0  0
   42.9252    1.5172    5.3715 C   0  0  0  0  0  0  0  0  0  0  0  0
   43.1469    2.7852    5.3334 O   0  0  0  0  0  0  0  0  0  0  0  0
   42.0972    1.0073    6.2841 N   0  0  0  0  0  0  0  0  0  0  0  0
   42.0725   -0.3134    6.0447 C   0  0  0  0  0  0  0  0  0  0  0  0
   41.4757   -1.3840    6.5713 N   0  0  0  0  0  0  0  0  0  0  0  0
   41.6822   -2.6134    6.0740 C   0  0  0  0  0  0  0  0  0  0  0  0
   41.0819   -3.5570    6.6215 O   0  0  0  0  0  0  0  0  0  0  0  0
   42.5876   -3.7896    4.6964 H   0  0  0  0  0  0  0  0  0  0  0  0
   40.8717   -1.2700    7.3403 H   0  0  0  0  0  0  0  0  0  0  0  0
   44.4003    0.9616    3.4213 C   0  0  0  0  0  0  0  0  0  0  0  0
   43.7266    1.9098    2.4417 C   0  0  0  0  0  0  0  0  0  0  0  0
   44.7207    2.2631    1.3411 C   0  0  0  0  0  0  0  0  0  0  0  0
   44.4380    1.4591    0.0719 C   0  0  0  0  0  0  0  0  0  0  0  0
   45.2952    0.2001   -0.0174 C   0  0  0  0  0  0  0  0  0  0  0  0
   44.6489   -0.8005    0.5505 F   0  0  0  0  0  0  0  0  0  0  0  0
   46.4493    0.3919    0.5950 F   0  0  0  0  0  0  0  0  0  0  0  0
   46.2324    1.0440   -2.3224 O   0  0  0  0  0  0  0  0  0  0  0  0
   45.6462   -0.2155   -1.7471 P   0  0  0  0  0  0  0  0  0  0  0  0
   44.2903   -0.5586   -2.3252 O   0  0  0  0  0  0  0  0  0  0  0  0
   46.6109   -1.3802   -1.6830 O   0  0  0  0  0  0  0  0  0  0  0  0
   44.3883   -0.7960   -3.2605 H   0  0  0  0  0  0  0  0  0  0  0  0
   46.8438   -1.6571   -2.5830 H   0  0  0  0  0  0  0  0  0  0  0  0
   41.4192    1.8269    7.2798 C   0  0  0  0  0  0  0  0  0  0  0  0
   39.9020    1.7780    7.2737 C   0  0  0  0  0  0  0  0  0  0  0  0
   39.3168    1.4305    8.5392 O   0  0  0  0  0  0  0  0  0  0  0  0
   39.4982    2.1328    9.1831 H   0  0  0  0  0  0  0  0  0  0  0  0
   39.2726    3.0350    6.6819 C   0  0  0  0  0  0  0  0  0  0  0  0
   40.2644    3.4342    5.7301 O   0  0  0  0  0  0  0  0  0  0  0  0
   41.0984    3.6182    6.1901 H   0  0  0  0  0  0  0  0  0  0  0  0
   38.9877    4.2205    7.6250 C   0  0  0  0  0  0  0  0  0  0  0  0
   37.6497    4.1851    8.1444 O   0  0  0  0  0  0  0  0  0  0  0  0
   37.0170    4.2692    7.4140 H   0  0  0  0  0  0  0  0  0  0  0  0
   39.1739    5.5603    6.9123 C   0  0  0  0  0  0  0  0  0  0  0  0
   40.5592    5.9372    7.0010 O   0  0  0  0  0  0  0  0  0  0  0  0
   40.8141    6.0144    7.9337 H   0  0  0  0  0  0  0  0  0  0  0  0
 22 23  2  0  0  0
 23 24  1  0  0  0
 23 25  1  0  0  0
 23 19  1  0  0  0
 19 20  1  0  0  0
 19 21  1  0  0  0
 19 18  1  0  0  0
 18 17  1  0  0  0
 17 16  1  0  0  0
 16 15  1  0  0  0
 15  1  1  0  0  0
  1  2  1  0  0  0
  1  6  1  0  0  0
  2  3  1  0  0  0
  2  9  2  0  0  0
  3  4  2  0  0  0
  3  5  1  0  0  0
  5 11  1  0  0  0
  6  7  2  0  0  0
  6  8  1  0  0  0
  8  9  1  0  0  0
  8 28  1  0  0  0
  9 10  1  0  0  0
 10 11  1  0  0  0
 11 12  2  0  0  0
 28 29  1  0  0  0
 29 30  1  0  0  0
 29 32  1  0  0  0
 32 33  1  0  0  0
 32 35  1  0  0  0
 35 36  1  0  0  0
 35 38  1  0  0  0
 38 39  1  0  0  0
 24 26  1  0  0  0
 25 27  1  0  0  0
  5 13  1  0  0  0
 10 14  1  0  0  0
 30 31  1  0  0  0
 33 34  1  0  0  0
 36 37  1  0  0  0
 39 40  1  0  0  0
M  END
> <minimizedAffinity>
-8.52679

$$$$
2C94_TSF_A_701


 40 41  0  0  0  0  0  0  0  0999 V2000
   43.3152    0.5586    4.6835 N   0  0  0  0  0  0  0  0  0  0  0  0
   42.7981   -0.6159    5.0604 C   0  0  0  0  0  0  0  0  0  0  0  0
   42.9978   -1.9889    4.5449 C   0  0  0  0  0  0  0  0  0  0  0  0
   43.7614   -2.2366    3.5831 O   0  0  0  0  0  0  0  0  0  0  0  0
   42.3000   -2.9549    5.1653 N   0  0  0  0  0  0  0  0  0  0  0  0
   42.7522    1.4214    5.5341 C   0  0  0  0  0  0  0  0  0  0  0  0
   42.9826    2.6881    5.5008 O   0  0  0  0  0  0  0  0  0  0  0  0
   41.9055    0.9163    6.4320 N   0  0  0  0  0  0  0  0  0  0  0  0
   41.8766   -0.4041    6.1911 C   0  0  0  0  0  0  0  0  0  0  0  0
   41.2641   -1.4713    6.7066 N   0  0  0  0  0  0  0  0  0  0  0  0
   41.4713   -2.7016    6.2120 C   0  0  0  0  0  0  0  0  0  0  0  0
   40.8557   -3.6417    6.7484 O   0  0  0  0  0  0  0  0  0  0  0  0
   42.3927   -3.8826    4.8492 H   0  0  0  0  0  0  0  0  0  0  0  0
   40.6477   -1.3539    7.4652 H   0  0  0  0  0  0  0  0  0  0  0  0
   44.2570    0.8578    3.6090 C   0  0  0  0  0  0  0  0  0  0  0  0
   43.6819    1.9532    2.7247 C   0  0  0  0  0  0  0  0  0  0  0  0
   44.7999    2.9228    2.3579 C   0  0  0  0  0  0  0  0  0  0  0  0
   44.4269    3.7438    1.1234 C   0  0  0  0  0  0  0  0  0  0  0  0
   44.9733    3.1328   -0.1635 C   0  0  0  0  0  0  0  0  0  0  0  0
   45.9469    2.2950    0.1386 F   0  0  0  0  0  0  0  0  0  0  0  0
   45.4312    4.0826   -0.9586 F   0  0  0  0  0  0  0  0  0  0  0  0
   43.9258    2.5557   -2.5030 O   0  0  0  0  0  0  0  0  0  0  0  0
   43.6691    2.2427   -1.0549 P   0  0  0  0  0  0  0  0  0  0  0  0
   42.3857    2.8516   -0.5332 O   0  0  0  0  0  0  0  0  0  0  0  0
   43.8650    0.7875   -0.6868 O   0  0  0  0  0  0  0  0  0  0  0  0
   41.6277    2.4268   -0.9642 H   0  0  0  0  0  0  0  0  0  0  0  0
   43.1940    0.2479   -1.1335 H   0  0  0  0  0  0  0  0  0  0  0  0
   41.2158    1.7394    7.4166 C   0  0  0  0  0  0  0  0  0  0  0  0
   39.9264    1.1739    7.9840 C   0  0  0  0  0  0  0  0  0  0  0  0
   40.0942    0.4223    9.1972 O   0  0  0  0  0  0  0  0  0  0  0  0
   40.3897    1.0147    9.9063 H   0  0  0  0  0  0  0  0  0  0  0  0
   38.8268    2.2231    8.1123 C   0  0  0  0  0  0  0  0  0  0  0  0
   38.5369    2.5073    6.7397 O   0  0  0  0  0  0  0  0  0  0  0  0
   39.3323    2.8544    6.3064 H   0  0  0  0  0  0  0  0  0  0  0  0
   39.1617    3.5454    8.8304 C   0  0  0  0  0  0  0  0  0  0  0  0
   38.3418    3.7498    9.9910 O   0  0  0  0  0  0  0  0  0  0  0  0
   37.4127    3.8219    9.7220 H   0  0  0  0  0  0  0  0  0  0  0  0
   38.9677    4.7486    7.9071 C   0  0  0  0  0  0  0  0  0  0  0  0
   40.2425    5.1023    7.3425 O   0  0  0  0  0  0  0  0  0  0  0  0
   40.8621    5.3224    8.0556 H   0  0  0  0  0  0  0  0  0  0  0  0
 22 23  2  0  0  0
 23 24  1  0  0  0
 23 25  1  0  0  0
 23 19  1  0  0  0
 19 20  1  0  0  0
 19 21  1  0  0  0
 19 18  1  0  0  0
 18 17  1  0  0  0
 17 16  1  0  0  0
 16 15  1  0  0  0
 15  1  1  0  0  0
  1  2  1  0  0  0
  1  6  1  0  0  0
  2  3  1  0  0  0
  2  9  2  0  0  0
  3  4  2  0  0  0
  3  5  1  0  0  0
  5 11  1  0  0  0
  6  7  2  0  0  0
  6  8  1  0  0  0
  8  9  1  0  0  0
  8 28  1  0  0  0
  9 10  1  0  0  0
 10 11  1  0  0  0
 11 12  2  0  0  0
 28 29  1  0  0  0
 29 30  1  0  0  0
 29 32  1  0  0  0
 32 33  1  0  0  0
 32 35  1  0  0  0
 35 36  1  0  0  0
 35 38  1  0  0  0
 38 39  1  0  0  0
 24 26  1  0  0  0
 25 27  1  0  0  0
  5 13  1  0  0  0
 10 14  1  0  0  0
 30 31  1  0  0  0
 33 34  1  0  0  0
 36 37  1  0  0  0
 39 40  1  0  0  0
M  END
> <minimizedAffinity>
-8.44344

$$$$
