4JFM_1KZ_A_201


 36 39  0  0  0  0  0  0  0  0999 V2000
    9.9267   13.6977   16.8727 C   0  0  0  0  0  0  0  0  0  0  0  0
   10.0948   14.1248   15.4608 C   0  0  0  0  0  0  0  0  0  0  0  0
    9.7946   15.6296   15.2837 C   0  0  0  0  0  0  0  0  0  0  0  0
    8.4107   16.0239   15.7680 C   0  0  0  0  0  0  0  0  0  0  0  0
    8.2105   15.5434   17.1983 C   0  0  0  0  0  0  0  0  0  0  0  0
    8.5472   14.0981   17.2381 N   0  0  0  0  0  0  0  0  0  0  0  0
    7.5108   13.0769   17.9345 S   0  0  0  0  0  0  0  0  0  0  0  0
    7.9963   11.7801   17.6874 O   0  0  0  0  0  0  0  0  0  0  0  0
    6.1991   13.3820   17.4275 O   0  0  0  0  0  0  0  0  0  0  0  0
    7.4519   13.4127   19.6271 C   0  0  0  0  0  0  0  0  0  0  0  0
    6.4659   14.1971   20.1542 C   0  0  0  0  0  0  0  0  0  0  0  0
    6.4266   14.3980   21.4742 C   0  0  0  0  0  0  0  0  0  0  0  0
    5.3248   15.2728   22.4566 S   0  0  0  0  0  0  0  0  0  0  0  0
    6.1352   14.9486   23.8567 C   0  0  0  0  0  0  0  0  0  0  0  0
    5.8162   15.3092   24.9860 O   0  0  0  0  0  0  0  0  0  0  0  0
    7.2253   14.1879   23.5871 N   0  0  0  0  0  0  0  0  0  0  0  0
    7.4072   13.8734   22.2900 C   0  0  0  0  0  0  0  0  0  0  0  0
    8.4353   13.1476   21.8069 C   0  0  0  0  0  0  0  0  0  0  0  0
    8.4478   12.9069   20.4141 C   0  0  0  0  0  0  0  0  0  0  0  0
    7.8423   13.8858   24.2923 H   0  0  0  0  0  0  0  0  0  0  0  0
   11.0330   14.1803   17.6790 C   0  0  0  0  0  0  0  0  0  0  0  0
   12.1605   13.8458   17.4216 O   0  0  0  0  0  0  0  0  0  0  0  0
   10.6997   14.9951   18.6248 O   0  0  0  0  0  0  0  0  0  0  0  0
   11.4977   16.1457   18.8366 C   0  0  0  0  0  0  0  0  0  0  0  0
   10.6780   17.0950   19.6056 C   0  0  0  0  0  0  0  0  0  0  0  0
    9.7802   16.2508   20.2223 O   0  0  0  0  0  0  0  0  0  0  0  0
    7.0627   18.5424   20.8866 C   0  0  0  0  0  0  0  0  0  0  0  0
    7.9702   17.7135   20.2087 C   0  0  0  0  0  0  0  0  0  0  0  0
    7.0964   18.6556   22.3008 C   0  0  0  0  0  0  0  0  0  0  0  0
    8.0600   17.9444   23.0106 C   0  0  0  0  0  0  0  0  0  0  0  0
    8.9729   17.1273   22.3323 C   0  0  0  0  0  0  0  0  0  0  0  0
    8.9269   17.0214   20.9287 C   0  0  0  0  0  0  0  0  0  0  0  0
    6.5401   20.5420   19.8474 C   0  0  0  0  0  0  0  0  0  0  0  0
    6.0988   19.2335   20.1877 O   0  0  0  0  0  0  0  0  0  0  0  0
    6.1827   19.4440   22.9421 O   0  0  0  0  0  0  0  0  0  0  0  0
    5.6279   18.8465   24.1479 C   0  0  0  0  0  0  0  0  0  0  0  0
  3  2  1  0  0  0
  3  4  1  0  0  0
  2  1  1  0  0  0
  4  5  1  0  0  0
  1  6  1  0  0  0
  1 21  1  0  0  0
 22 21  2  0  0  0
  5  6  1  0  0  0
  6  7  1  0  0  0
 21 23  1  0  0  0
  9  7  2  0  0  0
  8  7  2  0  0  0
 23 24  1  0  0  0
 24 25  1  0  0  0
 10 11  2  0  0  0
 10 19  1  0  0  0
 26 25  1  0  0  0
 26 32  1  0  0  0
 11 12  1  0  0  0
 33 34  1  0  0  0
 19 18  2  0  0  0
 28 32  2  0  0  0
 28 27  1  0  0  0
 32 31  1  0  0  0
 12 13  1  0  0  0
 12 17  2  0  0  0
 34 27  1  0  0  0
 27 29  2  0  0  0
 18 17  1  0  0  0
 13 14  1  0  0  0
 17 16  1  0  0  0
 31 30  2  0  0  0
 29 30  1  0  0  0
 29 35  1  0  0  0
 16 14  1  0  0  0
 14 15  2  0  0  0
 35 36  1  0  0  0
  7 10  1  0  0  0
 16 20  1  0  0  0
M  END
> <minimizedAffinity>
-7.76019

$$$$
4JFM_1KZ_A_201


 36 39  0  0  0  0  0  0  0  0999 V2000
    9.9591   13.6927   16.9692 C   0  0  0  0  0  0  0  0  0  0  0  0
   10.1832   14.0506   15.5460 C   0  0  0  0  0  0  0  0  0  0  0  0
    9.8555   15.5357   15.2760 C   0  0  0  0  0  0  0  0  0  0  0  0
    8.4411   15.9175   15.6748 C   0  0  0  0  0  0  0  0  0  0  0  0
    8.1852   15.5064   17.1178 C   0  0  0  0  0  0  0  0  0  0  0  0
    8.5546   14.0745   17.2493 N   0  0  0  0  0  0  0  0  0  0  0  0
    7.5114   13.0634   17.9505 S   0  0  0  0  0  0  0  0  0  0  0  0
    8.0009   11.7634   17.7296 O   0  0  0  0  0  0  0  0  0  0  0  0
    6.2051   13.3589   17.4241 O   0  0  0  0  0  0  0  0  0  0  0  0
    7.4334   13.4262   19.6366 C   0  0  0  0  0  0  0  0  0  0  0  0
    6.4088   14.1699   20.1490 C   0  0  0  0  0  0  0  0  0  0  0  0
    6.3576   14.3923   21.4652 C   0  0  0  0  0  0  0  0  0  0  0  0
    5.2122   15.2287   22.4310 S   0  0  0  0  0  0  0  0  0  0  0  0
    6.0356   14.9704   23.8372 C   0  0  0  0  0  0  0  0  0  0  0  0
    5.6974   15.3349   24.9596 O   0  0  0  0  0  0  0  0  0  0  0  0
    7.1626   14.2602   23.5819 N   0  0  0  0  0  0  0  0  0  0  0  0
    7.3619   13.9319   22.2908 C   0  0  0  0  0  0  0  0  0  0  0  0
    8.4256   13.2496   21.8215 C   0  0  0  0  0  0  0  0  0  0  0  0
    8.4521   12.9848   20.4332 C   0  0  0  0  0  0  0  0  0  0  0  0
    7.7929   14.0019   24.2928 H   0  0  0  0  0  0  0  0  0  0  0  0
   11.0140   14.2455   17.7988 C   0  0  0  0  0  0  0  0  0  0  0  0
   12.1688   14.0592   17.5135 O   0  0  0  0  0  0  0  0  0  0  0  0
   10.6031   14.9545   18.7978 O   0  0  0  0  0  0  0  0  0  0  0  0
   11.3692   16.0802   19.1869 C   0  0  0  0  0  0  0  0  0  0  0  0
   10.4142   17.1327   19.5670 C   0  0  0  0  0  0  0  0  0  0  0  0
    9.7209   16.5227   20.5898 O   0  0  0  0  0  0  0  0  0  0  0  0
    7.1272   18.3007   22.3755 C   0  0  0  0  0  0  0  0  0  0  0  0
    8.2932   17.5692   22.1005 C   0  0  0  0  0  0  0  0  0  0  0  0
    6.2717   18.7283   21.3272 C   0  0  0  0  0  0  0  0  0  0  0  0
    6.5954   18.3943   20.0151 C   0  0  0  0  0  0  0  0  0  0  0  0
    7.7523   17.6537   19.7427 C   0  0  0  0  0  0  0  0  0  0  0  0
    8.5946   17.2379   20.7920 C   0  0  0  0  0  0  0  0  0  0  0  0
    7.7979   18.1794   24.5862 C   0  0  0  0  0  0  0  0  0  0  0  0
    6.8143   18.6460   23.6710 O   0  0  0  0  0  0  0  0  0  0  0  0
    5.1585   19.4667   21.6160 O   0  0  0  0  0  0  0  0  0  0  0  0
    5.3306   20.8988   21.4199 C   0  0  0  0  0  0  0  0  0  0  0  0
  3  2  1  0  0  0
  3  4  1  0  0  0
  2  1  1  0  0  0
  4  5  1  0  0  0
  1  6  1  0  0  0
  1 21  1  0  0  0
 22 21  2  0  0  0
  5  6  1  0  0  0
  6  7  1  0  0  0
 21 23  1  0  0  0
  9  7  2  0  0  0
  8  7  2  0  0  0
 23 24  1  0  0  0
 24 25  1  0  0  0
 10 11  2  0  0  0
 10 19  1  0  0  0
 26 25  1  0  0  0
 26 32  1  0  0  0
 11 12  1  0  0  0
 33 34  1  0  0  0
 19 18  2  0  0  0
 28 32  2  0  0  0
 28 27  1  0  0  0
 32 31  1  0  0  0
 12 13  1  0  0  0
 12 17  2  0  0  0
 34 27  1  0  0  0
 27 29  2  0  0  0
 18 17  1  0  0  0
 13 14  1  0  0  0
 17 16  1  0  0  0
 31 30  2  0  0  0
 29 30  1  0  0  0
 29 35  1  0  0  0
 16 14  1  0  0  0
 14 15  2  0  0  0
 35 36  1  0  0  0
  7 10  1  0  0  0
 16 20  1  0  0  0
M  END
> <minimizedAffinity>
-7.72266

$$$$
4JFM_1KZ_A_201


 36 39  0  0  0  0  0  0  0  0999 V2000
    9.9503   13.6818   16.9098 C   0  0  0  0  0  0  0  0  0  0  0  0
   10.1387   14.1042   15.4991 C   0  0  0  0  0  0  0  0  0  0  0  0
    9.8285   15.6055   15.3102 C   0  0  0  0  0  0  0  0  0  0  0  0
    8.4331   15.9897   15.7690 C   0  0  0  0  0  0  0  0  0  0  0  0
    8.2127   15.5137   17.1978 C   0  0  0  0  0  0  0  0  0  0  0  0
    8.5613   14.0716   17.2499 N   0  0  0  0  0  0  0  0  0  0  0  0
    7.5221   13.0443   17.9331 S   0  0  0  0  0  0  0  0  0  0  0  0
    8.0109   11.7499   17.6802 O   0  0  0  0  0  0  0  0  0  0  0  0
    6.2130   13.3511   17.4202 O   0  0  0  0  0  0  0  0  0  0  0  0
    7.4525   13.3686   19.6275 C   0  0  0  0  0  0  0  0  0  0  0  0
    6.4937   14.1909   20.1471 C   0  0  0  0  0  0  0  0  0  0  0  0
    6.4434   14.3825   21.4680 C   0  0  0  0  0  0  0  0  0  0  0  0
    5.3660   15.2964   22.4419 S   0  0  0  0  0  0  0  0  0  0  0  0
    6.1405   14.9260   23.8508 C   0  0  0  0  0  0  0  0  0  0  0  0
    5.8206   15.2910   24.9784 O   0  0  0  0  0  0  0  0  0  0  0  0
    7.2005   14.1208   23.5904 N   0  0  0  0  0  0  0  0  0  0  0  0
    7.3880   13.8093   22.2934 C   0  0  0  0  0  0  0  0  0  0  0  0
    8.3908   13.0434   21.8190 C   0  0  0  0  0  0  0  0  0  0  0  0
    8.4137   12.8136   20.4245 C   0  0  0  0  0  0  0  0  0  0  0  0
    7.7933   13.7865   24.3018 H   0  0  0  0  0  0  0  0  0  0  0  0
   11.0384   14.1776   17.7326 C   0  0  0  0  0  0  0  0  0  0  0  0
   12.1788   13.9134   17.4514 O   0  0  0  0  0  0  0  0  0  0  0  0
   10.6735   14.9258   18.7209 O   0  0  0  0  0  0  0  0  0  0  0  0
   11.3132   16.1776   18.8917 C   0  0  0  0  0  0  0  0  0  0  0  0
   11.3227   16.4558   20.3362 C   0  0  0  0  0  0  0  0  0  0  0  0
   11.8964   15.3072   20.8367 O   0  0  0  0  0  0  0  0  0  0  0  0
   10.0774   15.9572   23.8938 C   0  0  0  0  0  0  0  0  0  0  0  0
   10.4793   15.9955   22.5495 C   0  0  0  0  0  0  0  0  0  0  0  0
   10.7331   15.1118   24.8260 C   0  0  0  0  0  0  0  0  0  0  0  0
   11.7999   14.3299   24.3917 C   0  0  0  0  0  0  0  0  0  0  0  0
   12.2082   14.3781   23.0530 C   0  0  0  0  0  0  0  0  0  0  0  0
   11.5469   15.2192   22.1371 C   0  0  0  0  0  0  0  0  0  0  0  0
    9.3682   18.0885   24.4472 C   0  0  0  0  0  0  0  0  0  0  0  0
    9.0121   16.7174   24.3213 O   0  0  0  0  0  0  0  0  0  0  0  0
   10.3042   15.0672   26.1228 O   0  0  0  0  0  0  0  0  0  0  0  0
    9.4415   13.9338   26.4225 C   0  0  0  0  0  0  0  0  0  0  0  0
  3  2  1  0  0  0
  3  4  1  0  0  0
  2  1  1  0  0  0
  4  5  1  0  0  0
  1  6  1  0  0  0
  1 21  1  0  0  0
 22 21  2  0  0  0
  5  6  1  0  0  0
  6  7  1  0  0  0
 21 23  1  0  0  0
  9  7  2  0  0  0
  8  7  2  0  0  0
 23 24  1  0  0  0
 24 25  1  0  0  0
 10 11  2  0  0  0
 10 19  1  0  0  0
 26 25  1  0  0  0
 26 32  1  0  0  0
 11 12  1  0  0  0
 33 34  1  0  0  0
 19 18  2  0  0  0
 28 32  2  0  0  0
 28 27  1  0  0  0
 32 31  1  0  0  0
 12 13  1  0  0  0
 12 17  2  0  0  0
 34 27  1  0  0  0
 27 29  2  0  0  0
 18 17  1  0  0  0
 13 14  1  0  0  0
 17 16  1  0  0  0
 31 30  2  0  0  0
 29 30  1  0  0  0
 29 35  1  0  0  0
 16 14  1  0  0  0
 14 15  2  0  0  0
 35 36  1  0  0  0
  7 10  1  0  0  0
 16 20  1  0  0  0
M  END
> <minimizedAffinity>
-7.28037

$$$$
4JFM_1KZ_A_201


 36 39  0  0  0  0  0  0  0  0999 V2000
    9.9915   13.6589   16.9872 C   0  0  0  0  0  0  0  0  0  0  0  0
   10.2171   14.0359   15.5691 C   0  0  0  0  0  0  0  0  0  0  0  0
    9.8905   15.5246   15.3190 C   0  0  0  0  0  0  0  0  0  0  0  0
    8.4759   15.9018   15.7215 C   0  0  0  0  0  0  0  0  0  0  0  0
    8.2185   15.4714   17.1586 C   0  0  0  0  0  0  0  0  0  0  0  0
    8.5869   14.0377   17.2711 N   0  0  0  0  0  0  0  0  0  0  0  0
    7.5426   13.0178   17.9576 S   0  0  0  0  0  0  0  0  0  0  0  0
    8.0330   11.7207   17.7220 O   0  0  0  0  0  0  0  0  0  0  0  0
    6.2374   13.3193   17.4320 O   0  0  0  0  0  0  0  0  0  0  0  0
    7.4607   13.3600   19.6479 C   0  0  0  0  0  0  0  0  0  0  0  0
    6.4980   14.1875   20.1518 C   0  0  0  0  0  0  0  0  0  0  0  0
    6.4382   14.3931   21.4703 C   0  0  0  0  0  0  0  0  0  0  0  0
    5.3537   15.3171   22.4266 S   0  0  0  0  0  0  0  0  0  0  0  0
    6.1180   14.9617   23.8449 C   0  0  0  0  0  0  0  0  0  0  0  0
    5.7899   15.3385   24.9662 O   0  0  0  0  0  0  0  0  0  0  0  0
    7.1800   14.1540   23.6007 N   0  0  0  0  0  0  0  0  0  0  0  0
    7.3769   13.8288   22.3085 C   0  0  0  0  0  0  0  0  0  0  0  0
    8.3832   13.0581   21.8495 C   0  0  0  0  0  0  0  0  0  0  0  0
    8.4162   12.8136   20.4576 C   0  0  0  0  0  0  0  0  0  0  0  0
    7.7676   13.8273   24.3199 H   0  0  0  0  0  0  0  0  0  0  0  0
   11.0460   14.1999   17.8251 C   0  0  0  0  0  0  0  0  0  0  0  0
   12.2007   14.0362   17.5261 O   0  0  0  0  0  0  0  0  0  0  0  0
   10.6341   14.8740   18.8476 O   0  0  0  0  0  0  0  0  0  0  0  0
   11.4868   15.8662   19.3898 C   0  0  0  0  0  0  0  0  0  0  0  0
   10.8165   17.1597   19.1857 C   0  0  0  0  0  0  0  0  0  0  0  0
   11.1198   17.8180   20.3577 O   0  0  0  0  0  0  0  0  0  0  0  0
   12.8185   20.7012   18.9870 C   0  0  0  0  0  0  0  0  0  0  0  0
   12.5119   19.3757   19.3324 C   0  0  0  0  0  0  0  0  0  0  0  0
   11.9436   21.7642   19.3309 C   0  0  0  0  0  0  0  0  0  0  0  0
   10.7790   21.4763   20.0371 C   0  0  0  0  0  0  0  0  0  0  0  0
   10.4801   20.1550   20.3923 C   0  0  0  0  0  0  0  0  0  0  0  0
   11.3554   19.1087   20.0422 C   0  0  0  0  0  0  0  0  0  0  0  0
   15.1202   20.9060   19.0950 C   0  0  0  0  0  0  0  0  0  0  0  0
   13.9615   20.9857   18.2742 O   0  0  0  0  0  0  0  0  0  0  0  0
   12.2469   23.0431   18.9565 O   0  0  0  0  0  0  0  0  0  0  0  0
   11.6557   24.0653   19.8077 C   0  0  0  0  0  0  0  0  0  0  0  0
  3  2  1  0  0  0
  3  4  1  0  0  0
  2  1  1  0  0  0
  4  5  1  0  0  0
  1  6  1  0  0  0
  1 21  1  0  0  0
 22 21  2  0  0  0
  5  6  1  0  0  0
  6  7  1  0  0  0
 21 23  1  0  0  0
  9  7  2  0  0  0
  8  7  2  0  0  0
 23 24  1  0  0  0
 24 25  1  0  0  0
 10 11  2  0  0  0
 10 19  1  0  0  0
 26 25  1  0  0  0
 26 32  1  0  0  0
 11 12  1  0  0  0
 33 34  1  0  0  0
 19 18  2  0  0  0
 28 32  2  0  0  0
 28 27  1  0  0  0
 32 31  1  0  0  0
 12 13  1  0  0  0
 12 17  2  0  0  0
 34 27  1  0  0  0
 27 29  2  0  0  0
 18 17  1  0  0  0
 13 14  1  0  0  0
 17 16  1  0  0  0
 31 30  2  0  0  0
 29 30  1  0  0  0
 29 35  1  0  0  0
 16 14  1  0  0  0
 14 15  2  0  0  0
 35 36  1  0  0  0
  7 10  1  0  0  0
 16 20  1  0  0  0
M  END
> <minimizedAffinity>
-7.07444

$$$$
4JFM_1KZ_A_201


 36 39  0  0  0  0  0  0  0  0999 V2000
    9.9382   13.7596   16.8996 C   0  0  0  0  0  0  0  0  0  0  0  0
   10.0699   14.1759   15.4807 C   0  0  0  0  0  0  0  0  0  0  0  0
    9.7642   15.6791   15.2998 C   0  0  0  0  0  0  0  0  0  0  0  0
    8.3927   16.0762   15.8161 C   0  0  0  0  0  0  0  0  0  0  0  0
    8.2293   15.6067   17.2547 C   0  0  0  0  0  0  0  0  0  0  0  0
    8.5681   14.1619   17.2969 N   0  0  0  0  0  0  0  0  0  0  0  0
    7.5506   13.1454   18.0273 S   0  0  0  0  0  0  0  0  0  0  0  0
    8.1070   11.8597   17.9017 O   0  0  0  0  0  0  0  0  0  0  0  0
    6.2500   13.3452   17.4448 O   0  0  0  0  0  0  0  0  0  0  0  0
    7.4003   13.6046   19.6849 C   0  0  0  0  0  0  0  0  0  0  0  0
    8.4947   13.6645   20.4998 C   0  0  0  0  0  0  0  0  0  0  0  0
    8.3461   14.0674   21.7646 C   0  0  0  0  0  0  0  0  0  0  0  0
    9.4887   14.2972   23.0240 S   0  0  0  0  0  0  0  0  0  0  0  0
    8.3518   14.7497   24.1308 C   0  0  0  0  0  0  0  0  0  0  0  0
    8.5563   15.0791   25.2956 O   0  0  0  0  0  0  0  0  0  0  0  0
    7.1229   14.7285   23.5571 N   0  0  0  0  0  0  0  0  0  0  0  0
    7.0931   14.3578   22.2624 C   0  0  0  0  0  0  0  0  0  0  0  0
    5.9770   14.2504   21.5141 C   0  0  0  0  0  0  0  0  0  0  0  0
    6.1473   13.8613   20.1659 C   0  0  0  0  0  0  0  0  0  0  0  0
    6.3073   14.9681   24.0537 H   0  0  0  0  0  0  0  0  0  0  0  0
   11.0642   14.2489   17.6737 C   0  0  0  0  0  0  0  0  0  0  0  0
   12.1885   13.9552   17.3589 O   0  0  0  0  0  0  0  0  0  0  0  0
   10.7495   15.0246   18.6580 O   0  0  0  0  0  0  0  0  0  0  0  0
   11.7775   15.7692   19.2859 C   0  0  0  0  0  0  0  0  0  0  0  0
   11.6689   17.1483   18.7852 C   0  0  0  0  0  0  0  0  0  0  0  0
   11.3207   17.8327   19.9295 O   0  0  0  0  0  0  0  0  0  0  0  0
   11.1822   21.4318   20.2533 C   0  0  0  0  0  0  0  0  0  0  0  0
   10.9006   20.0674   20.4247 C   0  0  0  0  0  0  0  0  0  0  0  0
   12.2384   21.8564   19.4060 C   0  0  0  0  0  0  0  0  0  0  0  0
   12.9844   20.8968   18.7271 C   0  0  0  0  0  0  0  0  0  0  0  0
   12.6946   19.5363   18.8890 C   0  0  0  0  0  0  0  0  0  0  0  0
   11.6455   19.1280   19.7354 C   0  0  0  0  0  0  0  0  0  0  0  0
   10.7064   22.3205   22.3355 C   0  0  0  0  0  0  0  0  0  0  0  0
   10.4563   22.3812   20.9367 O   0  0  0  0  0  0  0  0  0  0  0  0
   12.5150   23.1887   19.2790 O   0  0  0  0  0  0  0  0  0  0  0  0
   13.4887   23.4950   18.2413 C   0  0  0  0  0  0  0  0  0  0  0  0
  3  2  1  0  0  0
  3  4  1  0  0  0
  2  1  1  0  0  0
  4  5  1  0  0  0
  1  6  1  0  0  0
  1 21  1  0  0  0
 22 21  2  0  0  0
  5  6  1  0  0  0
  6  7  1  0  0  0
 21 23  1  0  0  0
  9  7  2  0  0  0
  8  7  2  0  0  0
 23 24  1  0  0  0
 24 25  1  0  0  0
 10 11  2  0  0  0
 10 19  1  0  0  0
 26 25  1  0  0  0
 26 32  1  0  0  0
 11 12  1  0  0  0
 33 34  1  0  0  0
 19 18  2  0  0  0
 28 32  2  0  0  0
 28 27  1  0  0  0
 32 31  1  0  0  0
 12 13  1  0  0  0
 12 17  2  0  0  0
 34 27  1  0  0  0
 27 29  2  0  0  0
 18 17  1  0  0  0
 13 14  1  0  0  0
 17 16  1  0  0  0
 31 30  2  0  0  0
 29 30  1  0  0  0
 29 35  1  0  0  0
 16 14  1  0  0  0
 14 15  2  0  0  0
 35 36  1  0  0  0
  7 10  1  0  0  0
 16 20  1  0  0  0
M  END
> <minimizedAffinity>
-6.61383

$$$$
4JFM_1KZ_A_201


 36 39  0  0  0  0  0  0  0  0999 V2000
    9.9445   13.7257   16.9785 C   0  0  0  0  0  0  0  0  0  0  0  0
   10.2004   14.0445   15.5514 C   0  0  0  0  0  0  0  0  0  0  0  0
    9.9373   15.5358   15.2472 C   0  0  0  0  0  0  0  0  0  0  0  0
    8.5351   15.9832   15.6198 C   0  0  0  0  0  0  0  0  0  0  0  0
    8.2450   15.6130   17.0674 C   0  0  0  0  0  0  0  0  0  0  0  0
    8.5536   14.1703   17.2326 N   0  0  0  0  0  0  0  0  0  0  0  0
    7.4614   13.2174   17.9405 S   0  0  0  0  0  0  0  0  0  0  0  0
    7.9684   11.9070   17.8757 O   0  0  0  0  0  0  0  0  0  0  0  0
    6.1988   13.4533   17.2917 O   0  0  0  0  0  0  0  0  0  0  0  0
    7.2537   13.7294   19.5763 C   0  0  0  0  0  0  0  0  0  0  0  0
    7.4277   12.8578   20.6133 C   0  0  0  0  0  0  0  0  0  0  0  0
    7.3028   13.3010   21.8671 C   0  0  0  0  0  0  0  0  0  0  0  0
    7.4937   12.5063   23.3759 S   0  0  0  0  0  0  0  0  0  0  0  0
    7.1090   13.8444   24.2612 C   0  0  0  0  0  0  0  0  0  0  0  0
    7.0805   13.9271   25.4857 O   0  0  0  0  0  0  0  0  0  0  0  0
    6.8398   14.8805   23.4283 N   0  0  0  0  0  0  0  0  0  0  0  0
    6.9384   14.6084   22.1127 C   0  0  0  0  0  0  0  0  0  0  0  0
    6.6930   15.4873   21.1205 C   0  0  0  0  0  0  0  0  0  0  0  0
    6.8657   15.0208   19.7974 C   0  0  0  0  0  0  0  0  0  0  0  0
    6.5890   15.7718   23.7628 H   0  0  0  0  0  0  0  0  0  0  0  0
   11.0112   14.2521   17.8104 C   0  0  0  0  0  0  0  0  0  0  0  0
   12.1615   14.0867   17.4959 O   0  0  0  0  0  0  0  0  0  0  0  0
   10.6144   14.9160   18.8454 O   0  0  0  0  0  0  0  0  0  0  0  0
   11.2329   16.1582   19.1282 C   0  0  0  0  0  0  0  0  0  0  0  0
   11.7755   16.0612   20.4922 C   0  0  0  0  0  0  0  0  0  0  0  0
   10.8553   15.2345   21.0993 O   0  0  0  0  0  0  0  0  0  0  0  0
   13.1938   14.5152   23.7623 C   0  0  0  0  0  0  0  0  0  0  0  0
   12.6676   14.7942   22.4912 C   0  0  0  0  0  0  0  0  0  0  0  0
   12.3506   14.4532   24.9019 C   0  0  0  0  0  0  0  0  0  0  0  0
   10.9827   14.6548   24.7393 C   0  0  0  0  0  0  0  0  0  0  0  0
   10.4569   14.9208   23.4689 C   0  0  0  0  0  0  0  0  0  0  0  0
   11.3052   14.9826   22.3463 C   0  0  0  0  0  0  0  0  0  0  0  0
   15.0411   13.3008   23.0809 C   0  0  0  0  0  0  0  0  0  0  0  0
   14.5483   14.3320   23.9273 O   0  0  0  0  0  0  0  0  0  0  0  0
   12.8893   14.2115   26.1344 O   0  0  0  0  0  0  0  0  0  0  0  0
   12.5471   12.9081   26.6849 C   0  0  0  0  0  0  0  0  0  0  0  0
  3  2  1  0  0  0
  3  4  1  0  0  0
  2  1  1  0  0  0
  4  5  1  0  0  0
  1  6  1  0  0  0
  1 21  1  0  0  0
 22 21  2  0  0  0
  5  6  1  0  0  0
  6  7  1  0  0  0
 21 23  1  0  0  0
  9  7  2  0  0  0
  8  7  2  0  0  0
 23 24  1  0  0  0
 24 25  1  0  0  0
 10 11  2  0  0  0
 10 19  1  0  0  0
 26 25  1  0  0  0
 26 32  1  0  0  0
 11 12  1  0  0  0
 33 34  1  0  0  0
 19 18  2  0  0  0
 28 32  2  0  0  0
 28 27  1  0  0  0
 32 31  1  0  0  0
 12 13  1  0  0  0
 12 17  2  0  0  0
 34 27  1  0  0  0
 27 29  2  0  0  0
 18 17  1  0  0  0
 13 14  1  0  0  0
 17 16  1  0  0  0
 31 30  2  0  0  0
 29 30  1  0  0  0
 29 35  1  0  0  0
 16 14  1  0  0  0
 14 15  2  0  0  0
 35 36  1  0  0  0
  7 10  1  0  0  0
 16 20  1  0  0  0
M  END
> <minimizedAffinity>
-6.52402

$$$$
4JFM_1KZ_A_201


 36 39  0  0  0  0  0  0  0  0999 V2000
    8.7277   15.6381   18.0417 C   0  0  0  0  0  0  0  0  0  0  0  0
    8.3517   16.4538   16.8597 C   0  0  0  0  0  0  0  0  0  0  0  0
    8.7690   15.7672   15.5406 C   0  0  0  0  0  0  0  0  0  0  0  0
   10.2510   15.4433   15.4783 C   0  0  0  0  0  0  0  0  0  0  0  0
   10.6564   14.6513   16.7133 C   0  0  0  0  0  0  0  0  0  0  0  0
   10.1845   15.4026   17.9037 N   0  0  0  0  0  0  0  0  0  0  0  0
   11.2186   15.6756   19.1113 S   0  0  0  0  0  0  0  0  0  0  0  0
   12.4763   15.2222   18.6742 O   0  0  0  0  0  0  0  0  0  0  0  0
   10.6804   15.0483   20.2893 O   0  0  0  0  0  0  0  0  0  0  0  0
   11.2447   17.3686   19.4489 C   0  0  0  0  0  0  0  0  0  0  0  0
   12.2512   18.1636   18.9794 C   0  0  0  0  0  0  0  0  0  0  0  0
   12.2140   19.4765   19.2226 C   0  0  0  0  0  0  0  0  0  0  0  0
   13.2675   20.7475   18.7547 S   0  0  0  0  0  0  0  0  0  0  0  0
   12.4041   21.9105   19.5447 C   0  0  0  0  0  0  0  0  0  0  0  0
   12.6562   23.1115   19.5783 O   0  0  0  0  0  0  0  0  0  0  0  0
   11.3318   21.3470   20.1548 N   0  0  0  0  0  0  0  0  0  0  0  0
   11.2057   20.0156   19.9940 C   0  0  0  0  0  0  0  0  0  0  0  0
   10.2273   19.2607   20.5324 C   0  0  0  0  0  0  0  0  0  0  0  0
   10.2522   17.8784   20.2377 C   0  0  0  0  0  0  0  0  0  0  0  0
   10.6885   21.8758   20.6801 H   0  0  0  0  0  0  0  0  0  0  0  0
    7.8420   14.4950   18.1661 C   0  0  0  0  0  0  0  0  0  0  0  0
    6.6513   14.6375   18.0597 O   0  0  0  0  0  0  0  0  0  0  0  0
    8.4388   13.3641   18.3518 O   0  0  0  0  0  0  0  0  0  0  0  0
    7.8377   12.4179   19.2172 C   0  0  0  0  0  0  0  0  0  0  0  0
    8.0593   12.8976   20.5902 C   0  0  0  0  0  0  0  0  0  0  0  0
    6.9184   12.4578   21.2257 O   0  0  0  0  0  0  0  0  0  0  0  0
    5.4486   15.3461   22.8304 C   0  0  0  0  0  0  0  0  0  0  0  0
    5.7725   14.3797   21.8653 C   0  0  0  0  0  0  0  0  0  0  0  0
    5.9689   15.2622   24.1479 C   0  0  0  0  0  0  0  0  0  0  0  0
    6.8261   14.2130   24.4680 C   0  0  0  0  0  0  0  0  0  0  0  0
    7.1587   13.2563   23.5010 C   0  0  0  0  0  0  0  0  0  0  0  0
    6.6330   13.3493   22.1977 C   0  0  0  0  0  0  0  0  0  0  0  0
    5.2781   17.4726   21.9358 C   0  0  0  0  0  0  0  0  0  0  0  0
    4.5880   16.3749   22.5202 O   0  0  0  0  0  0  0  0  0  0  0  0
    5.6146   16.1968   25.0800 O   0  0  0  0  0  0  0  0  0  0  0  0
    6.7334   16.7153   25.8536 C   0  0  0  0  0  0  0  0  0  0  0  0
  3  2  1  0  0  0
  3  4  1  0  0  0
  2  1  1  0  0  0
  4  5  1  0  0  0
  1  6  1  0  0  0
  1 21  1  0  0  0
 22 21  2  0  0  0
  5  6  1  0  0  0
  6  7  1  0  0  0
 21 23  1  0  0  0
  9  7  2  0  0  0
  8  7  2  0  0  0
 23 24  1  0  0  0
 24 25  1  0  0  0
 10 11  2  0  0  0
 10 19  1  0  0  0
 26 25  1  0  0  0
 26 32  1  0  0  0
 11 12  1  0  0  0
 33 34  1  0  0  0
 19 18  2  0  0  0
 28 32  2  0  0  0
 28 27  1  0  0  0
 32 31  1  0  0  0
 12 13  1  0  0  0
 12 17  2  0  0  0
 34 27  1  0  0  0
 27 29  2  0  0  0
 18 17  1  0  0  0
 13 14  1  0  0  0
 17 16  1  0  0  0
 31 30  2  0  0  0
 29 30  1  0  0  0
 29 35  1  0  0  0
 16 14  1  0  0  0
 14 15  2  0  0  0
 35 36  1  0  0  0
  7 10  1  0  0  0
 16 20  1  0  0  0
M  END
> <minimizedAffinity>
-6.41901

$$$$
4JFM_1KZ_A_201


 36 39  0  0  0  0  0  0  0  0999 V2000
    9.5292   15.0776   18.4626 C   0  0  0  0  0  0  0  0  0  0  0  0
   10.7000   14.8349   17.5827 C   0  0  0  0  0  0  0  0  0  0  0  0
   10.5289   15.5198   16.2089 C   0  0  0  0  0  0  0  0  0  0  0  0
    9.2606   15.1015   15.4866 C   0  0  0  0  0  0  0  0  0  0  0  0
    8.0598   15.2981   16.4009 C   0  0  0  0  0  0  0  0  0  0  0  0
    8.3558   14.6139   17.6848 N   0  0  0  0  0  0  0  0  0  0  0  0
    7.2533   13.6129   18.3050 S   0  0  0  0  0  0  0  0  0  0  0  0
    7.4331   12.3719   17.6679 O   0  0  0  0  0  0  0  0  0  0  0  0
    5.9669   14.2384   18.1478 O   0  0  0  0  0  0  0  0  0  0  0  0
    7.5116   13.4873   20.0074 C   0  0  0  0  0  0  0  0  0  0  0  0
    6.7933   14.2479   20.8855 C   0  0  0  0  0  0  0  0  0  0  0  0
    6.9888   14.0909   22.1975 C   0  0  0  0  0  0  0  0  0  0  0  0
    6.2433   14.8337   23.5527 S   0  0  0  0  0  0  0  0  0  0  0  0
    7.1664   14.0213   24.6527 C   0  0  0  0  0  0  0  0  0  0  0  0
    7.0957   14.1117   25.8749 O   0  0  0  0  0  0  0  0  0  0  0  0
    8.0279   13.1976   24.0054 N   0  0  0  0  0  0  0  0  0  0  0  0
    7.9508   13.2178   22.6607 C   0  0  0  0  0  0  0  0  0  0  0  0
    8.7282   12.4944   21.8304 C   0  0  0  0  0  0  0  0  0  0  0  0
    8.4880   12.6373   20.4447 C   0  0  0  0  0  0  0  0  0  0  0  0
    8.6669   12.6233   24.4862 H   0  0  0  0  0  0  0  0  0  0  0  0
    9.5466   16.4420   18.9576 C   0  0  0  0  0  0  0  0  0  0  0  0
    8.5507   16.9278   19.4284 O   0  0  0  0  0  0  0  0  0  0  0  0
   10.6935   17.0322   18.8807 O   0  0  0  0  0  0  0  0  0  0  0  0
   11.2219   17.6349   20.0482 C   0  0  0  0  0  0  0  0  0  0  0  0
   12.4402   16.8878   20.3972 C   0  0  0  0  0  0  0  0  0  0  0  0
   12.5365   17.1298   21.7504 O   0  0  0  0  0  0  0  0  0  0  0  0
   11.8022   14.2926   23.8691 C   0  0  0  0  0  0  0  0  0  0  0  0
   11.6825   15.5188   23.1965 C   0  0  0  0  0  0  0  0  0  0  0  0
   12.9394   13.4655   23.6782 C   0  0  0  0  0  0  0  0  0  0  0  0
   13.9507   13.8974   22.8245 C   0  0  0  0  0  0  0  0  0  0  0  0
   13.8362   15.1267   22.1636 C   0  0  0  0  0  0  0  0  0  0  0  0
   12.7009   15.9369   22.3594 C   0  0  0  0  0  0  0  0  0  0  0  0
   10.8669   14.4809   25.9765 C   0  0  0  0  0  0  0  0  0  0  0  0
   10.7955   13.8564   24.7007 O   0  0  0  0  0  0  0  0  0  0  0  0
   13.0198   12.2611   24.3190 O   0  0  0  0  0  0  0  0  0  0  0  0
   14.0877   12.1853   25.3053 C   0  0  0  0  0  0  0  0  0  0  0  0
  3  2  1  0  0  0
  3  4  1  0  0  0
  2  1  1  0  0  0
  4  5  1  0  0  0
  1  6  1  0  0  0
  1 21  1  0  0  0
 22 21  2  0  0  0
  5  6  1  0  0  0
  6  7  1  0  0  0
 21 23  1  0  0  0
  9  7  2  0  0  0
  8  7  2  0  0  0
 23 24  1  0  0  0
 24 25  1  0  0  0
 10 11  2  0  0  0
 10 19  1  0  0  0
 26 25  1  0  0  0
 26 32  1  0  0  0
 11 12  1  0  0  0
 33 34  1  0  0  0
 19 18  2  0  0  0
 28 32  2  0  0  0
 28 27  1  0  0  0
 32 31  1  0  0  0
 12 13  1  0  0  0
 12 17  2  0  0  0
 34 27  1  0  0  0
 27 29  2  0  0  0
 18 17  1  0  0  0
 13 14  1  0  0  0
 17 16  1  0  0  0
 31 30  2  0  0  0
 29 30  1  0  0  0
 29 35  1  0  0  0
 16 14  1  0  0  0
 14 15  2  0  0  0
 35 36  1  0  0  0
  7 10  1  0  0  0
 16 20  1  0  0  0
M  END
> <minimizedAffinity>
-6.31041

$$$$
4JFM_1KZ_A_201


 36 39  0  0  0  0  0  0  0  0999 V2000
    9.9574   14.1012   17.3425 C   0  0  0  0  0  0  0  0  0  0  0  0
   10.3889   14.3511   15.9442 C   0  0  0  0  0  0  0  0  0  0  0  0
    9.9233   15.7369   15.4459 C   0  0  0  0  0  0  0  0  0  0  0  0
    8.4221   15.9371   15.5532 C   0  0  0  0  0  0  0  0  0  0  0  0
    7.9630   15.6320   16.9720 C   0  0  0  0  0  0  0  0  0  0  0  0
    8.4875   14.2915   17.3354 N   0  0  0  0  0  0  0  0  0  0  0  0
    7.4762   13.2062   17.9690 S   0  0  0  0  0  0  0  0  0  0  0  0
    8.0101   11.9387   17.6742 O   0  0  0  0  0  0  0  0  0  0  0  0
    6.1628   13.4887   17.4533 O   0  0  0  0  0  0  0  0  0  0  0  0
    7.3793   13.4651   19.6733 C   0  0  0  0  0  0  0  0  0  0  0  0
    6.4637   14.3298   20.2020 C   0  0  0  0  0  0  0  0  0  0  0  0
    6.3879   14.4703   21.5282 C   0  0  0  0  0  0  0  0  0  0  0  0
    5.3471   15.4161   22.5114 S   0  0  0  0  0  0  0  0  0  0  0  0
    6.0531   14.9357   23.9231 C   0  0  0  0  0  0  0  0  0  0  0  0
    5.7259   15.2756   25.0565 O   0  0  0  0  0  0  0  0  0  0  0  0
    7.0631   14.0705   23.6567 N   0  0  0  0  0  0  0  0  0  0  0  0
    7.2669   13.7999   22.3529 C   0  0  0  0  0  0  0  0  0  0  0  0
    8.2287   12.9865   21.8729 C   0  0  0  0  0  0  0  0  0  0  0  0
    8.2768   12.8129   20.4709 C   0  0  0  0  0  0  0  0  0  0  0  0
    7.6106   13.6672   24.3686 H   0  0  0  0  0  0  0  0  0  0  0  0
   10.7606   14.8838   18.2641 C   0  0  0  0  0  0  0  0  0  0  0  0
   10.2292   15.5541   19.1113 O   0  0  0  0  0  0  0  0  0  0  0  0
   12.0376   14.7581   18.1120 O   0  0  0  0  0  0  0  0  0  0  0  0
   12.8944   15.5231   18.9404 C   0  0  0  0  0  0  0  0  0  0  0  0
   14.0730   14.6876   19.2183 C   0  0  0  0  0  0  0  0  0  0  0  0
   14.6221   15.3342   20.3042 O   0  0  0  0  0  0  0  0  0  0  0  0
   14.8183   13.5302   23.4322 C   0  0  0  0  0  0  0  0  0  0  0  0
   14.4601   14.4802   22.4629 C   0  0  0  0  0  0  0  0  0  0  0  0
   15.6942   12.4600   23.1141 C   0  0  0  0  0  0  0  0  0  0  0  0
   16.2127   12.3745   21.8250 C   0  0  0  0  0  0  0  0  0  0  0  0
   15.8647   13.3299   20.8620 C   0  0  0  0  0  0  0  0  0  0  0  0
   14.9919   14.3855   21.1898 C   0  0  0  0  0  0  0  0  0  0  0  0
   13.6645   14.8582   24.9345 C   0  0  0  0  0  0  0  0  0  0  0  0
   14.2934   13.6037   24.7028 O   0  0  0  0  0  0  0  0  0  0  0  0
   16.0039   11.5287   24.0652 O   0  0  0  0  0  0  0  0  0  0  0  0
   16.2146   10.1892   23.5358 C   0  0  0  0  0  0  0  0  0  0  0  0
  3  2  1  0  0  0
  3  4  1  0  0  0
  2  1  1  0  0  0
  4  5  1  0  0  0
  1  6  1  0  0  0
  1 21  1  0  0  0
 22 21  2  0  0  0
  5  6  1  0  0  0
  6  7  1  0  0  0
 21 23  1  0  0  0
  9  7  2  0  0  0
  8  7  2  0  0  0
 23 24  1  0  0  0
 24 25  1  0  0  0
 10 11  2  0  0  0
 10 19  1  0  0  0
 26 25  1  0  0  0
 26 32  1  0  0  0
 11 12  1  0  0  0
 33 34  1  0  0  0
 19 18  2  0  0  0
 28 32  2  0  0  0
 28 27  1  0  0  0
 32 31  1  0  0  0
 12 13  1  0  0  0
 12 17  2  0  0  0
 34 27  1  0  0  0
 27 29  2  0  0  0
 18 17  1  0  0  0
 13 14  1  0  0  0
 17 16  1  0  0  0
 31 30  2  0  0  0
 29 30  1  0  0  0
 29 35  1  0  0  0
 16 14  1  0  0  0
 14 15  2  0  0  0
 35 36  1  0  0  0
  7 10  1  0  0  0
 16 20  1  0  0  0
M  END
> <minimizedAffinity>
-6.23891

$$$$
4JFM_1KZ_A_201


 36 39  0  0  0  0  0  0  0  0999 V2000
    9.0748   14.9573   18.1440 C   0  0  0  0  0  0  0  0  0  0  0  0
    8.0781   15.6194   17.2653 C   0  0  0  0  0  0  0  0  0  0  0  0
    8.3374   15.3045   15.7755 C   0  0  0  0  0  0  0  0  0  0  0  0
    9.7369   15.6781   15.3206 C   0  0  0  0  0  0  0  0  0  0  0  0
   10.7648   15.0457   16.2481 C   0  0  0  0  0  0  0  0  0  0  0  0
   10.3949   15.4050   17.6403 N   0  0  0  0  0  0  0  0  0  0  0  0
   11.5306   16.0039   18.6168 S   0  0  0  0  0  0  0  0  0  0  0  0
   12.1120   17.0905   17.9388 O   0  0  0  0  0  0  0  0  0  0  0  0
   12.4087   14.9205   18.9717 O   0  0  0  0  0  0  0  0  0  0  0  0
   10.7864   16.5096   20.0904 C   0  0  0  0  0  0  0  0  0  0  0  0
   10.5028   15.6111   21.0792 C   0  0  0  0  0  0  0  0  0  0  0  0
    9.9682   16.0461   22.2234 C   0  0  0  0  0  0  0  0  0  0  0  0
    9.5355   15.2160   23.6615 S   0  0  0  0  0  0  0  0  0  0  0  0
    8.9647   16.5710   24.4102 C   0  0  0  0  0  0  0  0  0  0  0  0
    8.5015   16.6386   25.5450 O   0  0  0  0  0  0  0  0  0  0  0  0
    9.0993   17.6390   23.5850 N   0  0  0  0  0  0  0  0  0  0  0  0
    9.6455   17.3777   22.3818 C   0  0  0  0  0  0  0  0  0  0  0  0
    9.8473   18.2893   21.4094 C   0  0  0  0  0  0  0  0  0  0  0  0
   10.4494   17.8278   20.2167 C   0  0  0  0  0  0  0  0  0  0  0  0
    8.8167   18.5447   23.8479 H   0  0  0  0  0  0  0  0  0  0  0  0
    8.8034   13.5340   18.2289 C   0  0  0  0  0  0  0  0  0  0  0  0
    9.6614   12.7365   17.9506 O   0  0  0  0  0  0  0  0  0  0  0  0
    7.6204   13.2318   18.6516 O   0  0  0  0  0  0  0  0  0  0  0  0
    7.4111   13.1184   20.0477 C   0  0  0  0  0  0  0  0  0  0  0  0
    6.2666   13.9822   20.3767 C   0  0  0  0  0  0  0  0  0  0  0  0
    6.6950   14.5789   21.5426 O   0  0  0  0  0  0  0  0  0  0  0  0
    5.1547   17.7051   22.5078 C   0  0  0  0  0  0  0  0  0  0  0  0
    5.5684   16.3639   22.5225 C   0  0  0  0  0  0  0  0  0  0  0  0
    5.5406   18.5746   21.4549 C   0  0  0  0  0  0  0  0  0  0  0  0
    6.3239   18.0722   20.4194 C   0  0  0  0  0  0  0  0  0  0  0  0
    6.7258   16.7307   20.4286 C   0  0  0  0  0  0  0  0  0  0  0  0
    6.3384   15.8789   21.4812 C   0  0  0  0  0  0  0  0  0  0  0  0
    3.0093   17.9539   23.3366 C   0  0  0  0  0  0  0  0  0  0  0  0
    4.3939   18.2078   23.5393 O   0  0  0  0  0  0  0  0  0  0  0  0
    5.1525   19.8848   21.4777 O   0  0  0  0  0  0  0  0  0  0  0  0
    6.2285   20.8158   21.7846 C   0  0  0  0  0  0  0  0  0  0  0  0
  3  2  1  0  0  0
  3  4  1  0  0  0
  2  1  1  0  0  0
  4  5  1  0  0  0
  1  6  1  0  0  0
  1 21  1  0  0  0
 22 21  2  0  0  0
  5  6  1  0  0  0
  6  7  1  0  0  0
 21 23  1  0  0  0
  9  7  2  0  0  0
  8  7  2  0  0  0
 23 24  1  0  0  0
 24 25  1  0  0  0
 10 11  2  0  0  0
 10 19  1  0  0  0
 26 25  1  0  0  0
 26 32  1  0  0  0
 11 12  1  0  0  0
 33 34  1  0  0  0
 19 18  2  0  0  0
 28 32  2  0  0  0
 28 27  1  0  0  0
 32 31  1  0  0  0
 12 13  1  0  0  0
 12 17  2  0  0  0
 34 27  1  0  0  0
 27 29  2  0  0  0
 18 17  1  0  0  0
 13 14  1  0  0  0
 17 16  1  0  0  0
 31 30  2  0  0  0
 29 30  1  0  0  0
 29 35  1  0  0  0
 16 14  1  0  0  0
 14 15  2  0  0  0
 35 36  1  0  0  0
  7 10  1  0  0  0
 16 20  1  0  0  0
M  END
> <minimizedAffinity>
-6.15760

$$$$
