4UFJ_IF7_A_1001


 15 15  0  0  0  0  0  0  0  0999 V2000
   75.8267   90.4927   19.8817 O   0  0  0  0  0  0  0  0  0  0  0  0
   76.9401   90.0630   19.5654 C   0  0  0  0  0  0  0  0  0  0  0  0
   78.0054   90.0847   20.6534 C   0  0  0  0  0  0  0  0  0  0  0  0
   77.4447   89.7022   21.8989 O   0  0  0  0  0  0  0  0  0  0  0  0
   79.1899   89.1874   20.3066 C   0  0  0  0  0  0  0  0  0  0  0  0
   78.8268   87.8238   20.4958 O   0  0  0  0  0  0  0  0  0  0  0  0
   79.6473   89.4301   18.8681 C   0  0  0  0  0  0  0  0  0  0  0  0
   78.5061   89.1096   17.8927 C   0  0  0  0  0  0  0  0  0  0  0  0
   77.2093   89.6393   18.3375 N   0  0  0  0  0  0  0  0  0  0  0  0
   77.1108   88.7935   21.8378 H   0  0  0  0  0  0  0  0  0  0  0  0
   78.0855   87.6024   19.9107 H   0  0  0  0  0  0  0  0  0  0  0  0
   76.4844   89.6831   17.6728 H   0  0  0  0  0  0  0  0  0  0  0  0
   80.8540   88.5898   18.5073 C   0  0  0  0  0  0  0  0  0  0  0  0
   81.0261   88.5317   17.1057 O   0  0  0  0  0  0  0  0  0  0  0  0
   80.2429   88.1279   16.7002 H   0  0  0  0  0  0  0  0  0  0  0  0
  1  2  2  0  0  0
  2  3  1  0  0  0
  2  9  1  0  0  0
  3  4  1  0  0  0
  3  5  1  0  0  0
  5  6  1  0  0  0
  5  7  1  0  0  0
  7 13  1  0  0  0
  7  8  1  0  0  0
 13 14  1  0  0  0
  8  9  1  0  0  0
  4 10  1  0  0  0
  6 11  1  0  0  0
 14 15  1  0  0  0
  9 12  1  0  0  0
M  END
> <minimizedAffinity>
-8.14500

$$$$
4UFJ_IF7_A_1001


 15 15  0  0  0  0  0  0  0  0999 V2000
   77.5577   91.2798   21.3616 O   0  0  0  0  0  0  0  0  0  0  0  0
   77.8348   90.2667   20.7125 C   0  0  0  0  0  0  0  0  0  0  0  0
   76.7121   89.6787   19.8682 C   0  0  0  0  0  0  0  0  0  0  0  0
   75.9677   90.7150   19.2487 O   0  0  0  0  0  0  0  0  0  0  0  0
   77.2406   88.7046   18.8192 C   0  0  0  0  0  0  0  0  0  0  0  0
   77.8469   89.4316   17.7558 O   0  0  0  0  0  0  0  0  0  0  0  0
   78.2377   87.7284   19.4437 C   0  0  0  0  0  0  0  0  0  0  0  0
   79.4329   88.4973   20.0239 C   0  0  0  0  0  0  0  0  0  0  0  0
   79.0311   89.6968   20.7722 N   0  0  0  0  0  0  0  0  0  0  0  0
   76.5459   91.2170   18.6533 H   0  0  0  0  0  0  0  0  0  0  0  0
   78.5894   89.9514   18.1016 H   0  0  0  0  0  0  0  0  0  0  0  0
   79.7017   90.1091   21.3634 H   0  0  0  0  0  0  0  0  0  0  0  0
   78.7446   86.7155   18.4390 C   0  0  0  0  0  0  0  0  0  0  0  0
   79.8103   87.2495   17.6795 O   0  0  0  0  0  0  0  0  0  0  0  0
   79.5017   88.0305   17.1939 H   0  0  0  0  0  0  0  0  0  0  0  0
  1  2  2  0  0  0
  2  3  1  0  0  0
  2  9  1  0  0  0
  3  4  1  0  0  0
  3  5  1  0  0  0
  5  6  1  0  0  0
  5  7  1  0  0  0
  7 13  1  0  0  0
  7  8  1  0  0  0
 13 14  1  0  0  0
  8  9  1  0  0  0
  4 10  1  0  0  0
  6 11  1  0  0  0
 14 15  1  0  0  0
  9 12  1  0  0  0
M  END
> <minimizedAffinity>
-7.42781

$$$$
4UFJ_IF7_A_1001


 15 15  0  0  0  0  0  0  0  0999 V2000
   79.4964   86.5665   17.5181 O   0  0  0  0  0  0  0  0  0  0  0  0
   79.0813   87.4821   18.2349 C   0  0  0  0  0  0  0  0  0  0  0  0
   80.1293   88.2305   19.0476 C   0  0  0  0  0  0  0  0  0  0  0  0
   81.2993   88.4353   18.2723 O   0  0  0  0  0  0  0  0  0  0  0  0
   79.5987   89.5625   19.5698 C   0  0  0  0  0  0  0  0  0  0  0  0
   79.5492   90.5066   18.5052 O   0  0  0  0  0  0  0  0  0  0  0  0
   78.2164   89.3834   20.1977 C   0  0  0  0  0  0  0  0  0  0  0  0
   77.2273   88.8554   19.1492 C   0  0  0  0  0  0  0  0  0  0  0  0
   77.7912   87.7776   18.3244 N   0  0  0  0  0  0  0  0  0  0  0  0
   81.0845   88.9832   17.5012 H   0  0  0  0  0  0  0  0  0  0  0  0
   78.9521   90.1823   17.8130 H   0  0  0  0  0  0  0  0  0  0  0  0
   77.1629   87.2328   17.7974 H   0  0  0  0  0  0  0  0  0  0  0  0
   77.6816   90.6788   20.7708 C   0  0  0  0  0  0  0  0  0  0  0  0
   76.4286   91.0015   20.2021 O   0  0  0  0  0  0  0  0  0  0  0  0
   76.5273   91.1116   19.2435 H   0  0  0  0  0  0  0  0  0  0  0  0
  1  2  2  0  0  0
  2  3  1  0  0  0
  2  9  1  0  0  0
  3  4  1  0  0  0
  3  5  1  0  0  0
  5  6  1  0  0  0
  5  7  1  0  0  0
  7 13  1  0  0  0
  7  8  1  0  0  0
 13 14  1  0  0  0
  8  9  1  0  0  0
  4 10  1  0  0  0
  6 11  1  0  0  0
 14 15  1  0  0  0
  9 12  1  0  0  0
M  END
> <minimizedAffinity>
-6.89413

$$$$
4UFJ_IF7_A_1001


 15 15  0  0  0  0  0  0  0  0999 V2000
   81.0071   88.4738   17.0868 O   0  0  0  0  0  0  0  0  0  0  0  0
   80.0636   88.7522   17.8330 C   0  0  0  0  0  0  0  0  0  0  0  0
   78.8723   87.8043   17.7963 C   0  0  0  0  0  0  0  0  0  0  0  0
   79.3158   86.4595   17.7143 O   0  0  0  0  0  0  0  0  0  0  0  0
   77.9611   87.9900   19.0061 C   0  0  0  0  0  0  0  0  0  0  0  0
   78.5674   87.4055   20.1541 O   0  0  0  0  0  0  0  0  0  0  0  0
   77.6742   89.4729   19.2426 C   0  0  0  0  0  0  0  0  0  0  0  0
   78.9847   90.2249   19.5142 C   0  0  0  0  0  0  0  0  0  0  0  0
   80.0665   89.8354   18.5987 N   0  0  0  0  0  0  0  0  0  0  0  0
   79.8355   86.2417   18.5039 H   0  0  0  0  0  0  0  0  0  0  0  0
   79.4145   87.8439   20.3309 H   0  0  0  0  0  0  0  0  0  0  0  0
   80.8542   90.4240   18.5500 H   0  0  0  0  0  0  0  0  0  0  0  0
   76.7318   89.6894   20.4076 C   0  0  0  0  0  0  0  0  0  0  0  0
   77.4408   89.7199   21.6299 O   0  0  0  0  0  0  0  0  0  0  0  0
   77.8959   88.8733   21.7609 H   0  0  0  0  0  0  0  0  0  0  0  0
  1  2  2  0  0  0
  2  3  1  0  0  0
  2  9  1  0  0  0
  3  4  1  0  0  0
  3  5  1  0  0  0
  5  6  1  0  0  0
  5  7  1  0  0  0
  7 13  1  0  0  0
  7  8  1  0  0  0
 13 14  1  0  0  0
  8  9  1  0  0  0
  4 10  1  0  0  0
  6 11  1  0  0  0
 14 15  1  0  0  0
  9 12  1  0  0  0
M  END
> <minimizedAffinity>
-6.72903

$$$$
4UFJ_IF7_A_1001


 15 15  0  0  0  0  0  0  0  0999 V2000
   78.9283   86.0503   17.1307 O   0  0  0  0  0  0  0  0  0  0  0  0
   78.7966   87.0005   17.9081 C   0  0  0  0  0  0  0  0  0  0  0  0
   78.2467   88.2890   17.3111 C   0  0  0  0  0  0  0  0  0  0  0  0
   77.2079   88.0002   16.3893 O   0  0  0  0  0  0  0  0  0  0  0  0
   77.7486   89.2473   18.3890 C   0  0  0  0  0  0  0  0  0  0  0  0
   76.5009   88.7869   18.8970 O   0  0  0  0  0  0  0  0  0  0  0  0
   78.7761   89.3746   19.5139 C   0  0  0  0  0  0  0  0  0  0  0  0
   79.0127   88.0056   20.1668 C   0  0  0  0  0  0  0  0  0  0  0  0
   79.1475   86.9205   19.1848 N   0  0  0  0  0  0  0  0  0  0  0  0
   76.4778   87.5603   16.8523 H   0  0  0  0  0  0  0  0  0  0  0  0
   76.6164   87.9076   19.2900 H   0  0  0  0  0  0  0  0  0  0  0  0
   79.5275   86.0683   19.4989 H   0  0  0  0  0  0  0  0  0  0  0  0
   78.3339   90.3575   20.5773 C   0  0  0  0  0  0  0  0  0  0  0  0
   77.5075   89.7260   21.5343 O   0  0  0  0  0  0  0  0  0  0  0  0
   76.7158   89.3755   21.0968 H   0  0  0  0  0  0  0  0  0  0  0  0
  1  2  2  0  0  0
  2  3  1  0  0  0
  2  9  1  0  0  0
  3  4  1  0  0  0
  3  5  1  0  0  0
  5  6  1  0  0  0
  5  7  1  0  0  0
  7 13  1  0  0  0
  7  8  1  0  0  0
 13 14  1  0  0  0
  8  9  1  0  0  0
  4 10  1  0  0  0
  6 11  1  0  0  0
 14 15  1  0  0  0
  9 12  1  0  0  0
M  END
> <minimizedAffinity>
-6.33639

$$$$
4UFJ_IF7_A_1001


 15 15  0  0  0  0  0  0  0  0999 V2000
   79.2618   89.2800   21.0446 O   0  0  0  0  0  0  0  0  0  0  0  0
   78.9223   88.5588   20.1016 C   0  0  0  0  0  0  0  0  0  0  0  0
   78.6710   89.2595   18.7732 C   0  0  0  0  0  0  0  0  0  0  0  0
   79.6444   90.2683   18.5569 O   0  0  0  0  0  0  0  0  0  0  0  0
   78.6569   88.2764   17.6061 C   0  0  0  0  0  0  0  0  0  0  0  0
   79.9895   87.8779   17.3022 O   0  0  0  0  0  0  0  0  0  0  0  0
   77.7912   87.0603   17.9359 C   0  0  0  0  0  0  0  0  0  0  0  0
   78.3540   86.3322   19.1645 C   0  0  0  0  0  0  0  0  0  0  0  0
   78.7489   87.2511   20.2414 N   0  0  0  0  0  0  0  0  0  0  0  0
   80.5246   89.8634   18.5093 H   0  0  0  0  0  0  0  0  0  0  0  0
   80.3802   87.4401   18.0746 H   0  0  0  0  0  0  0  0  0  0  0  0
   78.8961   86.8664   21.1355 H   0  0  0  0  0  0  0  0  0  0  0  0
   77.7159   86.0872   16.7784 C   0  0  0  0  0  0  0  0  0  0  0  0
   78.8104   85.1932   16.8002 O   0  0  0  0  0  0  0  0  0  0  0  0
   79.6379   85.6932   16.7231 H   0  0  0  0  0  0  0  0  0  0  0  0
  1  2  2  0  0  0
  2  3  1  0  0  0
  2  9  1  0  0  0
  3  4  1  0  0  0
  3  5  1  0  0  0
  5  6  1  0  0  0
  5  7  1  0  0  0
  7 13  1  0  0  0
  7  8  1  0  0  0
 13 14  1  0  0  0
  8  9  1  0  0  0
  4 10  1  0  0  0
  6 11  1  0  0  0
 14 15  1  0  0  0
  9 12  1  0  0  0
M  END
> <minimizedAffinity>
-5.96867

$$$$
4UFJ_IF7_A_1001


 15 15  0  0  0  0  0  0  0  0999 V2000
   76.5745   86.0285   16.7576 O   0  0  0  0  0  0  0  0  0  0  0  0
   77.2825   86.7284   17.4881 C   0  0  0  0  0  0  0  0  0  0  0  0
   77.9911   87.8989   16.8197 C   0  0  0  0  0  0  0  0  0  0  0  0
   77.1294   88.5267   15.8842 O   0  0  0  0  0  0  0  0  0  0  0  0
   78.4970   88.9144   17.8401 C   0  0  0  0  0  0  0  0  0  0  0  0
   77.4027   89.6794   18.3345 O   0  0  0  0  0  0  0  0  0  0  0  0
   79.2255   88.2109   18.9854 C   0  0  0  0  0  0  0  0  0  0  0  0
   78.2691   87.2496   19.7048 C   0  0  0  0  0  0  0  0  0  0  0  0
   77.4495   86.4586   18.7761 N   0  0  0  0  0  0  0  0  0  0  0  0
   76.3544   88.8825   16.3466 H   0  0  0  0  0  0  0  0  0  0  0  0
   76.7665   89.0902   18.7692 H   0  0  0  0  0  0  0  0  0  0  0  0
   76.9887   85.6673   19.1379 H   0  0  0  0  0  0  0  0  0  0  0  0
   79.7837   89.1949   19.9917 C   0  0  0  0  0  0  0  0  0  0  0  0
   78.8635   89.4188   21.0408 O   0  0  0  0  0  0  0  0  0  0  0  0
   78.0432   89.7882   20.6780 H   0  0  0  0  0  0  0  0  0  0  0  0
  1  2  2  0  0  0
  2  3  1  0  0  0
  2  9  1  0  0  0
  3  4  1  0  0  0
  3  5  1  0  0  0
  5  6  1  0  0  0
  5  7  1  0  0  0
  7 13  1  0  0  0
  7  8  1  0  0  0
 13 14  1  0  0  0
  8  9  1  0  0  0
  4 10  1  0  0  0
  6 11  1  0  0  0
 14 15  1  0  0  0
  9 12  1  0  0  0
M  END
> <minimizedAffinity>
-5.83949

$$$$
4UFJ_IF7_A_1001


 15 15  0  0  0  0  0  0  0  0999 V2000
   79.8238   88.5784   20.9035 O   0  0  0  0  0  0  0  0  0  0  0  0
   79.2648   88.2413   19.8554 C   0  0  0  0  0  0  0  0  0  0  0  0
   78.6085   89.3563   19.0523 C   0  0  0  0  0  0  0  0  0  0  0  0
   79.4273   90.5145   19.0580 O   0  0  0  0  0  0  0  0  0  0  0  0
   78.3097   88.9243   17.6196 C   0  0  0  0  0  0  0  0  0  0  0  0
   79.5174   88.9037   16.8660 O   0  0  0  0  0  0  0  0  0  0  0  0
   77.6368   87.5517   17.5994 C   0  0  0  0  0  0  0  0  0  0  0  0
   78.5639   86.5027   18.2291 C   0  0  0  0  0  0  0  0  0  0  0  0
   79.2044   86.9751   19.4646 N   0  0  0  0  0  0  0  0  0  0  0  0
   80.2760   90.3125   18.6339 H   0  0  0  0  0  0  0  0  0  0  0  0
   80.1345   88.2684   17.2615 H   0  0  0  0  0  0  0  0  0  0  0  0
   79.6208   86.2995   20.0473 H   0  0  0  0  0  0  0  0  0  0  0  0
   77.2817   87.1149   16.1939 C   0  0  0  0  0  0  0  0  0  0  0  0
   76.9612   88.2295   15.3861 O   0  0  0  0  0  0  0  0  0  0  0  0
   76.1963   88.6923   15.7625 H   0  0  0  0  0  0  0  0  0  0  0  0
  1  2  2  0  0  0
  2  3  1  0  0  0
  2  9  1  0  0  0
  3  4  1  0  0  0
  3  5  1  0  0  0
  5  6  1  0  0  0
  5  7  1  0  0  0
  7 13  1  0  0  0
  7  8  1  0  0  0
 13 14  1  0  0  0
  8  9  1  0  0  0
  4 10  1  0  0  0
  6 11  1  0  0  0
 14 15  1  0  0  0
  9 12  1  0  0  0
M  END
> <minimizedAffinity>
-5.83917

$$$$
4UFJ_IF7_A_1001


 15 15  0  0  0  0  0  0  0  0999 V2000
   76.8120   86.8068   15.7818 O   0  0  0  0  0  0  0  0  0  0  0  0
   77.4264   87.3115   16.7264 C   0  0  0  0  0  0  0  0  0  0  0  0
   78.2232   86.3534   17.6017 C   0  0  0  0  0  0  0  0  0  0  0  0
   78.8672   85.3755   16.8012 O   0  0  0  0  0  0  0  0  0  0  0  0
   79.2439   87.0884   18.4656 C   0  0  0  0  0  0  0  0  0  0  0  0
   80.3476   87.4911   17.6614 O   0  0  0  0  0  0  0  0  0  0  0  0
   78.6026   88.2973   19.1472 C   0  0  0  0  0  0  0  0  0  0  0  0
   78.0783   89.2796   18.0905 C   0  0  0  0  0  0  0  0  0  0  0  0
   77.3696   88.6102   16.9907 N   0  0  0  0  0  0  0  0  0  0  0  0
   79.4939   85.8099   16.2017 H   0  0  0  0  0  0  0  0  0  0  0  0
   80.0382   88.0911   16.9648 H   0  0  0  0  0  0  0  0  0  0  0  0
   76.8093   89.1688   16.4048 H   0  0  0  0  0  0  0  0  0  0  0  0
   79.5771   89.0212   20.0521 C   0  0  0  0  0  0  0  0  0  0  0  0
   78.9291   89.4895   21.2176 O   0  0  0  0  0  0  0  0  0  0  0  0
   78.2265   90.1105   20.9696 H   0  0  0  0  0  0  0  0  0  0  0  0
  1  2  2  0  0  0
  2  3  1  0  0  0
  2  9  1  0  0  0
  3  4  1  0  0  0
  3  5  1  0  0  0
  5  6  1  0  0  0
  5  7  1  0  0  0
  7 13  1  0  0  0
  7  8  1  0  0  0
 13 14  1  0  0  0
  8  9  1  0  0  0
  4 10  1  0  0  0
  6 11  1  0  0  0
 14 15  1  0  0  0
  9 12  1  0  0  0
M  END
> <minimizedAffinity>
-5.72355

$$$$
4UFJ_IF7_A_1001


 15 15  0  0  0  0  0  0  0  0999 V2000
   76.0392   89.3580   19.7192 O   0  0  0  0  0  0  0  0  0  0  0  0
   77.2296   89.2234   19.4200 C   0  0  0  0  0  0  0  0  0  0  0  0
   77.6426   87.8546   18.8959 C   0  0  0  0  0  0  0  0  0  0  0  0
   76.6481   87.3404   18.0250 O   0  0  0  0  0  0  0  0  0  0  0  0
   78.9944   87.9009   18.1896 C   0  0  0  0  0  0  0  0  0  0  0  0
   78.8420   88.4997   16.9069 O   0  0  0  0  0  0  0  0  0  0  0  0
   80.0147   88.6714   19.0277 C   0  0  0  0  0  0  0  0  0  0  0  0
   79.5384   90.1154   19.2386 C   0  0  0  0  0  0  0  0  0  0  0  0
   78.1112   90.2018   19.5789 N   0  0  0  0  0  0  0  0  0  0  0  0
   76.5540   87.9280   17.2590 H   0  0  0  0  0  0  0  0  0  0  0  0
   78.5124   89.4061   17.0103 H   0  0  0  0  0  0  0  0  0  0  0  0
   77.7843   91.0513   19.9538 H   0  0  0  0  0  0  0  0  0  0  0  0
   81.3817   88.6938   18.3773 C   0  0  0  0  0  0  0  0  0  0  0  0
   81.3096   88.2477   17.0381 O   0  0  0  0  0  0  0  0  0  0  0  0
   80.9790   87.3360   17.0185 H   0  0  0  0  0  0  0  0  0  0  0  0
  1  2  2  0  0  0
  2  3  1  0  0  0
  2  9  1  0  0  0
  3  4  1  0  0  0
  3  5  1  0  0  0
  5  6  1  0  0  0
  5  7  1  0  0  0
  7 13  1  0  0  0
  7  8  1  0  0  0
 13 14  1  0  0  0
  8  9  1  0  0  0
  4 10  1  0  0  0
  6 11  1  0  0  0
 14 15  1  0  0  0
  9 12  1  0  0  0
M  END
> <minimizedAffinity>
-5.56389

$$$$
