2CA8_GSH_A_1212


 27 26  0  0  0  0  0  0  0  0999 V2000
    2.6912   10.3426   44.0551 C   0  0  0  0  0  0  0  0  0  0  0  0
    1.5731    9.5147   43.8562 O   0  0  0  0  0  0  0  0  0  0  0  0
    3.9324    9.9405   43.8140 N   0  0  0  0  0  0  0  0  0  0  0  0
    4.6685   10.4902   44.1678 H   0  0  0  0  0  0  0  0  0  0  0  0
    2.5540   11.7708   44.5341 C   0  0  0  0  0  0  0  0  0  0  0  0
    3.2826   12.7622   43.6438 C   0  0  0  0  0  0  0  0  0  0  0  0
    5.7766   12.6050   43.5999 N   0  0  0  0  0  0  0  0  0  0  0  0
    4.6251   13.2682   44.2006 C   0  0  0  0  0  0  0  0  0  0  0  0
    6.6344   12.9792   44.0056 H   0  0  0  0  0  0  0  0  0  0  0  0
    5.7767   12.7695   42.5932 H   0  0  0  0  0  0  0  0  0  0  0  0
    4.8953   14.7473   44.1509 C   0  0  0  0  0  0  0  0  0  0  0  0
    4.8582   15.3276   45.2594 O   0  0  0  0  0  0  0  0  0  0  0  0
    5.1494   15.4041   43.1137 O   0  0  0  0  0  0  0  0  0  0  0  0
    5.1781   14.9737   42.2819 H   0  0  0  0  0  0  0  0  0  0  0  0
    4.2799    8.7515   43.0680 C   0  0  0  0  0  0  0  0  0  0  0  0
    4.4039    7.6571   44.0542 C   0  0  0  0  0  0  0  0  0  0  0  0
    5.6354    6.9835   44.0951 O   0  0  0  0  0  0  0  0  0  0  0  0
    3.3427    7.3978   44.8139 N   0  0  0  0  0  0  0  0  0  0  0  0
    2.7081    8.1240   45.0118 H   0  0  0  0  0  0  0  0  0  0  0  0
    3.0925    6.0743   45.3601 C   0  0  0  0  0  0  0  0  0  0  0  0
    1.6481    5.9609   45.7704 C   0  0  0  0  0  0  0  0  0  0  0  0
    1.2483    5.0369   46.5082 O   0  0  0  0  0  0  0  0  0  0  0  0
    0.8290    6.8100   45.3722 O   0  0  0  0  0  0  0  0  0  0  0  0
    1.1123    7.5102   44.8178 H   0  0  0  0  0  0  0  0  0  0  0  0
    5.6416    8.8694   42.4025 C   0  0  0  0  0  0  0  0  0  0  0  0
    5.5242    8.7824   40.6010 S   0  0  0  0  0  0  0  0  0  0  0  0
    5.0014    7.5805   40.2383 H   0  0  0  0  0  0  0  0  0  0  0  0
  7  8  1  0  0  0
  8 11  1  0  0  0
  8  6  1  0  0  0
 11 12  2  0  0  0
 11 13  1  0  0  0
  6  5  1  0  0  0
  5  1  1  0  0  0
  1  2  2  0  0  0
  1  3  1  0  0  0
  3 15  1  0  0  0
 15 16  1  0  0  0
 15 25  1  0  0  0
 16 17  2  0  0  0
 16 18  1  0  0  0
 25 26  1  0  0  0
 18 20  1  0  0  0
 20 21  1  0  0  0
 21 22  2  0  0  0
 21 23  1  0  0  0
  7  9  1  0  0  0
  7 10  1  0  0  0
 13 14  1  0  0  0
  3  4  1  0  0  0
 26 27  1  0  0  0
 18 19  1  0  0  0
 23 24  1  0  0  0
M  END
> <minimizedAffinity>
-6.30527

$$$$
2CA8_GSH_A_1212


 27 26  0  0  0  0  0  0  0  0999 V2000
    3.9515    9.0092   43.9398 C   0  0  0  0  0  0  0  0  0  0  0  0
    4.7883    9.2990   45.0311 O   0  0  0  0  0  0  0  0  0  0  0  0
    2.9039    9.7586   43.6214 N   0  0  0  0  0  0  0  0  0  0  0  0
    2.2518    9.3868   42.9845 H   0  0  0  0  0  0  0  0  0  0  0  0
    4.2061    7.8299   43.0276 C   0  0  0  0  0  0  0  0  0  0  0  0
    5.5204    7.9418   42.2747 C   0  0  0  0  0  0  0  0  0  0  0  0
    6.6363   10.1721   42.4386 N   0  0  0  0  0  0  0  0  0  0  0  0
    5.7815    9.3132   41.6272 C   0  0  0  0  0  0  0  0  0  0  0  0
    6.7739   11.0631   41.9615 H   0  0  0  0  0  0  0  0  0  0  0  0
    7.5390    9.7184   42.5788 H   0  0  0  0  0  0  0  0  0  0  0  0
    6.3359    9.3374   40.2289 C   0  0  0  0  0  0  0  0  0  0  0  0
    5.8218    8.5091   39.4436 O   0  0  0  0  0  0  0  0  0  0  0  0
    7.2373   10.1061   39.8188 O   0  0  0  0  0  0  0  0  0  0  0  0
    7.6248   10.7276   40.4032 H   0  0  0  0  0  0  0  0  0  0  0  0
    2.6526   11.0832   44.1443 C   0  0  0  0  0  0  0  0  0  0  0  0
    1.1870   11.2054   44.2945 C   0  0  0  0  0  0  0  0  0  0  0  0
    0.5427   12.1255   43.4517 O   0  0  0  0  0  0  0  0  0  0  0  0
    0.6026   10.4421   45.2146 N   0  0  0  0  0  0  0  0  0  0  0  0
    1.0186    9.5834   45.4572 H   0  0  0  0  0  0  0  0  0  0  0  0
   -0.6315   10.8385   45.8720 C   0  0  0  0  0  0  0  0  0  0  0  0
   -1.2075    9.6639   46.6178 C   0  0  0  0  0  0  0  0  0  0  0  0
   -1.8964    8.7971   46.0415 O   0  0  0  0  0  0  0  0  0  0  0  0
   -0.9898    9.5458   47.8381 O   0  0  0  0  0  0  0  0  0  0  0  0
   -0.4747   10.1875   48.2863 H   0  0  0  0  0  0  0  0  0  0  0  0
    3.0641   12.1730   43.1677 C   0  0  0  0  0  0  0  0  0  0  0  0
    4.3662   13.2297   43.8419 S   0  0  0  0  0  0  0  0  0  0  0  0
    3.9128   13.8464   44.9660 H   0  0  0  0  0  0  0  0  0  0  0  0
  7  8  1  0  0  0
  8 11  1  0  0  0
  8  6  1  0  0  0
 11 12  2  0  0  0
 11 13  1  0  0  0
  6  5  1  0  0  0
  5  1  1  0  0  0
  1  2  2  0  0  0
  1  3  1  0  0  0
  3 15  1  0  0  0
 15 16  1  0  0  0
 15 25  1  0  0  0
 16 17  2  0  0  0
 16 18  1  0  0  0
 25 26  1  0  0  0
 18 20  1  0  0  0
 20 21  1  0  0  0
 21 22  2  0  0  0
 21 23  1  0  0  0
  7  9  1  0  0  0
  7 10  1  0  0  0
 13 14  1  0  0  0
  3  4  1  0  0  0
 26 27  1  0  0  0
 18 19  1  0  0  0
 23 24  1  0  0  0
M  END
> <minimizedAffinity>
-6.26023

$$$$
2CA8_GSH_A_1212


 27 26  0  0  0  0  0  0  0  0999 V2000
    5.9898    9.0887   40.1047 C   0  0  0  0  0  0  0  0  0  0  0  0
    5.0753    8.2287   39.4728 O   0  0  0  0  0  0  0  0  0  0  0  0
    5.7582    9.6332   41.2923 N   0  0  0  0  0  0  0  0  0  0  0  0
    6.3376   10.3770   41.5756 H   0  0  0  0  0  0  0  0  0  0  0  0
    7.3250    9.4330   39.4830 C   0  0  0  0  0  0  0  0  0  0  0  0
    8.4843    8.7016   40.1368 C   0  0  0  0  0  0  0  0  0  0  0  0
    8.8842   10.9348   41.1852 N   0  0  0  0  0  0  0  0  0  0  0  0
    9.2796    9.5314   41.1602 C   0  0  0  0  0  0  0  0  0  0  0  0
    9.4423   11.4330   41.8786 H   0  0  0  0  0  0  0  0  0  0  0  0
    7.8964   11.0054   41.4294 H   0  0  0  0  0  0  0  0  0  0  0  0
    9.3015    9.0560   42.5873 C   0  0  0  0  0  0  0  0  0  0  0  0
    8.1848    9.0333   43.1525 O   0  0  0  0  0  0  0  0  0  0  0  0
   10.3236    8.6922   43.2154 O   0  0  0  0  0  0  0  0  0  0  0  0
   11.1614    8.7077   42.7961 H   0  0  0  0  0  0  0  0  0  0  0  0
    4.7145    9.2109   42.1997 C   0  0  0  0  0  0  0  0  0  0  0  0
    4.5859   10.2751   43.2179 C   0  0  0  0  0  0  0  0  0  0  0  0
    4.6358    9.8698   44.5614 O   0  0  0  0  0  0  0  0  0  0  0  0
    4.4285   11.5218   42.7801 N   0  0  0  0  0  0  0  0  0  0  0  0
    4.7972   11.7696   41.9015 H   0  0  0  0  0  0  0  0  0  0  0  0
    3.7287   12.5285   43.5606 C   0  0  0  0  0  0  0  0  0  0  0  0
    2.3373   12.0471   43.8766 C   0  0  0  0  0  0  0  0  0  0  0  0
    1.4171   12.1083   43.0355 O   0  0  0  0  0  0  0  0  0  0  0  0
    2.0942   11.5698   45.0006 O   0  0  0  0  0  0  0  0  0  0  0  0
    2.7734   11.5164   45.6439 H   0  0  0  0  0  0  0  0  0  0  0  0
    5.0913    7.9496   42.9601 C   0  0  0  0  0  0  0  0  0  0  0  0
    3.9127    6.6095   42.6742 S   0  0  0  0  0  0  0  0  0  0  0  0
    2.6810    6.9888   43.1083 H   0  0  0  0  0  0  0  0  0  0  0  0
  7  8  1  0  0  0
  8 11  1  0  0  0
  8  6  1  0  0  0
 11 12  2  0  0  0
 11 13  1  0  0  0
  6  5  1  0  0  0
  5  1  1  0  0  0
  1  2  2  0  0  0
  1  3  1  0  0  0
  3 15  1  0  0  0
 15 16  1  0  0  0
 15 25  1  0  0  0
 16 17  2  0  0  0
 16 18  1  0  0  0
 25 26  1  0  0  0
 18 20  1  0  0  0
 20 21  1  0  0  0
 21 22  2  0  0  0
 21 23  1  0  0  0
  7  9  1  0  0  0
  7 10  1  0  0  0
 13 14  1  0  0  0
  3  4  1  0  0  0
 26 27  1  0  0  0
 18 19  1  0  0  0
 23 24  1  0  0  0
M  END
> <minimizedAffinity>
-6.21736

$$$$
2CA8_GSH_A_1212


 27 26  0  0  0  0  0  0  0  0999 V2000
    4.0033    8.3834   44.0836 C   0  0  0  0  0  0  0  0  0  0  0  0
    4.8213    8.7310   45.1724 O   0  0  0  0  0  0  0  0  0  0  0  0
    4.2115    8.8418   42.8560 N   0  0  0  0  0  0  0  0  0  0  0  0
    3.4900    8.7268   42.1961 H   0  0  0  0  0  0  0  0  0  0  0  0
    2.8369    7.4318   44.2312 C   0  0  0  0  0  0  0  0  0  0  0  0
    1.5043    8.0785   43.8957 C   0  0  0  0  0  0  0  0  0  0  0  0
    0.6965    6.5979   45.7401 N   0  0  0  0  0  0  0  0  0  0  0  0
    0.3240    7.6229   44.7719 C   0  0  0  0  0  0  0  0  0  0  0  0
   -0.1218    6.3361   46.2899 H   0  0  0  0  0  0  0  0  0  0  0  0
    1.4201    6.9623   46.3597 H   0  0  0  0  0  0  0  0  0  0  0  0
   -0.4437    8.6768   45.5221 C   0  0  0  0  0  0  0  0  0  0  0  0
   -0.2905    9.8439   45.0964 O   0  0  0  0  0  0  0  0  0  0  0  0
   -1.1986    8.4662   46.5007 O   0  0  0  0  0  0  0  0  0  0  0  0
   -1.3161    7.5941   46.8225 H   0  0  0  0  0  0  0  0  0  0  0  0
    5.4235    9.4984   42.4193 C   0  0  0  0  0  0  0  0  0  0  0  0
    5.2596   10.9345   42.7297 C   0  0  0  0  0  0  0  0  0  0  0  0
    6.3818   11.5974   43.2524 O   0  0  0  0  0  0  0  0  0  0  0  0
    4.0673   11.4768   42.4950 N   0  0  0  0  0  0  0  0  0  0  0  0
    3.4980   11.0919   41.7900 H   0  0  0  0  0  0  0  0  0  0  0  0
    3.5806   12.6204   43.2484 C   0  0  0  0  0  0  0  0  0  0  0  0
    3.2683   12.2005   44.6604 C   0  0  0  0  0  0  0  0  0  0  0  0
    3.9587   12.5871   45.6257 O   0  0  0  0  0  0  0  0  0  0  0  0
    2.2952   11.4545   44.8772 O   0  0  0  0  0  0  0  0  0  0  0  0
    1.7664   11.1551   44.1640 H   0  0  0  0  0  0  0  0  0  0  0  0
    5.6097    9.4159   40.9129 C   0  0  0  0  0  0  0  0  0  0  0  0
    6.2005    7.7892   40.3919 S   0  0  0  0  0  0  0  0  0  0  0  0
    7.4106    7.5426   40.9615 H   0  0  0  0  0  0  0  0  0  0  0  0
  7  8  1  0  0  0
  8 11  1  0  0  0
  8  6  1  0  0  0
 11 12  2  0  0  0
 11 13  1  0  0  0
  6  5  1  0  0  0
  5  1  1  0  0  0
  1  2  2  0  0  0
  1  3  1  0  0  0
  3 15  1  0  0  0
 15 16  1  0  0  0
 15 25  1  0  0  0
 16 17  2  0  0  0
 16 18  1  0  0  0
 25 26  1  0  0  0
 18 20  1  0  0  0
 20 21  1  0  0  0
 21 22  2  0  0  0
 21 23  1  0  0  0
  7  9  1  0  0  0
  7 10  1  0  0  0
 13 14  1  0  0  0
  3  4  1  0  0  0
 26 27  1  0  0  0
 18 19  1  0  0  0
 23 24  1  0  0  0
M  END
> <minimizedAffinity>
-6.13836

$$$$
2CA8_GSH_A_1212


 27 26  0  0  0  0  0  0  0  0999 V2000
    4.0946   11.1523   43.1928 C   0  0  0  0  0  0  0  0  0  0  0  0
    4.3285   10.7373   44.5151 O   0  0  0  0  0  0  0  0  0  0  0  0
    4.7352   10.6310   42.1544 N   0  0  0  0  0  0  0  0  0  0  0  0
    4.6753   11.1060   41.2942 H   0  0  0  0  0  0  0  0  0  0  0  0
    3.0672   12.2101   42.8563 C   0  0  0  0  0  0  0  0  0  0  0  0
    3.1906   13.4480   43.7274 C   0  0  0  0  0  0  0  0  0  0  0  0
    4.7092   15.2640   42.9257 N   0  0  0  0  0  0  0  0  0  0  0  0
    4.5948   14.0767   43.7648 C   0  0  0  0  0  0  0  0  0  0  0  0
    5.6569   15.6357   42.9900 H   0  0  0  0  0  0  0  0  0  0  0  0
    4.0449   15.9699   43.2431 H   0  0  0  0  0  0  0  0  0  0  0  0
    5.1718   14.4314   45.1080 C   0  0  0  0  0  0  0  0  0  0  0  0
    5.9754   13.5927   45.5747 O   0  0  0  0  0  0  0  0  0  0  0  0
    4.9127   15.4720   45.7573 O   0  0  0  0  0  0  0  0  0  0  0  0
    4.3118   16.1024   45.4117 H   0  0  0  0  0  0  0  0  0  0  0  0
    5.5153    9.4142   42.1974 C   0  0  0  0  0  0  0  0  0  0  0  0
    6.4551    9.4761   41.0578 C   0  0  0  0  0  0  0  0  0  0  0  0
    6.0325    8.8762   39.8605 O   0  0  0  0  0  0  0  0  0  0  0  0
    7.6198   10.0867   41.2607 N   0  0  0  0  0  0  0  0  0  0  0  0
    7.6746   10.7975   41.9396 H   0  0  0  0  0  0  0  0  0  0  0  0
    8.8135    9.7354   40.5095 C   0  0  0  0  0  0  0  0  0  0  0  0
   10.0246   10.3334   41.1752 C   0  0  0  0  0  0  0  0  0  0  0  0
   10.3750   11.5118   40.9590 O   0  0  0  0  0  0  0  0  0  0  0  0
   10.6934    9.6425   41.9661 O   0  0  0  0  0  0  0  0  0  0  0  0
   10.4444    8.7560   42.1398 H   0  0  0  0  0  0  0  0  0  0  0  0
    4.6619    8.1773   41.9675 C   0  0  0  0  0  0  0  0  0  0  0  0
    4.4409    7.2164   43.4822 S   0  0  0  0  0  0  0  0  0  0  0  0
    5.6526    6.7920   43.9307 H   0  0  0  0  0  0  0  0  0  0  0  0
  7  8  1  0  0  0
  8 11  1  0  0  0
  8  6  1  0  0  0
 11 12  2  0  0  0
 11 13  1  0  0  0
  6  5  1  0  0  0
  5  1  1  0  0  0
  1  2  2  0  0  0
  1  3  1  0  0  0
  3 15  1  0  0  0
 15 16  1  0  0  0
 15 25  1  0  0  0
 16 17  2  0  0  0
 16 18  1  0  0  0
 25 26  1  0  0  0
 18 20  1  0  0  0
 20 21  1  0  0  0
 21 22  2  0  0  0
 21 23  1  0  0  0
  7  9  1  0  0  0
  7 10  1  0  0  0
 13 14  1  0  0  0
  3  4  1  0  0  0
 26 27  1  0  0  0
 18 19  1  0  0  0
 23 24  1  0  0  0
M  END
> <minimizedAffinity>
-6.07528

$$$$
2CA8_GSH_A_1212


 27 26  0  0  0  0  0  0  0  0999 V2000
    3.8737   10.9437   43.6136 C   0  0  0  0  0  0  0  0  0  0  0  0
    4.3980   11.0885   44.9095 O   0  0  0  0  0  0  0  0  0  0  0  0
    3.9133    9.7961   42.9488 N   0  0  0  0  0  0  0  0  0  0  0  0
    3.7201    9.8194   41.9838 H   0  0  0  0  0  0  0  0  0  0  0  0
    3.1962   12.0877   42.8924 C   0  0  0  0  0  0  0  0  0  0  0  0
    3.2489   13.3890   43.6736 C   0  0  0  0  0  0  0  0  0  0  0  0
    4.6528   15.3233   42.9430 N   0  0  0  0  0  0  0  0  0  0  0  0
    4.6261   14.0755   43.6971 C   0  0  0  0  0  0  0  0  0  0  0  0
    5.5862   15.7314   42.9938 H   0  0  0  0  0  0  0  0  0  0  0  0
    3.9749   15.9745   43.3390 H   0  0  0  0  0  0  0  0  0  0  0  0
    5.2486   14.3590   45.0369 C   0  0  0  0  0  0  0  0  0  0  0  0
    4.9124   15.4479   45.5546 O   0  0  0  0  0  0  0  0  0  0  0  0
    6.0439   13.6023   45.6423 O   0  0  0  0  0  0  0  0  0  0  0  0
    6.2982   12.7862   45.2584 H   0  0  0  0  0  0  0  0  0  0  0  0
    4.2204    8.5137   43.5422 C   0  0  0  0  0  0  0  0  0  0  0  0
    5.4237    8.0064   42.8489 C   0  0  0  0  0  0  0  0  0  0  0  0
    6.5652    7.7992   43.6401 O   0  0  0  0  0  0  0  0  0  0  0  0
    5.3285    7.7944   41.5388 N   0  0  0  0  0  0  0  0  0  0  0  0
    4.4498    7.5742   41.1531 H   0  0  0  0  0  0  0  0  0  0  0  0
    6.4832    7.8781   40.6601 C   0  0  0  0  0  0  0  0  0  0  0  0
    6.4757    9.2000   39.9389 C   0  0  0  0  0  0  0  0  0  0  0  0
    7.4391    9.5667   39.2351 O   0  0  0  0  0  0  0  0  0  0  0  0
    5.4846    9.9471   40.0383 O   0  0  0  0  0  0  0  0  0  0  0  0
    4.7527    9.6872   40.5626 H   0  0  0  0  0  0  0  0  0  0  0  0
    3.1284    7.4874   43.2871 C   0  0  0  0  0  0  0  0  0  0  0  0
    1.5294    8.0252   43.9357 S   0  0  0  0  0  0  0  0  0  0  0  0
    1.6192    8.1915   45.2825 H   0  0  0  0  0  0  0  0  0  0  0  0
  7  8  1  0  0  0
  8 11  1  0  0  0
  8  6  1  0  0  0
 11 12  2  0  0  0
 11 13  1  0  0  0
  6  5  1  0  0  0
  5  1  1  0  0  0
  1  2  2  0  0  0
  1  3  1  0  0  0
  3 15  1  0  0  0
 15 16  1  0  0  0
 15 25  1  0  0  0
 16 17  2  0  0  0
 16 18  1  0  0  0
 25 26  1  0  0  0
 18 20  1  0  0  0
 20 21  1  0  0  0
 21 22  2  0  0  0
 21 23  1  0  0  0
  7  9  1  0  0  0
  7 10  1  0  0  0
 13 14  1  0  0  0
  3  4  1  0  0  0
 26 27  1  0  0  0
 18 19  1  0  0  0
 23 24  1  0  0  0
M  END
> <minimizedAffinity>
-6.06581

$$$$
2CA8_GSH_A_1212


 27 26  0  0  0  0  0  0  0  0999 V2000
    4.0368    8.8799   43.9823 C   0  0  0  0  0  0  0  0  0  0  0  0
    4.6038    8.8185   45.2668 O   0  0  0  0  0  0  0  0  0  0  0  0
    4.6672    8.4440   42.8993 N   0  0  0  0  0  0  0  0  0  0  0  0
    4.3041    8.7049   42.0222 H   0  0  0  0  0  0  0  0  0  0  0  0
    2.6455    9.4249   43.7473 C   0  0  0  0  0  0  0  0  0  0  0  0
    2.4810   10.8510   44.2429 C   0  0  0  0  0  0  0  0  0  0  0  0
    2.2335   12.9944   42.9816 N   0  0  0  0  0  0  0  0  0  0  0  0
    3.1470   11.9237   43.3630 C   0  0  0  0  0  0  0  0  0  0  0  0
    2.7278   13.6728   42.4022 H   0  0  0  0  0  0  0  0  0  0  0  0
    1.8816   13.4560   43.8204 H   0  0  0  0  0  0  0  0  0  0  0  0
    4.3998   12.5783   43.8780 C   0  0  0  0  0  0  0  0  0  0  0  0
    4.2125   13.4890   44.7161 O   0  0  0  0  0  0  0  0  0  0  0  0
    5.5683   12.2770   43.5382 O   0  0  0  0  0  0  0  0  0  0  0  0
    5.7130   11.5959   42.9112 H   0  0  0  0  0  0  0  0  0  0  0  0
    5.8503    7.6128   42.9167 C   0  0  0  0  0  0  0  0  0  0  0  0
    6.9472    8.4298   42.3555 C   0  0  0  0  0  0  0  0  0  0  0  0
    7.0093    9.7699   42.7704 O   0  0  0  0  0  0  0  0  0  0  0  0
    7.7774    7.8333   41.5037 N   0  0  0  0  0  0  0  0  0  0  0  0
    7.9201    6.8619   41.5769 H   0  0  0  0  0  0  0  0  0  0  0  0
    8.4800    8.5732   40.4686 C   0  0  0  0  0  0  0  0  0  0  0  0
    7.4834    9.2070   39.5345 C   0  0  0  0  0  0  0  0  0  0  0  0
    6.8317    8.5280   38.7145 O   0  0  0  0  0  0  0  0  0  0  0  0
    7.2960   10.4371   39.5806 O   0  0  0  0  0  0  0  0  0  0  0  0
    7.7768   10.9617   40.1902 H   0  0  0  0  0  0  0  0  0  0  0  0
    5.7177    6.4069   42.0005 C   0  0  0  0  0  0  0  0  0  0  0  0
    4.1802    6.4441   41.0512 S   0  0  0  0  0  0  0  0  0  0  0  0
    3.1205    6.4210   41.9033 H   0  0  0  0  0  0  0  0  0  0  0  0
  7  8  1  0  0  0
  8 11  1  0  0  0
  8  6  1  0  0  0
 11 12  2  0  0  0
 11 13  1  0  0  0
  6  5  1  0  0  0
  5  1  1  0  0  0
  1  2  2  0  0  0
  1  3  1  0  0  0
  3 15  1  0  0  0
 15 16  1  0  0  0
 15 25  1  0  0  0
 16 17  2  0  0  0
 16 18  1  0  0  0
 25 26  1  0  0  0
 18 20  1  0  0  0
 20 21  1  0  0  0
 21 22  2  0  0  0
 21 23  1  0  0  0
  7  9  1  0  0  0
  7 10  1  0  0  0
 13 14  1  0  0  0
  3  4  1  0  0  0
 26 27  1  0  0  0
 18 19  1  0  0  0
 23 24  1  0  0  0
M  END
> <minimizedAffinity>
-5.92852

$$$$
2CA8_GSH_A_1212


 27 26  0  0  0  0  0  0  0  0999 V2000
    4.2625    7.5095   41.5314 C   0  0  0  0  0  0  0  0  0  0  0  0
    3.4228    6.4073   41.2964 O   0  0  0  0  0  0  0  0  0  0  0  0
    4.0126    8.4134   42.4700 N   0  0  0  0  0  0  0  0  0  0  0  0
    4.5205    9.2562   42.4406 H   0  0  0  0  0  0  0  0  0  0  0  0
    5.5352    7.7278   40.7437 C   0  0  0  0  0  0  0  0  0  0  0  0
    6.7010    8.1573   41.6171 C   0  0  0  0  0  0  0  0  0  0  0  0
    6.5530   10.4234   42.6608 N   0  0  0  0  0  0  0  0  0  0  0  0
    7.0588    9.6517   41.5316 C   0  0  0  0  0  0  0  0  0  0  0  0
    6.8192   11.4019   42.5504 H   0  0  0  0  0  0  0  0  0  0  0  0
    6.9497   10.0587   43.5268 H   0  0  0  0  0  0  0  0  0  0  0  0
    8.5074   10.0201   41.3618 C   0  0  0  0  0  0  0  0  0  0  0  0
    9.3039    9.0550   41.3923 O   0  0  0  0  0  0  0  0  0  0  0  0
    8.9457   11.1826   41.1937 O   0  0  0  0  0  0  0  0  0  0  0  0
    8.3529   11.9079   41.1702 H   0  0  0  0  0  0  0  0  0  0  0  0
    3.0466    8.2475   43.5332 C   0  0  0  0  0  0  0  0  0  0  0  0
    2.7020    9.6057   44.0046 C   0  0  0  0  0  0  0  0  0  0  0  0
    1.3346    9.9022   44.1241 O   0  0  0  0  0  0  0  0  0  0  0  0
    3.7099   10.4328   44.2701 N   0  0  0  0  0  0  0  0  0  0  0  0
    4.5759   10.0565   44.5486 H   0  0  0  0  0  0  0  0  0  0  0  0
    3.5702   11.8755   44.1610 C   0  0  0  0  0  0  0  0  0  0  0  0
    4.7033   12.5501   44.8880 C   0  0  0  0  0  0  0  0  0  0  0  0
    5.7211   12.9497   44.2859 O   0  0  0  0  0  0  0  0  0  0  0  0
    4.6262   12.7217   46.1189 O   0  0  0  0  0  0  0  0  0  0  0  0
    3.8693   12.4279   46.5864 H   0  0  0  0  0  0  0  0  0  0  0  0
    3.6345    7.5256   44.7349 C   0  0  0  0  0  0  0  0  0  0  0  0
    2.8391    5.9279   45.0204 S   0  0  0  0  0  0  0  0  0  0  0  0
    1.5164    6.1187   45.2726 H   0  0  0  0  0  0  0  0  0  0  0  0
  7  8  1  0  0  0
  8 11  1  0  0  0
  8  6  1  0  0  0
 11 12  2  0  0  0
 11 13  1  0  0  0
  6  5  1  0  0  0
  5  1  1  0  0  0
  1  2  2  0  0  0
  1  3  1  0  0  0
  3 15  1  0  0  0
 15 16  1  0  0  0
 15 25  1  0  0  0
 16 17  2  0  0  0
 16 18  1  0  0  0
 25 26  1  0  0  0
 18 20  1  0  0  0
 20 21  1  0  0  0
 21 22  2  0  0  0
 21 23  1  0  0  0
  7  9  1  0  0  0
  7 10  1  0  0  0
 13 14  1  0  0  0
  3  4  1  0  0  0
 26 27  1  0  0  0
 18 19  1  0  0  0
 23 24  1  0  0  0
M  END
> <minimizedAffinity>
-5.90957

$$$$
2CA8_GSH_A_1212


 27 26  0  0  0  0  0  0  0  0999 V2000
    3.8897    9.1261   43.6844 C   0  0  0  0  0  0  0  0  0  0  0  0
    4.6551    9.3547   44.8407 O   0  0  0  0  0  0  0  0  0  0  0  0
    4.4331    8.8041   42.5176 N   0  0  0  0  0  0  0  0  0  0  0  0
    3.8645    8.8631   41.7161 H   0  0  0  0  0  0  0  0  0  0  0  0
    2.3792    9.2033   43.6968 C   0  0  0  0  0  0  0  0  0  0  0  0
    1.8586   10.4191   44.4433 C   0  0  0  0  0  0  0  0  0  0  0  0
    0.5837   12.4193   43.6556 N   0  0  0  0  0  0  0  0  0  0  0  0
    1.8680   11.7288   43.6352 C   0  0  0  0  0  0  0  0  0  0  0  0
    0.6496   13.2761   43.1063 H   0  0  0  0  0  0  0  0  0  0  0  0
    0.3373   12.6505   44.6180 H   0  0  0  0  0  0  0  0  0  0  0  0
    2.9213   12.7513   43.9641 C   0  0  0  0  0  0  0  0  0  0  0  0
    3.5698   12.5225   45.0100 O   0  0  0  0  0  0  0  0  0  0  0  0
    3.1815   13.7704   43.2818 O   0  0  0  0  0  0  0  0  0  0  0  0
    2.6985   13.9454   42.4982 H   0  0  0  0  0  0  0  0  0  0  0  0
    5.8019    8.3728   42.3404 C   0  0  0  0  0  0  0  0  0  0  0  0
    6.3585    9.1819   41.2353 C   0  0  0  0  0  0  0  0  0  0  0  0
    5.6943    9.1022   40.0006 O   0  0  0  0  0  0  0  0  0  0  0  0
    7.4404    9.9106   41.4982 N   0  0  0  0  0  0  0  0  0  0  0  0
    7.5924   10.2250   42.4187 H   0  0  0  0  0  0  0  0  0  0  0  0
    8.4043   10.2563   40.4667 C   0  0  0  0  0  0  0  0  0  0  0  0
    9.7590   10.4660   41.0898 C   0  0  0  0  0  0  0  0  0  0  0  0
   10.3485   11.5641   41.0196 O   0  0  0  0  0  0  0  0  0  0  0  0
   10.3070    9.5268   41.6964 O   0  0  0  0  0  0  0  0  0  0  0  0
    9.8785    8.6959   41.7586 H   0  0  0  0  0  0  0  0  0  0  0  0
    5.8928    6.9255   41.8845 C   0  0  0  0  0  0  0  0  0  0  0  0
    6.1066    5.7902   43.2745 S   0  0  0  0  0  0  0  0  0  0  0  0
    7.2656    6.0816   43.9236 H   0  0  0  0  0  0  0  0  0  0  0  0
  7  8  1  0  0  0
  8 11  1  0  0  0
  8  6  1  0  0  0
 11 12  2  0  0  0
 11 13  1  0  0  0
  6  5  1  0  0  0
  5  1  1  0  0  0
  1  2  2  0  0  0
  1  3  1  0  0  0
  3 15  1  0  0  0
 15 16  1  0  0  0
 15 25  1  0  0  0
 16 17  2  0  0  0
 16 18  1  0  0  0
 25 26  1  0  0  0
 18 20  1  0  0  0
 20 21  1  0  0  0
 21 22  2  0  0  0
 21 23  1  0  0  0
  7  9  1  0  0  0
  7 10  1  0  0  0
 13 14  1  0  0  0
  3  4  1  0  0  0
 26 27  1  0  0  0
 18 19  1  0  0  0
 23 24  1  0  0  0
M  END
> <minimizedAffinity>
-5.88109

$$$$
2CA8_GSH_A_1212


 27 26  0  0  0  0  0  0  0  0999 V2000
    6.2720    9.2835   40.4133 C   0  0  0  0  0  0  0  0  0  0  0  0
    5.4440    8.5810   39.5210 O   0  0  0  0  0  0  0  0  0  0  0  0
    5.8605    9.6814   41.6103 N   0  0  0  0  0  0  0  0  0  0  0  0
    6.4150   10.3386   42.0898 H   0  0  0  0  0  0  0  0  0  0  0  0
    7.7103    9.6120   40.0800 C   0  0  0  0  0  0  0  0  0  0  0  0
    8.5145   10.0337   41.2974 C   0  0  0  0  0  0  0  0  0  0  0  0
   10.1154    8.2642   40.5542 N   0  0  0  0  0  0  0  0  0  0  0  0
    9.9456    9.4706   41.3556 C   0  0  0  0  0  0  0  0  0  0  0  0
   11.0787    7.9379   40.6308 H   0  0  0  0  0  0  0  0  0  0  0  0
    9.9033    8.4716   39.5783 H   0  0  0  0  0  0  0  0  0  0  0  0
   11.0802   10.3939   41.0047 C   0  0  0  0  0  0  0  0  0  0  0  0
   10.7878   11.6110   41.0013 O   0  0  0  0  0  0  0  0  0  0  0  0
   12.2503   10.0351   40.7329 O   0  0  0  0  0  0  0  0  0  0  0  0
   12.4735    9.1251   40.7343 H   0  0  0  0  0  0  0  0  0  0  0  0
    4.6549    9.2176   42.2602 C   0  0  0  0  0  0  0  0  0  0  0  0
    4.4349   10.1049   43.4221 C   0  0  0  0  0  0  0  0  0  0  0  0
    4.4589    9.4999   44.6891 O   0  0  0  0  0  0  0  0  0  0  0  0
    4.2277   11.3954   43.1730 N   0  0  0  0  0  0  0  0  0  0  0  0
    4.6134   11.7927   42.3589 H   0  0  0  0  0  0  0  0  0  0  0  0
    3.4490   12.2361   44.0671 C   0  0  0  0  0  0  0  0  0  0  0  0
    2.0278   11.7411   44.1175 C   0  0  0  0  0  0  0  0  0  0  0  0
    1.2148   11.9920   43.2042 O   0  0  0  0  0  0  0  0  0  0  0  0
    1.6501   11.0592   45.0885 O   0  0  0  0  0  0  0  0  0  0  0  0
    2.2474   10.8615   45.7829 H   0  0  0  0  0  0  0  0  0  0  0  0
    4.8125    7.8167   42.8291 C   0  0  0  0  0  0  0  0  0  0  0  0
    3.5544    6.6838   42.1964 S   0  0  0  0  0  0  0  0  0  0  0  0
    2.3209    7.1287   42.5573 H   0  0  0  0  0  0  0  0  0  0  0  0
  7  8  1  0  0  0
  8 11  1  0  0  0
  8  6  1  0  0  0
 11 12  2  0  0  0
 11 13  1  0  0  0
  6  5  1  0  0  0
  5  1  1  0  0  0
  1  2  2  0  0  0
  1  3  1  0  0  0
  3 15  1  0  0  0
 15 16  1  0  0  0
 15 25  1  0  0  0
 16 17  2  0  0  0
 16 18  1  0  0  0
 25 26  1  0  0  0
 18 20  1  0  0  0
 20 21  1  0  0  0
 21 22  2  0  0  0
 21 23  1  0  0  0
  7  9  1  0  0  0
  7 10  1  0  0  0
 13 14  1  0  0  0
  3  4  1  0  0  0
 26 27  1  0  0  0
 18 19  1  0  0  0
 23 24  1  0  0  0
M  END
> <minimizedAffinity>
-5.87698

$$$$
