5MGE_7MX_A_2001


 14 14  0  0  0  0  0  0  0  0999 V2000
  -25.9440   -8.9214    0.5632 C   0  0  0  0  0  0  0  0  0  0  0  0
  -26.9173  -10.0526    0.7761 C   0  0  0  0  0  0  0  0  0  0  0  0
  -28.3181   -9.8841    0.4138 N   0  0  0  0  0  0  0  0  0  0  0  0
  -29.2374  -10.9557    0.6158 C   0  0  0  0  0  0  0  0  0  0  0  0
  -28.7903   -8.6290   -0.1490 C   0  0  0  0  0  0  0  0  0  0  0  0
  -29.9631   -8.5126   -0.4379 O   0  0  0  0  0  0  0  0  0  0  0  0
  -27.8337   -7.4778   -0.3626 C   0  0  0  0  0  0  0  0  0  0  0  0
  -26.4198   -7.6434   -0.0003 C   0  0  0  0  0  0  0  0  0  0  0  0
  -25.3281   -6.3087   -0.2602 Cl  0  0  0  0  0  0  0  0  0  0  0  0
  -24.5037   -9.1507    0.9780 C   0  0  0  0  0  0  0  0  0  0  0  0
  -23.9717   -8.4938    1.8534 O   0  0  0  0  0  0  0  0  0  0  0  0
  -23.7968  -10.1990    0.3791 O   0  0  0  0  0  0  0  0  0  0  0  0
  -21.7923  -11.3292   -0.1735 C   0  0  0  0  0  0  0  0  0  0  0  0
  -22.4125  -10.2078    0.6309 C   0  0  0  0  0  0  0  0  0  0  0  0
  9  8  1  0  0  0
  7  8  2  0  0  0
  7  5  1  0  0  0
  8  1  1  0  0  0
  6  5  2  0  0  0
  5  3  1  0  0  0
 11 10  2  0  0  0
  1 10  1  0  0  0
  1  2  2  0  0  0
 10 12  1  0  0  0
  3  2  1  0  0  0
  3  4  1  0  0  0
 14 12  1  0  0  0
 14 13  1  0  0  0
M  END
> <minimizedAffinity>
-5.42245

$$$$
5MGE_7MX_A_2001


 14 14  0  0  0  0  0  0  0  0999 V2000
  -25.6627   -9.5590    0.4626 C   0  0  0  0  0  0  0  0  0  0  0  0
  -24.5314  -10.5525    0.3888 C   0  0  0  0  0  0  0  0  0  0  0  0
  -23.1532  -10.0943    0.5007 N   0  0  0  0  0  0  0  0  0  0  0  0
  -22.0842  -11.0359    0.4310 C   0  0  0  0  0  0  0  0  0  0  0  0
  -22.8559   -8.6818    0.6786 C   0  0  0  0  0  0  0  0  0  0  0  0
  -21.6991   -8.3254    0.7642 O   0  0  0  0  0  0  0  0  0  0  0  0
  -23.9744   -7.6667    0.7458 C   0  0  0  0  0  0  0  0  0  0  0  0
  -25.3658   -8.1240    0.6352 C   0  0  0  0  0  0  0  0  0  0  0  0
  -26.6442   -6.9413    0.7225 Cl  0  0  0  0  0  0  0  0  0  0  0  0
  -27.0741  -10.0946    0.3202 C   0  0  0  0  0  0  0  0  0  0  0  0
  -27.7919  -10.2865    1.2839 O   0  0  0  0  0  0  0  0  0  0  0  0
  -27.5808  -10.3034   -0.9671 O   0  0  0  0  0  0  0  0  0  0  0  0
  -28.7821   -8.5588   -2.0224 C   0  0  0  0  0  0  0  0  0  0  0  0
  -28.8820   -9.8145   -1.1844 C   0  0  0  0  0  0  0  0  0  0  0  0
  9  8  1  0  0  0
  7  8  2  0  0  0
  7  5  1  0  0  0
  8  1  1  0  0  0
  6  5  2  0  0  0
  5  3  1  0  0  0
 11 10  2  0  0  0
  1 10  1  0  0  0
  1  2  2  0  0  0
 10 12  1  0  0  0
  3  2  1  0  0  0
  3  4  1  0  0  0
 14 12  1  0  0  0
 14 13  1  0  0  0
M  END
> <minimizedAffinity>
-5.38560

$$$$
5MGE_7MX_A_2001


 14 14  0  0  0  0  0  0  0  0999 V2000
  -26.5629   -9.4233    0.4616 C   0  0  0  0  0  0  0  0  0  0  0  0
  -25.3444  -10.2311    0.8291 C   0  0  0  0  0  0  0  0  0  0  0  0
  -24.0601   -9.5680    1.0098 N   0  0  0  0  0  0  0  0  0  0  0  0
  -22.9085  -10.3340    1.3579 C   0  0  0  0  0  0  0  0  0  0  0  0
  -23.9397   -8.1294    0.8338 C   0  0  0  0  0  0  0  0  0  0  0  0
  -22.8574   -7.6019    0.9853 O   0  0  0  0  0  0  0  0  0  0  0  0
  -25.1466   -7.3007    0.4560 C   0  0  0  0  0  0  0  0  0  0  0  0
  -26.4442   -7.9646    0.2743 C   0  0  0  0  0  0  0  0  0  0  0  0
  -27.8277   -6.9933   -0.1538 Cl  0  0  0  0  0  0  0  0  0  0  0  0
  -27.8667  -10.1730    0.2683 C   0  0  0  0  0  0  0  0  0  0  0  0
  -28.2747  -10.4845   -0.8350 O   0  0  0  0  0  0  0  0  0  0  0  0
  -28.5781  -10.5759    1.4036 O   0  0  0  0  0  0  0  0  0  0  0  0
  -30.1980   -8.8996    1.8113 C   0  0  0  0  0  0  0  0  0  0  0  0
  -29.9620  -10.3251    1.3627 C   0  0  0  0  0  0  0  0  0  0  0  0
  9  8  1  0  0  0
  7  8  2  0  0  0
  7  5  1  0  0  0
  8  1  1  0  0  0
  6  5  2  0  0  0
  5  3  1  0  0  0
 11 10  2  0  0  0
  1 10  1  0  0  0
  1  2  2  0  0  0
 10 12  1  0  0  0
  3  2  1  0  0  0
  3  4  1  0  0  0
 14 12  1  0  0  0
 14 13  1  0  0  0
M  END
> <minimizedAffinity>
-5.19053

$$$$
5MGE_7MX_A_2001


 14 14  0  0  0  0  0  0  0  0999 V2000
  -25.7018   -8.5085    0.7988 C   0  0  0  0  0  0  0  0  0  0  0  0
  -25.4479   -7.2520    1.5921 C   0  0  0  0  0  0  0  0  0  0  0  0
  -26.4371   -6.1827    1.5962 N   0  0  0  0  0  0  0  0  0  0  0  0
  -26.1952   -4.9948    2.3476 C   0  0  0  0  0  0  0  0  0  0  0  0
  -27.6698   -6.3131    0.8357 C   0  0  0  0  0  0  0  0  0  0  0  0
  -28.4754   -5.4058    0.8518 O   0  0  0  0  0  0  0  0  0  0  0  0
  -27.9411   -7.5605    0.0254 C   0  0  0  0  0  0  0  0  0  0  0  0
  -26.9475   -8.6423    0.0195 C   0  0  0  0  0  0  0  0  0  0  0  0
  -27.2793  -10.0774   -0.9139 Cl  0  0  0  0  0  0  0  0  0  0  0  0
  -24.6263   -9.5772    0.8186 C   0  0  0  0  0  0  0  0  0  0  0  0
  -24.8055  -10.6638    1.3363 O   0  0  0  0  0  0  0  0  0  0  0  0
  -23.4207   -9.3215    0.1564 O   0  0  0  0  0  0  0  0  0  0  0  0
  -21.6731  -10.9145    0.0638 C   0  0  0  0  0  0  0  0  0  0  0  0
  -22.2641   -9.7524    0.8316 C   0  0  0  0  0  0  0  0  0  0  0  0
  9  8  1  0  0  0
  7  8  2  0  0  0
  7  5  1  0  0  0
  8  1  1  0  0  0
  6  5  2  0  0  0
  5  3  1  0  0  0
 11 10  2  0  0  0
  1 10  1  0  0  0
  1  2  2  0  0  0
 10 12  1  0  0  0
  3  2  1  0  0  0
  3  4  1  0  0  0
 14 12  1  0  0  0
 14 13  1  0  0  0
M  END
> <minimizedAffinity>
-4.88957

$$$$
5MGE_7MX_A_2001


 14 14  0  0  0  0  0  0  0  0999 V2000
  -25.3913   -8.2602    0.7829 C   0  0  0  0  0  0  0  0  0  0  0  0
  -23.9552   -7.8087    0.7051 C   0  0  0  0  0  0  0  0  0  0  0  0
  -22.8807   -8.7908    0.7572 N   0  0  0  0  0  0  0  0  0  0  0  0
  -21.5226   -8.3616    0.6832 C   0  0  0  0  0  0  0  0  0  0  0  0
  -23.1801  -10.2078    0.8890 C   0  0  0  0  0  0  0  0  0  0  0  0
  -22.2666  -11.0052    0.9351 O   0  0  0  0  0  0  0  0  0  0  0  0
  -24.6129  -10.6824    0.9782 C   0  0  0  0  0  0  0  0  0  0  0  0
  -25.7000   -9.6961    0.9245 C   0  0  0  0  0  0  0  0  0  0  0  0
  -27.3470  -10.2608    1.0208 Cl  0  0  0  0  0  0  0  0  0  0  0  0
  -26.4642   -7.1894    0.7430 C   0  0  0  0  0  0  0  0  0  0  0  0
  -26.6810   -6.4573    1.6906 O   0  0  0  0  0  0  0  0  0  0  0  0
  -27.1715   -6.9991   -0.4489 O   0  0  0  0  0  0  0  0  0  0  0  0
  -28.7845   -8.2751   -1.6196 C   0  0  0  0  0  0  0  0  0  0  0  0
  -28.5200   -7.3990   -0.4147 C   0  0  0  0  0  0  0  0  0  0  0  0
  9  8  1  0  0  0
  7  8  2  0  0  0
  7  5  1  0  0  0
  8  1  1  0  0  0
  6  5  2  0  0  0
  5  3  1  0  0  0
 11 10  2  0  0  0
  1 10  1  0  0  0
  1  2  2  0  0  0
 10 12  1  0  0  0
  3  2  1  0  0  0
  3  4  1  0  0  0
 14 12  1  0  0  0
 14 13  1  0  0  0
M  END
> <minimizedAffinity>
-4.64432

$$$$
5MGE_7MX_A_2001


 14 14  0  0  0  0  0  0  0  0999 V2000
  -27.8677   -9.5746    0.3272 C   0  0  0  0  0  0  0  0  0  0  0  0
  -26.4431   -9.8607    0.7285 C   0  0  0  0  0  0  0  0  0  0  0  0
  -25.4382   -8.8098    0.6410 N   0  0  0  0  0  0  0  0  0  0  0  0
  -24.0909   -9.0825    1.0214 C   0  0  0  0  0  0  0  0  0  0  0  0
  -25.7955   -7.4833    0.1639 C   0  0  0  0  0  0  0  0  0  0  0  0
  -24.9386   -6.6268    0.0958 O   0  0  0  0  0  0  0  0  0  0  0  0
  -27.2162   -7.1765   -0.2529 C   0  0  0  0  0  0  0  0  0  0  0  0
  -28.2334   -8.2325   -0.1648 C   0  0  0  0  0  0  0  0  0  0  0  0
  -29.8688   -7.8600   -0.6419 Cl  0  0  0  0  0  0  0  0  0  0  0  0
  -28.8633  -10.7143    0.4221 C   0  0  0  0  0  0  0  0  0  0  0  0
  -29.6432  -10.8143    1.3508 O   0  0  0  0  0  0  0  0  0  0  0  0
  -28.9266  -11.6331   -0.6310 O   0  0  0  0  0  0  0  0  0  0  0  0
  -29.0899  -10.9255   -2.8834 C   0  0  0  0  0  0  0  0  0  0  0  0
  -29.8561  -11.3228   -1.6406 C   0  0  0  0  0  0  0  0  0  0  0  0
  9  8  1  0  0  0
  7  8  2  0  0  0
  7  5  1  0  0  0
  8  1  1  0  0  0
  6  5  2  0  0  0
  5  3  1  0  0  0
 11 10  2  0  0  0
  1 10  1  0  0  0
  1  2  2  0  0  0
 10 12  1  0  0  0
  3  2  1  0  0  0
  3  4  1  0  0  0
 14 12  1  0  0  0
 14 13  1  0  0  0
M  END
> <minimizedAffinity>
-4.56516

$$$$
5MGE_7MX_A_2001


 14 14  0  0  0  0  0  0  0  0999 V2000
  -28.4606   -8.5403   -0.5845 C   0  0  0  0  0  0  0  0  0  0  0  0
  -29.4672   -8.4257   -1.7008 C   0  0  0  0  0  0  0  0  0  0  0  0
  -29.6508   -9.5321   -2.6303 N   0  0  0  0  0  0  0  0  0  0  0  0
  -30.6039   -9.4217   -3.6857 C   0  0  0  0  0  0  0  0  0  0  0  0
  -28.8666  -10.7492   -2.4950 C   0  0  0  0  0  0  0  0  0  0  0  0
  -29.0352  -11.6544   -3.2854 O   0  0  0  0  0  0  0  0  0  0  0  0
  -27.8447  -10.8825   -1.3885 C   0  0  0  0  0  0  0  0  0  0  0  0
  -27.6570   -9.7702   -0.4477 C   0  0  0  0  0  0  0  0  0  0  0  0
  -26.4801   -9.9430    0.8274 Cl  0  0  0  0  0  0  0  0  0  0  0  0
  -28.3014   -7.3480    0.3387 C   0  0  0  0  0  0  0  0  0  0  0  0
  -28.8882   -7.2721    1.4020 O   0  0  0  0  0  0  0  0  0  0  0  0
  -27.3953   -6.3442   -0.0199 O   0  0  0  0  0  0  0  0  0  0  0  0
  -25.0700   -6.7839   -0.0118 C   0  0  0  0  0  0  0  0  0  0  0  0
  -26.2447   -6.2611    0.7856 C   0  0  0  0  0  0  0  0  0  0  0  0
  9  8  1  0  0  0
  7  8  2  0  0  0
  7  5  1  0  0  0
  8  1  1  0  0  0
  6  5  2  0  0  0
  5  3  1  0  0  0
 11 10  2  0  0  0
  1 10  1  0  0  0
  1  2  2  0  0  0
 10 12  1  0  0  0
  3  2  1  0  0  0
  3  4  1  0  0  0
 14 12  1  0  0  0
 14 13  1  0  0  0
M  END
> <minimizedAffinity>
-4.49664

$$$$
5MGE_7MX_A_2001


 14 14  0  0  0  0  0  0  0  0999 V2000
  -27.4529   -8.0860    0.1454 C   0  0  0  0  0  0  0  0  0  0  0  0
  -28.4765   -6.9804    0.1910 C   0  0  0  0  0  0  0  0  0  0  0  0
  -28.1491   -5.7126    0.8294 N   0  0  0  0  0  0  0  0  0  0  0  0
  -29.1189   -4.6676    0.8713 C   0  0  0  0  0  0  0  0  0  0  0  0
  -26.8412   -5.5034    1.4299 C   0  0  0  0  0  0  0  0  0  0  0  0
  -26.5952   -4.4399    1.9599 O   0  0  0  0  0  0  0  0  0  0  0  0
  -25.8024   -6.6018    1.4041 C   0  0  0  0  0  0  0  0  0  0  0  0
  -26.1272   -7.8813    0.7601 C   0  0  0  0  0  0  0  0  0  0  0  0
  -24.9153   -9.1348    0.7320 Cl  0  0  0  0  0  0  0  0  0  0  0  0
  -27.8596   -9.3887   -0.5155 C   0  0  0  0  0  0  0  0  0  0  0  0
  -28.0170   -9.4804   -1.7187 O   0  0  0  0  0  0  0  0  0  0  0  0
  -27.9856  -10.5302    0.2835 O   0  0  0  0  0  0  0  0  0  0  0  0
  -30.0734  -11.4758    0.8731 C   0  0  0  0  0  0  0  0  0  0  0  0
  -29.0051  -10.4734    1.2515 C   0  0  0  0  0  0  0  0  0  0  0  0
  9  8  1  0  0  0
  7  8  2  0  0  0
  7  5  1  0  0  0
  8  1  1  0  0  0
  6  5  2  0  0  0
  5  3  1  0  0  0
 11 10  2  0  0  0
  1 10  1  0  0  0
  1  2  2  0  0  0
 10 12  1  0  0  0
  3  2  1  0  0  0
  3  4  1  0  0  0
 14 12  1  0  0  0
 14 13  1  0  0  0
M  END
> <minimizedAffinity>
-4.41245

$$$$
5MGE_7MX_A_2001


 14 14  0  0  0  0  0  0  0  0999 V2000
  -28.3923   -8.7994   -0.8730 C   0  0  0  0  0  0  0  0  0  0  0  0
  -27.4693   -7.6094   -0.8080 C   0  0  0  0  0  0  0  0  0  0  0  0
  -26.2667   -7.6662    0.0121 N   0  0  0  0  0  0  0  0  0  0  0  0
  -25.3945   -6.5393    0.0721 C   0  0  0  0  0  0  0  0  0  0  0  0
  -25.9486   -8.8622    0.7758 C   0  0  0  0  0  0  0  0  0  0  0  0
  -24.9432   -8.8822    1.4551 O   0  0  0  0  0  0  0  0  0  0  0  0
  -26.8649  -10.0642    0.7330 C   0  0  0  0  0  0  0  0  0  0  0  0
  -28.0778  -10.0124   -0.0939 C   0  0  0  0  0  0  0  0  0  0  0  0
  -29.1198  -11.4099   -0.1383 Cl  0  0  0  0  0  0  0  0  0  0  0  0
  -29.6378   -8.6724   -1.7283 C   0  0  0  0  0  0  0  0  0  0  0  0
  -30.7176   -8.3706   -1.2554 O   0  0  0  0  0  0  0  0  0  0  0  0
  -29.5157   -8.8397   -3.1120 O   0  0  0  0  0  0  0  0  0  0  0  0
  -30.1879  -11.0585   -3.5867 C   0  0  0  0  0  0  0  0  0  0  0  0
  -30.5392   -9.5926   -3.7162 C   0  0  0  0  0  0  0  0  0  0  0  0
  9  8  1  0  0  0
  7  8  2  0  0  0
  7  5  1  0  0  0
  8  1  1  0  0  0
  6  5  2  0  0  0
  5  3  1  0  0  0
 11 10  2  0  0  0
  1 10  1  0  0  0
  1  2  2  0  0  0
 10 12  1  0  0  0
  3  2  1  0  0  0
  3  4  1  0  0  0
 14 12  1  0  0  0
 14 13  1  0  0  0
M  END
> <minimizedAffinity>
-4.35947

$$$$
5MGE_7MX_A_2001


 14 14  0  0  0  0  0  0  0  0999 V2000
  -27.6700   -9.2977   -0.6371 C   0  0  0  0  0  0  0  0  0  0  0  0
  -27.9307  -10.5442   -1.4438 C   0  0  0  0  0  0  0  0  0  0  0  0
  -28.9957  -10.5573   -2.4376 N   0  0  0  0  0  0  0  0  0  0  0  0
  -29.2406  -11.7375   -3.2000 C   0  0  0  0  0  0  0  0  0  0  0  0
  -29.8166   -9.3770   -2.6570 C   0  0  0  0  0  0  0  0  0  0  0  0
  -30.7006   -9.4155   -3.4874 O   0  0  0  0  0  0  0  0  0  0  0  0
  -29.5790   -8.1189   -1.8527 C   0  0  0  0  0  0  0  0  0  0  0  0
  -28.5052   -8.1002   -0.8506 C   0  0  0  0  0  0  0  0  0  0  0  0
  -28.2393   -6.6389    0.0629 Cl  0  0  0  0  0  0  0  0  0  0  0  0
  -26.5608   -9.3522    0.3953 C   0  0  0  0  0  0  0  0  0  0  0  0
  -26.5199  -10.2137    1.2538 O   0  0  0  0  0  0  0  0  0  0  0  0
  -25.5201   -8.4216    0.3048 O   0  0  0  0  0  0  0  0  0  0  0  0
  -23.2358   -8.9954    0.5353 C   0  0  0  0  0  0  0  0  0  0  0  0
  -24.4965   -8.5741    1.2580 C   0  0  0  0  0  0  0  0  0  0  0  0
  9  8  1  0  0  0
  7  8  2  0  0  0
  7  5  1  0  0  0
  8  1  1  0  0  0
  6  5  2  0  0  0
  5  3  1  0  0  0
 11 10  2  0  0  0
  1 10  1  0  0  0
  1  2  2  0  0  0
 10 12  1  0  0  0
  3  2  1  0  0  0
  3  4  1  0  0  0
 14 12  1  0  0  0
 14 13  1  0  0  0
M  END
> <minimizedAffinity>
-4.35751

$$$$
