3N8K_D1X_A_147


 13 13  0  0  0  0  0  0  0  0999 V2000
  -38.1350   13.1717  -10.2637 O   0  0  0  0  0  0  0  0  0  0  0  0
  -37.2207    9.6472   -7.3352 O   0  0  0  0  0  0  0  0  0  0  0  0
  -38.7030    9.3334   -9.1783 C   0  0  0  0  0  0  0  0  0  0  0  0
  -39.1577   11.1797  -10.6777 C   0  0  0  0  0  0  0  0  0  0  0  0
  -37.6534   11.4858   -8.8033 N   0  0  0  0  0  0  0  0  0  0  0  0
  -37.8551   10.1468   -8.4278 C   0  0  0  0  0  0  0  0  0  0  0  0
  -39.3555    9.8478  -10.3023 C   0  0  0  0  0  0  0  0  0  0  0  0
  -38.3078   11.9993   -9.9341 C   0  0  0  0  0  0  0  0  0  0  0  0
  -37.0550   12.0620   -8.2750 H   0  0  0  0  0  0  0  0  0  0  0  0
  -39.9042    7.7758  -11.3639 O   0  0  0  0  0  0  0  0  0  0  0  0
  -41.3699    9.4191  -11.5297 O   0  0  0  0  0  0  0  0  0  0  0  0
  -40.2853    8.9443  -11.1280 C   0  0  0  0  0  0  0  0  0  0  0  0
  -39.0794    7.4766  -11.0351 H   0  0  0  0  0  0  0  0  0  0  0  0
 12 10  1  0  0  0
  1  8  2  0  0  0
 12 11  2  0  0  0
  6  2  2  0  0  0
  6  3  1  0  0  0
  7  3  2  0  0  0
  8  4  1  0  0  0
  4  7  1  0  0  0
  8  5  1  0  0  0
  5  6  1  0  0  0
  7 12  1  0  0  0
 10 13  1  0  0  0
  5  9  1  0  0  0
M  END
> <minimizedAffinity>
-8.15394

$$$$
3N8K_D1X_A_147


 13 13  0  0  0  0  0  0  0  0999 V2000
  -37.2936    9.6018   -7.3871 O   0  0  0  0  0  0  0  0  0  0  0  0
  -38.1507   13.2441  -10.1858 O   0  0  0  0  0  0  0  0  0  0  0  0
  -39.1691   11.1285  -10.6096 C   0  0  0  0  0  0  0  0  0  0  0  0
  -38.7042    9.2596   -9.1416 C   0  0  0  0  0  0  0  0  0  0  0  0
  -37.6769   11.4131   -8.7208 N   0  0  0  0  0  0  0  0  0  0  0  0
  -38.3322   11.9412   -9.8461 C   0  0  0  0  0  0  0  0  0  0  0  0
  -39.3556    9.7881  -10.2598 C   0  0  0  0  0  0  0  0  0  0  0  0
  -37.8680   10.0674   -8.3701 C   0  0  0  0  0  0  0  0  0  0  0  0
  -37.0857   11.9852   -8.1801 H   0  0  0  0  0  0  0  0  0  0  0  0
  -39.8886    7.7445  -11.3828 O   0  0  0  0  0  0  0  0  0  0  0  0
  -41.3798    9.3707  -11.4750 O   0  0  0  0  0  0  0  0  0  0  0  0
  -40.2832    8.8988  -11.1032 C   0  0  0  0  0  0  0  0  0  0  0  0
  -39.0553    7.4468  -11.0746 H   0  0  0  0  0  0  0  0  0  0  0  0
 12 10  1  0  0  0
  1  8  2  0  0  0
 12 11  2  0  0  0
  6  2  2  0  0  0
  6  3  1  0  0  0
  7  3  2  0  0  0
  8  4  1  0  0  0
  4  7  1  0  0  0
  8  5  1  0  0  0
  5  6  1  0  0  0
  7 12  1  0  0  0
 10 13  1  0  0  0
  5  9  1  0  0  0
M  END
> <minimizedAffinity>
-8.10453

$$$$
3N8K_D1X_A_147


 13 13  0  0  0  0  0  0  0  0999 V2000
  -40.3059    7.1544  -10.5649 O   0  0  0  0  0  0  0  0  0  0  0  0
  -40.7276   11.5337  -12.1387 O   0  0  0  0  0  0  0  0  0  0  0  0
  -39.2597   11.0377  -10.3243 C   0  0  0  0  0  0  0  0  0  0  0  0
  -39.0639    8.7583   -9.5306 C   0  0  0  0  0  0  0  0  0  0  0  0
  -40.5502    9.2743  -11.3731 N   0  0  0  0  0  0  0  0  0  0  0  0
  -40.1832   10.6278  -11.2850 C   0  0  0  0  0  0  0  0  0  0  0  0
  -38.6999   10.1054   -9.4462 C   0  0  0  0  0  0  0  0  0  0  0  0
  -39.9846    8.3394  -10.4917 C   0  0  0  0  0  0  0  0  0  0  0  0
  -41.2020    8.9824  -12.0508 H   0  0  0  0  0  0  0  0  0  0  0  0
  -37.1801   11.7039   -8.5209 O   0  0  0  0  0  0  0  0  0  0  0  0
  -37.3900    9.7756   -7.4654 O   0  0  0  0  0  0  0  0  0  0  0  0
  -37.6788   10.5632   -8.3925 C   0  0  0  0  0  0  0  0  0  0  0  0
  -37.4369   12.2495   -9.2381 H   0  0  0  0  0  0  0  0  0  0  0  0
 12 10  1  0  0  0
  1  8  2  0  0  0
 12 11  2  0  0  0
  6  2  2  0  0  0
  6  3  1  0  0  0
  7  3  2  0  0  0
  8  4  1  0  0  0
  4  7  1  0  0  0
  8  5  1  0  0  0
  5  6  1  0  0  0
  7 12  1  0  0  0
 10 13  1  0  0  0
  5  9  1  0  0  0
M  END
> <minimizedAffinity>
-7.05891

$$$$
3N8K_D1X_A_147


 13 13  0  0  0  0  0  0  0  0999 V2000
  -40.6591   11.4748  -12.1728 O   0  0  0  0  0  0  0  0  0  0  0  0
  -40.3601    7.0959  -10.5699 O   0  0  0  0  0  0  0  0  0  0  0  0
  -39.0830    8.8414   -9.5624 C   0  0  0  0  0  0  0  0  0  0  0  0
  -39.2588   11.1004  -10.4166 C   0  0  0  0  0  0  0  0  0  0  0  0
  -40.5515    9.3197  -11.4305 N   0  0  0  0  0  0  0  0  0  0  0  0
  -39.9986    8.4045  -10.5188 C   0  0  0  0  0  0  0  0  0  0  0  0
  -38.7113   10.1878   -9.5102 C   0  0  0  0  0  0  0  0  0  0  0  0
  -40.1786   10.6719  -11.3743 C   0  0  0  0  0  0  0  0  0  0  0  0
  -41.1984    9.0136  -12.1066 H   0  0  0  0  0  0  0  0  0  0  0  0
  -37.1630   11.7788   -8.6200 O   0  0  0  0  0  0  0  0  0  0  0  0
  -37.4704    9.9145   -7.4771 O   0  0  0  0  0  0  0  0  0  0  0  0
  -37.7050   10.6636   -8.4503 C   0  0  0  0  0  0  0  0  0  0  0  0
  -37.3800   12.2958   -9.3707 H   0  0  0  0  0  0  0  0  0  0  0  0
 12 10  1  0  0  0
  1  8  2  0  0  0
 12 11  2  0  0  0
  6  2  2  0  0  0
  6  3  1  0  0  0
  7  3  2  0  0  0
  8  4  1  0  0  0
  4  7  1  0  0  0
  8  5  1  0  0  0
  5  6  1  0  0  0
  7 12  1  0  0  0
 10 13  1  0  0  0
  5  9  1  0  0  0
M  END
> <minimizedAffinity>
-7.01838

$$$$
3N8K_D1X_A_147


 13 13  0  0  0  0  0  0  0  0999 V2000
  -38.2496    7.7587   -8.4598 O   0  0  0  0  0  0  0  0  0  0  0  0
  -41.2480    9.2445  -11.7210 O   0  0  0  0  0  0  0  0  0  0  0  0
  -39.6175   10.7303  -10.8117 C   0  0  0  0  0  0  0  0  0  0  0  0
  -38.0783    9.9307   -9.1220 C   0  0  0  0  0  0  0  0  0  0  0  0
  -39.7375    8.4311  -10.0537 N   0  0  0  0  0  0  0  0  0  0  0  0
  -40.2121    9.4706  -10.8715 C   0  0  0  0  0  0  0  0  0  0  0  0
  -38.5519   10.9625   -9.9375 C   0  0  0  0  0  0  0  0  0  0  0  0
  -38.6654    8.6661   -9.1786 C   0  0  0  0  0  0  0  0  0  0  0  0
  -40.1556    7.5407  -10.0944 H   0  0  0  0  0  0  0  0  0  0  0  0
  -36.8161   12.4624   -9.2604 O   0  0  0  0  0  0  0  0  0  0  0  0
  -38.4784   13.3045  -10.4453 O   0  0  0  0  0  0  0  0  0  0  0  0
  -37.8979   12.3523   -9.8799 C   0  0  0  0  0  0  0  0  0  0  0  0
  -36.4289   11.7108   -8.8565 H   0  0  0  0  0  0  0  0  0  0  0  0
 12 10  1  0  0  0
  1  8  2  0  0  0
 12 11  2  0  0  0
  6  2  2  0  0  0
  6  3  1  0  0  0
  7  3  2  0  0  0
  8  4  1  0  0  0
  4  7  1  0  0  0
  8  5  1  0  0  0
  5  6  1  0  0  0
  7 12  1  0  0  0
 10 13  1  0  0  0
  5  9  1  0  0  0
M  END
> <minimizedAffinity>
-6.73151

$$$$
3N8K_D1X_A_147


 13 13  0  0  0  0  0  0  0  0999 V2000
  -38.5938   13.3260  -10.6606 O   0  0  0  0  0  0  0  0  0  0  0  0
  -41.0511    9.4786  -11.6564 O   0  0  0  0  0  0  0  0  0  0  0  0
  -39.3669    9.4332   -9.9670 C   0  0  0  0  0  0  0  0  0  0  0  0
  -38.1095   11.4433   -9.4748 C   0  0  0  0  0  0  0  0  0  0  0  0
  -39.8231   11.4773  -11.1873 N   0  0  0  0  0  0  0  0  0  0  0  0
  -40.0888   10.1192  -10.9428 C   0  0  0  0  0  0  0  0  0  0  0  0
  -38.3769   10.0927   -9.2331 C   0  0  0  0  0  0  0  0  0  0  0  0
  -38.8302   12.1380  -10.4470 C   0  0  0  0  0  0  0  0  0  0  0  0
  -40.3317   11.9638  -11.8756 H   0  0  0  0  0  0  0  0  0  0  0  0
  -37.0409   10.0018   -7.2512 O   0  0  0  0  0  0  0  0  0  0  0  0
  -37.5236    8.0857   -8.2371 O   0  0  0  0  0  0  0  0  0  0  0  0
  -37.5879    9.3317   -8.1556 C   0  0  0  0  0  0  0  0  0  0  0  0
  -37.1250   10.9349   -7.2433 H   0  0  0  0  0  0  0  0  0  0  0  0
 12 10  1  0  0  0
  1  8  2  0  0  0
 12 11  2  0  0  0
  6  2  2  0  0  0
  6  3  1  0  0  0
  7  3  2  0  0  0
  8  4  1  0  0  0
  4  7  1  0  0  0
  8  5  1  0  0  0
  5  6  1  0  0  0
  7 12  1  0  0  0
 10 13  1  0  0  0
  5  9  1  0  0  0
M  END
> <minimizedAffinity>
-6.56664

$$$$
3N8K_D1X_A_147


 13 13  0  0  0  0  0  0  0  0999 V2000
  -41.1893    9.1966  -11.7349 O   0  0  0  0  0  0  0  0  0  0  0  0
  -38.1992    7.7158   -8.4639 O   0  0  0  0  0  0  0  0  0  0  0  0
  -38.1770    9.9916   -9.1801 C   0  0  0  0  0  0  0  0  0  0  0  0
  -39.7384   10.7283  -10.8781 C   0  0  0  0  0  0  0  0  0  0  0  0
  -39.7522    8.4201  -10.1417 N   0  0  0  0  0  0  0  0  0  0  0  0
  -38.7009    8.7015   -9.2528 C   0  0  0  0  0  0  0  0  0  0  0  0
  -38.6934   11.0054   -9.9920 C   0  0  0  0  0  0  0  0  0  0  0  0
  -40.2708    9.4408  -10.9541 C   0  0  0  0  0  0  0  0  0  0  0  0
  -40.1239    7.5100  -10.1946 H   0  0  0  0  0  0  0  0  0  0  0  0
  -36.9818   12.5636   -9.3890 O   0  0  0  0  0  0  0  0  0  0  0  0
  -38.8018   13.3750  -10.3405 O   0  0  0  0  0  0  0  0  0  0  0  0
  -38.1143   12.4265   -9.9035 C   0  0  0  0  0  0  0  0  0  0  0  0
  -36.5140   11.8132   -9.0790 H   0  0  0  0  0  0  0  0  0  0  0  0
 12 10  1  0  0  0
  1  8  2  0  0  0
 12 11  2  0  0  0
  6  2  2  0  0  0
  6  3  1  0  0  0
  7  3  2  0  0  0
  8  4  1  0  0  0
  4  7  1  0  0  0
  8  5  1  0  0  0
  5  6  1  0  0  0
  7 12  1  0  0  0
 10 13  1  0  0  0
  5  9  1  0  0  0
M  END
> <minimizedAffinity>
-6.51644

$$$$
3N8K_D1X_A_147


 13 13  0  0  0  0  0  0  0  0999 V2000
  -37.8527    8.7797   -7.8684 O   0  0  0  0  0  0  0  0  0  0  0  0
  -37.2634   13.0983   -9.5525 O   0  0  0  0  0  0  0  0  0  0  0  0
  -38.9057   11.6470  -10.4956 C   0  0  0  0  0  0  0  0  0  0  0  0
  -39.1863    9.4142   -9.6016 C   0  0  0  0  0  0  0  0  0  0  0  0
  -37.5228   10.8974   -8.6515 N   0  0  0  0  0  0  0  0  0  0  0  0
  -37.8926   11.8943   -9.5702 C   0  0  0  0  0  0  0  0  0  0  0  0
  -39.5527   10.4082  -10.5136 C   0  0  0  0  0  0  0  0  0  0  0  0
  -38.1760    9.6550   -8.6698 C   0  0  0  0  0  0  0  0  0  0  0  0
  -36.8079   11.0698   -7.9970 H   0  0  0  0  0  0  0  0  0  0  0  0
  -40.9214   11.0400  -12.3707 O   0  0  0  0  0  0  0  0  0  0  0  0
  -41.2829    9.0546  -11.4740 O   0  0  0  0  0  0  0  0  0  0  0  0
  -40.6720   10.1439  -11.5334 C   0  0  0  0  0  0  0  0  0  0  0  0
  -40.4280   11.8366  -12.3654 H   0  0  0  0  0  0  0  0  0  0  0  0
 12 10  1  0  0  0
  1  8  2  0  0  0
 12 11  2  0  0  0
  6  2  2  0  0  0
  6  3  1  0  0  0
  7  3  2  0  0  0
  8  4  1  0  0  0
  4  7  1  0  0  0
  8  5  1  0  0  0
  5  6  1  0  0  0
  7 12  1  0  0  0
 10 13  1  0  0  0
  5  9  1  0  0  0
M  END
> <minimizedAffinity>
-6.50327

$$$$
3N8K_D1X_A_147


 13 13  0  0  0  0  0  0  0  0999 V2000
  -40.2742    7.5323  -11.0615 O   0  0  0  0  0  0  0  0  0  0  0  0
  -37.3289    8.8691   -7.6894 O   0  0  0  0  0  0  0  0  0  0  0  0
  -38.3089   10.4832   -9.1478 C   0  0  0  0  0  0  0  0  0  0  0  0
  -39.8308    9.7589  -10.8865 C   0  0  0  0  0  0  0  0  0  0  0  0
  -38.8302    8.1294   -9.3987 N   0  0  0  0  0  0  0  0  0  0  0  0
  -38.1459    9.1616   -8.7347 C   0  0  0  0  0  0  0  0  0  0  0  0
  -39.1495   10.7837  -10.2233 C   0  0  0  0  0  0  0  0  0  0  0  0
  -39.6760    8.4341  -10.4768 C   0  0  0  0  0  0  0  0  0  0  0  0
  -38.7169    7.1955   -9.1086 H   0  0  0  0  0  0  0  0  0  0  0  0
  -38.3768   13.0330  -10.4776 O   0  0  0  0  0  0  0  0  0  0  0  0
  -40.4135   12.5734  -11.1967 O   0  0  0  0  0  0  0  0  0  0  0  0
  -39.3284   12.2433  -10.6706 C   0  0  0  0  0  0  0  0  0  0  0  0
  -37.5869   12.7260  -10.0780 H   0  0  0  0  0  0  0  0  0  0  0  0
 12 10  1  0  0  0
  1  8  2  0  0  0
 12 11  2  0  0  0
  6  2  2  0  0  0
  6  3  1  0  0  0
  7  3  2  0  0  0
  8  4  1  0  0  0
  4  7  1  0  0  0
  8  5  1  0  0  0
  5  6  1  0  0  0
  7 12  1  0  0  0
 10 13  1  0  0  0
  5  9  1  0  0  0
M  END
> <minimizedAffinity>
-6.48306

$$$$
3N8K_D1X_A_147


 13 13  0  0  0  0  0  0  0  0999 V2000
  -37.5953    9.0147   -7.5259 O   0  0  0  0  0  0  0  0  0  0  0  0
  -40.3798    7.4754  -10.9480 O   0  0  0  0  0  0  0  0  0  0  0  0
  -39.3659    9.6303  -11.0923 C   0  0  0  0  0  0  0  0  0  0  0  0
  -37.9286   10.4002   -9.3020 C   0  0  0  0  0  0  0  0  0  0  0  0
  -38.9629    8.2135   -9.1674 N   0  0  0  0  0  0  0  0  0  0  0  0
  -39.5793    8.4327  -10.4110 C   0  0  0  0  0  0  0  0  0  0  0  0
  -38.5422   10.6150  -10.5395 C   0  0  0  0  0  0  0  0  0  0  0  0
  -38.1340    9.2029   -8.6156 C   0  0  0  0  0  0  0  0  0  0  0  0
  -39.1120    7.3685   -8.6845 H   0  0  0  0  0  0  0  0  0  0  0  0
  -38.0417   11.8609  -12.5190 O   0  0  0  0  0  0  0  0  0  0  0  0
  -38.3851   13.0043  -10.6613 O   0  0  0  0  0  0  0  0  0  0  0  0
  -38.3075   11.9311  -11.2980 C   0  0  0  0  0  0  0  0  0  0  0  0
  -37.9974   11.0258  -12.9416 H   0  0  0  0  0  0  0  0  0  0  0  0
 12 10  1  0  0  0
  1  8  2  0  0  0
 12 11  2  0  0  0
  6  2  2  0  0  0
  6  3  1  0  0  0
  7  3  2  0  0  0
  8  4  1  0  0  0
  4  7  1  0  0  0
  8  5  1  0  0  0
  5  6  1  0  0  0
  7 12  1  0  0  0
 10 13  1  0  0  0
  5  9  1  0  0  0
M  END
> <minimizedAffinity>
-6.44695

$$$$
