4OR6_GDP_A_501


 36 38  0  0  0  0  0  0  0  0999 V2000
   -8.0091  -23.3060   -4.6196 C   0  0  0  0  0  0  0  0  0  0  0  0
   -7.6607  -22.0978   -5.2917 O   0  0  0  0  0  0  0  0  0  0  0  0
   -7.1795  -23.3656   -3.3505 C   0  0  0  0  0  0  0  0  0  0  0  0
   -6.2067  -24.4024   -3.4810 O   0  0  0  0  0  0  0  0  0  0  0  0
   -6.4729  -22.0309   -3.2600 C   0  0  0  0  0  0  0  0  0  0  0  0
   -5.1274  -22.2156   -2.8172 O   0  0  0  0  0  0  0  0  0  0  0  0
   -6.5202  -21.4961   -4.6802 C   0  0  0  0  0  0  0  0  0  0  0  0
   -5.6580  -24.2344   -4.2630 H   0  0  0  0  0  0  0  0  0  0  0  0
   -4.6688  -22.8213   -3.4203 H   0  0  0  0  0  0  0  0  0  0  0  0
   -6.6887  -20.0255   -4.7064 N   0  0  0  0  0  0  0  0  0  0  0  0
   -6.8170  -19.2050   -3.6474 C   0  0  0  0  0  0  0  0  0  0  0  0
   -6.9717  -17.9167   -4.0519 N   0  0  0  0  0  0  0  0  0  0  0  0
   -6.9573  -17.9101   -5.3991 C   0  0  0  0  0  0  0  0  0  0  0  0
   -7.0736  -16.8959   -6.4720 C   0  0  0  0  0  0  0  0  0  0  0  0
   -7.2295  -15.6865   -6.1980 O   0  0  0  0  0  0  0  0  0  0  0  0
   -7.0067  -17.3143   -7.7429 N   0  0  0  0  0  0  0  0  0  0  0  0
   -6.8400  -18.6102   -8.0694 C   0  0  0  0  0  0  0  0  0  0  0  0
   -6.7832  -18.9559   -9.3784 N   0  0  0  0  0  0  0  0  0  0  0  0
   -6.7258  -19.5910   -7.1405 N   0  0  0  0  0  0  0  0  0  0  0  0
   -6.7765  -19.3048   -5.8203 C   0  0  0  0  0  0  0  0  0  0  0  0
   -7.0823  -16.6497   -8.4653 H   0  0  0  0  0  0  0  0  0  0  0  0
   -6.8634  -18.2640  -10.0742 H   0  0  0  0  0  0  0  0  0  0  0  0
   -6.6618  -19.8990   -9.6337 H   0  0  0  0  0  0  0  0  0  0  0  0
   -9.4874  -23.2688   -4.2772 C   0  0  0  0  0  0  0  0  0  0  0  0
  -10.1418  -24.3621   -4.9077 O   0  0  0  0  0  0  0  0  0  0  0  0
  -10.9346  -25.4358   -4.0147 P   0  0  0  0  0  0  0  0  0  0  0  0
  -11.1189  -26.7293   -4.7726 O   0  0  0  0  0  0  0  0  0  0  0  0
  -10.2016  -25.6720   -2.7164 O   0  0  0  0  0  0  0  0  0  0  0  0
  -10.6875  -26.3213   -2.1843 H   0  0  0  0  0  0  0  0  0  0  0  0
  -12.3405  -24.7004   -3.7377 O   0  0  0  0  0  0  0  0  0  0  0  0
  -13.5516  -25.4327   -2.9710 P   0  0  0  0  0  0  0  0  0  0  0  0
  -13.0850  -25.9531   -1.6331 O   0  0  0  0  0  0  0  0  0  0  0  0
  -14.6753  -24.4440   -2.7702 O   0  0  0  0  0  0  0  0  0  0  0  0
  -14.0493  -26.5805   -3.8174 O   0  0  0  0  0  0  0  0  0  0  0  0
  -15.4094  -24.8783   -2.3083 H   0  0  0  0  0  0  0  0  0  0  0  0
  -14.7798  -27.0261   -3.3605 H   0  0  0  0  0  0  0  0  0  0  0  0
 31 32  2  0  0  0
 31 33  1  0  0  0
 31 34  1  0  0  0
 31 30  1  0  0  0
 30 26  1  0  0  0
 26 27  2  0  0  0
 26 28  1  0  0  0
 26 25  1  0  0  0
 25 24  1  0  0  0
 24  1  1  0  0  0
  1  2  1  0  0  0
  1  3  1  0  0  0
  2  7  1  0  0  0
  3  4  1  0  0  0
  3  5  1  0  0  0
  5  6  1  0  0  0
  5  7  1  0  0  0
  7 10  1  0  0  0
 10 11  1  0  0  0
 10 20  1  0  0  0
 11 12  2  0  0  0
 12 13  1  0  0  0
 13 14  1  0  0  0
 13 20  2  0  0  0
 14 15  2  0  0  0
 14 16  1  0  0  0
 16 17  1  0  0  0
 17 18  1  0  0  0
 17 19  2  0  0  0
 19 20  1  0  0  0
 33 35  1  0  0  0
 34 36  1  0  0  0
 28 29  1  0  0  0
  4  8  1  0  0  0
  6  9  1  0  0  0
 16 21  1  0  0  0
 18 22  1  0  0  0
 18 23  1  0  0  0
M  END
> <minimizedAffinity>
-7.99224

$$$$
4OR6_GDP_A_501


 36 38  0  0  0  0  0  0  0  0999 V2000
   -6.0625  -23.0747   -2.6421 C   0  0  0  0  0  0  0  0  0  0  0  0
   -5.5962  -22.2521   -3.7092 O   0  0  0  0  0  0  0  0  0  0  0  0
   -6.9180  -22.1993   -1.7453 C   0  0  0  0  0  0  0  0  0  0  0  0
   -6.2322  -21.9905   -0.5106 O   0  0  0  0  0  0  0  0  0  0  0  0
   -7.0504  -20.8773   -2.4690 C   0  0  0  0  0  0  0  0  0  0  0  0
   -6.9461  -19.7961   -1.5413 O   0  0  0  0  0  0  0  0  0  0  0  0
   -5.8907  -20.8803   -3.4489 C   0  0  0  0  0  0  0  0  0  0  0  0
   -5.3661  -21.5902   -0.6855 H   0  0  0  0  0  0  0  0  0  0  0  0
   -6.1033  -19.8587   -1.0652 H   0  0  0  0  0  0  0  0  0  0  0  0
   -6.2505  -20.2220   -4.7253 N   0  0  0  0  0  0  0  0  0  0  0  0
   -6.4249  -20.8132   -5.9216 C   0  0  0  0  0  0  0  0  0  0  0  0
   -6.7313  -19.8929   -6.8738 N   0  0  0  0  0  0  0  0  0  0  0  0
   -6.7399  -18.6833   -6.2808 C   0  0  0  0  0  0  0  0  0  0  0  0
   -6.9822  -17.2825   -6.6960 C   0  0  0  0  0  0  0  0  0  0  0  0
   -7.2634  -17.0038   -7.8815 O   0  0  0  0  0  0  0  0  0  0  0  0
   -6.8906  -16.3252   -5.7632 N   0  0  0  0  0  0  0  0  0  0  0  0
   -6.5888  -16.5943   -4.4787 C   0  0  0  0  0  0  0  0  0  0  0  0
   -6.5132  -15.5711   -3.5933 N   0  0  0  0  0  0  0  0  0  0  0  0
   -6.3555  -17.8516   -4.0286 N   0  0  0  0  0  0  0  0  0  0  0  0
   -6.4159  -18.9104   -4.8670 C   0  0  0  0  0  0  0  0  0  0  0  0
   -7.0499  -15.3901   -6.0267 H   0  0  0  0  0  0  0  0  0  0  0  0
   -6.6779  -14.6479   -3.8928 H   0  0  0  0  0  0  0  0  0  0  0  0
   -6.2935  -15.7511   -2.6507 H   0  0  0  0  0  0  0  0  0  0  0  0
   -6.8959  -24.2038   -3.2204 C   0  0  0  0  0  0  0  0  0  0  0  0
   -7.3918  -23.8147   -4.4947 O   0  0  0  0  0  0  0  0  0  0  0  0
   -8.9768  -23.7536   -4.7456 P   0  0  0  0  0  0  0  0  0  0  0  0
   -9.4992  -22.3536   -4.5245 O   0  0  0  0  0  0  0  0  0  0  0  0
   -9.2997  -24.2350   -6.1394 O   0  0  0  0  0  0  0  0  0  0  0  0
  -10.2583  -24.1945   -6.2815 H   0  0  0  0  0  0  0  0  0  0  0  0
   -9.5511  -24.7852   -3.6502 O   0  0  0  0  0  0  0  0  0  0  0  0
  -10.9090  -25.6160   -3.8879 P   0  0  0  0  0  0  0  0  0  0  0  0
  -12.1012  -24.6910   -3.8509 O   0  0  0  0  0  0  0  0  0  0  0  0
  -10.8367  -26.3018   -5.2314 O   0  0  0  0  0  0  0  0  0  0  0  0
  -11.0434  -26.6620   -2.8064 O   0  0  0  0  0  0  0  0  0  0  0  0
  -11.6523  -26.8049   -5.3819 H   0  0  0  0  0  0  0  0  0  0  0  0
  -11.8604  -27.1664   -2.9442 H   0  0  0  0  0  0  0  0  0  0  0  0
 31 32  2  0  0  0
 31 33  1  0  0  0
 31 34  1  0  0  0
 31 30  1  0  0  0
 30 26  1  0  0  0
 26 27  2  0  0  0
 26 28  1  0  0  0
 26 25  1  0  0  0
 25 24  1  0  0  0
 24  1  1  0  0  0
  1  2  1  0  0  0
  1  3  1  0  0  0
  2  7  1  0  0  0
  3  4  1  0  0  0
  3  5  1  0  0  0
  5  6  1  0  0  0
  5  7  1  0  0  0
  7 10  1  0  0  0
 10 11  1  0  0  0
 10 20  1  0  0  0
 11 12  2  0  0  0
 12 13  1  0  0  0
 13 14  1  0  0  0
 13 20  2  0  0  0
 14 15  2  0  0  0
 14 16  1  0  0  0
 16 17  1  0  0  0
 17 18  1  0  0  0
 17 19  2  0  0  0
 19 20  1  0  0  0
 33 35  1  0  0  0
 34 36  1  0  0  0
 28 29  1  0  0  0
  4  8  1  0  0  0
  6  9  1  0  0  0
 16 21  1  0  0  0
 18 22  1  0  0  0
 18 23  1  0  0  0
M  END
> <minimizedAffinity>
-7.65244

$$$$
4OR6_GDP_A_501


 36 38  0  0  0  0  0  0  0  0999 V2000
  -10.8677  -24.5245   -3.8167 C   0  0  0  0  0  0  0  0  0  0  0  0
  -10.1979  -23.8759   -2.7381 O   0  0  0  0  0  0  0  0  0  0  0  0
   -9.9000  -24.5618   -4.9848 C   0  0  0  0  0  0  0  0  0  0  0  0
  -10.3632  -23.6702   -5.9991 O   0  0  0  0  0  0  0  0  0  0  0  0
   -8.5826  -24.0538   -4.4416 C   0  0  0  0  0  0  0  0  0  0  0  0
   -7.9554  -23.1951   -5.3956 O   0  0  0  0  0  0  0  0  0  0  0  0
   -8.9740  -23.2947   -3.1863 C   0  0  0  0  0  0  0  0  0  0  0  0
  -10.4490  -22.7772   -5.6302 H   0  0  0  0  0  0  0  0  0  0  0  0
   -8.5548  -22.4652   -5.6168 H   0  0  0  0  0  0  0  0  0  0  0  0
   -7.9597  -23.4426   -2.1181 N   0  0  0  0  0  0  0  0  0  0  0  0
   -8.0717  -24.1643   -0.9877 C   0  0  0  0  0  0  0  0  0  0  0  0
   -6.9483  -24.0520   -0.2310 N   0  0  0  0  0  0  0  0  0  0  0  0
   -6.1021  -23.2295   -0.8809 C   0  0  0  0  0  0  0  0  0  0  0  0
   -4.7472  -22.6777   -0.6501 C   0  0  0  0  0  0  0  0  0  0  0  0
   -4.1022  -22.9692    0.3799 O   0  0  0  0  0  0  0  0  0  0  0  0
   -4.2356  -21.8578   -1.5780 N   0  0  0  0  0  0  0  0  0  0  0  0
   -4.9064  -21.5249   -2.6972 C   0  0  0  0  0  0  0  0  0  0  0  0
   -4.3223  -20.6881   -3.5889 N   0  0  0  0  0  0  0  0  0  0  0  0
   -6.1485  -21.9924   -2.9736 N   0  0  0  0  0  0  0  0  0  0  0  0
   -6.7802  -22.8288   -2.1198 C   0  0  0  0  0  0  0  0  0  0  0  0
   -3.3355  -21.4848   -1.4363 H   0  0  0  0  0  0  0  0  0  0  0  0
   -3.4208  -20.3335   -3.4137 H   0  0  0  0  0  0  0  0  0  0  0  0
   -4.7995  -20.4349   -4.4120 H   0  0  0  0  0  0  0  0  0  0  0  0
  -11.2301  -25.9360   -3.3921 C   0  0  0  0  0  0  0  0  0  0  0  0
  -12.5869  -26.1930   -3.7301 O   0  0  0  0  0  0  0  0  0  0  0  0
  -13.7333  -25.9914   -2.6237 P   0  0  0  0  0  0  0  0  0  0  0  0
  -13.2665  -25.0535   -1.5355 O   0  0  0  0  0  0  0  0  0  0  0  0
  -14.9954  -25.4776   -3.2730 O   0  0  0  0  0  0  0  0  0  0  0  0
  -15.6813  -25.3590   -2.5975 H   0  0  0  0  0  0  0  0  0  0  0  0
  -13.9586  -27.4861   -2.0676 O   0  0  0  0  0  0  0  0  0  0  0  0
  -15.0498  -28.4808   -2.7082 P   0  0  0  0  0  0  0  0  0  0  0  0
  -16.4281  -28.1490   -2.1896 O   0  0  0  0  0  0  0  0  0  0  0  0
  -15.0223  -28.3381   -4.2113 O   0  0  0  0  0  0  0  0  0  0  0  0
  -14.6972  -29.9029   -2.3408 O   0  0  0  0  0  0  0  0  0  0  0  0
  -15.6779  -28.9350   -4.6048 H   0  0  0  0  0  0  0  0  0  0  0  0
  -15.3516  -30.5076   -2.7242 H   0  0  0  0  0  0  0  0  0  0  0  0
 31 32  2  0  0  0
 31 33  1  0  0  0
 31 34  1  0  0  0
 31 30  1  0  0  0
 30 26  1  0  0  0
 26 27  2  0  0  0
 26 28  1  0  0  0
 26 25  1  0  0  0
 25 24  1  0  0  0
 24  1  1  0  0  0
  1  2  1  0  0  0
  1  3  1  0  0  0
  2  7  1  0  0  0
  3  4  1  0  0  0
  3  5  1  0  0  0
  5  6  1  0  0  0
  5  7  1  0  0  0
  7 10  1  0  0  0
 10 11  1  0  0  0
 10 20  1  0  0  0
 11 12  2  0  0  0
 12 13  1  0  0  0
 13 14  1  0  0  0
 13 20  2  0  0  0
 14 15  2  0  0  0
 14 16  1  0  0  0
 16 17  1  0  0  0
 17 18  1  0  0  0
 17 19  2  0  0  0
 19 20  1  0  0  0
 33 35  1  0  0  0
 34 36  1  0  0  0
 28 29  1  0  0  0
  4  8  1  0  0  0
  6  9  1  0  0  0
 16 21  1  0  0  0
 18 22  1  0  0  0
 18 23  1  0  0  0
M  END
> <minimizedAffinity>
-7.54404

$$$$
4OR6_GDP_A_501


 36 38  0  0  0  0  0  0  0  0999 V2000
   -6.7758  -16.5097   -5.9144 C   0  0  0  0  0  0  0  0  0  0  0  0
   -6.3197  -17.6026   -5.1205 O   0  0  0  0  0  0  0  0  0  0  0  0
   -7.2176  -17.0815   -7.2487 C   0  0  0  0  0  0  0  0  0  0  0  0
   -6.2934  -16.6726   -8.2571 O   0  0  0  0  0  0  0  0  0  0  0  0
   -7.1490  -18.5848   -7.0930 C   0  0  0  0  0  0  0  0  0  0  0  0
   -6.6201  -19.1787   -8.2796 O   0  0  0  0  0  0  0  0  0  0  0  0
   -6.2185  -18.7868   -5.9103 C   0  0  0  0  0  0  0  0  0  0  0  0
   -5.4010  -16.9669   -8.0163 H   0  0  0  0  0  0  0  0  0  0  0  0
   -5.7475  -18.8000   -8.4695 H   0  0  0  0  0  0  0  0  0  0  0  0
   -6.6273  -19.9448   -5.0834 N   0  0  0  0  0  0  0  0  0  0  0  0
   -7.0217  -19.9236   -3.7969 C   0  0  0  0  0  0  0  0  0  0  0  0
   -7.3031  -21.1789   -3.3584 N   0  0  0  0  0  0  0  0  0  0  0  0
   -7.0710  -22.0267   -4.3794 C   0  0  0  0  0  0  0  0  0  0  0  0
   -7.1589  -23.4875   -4.6070 C   0  0  0  0  0  0  0  0  0  0  0  0
   -7.5337  -24.2576   -3.6968 O   0  0  0  0  0  0  0  0  0  0  0  0
   -6.8247  -23.9568   -5.8165 N   0  0  0  0  0  0  0  0  0  0  0  0
   -6.4168  -23.1522   -6.8165 C   0  0  0  0  0  0  0  0  0  0  0  0
   -6.0944  -23.7023   -8.0123 N   0  0  0  0  0  0  0  0  0  0  0  0
   -6.3134  -21.8075   -6.6794 N   0  0  0  0  0  0  0  0  0  0  0  0
   -6.6204  -21.2044   -5.5090 C   0  0  0  0  0  0  0  0  0  0  0  0
   -6.8793  -24.9260   -5.9804 H   0  0  0  0  0  0  0  0  0  0  0  0
   -6.1602  -24.6762   -8.1399 H   0  0  0  0  0  0  0  0  0  0  0  0
   -5.7944  -23.1279   -8.7534 H   0  0  0  0  0  0  0  0  0  0  0  0
   -7.9492  -15.8495   -5.2136 C   0  0  0  0  0  0  0  0  0  0  0  0
   -8.6150  -14.9869   -6.1267 O   0  0  0  0  0  0  0  0  0  0  0  0
   -9.1961  -13.5811   -5.6120 P   0  0  0  0  0  0  0  0  0  0  0  0
   -8.9605  -13.4163   -4.1291 O   0  0  0  0  0  0  0  0  0  0  0  0
   -8.5697  -12.4469   -6.3863 O   0  0  0  0  0  0  0  0  0  0  0  0
   -8.9265  -11.6027   -6.0687 H   0  0  0  0  0  0  0  0  0  0  0  0
  -10.7649  -13.6957   -5.9583 O   0  0  0  0  0  0  0  0  0  0  0  0
  -11.3471  -13.3359   -7.4150 P   0  0  0  0  0  0  0  0  0  0  0  0
  -11.4428  -11.8390   -7.5848 O   0  0  0  0  0  0  0  0  0  0  0  0
  -10.4288  -13.9110   -8.4670 O   0  0  0  0  0  0  0  0  0  0  0  0
  -12.7175  -13.9531   -7.5652 O   0  0  0  0  0  0  0  0  0  0  0  0
  -10.7734  -13.6980   -9.3484 H   0  0  0  0  0  0  0  0  0  0  0  0
  -13.0740  -13.7397   -8.4417 H   0  0  0  0  0  0  0  0  0  0  0  0
 31 32  2  0  0  0
 31 33  1  0  0  0
 31 34  1  0  0  0
 31 30  1  0  0  0
 30 26  1  0  0  0
 26 27  2  0  0  0
 26 28  1  0  0  0
 26 25  1  0  0  0
 25 24  1  0  0  0
 24  1  1  0  0  0
  1  2  1  0  0  0
  1  3  1  0  0  0
  2  7  1  0  0  0
  3  4  1  0  0  0
  3  5  1  0  0  0
  5  6  1  0  0  0
  5  7  1  0  0  0
  7 10  1  0  0  0
 10 11  1  0  0  0
 10 20  1  0  0  0
 11 12  2  0  0  0
 12 13  1  0  0  0
 13 14  1  0  0  0
 13 20  2  0  0  0
 14 15  2  0  0  0
 14 16  1  0  0  0
 16 17  1  0  0  0
 17 18  1  0  0  0
 17 19  2  0  0  0
 19 20  1  0  0  0
 33 35  1  0  0  0
 34 36  1  0  0  0
 28 29  1  0  0  0
  4  8  1  0  0  0
  6  9  1  0  0  0
 16 21  1  0  0  0
 18 22  1  0  0  0
 18 23  1  0  0  0
M  END
> <minimizedAffinity>
-7.27638

$$$$
4OR6_GDP_A_501


 36 38  0  0  0  0  0  0  0  0999 V2000
   -9.8658  -23.1977   -4.3565 C   0  0  0  0  0  0  0  0  0  0  0  0
   -9.1099  -22.0776   -3.9019 O   0  0  0  0  0  0  0  0  0  0  0  0
   -8.8838  -24.1803   -4.9670 C   0  0  0  0  0  0  0  0  0  0  0  0
   -9.0787  -24.2123   -6.3810 O   0  0  0  0  0  0  0  0  0  0  0  0
   -7.5089  -23.6244   -4.6682 C   0  0  0  0  0  0  0  0  0  0  0  0
   -6.6557  -23.7862   -5.8024 O   0  0  0  0  0  0  0  0  0  0  0  0
   -7.7650  -22.1574   -4.3724 C   0  0  0  0  0  0  0  0  0  0  0  0
   -8.9675  -23.3193   -6.7430 H   0  0  0  0  0  0  0  0  0  0  0  0
   -7.0556  -23.3525   -6.5723 H   0  0  0  0  0  0  0  0  0  0  0  0
   -6.8621  -21.6457   -3.3167 N   0  0  0  0  0  0  0  0  0  0  0  0
   -6.0462  -20.5783   -3.3946 C   0  0  0  0  0  0  0  0  0  0  0  0
   -5.3505  -20.4181   -2.2380 N   0  0  0  0  0  0  0  0  0  0  0  0
   -5.7155  -21.4113   -1.4042 C   0  0  0  0  0  0  0  0  0  0  0  0
   -5.3721  -21.8443   -0.0302 C   0  0  0  0  0  0  0  0  0  0  0  0
   -4.5372  -21.2124    0.6522 O   0  0  0  0  0  0  0  0  0  0  0  0
   -5.9829  -22.9324    0.4575 N   0  0  0  0  0  0  0  0  0  0  0  0
   -6.8859  -23.6341   -0.2538 C   0  0  0  0  0  0  0  0  0  0  0  0
   -7.4605  -24.7253    0.3082 N   0  0  0  0  0  0  0  0  0  0  0  0
   -7.2483  -23.2955   -1.5154 N   0  0  0  0  0  0  0  0  0  0  0  0
   -6.7070  -22.2179   -2.1265 C   0  0  0  0  0  0  0  0  0  0  0  0
   -5.7634  -23.2302    1.3698 H   0  0  0  0  0  0  0  0  0  0  0  0
   -7.2159  -24.9942    1.2231 H   0  0  0  0  0  0  0  0  0  0  0  0
   -8.1224  -25.2491   -0.1985 H   0  0  0  0  0  0  0  0  0  0  0  0
  -10.5692  -23.8301   -3.1694 C   0  0  0  0  0  0  0  0  0  0  0  0
  -10.6837  -25.2307   -3.3845 O   0  0  0  0  0  0  0  0  0  0  0  0
  -10.3468  -26.2484   -2.1887 P   0  0  0  0  0  0  0  0  0  0  0  0
   -9.3579  -27.2965   -2.6417 O   0  0  0  0  0  0  0  0  0  0  0  0
   -9.8185  -25.4892   -0.9958 O   0  0  0  0  0  0  0  0  0  0  0  0
   -9.6180  -26.1117   -0.2793 H   0  0  0  0  0  0  0  0  0  0  0  0
  -11.7849  -26.8904   -1.8514 O   0  0  0  0  0  0  0  0  0  0  0  0
  -12.7883  -27.3930   -3.0051 P   0  0  0  0  0  0  0  0  0  0  0  0
  -13.7354  -28.4332   -2.4578 O   0  0  0  0  0  0  0  0  0  0  0  0
  -13.5727  -26.2112   -3.5233 O   0  0  0  0  0  0  0  0  0  0  0  0
  -11.9821  -27.9850   -4.1370 O   0  0  0  0  0  0  0  0  0  0  0  0
  -14.1802  -26.5064   -4.2196 H   0  0  0  0  0  0  0  0  0  0  0  0
  -12.5815  -28.2899   -4.8360 H   0  0  0  0  0  0  0  0  0  0  0  0
 31 32  2  0  0  0
 31 33  1  0  0  0
 31 34  1  0  0  0
 31 30  1  0  0  0
 30 26  1  0  0  0
 26 27  2  0  0  0
 26 28  1  0  0  0
 26 25  1  0  0  0
 25 24  1  0  0  0
 24  1  1  0  0  0
  1  2  1  0  0  0
  1  3  1  0  0  0
  2  7  1  0  0  0
  3  4  1  0  0  0
  3  5  1  0  0  0
  5  6  1  0  0  0
  5  7  1  0  0  0
  7 10  1  0  0  0
 10 11  1  0  0  0
 10 20  1  0  0  0
 11 12  2  0  0  0
 12 13  1  0  0  0
 13 14  1  0  0  0
 13 20  2  0  0  0
 14 15  2  0  0  0
 14 16  1  0  0  0
 16 17  1  0  0  0
 17 18  1  0  0  0
 17 19  2  0  0  0
 19 20  1  0  0  0
 33 35  1  0  0  0
 34 36  1  0  0  0
 28 29  1  0  0  0
  4  8  1  0  0  0
  6  9  1  0  0  0
 16 21  1  0  0  0
 18 22  1  0  0  0
 18 23  1  0  0  0
M  END
> <minimizedAffinity>
-7.20936

$$$$
4OR6_GDP_A_501


 36 38  0  0  0  0  0  0  0  0999 V2000
  -11.1208  -24.6398   -2.6815 C   0  0  0  0  0  0  0  0  0  0  0  0
  -10.2441  -23.5481   -2.4123 O   0  0  0  0  0  0  0  0  0  0  0  0
  -10.6994  -25.2323   -4.0133 C   0  0  0  0  0  0  0  0  0  0  0  0
  -11.7024  -24.9432   -4.9873 O   0  0  0  0  0  0  0  0  0  0  0  0
   -9.4198  -24.5194   -4.3922 C   0  0  0  0  0  0  0  0  0  0  0  0
   -9.4159  -24.2254   -5.7901 O   0  0  0  0  0  0  0  0  0  0  0  0
   -9.4490  -23.2503   -3.5593 C   0  0  0  0  0  0  0  0  0  0  0  0
  -11.8309  -23.9835   -5.0441 H   0  0  0  0  0  0  0  0  0  0  0  0
  -10.1978  -23.6956   -6.0113 H   0  0  0  0  0  0  0  0  0  0  0  0
   -8.0940  -22.8597   -3.1086 N   0  0  0  0  0  0  0  0  0  0  0  0
   -7.4388  -23.3113   -2.0233 C   0  0  0  0  0  0  0  0  0  0  0  0
   -6.2215  -22.7167   -1.9132 N   0  0  0  0  0  0  0  0  0  0  0  0
   -6.0971  -21.8542   -2.9407 C   0  0  0  0  0  0  0  0  0  0  0  0
   -5.0733  -20.9019   -3.4288 C   0  0  0  0  0  0  0  0  0  0  0  0
   -3.9890  -20.7590   -2.8239 O   0  0  0  0  0  0  0  0  0  0  0  0
   -5.3452  -20.1995   -4.5368 N   0  0  0  0  0  0  0  0  0  0  0  0
   -6.5043  -20.3311   -5.2097 C   0  0  0  0  0  0  0  0  0  0  0  0
   -6.7066  -19.5842   -6.3222 N   0  0  0  0  0  0  0  0  0  0  0  0
   -7.4846  -21.1830   -4.8211 N   0  0  0  0  0  0  0  0  0  0  0  0
   -7.3383  -21.9516   -3.7186 C   0  0  0  0  0  0  0  0  0  0  0  0
   -4.6725  -19.5634   -4.8716 H   0  0  0  0  0  0  0  0  0  0  0  0
   -6.0115  -18.9573   -6.6273 H   0  0  0  0  0  0  0  0  0  0  0  0
   -7.5486  -19.6686   -6.8253 H   0  0  0  0  0  0  0  0  0  0  0  0
  -10.9723  -25.6724   -1.5789 C   0  0  0  0  0  0  0  0  0  0  0  0
  -11.8807  -26.7408   -1.8125 O   0  0  0  0  0  0  0  0  0  0  0  0
  -13.1214  -26.9609   -0.8170 P   0  0  0  0  0  0  0  0  0  0  0  0
  -12.6539  -27.5304    0.5016 O   0  0  0  0  0  0  0  0  0  0  0  0
  -13.8574  -25.6592   -0.6109 O   0  0  0  0  0  0  0  0  0  0  0  0
  -14.6044  -25.8020   -0.0088 H   0  0  0  0  0  0  0  0  0  0  0  0
  -14.0452  -28.0044   -1.6242 O   0  0  0  0  0  0  0  0  0  0  0  0
  -14.2282  -27.9260   -3.2214 P   0  0  0  0  0  0  0  0  0  0  0  0
  -15.5346  -28.5623   -3.6300 O   0  0  0  0  0  0  0  0  0  0  0  0
  -14.2112  -26.4772   -3.6474 O   0  0  0  0  0  0  0  0  0  0  0  0
  -13.0807  -28.6494   -3.8858 O   0  0  0  0  0  0  0  0  0  0  0  0
  -14.3211  -26.4218   -4.6096 H   0  0  0  0  0  0  0  0  0  0  0  0
  -13.1853  -28.6057   -4.8491 H   0  0  0  0  0  0  0  0  0  0  0  0
 31 32  2  0  0  0
 31 33  1  0  0  0
 31 34  1  0  0  0
 31 30  1  0  0  0
 30 26  1  0  0  0
 26 27  2  0  0  0
 26 28  1  0  0  0
 26 25  1  0  0  0
 25 24  1  0  0  0
 24  1  1  0  0  0
  1  2  1  0  0  0
  1  3  1  0  0  0
  2  7  1  0  0  0
  3  4  1  0  0  0
  3  5  1  0  0  0
  5  6  1  0  0  0
  5  7  1  0  0  0
  7 10  1  0  0  0
 10 11  1  0  0  0
 10 20  1  0  0  0
 11 12  2  0  0  0
 12 13  1  0  0  0
 13 14  1  0  0  0
 13 20  2  0  0  0
 14 15  2  0  0  0
 14 16  1  0  0  0
 16 17  1  0  0  0
 17 18  1  0  0  0
 17 19  2  0  0  0
 19 20  1  0  0  0
 33 35  1  0  0  0
 34 36  1  0  0  0
 28 29  1  0  0  0
  4  8  1  0  0  0
  6  9  1  0  0  0
 16 21  1  0  0  0
 18 22  1  0  0  0
 18 23  1  0  0  0
M  END
> <minimizedAffinity>
-7.12387

$$$$
4OR6_GDP_A_501


 36 38  0  0  0  0  0  0  0  0999 V2000
   -9.7895  -23.4754   -3.9600 C   0  0  0  0  0  0  0  0  0  0  0  0
  -11.0848  -24.0656   -4.0417 O   0  0  0  0  0  0  0  0  0  0  0  0
   -9.2266  -23.8227   -2.5943 C   0  0  0  0  0  0  0  0  0  0  0  0
   -9.1786  -22.6386   -1.7980 O   0  0  0  0  0  0  0  0  0  0  0  0
  -10.2109  -24.7938   -1.9804 C   0  0  0  0  0  0  0  0  0  0  0  0
  -10.3920  -24.5003   -0.5942 O   0  0  0  0  0  0  0  0  0  0  0  0
  -11.4890  -24.5637   -2.7670 C   0  0  0  0  0  0  0  0  0  0  0  0
  -10.0674  -22.2552   -1.7349 H   0  0  0  0  0  0  0  0  0  0  0  0
  -10.6881  -23.5820   -0.4941 H   0  0  0  0  0  0  0  0  0  0  0  0
  -12.2431  -25.8220   -2.9669 N   0  0  0  0  0  0  0  0  0  0  0  0
  -11.7704  -26.9807   -3.4621 C   0  0  0  0  0  0  0  0  0  0  0  0
  -12.7539  -27.9171   -3.5192 N   0  0  0  0  0  0  0  0  0  0  0  0
  -13.8858  -27.3447   -3.0651 C   0  0  0  0  0  0  0  0  0  0  0  0
  -15.2929  -27.7576   -2.8580 C   0  0  0  0  0  0  0  0  0  0  0  0
  -15.6694  -28.9166   -3.1356 O   0  0  0  0  0  0  0  0  0  0  0  0
  -16.1482  -26.8518   -2.3651 N   0  0  0  0  0  0  0  0  0  0  0  0
  -15.7725  -25.5957   -2.0574 C   0  0  0  0  0  0  0  0  0  0  0  0
  -16.6965  -24.7359   -1.5639 N   0  0  0  0  0  0  0  0  0  0  0  0
  -14.5027  -25.1498   -2.2203 N   0  0  0  0  0  0  0  0  0  0  0  0
  -13.5400  -25.9629   -2.7097 C   0  0  0  0  0  0  0  0  0  0  0  0
  -17.0863  -27.1142   -2.2226 H   0  0  0  0  0  0  0  0  0  0  0  0
  -17.6262  -25.0330   -1.4353 H   0  0  0  0  0  0  0  0  0  0  0  0
  -16.4380  -23.8141   -1.3341 H   0  0  0  0  0  0  0  0  0  0  0  0
   -8.9129  -24.0615   -5.0517 C   0  0  0  0  0  0  0  0  0  0  0  0
   -7.5525  -23.7550   -4.7752 O   0  0  0  0  0  0  0  0  0  0  0  0
   -6.5804  -23.3046   -5.9715 P   0  0  0  0  0  0  0  0  0  0  0  0
   -5.1634  -23.7561   -5.7074 O   0  0  0  0  0  0  0  0  0  0  0  0
   -7.0851  -23.8540   -7.2838 O   0  0  0  0  0  0  0  0  0  0  0  0
   -6.4921  -23.5770   -7.9997 H   0  0  0  0  0  0  0  0  0  0  0  0
   -6.7094  -21.6993   -5.9503 O   0  0  0  0  0  0  0  0  0  0  0  0
   -6.5428  -20.8463   -4.5956 P   0  0  0  0  0  0  0  0  0  0  0  0
   -5.9749  -19.4820   -4.9031 O   0  0  0  0  0  0  0  0  0  0  0  0
   -7.8942  -20.6999   -3.9376 O   0  0  0  0  0  0  0  0  0  0  0  0
   -5.6150  -21.5837   -3.6590 O   0  0  0  0  0  0  0  0  0  0  0  0
   -7.8017  -20.1866   -3.1198 H   0  0  0  0  0  0  0  0  0  0  0  0
   -5.5104  -21.0744   -2.8401 H   0  0  0  0  0  0  0  0  0  0  0  0
 31 32  2  0  0  0
 31 33  1  0  0  0
 31 34  1  0  0  0
 31 30  1  0  0  0
 30 26  1  0  0  0
 26 27  2  0  0  0
 26 28  1  0  0  0
 26 25  1  0  0  0
 25 24  1  0  0  0
 24  1  1  0  0  0
  1  2  1  0  0  0
  1  3  1  0  0  0
  2  7  1  0  0  0
  3  4  1  0  0  0
  3  5  1  0  0  0
  5  6  1  0  0  0
  5  7  1  0  0  0
  7 10  1  0  0  0
 10 11  1  0  0  0
 10 20  1  0  0  0
 11 12  2  0  0  0
 12 13  1  0  0  0
 13 14  1  0  0  0
 13 20  2  0  0  0
 14 15  2  0  0  0
 14 16  1  0  0  0
 16 17  1  0  0  0
 17 18  1  0  0  0
 17 19  2  0  0  0
 19 20  1  0  0  0
 33 35  1  0  0  0
 34 36  1  0  0  0
 28 29  1  0  0  0
  4  8  1  0  0  0
  6  9  1  0  0  0
 16 21  1  0  0  0
 18 22  1  0  0  0
 18 23  1  0  0  0
M  END
> <minimizedAffinity>
-7.10053

$$$$
4OR6_GDP_A_501


 36 38  0  0  0  0  0  0  0  0999 V2000
  -11.0231  -24.5732   -2.9022 C   0  0  0  0  0  0  0  0  0  0  0  0
  -10.3904  -23.2981   -2.8214 O   0  0  0  0  0  0  0  0  0  0  0  0
  -10.4871  -25.2591   -4.1450 C   0  0  0  0  0  0  0  0  0  0  0  0
  -11.5270  -25.3291   -5.1208 O   0  0  0  0  0  0  0  0  0  0  0  0
   -9.3814  -24.3651   -4.6616 C   0  0  0  0  0  0  0  0  0  0  0  0
   -9.4364  -24.2881   -6.0870 O   0  0  0  0  0  0  0  0  0  0  0  0
   -9.6723  -23.0189   -4.0226 C   0  0  0  0  0  0  0  0  0  0  0  0
  -11.8504  -24.4351   -5.3133 H   0  0  0  0  0  0  0  0  0  0  0  0
  -10.3103  -23.9679   -6.3600 H   0  0  0  0  0  0  0  0  0  0  0  0
   -8.4273  -22.2976   -3.6740 N   0  0  0  0  0  0  0  0  0  0  0  0
   -8.0466  -21.0813   -4.1063 C   0  0  0  0  0  0  0  0  0  0  0  0
   -6.8337  -20.7453   -3.5930 N   0  0  0  0  0  0  0  0  0  0  0  0
   -6.4190  -21.7727   -2.8265 C   0  0  0  0  0  0  0  0  0  0  0  0
   -5.2334  -22.0863   -1.9962 C   0  0  0  0  0  0  0  0  0  0  0  0
   -4.2917  -21.2718   -1.8882 O   0  0  0  0  0  0  0  0  0  0  0  0
   -5.2018  -23.2681   -1.3659 N   0  0  0  0  0  0  0  0  0  0  0  0
   -6.2006  -24.1662   -1.4636 C   0  0  0  0  0  0  0  0  0  0  0  0
   -6.0951  -25.3412   -0.7968 N   0  0  0  0  0  0  0  0  0  0  0  0
   -7.3144  -23.9459   -2.2043 N   0  0  0  0  0  0  0  0  0  0  0  0
   -7.4730  -22.7925   -2.8914 C   0  0  0  0  0  0  0  0  0  0  0  0
   -4.4193  -23.4882   -0.8106 H   0  0  0  0  0  0  0  0  0  0  0  0
   -5.2970  -25.5277   -0.2513 H   0  0  0  0  0  0  0  0  0  0  0  0
   -6.8165  -26.0084   -0.8579 H   0  0  0  0  0  0  0  0  0  0  0  0
  -10.6665  -25.3777   -1.6655 C   0  0  0  0  0  0  0  0  0  0  0  0
  -11.3924  -26.6001   -1.6766 O   0  0  0  0  0  0  0  0  0  0  0  0
  -12.7467  -26.7278   -0.8232 P   0  0  0  0  0  0  0  0  0  0  0  0
  -12.4635  -27.2982    0.5465 O   0  0  0  0  0  0  0  0  0  0  0  0
  -13.4210  -25.3814   -0.7170 O   0  0  0  0  0  0  0  0  0  0  0  0
  -14.2373  -25.4685   -0.2004 H   0  0  0  0  0  0  0  0  0  0  0  0
  -13.6369  -27.7306   -1.7154 O   0  0  0  0  0  0  0  0  0  0  0  0
  -13.8084  -27.5376   -3.3041 P   0  0  0  0  0  0  0  0  0  0  0  0
  -14.9994  -28.3210   -3.8005 O   0  0  0  0  0  0  0  0  0  0  0  0
  -14.0028  -26.0700   -3.6026 O   0  0  0  0  0  0  0  0  0  0  0  0
  -12.5569  -28.0210   -3.9980 O   0  0  0  0  0  0  0  0  0  0  0  0
  -14.1069  -25.9457   -4.5590 H   0  0  0  0  0  0  0  0  0  0  0  0
  -12.6541  -27.9073   -4.9564 H   0  0  0  0  0  0  0  0  0  0  0  0
 31 32  2  0  0  0
 31 33  1  0  0  0
 31 34  1  0  0  0
 31 30  1  0  0  0
 30 26  1  0  0  0
 26 27  2  0  0  0
 26 28  1  0  0  0
 26 25  1  0  0  0
 25 24  1  0  0  0
 24  1  1  0  0  0
  1  2  1  0  0  0
  1  3  1  0  0  0
  2  7  1  0  0  0
  3  4  1  0  0  0
  3  5  1  0  0  0
  5  6  1  0  0  0
  5  7  1  0  0  0
  7 10  1  0  0  0
 10 11  1  0  0  0
 10 20  1  0  0  0
 11 12  2  0  0  0
 12 13  1  0  0  0
 13 14  1  0  0  0
 13 20  2  0  0  0
 14 15  2  0  0  0
 14 16  1  0  0  0
 16 17  1  0  0  0
 17 18  1  0  0  0
 17 19  2  0  0  0
 19 20  1  0  0  0
 33 35  1  0  0  0
 34 36  1  0  0  0
 28 29  1  0  0  0
  4  8  1  0  0  0
  6  9  1  0  0  0
 16 21  1  0  0  0
 18 22  1  0  0  0
 18 23  1  0  0  0
M  END
> <minimizedAffinity>
-7.07747

$$$$
4OR6_GDP_A_501


 36 38  0  0  0  0  0  0  0  0999 V2000
  -10.0655  -25.5148   -0.2513 C   0  0  0  0  0  0  0  0  0  0  0  0
   -9.3868  -25.4233   -1.5017 O   0  0  0  0  0  0  0  0  0  0  0  0
   -9.5359  -24.3961    0.6266 C   0  0  0  0  0  0  0  0  0  0  0  0
   -8.7476  -24.9623    1.6736 O   0  0  0  0  0  0  0  0  0  0  0  0
   -8.6467  -23.5601   -0.2673 C   0  0  0  0  0  0  0  0  0  0  0  0
   -7.4718  -23.1621    0.4411 O   0  0  0  0  0  0  0  0  0  0  0  0
   -8.3105  -24.4898   -1.4197 C   0  0  0  0  0  0  0  0  0  0  0  0
   -8.0299  -25.4895    1.2891 H   0  0  0  0  0  0  0  0  0  0  0  0
   -7.0091  -23.9495    0.7679 H   0  0  0  0  0  0  0  0  0  0  0  0
   -8.2177  -23.7590   -2.7038 N   0  0  0  0  0  0  0  0  0  0  0  0
   -9.0670  -23.8377   -3.7449 C   0  0  0  0  0  0  0  0  0  0  0  0
   -8.6553  -23.0381   -4.7640 N   0  0  0  0  0  0  0  0  0  0  0  0
   -7.5100  -22.4440   -4.3763 C   0  0  0  0  0  0  0  0  0  0  0  0
   -6.5433  -21.4858   -4.9597 C   0  0  0  0  0  0  0  0  0  0  0  0
   -6.7108  -21.0242   -6.1090 O   0  0  0  0  0  0  0  0  0  0  0  0
   -5.4854  -21.1298   -4.2186 N   0  0  0  0  0  0  0  0  0  0  0  0
   -5.2776  -21.6105   -2.9778 C   0  0  0  0  0  0  0  0  0  0  0  0
   -4.1827  -21.2038   -2.2906 N   0  0  0  0  0  0  0  0  0  0  0  0
   -6.1204  -22.4891   -2.3816 N   0  0  0  0  0  0  0  0  0  0  0  0
   -7.2272  -22.9303   -3.0202 C   0  0  0  0  0  0  0  0  0  0  0  0
   -4.8357  -20.4931   -4.5951 H   0  0  0  0  0  0  0  0  0  0  0  0
   -3.5537  -20.5662   -2.6993 H   0  0  0  0  0  0  0  0  0  0  0  0
   -4.0164  -21.5459   -1.3825 H   0  0  0  0  0  0  0  0  0  0  0  0
  -11.5543  -25.3354   -0.4863 C   0  0  0  0  0  0  0  0  0  0  0  0
  -11.7590  -24.7429   -1.7623 O   0  0  0  0  0  0  0  0  0  0  0  0
  -12.9658  -25.2531   -2.6908 P   0  0  0  0  0  0  0  0  0  0  0  0
  -14.1575  -24.3325   -2.5720 O   0  0  0  0  0  0  0  0  0  0  0  0
  -12.5073  -25.3582   -4.1251 O   0  0  0  0  0  0  0  0  0  0  0  0
  -13.2423  -25.6668   -4.6778 H   0  0  0  0  0  0  0  0  0  0  0  0
  -13.2798  -26.7162   -2.0951 O   0  0  0  0  0  0  0  0  0  0  0  0
  -13.6468  -27.9642   -3.0430 P   0  0  0  0  0  0  0  0  0  0  0  0
  -12.4669  -28.3252   -3.9125 O   0  0  0  0  0  0  0  0  0  0  0  0
  -14.0233  -29.1438   -2.1785 O   0  0  0  0  0  0  0  0  0  0  0  0
  -14.8248  -27.5937   -3.9128 O   0  0  0  0  0  0  0  0  0  0  0  0
  -14.2460  -29.9005   -2.7431 H   0  0  0  0  0  0  0  0  0  0  0  0
  -15.0510  -28.3422   -4.4868 H   0  0  0  0  0  0  0  0  0  0  0  0
 31 32  2  0  0  0
 31 33  1  0  0  0
 31 34  1  0  0  0
 31 30  1  0  0  0
 30 26  1  0  0  0
 26 27  2  0  0  0
 26 28  1  0  0  0
 26 25  1  0  0  0
 25 24  1  0  0  0
 24  1  1  0  0  0
  1  2  1  0  0  0
  1  3  1  0  0  0
  2  7  1  0  0  0
  3  4  1  0  0  0
  3  5  1  0  0  0
  5  6  1  0  0  0
  5  7  1  0  0  0
  7 10  1  0  0  0
 10 11  1  0  0  0
 10 20  1  0  0  0
 11 12  2  0  0  0
 12 13  1  0  0  0
 13 14  1  0  0  0
 13 20  2  0  0  0
 14 15  2  0  0  0
 14 16  1  0  0  0
 16 17  1  0  0  0
 17 18  1  0  0  0
 17 19  2  0  0  0
 19 20  1  0  0  0
 33 35  1  0  0  0
 34 36  1  0  0  0
 28 29  1  0  0  0
  4  8  1  0  0  0
  6  9  1  0  0  0
 16 21  1  0  0  0
 18 22  1  0  0  0
 18 23  1  0  0  0
M  END
> <minimizedAffinity>
-7.01786

$$$$
4OR6_GDP_A_501


 36 38  0  0  0  0  0  0  0  0999 V2000
   -8.5721  -23.3544   -4.3132 C   0  0  0  0  0  0  0  0  0  0  0  0
   -8.0076  -23.1189   -3.0253 O   0  0  0  0  0  0  0  0  0  0  0  0
   -7.4343  -23.7603   -5.2314 C   0  0  0  0  0  0  0  0  0  0  0  0
   -7.1978  -22.7096   -6.1686 O   0  0  0  0  0  0  0  0  0  0  0  0
   -6.2220  -23.9115   -4.3392 C   0  0  0  0  0  0  0  0  0  0  0  0
   -5.0663  -23.3741   -4.9843 O   0  0  0  0  0  0  0  0  0  0  0  0
   -6.5823  -23.1171   -3.0965 C   0  0  0  0  0  0  0  0  0  0  0  0
   -7.0005  -21.8887   -5.6911 H   0  0  0  0  0  0  0  0  0  0  0  0
   -5.2264  -22.4452   -5.2134 H   0  0  0  0  0  0  0  0  0  0  0  0
   -6.0454  -23.7469   -1.8690 N   0  0  0  0  0  0  0  0  0  0  0  0
   -6.0363  -25.0585   -1.5679 C   0  0  0  0  0  0  0  0  0  0  0  0
   -5.4793  -25.2686   -0.3460 N   0  0  0  0  0  0  0  0  0  0  0  0
   -5.1362  -24.0662    0.1555 C   0  0  0  0  0  0  0  0  0  0  0  0
   -4.5094  -23.5565    1.3967 C   0  0  0  0  0  0  0  0  0  0  0  0
   -4.1546  -24.3387    2.3047 O   0  0  0  0  0  0  0  0  0  0  0  0
   -4.3350  -22.2335    1.5158 N   0  0  0  0  0  0  0  0  0  0  0  0
   -4.7075  -21.3661    0.5554 C   0  0  0  0  0  0  0  0  0  0  0  0
   -4.4991  -20.0413    0.7499 N   0  0  0  0  0  0  0  0  0  0  0  0
   -5.2857  -21.7617   -0.6052 N   0  0  0  0  0  0  0  0  0  0  0  0
   -5.5189  -23.0701   -0.8528 C   0  0  0  0  0  0  0  0  0  0  0  0
   -3.9190  -21.8824    2.3361 H   0  0  0  0  0  0  0  0  0  0  0  0
   -4.0810  -19.7259    1.5836 H   0  0  0  0  0  0  0  0  0  0  0  0
   -4.7658  -19.3942    0.0575 H   0  0  0  0  0  0  0  0  0  0  0  0
   -9.5856  -24.4794   -4.2070 C   0  0  0  0  0  0  0  0  0  0  0  0
   -9.8985  -24.7001   -2.8378 O   0  0  0  0  0  0  0  0  0  0  0  0
  -10.3542  -26.1615   -2.3526 P   0  0  0  0  0  0  0  0  0  0  0  0
   -9.2986  -27.1888   -2.6870 O   0  0  0  0  0  0  0  0  0  0  0  0
  -10.6432  -26.1488   -0.8711 O   0  0  0  0  0  0  0  0  0  0  0  0
  -10.9174  -27.0350   -0.5875 H   0  0  0  0  0  0  0  0  0  0  0  0
  -11.7109  -26.4066   -3.1852 O   0  0  0  0  0  0  0  0  0  0  0  0
  -13.1353  -25.8523   -2.6807 P   0  0  0  0  0  0  0  0  0  0  0  0
  -13.6199  -26.6553   -1.4980 O   0  0  0  0  0  0  0  0  0  0  0  0
  -12.9865  -24.4021   -2.2862 O   0  0  0  0  0  0  0  0  0  0  0  0
  -14.1336  -25.9568   -3.8095 O   0  0  0  0  0  0  0  0  0  0  0  0
  -13.8415  -24.0608   -1.9808 H   0  0  0  0  0  0  0  0  0  0  0  0
  -14.9946  -25.6240   -3.5115 H   0  0  0  0  0  0  0  0  0  0  0  0
 31 32  2  0  0  0
 31 33  1  0  0  0
 31 34  1  0  0  0
 31 30  1  0  0  0
 30 26  1  0  0  0
 26 27  2  0  0  0
 26 28  1  0  0  0
 26 25  1  0  0  0
 25 24  1  0  0  0
 24  1  1  0  0  0
  1  2  1  0  0  0
  1  3  1  0  0  0
  2  7  1  0  0  0
  3  4  1  0  0  0
  3  5  1  0  0  0
  5  6  1  0  0  0
  5  7  1  0  0  0
  7 10  1  0  0  0
 10 11  1  0  0  0
 10 20  1  0  0  0
 11 12  2  0  0  0
 12 13  1  0  0  0
 13 14  1  0  0  0
 13 20  2  0  0  0
 14 15  2  0  0  0
 14 16  1  0  0  0
 16 17  1  0  0  0
 17 18  1  0  0  0
 17 19  2  0  0  0
 19 20  1  0  0  0
 33 35  1  0  0  0
 34 36  1  0  0  0
 28 29  1  0  0  0
  4  8  1  0  0  0
  6  9  1  0  0  0
 16 21  1  0  0  0
 18 22  1  0  0  0
 18 23  1  0  0  0
M  END
> <minimizedAffinity>
-6.86552

$$$$
