5EY4_DTP_A_501


 37 39  0  0  0  0  0  0  0  0999 V2000
   15.0279  -11.5205    2.7628 C   0  0  0  0  0  0  0  0  0  0  0  0
   15.4579  -10.6754    3.8344 O   0  0  0  0  0  0  0  0  0  0  0  0
   13.6217  -11.9873    3.1454 C   0  0  0  0  0  0  0  0  0  0  0  0
   13.7826  -13.2073    3.8048 O   0  0  0  0  0  0  0  0  0  0  0  0
   13.1165  -10.9369    4.1526 C   0  0  0  0  0  0  0  0  0  0  0  0
   14.4476  -10.5471    4.8313 C   0  0  0  0  0  0  0  0  0  0  0  0
   14.3902  -13.0932    4.5522 H   0  0  0  0  0  0  0  0  0  0  0  0
   14.5475   -9.1678    5.3233 N   0  0  0  0  0  0  0  0  0  0  0  0
   13.7666   -8.6129    6.2542 C   0  0  0  0  0  0  0  0  0  0  0  0
   14.0738   -7.3378    6.4089 N   0  0  0  0  0  0  0  0  0  0  0  0
   15.0463   -7.0557    5.5482 C   0  0  0  0  0  0  0  0  0  0  0  0
   15.7780   -5.9132    5.2341 C   0  0  0  0  0  0  0  0  0  0  0  0
   15.5529   -4.7325    5.8844 N   0  0  0  0  0  0  0  0  0  0  0  0
   16.7180   -5.9877    4.2969 N   0  0  0  0  0  0  0  0  0  0  0  0
   16.9530   -7.1548    3.6848 C   0  0  0  0  0  0  0  0  0  0  0  0
   16.2875   -8.2752    3.9243 N   0  0  0  0  0  0  0  0  0  0  0  0
   15.3438   -8.2262    4.8577 C   0  0  0  0  0  0  0  0  0  0  0  0
   14.8568   -4.6777    6.5783 H   0  0  0  0  0  0  0  0  0  0  0  0
   16.0869   -3.9368    5.6589 H   0  0  0  0  0  0  0  0  0  0  0  0
   15.0961  -10.7913    1.4332 C   0  0  0  0  0  0  0  0  0  0  0  0
   15.7405  -11.6326    0.4476 O   0  0  0  0  0  0  0  0  0  0  0  0
   16.9683  -11.0369   -0.4361 P   0  0  0  0  0  0  0  0  0  0  0  0
   17.4195  -12.1531   -1.3240 O   0  0  0  0  0  0  0  0  0  0  0  0
   16.5042   -9.8516   -1.2624 O   0  0  0  0  0  0  0  0  0  0  0  0
   17.2479   -9.5091   -1.7826 H   0  0  0  0  0  0  0  0  0  0  0  0
   18.1399  -10.5029    0.4671 O   0  0  0  0  0  0  0  0  0  0  0  0
   18.8818  -11.0893    1.7328 P   0  0  0  0  0  0  0  0  0  0  0  0
   18.5223  -12.5176    1.9302 O   0  0  0  0  0  0  0  0  0  0  0  0
   18.5266  -10.3055    2.9367 O   0  0  0  0  0  0  0  0  0  0  0  0
   18.9861  -10.6721    3.7083 H   0  0  0  0  0  0  0  0  0  0  0  0
   20.4083  -10.9686    1.3320 O   0  0  0  0  0  0  0  0  0  0  0  0
   21.2344  -11.7766    0.2279 P   0  0  0  0  0  0  0  0  0  0  0  0
   22.0269  -10.7812   -0.5500 O   0  0  0  0  0  0  0  0  0  0  0  0
   22.1929  -12.7575    0.8416 O   0  0  0  0  0  0  0  0  0  0  0  0
   20.3037  -12.5381   -0.6192 O   0  0  0  0  0  0  0  0  0  0  0  0
   22.6718  -13.2244    0.1390 H   0  0  0  0  0  0  0  0  0  0  0  0
   20.8043  -13.0288   -1.2896 H   0  0  0  0  0  0  0  0  0  0  0  0
 32 33  2  0  0  0
 32 34  1  0  0  0
 32 35  1  0  0  0
 32 31  1  0  0  0
 27 28  2  0  0  0
 27 29  1  0  0  0
 27 31  1  0  0  0
 27 26  1  0  0  0
 22 23  2  0  0  0
 22 24  1  0  0  0
 22 26  1  0  0  0
 22 21  1  0  0  0
 21 20  1  0  0  0
 20  1  1  0  0  0
  1  2  1  0  0  0
  1  3  1  0  0  0
  2  6  1  0  0  0
  3  4  1  0  0  0
  3  5  1  0  0  0
  5  6  1  0  0  0
  6  8  1  0  0  0
  8  9  1  0  0  0
  8 17  1  0  0  0
  9 10  2  0  0  0
 10 11  1  0  0  0
 11 12  1  0  0  0
 11 17  2  0  0  0
 12 13  1  0  0  0
 12 14  2  0  0  0
 14 15  1  0  0  0
 15 16  2  0  0  0
 16 17  1  0  0  0
 34 36  1  0  0  0
 35 37  1  0  0  0
 29 30  1  0  0  0
 24 25  1  0  0  0
  4  7  1  0  0  0
 13 18  1  0  0  0
 13 19  1  0  0  0
M  END
> <minimizedAffinity>
-9.20587

$$$$
5EY4_DTP_A_501


 37 39  0  0  0  0  0  0  0  0999 V2000
   15.4414  -13.3957    2.0054 C   0  0  0  0  0  0  0  0  0  0  0  0
   15.8578  -12.4460    2.9913 O   0  0  0  0  0  0  0  0  0  0  0  0
   13.9115  -13.3595    2.0194 C   0  0  0  0  0  0  0  0  0  0  0  0
   13.5065  -14.3646    2.8997 O   0  0  0  0  0  0  0  0  0  0  0  0
   13.5536  -11.9893    2.6255 C   0  0  0  0  0  0  0  0  0  0  0  0
   14.7398  -11.8021    3.5963 C   0  0  0  0  0  0  0  0  0  0  0  0
   13.9241  -14.2249    3.7640 H   0  0  0  0  0  0  0  0  0  0  0  0
   15.1643  -10.4193    3.8456 N   0  0  0  0  0  0  0  0  0  0  0  0
   16.2097   -9.8099    3.2800 C   0  0  0  0  0  0  0  0  0  0  0  0
   16.3576   -8.5962    3.7792 N   0  0  0  0  0  0  0  0  0  0  0  0
   15.4139   -8.4271    4.6996 C   0  0  0  0  0  0  0  0  0  0  0  0
   15.0535   -7.3902    5.5566 C   0  0  0  0  0  0  0  0  0  0  0  0
   15.7407   -6.2091    5.5600 N   0  0  0  0  0  0  0  0  0  0  0  0
   14.0138   -7.5573    6.3681 N   0  0  0  0  0  0  0  0  0  0  0  0
   13.3273   -8.7061    6.3384 C   0  0  0  0  0  0  0  0  0  0  0  0
   13.6221   -9.7366    5.5594 N   0  0  0  0  0  0  0  0  0  0  0  0
   14.6564   -9.5933    4.7386 C   0  0  0  0  0  0  0  0  0  0  0  0
   16.5106   -6.0857    4.9589 H   0  0  0  0  0  0  0  0  0  0  0  0
   15.4659   -5.4815    6.1636 H   0  0  0  0  0  0  0  0  0  0  0  0
   16.0542  -13.0809    0.6529 C   0  0  0  0  0  0  0  0  0  0  0  0
   17.2595  -12.3004    0.8328 O   0  0  0  0  0  0  0  0  0  0  0  0
   17.7009  -11.2310   -0.3094 P   0  0  0  0  0  0  0  0  0  0  0  0
   16.4848  -10.9949   -1.1482 O   0  0  0  0  0  0  0  0  0  0  0  0
   18.1708   -9.9356    0.3263 O   0  0  0  0  0  0  0  0  0  0  0  0
   18.4299   -9.3100   -0.3682 H   0  0  0  0  0  0  0  0  0  0  0  0
   18.9085  -11.7535   -1.1710 O   0  0  0  0  0  0  0  0  0  0  0  0
   20.3378  -11.1645   -1.4972 P   0  0  0  0  0  0  0  0  0  0  0  0
   20.2198   -9.7876   -2.0435 O   0  0  0  0  0  0  0  0  0  0  0  0
   21.0364  -12.0371   -2.4669 O   0  0  0  0  0  0  0  0  0  0  0  0
   21.9122  -11.6682   -2.6612 H   0  0  0  0  0  0  0  0  0  0  0  0
   21.0326  -11.1220   -0.0756 O   0  0  0  0  0  0  0  0  0  0  0  0
   21.4473  -12.3282    0.8874 P   0  0  0  0  0  0  0  0  0  0  0  0
   22.2096  -11.7435    2.0280 O   0  0  0  0  0  0  0  0  0  0  0  0
   20.2509  -13.0453    1.4461 O   0  0  0  0  0  0  0  0  0  0  0  0
   22.2375  -13.3102    0.1291 O   0  0  0  0  0  0  0  0  0  0  0  0
   20.5467  -13.7670    2.0228 H   0  0  0  0  0  0  0  0  0  0  0  0
   22.4896  -14.0426    0.7130 H   0  0  0  0  0  0  0  0  0  0  0  0
 32 33  2  0  0  0
 32 34  1  0  0  0
 32 35  1  0  0  0
 32 31  1  0  0  0
 27 28  2  0  0  0
 27 29  1  0  0  0
 27 31  1  0  0  0
 27 26  1  0  0  0
 22 23  2  0  0  0
 22 24  1  0  0  0
 22 26  1  0  0  0
 22 21  1  0  0  0
 21 20  1  0  0  0
 20  1  1  0  0  0
  1  2  1  0  0  0
  1  3  1  0  0  0
  2  6  1  0  0  0
  3  4  1  0  0  0
  3  5  1  0  0  0
  5  6  1  0  0  0
  6  8  1  0  0  0
  8  9  1  0  0  0
  8 17  1  0  0  0
  9 10  2  0  0  0
 10 11  1  0  0  0
 11 12  1  0  0  0
 11 17  2  0  0  0
 12 13  1  0  0  0
 12 14  2  0  0  0
 14 15  1  0  0  0
 15 16  2  0  0  0
 16 17  1  0  0  0
 34 36  1  0  0  0
 35 37  1  0  0  0
 29 30  1  0  0  0
 24 25  1  0  0  0
  4  7  1  0  0  0
 13 18  1  0  0  0
 13 19  1  0  0  0
M  END
> <minimizedAffinity>
-8.82744

$$$$
5EY4_DTP_A_501


 37 39  0  0  0  0  0  0  0  0999 V2000
   15.0575  -13.5694    2.0449 C   0  0  0  0  0  0  0  0  0  0  0  0
   15.5394  -12.6374    3.0178 O   0  0  0  0  0  0  0  0  0  0  0  0
   13.5313  -13.5138    2.1421 C   0  0  0  0  0  0  0  0  0  0  0  0
   13.1610  -14.5244    3.0313 O   0  0  0  0  0  0  0  0  0  0  0  0
   13.2251  -12.1467    2.7827 C   0  0  0  0  0  0  0  0  0  0  0  0
   14.4644  -11.9867    3.6900 C   0  0  0  0  0  0  0  0  0  0  0  0
   13.6264  -14.4008    3.8733 H   0  0  0  0  0  0  0  0  0  0  0  0
   14.9204  -10.6127    3.9321 N   0  0  0  0  0  0  0  0  0  0  0  0
   15.9793  -10.0302    3.3632 C   0  0  0  0  0  0  0  0  0  0  0  0
   16.1548   -8.8176    3.8561 N   0  0  0  0  0  0  0  0  0  0  0  0
   15.2154   -8.6223    4.7756 C   0  0  0  0  0  0  0  0  0  0  0  0
   14.8788   -7.5730    5.6272 C   0  0  0  0  0  0  0  0  0  0  0  0
   15.5927   -6.4078    5.6245 N   0  0  0  0  0  0  0  0  0  0  0  0
   13.8357   -7.7121    6.4397 N   0  0  0  0  0  0  0  0  0  0  0  0
   13.1232   -8.8452    6.4160 C   0  0  0  0  0  0  0  0  0  0  0  0
   13.3944   -9.8861    5.6423 N   0  0  0  0  0  0  0  0  0  0  0  0
   14.4315   -9.7707    4.8207 C   0  0  0  0  0  0  0  0  0  0  0  0
   16.3651   -6.3052    5.0227 H   0  0  0  0  0  0  0  0  0  0  0  0
   15.3347   -5.6710    6.2243 H   0  0  0  0  0  0  0  0  0  0  0  0
   15.6005  -13.2456    0.6649 C   0  0  0  0  0  0  0  0  0  0  0  0
   15.9872  -11.8523    0.6070 O   0  0  0  0  0  0  0  0  0  0  0  0
   17.1023  -11.3734   -0.4748 P   0  0  0  0  0  0  0  0  0  0  0  0
   17.1729  -12.4565   -1.5043 O   0  0  0  0  0  0  0  0  0  0  0  0
   16.6964  -10.0571   -1.1116 O   0  0  0  0  0  0  0  0  0  0  0  0
   17.3716   -9.7865   -1.7532 H   0  0  0  0  0  0  0  0  0  0  0  0
   18.5018  -11.1168    0.1955 O   0  0  0  0  0  0  0  0  0  0  0  0
   19.2960  -11.8447    1.3511 P   0  0  0  0  0  0  0  0  0  0  0  0
   20.1731  -12.9052    0.7905 O   0  0  0  0  0  0  0  0  0  0  0  0
   18.3491  -12.4316    2.3251 O   0  0  0  0  0  0  0  0  0  0  0  0
   18.8449  -12.8761    3.0305 H   0  0  0  0  0  0  0  0  0  0  0  0
   20.1797  -10.6797    1.9573 O   0  0  0  0  0  0  0  0  0  0  0  0
   20.9738  -10.6246    3.3431 P   0  0  0  0  0  0  0  0  0  0  0  0
   22.4190  -10.4487    3.0199 O   0  0  0  0  0  0  0  0  0  0  0  0
   20.5437   -9.4662    4.1979 O   0  0  0  0  0  0  0  0  0  0  0  0
   20.7151  -11.8564    4.1045 O   0  0  0  0  0  0  0  0  0  0  0  0
   21.0487   -9.4704    5.0261 H   0  0  0  0  0  0  0  0  0  0  0  0
   21.1968  -11.8238    4.9458 H   0  0  0  0  0  0  0  0  0  0  0  0
 32 33  2  0  0  0
 32 34  1  0  0  0
 32 35  1  0  0  0
 32 31  1  0  0  0
 27 28  2  0  0  0
 27 29  1  0  0  0
 27 31  1  0  0  0
 27 26  1  0  0  0
 22 23  2  0  0  0
 22 24  1  0  0  0
 22 26  1  0  0  0
 22 21  1  0  0  0
 21 20  1  0  0  0
 20  1  1  0  0  0
  1  2  1  0  0  0
  1  3  1  0  0  0
  2  6  1  0  0  0
  3  4  1  0  0  0
  3  5  1  0  0  0
  5  6  1  0  0  0
  6  8  1  0  0  0
  8  9  1  0  0  0
  8 17  1  0  0  0
  9 10  2  0  0  0
 10 11  1  0  0  0
 11 12  1  0  0  0
 11 17  2  0  0  0
 12 13  1  0  0  0
 12 14  2  0  0  0
 14 15  1  0  0  0
 15 16  2  0  0  0
 16 17  1  0  0  0
 34 36  1  0  0  0
 35 37  1  0  0  0
 29 30  1  0  0  0
 24 25  1  0  0  0
  4  7  1  0  0  0
 13 18  1  0  0  0
 13 19  1  0  0  0
M  END
> <minimizedAffinity>
-8.76219

$$$$
5EY4_DTP_A_501


 37 39  0  0  0  0  0  0  0  0999 V2000
   15.6000  -13.3850    2.0620 C   0  0  0  0  0  0  0  0  0  0  0  0
   15.8645  -12.4390    3.1023 O   0  0  0  0  0  0  0  0  0  0  0  0
   14.0968  -13.2894    1.7911 C   0  0  0  0  0  0  0  0  0  0  0  0
   13.4951  -14.2660    2.5869 O   0  0  0  0  0  0  0  0  0  0  0  0
   13.6886  -11.8983    2.3118 C   0  0  0  0  0  0  0  0  0  0  0  0
   14.6807  -11.7440    3.4850 C   0  0  0  0  0  0  0  0  0  0  0  0
   13.7505  -14.1310    3.5129 H   0  0  0  0  0  0  0  0  0  0  0  0
   15.1075  -10.3755    3.8005 N   0  0  0  0  0  0  0  0  0  0  0  0
   16.1664   -9.7488    3.2807 C   0  0  0  0  0  0  0  0  0  0  0  0
   16.3109   -8.5582    3.8335 N   0  0  0  0  0  0  0  0  0  0  0  0
   15.3509   -8.4226    4.7425 C   0  0  0  0  0  0  0  0  0  0  0  0
   14.9796   -7.4208    5.6357 C   0  0  0  0  0  0  0  0  0  0  0  0
   15.6725   -6.2448    5.7019 N   0  0  0  0  0  0  0  0  0  0  0  0
   13.9239   -7.6158    6.4199 N   0  0  0  0  0  0  0  0  0  0  0  0
   13.2323   -8.7584    6.3288 C   0  0  0  0  0  0  0  0  0  0  0  0
   13.5366   -9.7568    5.5125 N   0  0  0  0  0  0  0  0  0  0  0  0
   14.5869   -9.5850    4.7179 C   0  0  0  0  0  0  0  0  0  0  0  0
   16.4542   -6.1007    5.1211 H   0  0  0  0  0  0  0  0  0  0  0  0
   15.3900   -5.5417    6.3305 H   0  0  0  0  0  0  0  0  0  0  0  0
   16.4653  -13.1125    0.8450 C   0  0  0  0  0  0  0  0  0  0  0  0
   17.6757  -12.4301    1.2496 O   0  0  0  0  0  0  0  0  0  0  0  0
   19.0994  -13.2118    1.1785 P   0  0  0  0  0  0  0  0  0  0  0  0
   19.6562  -13.1859    2.5667 O   0  0  0  0  0  0  0  0  0  0  0  0
   18.8997  -14.6414    0.7099 O   0  0  0  0  0  0  0  0  0  0  0  0
   19.7576  -15.0924    0.6733 H   0  0  0  0  0  0  0  0  0  0  0  0
   20.0838  -12.5510    0.1451 O   0  0  0  0  0  0  0  0  0  0  0  0
   20.2365  -12.6601   -1.4236 P   0  0  0  0  0  0  0  0  0  0  0  0
   19.9682  -14.0498   -1.8762 O   0  0  0  0  0  0  0  0  0  0  0  0
   21.5982  -12.2478   -1.8302 O   0  0  0  0  0  0  0  0  0  0  0  0
   21.6830  -12.3178   -2.7940 H   0  0  0  0  0  0  0  0  0  0  0  0
   19.1020  -11.6923   -1.9547 O   0  0  0  0  0  0  0  0  0  0  0  0
   18.9312  -10.1173   -1.7441 P   0  0  0  0  0  0  0  0  0  0  0  0
   20.2592   -9.4888   -1.9997 O   0  0  0  0  0  0  0  0  0  0  0  0
   17.9413   -9.5205   -2.7041 O   0  0  0  0  0  0  0  0  0  0  0  0
   18.4398   -9.8564   -0.3824 O   0  0  0  0  0  0  0  0  0  0  0  0
   17.8685   -8.5669   -2.5422 H   0  0  0  0  0  0  0  0  0  0  0  0
   18.3359   -8.9005   -0.2538 H   0  0  0  0  0  0  0  0  0  0  0  0
 32 33  2  0  0  0
 32 34  1  0  0  0
 32 35  1  0  0  0
 32 31  1  0  0  0
 27 28  2  0  0  0
 27 29  1  0  0  0
 27 31  1  0  0  0
 27 26  1  0  0  0
 22 23  2  0  0  0
 22 24  1  0  0  0
 22 26  1  0  0  0
 22 21  1  0  0  0
 21 20  1  0  0  0
 20  1  1  0  0  0
  1  2  1  0  0  0
  1  3  1  0  0  0
  2  6  1  0  0  0
  3  4  1  0  0  0
  3  5  1  0  0  0
  5  6  1  0  0  0
  6  8  1  0  0  0
  8  9  1  0  0  0
  8 17  1  0  0  0
  9 10  2  0  0  0
 10 11  1  0  0  0
 11 12  1  0  0  0
 11 17  2  0  0  0
 12 13  1  0  0  0
 12 14  2  0  0  0
 14 15  1  0  0  0
 15 16  2  0  0  0
 16 17  1  0  0  0
 34 36  1  0  0  0
 35 37  1  0  0  0
 29 30  1  0  0  0
 24 25  1  0  0  0
  4  7  1  0  0  0
 13 18  1  0  0  0
 13 19  1  0  0  0
M  END
> <minimizedAffinity>
-8.62457

$$$$
5EY4_DTP_A_501


 37 39  0  0  0  0  0  0  0  0999 V2000
   15.1533  -11.7428    2.9898 C   0  0  0  0  0  0  0  0  0  0  0  0
   15.4226  -10.9172    4.1270 O   0  0  0  0  0  0  0  0  0  0  0  0
   13.6601  -12.0698    3.0629 C   0  0  0  0  0  0  0  0  0  0  0  0
   13.5606  -13.2844    3.7440 O   0  0  0  0  0  0  0  0  0  0  0  0
   13.0533  -10.9553    3.9362 C   0  0  0  0  0  0  0  0  0  0  0  0
   14.2398  -10.6744    4.8837 C   0  0  0  0  0  0  0  0  0  0  0  0
   14.0028  -13.2100    4.6041 H   0  0  0  0  0  0  0  0  0  0  0  0
   14.3623   -9.2995    5.3829 N   0  0  0  0  0  0  0  0  0  0  0  0
   13.5726   -8.7274    6.2958 C   0  0  0  0  0  0  0  0  0  0  0  0
   13.9080   -7.4610    6.4626 N   0  0  0  0  0  0  0  0  0  0  0  0
   14.9088   -7.2014    5.6275 C   0  0  0  0  0  0  0  0  0  0  0  0
   15.6770   -6.0771    5.3358 C   0  0  0  0  0  0  0  0  0  0  0  0
   15.4657   -4.8929    5.9843 N   0  0  0  0  0  0  0  0  0  0  0  0
   16.6381   -6.1729    4.4222 N   0  0  0  0  0  0  0  0  0  0  0  0
   16.8586   -7.3439    3.8122 C   0  0  0  0  0  0  0  0  0  0  0  0
   16.1590   -8.4476    4.0310 N   0  0  0  0  0  0  0  0  0  0  0  0
   15.1937   -8.3772    4.9406 C   0  0  0  0  0  0  0  0  0  0  0  0
   14.7539   -4.8223    6.6608 H   0  0  0  0  0  0  0  0  0  0  0  0
   16.0253   -4.1104    5.7750 H   0  0  0  0  0  0  0  0  0  0  0  0
   15.5721  -11.0528    1.7043 C   0  0  0  0  0  0  0  0  0  0  0  0
   16.8429  -10.3882    1.8986 O   0  0  0  0  0  0  0  0  0  0  0  0
   18.2140  -11.1264    1.4315 P   0  0  0  0  0  0  0  0  0  0  0  0
   19.2245  -10.8358    2.4958 O   0  0  0  0  0  0  0  0  0  0  0  0
   17.9950  -12.6221    1.2974 O   0  0  0  0  0  0  0  0  0  0  0  0
   18.8216  -13.0462    1.0185 H   0  0  0  0  0  0  0  0  0  0  0  0
   18.6986  -10.6314    0.0195 O   0  0  0  0  0  0  0  0  0  0  0  0
   18.2946  -11.0182   -1.4581 P   0  0  0  0  0  0  0  0  0  0  0  0
   18.2198   -9.8036   -2.3110 O   0  0  0  0  0  0  0  0  0  0  0  0
   16.9923  -11.7208   -1.4601 O   0  0  0  0  0  0  0  0  0  0  0  0
   16.7523  -11.9543   -2.3705 H   0  0  0  0  0  0  0  0  0  0  0  0
   19.5015  -11.9301   -1.9245 O   0  0  0  0  0  0  0  0  0  0  0  0
   20.9722  -12.0580   -1.3123 P   0  0  0  0  0  0  0  0  0  0  0  0
   21.8201  -12.7390   -2.3328 O   0  0  0  0  0  0  0  0  0  0  0  0
   21.5834  -10.7170   -1.0191 O   0  0  0  0  0  0  0  0  0  0  0  0
   20.9116  -12.8032   -0.0454 O   0  0  0  0  0  0  0  0  0  0  0  0
   22.4721  -10.8404   -0.6505 H   0  0  0  0  0  0  0  0  0  0  0  0
   21.8040  -12.8813    0.3268 H   0  0  0  0  0  0  0  0  0  0  0  0
 32 33  2  0  0  0
 32 34  1  0  0  0
 32 35  1  0  0  0
 32 31  1  0  0  0
 27 28  2  0  0  0
 27 29  1  0  0  0
 27 31  1  0  0  0
 27 26  1  0  0  0
 22 23  2  0  0  0
 22 24  1  0  0  0
 22 26  1  0  0  0
 22 21  1  0  0  0
 21 20  1  0  0  0
 20  1  1  0  0  0
  1  2  1  0  0  0
  1  3  1  0  0  0
  2  6  1  0  0  0
  3  4  1  0  0  0
  3  5  1  0  0  0
  5  6  1  0  0  0
  6  8  1  0  0  0
  8  9  1  0  0  0
  8 17  1  0  0  0
  9 10  2  0  0  0
 10 11  1  0  0  0
 11 12  1  0  0  0
 11 17  2  0  0  0
 12 13  1  0  0  0
 12 14  2  0  0  0
 14 15  1  0  0  0
 15 16  2  0  0  0
 16 17  1  0  0  0
 34 36  1  0  0  0
 35 37  1  0  0  0
 29 30  1  0  0  0
 24 25  1  0  0  0
  4  7  1  0  0  0
 13 18  1  0  0  0
 13 19  1  0  0  0
M  END
> <minimizedAffinity>
-8.51710

$$$$
5EY4_DTP_A_501


 37 39  0  0  0  0  0  0  0  0999 V2000
   14.7217  -14.6664    2.4057 C   0  0  0  0  0  0  0  0  0  0  0  0
   14.8712  -13.6726    3.4242 O   0  0  0  0  0  0  0  0  0  0  0  0
   13.3450  -14.4168    1.7859 C   0  0  0  0  0  0  0  0  0  0  0  0
   12.4536  -15.2433    2.4724 O   0  0  0  0  0  0  0  0  0  0  0  0
   13.0221  -12.9476    2.1177 C   0  0  0  0  0  0  0  0  0  0  0  0
   13.7367  -12.8119    3.4798 C   0  0  0  0  0  0  0  0  0  0  0  0
   12.5102  -15.0605    3.4234 H   0  0  0  0  0  0  0  0  0  0  0  0
   14.2625  -11.4817    3.8089 N   0  0  0  0  0  0  0  0  0  0  0  0
   15.3667  -10.9306    3.2977 C   0  0  0  0  0  0  0  0  0  0  0  0
   15.5971   -9.7589    3.8617 N   0  0  0  0  0  0  0  0  0  0  0  0
   14.6468   -9.5607    4.7694 C   0  0  0  0  0  0  0  0  0  0  0  0
   14.3477   -8.5421    5.6707 C   0  0  0  0  0  0  0  0  0  0  0  0
   15.1256   -7.4213    5.7496 N   0  0  0  0  0  0  0  0  0  0  0  0
   13.2779   -8.6654    6.4503 N   0  0  0  0  0  0  0  0  0  0  0  0
   12.5039   -9.7527    6.3469 C   0  0  0  0  0  0  0  0  0  0  0  0
   12.7361  -10.7636    5.5223 N   0  0  0  0  0  0  0  0  0  0  0  0
   13.7989  -10.6630    4.7322 C   0  0  0  0  0  0  0  0  0  0  0  0
   15.9178   -7.3303    5.1721 H   0  0  0  0  0  0  0  0  0  0  0  0
   14.8939   -6.7049    6.3838 H   0  0  0  0  0  0  0  0  0  0  0  0
   15.8670  -14.6038    1.4115 C   0  0  0  0  0  0  0  0  0  0  0  0
   15.4301  -13.9346    0.2050 O   0  0  0  0  0  0  0  0  0  0  0  0
   16.5079  -13.1104   -0.6906 P   0  0  0  0  0  0  0  0  0  0  0  0
   16.1048  -13.3153   -2.1167 O   0  0  0  0  0  0  0  0  0  0  0  0
   16.4798  -11.6354   -0.3345 O   0  0  0  0  0  0  0  0  0  0  0  0
   17.1277  -11.1594   -0.8772 H   0  0  0  0  0  0  0  0  0  0  0  0
   17.9823  -13.5911   -0.4288 O   0  0  0  0  0  0  0  0  0  0  0  0
   19.3563  -13.3075   -1.1554 P   0  0  0  0  0  0  0  0  0  0  0  0
   19.6587  -14.3848   -2.1334 O   0  0  0  0  0  0  0  0  0  0  0  0
   20.4454  -13.2065   -0.1588 O   0  0  0  0  0  0  0  0  0  0  0  0
   21.2845  -13.0325   -0.6133 H   0  0  0  0  0  0  0  0  0  0  0  0
   19.0755  -11.9499   -1.9195 O   0  0  0  0  0  0  0  0  0  0  0  0
   19.7001  -10.4995   -1.6739 P   0  0  0  0  0  0  0  0  0  0  0  0
   19.0126   -9.9155   -0.4864 O   0  0  0  0  0  0  0  0  0  0  0  0
   21.1720  -10.5584   -1.3773 O   0  0  0  0  0  0  0  0  0  0  0  0
   19.5247   -9.6802   -2.8829 O   0  0  0  0  0  0  0  0  0  0  0  0
   21.5094   -9.6601   -1.2353 H   0  0  0  0  0  0  0  0  0  0  0  0
   19.9036   -8.7997   -2.7346 H   0  0  0  0  0  0  0  0  0  0  0  0
 32 33  2  0  0  0
 32 34  1  0  0  0
 32 35  1  0  0  0
 32 31  1  0  0  0
 27 28  2  0  0  0
 27 29  1  0  0  0
 27 31  1  0  0  0
 27 26  1  0  0  0
 22 23  2  0  0  0
 22 24  1  0  0  0
 22 26  1  0  0  0
 22 21  1  0  0  0
 21 20  1  0  0  0
 20  1  1  0  0  0
  1  2  1  0  0  0
  1  3  1  0  0  0
  2  6  1  0  0  0
  3  4  1  0  0  0
  3  5  1  0  0  0
  5  6  1  0  0  0
  6  8  1  0  0  0
  8  9  1  0  0  0
  8 17  1  0  0  0
  9 10  2  0  0  0
 10 11  1  0  0  0
 11 12  1  0  0  0
 11 17  2  0  0  0
 12 13  1  0  0  0
 12 14  2  0  0  0
 14 15  1  0  0  0
 15 16  2  0  0  0
 16 17  1  0  0  0
 34 36  1  0  0  0
 35 37  1  0  0  0
 29 30  1  0  0  0
 24 25  1  0  0  0
  4  7  1  0  0  0
 13 18  1  0  0  0
 13 19  1  0  0  0
M  END
> <minimizedAffinity>
-8.46979

$$$$
5EY4_DTP_A_501


 37 39  0  0  0  0  0  0  0  0999 V2000
   14.6640  -14.4741    1.8021 C   0  0  0  0  0  0  0  0  0  0  0  0
   15.0645  -13.5812    2.8460 O   0  0  0  0  0  0  0  0  0  0  0  0
   13.1374  -14.3826    1.7454 C   0  0  0  0  0  0  0  0  0  0  0  0
   12.6556  -15.4072    2.5622 O   0  0  0  0  0  0  0  0  0  0  0  0
   12.7980  -13.0261    2.3915 C   0  0  0  0  0  0  0  0  0  0  0  0
   13.9412  -12.9219    3.4243 C   0  0  0  0  0  0  0  0  0  0  0  0
   13.0352  -15.3182    3.4504 H   0  0  0  0  0  0  0  0  0  0  0  0
   14.4006  -11.5669    3.7518 N   0  0  0  0  0  0  0  0  0  0  0  0
   15.4824  -10.9666    3.2482 C   0  0  0  0  0  0  0  0  0  0  0  0
   15.6519   -9.7828    3.8086 N   0  0  0  0  0  0  0  0  0  0  0  0
   14.6847   -9.6257    4.7064 C   0  0  0  0  0  0  0  0  0  0  0  0
   14.3294   -8.6183    5.5999 C   0  0  0  0  0  0  0  0  0  0  0  0
   15.0528   -7.4618    5.6805 N   0  0  0  0  0  0  0  0  0  0  0  0
   13.2591   -8.7885    6.3701 N   0  0  0  0  0  0  0  0  0  0  0  0
   12.5383   -9.9116    6.2648 C   0  0  0  0  0  0  0  0  0  0  0  0
   12.8257  -10.9140    5.4474 N   0  0  0  0  0  0  0  0  0  0  0  0
   13.8901  -10.7669    4.6667 C   0  0  0  0  0  0  0  0  0  0  0  0
   15.8452   -7.3361    5.1100 H   0  0  0  0  0  0  0  0  0  0  0  0
   14.7815   -6.7543    6.3091 H   0  0  0  0  0  0  0  0  0  0  0  0
   15.3524  -14.1270    0.4946 C   0  0  0  0  0  0  0  0  0  0  0  0
   15.5595  -12.6969    0.4166 O   0  0  0  0  0  0  0  0  0  0  0  0
   16.9992  -12.1201   -0.0711 P   0  0  0  0  0  0  0  0  0  0  0  0
   17.1039  -12.4449   -1.5277 O   0  0  0  0  0  0  0  0  0  0  0  0
   17.0746  -10.6204    0.1483 O   0  0  0  0  0  0  0  0  0  0  0  0
   17.9385  -10.2934   -0.1475 H   0  0  0  0  0  0  0  0  0  0  0  0
   18.1903  -12.7382    0.7491 O   0  0  0  0  0  0  0  0  0  0  0  0
   19.6657  -12.2549    1.0423 P   0  0  0  0  0  0  0  0  0  0  0  0
   20.2182  -12.9621    2.2267 O   0  0  0  0  0  0  0  0  0  0  0  0
   19.6844  -10.7929    1.2697 O   0  0  0  0  0  0  0  0  0  0  0  0
   20.5933  -10.5051    1.4487 H   0  0  0  0  0  0  0  0  0  0  0  0
   20.4458  -12.6982   -0.2618 O   0  0  0  0  0  0  0  0  0  0  0  0
   20.9463  -11.8132   -1.4948 P   0  0  0  0  0  0  0  0  0  0  0  0
   21.7360  -12.7063   -2.3907 O   0  0  0  0  0  0  0  0  0  0  0  0
   19.8026  -11.2497   -2.2900 O   0  0  0  0  0  0  0  0  0  0  0  0
   21.7379  -10.6792   -0.9936 O   0  0  0  0  0  0  0  0  0  0  0  0
   20.1497  -10.7213   -3.0258 H   0  0  0  0  0  0  0  0  0  0  0  0
   22.0420  -10.1415   -1.7415 H   0  0  0  0  0  0  0  0  0  0  0  0
 32 33  2  0  0  0
 32 34  1  0  0  0
 32 35  1  0  0  0
 32 31  1  0  0  0
 27 28  2  0  0  0
 27 29  1  0  0  0
 27 31  1  0  0  0
 27 26  1  0  0  0
 22 23  2  0  0  0
 22 24  1  0  0  0
 22 26  1  0  0  0
 22 21  1  0  0  0
 21 20  1  0  0  0
 20  1  1  0  0  0
  1  2  1  0  0  0
  1  3  1  0  0  0
  2  6  1  0  0  0
  3  4  1  0  0  0
  3  5  1  0  0  0
  5  6  1  0  0  0
  6  8  1  0  0  0
  8  9  1  0  0  0
  8 17  1  0  0  0
  9 10  2  0  0  0
 10 11  1  0  0  0
 11 12  1  0  0  0
 11 17  2  0  0  0
 12 13  1  0  0  0
 12 14  2  0  0  0
 14 15  1  0  0  0
 15 16  2  0  0  0
 16 17  1  0  0  0
 34 36  1  0  0  0
 35 37  1  0  0  0
 29 30  1  0  0  0
 24 25  1  0  0  0
  4  7  1  0  0  0
 13 18  1  0  0  0
 13 19  1  0  0  0
M  END
> <minimizedAffinity>
-8.43880

$$$$
5EY4_DTP_A_501


 37 39  0  0  0  0  0  0  0  0999 V2000
   15.9686  -13.2939    2.2533 C   0  0  0  0  0  0  0  0  0  0  0  0
   15.9239  -12.3629    3.3390 O   0  0  0  0  0  0  0  0  0  0  0  0
   14.6211  -13.1598    1.5404 C   0  0  0  0  0  0  0  0  0  0  0  0
   13.7862  -14.1281    2.1012 O   0  0  0  0  0  0  0  0  0  0  0  0
   14.1026  -11.7636    1.9335 C   0  0  0  0  0  0  0  0  0  0  0  0
   14.6943  -11.6428    3.3547 C   0  0  0  0  0  0  0  0  0  0  0  0
   13.7508  -14.0068    3.0629 H   0  0  0  0  0  0  0  0  0  0  0  0
   15.0329  -10.2875    3.8054 N   0  0  0  0  0  0  0  0  0  0  0  0
   16.0733   -9.5626    3.3854 C   0  0  0  0  0  0  0  0  0  0  0  0
   16.1317   -8.4202    4.0454 N   0  0  0  0  0  0  0  0  0  0  0  0
   15.1340   -8.4166    4.9233 C   0  0  0  0  0  0  0  0  0  0  0  0
   14.6761   -7.5192    5.8848 C   0  0  0  0  0  0  0  0  0  0  0  0
   15.2999   -6.3194    6.0813 N   0  0  0  0  0  0  0  0  0  0  0  0
   13.6056   -7.8384    6.6057 N   0  0  0  0  0  0  0  0  0  0  0  0
   12.9822   -9.0027    6.3874 C   0  0  0  0  0  0  0  0  0  0  0  0
   13.3702   -9.9069    5.5001 N   0  0  0  0  0  0  0  0  0  0  0  0
   14.4370   -9.6103    4.7666 C   0  0  0  0  0  0  0  0  0  0  0  0
   16.0926   -6.0834    5.5473 H   0  0  0  0  0  0  0  0  0  0  0  0
   14.9567   -5.6910    6.7570 H   0  0  0  0  0  0  0  0  0  0  0  0
   17.1681  -13.0323    1.3607 C   0  0  0  0  0  0  0  0  0  0  0  0
   16.7946  -12.1293    0.2932 O   0  0  0  0  0  0  0  0  0  0  0  0
   17.8728  -11.0413   -0.2514 P   0  0  0  0  0  0  0  0  0  0  0  0
   17.2485  -10.4045   -1.4525 O   0  0  0  0  0  0  0  0  0  0  0  0
   18.1642  -10.0005    0.8139 O   0  0  0  0  0  0  0  0  0  0  0  0
   18.8082   -9.3603    0.4729 H   0  0  0  0  0  0  0  0  0  0  0  0
   19.2560  -11.7047   -0.5984 O   0  0  0  0  0  0  0  0  0  0  0  0
   20.3784  -11.3710   -1.6590 P   0  0  0  0  0  0  0  0  0  0  0  0
   21.5376  -10.7154   -0.9997 O   0  0  0  0  0  0  0  0  0  0  0  0
   19.8316  -10.4917   -2.7161 O   0  0  0  0  0  0  0  0  0  0  0  0
   20.5269  -10.2921   -3.3624 H   0  0  0  0  0  0  0  0  0  0  0  0
   20.7985  -12.8028   -2.1875 O   0  0  0  0  0  0  0  0  0  0  0  0
   21.3028  -14.0790   -1.3682 P   0  0  0  0  0  0  0  0  0  0  0  0
   21.0815  -15.2756   -2.2302 O   0  0  0  0  0  0  0  0  0  0  0  0
   22.7681  -14.0029   -1.0447 O   0  0  0  0  0  0  0  0  0  0  0  0
   20.5721  -14.1624   -0.0942 O   0  0  0  0  0  0  0  0  0  0  0  0
   23.0314  -14.7941   -0.5491 H   0  0  0  0  0  0  0  0  0  0  0  0
   20.8776  -14.9368    0.4036 H   0  0  0  0  0  0  0  0  0  0  0  0
 32 33  2  0  0  0
 32 34  1  0  0  0
 32 35  1  0  0  0
 32 31  1  0  0  0
 27 28  2  0  0  0
 27 29  1  0  0  0
 27 31  1  0  0  0
 27 26  1  0  0  0
 22 23  2  0  0  0
 22 24  1  0  0  0
 22 26  1  0  0  0
 22 21  1  0  0  0
 21 20  1  0  0  0
 20  1  1  0  0  0
  1  2  1  0  0  0
  1  3  1  0  0  0
  2  6  1  0  0  0
  3  4  1  0  0  0
  3  5  1  0  0  0
  5  6  1  0  0  0
  6  8  1  0  0  0
  8  9  1  0  0  0
  8 17  1  0  0  0
  9 10  2  0  0  0
 10 11  1  0  0  0
 11 12  1  0  0  0
 11 17  2  0  0  0
 12 13  1  0  0  0
 12 14  2  0  0  0
 14 15  1  0  0  0
 15 16  2  0  0  0
 16 17  1  0  0  0
 34 36  1  0  0  0
 35 37  1  0  0  0
 29 30  1  0  0  0
 24 25  1  0  0  0
  4  7  1  0  0  0
 13 18  1  0  0  0
 13 19  1  0  0  0
M  END
> <minimizedAffinity>
-8.37703

$$$$
5EY4_DTP_A_501


 37 39  0  0  0  0  0  0  0  0999 V2000
   16.1501  -11.5520    2.7721 C   0  0  0  0  0  0  0  0  0  0  0  0
   15.9030  -10.9287    4.0362 O   0  0  0  0  0  0  0  0  0  0  0  0
   14.8211  -11.4900    2.0159 C   0  0  0  0  0  0  0  0  0  0  0  0
   14.1666  -12.6946    2.2800 O   0  0  0  0  0  0  0  0  0  0  0  0
   14.0407  -10.3403    2.6807 C   0  0  0  0  0  0  0  0  0  0  0  0
   14.5607  -10.4596    4.1298 C   0  0  0  0  0  0  0  0  0  0  0  0
   14.0831  -12.8137    3.2390 H   0  0  0  0  0  0  0  0  0  0  0  0
   14.6282   -9.2128    4.9015 N   0  0  0  0  0  0  0  0  0  0  0  0
   13.7984   -8.8588    5.8866 C   0  0  0  0  0  0  0  0  0  0  0  0
   14.0904   -7.6451    6.3175 N   0  0  0  0  0  0  0  0  0  0  0  0
   15.1035   -7.1957    5.5840 C   0  0  0  0  0  0  0  0  0  0  0  0
   15.8439   -6.0167    5.5509 C   0  0  0  0  0  0  0  0  0  0  0  0
   15.5800   -4.9953    6.4195 N   0  0  0  0  0  0  0  0  0  0  0  0
   16.8303   -5.9002    4.6672 N   0  0  0  0  0  0  0  0  0  0  0  0
   17.1021   -6.9162    3.8391 C   0  0  0  0  0  0  0  0  0  0  0  0
   16.4315   -8.0585    3.8073 N   0  0  0  0  0  0  0  0  0  0  0  0
   15.4418   -8.1992    4.6818 C   0  0  0  0  0  0  0  0  0  0  0  0
   14.8495   -5.0820    7.0738 H   0  0  0  0  0  0  0  0  0  0  0  0
   16.1203   -4.1729    6.3911 H   0  0  0  0  0  0  0  0  0  0  0  0
   17.3035  -10.8799    2.0497 C   0  0  0  0  0  0  0  0  0  0  0  0
   18.5584  -11.3066    2.6306 O   0  0  0  0  0  0  0  0  0  0  0  0
   19.4108  -12.4928    1.9167 P   0  0  0  0  0  0  0  0  0  0  0  0
   19.9138  -13.3652    3.0230 O   0  0  0  0  0  0  0  0  0  0  0  0
   18.5298  -13.2863    0.9695 O   0  0  0  0  0  0  0  0  0  0  0  0
   19.0534  -13.9886    0.5529 H   0  0  0  0  0  0  0  0  0  0  0  0
   20.5888  -11.9274    1.0413 O   0  0  0  0  0  0  0  0  0  0  0  0
   20.6898  -11.4677   -0.4669 P   0  0  0  0  0  0  0  0  0  0  0  0
   20.6131  -12.6420   -1.3742 O   0  0  0  0  0  0  0  0  0  0  0  0
   21.9564  -10.7358   -0.6899 O   0  0  0  0  0  0  0  0  0  0  0  0
   22.0101  -10.4576   -1.6176 H   0  0  0  0  0  0  0  0  0  0  0  0
   19.4022  -10.5643   -0.6454 O   0  0  0  0  0  0  0  0  0  0  0  0
   18.1792  -10.7302   -1.6607 P   0  0  0  0  0  0  0  0  0  0  0  0
   18.6631  -10.3173   -3.0096 O   0  0  0  0  0  0  0  0  0  0  0  0
   17.7061  -12.1534   -1.7515 O   0  0  0  0  0  0  0  0  0  0  0  0
   17.0452   -9.9155   -1.1979 O   0  0  0  0  0  0  0  0  0  0  0  0
   16.9660  -12.2089   -2.3760 H   0  0  0  0  0  0  0  0  0  0  0  0
   16.3025  -10.0157   -1.8137 H   0  0  0  0  0  0  0  0  0  0  0  0
 32 33  2  0  0  0
 32 34  1  0  0  0
 32 35  1  0  0  0
 32 31  1  0  0  0
 27 28  2  0  0  0
 27 29  1  0  0  0
 27 31  1  0  0  0
 27 26  1  0  0  0
 22 23  2  0  0  0
 22 24  1  0  0  0
 22 26  1  0  0  0
 22 21  1  0  0  0
 21 20  1  0  0  0
 20  1  1  0  0  0
  1  2  1  0  0  0
  1  3  1  0  0  0
  2  6  1  0  0  0
  3  4  1  0  0  0
  3  5  1  0  0  0
  5  6  1  0  0  0
  6  8  1  0  0  0
  8  9  1  0  0  0
  8 17  1  0  0  0
  9 10  2  0  0  0
 10 11  1  0  0  0
 11 12  1  0  0  0
 11 17  2  0  0  0
 12 13  1  0  0  0
 12 14  2  0  0  0
 14 15  1  0  0  0
 15 16  2  0  0  0
 16 17  1  0  0  0
 34 36  1  0  0  0
 35 37  1  0  0  0
 29 30  1  0  0  0
 24 25  1  0  0  0
  4  7  1  0  0  0
 13 18  1  0  0  0
 13 19  1  0  0  0
M  END
> <minimizedAffinity>
-8.33808

$$$$
5EY4_DTP_A_501


 37 39  0  0  0  0  0  0  0  0999 V2000
   16.5876  -13.4927    2.2414 C   0  0  0  0  0  0  0  0  0  0  0  0
   15.9119  -12.6035    3.1358 O   0  0  0  0  0  0  0  0  0  0  0  0
   16.2308  -13.0103    0.8337 C   0  0  0  0  0  0  0  0  0  0  0  0
   15.1140  -13.7500    0.4402 O   0  0  0  0  0  0  0  0  0  0  0  0
   15.8173  -11.5372    1.0131 C   0  0  0  0  0  0  0  0  0  0  0  0
   15.1941  -11.5986    2.4246 C   0  0  0  0  0  0  0  0  0  0  0  0
   14.4082  -13.6440    1.0971 H   0  0  0  0  0  0  0  0  0  0  0  0
   15.3033  -10.3813    3.2374 N   0  0  0  0  0  0  0  0  0  0  0  0
   16.2813   -9.4750    3.1581 C   0  0  0  0  0  0  0  0  0  0  0  0
   16.1188   -8.5438    4.0802 N   0  0  0  0  0  0  0  0  0  0  0  0
   15.0382   -8.8653    4.7840 C   0  0  0  0  0  0  0  0  0  0  0  0
   14.3652   -8.2979    5.8631 C   0  0  0  0  0  0  0  0  0  0  0  0
   14.8035   -7.1361    6.4337 N   0  0  0  0  0  0  0  0  0  0  0  0
   13.2720   -8.8956    6.3268 N   0  0  0  0  0  0  0  0  0  0  0  0
   12.8318  -10.0175    5.7440 C   0  0  0  0  0  0  0  0  0  0  0  0
   13.4287  -10.6176    4.7246 N   0  0  0  0  0  0  0  0  0  0  0  0
   14.5227  -10.0386    4.2428 C   0  0  0  0  0  0  0  0  0  0  0  0
   15.6132   -6.6938    6.0901 H   0  0  0  0  0  0  0  0  0  0  0  0
   14.3097   -6.7415    7.1885 H   0  0  0  0  0  0  0  0  0  0  0  0
   18.0785  -13.5214    2.5249 C   0  0  0  0  0  0  0  0  0  0  0  0
   18.8060  -13.0690    1.3585 O   0  0  0  0  0  0  0  0  0  0  0  0
   19.7264  -11.7324    1.4556 P   0  0  0  0  0  0  0  0  0  0  0  0
   19.2880  -11.0164    2.6938 O   0  0  0  0  0  0  0  0  0  0  0  0
   21.1955  -12.1022    1.5444 O   0  0  0  0  0  0  0  0  0  0  0  0
   21.7294  -11.2943    1.6016 H   0  0  0  0  0  0  0  0  0  0  0  0
   19.5847  -10.8250    0.1788 O   0  0  0  0  0  0  0  0  0  0  0  0
   20.0810  -10.9749   -1.3137 P   0  0  0  0  0  0  0  0  0  0  0  0
   20.4206   -9.6454   -1.8841 O   0  0  0  0  0  0  0  0  0  0  0  0
   19.0348  -11.6263   -2.1327 O   0  0  0  0  0  0  0  0  0  0  0  0
   19.3477  -11.7142   -3.0466 H   0  0  0  0  0  0  0  0  0  0  0  0
   21.3934  -11.8466   -1.1611 O   0  0  0  0  0  0  0  0  0  0  0  0
   21.6851  -13.3369   -1.6593 P   0  0  0  0  0  0  0  0  0  0  0  0
   20.3704  -13.9624   -1.9818 O   0  0  0  0  0  0  0  0  0  0  0  0
   22.5309  -13.3648   -2.9009 O   0  0  0  0  0  0  0  0  0  0  0  0
   22.4129  -14.0692   -0.6114 O   0  0  0  0  0  0  0  0  0  0  0  0
   22.6833  -14.2849   -3.1677 H   0  0  0  0  0  0  0  0  0  0  0  0
   22.5903  -14.9739   -0.9131 H   0  0  0  0  0  0  0  0  0  0  0  0
 32 33  2  0  0  0
 32 34  1  0  0  0
 32 35  1  0  0  0
 32 31  1  0  0  0
 27 28  2  0  0  0
 27 29  1  0  0  0
 27 31  1  0  0  0
 27 26  1  0  0  0
 22 23  2  0  0  0
 22 24  1  0  0  0
 22 26  1  0  0  0
 22 21  1  0  0  0
 21 20  1  0  0  0
 20  1  1  0  0  0
  1  2  1  0  0  0
  1  3  1  0  0  0
  2  6  1  0  0  0
  3  4  1  0  0  0
  3  5  1  0  0  0
  5  6  1  0  0  0
  6  8  1  0  0  0
  8  9  1  0  0  0
  8 17  1  0  0  0
  9 10  2  0  0  0
 10 11  1  0  0  0
 11 12  1  0  0  0
 11 17  2  0  0  0
 12 13  1  0  0  0
 12 14  2  0  0  0
 14 15  1  0  0  0
 15 16  2  0  0  0
 16 17  1  0  0  0
 34 36  1  0  0  0
 35 37  1  0  0  0
 29 30  1  0  0  0
 24 25  1  0  0  0
  4  7  1  0  0  0
 13 18  1  0  0  0
 13 19  1  0  0  0
M  END
> <minimizedAffinity>
-8.26357

$$$$
