4BQS_K2Q_A_1172


 18 19  0  0  0  0  0  0  0  0999 V2000
    1.8762    0.4173   45.4298 C   0  0  0  0  0  0  0  0  0  0  0  0
    1.0357    1.5300   45.6830 C   0  0  0  0  0  0  0  0  0  0  0  0
    3.2064    0.3341   45.9431 C   0  0  0  0  0  0  0  0  0  0  0  0
    3.9010    1.4394   46.5394 C   0  0  0  0  0  0  0  0  0  0  0  0
    4.9983    1.7695   45.6572 O   0  0  0  0  0  0  0  0  0  0  0  0
    4.3818    1.1272   47.8092 C   0  0  0  0  0  0  0  0  0  0  0  0
    3.8005    1.5068   49.0170 C   0  0  0  0  0  0  0  0  0  0  0  0
    2.5671    2.1940   49.1453 C   0  0  0  0  0  0  0  0  0  0  0  0
    1.5895    1.7445   48.1458 O   0  0  0  0  0  0  0  0  0  0  0  0
    1.6368    2.4156   46.8498 C   0  0  0  0  0  0  0  0  0  0  0  0
    3.0421    2.7803   46.5066 C   0  0  0  0  0  0  0  0  0  0  0  0
    3.0567    3.3936   45.1579 O   0  0  0  0  0  0  0  0  0  0  0  0
    5.6025    1.0131   45.5958 H   0  0  0  0  0  0  0  0  0  0  0  0
    2.6863    2.7691   44.5147 H   0  0  0  0  0  0  0  0  0  0  0  0
    0.9750   -1.7489   45.3153 O   0  0  0  0  0  0  0  0  0  0  0  0
    1.2754   -0.6464   44.7118 C   0  0  0  0  0  0  0  0  0  0  0  0
    0.9561   -0.4778   43.5103 O   0  0  0  0  0  0  0  0  0  0  0  0
    1.1752    0.3226   43.0751 H   0  0  0  0  0  0  0  0  0  0  0  0
 15 16  2  0  0  0
 16 17  1  0  0  0
 16  1  1  0  0  0
  1  2  1  0  0  0
  1  3  2  0  0  0
  2 10  1  0  0  0
  3  4  1  0  0  0
  4  5  1  0  0  0
  4  6  1  0  0  0
  4 11  1  0  0  0
  6  7  2  0  0  0
  7  8  1  0  0  0
  8  9  1  0  0  0
  9 10  1  0  0  0
 10 11  1  0  0  0
 11 12  1  0  0  0
 17 18  1  0  0  0
  5 13  1  0  0  0
 12 14  1  0  0  0
M  END
> <minimizedAffinity>
-8.04436

$$$$
4BQS_K2Q_A_1172


 18 19  0  0  0  0  0  0  0  0999 V2000
    2.5804    2.5600   45.0115 C   0  0  0  0  0  0  0  0  0  0  0  0
    1.4600    3.2132   45.5831 C   0  0  0  0  0  0  0  0  0  0  0  0
    3.4691    1.7529   45.7853 C   0  0  0  0  0  0  0  0  0  0  0  0
    3.4702    1.7194   47.2200 C   0  0  0  0  0  0  0  0  0  0  0  0
    4.7229    2.2989   47.6514 O   0  0  0  0  0  0  0  0  0  0  0  0
    3.3470    0.4210   47.7098 C   0  0  0  0  0  0  0  0  0  0  0  0
    2.1810   -0.1541   48.2103 C   0  0  0  0  0  0  0  0  0  0  0  0
    0.9050    0.4640   48.2114 C   0  0  0  0  0  0  0  0  0  0  0  0
    0.6859    1.2574   46.9950 O   0  0  0  0  0  0  0  0  0  0  0  0
    1.1681    2.6353   47.0281 C   0  0  0  0  0  0  0  0  0  0  0  0
    2.4109    2.7295   47.8479 C   0  0  0  0  0  0  0  0  0  0  0  0
    2.9062    4.1250   47.7991 O   0  0  0  0  0  0  0  0  0  0  0  0
    5.4590    1.7595   47.3225 H   0  0  0  0  0  0  0  0  0  0  0  0
    3.0709    4.3776   46.8771 H   0  0  0  0  0  0  0  0  0  0  0  0
    2.2536    1.7588   42.8277 O   0  0  0  0  0  0  0  0  0  0  0  0
    2.7050    2.6867   43.6057 C   0  0  0  0  0  0  0  0  0  0  0  0
    3.1743    3.7440   43.1200 O   0  0  0  0  0  0  0  0  0  0  0  0
    3.5009    4.4152   43.6865 H   0  0  0  0  0  0  0  0  0  0  0  0
 15 16  2  0  0  0
 16 17  1  0  0  0
 16  1  1  0  0  0
  1  2  1  0  0  0
  1  3  2  0  0  0
  2 10  1  0  0  0
  3  4  1  0  0  0
  4  5  1  0  0  0
  4  6  1  0  0  0
  4 11  1  0  0  0
  6  7  2  0  0  0
  7  8  1  0  0  0
  8  9  1  0  0  0
  9 10  1  0  0  0
 10 11  1  0  0  0
 11 12  1  0  0  0
 17 18  1  0  0  0
  5 13  1  0  0  0
 12 14  1  0  0  0
M  END
> <minimizedAffinity>
-7.54864

$$$$
4BQS_K2Q_A_1172


 18 19  0  0  0  0  0  0  0  0999 V2000
    4.2858    0.7229   46.2100 C   0  0  0  0  0  0  0  0  0  0  0  0
    3.3843   -0.2395   46.7293 C   0  0  0  0  0  0  0  0  0  0  0  0
    3.8588    1.7841   45.3547 C   0  0  0  0  0  0  0  0  0  0  0  0
    2.5603    1.8439   44.7464 C   0  0  0  0  0  0  0  0  0  0  0  0
    2.7585    1.6980   43.3213 O   0  0  0  0  0  0  0  0  0  0  0  0
    1.9123    3.0461   45.0213 C   0  0  0  0  0  0  0  0  0  0  0  0
    0.9095    3.2331   45.9701 C   0  0  0  0  0  0  0  0  0  0  0  0
    0.4544    2.2439   46.8781 C   0  0  0  0  0  0  0  0  0  0  0  0
    1.5563    1.3987   47.3559 O   0  0  0  0  0  0  0  0  0  0  0  0
    1.8905    0.2444   46.5263 C   0  0  0  0  0  0  0  0  0  0  0  0
    1.6760    0.5633   45.0849 C   0  0  0  0  0  0  0  0  0  0  0  0
    2.0916   -0.6051   44.2741 O   0  0  0  0  0  0  0  0  0  0  0  0
    3.2954    2.4359   42.9924 H   0  0  0  0  0  0  0  0  0  0  0  0
    3.0220   -0.8105   44.4561 H   0  0  0  0  0  0  0  0  0  0  0  0
    6.5272    0.0837   45.9181 O   0  0  0  0  0  0  0  0  0  0  0  0
    5.6213    0.6150   46.6712 C   0  0  0  0  0  0  0  0  0  0  0  0
    5.9356    1.1185   47.7764 O   0  0  0  0  0  0  0  0  0  0  0  0
    5.2768    1.5030   48.3205 H   0  0  0  0  0  0  0  0  0  0  0  0
 15 16  2  0  0  0
 16 17  1  0  0  0
 16  1  1  0  0  0
  1  2  1  0  0  0
  1  3  2  0  0  0
  2 10  1  0  0  0
  3  4  1  0  0  0
  4  5  1  0  0  0
  4  6  1  0  0  0
  4 11  1  0  0  0
  6  7  2  0  0  0
  7  8  1  0  0  0
  8  9  1  0  0  0
  9 10  1  0  0  0
 10 11  1  0  0  0
 11 12  1  0  0  0
 17 18  1  0  0  0
  5 13  1  0  0  0
 12 14  1  0  0  0
M  END
> <minimizedAffinity>
-7.53222

$$$$
4BQS_K2Q_A_1172


 18 19  0  0  0  0  0  0  0  0999 V2000
    1.7729    0.3276   45.4548 C   0  0  0  0  0  0  0  0  0  0  0  0
    3.0045   -0.3089   45.7497 C   0  0  0  0  0  0  0  0  0  0  0  0
    0.9751    0.9490   46.4634 C   0  0  0  0  0  0  0  0  0  0  0  0
    1.2003    0.7847   47.8712 C   0  0  0  0  0  0  0  0  0  0  0  0
    0.0662    0.0556   48.3944 O   0  0  0  0  0  0  0  0  0  0  0  0
    1.3275    2.0090   48.5237 C   0  0  0  0  0  0  0  0  0  0  0  0
    2.5245    2.5988   48.9239 C   0  0  0  0  0  0  0  0  0  0  0  0
    3.8168    2.0877   48.6430 C   0  0  0  0  0  0  0  0  0  0  0  0
    3.8834    1.4885   47.3038 O   0  0  0  0  0  0  0  0  0  0  0  0
    3.4899    0.0858   47.2043 C   0  0  0  0  0  0  0  0  0  0  0  0
    2.4004   -0.2166   48.1774 C   0  0  0  0  0  0  0  0  0  0  0  0
    1.9819   -1.6264   47.9973 O   0  0  0  0  0  0  0  0  0  0  0  0
   -0.7415    0.5763   48.2626 H   0  0  0  0  0  0  0  0  0  0  0  0
    1.6871   -1.7619   47.0832 H   0  0  0  0  0  0  0  0  0  0  0  0
    1.7310    1.4321   43.3822 O   0  0  0  0  0  0  0  0  0  0  0  0
    1.4336    0.3860   44.0803 C   0  0  0  0  0  0  0  0  0  0  0  0
    0.9246   -0.6180   43.5265 O   0  0  0  0  0  0  0  0  0  0  0  0
    0.7099   -1.3751   44.0352 H   0  0  0  0  0  0  0  0  0  0  0  0
 15 16  2  0  0  0
 16 17  1  0  0  0
 16  1  1  0  0  0
  1  2  1  0  0  0
  1  3  2  0  0  0
  2 10  1  0  0  0
  3  4  1  0  0  0
  4  5  1  0  0  0
  4  6  1  0  0  0
  4 11  1  0  0  0
  6  7  2  0  0  0
  7  8  1  0  0  0
  8  9  1  0  0  0
  9 10  1  0  0  0
 10 11  1  0  0  0
 11 12  1  0  0  0
 17 18  1  0  0  0
  5 13  1  0  0  0
 12 14  1  0  0  0
M  END
> <minimizedAffinity>
-7.50755

$$$$
4BQS_K2Q_A_1172


 18 19  0  0  0  0  0  0  0  0999 V2000
    4.1052    0.3713   46.8396 C   0  0  0  0  0  0  0  0  0  0  0  0
    3.6183    0.6466   48.1418 C   0  0  0  0  0  0  0  0  0  0  0  0
    3.2609   -0.1214   45.7983 C   0  0  0  0  0  0  0  0  0  0  0  0
    1.9301   -0.6123   46.0166 C   0  0  0  0  0  0  0  0  0  0  0  0
    1.9537   -2.0289   45.7272 O   0  0  0  0  0  0  0  0  0  0  0  0
    0.9993    0.0295   45.2025 C   0  0  0  0  0  0  0  0  0  0  0  0
    0.1354    1.0482   45.5985 C   0  0  0  0  0  0  0  0  0  0  0  0
    0.1339    1.6623   46.8764 C   0  0  0  0  0  0  0  0  0  0  0  0
    1.4953    1.8164   47.4053 O   0  0  0  0  0  0  0  0  0  0  0  0
    2.0352    0.6754   48.1393 C   0  0  0  0  0  0  0  0  0  0  0  0
    1.5282   -0.6014   47.5576 C   0  0  0  0  0  0  0  0  0  0  0  0
    2.1519   -1.7330   48.2826 O   0  0  0  0  0  0  0  0  0  0  0  0
    2.1916   -2.1650   44.7967 H   0  0  0  0  0  0  0  0  0  0  0  0
    3.1172   -1.6705   48.2106 H   0  0  0  0  0  0  0  0  0  0  0  0
    5.9688    1.7657   47.1559 O   0  0  0  0  0  0  0  0  0  0  0  0
    5.4640    0.7055   46.6162 C   0  0  0  0  0  0  0  0  0  0  0  0
    6.1946   -0.0805   45.9664 O   0  0  0  0  0  0  0  0  0  0  0  0
    5.8259   -0.8484   45.5761 H   0  0  0  0  0  0  0  0  0  0  0  0
 15 16  2  0  0  0
 16 17  1  0  0  0
 16  1  1  0  0  0
  1  2  1  0  0  0
  1  3  2  0  0  0
  2 10  1  0  0  0
  3  4  1  0  0  0
  4  5  1  0  0  0
  4  6  1  0  0  0
  4 11  1  0  0  0
  6  7  2  0  0  0
  7  8  1  0  0  0
  8  9  1  0  0  0
  9 10  1  0  0  0
 10 11  1  0  0  0
 11 12  1  0  0  0
 17 18  1  0  0  0
  5 13  1  0  0  0
 12 14  1  0  0  0
M  END
> <minimizedAffinity>
-7.20187

$$$$
4BQS_K2Q_A_1172


 18 19  0  0  0  0  0  0  0  0999 V2000
    1.9938    2.3002   47.9125 C   0  0  0  0  0  0  0  0  0  0  0  0
    1.3404    2.8145   46.7647 C   0  0  0  0  0  0  0  0  0  0  0  0
    1.9815    0.9096   48.2378 C   0  0  0  0  0  0  0  0  0  0  0  0
    1.1269   -0.0506   47.5995 C   0  0  0  0  0  0  0  0  0  0  0  0
    0.1930   -0.5120   48.6026 O   0  0  0  0  0  0  0  0  0  0  0  0
    1.8474   -1.1252   47.0826 C   0  0  0  0  0  0  0  0  0  0  0  0
    2.1908   -1.3082   45.7450 C   0  0  0  0  0  0  0  0  0  0  0  0
    1.9423   -0.3754   44.7066 C   0  0  0  0  0  0  0  0  0  0  0  0
    2.1171    1.0080   45.1675 O   0  0  0  0  0  0  0  0  0  0  0  0
    0.9508    1.6354   45.7825 C   0  0  0  0  0  0  0  0  0  0  0  0
    0.1537    0.6224   46.5335 C   0  0  0  0  0  0  0  0  0  0  0  0
   -0.9784    1.3086   47.1989 O   0  0  0  0  0  0  0  0  0  0  0  0
    0.6784   -0.9490   49.3197 H   0  0  0  0  0  0  0  0  0  0  0  0
   -0.6365    1.9981   47.7894 H   0  0  0  0  0  0  0  0  0  0  0  0
    3.6717    3.9337   48.0961 O   0  0  0  0  0  0  0  0  0  0  0  0
    2.7364    3.2453   48.6629 C   0  0  0  0  0  0  0  0  0  0  0  0
    2.4204    3.4727   49.8556 O   0  0  0  0  0  0  0  0  0  0  0  0
    1.7418    2.9720   50.2641 H   0  0  0  0  0  0  0  0  0  0  0  0
 15 16  2  0  0  0
 16 17  1  0  0  0
 16  1  1  0  0  0
  1  2  1  0  0  0
  1  3  2  0  0  0
  2 10  1  0  0  0
  3  4  1  0  0  0
  4  5  1  0  0  0
  4  6  1  0  0  0
  4 11  1  0  0  0
  6  7  2  0  0  0
  7  8  1  0  0  0
  8  9  1  0  0  0
  9 10  1  0  0  0
 10 11  1  0  0  0
 11 12  1  0  0  0
 17 18  1  0  0  0
  5 13  1  0  0  0
 12 14  1  0  0  0
M  END
> <minimizedAffinity>
-7.19622

$$$$
4BQS_K2Q_A_1172


 18 19  0  0  0  0  0  0  0  0999 V2000
    3.3016    3.4387   47.6222 C   0  0  0  0  0  0  0  0  0  0  0  0
    3.7967    2.1450   47.9221 C   0  0  0  0  0  0  0  0  0  0  0  0
    2.5280    3.7065   46.4519 C   0  0  0  0  0  0  0  0  0  0  0  0
    2.3846    2.7830   45.3628 C   0  0  0  0  0  0  0  0  0  0  0  0
    3.0486    3.3743   44.2223 O   0  0  0  0  0  0  0  0  0  0  0  0
    1.0466    2.5344   45.0647 C   0  0  0  0  0  0  0  0  0  0  0  0
    0.3238    1.4047   45.4419 C   0  0  0  0  0  0  0  0  0  0  0  0
    0.8126    0.3675   46.2759 C   0  0  0  0  0  0  0  0  0  0  0  0
    1.6720    0.8915   47.3454 O   0  0  0  0  0  0  0  0  0  0  0  0
    3.0837    1.0619   47.0134 C   0  0  0  0  0  0  0  0  0  0  0  0
    3.2353    1.4546   45.5822 C   0  0  0  0  0  0  0  0  0  0  0  0
    4.6721    1.6857   45.3038 O   0  0  0  0  0  0  0  0  0  0  0  0
    2.6103    4.2076   43.9892 H   0  0  0  0  0  0  0  0  0  0  0  0
    5.0096    2.3748   45.8971 H   0  0  0  0  0  0  0  0  0  0  0  0
    4.7039    4.9990   48.6787 O   0  0  0  0  0  0  0  0  0  0  0  0
    3.5476    4.4264   48.6079 C   0  0  0  0  0  0  0  0  0  0  0  0
    2.6101    4.8041   49.3512 O   0  0  0  0  0  0  0  0  0  0  0  0
    1.7727    4.3872   49.2977 H   0  0  0  0  0  0  0  0  0  0  0  0
 15 16  2  0  0  0
 16 17  1  0  0  0
 16  1  1  0  0  0
  1  2  1  0  0  0
  1  3  2  0  0  0
  2 10  1  0  0  0
  3  4  1  0  0  0
  4  5  1  0  0  0
  4  6  1  0  0  0
  4 11  1  0  0  0
  6  7  2  0  0  0
  7  8  1  0  0  0
  8  9  1  0  0  0
  9 10  1  0  0  0
 10 11  1  0  0  0
 11 12  1  0  0  0
 17 18  1  0  0  0
  5 13  1  0  0  0
 12 14  1  0  0  0
M  END
> <minimizedAffinity>
-7.18991

$$$$
4BQS_K2Q_A_1172


 18 19  0  0  0  0  0  0  0  0999 V2000
    3.3832    2.0448   48.3939 C   0  0  0  0  0  0  0  0  0  0  0  0
    3.9361    0.8221   47.9377 C   0  0  0  0  0  0  0  0  0  0  0  0
    2.5189    2.8407   47.5818 C   0  0  0  0  0  0  0  0  0  0  0  0
    2.3236    2.6247   46.1765 C   0  0  0  0  0  0  0  0  0  0  0  0
    2.8853    3.7697   45.4948 O   0  0  0  0  0  0  0  0  0  0  0  0
    0.9752    2.4869   45.8543 C   0  0  0  0  0  0  0  0  0  0  0  0
    0.3149    1.2853   45.6070 C   0  0  0  0  0  0  0  0  0  0  0  0
    0.8930   -0.0025   45.7392 C   0  0  0  0  0  0  0  0  0  0  0  0
    1.8124   -0.0691   46.8825 O   0  0  0  0  0  0  0  0  0  0  0  0
    3.1907    0.3398   46.6268 C   0  0  0  0  0  0  0  0  0  0  0  0
    3.2262    1.4377   45.6173 C   0  0  0  0  0  0  0  0  0  0  0  0
    4.6316    1.8712   45.4380 O   0  0  0  0  0  0  0  0  0  0  0  0
    2.4072    4.5708   45.7605 H   0  0  0  0  0  0  0  0  0  0  0  0
    4.9913    2.1629   46.2903 H   0  0  0  0  0  0  0  0  0  0  0  0
    4.7622    1.9578   50.2934 O   0  0  0  0  0  0  0  0  0  0  0  0
    3.6715    2.3763   49.7410 C   0  0  0  0  0  0  0  0  0  0  0  0
    2.9061    3.1512   50.3638 O   0  0  0  0  0  0  0  0  0  0  0  0
    2.1159    3.4530   49.9609 H   0  0  0  0  0  0  0  0  0  0  0  0
 15 16  2  0  0  0
 16 17  1  0  0  0
 16  1  1  0  0  0
  1  2  1  0  0  0
  1  3  2  0  0  0
  2 10  1  0  0  0
  3  4  1  0  0  0
  4  5  1  0  0  0
  4  6  1  0  0  0
  4 11  1  0  0  0
  6  7  2  0  0  0
  7  8  1  0  0  0
  8  9  1  0  0  0
  9 10  1  0  0  0
 10 11  1  0  0  0
 11 12  1  0  0  0
 17 18  1  0  0  0
  5 13  1  0  0  0
 12 14  1  0  0  0
M  END
> <minimizedAffinity>
-7.18615

$$$$
4BQS_K2Q_A_1172


 18 19  0  0  0  0  0  0  0  0999 V2000
    1.5090   -0.5246   46.1528 C   0  0  0  0  0  0  0  0  0  0  0  0
    0.2880    0.1368   46.4365 C   0  0  0  0  0  0  0  0  0  0  0  0
    2.6758    0.1792   45.7248 C   0  0  0  0  0  0  0  0  0  0  0  0
    2.6700    1.5525   45.3080 C   0  0  0  0  0  0  0  0  0  0  0  0
    2.9853    1.5630   43.8967 O   0  0  0  0  0  0  0  0  0  0  0  0
    3.5988    2.3139   46.0140 C   0  0  0  0  0  0  0  0  0  0  0  0
    3.3127    3.1706   47.0748 C   0  0  0  0  0  0  0  0  0  0  0  0
    2.0355    3.3307   47.6691 C   0  0  0  0  0  0  0  0  0  0  0  0
    1.3059    2.0579   47.7370 O   0  0  0  0  0  0  0  0  0  0  0  0
    0.5261    1.6976   46.5562 C   0  0  0  0  0  0  0  0  0  0  0  0
    1.2063    2.1803   45.3193 C   0  0  0  0  0  0  0  0  0  0  0  0
    0.4228    1.7354   44.1432 O   0  0  0  0  0  0  0  0  0  0  0  0
    3.8728    1.1957   43.7609 H   0  0  0  0  0  0  0  0  0  0  0  0
    0.3484    0.7683   44.1512 H   0  0  0  0  0  0  0  0  0  0  0  0
    2.1699   -2.7179   45.6330 O   0  0  0  0  0  0  0  0  0  0  0  0
    1.5192   -1.9177   46.4117 C   0  0  0  0  0  0  0  0  0  0  0  0
    0.9685   -2.3571   47.4497 O   0  0  0  0  0  0  0  0  0  0  0  0
    0.4974   -1.7746   48.0126 H   0  0  0  0  0  0  0  0  0  0  0  0
 15 16  2  0  0  0
 16 17  1  0  0  0
 16  1  1  0  0  0
  1  2  1  0  0  0
  1  3  2  0  0  0
  2 10  1  0  0  0
  3  4  1  0  0  0
  4  5  1  0  0  0
  4  6  1  0  0  0
  4 11  1  0  0  0
  6  7  2  0  0  0
  7  8  1  0  0  0
  8  9  1  0  0  0
  9 10  1  0  0  0
 10 11  1  0  0  0
 11 12  1  0  0  0
 17 18  1  0  0  0
  5 13  1  0  0  0
 12 14  1  0  0  0
M  END
> <minimizedAffinity>
-7.03782

$$$$
4BQS_K2Q_A_1172


 18 19  0  0  0  0  0  0  0  0999 V2000
    1.8111   -0.6330   46.5762 C   0  0  0  0  0  0  0  0  0  0  0  0
    3.1435   -0.6097   46.0935 C   0  0  0  0  0  0  0  0  0  0  0  0
    1.1431    0.5458   47.0278 C   0  0  0  0  0  0  0  0  0  0  0  0
    1.8072    1.7949   47.2697 C   0  0  0  0  0  0  0  0  0  0  0  0
    1.7343    2.0390   48.6932 O   0  0  0  0  0  0  0  0  0  0  0  0
    1.2129    2.8435   46.5709 C   0  0  0  0  0  0  0  0  0  0  0  0
    1.6884    3.4087   45.3897 C   0  0  0  0  0  0  0  0  0  0  0  0
    2.8074    2.9393   44.6564 C   0  0  0  0  0  0  0  0  0  0  0  0
    2.8906    1.4732   44.6738 O   0  0  0  0  0  0  0  0  0  0  0  0
    3.5957    0.8804   45.8068 C   0  0  0  0  0  0  0  0  0  0  0  0
    3.3796    1.6974   47.0361 C   0  0  0  0  0  0  0  0  0  0  0  0
    4.0504    1.0273   48.1745 O   0  0  0  0  0  0  0  0  0  0  0  0
    0.8053    2.1186   48.9605 H   0  0  0  0  0  0  0  0  0  0  0  0
    3.6935    0.1314   48.2783 H   0  0  0  0  0  0  0  0  0  0  0  0
    0.9353   -2.5759   47.5639 O   0  0  0  0  0  0  0  0  0  0  0  0
    1.1571   -1.8873   46.4931 C   0  0  0  0  0  0  0  0  0  0  0  0
    0.7162   -2.2819   45.3868 O   0  0  0  0  0  0  0  0  0  0  0  0
    0.8785   -1.7806   44.6120 H   0  0  0  0  0  0  0  0  0  0  0  0
 15 16  2  0  0  0
 16 17  1  0  0  0
 16  1  1  0  0  0
  1  2  1  0  0  0
  1  3  2  0  0  0
  2 10  1  0  0  0
  3  4  1  0  0  0
  4  5  1  0  0  0
  4  6  1  0  0  0
  4 11  1  0  0  0
  6  7  2  0  0  0
  7  8  1  0  0  0
  8  9  1  0  0  0
  9 10  1  0  0  0
 10 11  1  0  0  0
 11 12  1  0  0  0
 17 18  1  0  0  0
  5 13  1  0  0  0
 12 14  1  0  0  0
M  END
> <minimizedAffinity>
-7.00187

$$$$
