5I7X_67B_A_201


 23 25  0  0  0  0  0  0  0  0999 V2000
  -16.9000    4.9545   10.8699 C   0  0  0  0  0  0  0  0  0  0  0  0
  -17.7034    4.1297   10.1427 C   0  0  0  0  0  0  0  0  0  0  0  0
  -19.7397    2.8959    9.7161 C   0  0  0  0  0  0  0  0  0  0  0  0
  -20.6413    3.9116   12.0203 O   0  0  0  0  0  0  0  0  0  0  0  0
  -19.4984    4.2588   11.7004 C   0  0  0  0  0  0  0  0  0  0  0  0
  -18.9548    3.8001   10.5616 N   0  0  0  0  0  0  0  0  0  0  0  0
  -18.7421    5.1360   12.5022 C   0  0  0  0  0  0  0  0  0  0  0  0
  -19.0188    5.7750   13.6877 N   0  0  0  0  0  0  0  0  0  0  0  0
  -17.9322    6.5267   14.0370 C   0  0  0  0  0  0  0  0  0  0  0  0
  -16.9581    6.3896   13.1101 C   0  0  0  0  0  0  0  0  0  0  0  0
  -17.4449    5.5122   12.1167 C   0  0  0  0  0  0  0  0  0  0  0  0
  -19.8574    5.7033   14.1983 H   0  0  0  0  0  0  0  0  0  0  0  0
  -13.0024    5.9295    9.4246 C   0  0  0  0  0  0  0  0  0  0  0  0
  -13.9776    6.8990    9.5247 C   0  0  0  0  0  0  0  0  0  0  0  0
  -14.5581    4.2676   10.2618 C   0  0  0  0  0  0  0  0  0  0  0  0
  -15.2387    6.5721    9.9939 C   0  0  0  0  0  0  0  0  0  0  0  0
  -15.5433    5.2524   10.3520 C   0  0  0  0  0  0  0  0  0  0  0  0
  -13.2918    4.6106    9.7743 C   0  0  0  0  0  0  0  0  0  0  0  0
  -12.2144    3.6056    9.6830 C   0  0  0  0  0  0  0  0  0  0  0  0
  -11.0008    1.7843    8.6382 C   0  0  0  0  0  0  0  0  0  0  0  0
  -11.4071    3.5626   10.5958 O   0  0  0  0  0  0  0  0  0  0  0  0
  -12.1012    2.7509    8.6460 N   0  0  0  0  0  0  0  0  0  0  0  0
  -13.0289    2.7639    7.5141 C   0  0  0  0  0  0  0  0  0  0  0  0
  9  8  1  0  0  0
  9 10  2  0  0  0
  8  7  1  0  0  0
 10 11  1  0  0  0
  7 11  2  0  0  0
  7  5  1  0  0  0
 11  1  1  0  0  0
  4  5  2  0  0  0
  5  6  1  0  0  0
 16 14  2  0  0  0
 16 17  1  0  0  0
 14 13  1  0  0  0
  1 17  1  0  0  0
  1  2  2  0  0  0
 17 15  2  0  0  0
  6  2  1  0  0  0
  6  3  1  0  0  0
 13 18  2  0  0  0
 15 18  1  0  0  0
 18 19  1  0  0  0
 19 21  2  0  0  0
 19 22  1  0  0  0
 20 22  1  0  0  0
 22 23  1  0  0  0
  8 12  1  0  0  0
M  END
> <minimizedAffinity>
-8.84290

$$$$
5I7X_67B_A_201


 23 25  0  0  0  0  0  0  0  0999 V2000
  -16.6598    5.4441   10.9241 C   0  0  0  0  0  0  0  0  0  0  0  0
  -17.4379    4.7328   10.0620 C   0  0  0  0  0  0  0  0  0  0  0  0
  -19.4711    3.6113    9.3846 C   0  0  0  0  0  0  0  0  0  0  0  0
  -20.4778    4.3676   11.7443 O   0  0  0  0  0  0  0  0  0  0  0  0
  -19.3127    4.7211   11.5285 C   0  0  0  0  0  0  0  0  0  0  0  0
  -18.7164    4.3878   10.3726 N   0  0  0  0  0  0  0  0  0  0  0  0
  -18.5846    5.4768   12.4684 C   0  0  0  0  0  0  0  0  0  0  0  0
  -18.9135    5.9767   13.7062 N   0  0  0  0  0  0  0  0  0  0  0  0
  -17.8334    6.6533   14.1996 C   0  0  0  0  0  0  0  0  0  0  0  0
  -16.8129    6.6027   13.3149 C   0  0  0  0  0  0  0  0  0  0  0  0
  -17.2613    5.8629   12.1990 C   0  0  0  0  0  0  0  0  0  0  0  0
  -19.7800    5.8661   14.1601 H   0  0  0  0  0  0  0  0  0  0  0  0
  -12.6549    6.2634    9.6911 C   0  0  0  0  0  0  0  0  0  0  0  0
  -13.0740    4.9669    9.9019 C   0  0  0  0  0  0  0  0  0  0  0  0
  -14.8565    7.0814   10.2970 C   0  0  0  0  0  0  0  0  0  0  0  0
  -14.3747    4.7121   10.3025 C   0  0  0  0  0  0  0  0  0  0  0  0
  -15.2713    5.7669   10.5172 C   0  0  0  0  0  0  0  0  0  0  0  0
  -13.5353    7.3242    9.9040 C   0  0  0  0  0  0  0  0  0  0  0  0
  -13.0608    8.6966    9.6392 C   0  0  0  0  0  0  0  0  0  0  0  0
  -12.2503   10.8938   10.2695 C   0  0  0  0  0  0  0  0  0  0  0  0
  -12.9957    9.0540    8.4752 O   0  0  0  0  0  0  0  0  0  0  0  0
  -12.7089    9.5486   10.6236 N   0  0  0  0  0  0  0  0  0  0  0  0
  -12.7504    9.1733   12.0376 C   0  0  0  0  0  0  0  0  0  0  0  0
  9  8  1  0  0  0
  9 10  2  0  0  0
  8  7  1  0  0  0
 10 11  1  0  0  0
  7 11  2  0  0  0
  7  5  1  0  0  0
 11  1  1  0  0  0
  4  5  2  0  0  0
  5  6  1  0  0  0
 16 14  2  0  0  0
 16 17  1  0  0  0
 14 13  1  0  0  0
  1 17  1  0  0  0
  1  2  2  0  0  0
 17 15  2  0  0  0
  6  2  1  0  0  0
  6  3  1  0  0  0
 13 18  2  0  0  0
 15 18  1  0  0  0
 18 19  1  0  0  0
 19 21  2  0  0  0
 19 22  1  0  0  0
 20 22  1  0  0  0
 22 23  1  0  0  0
  8 12  1  0  0  0
M  END
> <minimizedAffinity>
-8.34634

$$$$
5I7X_67B_A_201


 23 25  0  0  0  0  0  0  0  0999 V2000
  -15.4762    5.5408   10.6535 C   0  0  0  0  0  0  0  0  0  0  0  0
  -15.0260    6.7860   10.3352 C   0  0  0  0  0  0  0  0  0  0  0  0
  -13.5057    8.3486    9.2874 C   0  0  0  0  0  0  0  0  0  0  0  0
  -12.1972    6.2041    8.3695 O   0  0  0  0  0  0  0  0  0  0  0  0
  -13.1960    5.9604    9.0565 C   0  0  0  0  0  0  0  0  0  0  0  0
  -13.9192    6.9703    9.5661 N   0  0  0  0  0  0  0  0  0  0  0  0
  -13.6060    4.6385    9.3197 C   0  0  0  0  0  0  0  0  0  0  0  0
  -13.0987    3.4198    8.9356 N   0  0  0  0  0  0  0  0  0  0  0  0
  -13.8888    2.4375    9.4631 C   0  0  0  0  0  0  0  0  0  0  0  0
  -14.8932    2.9878   10.1807 C   0  0  0  0  0  0  0  0  0  0  0  0
  -14.7431    4.3897   10.1058 C   0  0  0  0  0  0  0  0  0  0  0  0
  -12.3014    3.2788    8.3756 H   0  0  0  0  0  0  0  0  0  0  0  0
  -18.9412    5.3318   13.1397 C   0  0  0  0  0  0  0  0  0  0  0  0
  -17.9698    6.2836   13.3666 C   0  0  0  0  0  0  0  0  0  0  0  0
  -17.6646    4.4645   11.2686 C   0  0  0  0  0  0  0  0  0  0  0  0
  -16.8495    6.3423   12.5550 C   0  0  0  0  0  0  0  0  0  0  0  0
  -16.6809    5.4251   11.5097 C   0  0  0  0  0  0  0  0  0  0  0  0
  -18.7856    4.4096   12.1048 C   0  0  0  0  0  0  0  0  0  0  0  0
  -19.8599    3.4244   11.8726 C   0  0  0  0  0  0  0  0  0  0  0  0
  -21.1291    1.8393   10.5465 C   0  0  0  0  0  0  0  0  0  0  0  0
  -20.6099    3.1809   12.8027 O   0  0  0  0  0  0  0  0  0  0  0  0
  -20.0350    2.8026   10.6888 N   0  0  0  0  0  0  0  0  0  0  0  0
  -19.1589    3.0406    9.5408 C   0  0  0  0  0  0  0  0  0  0  0  0
  9  8  1  0  0  0
  9 10  2  0  0  0
  8  7  1  0  0  0
 10 11  1  0  0  0
  7 11  2  0  0  0
  7  5  1  0  0  0
 11  1  1  0  0  0
  4  5  2  0  0  0
  5  6  1  0  0  0
 16 14  2  0  0  0
 16 17  1  0  0  0
 14 13  1  0  0  0
  1 17  1  0  0  0
  1  2  2  0  0  0
 17 15  2  0  0  0
  6  2  1  0  0  0
  6  3  1  0  0  0
 13 18  2  0  0  0
 15 18  1  0  0  0
 18 19  1  0  0  0
 19 21  2  0  0  0
 19 22  1  0  0  0
 20 22  1  0  0  0
 22 23  1  0  0  0
  8 12  1  0  0  0
M  END
> <minimizedAffinity>
-8.05649

$$$$
5I7X_67B_A_201


 23 25  0  0  0  0  0  0  0  0999 V2000
  -14.3903    4.8564    9.8804 C   0  0  0  0  0  0  0  0  0  0  0  0
  -14.2189    5.5816    8.7405 C   0  0  0  0  0  0  0  0  0  0  0  0
  -13.0654    6.1973    6.7057 C   0  0  0  0  0  0  0  0  0  0  0  0
  -11.3128    4.2702    7.3126 O   0  0  0  0  0  0  0  0  0  0  0  0
  -12.2411    4.4135    8.1169 C   0  0  0  0  0  0  0  0  0  0  0  0
  -13.1716    5.3573    7.9021 N   0  0  0  0  0  0  0  0  0  0  0  0
  -12.3560    3.6029    9.2633 C   0  0  0  0  0  0  0  0  0  0  0  0
  -11.5919    2.5647    9.7413 N   0  0  0  0  0  0  0  0  0  0  0  0
  -12.1543    2.1134   10.9022 C   0  0  0  0  0  0  0  0  0  0  0  0
  -13.2612    2.8336   11.1900 C   0  0  0  0  0  0  0  0  0  0  0  0
  -13.4191    3.7888   10.1622 C   0  0  0  0  0  0  0  0  0  0  0  0
  -10.7777    2.2070    9.3190 H   0  0  0  0  0  0  0  0  0  0  0  0
  -17.7049    5.8916   12.3650 C   0  0  0  0  0  0  0  0  0  0  0  0
  -16.6019    6.7152   12.2855 C   0  0  0  0  0  0  0  0  0  0  0  0
  -16.6662    4.3390   10.8178 C   0  0  0  0  0  0  0  0  0  0  0  0
  -15.5319    6.3698   11.4774 C   0  0  0  0  0  0  0  0  0  0  0  0
  -15.5491    5.1732   10.7491 C   0  0  0  0  0  0  0  0  0  0  0  0
  -17.7350    4.6954   11.6483 C   0  0  0  0  0  0  0  0  0  0  0  0
  -18.9446    3.8538   11.7340 C   0  0  0  0  0  0  0  0  0  0  0  0
  -20.8906    2.7176   10.8373 C   0  0  0  0  0  0  0  0  0  0  0  0
  -19.2512    3.4205   12.8318 O   0  0  0  0  0  0  0  0  0  0  0  0
  -19.7053    3.5596   10.6600 N   0  0  0  0  0  0  0  0  0  0  0  0
  -19.3808    4.0364    9.3149 C   0  0  0  0  0  0  0  0  0  0  0  0
  9  8  1  0  0  0
  9 10  2  0  0  0
  8  7  1  0  0  0
 10 11  1  0  0  0
  7 11  2  0  0  0
  7  5  1  0  0  0
 11  1  1  0  0  0
  4  5  2  0  0  0
  5  6  1  0  0  0
 16 14  2  0  0  0
 16 17  1  0  0  0
 14 13  1  0  0  0
  1 17  1  0  0  0
  1  2  2  0  0  0
 17 15  2  0  0  0
  6  2  1  0  0  0
  6  3  1  0  0  0
 13 18  2  0  0  0
 15 18  1  0  0  0
 18 19  1  0  0  0
 19 21  2  0  0  0
 19 22  1  0  0  0
 20 22  1  0  0  0
 22 23  1  0  0  0
  8 12  1  0  0  0
M  END
> <minimizedAffinity>
-7.65542

$$$$
5I7X_67B_A_201


 23 25  0  0  0  0  0  0  0  0999 V2000
  -15.1975    5.0519   10.3545 C   0  0  0  0  0  0  0  0  0  0  0  0
  -14.7733    3.8094    9.9928 C   0  0  0  0  0  0  0  0  0  0  0  0
  -13.3238    2.2551    8.8379 C   0  0  0  0  0  0  0  0  0  0  0  0
  -12.0040    4.4046    7.9481 O   0  0  0  0  0  0  0  0  0  0  0  0
  -12.9678    4.6432    8.6850 C   0  0  0  0  0  0  0  0  0  0  0  0
  -13.6966    3.6306    9.1811 N   0  0  0  0  0  0  0  0  0  0  0  0
  -13.3257    5.9619    9.0281 C   0  0  0  0  0  0  0  0  0  0  0  0
  -12.7810    7.1816    8.7031 N   0  0  0  0  0  0  0  0  0  0  0  0
  -13.5153    8.1591    9.3136 C   0  0  0  0  0  0  0  0  0  0  0  0
  -14.5229    7.6047   10.0236 C   0  0  0  0  0  0  0  0  0  0  0  0
  -14.4272    6.2050    9.8651 C   0  0  0  0  0  0  0  0  0  0  0  0
  -11.9951    7.3262    8.1280 H   0  0  0  0  0  0  0  0  0  0  0  0
  -18.6138    5.4949   12.8771 C   0  0  0  0  0  0  0  0  0  0  0  0
  -17.5632    6.3845   12.9541 C   0  0  0  0  0  0  0  0  0  0  0  0
  -17.4529    4.2630   11.1399 C   0  0  0  0  0  0  0  0  0  0  0  0
  -16.4595    6.2314   12.1321 C   0  0  0  0  0  0  0  0  0  0  0  0
  -16.3890    5.1622   11.2296 C   0  0  0  0  0  0  0  0  0  0  0  0
  -18.5564    4.4235   11.9858 C   0  0  0  0  0  0  0  0  0  0  0  0
  -19.7124    3.5089   11.9093 C   0  0  0  0  0  0  0  0  0  0  0  0
  -21.2093    1.9590   10.7962 C   0  0  0  0  0  0  0  0  0  0  0  0
  -20.3828    3.3648   12.9176 O   0  0  0  0  0  0  0  0  0  0  0  0
  -20.0439    2.8460   10.7826 N   0  0  0  0  0  0  0  0  0  0  0  0
  -19.2700    2.9652    9.5461 C   0  0  0  0  0  0  0  0  0  0  0  0
  9  8  1  0  0  0
  9 10  2  0  0  0
  8  7  1  0  0  0
 10 11  1  0  0  0
  7 11  2  0  0  0
  7  5  1  0  0  0
 11  1  1  0  0  0
  4  5  2  0  0  0
  5  6  1  0  0  0
 16 14  2  0  0  0
 16 17  1  0  0  0
 14 13  1  0  0  0
  1 17  1  0  0  0
  1  2  2  0  0  0
 17 15  2  0  0  0
  6  2  1  0  0  0
  6  3  1  0  0  0
 13 18  2  0  0  0
 15 18  1  0  0  0
 18 19  1  0  0  0
 19 21  2  0  0  0
 19 22  1  0  0  0
 20 22  1  0  0  0
 22 23  1  0  0  0
  8 12  1  0  0  0
M  END
> <minimizedAffinity>
-7.52758

$$$$
5I7X_67B_A_201


 23 25  0  0  0  0  0  0  0  0999 V2000
  -16.5423    5.2614   10.8750 C   0  0  0  0  0  0  0  0  0  0  0  0
  -16.3321    5.9450   12.0339 C   0  0  0  0  0  0  0  0  0  0  0  0
  -16.9943    6.8522   14.1761 C   0  0  0  0  0  0  0  0  0  0  0  0
  -19.3867    5.7476   13.7178 O   0  0  0  0  0  0  0  0  0  0  0  0
  -18.5438    5.5712   12.8304 C   0  0  0  0  0  0  0  0  0  0  0  0
  -17.3125    6.0891   12.9658 N   0  0  0  0  0  0  0  0  0  0  0  0
  -18.8387    4.8298   11.6694 C   0  0  0  0  0  0  0  0  0  0  0  0
  -19.9740    4.1745   11.2550 N   0  0  0  0  0  0  0  0  0  0  0  0
  -19.7222    3.6000   10.0408 C   0  0  0  0  0  0  0  0  0  0  0  0
  -18.4543    3.8680    9.6569 C   0  0  0  0  0  0  0  0  0  0  0  0
  -17.8633    4.6470   10.6753 C   0  0  0  0  0  0  0  0  0  0  0  0
  -20.8242    4.1272   11.7491 H   0  0  0  0  0  0  0  0  0  0  0  0
  -13.3006    5.0978    8.1009 C   0  0  0  0  0  0  0  0  0  0  0  0
  -13.9737    6.2799    8.3262 C   0  0  0  0  0  0  0  0  0  0  0  0
  -14.7443    3.9648    9.6868 C   0  0  0  0  0  0  0  0  0  0  0  0
  -15.0242    6.3219    9.2274 C   0  0  0  0  0  0  0  0  0  0  0  0
  -15.4270    5.1629    9.9033 C   0  0  0  0  0  0  0  0  0  0  0  0
  -13.6924    3.9349    8.7640 C   0  0  0  0  0  0  0  0  0  0  0  0
  -12.9295    2.6949    8.5206 C   0  0  0  0  0  0  0  0  0  0  0  0
  -11.1360    1.1122    8.9212 C   0  0  0  0  0  0  0  0  0  0  0  0
  -13.3233    1.9578    7.6326 O   0  0  0  0  0  0  0  0  0  0  0  0
  -11.8331    2.3624    9.2319 N   0  0  0  0  0  0  0  0  0  0  0  0
  -11.3209    3.1972   10.3194 C   0  0  0  0  0  0  0  0  0  0  0  0
  9  8  1  0  0  0
  9 10  2  0  0  0
  8  7  1  0  0  0
 10 11  1  0  0  0
  7 11  2  0  0  0
  7  5  1  0  0  0
 11  1  1  0  0  0
  4  5  2  0  0  0
  5  6  1  0  0  0
 16 14  2  0  0  0
 16 17  1  0  0  0
 14 13  1  0  0  0
  1 17  1  0  0  0
  1  2  2  0  0  0
 17 15  2  0  0  0
  6  2  1  0  0  0
  6  3  1  0  0  0
 13 18  2  0  0  0
 15 18  1  0  0  0
 18 19  1  0  0  0
 19 21  2  0  0  0
 19 22  1  0  0  0
 20 22  1  0  0  0
 22 23  1  0  0  0
  8 12  1  0  0  0
M  END
> <minimizedAffinity>
-7.45254

$$$$
5I7X_67B_A_201


 23 25  0  0  0  0  0  0  0  0999 V2000
  -16.4853    4.9096   10.9037 C   0  0  0  0  0  0  0  0  0  0  0  0
  -16.2612    5.6304   12.0371 C   0  0  0  0  0  0  0  0  0  0  0  0
  -16.9346    6.7538   14.0707 C   0  0  0  0  0  0  0  0  0  0  0  0
  -19.4214    5.9588   13.4896 O   0  0  0  0  0  0  0  0  0  0  0  0
  -18.5528    5.6131   12.6802 C   0  0  0  0  0  0  0  0  0  0  0  0
  -17.2731    5.9658   12.8820 N   0  0  0  0  0  0  0  0  0  0  0  0
  -18.8686    4.8466   11.5413 C   0  0  0  0  0  0  0  0  0  0  0  0
  -20.0537    4.3272   11.0765 N   0  0  0  0  0  0  0  0  0  0  0  0
  -19.8025    3.6477    9.9178 C   0  0  0  0  0  0  0  0  0  0  0  0
  -18.4862    3.7153    9.6185 C   0  0  0  0  0  0  0  0  0  0  0  0
  -17.8628    4.4697   10.6362 C   0  0  0  0  0  0  0  0  0  0  0  0
  -20.9340    4.4277   11.5057 H   0  0  0  0  0  0  0  0  0  0  0  0
  -13.2073    3.8974    8.3618 C   0  0  0  0  0  0  0  0  0  0  0  0
  -13.8293    2.9319    9.1246 C   0  0  0  0  0  0  0  0  0  0  0  0
  -14.7118    5.5795    9.2509 C   0  0  0  0  0  0  0  0  0  0  0  0
  -14.8910    3.2708    9.9464 C   0  0  0  0  0  0  0  0  0  0  0  0
  -15.3309    4.5984   10.0272 C   0  0  0  0  0  0  0  0  0  0  0  0
  -13.6321    5.2240    8.4342 C   0  0  0  0  0  0  0  0  0  0  0  0
  -12.9625    6.2250    7.5807 C   0  0  0  0  0  0  0  0  0  0  0  0
  -11.4074    8.0307    7.1302 C   0  0  0  0  0  0  0  0  0  0  0  0
  -13.2950    6.2768    6.4087 O   0  0  0  0  0  0  0  0  0  0  0  0
  -12.0187    7.0671    8.0484 N   0  0  0  0  0  0  0  0  0  0  0  0
  -11.5663    7.0430    9.4401 C   0  0  0  0  0  0  0  0  0  0  0  0
  9  8  1  0  0  0
  9 10  2  0  0  0
  8  7  1  0  0  0
 10 11  1  0  0  0
  7 11  2  0  0  0
  7  5  1  0  0  0
 11  1  1  0  0  0
  4  5  2  0  0  0
  5  6  1  0  0  0
 16 14  2  0  0  0
 16 17  1  0  0  0
 14 13  1  0  0  0
  1 17  1  0  0  0
  1  2  2  0  0  0
 17 15  2  0  0  0
  6  2  1  0  0  0
  6  3  1  0  0  0
 13 18  2  0  0  0
 15 18  1  0  0  0
 18 19  1  0  0  0
 19 21  2  0  0  0
 19 22  1  0  0  0
 20 22  1  0  0  0
 22 23  1  0  0  0
  8 12  1  0  0  0
M  END
> <minimizedAffinity>
-7.27542

$$$$
5I7X_67B_A_201


 23 25  0  0  0  0  0  0  0  0999 V2000
  -15.0306    4.8304   10.0715 C   0  0  0  0  0  0  0  0  0  0  0  0
  -14.5645    3.5709    9.8457 C   0  0  0  0  0  0  0  0  0  0  0  0
  -12.9448    1.9596    9.0513 C   0  0  0  0  0  0  0  0  0  0  0  0
  -11.4451    4.0606    8.3510 O   0  0  0  0  0  0  0  0  0  0  0  0
  -12.5286    4.3366    8.8790 C   0  0  0  0  0  0  0  0  0  0  0  0
  -13.3549    3.3507    9.2638 N   0  0  0  0  0  0  0  0  0  0  0  0
  -12.9250    5.6709    9.0964 C   0  0  0  0  0  0  0  0  0  0  0  0
  -12.3088    6.8720    8.8361 N   0  0  0  0  0  0  0  0  0  0  0  0
  -13.1313    7.8793    9.2562 C   0  0  0  0  0  0  0  0  0  0  0  0
  -14.2650    7.3622    9.7797 C   0  0  0  0  0  0  0  0  0  0  0  0
  -14.1627    5.9565    9.6959 C   0  0  0  0  0  0  0  0  0  0  0  0
  -11.4250    6.9870    8.4179 H   0  0  0  0  0  0  0  0  0  0  0  0
  -18.9182    5.1800   11.8022 C   0  0  0  0  0  0  0  0  0  0  0  0
  -18.7612    4.7067   10.5168 C   0  0  0  0  0  0  0  0  0  0  0  0
  -16.5168    5.4573   12.0013 C   0  0  0  0  0  0  0  0  0  0  0  0
  -17.4960    4.5979    9.9645 C   0  0  0  0  0  0  0  0  0  0  0  0
  -16.3660    4.9856   10.6961 C   0  0  0  0  0  0  0  0  0  0  0  0
  -17.8027    5.5730   12.5417 C   0  0  0  0  0  0  0  0  0  0  0  0
  -18.0063    6.0463   13.9250 C   0  0  0  0  0  0  0  0  0  0  0  0
  -17.5411    7.4411   15.8536 C   0  0  0  0  0  0  0  0  0  0  0  0
  -18.8779    5.5030   14.5823 O   0  0  0  0  0  0  0  0  0  0  0  0
  -17.2717    7.0360   14.4721 N   0  0  0  0  0  0  0  0  0  0  0  0
  -16.2230    7.7366   13.7296 C   0  0  0  0  0  0  0  0  0  0  0  0
  9  8  1  0  0  0
  9 10  2  0  0  0
  8  7  1  0  0  0
 10 11  1  0  0  0
  7 11  2  0  0  0
  7  5  1  0  0  0
 11  1  1  0  0  0
  4  5  2  0  0  0
  5  6  1  0  0  0
 16 14  2  0  0  0
 16 17  1  0  0  0
 14 13  1  0  0  0
  1 17  1  0  0  0
  1  2  2  0  0  0
 17 15  2  0  0  0
  6  2  1  0  0  0
  6  3  1  0  0  0
 13 18  2  0  0  0
 15 18  1  0  0  0
 18 19  1  0  0  0
 19 21  2  0  0  0
 19 22  1  0  0  0
 20 22  1  0  0  0
 22 23  1  0  0  0
  8 12  1  0  0  0
M  END
> <minimizedAffinity>
-7.16946

$$$$
5I7X_67B_A_201


 23 25  0  0  0  0  0  0  0  0999 V2000
  -15.1965    5.5748   10.3227 C   0  0  0  0  0  0  0  0  0  0  0  0
  -14.6689    6.7455    9.8693 C   0  0  0  0  0  0  0  0  0  0  0  0
  -13.0543    8.0817    8.6616 C   0  0  0  0  0  0  0  0  0  0  0  0
  -11.8850    5.7695    7.9979 O   0  0  0  0  0  0  0  0  0  0  0  0
  -12.8964    5.6679    8.7021 C   0  0  0  0  0  0  0  0  0  0  0  0
  -13.5537    6.7721    9.0909 N   0  0  0  0  0  0  0  0  0  0  0  0
  -13.3887    4.4124    9.1097 C   0  0  0  0  0  0  0  0  0  0  0  0
  -12.9599    3.1288    8.8678 N   0  0  0  0  0  0  0  0  0  0  0  0
  -13.8098    2.2636    9.4975 C   0  0  0  0  0  0  0  0  0  0  0  0
  -14.7766    2.9532   10.1429 C   0  0  0  0  0  0  0  0  0  0  0  0
  -14.5383    4.3255    9.9120 C   0  0  0  0  0  0  0  0  0  0  0  0
  -12.1738    2.8758    8.3318 H   0  0  0  0  0  0  0  0  0  0  0  0
  -18.7114    5.6263   12.7463 C   0  0  0  0  0  0  0  0  0  0  0  0
  -18.7005    4.9619   11.5382 C   0  0  0  0  0  0  0  0  0  0  0  0
  -16.4062    6.2992   12.4055 C   0  0  0  0  0  0  0  0  0  0  0  0
  -17.5556    4.9520   10.7594 C   0  0  0  0  0  0  0  0  0  0  0  0
  -16.4051    5.6320   11.1794 C   0  0  0  0  0  0  0  0  0  0  0  0
  -17.5745    6.3106   13.1761 C   0  0  0  0  0  0  0  0  0  0  0  0
  -17.6131    6.9852   14.4885 C   0  0  0  0  0  0  0  0  0  0  0  0
  -16.8681    8.5855   16.1515 C   0  0  0  0  0  0  0  0  0  0  0  0
  -18.4584    6.6155   15.2858 O   0  0  0  0  0  0  0  0  0  0  0  0
  -16.7588    7.9726   14.8257 N   0  0  0  0  0  0  0  0  0  0  0  0
  -15.7338    8.4704   13.9073 C   0  0  0  0  0  0  0  0  0  0  0  0
  9  8  1  0  0  0
  9 10  2  0  0  0
  8  7  1  0  0  0
 10 11  1  0  0  0
  7 11  2  0  0  0
  7  5  1  0  0  0
 11  1  1  0  0  0
  4  5  2  0  0  0
  5  6  1  0  0  0
 16 14  2  0  0  0
 16 17  1  0  0  0
 14 13  1  0  0  0
  1 17  1  0  0  0
  1  2  2  0  0  0
 17 15  2  0  0  0
  6  2  1  0  0  0
  6  3  1  0  0  0
 13 18  2  0  0  0
 15 18  1  0  0  0
 18 19  1  0  0  0
 19 21  2  0  0  0
 19 22  1  0  0  0
 20 22  1  0  0  0
 22 23  1  0  0  0
  8 12  1  0  0  0
M  END
> <minimizedAffinity>
-7.14814

$$$$
5I7X_67B_A_201


 23 25  0  0  0  0  0  0  0  0999 V2000
  -13.3558    6.7650    8.7036 C   0  0  0  0  0  0  0  0  0  0  0  0
  -13.4227    8.0276    9.2096 C   0  0  0  0  0  0  0  0  0  0  0  0
  -12.9543   10.4006    9.2076 C   0  0  0  0  0  0  0  0  0  0  0  0
  -11.6560    9.9739    6.9084 O   0  0  0  0  0  0  0  0  0  0  0  0
  -12.1667    8.9714    7.4215 C   0  0  0  0  0  0  0  0  0  0  0  0
  -12.8380    9.0815    8.5791 N   0  0  0  0  0  0  0  0  0  0  0  0
  -12.0685    7.7022    6.8180 C   0  0  0  0  0  0  0  0  0  0  0  0
  -11.4771    7.2767    5.6522 N   0  0  0  0  0  0  0  0  0  0  0  0
  -11.6838    5.9314    5.5290 C   0  0  0  0  0  0  0  0  0  0  0  0
  -12.3916    5.4741    6.5857 C   0  0  0  0  0  0  0  0  0  0  0  0
  -12.6557    6.5792    7.4238 C   0  0  0  0  0  0  0  0  0  0  0  0
  -10.9876    7.8447    5.0142 H   0  0  0  0  0  0  0  0  0  0  0  0
  -15.1224    3.5899   10.9461 C   0  0  0  0  0  0  0  0  0  0  0  0
  -13.7670    3.6025   10.6936 C   0  0  0  0  0  0  0  0  0  0  0  0
  -15.3777    5.6664    9.7189 C   0  0  0  0  0  0  0  0  0  0  0  0
  -13.2041    4.6364    9.9645 C   0  0  0  0  0  0  0  0  0  0  0  0
  -14.0061    5.6680    9.4594 C   0  0  0  0  0  0  0  0  0  0  0  0
  -15.9342    4.6084   10.4468 C   0  0  0  0  0  0  0  0  0  0  0  0
  -17.3758    4.5781   10.7626 C   0  0  0  0  0  0  0  0  0  0  0  0
  -19.3390    5.0970   12.0886 C   0  0  0  0  0  0  0  0  0  0  0  0
  -18.1069    3.9761    9.9945 O   0  0  0  0  0  0  0  0  0  0  0  0
  -17.8959    5.1792   11.8520 N   0  0  0  0  0  0  0  0  0  0  0  0
  -17.0730    5.9294   12.8017 C   0  0  0  0  0  0  0  0  0  0  0  0
  9  8  1  0  0  0
  9 10  2  0  0  0
  8  7  1  0  0  0
 10 11  1  0  0  0
  7 11  2  0  0  0
  7  5  1  0  0  0
 11  1  1  0  0  0
  4  5  2  0  0  0
  5  6  1  0  0  0
 16 14  2  0  0  0
 16 17  1  0  0  0
 14 13  1  0  0  0
  1 17  1  0  0  0
  1  2  2  0  0  0
 17 15  2  0  0  0
  6  2  1  0  0  0
  6  3  1  0  0  0
 13 18  2  0  0  0
 15 18  1  0  0  0
 18 19  1  0  0  0
 19 21  2  0  0  0
 19 22  1  0  0  0
 20 22  1  0  0  0
 22 23  1  0  0  0
  8 12  1  0  0  0
M  END
> <minimizedAffinity>
-6.92765

$$$$
