3CL0_G39_A_800


 24 24  0  0  0  0  0  0  0  0999 V2000
  -30.7286  -54.6984    6.6348 C   0  0  0  0  0  0  0  0  0  0  0  0
  -29.4112  -55.3237    7.0412 C   0  0  0  0  0  0  0  0  0  0  0  0
  -29.5584  -56.2389    8.2613 C   0  0  0  0  0  0  0  0  0  0  0  0
  -30.7724  -57.1697    8.1503 C   0  0  0  0  0  0  0  0  0  0  0  0
  -32.0674  -56.3769    7.9813 C   0  0  0  0  0  0  0  0  0  0  0  0
  -31.8915  -55.3427    6.8799 C   0  0  0  0  0  0  0  0  0  0  0  0
  -28.3359  -57.0129    8.4072 N   0  0  0  0  0  0  0  0  0  0  0  0
  -28.1959  -57.5872    7.5759 H   0  0  0  0  0  0  0  0  0  0  0  0
  -28.4102  -57.6145    9.2275 H   0  0  0  0  0  0  0  0  0  0  0  0
  -30.8782  -58.0341    9.3133 N   0  0  0  0  0  0  0  0  0  0  0  0
  -30.7283  -59.3633    9.2601 C   0  0  0  0  0  0  0  0  0  0  0  0
  -30.7034  -59.9994    8.2142 O   0  0  0  0  0  0  0  0  0  0  0  0
  -30.5832  -60.0471   10.5873 C   0  0  0  0  0  0  0  0  0  0  0  0
  -31.0703  -57.6207   10.1859 H   0  0  0  0  0  0  0  0  0  0  0  0
  -30.7394  -53.3901    5.9570 C   0  0  0  0  0  0  0  0  0  0  0  0
  -29.7674  -53.0572    5.2325 O   0  0  0  0  0  0  0  0  0  0  0  0
  -31.7159  -52.6180    6.1163 O   0  0  0  0  0  0  0  0  0  0  0  0
  -32.4345  -52.8774    6.6588 H   0  0  0  0  0  0  0  0  0  0  0  0
  -33.1669  -57.2546    7.6547 O   0  0  0  0  0  0  0  0  0  0  0  0
  -34.3427  -57.0818    8.4740 C   0  0  0  0  0  0  0  0  0  0  0  0
  -35.2698  -55.9786    7.9406 C   0  0  0  0  0  0  0  0  0  0  0  0
  -35.5663  -56.1081    6.4553 C   0  0  0  0  0  0  0  0  0  0  0  0
  -35.1330  -58.3867    8.5610 C   0  0  0  0  0  0  0  0  0  0  0  0
  -34.2796  -59.6175    8.3441 C   0  0  0  0  0  0  0  0  0  0  0  0
 15 16  2  0  0  0
 15 17  1  0  0  0
 15  1  1  0  0  0
  1  2  1  0  0  0
  1  6  2  0  0  0
  2  3  1  0  0  0
  3  4  1  0  0  0
  3  7  1  0  0  0
  4 10  1  0  0  0
  4  5  1  0  0  0
 10 11  1  0  0  0
 11 12  2  0  0  0
 11 13  1  0  0  0
  5  6  1  0  0  0
  5 19  1  0  0  0
 19 20  1  0  0  0
 20 21  1  0  0  0
 20 23  1  0  0  0
 21 22  1  0  0  0
 23 24  1  0  0  0
 17 18  1  0  0  0
 10 14  1  0  0  0
  7  8  1  0  0  0
  7  9  1  0  0  0
M  END
> <minimizedAffinity>
-7.17003

$$$$
3CL0_G39_A_800


 24 24  0  0  0  0  0  0  0  0999 V2000
  -30.3827  -58.3643    9.6627 C   0  0  0  0  0  0  0  0  0  0  0  0
  -29.4288  -57.1889    9.6612 C   0  0  0  0  0  0  0  0  0  0  0  0
  -29.3362  -56.5220    8.2848 C   0  0  0  0  0  0  0  0  0  0  0  0
  -30.7138  -56.3087    7.6452 C   0  0  0  0  0  0  0  0  0  0  0  0
  -31.4670  -57.6292    7.4932 C   0  0  0  0  0  0  0  0  0  0  0  0
  -31.4310  -58.3905    8.8095 C   0  0  0  0  0  0  0  0  0  0  0  0
  -28.6424  -55.2525    8.4331 N   0  0  0  0  0  0  0  0  0  0  0  0
  -29.1716  -54.6472    9.0608 H   0  0  0  0  0  0  0  0  0  0  0  0
  -28.5555  -54.8040    7.5212 H   0  0  0  0  0  0  0  0  0  0  0  0
  -30.5957  -55.6629    6.3490 N   0  0  0  0  0  0  0  0  0  0  0  0
  -31.0530  -54.4307    6.0948 C   0  0  0  0  0  0  0  0  0  0  0  0
  -31.7965  -53.8165    6.8492 O   0  0  0  0  0  0  0  0  0  0  0  0
  -30.5873  -53.8264    4.8032 C   0  0  0  0  0  0  0  0  0  0  0  0
  -30.1566  -56.1573    5.6197 H   0  0  0  0  0  0  0  0  0  0  0  0
  -30.1738  -59.4750   10.6082 C   0  0  0  0  0  0  0  0  0  0  0  0
  -31.0501  -60.3694   10.7202 O   0  0  0  0  0  0  0  0  0  0  0  0
  -29.1259  -59.5124   11.2979 O   0  0  0  0  0  0  0  0  0  0  0  0
  -28.4800  -58.8400   11.2055 H   0  0  0  0  0  0  0  0  0  0  0  0
  -32.8377  -57.3956    7.1026 O   0  0  0  0  0  0  0  0  0  0  0  0
  -33.7676  -57.2769    8.2001 C   0  0  0  0  0  0  0  0  0  0  0  0
  -34.0982  -55.8131    8.5304 C   0  0  0  0  0  0  0  0  0  0  0  0
  -35.3102  -55.2860    7.7793 C   0  0  0  0  0  0  0  0  0  0  0  0
  -35.0683  -58.0140    7.8840 C   0  0  0  0  0  0  0  0  0  0  0  0
  -35.1320  -59.3996    8.4892 C   0  0  0  0  0  0  0  0  0  0  0  0
 15 16  2  0  0  0
 15 17  1  0  0  0
 15  1  1  0  0  0
  1  2  1  0  0  0
  1  6  2  0  0  0
  2  3  1  0  0  0
  3  4  1  0  0  0
  3  7  1  0  0  0
  4 10  1  0  0  0
  4  5  1  0  0  0
 10 11  1  0  0  0
 11 12  2  0  0  0
 11 13  1  0  0  0
  5  6  1  0  0  0
  5 19  1  0  0  0
 19 20  1  0  0  0
 20 21  1  0  0  0
 20 23  1  0  0  0
 21 22  1  0  0  0
 23 24  1  0  0  0
 17 18  1  0  0  0
 10 14  1  0  0  0
  7  8  1  0  0  0
  7  9  1  0  0  0
M  END
> <minimizedAffinity>
-7.11702

$$$$
3CL0_G39_A_800


 24 24  0  0  0  0  0  0  0  0999 V2000
  -31.1698  -54.3859    6.2277 C   0  0  0  0  0  0  0  0  0  0  0  0
  -32.6654  -54.2818    6.0175 C   0  0  0  0  0  0  0  0  0  0  0  0
  -33.3582  -55.6452    6.1127 C   0  0  0  0  0  0  0  0  0  0  0  0
  -32.8740  -56.4637    7.3160 C   0  0  0  0  0  0  0  0  0  0  0  0
  -31.3641  -56.6912    7.2626 C   0  0  0  0  0  0  0  0  0  0  0  0
  -30.6588  -55.3690    7.0023 C   0  0  0  0  0  0  0  0  0  0  0  0
  -34.7942  -55.4282    6.1901 N   0  0  0  0  0  0  0  0  0  0  0  0
  -35.0115  -54.8859    7.0262 H   0  0  0  0  0  0  0  0  0  0  0  0
  -35.2721  -56.3282    6.2348 H   0  0  0  0  0  0  0  0  0  0  0  0
  -33.5575  -57.7438    7.3884 N   0  0  0  0  0  0  0  0  0  0  0  0
  -34.3358  -58.1070    8.4153 C   0  0  0  0  0  0  0  0  0  0  0  0
  -34.3780  -57.5016    9.4787 O   0  0  0  0  0  0  0  0  0  0  0  0
  -35.1793  -59.3254    8.1825 C   0  0  0  0  0  0  0  0  0  0  0  0
  -33.4422  -58.3771    6.6435 H   0  0  0  0  0  0  0  0  0  0  0  0
  -30.2720  -53.4026    5.5967 C   0  0  0  0  0  0  0  0  0  0  0  0
  -29.3442  -52.8862    6.2696 O   0  0  0  0  0  0  0  0  0  0  0  0
  -30.4479  -53.0850    4.3953 O   0  0  0  0  0  0  0  0  0  0  0  0
  -31.1430  -53.4768    3.9041 H   0  0  0  0  0  0  0  0  0  0  0  0
  -30.8876  -57.2625    8.5005 O   0  0  0  0  0  0  0  0  0  0  0  0
  -29.8608  -58.2655    8.3480 C   0  0  0  0  0  0  0  0  0  0  0  0
  -28.5415  -57.8585    9.0223 C   0  0  0  0  0  0  0  0  0  0  0  0
  -28.6940  -56.6958    9.9896 C   0  0  0  0  0  0  0  0  0  0  0  0
  -30.3211  -59.5987    8.9359 C   0  0  0  0  0  0  0  0  0  0  0  0
  -31.3163  -59.4419   10.0652 C   0  0  0  0  0  0  0  0  0  0  0  0
 15 16  2  0  0  0
 15 17  1  0  0  0
 15  1  1  0  0  0
  1  2  1  0  0  0
  1  6  2  0  0  0
  2  3  1  0  0  0
  3  4  1  0  0  0
  3  7  1  0  0  0
  4 10  1  0  0  0
  4  5  1  0  0  0
 10 11  1  0  0  0
 11 12  2  0  0  0
 11 13  1  0  0  0
  5  6  1  0  0  0
  5 19  1  0  0  0
 19 20  1  0  0  0
 20 21  1  0  0  0
 20 23  1  0  0  0
 21 22  1  0  0  0
 23 24  1  0  0  0
 17 18  1  0  0  0
 10 14  1  0  0  0
  7  8  1  0  0  0
  7  9  1  0  0  0
M  END
> <minimizedAffinity>
-6.87536

$$$$
3CL0_G39_A_800


 24 24  0  0  0  0  0  0  0  0999 V2000
  -29.0427  -58.4694    8.6175 C   0  0  0  0  0  0  0  0  0  0  0  0
  -29.6146  -59.8276    8.9637 C   0  0  0  0  0  0  0  0  0  0  0  0
  -31.0983  -59.7510    9.3386 C   0  0  0  0  0  0  0  0  0  0  0  0
  -31.9020  -58.8781    8.3667 C   0  0  0  0  0  0  0  0  0  0  0  0
  -31.3448  -57.4569    8.3047 C   0  0  0  0  0  0  0  0  0  0  0  0
  -29.8389  -57.5088    8.0971 C   0  0  0  0  0  0  0  0  0  0  0  0
  -31.6357  -61.1019    9.3722 N   0  0  0  0  0  0  0  0  0  0  0  0
  -31.5478  -61.5259    8.4486 H   0  0  0  0  0  0  0  0  0  0  0  0
  -32.6196  -61.0699    9.6393 H   0  0  0  0  0  0  0  0  0  0  0  0
  -33.3058  -58.8355    8.7387 N   0  0  0  0  0  0  0  0  0  0  0  0
  -34.2878  -59.3191    7.9680 C   0  0  0  0  0  0  0  0  0  0  0  0
  -34.1311  -59.6438    6.7979 O   0  0  0  0  0  0  0  0  0  0  0  0
  -35.6242  -59.4495    8.6368 C   0  0  0  0  0  0  0  0  0  0  0  0
  -33.5475  -58.4297    9.6025 H   0  0  0  0  0  0  0  0  0  0  0  0
  -27.6103  -58.2012    8.8361 C   0  0  0  0  0  0  0  0  0  0  0  0
  -27.2064  -57.8753    9.9810 O   0  0  0  0  0  0  0  0  0  0  0  0
  -26.8092  -58.2936    7.8744 O   0  0  0  0  0  0  0  0  0  0  0  0
  -27.1223  -58.5375    7.0256 H   0  0  0  0  0  0  0  0  0  0  0  0
  -31.9594  -56.7117    7.2310 O   0  0  0  0  0  0  0  0  0  0  0  0
  -32.2701  -55.3383    7.5485 C   0  0  0  0  0  0  0  0  0  0  0  0
  -32.5731  -54.5028    6.2950 C   0  0  0  0  0  0  0  0  0  0  0  0
  -31.4816  -53.4979    5.9636 C   0  0  0  0  0  0  0  0  0  0  0  0
  -33.4714  -55.2633    8.4899 C   0  0  0  0  0  0  0  0  0  0  0  0
  -34.7910  -55.5242    7.7965 C   0  0  0  0  0  0  0  0  0  0  0  0
 15 16  2  0  0  0
 15 17  1  0  0  0
 15  1  1  0  0  0
  1  2  1  0  0  0
  1  6  2  0  0  0
  2  3  1  0  0  0
  3  4  1  0  0  0
  3  7  1  0  0  0
  4 10  1  0  0  0
  4  5  1  0  0  0
 10 11  1  0  0  0
 11 12  2  0  0  0
 11 13  1  0  0  0
  5  6  1  0  0  0
  5 19  1  0  0  0
 19 20  1  0  0  0
 20 21  1  0  0  0
 20 23  1  0  0  0
 21 22  1  0  0  0
 23 24  1  0  0  0
 17 18  1  0  0  0
 10 14  1  0  0  0
  7  8  1  0  0  0
  7  9  1  0  0  0
M  END
> <minimizedAffinity>
-6.57507

$$$$
3CL0_G39_A_800


 24 24  0  0  0  0  0  0  0  0999 V2000
  -30.7103  -58.1273    9.7079 C   0  0  0  0  0  0  0  0  0  0  0  0
  -29.6450  -57.0520    9.6798 C   0  0  0  0  0  0  0  0  0  0  0  0
  -29.4640  -56.4548    8.2803 C   0  0  0  0  0  0  0  0  0  0  0  0
  -30.8030  -56.1341    7.6045 C   0  0  0  0  0  0  0  0  0  0  0  0
  -31.6802  -57.3796    7.4891 C   0  0  0  0  0  0  0  0  0  0  0  0
  -31.7416  -58.0858    8.8348 C   0  0  0  0  0  0  0  0  0  0  0  0
  -28.6509  -55.2544    8.3929 N   0  0  0  0  0  0  0  0  0  0  0  0
  -29.1281  -54.5747    8.9851 H   0  0  0  0  0  0  0  0  0  0  0  0
  -28.5048  -54.8545    7.4660 H   0  0  0  0  0  0  0  0  0  0  0  0
  -30.6000  -55.5571    6.2866 N   0  0  0  0  0  0  0  0  0  0  0  0
  -30.9600  -54.3084    5.9649 C   0  0  0  0  0  0  0  0  0  0  0  0
  -31.6800  -53.6103    6.6674 O   0  0  0  0  0  0  0  0  0  0  0  0
  -30.4136  -53.7970    4.6650 C   0  0  0  0  0  0  0  0  0  0  0  0
  -30.1756  -56.1133    5.5940 H   0  0  0  0  0  0  0  0  0  0  0  0
  -30.6279  -59.2131   10.7006 C   0  0  0  0  0  0  0  0  0  0  0  0
  -30.8750  -60.3951   10.3511 O   0  0  0  0  0  0  0  0  0  0  0  0
  -30.3192  -58.9453   11.8872 O   0  0  0  0  0  0  0  0  0  0  0  0
  -30.1372  -58.0603   12.1356 H   0  0  0  0  0  0  0  0  0  0  0  0
  -33.0144  -57.0291    7.0612 O   0  0  0  0  0  0  0  0  0  0  0  0
  -33.6503  -58.0021    6.2053 C   0  0  0  0  0  0  0  0  0  0  0  0
  -34.9755  -58.5164    6.7887 C   0  0  0  0  0  0  0  0  0  0  0  0
  -35.7470  -59.4108    5.8319 C   0  0  0  0  0  0  0  0  0  0  0  0
  -33.9208  -57.4069    4.8242 C   0  0  0  0  0  0  0  0  0  0  0  0
  -34.1211  -55.9071    4.8488 C   0  0  0  0  0  0  0  0  0  0  0  0
 15 16  2  0  0  0
 15 17  1  0  0  0
 15  1  1  0  0  0
  1  2  1  0  0  0
  1  6  2  0  0  0
  2  3  1  0  0  0
  3  4  1  0  0  0
  3  7  1  0  0  0
  4 10  1  0  0  0
  4  5  1  0  0  0
 10 11  1  0  0  0
 11 12  2  0  0  0
 11 13  1  0  0  0
  5  6  1  0  0  0
  5 19  1  0  0  0
 19 20  1  0  0  0
 20 21  1  0  0  0
 20 23  1  0  0  0
 21 22  1  0  0  0
 23 24  1  0  0  0
 17 18  1  0  0  0
 10 14  1  0  0  0
  7  8  1  0  0  0
  7  9  1  0  0  0
M  END
> <minimizedAffinity>
-6.37455

$$$$
3CL0_G39_A_800


 24 24  0  0  0  0  0  0  0  0999 V2000
  -30.0437  -58.1567    9.3435 C   0  0  0  0  0  0  0  0  0  0  0  0
  -30.7655  -57.6260   10.5638 C   0  0  0  0  0  0  0  0  0  0  0  0
  -32.0799  -56.9280   10.1992 C   0  0  0  0  0  0  0  0  0  0  0  0
  -32.9075  -57.7320    9.1887 C   0  0  0  0  0  0  0  0  0  0  0  0
  -32.1220  -57.9860    7.9032 C   0  0  0  0  0  0  0  0  0  0  0  0
  -30.7429  -58.5275    8.2475 C   0  0  0  0  0  0  0  0  0  0  0  0
  -32.8399  -56.7095   11.4197 N   0  0  0  0  0  0  0  0  0  0  0  0
  -33.0502  -57.6079   11.8546 H   0  0  0  0  0  0  0  0  0  0  0  0
  -33.7108  -56.2278   11.1962 H   0  0  0  0  0  0  0  0  0  0  0  0
  -34.1528  -57.0534    8.8730 N   0  0  0  0  0  0  0  0  0  0  0  0
  -34.2183  -55.7709    8.4948 C   0  0  0  0  0  0  0  0  0  0  0  0
  -33.2786  -54.9910    8.5841 O   0  0  0  0  0  0  0  0  0  0  0  0
  -35.5396  -55.3325    7.9360 C   0  0  0  0  0  0  0  0  0  0  0  0
  -34.9922  -57.5633    8.9407 H   0  0  0  0  0  0  0  0  0  0  0  0
  -28.5756  -58.2821    9.3586 C   0  0  0  0  0  0  0  0  0  0  0  0
  -27.9383  -58.2572    8.2754 O   0  0  0  0  0  0  0  0  0  0  0  0
  -27.9771  -58.4203   10.4531 O   0  0  0  0  0  0  0  0  0  0  0  0
  -28.4632  -58.4374   11.2540 H   0  0  0  0  0  0  0  0  0  0  0  0
  -32.8169  -58.9260    7.0550 O   0  0  0  0  0  0  0  0  0  0  0  0
  -33.1178  -58.4376    5.7304 C   0  0  0  0  0  0  0  0  0  0  0  0
  -34.6141  -58.5388    5.3961 C   0  0  0  0  0  0  0  0  0  0  0  0
  -35.4118  -59.3101    6.4351 C   0  0  0  0  0  0  0  0  0  0  0  0
  -32.6799  -56.9811    5.5828 C   0  0  0  0  0  0  0  0  0  0  0  0
  -33.6649  -56.1371    4.8034 C   0  0  0  0  0  0  0  0  0  0  0  0
 15 16  2  0  0  0
 15 17  1  0  0  0
 15  1  1  0  0  0
  1  2  1  0  0  0
  1  6  2  0  0  0
  2  3  1  0  0  0
  3  4  1  0  0  0
  3  7  1  0  0  0
  4 10  1  0  0  0
  4  5  1  0  0  0
 10 11  1  0  0  0
 11 12  2  0  0  0
 11 13  1  0  0  0
  5  6  1  0  0  0
  5 19  1  0  0  0
 19 20  1  0  0  0
 20 21  1  0  0  0
 20 23  1  0  0  0
 21 22  1  0  0  0
 23 24  1  0  0  0
 17 18  1  0  0  0
 10 14  1  0  0  0
  7  8  1  0  0  0
  7  9  1  0  0  0
M  END
> <minimizedAffinity>
-6.09327

$$$$
3CL0_G39_A_800


 24 24  0  0  0  0  0  0  0  0999 V2000
  -29.0690  -57.1165    8.5016 C   0  0  0  0  0  0  0  0  0  0  0  0
  -29.1675  -55.8424    7.6900 C   0  0  0  0  0  0  0  0  0  0  0  0
  -30.4990  -55.7375    6.9391 C   0  0  0  0  0  0  0  0  0  0  0  0
  -31.6985  -56.1008    7.8233 C   0  0  0  0  0  0  0  0  0  0  0  0
  -31.5687  -57.5167    8.3823 C   0  0  0  0  0  0  0  0  0  0  0  0
  -30.1865  -57.6996    8.9902 C   0  0  0  0  0  0  0  0  0  0  0  0
  -30.6352  -54.3824    6.4291 N   0  0  0  0  0  0  0  0  0  0  0  0
  -30.6406  -53.7247    7.2087 H   0  0  0  0  0  0  0  0  0  0  0  0
  -31.5092  -54.3009    5.9095 H   0  0  0  0  0  0  0  0  0  0  0  0
  -32.9466  -55.9789    7.0896 N   0  0  0  0  0  0  0  0  0  0  0  0
  -33.9832  -55.2461    7.5146 C   0  0  0  0  0  0  0  0  0  0  0  0
  -34.0678  -54.7876    8.6468 O   0  0  0  0  0  0  0  0  0  0  0  0
  -35.0605  -55.0071    6.4985 C   0  0  0  0  0  0  0  0  0  0  0  0
  -33.0346  -56.4603    6.2354 H   0  0  0  0  0  0  0  0  0  0  0  0
  -27.7486  -57.7125    8.7705 C   0  0  0  0  0  0  0  0  0  0  0  0
  -27.3679  -57.8705    9.9582 O   0  0  0  0  0  0  0  0  0  0  0  0
  -27.0140  -58.0494    7.8103 O   0  0  0  0  0  0  0  0  0  0  0  0
  -27.3088  -57.9268    6.9294 H   0  0  0  0  0  0  0  0  0  0  0  0
  -32.5787  -57.7670    9.3839 O   0  0  0  0  0  0  0  0  0  0  0  0
  -33.1376  -59.0977    9.3599 C   0  0  0  0  0  0  0  0  0  0  0  0
  -34.0474  -59.3278    8.1433 C   0  0  0  0  0  0  0  0  0  0  0  0
  -35.4998  -59.5768    8.5169 C   0  0  0  0  0  0  0  0  0  0  0  0
  -32.0264  -60.1465    9.3466 C   0  0  0  0  0  0  0  0  0  0  0  0
  -31.3867  -60.3564   10.7019 C   0  0  0  0  0  0  0  0  0  0  0  0
 15 16  2  0  0  0
 15 17  1  0  0  0
 15  1  1  0  0  0
  1  2  1  0  0  0
  1  6  2  0  0  0
  2  3  1  0  0  0
  3  4  1  0  0  0
  3  7  1  0  0  0
  4 10  1  0  0  0
  4  5  1  0  0  0
 10 11  1  0  0  0
 11 12  2  0  0  0
 11 13  1  0  0  0
  5  6  1  0  0  0
  5 19  1  0  0  0
 19 20  1  0  0  0
 20 21  1  0  0  0
 20 23  1  0  0  0
 21 22  1  0  0  0
 23 24  1  0  0  0
 17 18  1  0  0  0
 10 14  1  0  0  0
  7  8  1  0  0  0
  7  9  1  0  0  0
M  END
> <minimizedAffinity>
-6.00885

$$$$
3CL0_G39_A_800


 24 24  0  0  0  0  0  0  0  0999 V2000
  -33.7431  -55.4512    7.7363 C   0  0  0  0  0  0  0  0  0  0  0  0
  -33.2976  -56.0909    9.0341 C   0  0  0  0  0  0  0  0  0  0  0  0
  -32.0248  -56.9259    8.8593 C   0  0  0  0  0  0  0  0  0  0  0  0
  -30.9573  -56.1976    8.0332 C   0  0  0  0  0  0  0  0  0  0  0  0
  -31.4845  -55.8239    6.6488 C   0  0  0  0  0  0  0  0  0  0  0  0
  -32.8343  -55.1364    6.7863 C   0  0  0  0  0  0  0  0  0  0  0  0
  -31.5079  -57.2598   10.1769 N   0  0  0  0  0  0  0  0  0  0  0  0
  -31.2766  -56.4024   10.6787 H   0  0  0  0  0  0  0  0  0  0  0  0
  -30.6697  -57.8326   10.0782 H   0  0  0  0  0  0  0  0  0  0  0  0
  -29.7583  -57.0066    7.8961 N   0  0  0  0  0  0  0  0  0  0  0  0
  -28.7603  -57.0029    8.7884 C   0  0  0  0  0  0  0  0  0  0  0  0
  -28.6562  -56.1730    9.6826 O   0  0  0  0  0  0  0  0  0  0  0  0
  -27.7536  -58.1037    8.6309 C   0  0  0  0  0  0  0  0  0  0  0  0
  -29.6754  -57.5879    7.1058 H   0  0  0  0  0  0  0  0  0  0  0  0
  -35.1705  -55.1587    7.5169 C   0  0  0  0  0  0  0  0  0  0  0  0
  -35.5299  -54.5680    6.4670 O   0  0  0  0  0  0  0  0  0  0  0  0
  -36.0123  -55.4958    8.3845 O   0  0  0  0  0  0  0  0  0  0  0  0
  -35.7322  -55.9357    9.1630 H   0  0  0  0  0  0  0  0  0  0  0  0
  -30.5593  -54.9493    5.9668 O   0  0  0  0  0  0  0  0  0  0  0  0
  -30.5638  -55.0676    4.5282 C   0  0  0  0  0  0  0  0  0  0  0  0
  -31.9188  -54.6829    3.9143 C   0  0  0  0  0  0  0  0  0  0  0  0
  -32.3973  -55.6600    2.8526 C   0  0  0  0  0  0  0  0  0  0  0  0
  -29.4786  -54.1846    3.9135 C   0  0  0  0  0  0  0  0  0  0  0  0
  -28.6877  -54.8796    2.8265 C   0  0  0  0  0  0  0  0  0  0  0  0
 15 16  2  0  0  0
 15 17  1  0  0  0
 15  1  1  0  0  0
  1  2  1  0  0  0
  1  6  2  0  0  0
  2  3  1  0  0  0
  3  4  1  0  0  0
  3  7  1  0  0  0
  4 10  1  0  0  0
  4  5  1  0  0  0
 10 11  1  0  0  0
 11 12  2  0  0  0
 11 13  1  0  0  0
  5  6  1  0  0  0
  5 19  1  0  0  0
 19 20  1  0  0  0
 20 21  1  0  0  0
 20 23  1  0  0  0
 21 22  1  0  0  0
 23 24  1  0  0  0
 17 18  1  0  0  0
 10 14  1  0  0  0
  7  8  1  0  0  0
  7  9  1  0  0  0
M  END
> <minimizedAffinity>
-5.97929

$$$$
3CL0_G39_A_800


 24 24  0  0  0  0  0  0  0  0999 V2000
  -31.8902  -55.3296    6.5300 C   0  0  0  0  0  0  0  0  0  0  0  0
  -33.1981  -54.7128    6.9780 C   0  0  0  0  0  0  0  0  0  0  0  0
  -34.1971  -55.7675    7.4650 C   0  0  0  0  0  0  0  0  0  0  0  0
  -33.5503  -56.7972    8.3997 C   0  0  0  0  0  0  0  0  0  0  0  0
  -32.3853  -57.5129    7.7178 C   0  0  0  0  0  0  0  0  0  0  0  0
  -31.4606  -56.4873    7.0801 C   0  0  0  0  0  0  0  0  0  0  0  0
  -35.2934  -55.0885    8.1374 N   0  0  0  0  0  0  0  0  0  0  0  0
  -34.9331  -54.5755    8.9420 H   0  0  0  0  0  0  0  0  0  0  0  0
  -35.9779  -55.7764    8.4515 H   0  0  0  0  0  0  0  0  0  0  0  0
  -34.5232  -57.7751    8.8559 N   0  0  0  0  0  0  0  0  0  0  0  0
  -35.2802  -58.5043    8.0269 C   0  0  0  0  0  0  0  0  0  0  0  0
  -35.3863  -58.2733    6.8291 O   0  0  0  0  0  0  0  0  0  0  0  0
  -36.0057  -59.6531    8.6624 C   0  0  0  0  0  0  0  0  0  0  0  0
  -34.6313  -57.9085    9.8254 H   0  0  0  0  0  0  0  0  0  0  0  0
  -31.0780  -54.6561    5.5014 C   0  0  0  0  0  0  0  0  0  0  0  0
  -31.4872  -53.5831    4.9902 O   0  0  0  0  0  0  0  0  0  0  0  0
  -29.9890  -55.1652    5.1407 O   0  0  0  0  0  0  0  0  0  0  0  0
  -29.6945  -55.9654    5.5292 H   0  0  0  0  0  0  0  0  0  0  0  0
  -31.6467  -58.3108    8.6683 O   0  0  0  0  0  0  0  0  0  0  0  0
  -30.3181  -57.8278    8.9604 C   0  0  0  0  0  0  0  0  0  0  0  0
  -30.1869  -57.3141   10.4026 C   0  0  0  0  0  0  0  0  0  0  0  0
  -31.3960  -57.6328   11.2670 C   0  0  0  0  0  0  0  0  0  0  0  0
  -29.2846  -58.9310    8.7369 C   0  0  0  0  0  0  0  0  0  0  0  0
  -29.6472  -60.2353    9.4133 C   0  0  0  0  0  0  0  0  0  0  0  0
 15 16  2  0  0  0
 15 17  1  0  0  0
 15  1  1  0  0  0
  1  2  1  0  0  0
  1  6  2  0  0  0
  2  3  1  0  0  0
  3  4  1  0  0  0
  3  7  1  0  0  0
  4 10  1  0  0  0
  4  5  1  0  0  0
 10 11  1  0  0  0
 11 12  2  0  0  0
 11 13  1  0  0  0
  5  6  1  0  0  0
  5 19  1  0  0  0
 19 20  1  0  0  0
 20 21  1  0  0  0
 20 23  1  0  0  0
 21 22  1  0  0  0
 23 24  1  0  0  0
 17 18  1  0  0  0
 10 14  1  0  0  0
  7  8  1  0  0  0
  7  9  1  0  0  0
M  END
> <minimizedAffinity>
-5.96037

$$$$
3CL0_G39_A_800


 24 24  0  0  0  0  0  0  0  0999 V2000
  -31.8379  -56.5570    8.6664 C   0  0  0  0  0  0  0  0  0  0  0  0
  -30.4065  -56.0650    8.6902 C   0  0  0  0  0  0  0  0  0  0  0  0
  -29.8305  -55.8959    7.2804 C   0  0  0  0  0  0  0  0  0  0  0  0
  -30.8027  -55.1807    6.3341 C   0  0  0  0  0  0  0  0  0  0  0  0
  -32.1290  -55.9317    6.2278 C   0  0  0  0  0  0  0  0  0  0  0  0
  -32.6423  -56.2586    7.6218 C   0  0  0  0  0  0  0  0  0  0  0  0
  -28.5810  -55.1582    7.3783 N   0  0  0  0  0  0  0  0  0  0  0  0
  -28.7606  -54.2366    7.7766 H   0  0  0  0  0  0  0  0  0  0  0  0
  -28.1743  -55.0535    6.4487 H   0  0  0  0  0  0  0  0  0  0  0  0
  -30.2249  -55.0223    5.0105 N   0  0  0  0  0  0  0  0  0  0  0  0
  -30.0390  -53.8331    4.4246 C   0  0  0  0  0  0  0  0  0  0  0  0
  -30.5261  -52.7903    4.8422 O   0  0  0  0  0  0  0  0  0  0  0  0
  -29.1737  -53.8488    3.1993 C   0  0  0  0  0  0  0  0  0  0  0  0
  -29.9560  -55.8318    4.5188 H   0  0  0  0  0  0  0  0  0  0  0  0
  -32.3575  -57.3511    9.7937 C   0  0  0  0  0  0  0  0  0  0  0  0
  -31.8133  -58.4459   10.0860 O   0  0  0  0  0  0  0  0  0  0  0  0
  -33.3435  -56.9295   10.4457 O   0  0  0  0  0  0  0  0  0  0  0  0
  -33.7407  -56.1119   10.2183 H   0  0  0  0  0  0  0  0  0  0  0  0
  -33.1098  -55.1424    5.5199 O   0  0  0  0  0  0  0  0  0  0  0  0
  -33.7346  -55.8125    4.4045 C   0  0  0  0  0  0  0  0  0  0  0  0
  -35.2643  -55.6679    4.4182 C   0  0  0  0  0  0  0  0  0  0  0  0
  -35.8906  -56.0288    5.7555 C   0  0  0  0  0  0  0  0  0  0  0  0
  -33.2021  -55.2636    3.0816 C   0  0  0  0  0  0  0  0  0  0  0  0
  -32.3875  -56.2722    2.3010 C   0  0  0  0  0  0  0  0  0  0  0  0
 15 16  2  0  0  0
 15 17  1  0  0  0
 15  1  1  0  0  0
  1  2  1  0  0  0
  1  6  2  0  0  0
  2  3  1  0  0  0
  3  4  1  0  0  0
  3  7  1  0  0  0
  4 10  1  0  0  0
  4  5  1  0  0  0
 10 11  1  0  0  0
 11 12  2  0  0  0
 11 13  1  0  0  0
  5  6  1  0  0  0
  5 19  1  0  0  0
 19 20  1  0  0  0
 20 21  1  0  0  0
 20 23  1  0  0  0
 21 22  1  0  0  0
 23 24  1  0  0  0
 17 18  1  0  0  0
 10 14  1  0  0  0
  7  8  1  0  0  0
  7  9  1  0  0  0
M  END
> <minimizedAffinity>
-5.92423

$$$$
