4BQH_9VU_A_1539


 27 30  0  0  0  0  0  0  0  0999 V2000
   -8.2321   35.5453    7.0355 O   0  0  0  0  0  0  0  0  0  0  0  0
   -9.2809   36.1370    7.3574 C   0  0  0  0  0  0  0  0  0  0  0  0
  -10.4832   35.5564    7.3932 N   0  0  0  0  0  0  0  0  0  0  0  0
  -11.4091   36.4888    7.7479 C   0  0  0  0  0  0  0  0  0  0  0  0
  -12.7316   36.3444    7.8809 C   0  0  0  0  0  0  0  0  0  0  0  0
  -13.5818   37.4072    8.2254 C   0  0  0  0  0  0  0  0  0  0  0  0
  -13.0003   38.6664    8.4174 C   0  0  0  0  0  0  0  0  0  0  0  0
  -13.8281   39.7871    8.7664 C   0  0  0  0  0  0  0  0  0  0  0  0
  -11.5993   38.7684    8.2637 C   0  0  0  0  0  0  0  0  0  0  0  0
  -10.8420   40.4780    8.5980 Br  0  0  0  0  0  0  0  0  0  0  0  0
  -10.8175   37.7016    7.9370 C   0  0  0  0  0  0  0  0  0  0  0  0
   -9.4113   37.5143    7.6884 C   0  0  0  0  0  0  0  0  0  0  0  0
   -9.0241   38.2387    6.5177 O   0  0  0  0  0  0  0  0  0  0  0  0
  -10.6691   34.6101    7.1955 H   0  0  0  0  0  0  0  0  0  0  0  0
   -9.5836   37.9709    5.7719 H   0  0  0  0  0  0  0  0  0  0  0  0
   -8.4528   38.0272    8.7965 C   0  0  0  0  0  0  0  0  0  0  0  0
   -8.6027   37.2828   10.1393 C   0  0  0  0  0  0  0  0  0  0  0  0
   -9.2947   36.2538   10.1592 O   0  0  0  0  0  0  0  0  0  0  0  0
   -7.8947   37.7880   11.2700 C   0  0  0  0  0  0  0  0  0  0  0  0
   -7.3994   39.0923   11.3319 C   0  0  0  0  0  0  0  0  0  0  0  0
   -6.7248   39.5427   12.4047 C   0  0  0  0  0  0  0  0  0  0  0  0
   -6.1937   40.7817   12.6219 O   0  0  0  0  0  0  0  0  0  0  0  0
   -5.2590   40.5688   13.7154 C   0  0  0  0  0  0  0  0  0  0  0  0
   -5.8322   39.4671   14.4299 O   0  0  0  0  0  0  0  0  0  0  0  0
   -6.5212   38.7721   13.4731 C   0  0  0  0  0  0  0  0  0  0  0  0
   -6.9816   37.5103   13.4955 C   0  0  0  0  0  0  0  0  0  0  0  0
   -7.6842   36.9965   12.4063 C   0  0  0  0  0  0  0  0  0  0  0  0
  1  2  2  0  0  0
  2  3  1  0  0  0
  2 12  1  0  0  0
  3  4  1  0  0  0
  4  5  1  0  0  0
  4 11  2  0  0  0
  5  6  2  0  0  0
  6  7  1  0  0  0
  7  8  1  0  0  0
  7  9  2  0  0  0
  9 10  1  0  0  0
  9 11  1  0  0  0
 11 12  1  0  0  0
 12 13  1  0  0  0
 12 16  1  0  0  0
 16 17  1  0  0  0
 17 18  2  0  0  0
 17 19  1  0  0  0
 19 20  1  0  0  0
 19 27  2  0  0  0
 20 21  2  0  0  0
 21 22  1  0  0  0
 21 25  1  0  0  0
 22 23  1  0  0  0
 23 24  1  0  0  0
 24 25  1  0  0  0
 25 26  2  0  0  0
 26 27  1  0  0  0
  3 14  1  0  0  0
 13 15  1  0  0  0
M  END
> <minimizedAffinity>
-10.45358

$$$$
4BQH_9VU_A_1539


 27 30  0  0  0  0  0  0  0  0999 V2000
   -8.6505   40.2658    8.3422 O   0  0  0  0  0  0  0  0  0  0  0  0
   -9.1834   39.3018    7.7588 C   0  0  0  0  0  0  0  0  0  0  0  0
   -8.8020   38.8527    6.5602 N   0  0  0  0  0  0  0  0  0  0  0  0
   -9.6115   37.8188    6.2022 C   0  0  0  0  0  0  0  0  0  0  0  0
   -9.5971   37.0974    5.0767 C   0  0  0  0  0  0  0  0  0  0  0  0
  -10.5184   36.0696    4.8203 C   0  0  0  0  0  0  0  0  0  0  0  0
  -11.4950   35.8173    5.7915 C   0  0  0  0  0  0  0  0  0  0  0  0
  -12.4636   34.7793    5.5742 C   0  0  0  0  0  0  0  0  0  0  0  0
  -11.4699   36.6076    6.9627 C   0  0  0  0  0  0  0  0  0  0  0  0
  -12.7691   36.1893    8.2837 Br  0  0  0  0  0  0  0  0  0  0  0  0
  -10.5462   37.5881    7.1664 C   0  0  0  0  0  0  0  0  0  0  0  0
  -10.3001   38.5466    8.2128 C   0  0  0  0  0  0  0  0  0  0  0  0
  -11.3910   39.4677    8.2947 O   0  0  0  0  0  0  0  0  0  0  0  0
   -8.0579   39.2105    6.0240 H   0  0  0  0  0  0  0  0  0  0  0  0
  -11.5345   39.8768    7.4270 H   0  0  0  0  0  0  0  0  0  0  0  0
  -10.1737   37.9666    9.6472 C   0  0  0  0  0  0  0  0  0  0  0  0
   -8.8233   37.2722    9.9185 C   0  0  0  0  0  0  0  0  0  0  0  0
   -8.4221   36.4386    9.0923 O   0  0  0  0  0  0  0  0  0  0  0  0
   -8.0861   37.6654   11.0747 C   0  0  0  0  0  0  0  0  0  0  0  0
   -7.6209   38.9677   11.2689 C   0  0  0  0  0  0  0  0  0  0  0  0
   -6.9179   39.3122   12.3626 C   0  0  0  0  0  0  0  0  0  0  0  0
   -6.4095   40.5331   12.7022 O   0  0  0  0  0  0  0  0  0  0  0  0
   -5.4297   40.2240   13.7312 C   0  0  0  0  0  0  0  0  0  0  0  0
   -5.9486   39.0321   14.3339 O   0  0  0  0  0  0  0  0  0  0  0  0
   -6.6557   38.4311   13.3278 C   0  0  0  0  0  0  0  0  0  0  0  0
   -7.0840   37.1624   13.2210 C   0  0  0  0  0  0  0  0  0  0  0  0
   -7.8139   36.7560   12.1048 C   0  0  0  0  0  0  0  0  0  0  0  0
  1  2  2  0  0  0
  2  3  1  0  0  0
  2 12  1  0  0  0
  3  4  1  0  0  0
  4  5  1  0  0  0
  4 11  2  0  0  0
  5  6  2  0  0  0
  6  7  1  0  0  0
  7  8  1  0  0  0
  7  9  2  0  0  0
  9 10  1  0  0  0
  9 11  1  0  0  0
 11 12  1  0  0  0
 12 13  1  0  0  0
 12 16  1  0  0  0
 16 17  1  0  0  0
 17 18  2  0  0  0
 17 19  1  0  0  0
 19 20  1  0  0  0
 19 27  2  0  0  0
 20 21  2  0  0  0
 21 22  1  0  0  0
 21 25  1  0  0  0
 22 23  1  0  0  0
 23 24  1  0  0  0
 24 25  1  0  0  0
 25 26  2  0  0  0
 26 27  1  0  0  0
  3 14  1  0  0  0
 13 15  1  0  0  0
M  END
> <minimizedAffinity>
-8.75014

$$$$
4BQH_9VU_A_1539


 27 30  0  0  0  0  0  0  0  0999 V2000
  -10.7682   34.7746    6.3478 O   0  0  0  0  0  0  0  0  0  0  0  0
  -11.1531   35.8298    6.8883 C   0  0  0  0  0  0  0  0  0  0  0  0
  -12.4100   36.0497    7.2827 N   0  0  0  0  0  0  0  0  0  0  0  0
  -12.4938   37.3072    7.7966 C   0  0  0  0  0  0  0  0  0  0  0  0
  -13.5656   37.9412    8.2831 C   0  0  0  0  0  0  0  0  0  0  0  0
  -13.5179   39.2617    8.7574 C   0  0  0  0  0  0  0  0  0  0  0  0
  -12.2887   39.9293    8.6937 C   0  0  0  0  0  0  0  0  0  0  0  0
  -12.1889   41.2834    9.1620 C   0  0  0  0  0  0  0  0  0  0  0  0
  -11.1860   39.2175    8.1699 C   0  0  0  0  0  0  0  0  0  0  0  0
   -9.5231   40.1355    8.1627 Br  0  0  0  0  0  0  0  0  0  0  0  0
  -11.2844   37.9315    7.7311 C   0  0  0  0  0  0  0  0  0  0  0  0
  -10.3700   36.9910    7.1364 C   0  0  0  0  0  0  0  0  0  0  0  0
   -9.9513   37.4649    5.8537 O   0  0  0  0  0  0  0  0  0  0  0  0
  -13.1534   35.4080    7.2131 H   0  0  0  0  0  0  0  0  0  0  0  0
  -10.7308   37.6407    5.3038 H   0  0  0  0  0  0  0  0  0  0  0  0
   -9.0468   36.7497    7.9115 C   0  0  0  0  0  0  0  0  0  0  0  0
   -9.2556   36.3753    9.3933 C   0  0  0  0  0  0  0  0  0  0  0  0
  -10.0425   35.4528    9.6543 O   0  0  0  0  0  0  0  0  0  0  0  0
   -8.4931   37.0732   10.3764 C   0  0  0  0  0  0  0  0  0  0  0  0
   -8.1171   36.4973   11.5917 C   0  0  0  0  0  0  0  0  0  0  0  0
   -7.4073   37.1793   12.5082 C   0  0  0  0  0  0  0  0  0  0  0  0
   -6.9557   36.7581   13.7260 O   0  0  0  0  0  0  0  0  0  0  0  0
   -6.6351   37.9945   14.4209 C   0  0  0  0  0  0  0  0  0  0  0  0
   -6.2867   38.8899   13.3580 O   0  0  0  0  0  0  0  0  0  0  0  0
   -7.0047   38.4306   12.2871 C   0  0  0  0  0  0  0  0  0  0  0  0
   -7.3134   39.0474   11.1344 C   0  0  0  0  0  0  0  0  0  0  0  0
   -8.0501   38.3833   10.1544 C   0  0  0  0  0  0  0  0  0  0  0  0
  1  2  2  0  0  0
  2  3  1  0  0  0
  2 12  1  0  0  0
  3  4  1  0  0  0
  4  5  1  0  0  0
  4 11  2  0  0  0
  5  6  2  0  0  0
  6  7  1  0  0  0
  7  8  1  0  0  0
  7  9  2  0  0  0
  9 10  1  0  0  0
  9 11  1  0  0  0
 11 12  1  0  0  0
 12 13  1  0  0  0
 12 16  1  0  0  0
 16 17  1  0  0  0
 17 18  2  0  0  0
 17 19  1  0  0  0
 19 20  1  0  0  0
 19 27  2  0  0  0
 20 21  2  0  0  0
 21 22  1  0  0  0
 21 25  1  0  0  0
 22 23  1  0  0  0
 23 24  1  0  0  0
 24 25  1  0  0  0
 25 26  2  0  0  0
 26 27  1  0  0  0
  3 14  1  0  0  0
 13 15  1  0  0  0
M  END
> <minimizedAffinity>
-8.65557

$$$$
4BQH_9VU_A_1539


 27 30  0  0  0  0  0  0  0  0999 V2000
   -8.8037   38.9135    6.3996 O   0  0  0  0  0  0  0  0  0  0  0  0
   -8.7266   38.7743    7.6358 C   0  0  0  0  0  0  0  0  0  0  0  0
   -8.3355   39.7399    8.4716 N   0  0  0  0  0  0  0  0  0  0  0  0
   -8.3304   39.2457    9.7397 C   0  0  0  0  0  0  0  0  0  0  0  0
   -7.9844   39.8613   10.8749 C   0  0  0  0  0  0  0  0  0  0  0  0
   -7.9958   39.2182   12.1228 C   0  0  0  0  0  0  0  0  0  0  0  0
   -8.3735   37.8702   12.1540 C   0  0  0  0  0  0  0  0  0  0  0  0
   -8.3966   37.1661   13.4056 C   0  0  0  0  0  0  0  0  0  0  0  0
   -8.7285   37.2637   10.9280 C   0  0  0  0  0  0  0  0  0  0  0  0
   -9.2987   35.4543   11.0227 Br  0  0  0  0  0  0  0  0  0  0  0  0
   -8.7094   37.9369    9.7437 C   0  0  0  0  0  0  0  0  0  0  0  0
   -8.9796   37.5847    8.3736 C   0  0  0  0  0  0  0  0  0  0  0  0
   -8.0187   36.6280    7.9192 O   0  0  0  0  0  0  0  0  0  0  0  0
   -8.0912   40.6579    8.2130 H   0  0  0  0  0  0  0  0  0  0  0  0
   -7.1244   36.9783    8.0551 H   0  0  0  0  0  0  0  0  0  0  0  0
  -10.3529   36.9129    8.1046 C   0  0  0  0  0  0  0  0  0  0  0  0
  -11.5599   37.8000    8.4730 C   0  0  0  0  0  0  0  0  0  0  0  0
  -11.3970   39.0295    8.4797 O   0  0  0  0  0  0  0  0  0  0  0  0
  -12.8086   37.1612    8.7329 C   0  0  0  0  0  0  0  0  0  0  0  0
  -12.9629   36.1667    9.7010 C   0  0  0  0  0  0  0  0  0  0  0  0
  -14.1484   35.5706    9.9204 C   0  0  0  0  0  0  0  0  0  0  0  0
  -14.4624   34.6012   10.8292 O   0  0  0  0  0  0  0  0  0  0  0  0
  -15.7254   34.0692   10.3429 C   0  0  0  0  0  0  0  0  0  0  0  0
  -16.3140   35.1850    9.6637 O   0  0  0  0  0  0  0  0  0  0  0  0
  -15.2404   35.9216    9.2414 C   0  0  0  0  0  0  0  0  0  0  0  0
  -15.1756   36.8823    8.3046 C   0  0  0  0  0  0  0  0  0  0  0  0
  -13.9687   37.5277    8.0386 C   0  0  0  0  0  0  0  0  0  0  0  0
  1  2  2  0  0  0
  2  3  1  0  0  0
  2 12  1  0  0  0
  3  4  1  0  0  0
  4  5  1  0  0  0
  4 11  2  0  0  0
  5  6  2  0  0  0
  6  7  1  0  0  0
  7  8  1  0  0  0
  7  9  2  0  0  0
  9 10  1  0  0  0
  9 11  1  0  0  0
 11 12  1  0  0  0
 12 13  1  0  0  0
 12 16  1  0  0  0
 16 17  1  0  0  0
 17 18  2  0  0  0
 17 19  1  0  0  0
 19 20  1  0  0  0
 19 27  2  0  0  0
 20 21  2  0  0  0
 21 22  1  0  0  0
 21 25  1  0  0  0
 22 23  1  0  0  0
 23 24  1  0  0  0
 24 25  1  0  0  0
 25 26  2  0  0  0
 26 27  1  0  0  0
  3 14  1  0  0  0
 13 15  1  0  0  0
M  END
> <minimizedAffinity>
-7.93041

$$$$
4BQH_9VU_A_1539


 27 30  0  0  0  0  0  0  0  0999 V2000
  -11.0434   37.4638    6.5644 O   0  0  0  0  0  0  0  0  0  0  0  0
  -11.6930   36.8810    7.4545 C   0  0  0  0  0  0  0  0  0  0  0  0
  -12.9389   36.4281    7.2924 N   0  0  0  0  0  0  0  0  0  0  0  0
  -13.3612   35.8796    8.4642 C   0  0  0  0  0  0  0  0  0  0  0  0
  -14.5467   35.3321    8.7511 C   0  0  0  0  0  0  0  0  0  0  0  0
  -14.8636   34.8272   10.0222 C   0  0  0  0  0  0  0  0  0  0  0  0
  -13.8873   34.9264   11.0210 C   0  0  0  0  0  0  0  0  0  0  0  0
  -14.1646   34.4289   12.3395 C   0  0  0  0  0  0  0  0  0  0  0  0
  -12.6514   35.5145   10.6692 C   0  0  0  0  0  0  0  0  0  0  0  0
  -11.3311   35.5693   12.0337 Br  0  0  0  0  0  0  0  0  0  0  0  0
  -12.3912   35.9809    9.4158 C   0  0  0  0  0  0  0  0  0  0  0  0
  -11.2719   36.6373    8.7911 C   0  0  0  0  0  0  0  0  0  0  0  0
  -11.0719   37.9244    9.3816 O   0  0  0  0  0  0  0  0  0  0  0  0
  -13.4651   36.4820    6.4620 H   0  0  0  0  0  0  0  0  0  0  0  0
  -11.8943   38.4361    9.3280 H   0  0  0  0  0  0  0  0  0  0  0  0
   -9.9002   35.9257    8.9386 C   0  0  0  0  0  0  0  0  0  0  0  0
   -8.7042   36.8962    9.0243 C   0  0  0  0  0  0  0  0  0  0  0  0
   -8.3011   37.4161    7.9729 O   0  0  0  0  0  0  0  0  0  0  0  0
   -8.1630   37.1832   10.3127 C   0  0  0  0  0  0  0  0  0  0  0  0
   -7.8290   38.4758   10.7223 C   0  0  0  0  0  0  0  0  0  0  0  0
   -7.3095   38.7204   11.9385 C   0  0  0  0  0  0  0  0  0  0  0  0
   -6.9464   39.9165   12.4879 O   0  0  0  0  0  0  0  0  0  0  0  0
   -6.0948   39.5384   13.6043 C   0  0  0  0  0  0  0  0  0  0  0  0
   -6.5985   38.2515   13.9828 O   0  0  0  0  0  0  0  0  0  0  0  0
   -7.1145   37.7416   12.8221 C   0  0  0  0  0  0  0  0  0  0  0  0
   -7.4265   36.4735   12.5075 C   0  0  0  0  0  0  0  0  0  0  0  0
   -7.9649   36.1688   11.2581 C   0  0  0  0  0  0  0  0  0  0  0  0
  1  2  2  0  0  0
  2  3  1  0  0  0
  2 12  1  0  0  0
  3  4  1  0  0  0
  4  5  1  0  0  0
  4 11  2  0  0  0
  5  6  2  0  0  0
  6  7  1  0  0  0
  7  8  1  0  0  0
  7  9  2  0  0  0
  9 10  1  0  0  0
  9 11  1  0  0  0
 11 12  1  0  0  0
 12 13  1  0  0  0
 12 16  1  0  0  0
 16 17  1  0  0  0
 17 18  2  0  0  0
 17 19  1  0  0  0
 19 20  1  0  0  0
 19 27  2  0  0  0
 20 21  2  0  0  0
 21 22  1  0  0  0
 21 25  1  0  0  0
 22 23  1  0  0  0
 23 24  1  0  0  0
 24 25  1  0  0  0
 25 26  2  0  0  0
 26 27  1  0  0  0
  3 14  1  0  0  0
 13 15  1  0  0  0
M  END
> <minimizedAffinity>
-7.74578

$$$$
4BQH_9VU_A_1539


 27 30  0  0  0  0  0  0  0  0999 V2000
   -8.5600   38.5953    6.3938 O   0  0  0  0  0  0  0  0  0  0  0  0
   -9.5047   37.7833    6.4391 C   0  0  0  0  0  0  0  0  0  0  0  0
   -9.7799   36.9055    5.4708 N   0  0  0  0  0  0  0  0  0  0  0  0
  -10.8898   36.2004    5.8219 C   0  0  0  0  0  0  0  0  0  0  0  0
  -11.5223   35.2422    5.1368 C   0  0  0  0  0  0  0  0  0  0  0  0
  -12.6862   34.6133    5.6066 C   0  0  0  0  0  0  0  0  0  0  0  0
  -13.1978   35.0345    6.8401 C   0  0  0  0  0  0  0  0  0  0  0  0
  -14.3893   34.4256    7.3621 C   0  0  0  0  0  0  0  0  0  0  0  0
  -12.4948   36.0513    7.5251 C   0  0  0  0  0  0  0  0  0  0  0  0
  -13.1834   36.5470    9.2245 Br  0  0  0  0  0  0  0  0  0  0  0  0
  -11.3623   36.6228    7.0281 C   0  0  0  0  0  0  0  0  0  0  0  0
  -10.4770   37.6688    7.4710 C   0  0  0  0  0  0  0  0  0  0  0  0
  -11.1738   38.9174    7.4954 O   0  0  0  0  0  0  0  0  0  0  0  0
   -9.2649   36.7879    4.6401 H   0  0  0  0  0  0  0  0  0  0  0  0
  -11.5618   39.0883    6.6229 H   0  0  0  0  0  0  0  0  0  0  0  0
   -9.9093   37.5134    8.9074 C   0  0  0  0  0  0  0  0  0  0  0  0
   -9.2564   38.7977    9.4585 C   0  0  0  0  0  0  0  0  0  0  0  0
   -9.5306   39.8729    8.9042 O   0  0  0  0  0  0  0  0  0  0  0  0
   -8.4172   38.6853   10.6065 C   0  0  0  0  0  0  0  0  0  0  0  0
   -7.9353   39.7955   11.3033 C   0  0  0  0  0  0  0  0  0  0  0  0
   -7.1358   39.6646   12.3769 C   0  0  0  0  0  0  0  0  0  0  0  0
   -6.5978   40.6406   13.1658 O   0  0  0  0  0  0  0  0  0  0  0  0
   -5.5290   39.9580   13.8774 C   0  0  0  0  0  0  0  0  0  0  0  0
   -5.9922   38.6040   13.9489 O   0  0  0  0  0  0  0  0  0  0  0  0
   -6.7880   38.4656   12.8439 C   0  0  0  0  0  0  0  0  0  0  0  0
   -7.2252   37.3497   12.2372 C   0  0  0  0  0  0  0  0  0  0  0  0
   -8.0536   37.4334   11.1189 C   0  0  0  0  0  0  0  0  0  0  0  0
  1  2  2  0  0  0
  2  3  1  0  0  0
  2 12  1  0  0  0
  3  4  1  0  0  0
  4  5  1  0  0  0
  4 11  2  0  0  0
  5  6  2  0  0  0
  6  7  1  0  0  0
  7  8  1  0  0  0
  7  9  2  0  0  0
  9 10  1  0  0  0
  9 11  1  0  0  0
 11 12  1  0  0  0
 12 13  1  0  0  0
 12 16  1  0  0  0
 16 17  1  0  0  0
 17 18  2  0  0  0
 17 19  1  0  0  0
 19 20  1  0  0  0
 19 27  2  0  0  0
 20 21  2  0  0  0
 21 22  1  0  0  0
 21 25  1  0  0  0
 22 23  1  0  0  0
 23 24  1  0  0  0
 24 25  1  0  0  0
 25 26  2  0  0  0
 26 27  1  0  0  0
  3 14  1  0  0  0
 13 15  1  0  0  0
M  END
> <minimizedAffinity>
-7.69460

$$$$
