4ISU_IKM_A_301


 24 26  0  0  0  0  0  0  0  0999 V2000
  -11.0075   28.0144    6.0469 C   0  0  0  0  0  0  0  0  0  0  0  0
  -10.0751   26.7706    4.0807 C   0  0  0  0  0  0  0  0  0  0  0  0
  -10.6276   26.7670    5.3073 C   0  0  0  0  0  0  0  0  0  0  0  0
  -10.4737   29.2913    3.9605 C   0  0  0  0  0  0  0  0  0  0  0  0
   -9.8108   28.0458    3.3359 C   0  0  0  0  0  0  0  0  0  0  0  0
   -8.4026   28.3166    3.3558 O   0  0  0  0  0  0  0  0  0  0  0  0
   -9.4389   30.5526    1.1031 N   0  0  0  0  0  0  0  0  0  0  0  0
   -8.2358   29.8092    1.4669 C   0  0  0  0  0  0  0  0  0  0  0  0
   -8.2703   29.7193    3.0217 C   0  0  0  0  0  0  0  0  0  0  0  0
   -9.5883   30.4166    3.4424 C   0  0  0  0  0  0  0  0  0  0  0  0
  -10.2225   30.9114    2.1638 C   0  0  0  0  0  0  0  0  0  0  0  0
  -11.2772   31.5452    2.0774 O   0  0  0  0  0  0  0  0  0  0  0  0
  -10.4116   29.2257    5.4516 N   0  0  0  0  0  0  0  0  0  0  0  0
   -9.6666   30.7765    0.1718 H   0  0  0  0  0  0  0  0  0  0  0  0
   -9.4311   29.2656    5.7296 H   0  0  0  0  0  0  0  0  0  0  0  0
   -6.9566   30.4775    0.8900 C   0  0  0  0  0  0  0  0  0  0  0  0
   -6.9858   31.7325    0.7377 O   0  0  0  0  0  0  0  0  0  0  0  0
   -6.0131   29.6953    0.6127 O   0  0  0  0  0  0  0  0  0  0  0  0
   -7.7501   32.2165    0.9819 H   0  0  0  0  0  0  0  0  0  0  0  0
   -6.9954   30.1988    3.7156 C   0  0  0  0  0  0  0  0  0  0  0  0
   -7.0413   31.5416    4.4164 C   0  0  0  0  0  0  0  0  0  0  0  0
   -6.9591   32.5641    3.6880 O   0  0  0  0  0  0  0  0  0  0  0  0
   -7.1651   31.5204    5.6678 O   0  0  0  0  0  0  0  0  0  0  0  0
   -6.8683   32.4722    2.7600 H   0  0  0  0  0  0  0  0  0  0  0  0
  1 13  1  0  0  0
  1  3  1  0  0  0
 13  4  1  0  0  0
  3  2  2  0  0  0
  4 10  1  0  0  0
  4  5  1  0  0  0
  2  5  1  0  0  0
 23 21  2  0  0  0
 12 11  2  0  0  0
 10 11  1  0  0  0
 10  9  1  0  0  0
  5  6  1  0  0  0
 11  7  1  0  0  0
 21 22  1  0  0  0
 21 20  1  0  0  0
  6  9  1  0  0  0
  9 20  1  0  0  0
  9  8  1  0  0  0
  7  8  1  0  0  0
  8 16  1  0  0  0
 16 18  2  0  0  0
 16 17  1  0  0  0
  7 14  1  0  0  0
 17 19  1  0  0  0
 22 24  1  0  0  0
 13 15  1  0  0  0
M  END
> <minimizedAffinity>
-7.40524

$$$$
4ISU_IKM_A_301


 24 26  0  0  0  0  0  0  0  0999 V2000
   -8.6043   25.3061    4.6141 C   0  0  0  0  0  0  0  0  0  0  0  0
  -10.7330   26.5108    4.0664 C   0  0  0  0  0  0  0  0  0  0  0  0
  -10.0910   25.3892    4.4403 C   0  0  0  0  0  0  0  0  0  0  0  0
   -8.5295   27.7862    4.2793 C   0  0  0  0  0  0  0  0  0  0  0  0
   -9.9993   27.7941    3.8099 C   0  0  0  0  0  0  0  0  0  0  0  0
   -9.9437   28.0273    2.3959 O   0  0  0  0  0  0  0  0  0  0  0  0
   -8.8946   30.9759    3.5591 N   0  0  0  0  0  0  0  0  0  0  0  0
   -9.5387   30.4062    2.3788 C   0  0  0  0  0  0  0  0  0  0  0  0
   -8.8897   29.0011    2.2024 C   0  0  0  0  0  0  0  0  0  0  0  0
   -7.9056   28.8531    3.3898 C   0  0  0  0  0  0  0  0  0  0  0  0
   -7.9814   30.1527    4.1560 C   0  0  0  0  0  0  0  0  0  0  0  0
   -7.3243   30.4403    5.1595 O   0  0  0  0  0  0  0  0  0  0  0  0
   -7.9020   26.4567    4.0145 N   0  0  0  0  0  0  0  0  0  0  0  0
   -9.1009   31.8774    3.8966 H   0  0  0  0  0  0  0  0  0  0  0  0
   -7.8705   26.3171    3.0045 H   0  0  0  0  0  0  0  0  0  0  0  0
   -9.3952   31.3400    1.1447 C   0  0  0  0  0  0  0  0  0  0  0  0
  -10.3323   31.3147    0.2960 O   0  0  0  0  0  0  0  0  0  0  0  0
   -8.3427   32.0251    1.1014 O   0  0  0  0  0  0  0  0  0  0  0  0
  -11.0749   30.7602    0.4344 H   0  0  0  0  0  0  0  0  0  0  0  0
   -8.3201   28.7333    0.8093 C   0  0  0  0  0  0  0  0  0  0  0  0
   -9.1647   27.9177   -0.1486 C   0  0  0  0  0  0  0  0  0  0  0  0
   -9.0264   26.6681   -0.1032 O   0  0  0  0  0  0  0  0  0  0  0  0
   -9.9389   28.5594   -0.9040 O   0  0  0  0  0  0  0  0  0  0  0  0
   -8.4190   26.2855    0.4990 H   0  0  0  0  0  0  0  0  0  0  0  0
  1 13  1  0  0  0
  1  3  1  0  0  0
 13  4  1  0  0  0
  3  2  2  0  0  0
  4 10  1  0  0  0
  4  5  1  0  0  0
  2  5  1  0  0  0
 23 21  2  0  0  0
 12 11  2  0  0  0
 10 11  1  0  0  0
 10  9  1  0  0  0
  5  6  1  0  0  0
 11  7  1  0  0  0
 21 22  1  0  0  0
 21 20  1  0  0  0
  6  9  1  0  0  0
  9 20  1  0  0  0
  9  8  1  0  0  0
  7  8  1  0  0  0
  8 16  1  0  0  0
 16 18  2  0  0  0
 16 17  1  0  0  0
  7 14  1  0  0  0
 17 19  1  0  0  0
 22 24  1  0  0  0
 13 15  1  0  0  0
M  END
> <minimizedAffinity>
-7.19779

$$$$
4ISU_IKM_A_301


 24 26  0  0  0  0  0  0  0  0999 V2000
   -6.9936   28.1101   -2.3412 C   0  0  0  0  0  0  0  0  0  0  0  0
   -9.2115   27.6237   -1.2797 C   0  0  0  0  0  0  0  0  0  0  0  0
   -8.4261   27.6691   -2.3710 C   0  0  0  0  0  0  0  0  0  0  0  0
   -7.1660   28.1544    0.1562 C   0  0  0  0  0  0  0  0  0  0  0  0
   -8.6992   27.9980    0.0798 C   0  0  0  0  0  0  0  0  0  0  0  0
   -9.2288   29.2802    0.4433 O   0  0  0  0  0  0  0  0  0  0  0  0
   -7.9262   28.2919    3.3545 N   0  0  0  0  0  0  0  0  0  0  0  0
   -8.9670   29.1779    2.8401 C   0  0  0  0  0  0  0  0  0  0  0  0
   -8.3852   29.7604    1.5177 C   0  0  0  0  0  0  0  0  0  0  0  0
   -7.0003   29.0868    1.3486 C   0  0  0  0  0  0  0  0  0  0  0  0
   -6.8157   28.2070    2.5625 C   0  0  0  0  0  0  0  0  0  0  0  0
   -5.8224   27.5202    2.8140 O   0  0  0  0  0  0  0  0  0  0  0  0
   -6.6427   28.8000   -1.0851 N   0  0  0  0  0  0  0  0  0  0  0  0
   -8.0170   27.7973    4.2008 H   0  0  0  0  0  0  0  0  0  0  0  0
   -7.0155   29.7484   -1.1300 H   0  0  0  0  0  0  0  0  0  0  0  0
   -9.3737   30.2491    3.8902 C   0  0  0  0  0  0  0  0  0  0  0  0
   -8.5142   30.5435    4.7697 O   0  0  0  0  0  0  0  0  0  0  0  0
  -10.5359   30.7120    3.7716 O   0  0  0  0  0  0  0  0  0  0  0  0
   -7.6729   30.1311    4.7593 H   0  0  0  0  0  0  0  0  0  0  0  0
   -8.4153   31.2860    1.4265 C   0  0  0  0  0  0  0  0  0  0  0  0
   -7.1149   32.0281    1.6598 C   0  0  0  0  0  0  0  0  0  0  0  0
   -6.7946   32.2480    2.8564 O   0  0  0  0  0  0  0  0  0  0  0  0
   -6.4612   32.3555    0.6364 O   0  0  0  0  0  0  0  0  0  0  0  0
   -7.3539   31.9615    3.5513 H   0  0  0  0  0  0  0  0  0  0  0  0
  1 13  1  0  0  0
  1  3  1  0  0  0
 13  4  1  0  0  0
  3  2  2  0  0  0
  4 10  1  0  0  0
  4  5  1  0  0  0
  2  5  1  0  0  0
 23 21  2  0  0  0
 12 11  2  0  0  0
 10 11  1  0  0  0
 10  9  1  0  0  0
  5  6  1  0  0  0
 11  7  1  0  0  0
 21 22  1  0  0  0
 21 20  1  0  0  0
  6  9  1  0  0  0
  9 20  1  0  0  0
  9  8  1  0  0  0
  7  8  1  0  0  0
  8 16  1  0  0  0
 16 18  2  0  0  0
 16 17  1  0  0  0
  7 14  1  0  0  0
 17 19  1  0  0  0
 22 24  1  0  0  0
 13 15  1  0  0  0
M  END
> <minimizedAffinity>
-7.09998

$$$$
4ISU_IKM_A_301


 24 26  0  0  0  0  0  0  0  0999 V2000
   -4.5525   32.2877    0.3983 C   0  0  0  0  0  0  0  0  0  0  0  0
   -4.6220   29.8101    0.7721 C   0  0  0  0  0  0  0  0  0  0  0  0
   -4.0909   30.8820    0.1566 C   0  0  0  0  0  0  0  0  0  0  0  0
   -5.9820   31.3912    2.2480 C   0  0  0  0  0  0  0  0  0  0  0  0
   -5.7235   29.9431    1.7820 C   0  0  0  0  0  0  0  0  0  0  0  0
   -6.9561   29.5102    1.1904 O   0  0  0  0  0  0  0  0  0  0  0  0
   -7.8490   29.7441    4.3992 N   0  0  0  0  0  0  0  0  0  0  0  0
   -8.2327   29.0339    3.1822 C   0  0  0  0  0  0  0  0  0  0  0  0
   -8.0035   30.0553    2.0285 C   0  0  0  0  0  0  0  0  0  0  0  0
   -7.4308   31.3223    2.7118 C   0  0  0  0  0  0  0  0  0  0  0  0
   -7.3968   31.0168    4.1907 C   0  0  0  0  0  0  0  0  0  0  0  0
   -7.0273   31.7872    5.0804 O   0  0  0  0  0  0  0  0  0  0  0  0
   -5.8473   32.3418    1.1037 N   0  0  0  0  0  0  0  0  0  0  0  0
   -7.9110   29.3399    5.2948 H   0  0  0  0  0  0  0  0  0  0  0  0
   -6.5838   32.1324    0.4298 H   0  0  0  0  0  0  0  0  0  0  0  0
   -9.6837   28.4851    3.2760 C   0  0  0  0  0  0  0  0  0  0  0  0
   -9.9327   27.4156    2.6488 O   0  0  0  0  0  0  0  0  0  0  0  0
  -10.4817   29.1736    3.9603 O   0  0  0  0  0  0  0  0  0  0  0  0
   -9.2531   26.9853    2.1682 H   0  0  0  0  0  0  0  0  0  0  0  0
   -9.2099   30.2626    1.1129 C   0  0  0  0  0  0  0  0  0  0  0  0
   -9.9748   31.5641    1.2449 C   0  0  0  0  0  0  0  0  0  0  0  0
  -10.9228   31.5830    2.0718 O   0  0  0  0  0  0  0  0  0  0  0  0
   -9.5921   32.5187    0.5211 O   0  0  0  0  0  0  0  0  0  0  0  0
  -11.1294   30.8138    2.5653 H   0  0  0  0  0  0  0  0  0  0  0  0
  1 13  1  0  0  0
  1  3  1  0  0  0
 13  4  1  0  0  0
  3  2  2  0  0  0
  4 10  1  0  0  0
  4  5  1  0  0  0
  2  5  1  0  0  0
 23 21  2  0  0  0
 12 11  2  0  0  0
 10 11  1  0  0  0
 10  9  1  0  0  0
  5  6  1  0  0  0
 11  7  1  0  0  0
 21 22  1  0  0  0
 21 20  1  0  0  0
  6  9  1  0  0  0
  9 20  1  0  0  0
  9  8  1  0  0  0
  7  8  1  0  0  0
  8 16  1  0  0  0
 16 18  2  0  0  0
 16 17  1  0  0  0
  7 14  1  0  0  0
 17 19  1  0  0  0
 22 24  1  0  0  0
 13 15  1  0  0  0
M  END
> <minimizedAffinity>
-6.93474

$$$$
4ISU_IKM_A_301


 24 26  0  0  0  0  0  0  0  0999 V2000
   -8.5472   26.0808    3.8369 C   0  0  0  0  0  0  0  0  0  0  0  0
   -6.1177   26.6911    3.7493 C   0  0  0  0  0  0  0  0  0  0  0  0
   -7.1143   25.9427    4.2556 C   0  0  0  0  0  0  0  0  0  0  0  0
   -7.7673   27.6551    2.0532 C   0  0  0  0  0  0  0  0  0  0  0  0
   -6.3646   27.7266    2.6921 C   0  0  0  0  0  0  0  0  0  0  0  0
   -6.2849   29.0299    3.2853 O   0  0  0  0  0  0  0  0  0  0  0  0
   -6.3194   29.8188    0.0411 N   0  0  0  0  0  0  0  0  0  0  0  0
   -5.8617   30.3611    1.3174 C   0  0  0  0  0  0  0  0  0  0  0  0
   -6.9400   29.9234    2.3530 C   0  0  0  0  0  0  0  0  0  0  0  0
   -7.9601   29.0790    1.5490 C   0  0  0  0  0  0  0  0  0  0  0  0
   -7.4788   29.0992    0.1173 C   0  0  0  0  0  0  0  0  0  0  0  0
   -8.0374   28.5605   -0.8415 O   0  0  0  0  0  0  0  0  0  0  0  0
   -8.7965   27.3250    3.0843 N   0  0  0  0  0  0  0  0  0  0  0  0
   -5.8336   29.9598   -0.8035 H   0  0  0  0  0  0  0  0  0  0  0  0
   -8.8353   28.0960    3.7510 H   0  0  0  0  0  0  0  0  0  0  0  0
   -5.6347   31.8965    1.2358 C   0  0  0  0  0  0  0  0  0  0  0  0
   -4.6496   32.3641    1.8761 O   0  0  0  0  0  0  0  0  0  0  0  0
   -6.4708   32.5333    0.5470 O   0  0  0  0  0  0  0  0  0  0  0  0
   -4.0890   31.7891    2.3588 H   0  0  0  0  0  0  0  0  0  0  0  0
   -7.5137   31.0631    3.1949 C   0  0  0  0  0  0  0  0  0  0  0  0
   -7.7542   30.7950    4.6668 C   0  0  0  0  0  0  0  0  0  0  0  0
   -8.4216   29.7680    4.9542 O   0  0  0  0  0  0  0  0  0  0  0  0
   -7.2594   31.6189    5.4780 O   0  0  0  0  0  0  0  0  0  0  0  0
   -8.7481   29.2152    4.2717 H   0  0  0  0  0  0  0  0  0  0  0  0
  1 13  1  0  0  0
  1  3  1  0  0  0
 13  4  1  0  0  0
  3  2  2  0  0  0
  4 10  1  0  0  0
  4  5  1  0  0  0
  2  5  1  0  0  0
 23 21  2  0  0  0
 12 11  2  0  0  0
 10 11  1  0  0  0
 10  9  1  0  0  0
  5  6  1  0  0  0
 11  7  1  0  0  0
 21 22  1  0  0  0
 21 20  1  0  0  0
  6  9  1  0  0  0
  9 20  1  0  0  0
  9  8  1  0  0  0
  7  8  1  0  0  0
  8 16  1  0  0  0
 16 18  2  0  0  0
 16 17  1  0  0  0
  7 14  1  0  0  0
 17 19  1  0  0  0
 22 24  1  0  0  0
 13 15  1  0  0  0
M  END
> <minimizedAffinity>
-6.88636

$$$$
4ISU_IKM_A_301


 24 26  0  0  0  0  0  0  0  0999 V2000
   -9.1721   27.0887    5.0895 C   0  0  0  0  0  0  0  0  0  0  0  0
  -10.0956   28.3743    3.1460 C   0  0  0  0  0  0  0  0  0  0  0  0
  -10.1581   27.3247    3.9852 C   0  0  0  0  0  0  0  0  0  0  0  0
   -8.2087   29.3409    4.5717 C   0  0  0  0  0  0  0  0  0  0  0  0
   -9.0268   29.4203    3.2658 C   0  0  0  0  0  0  0  0  0  0  0  0
   -8.0731   29.2385    2.2102 O   0  0  0  0  0  0  0  0  0  0  0  0
   -7.1421   32.2202    3.3893 N   0  0  0  0  0  0  0  0  0  0  0  0
   -7.0812   31.4378    2.1578 C   0  0  0  0  0  0  0  0  0  0  0  0
   -6.8902   29.9638    2.6241 C   0  0  0  0  0  0  0  0  0  0  0  0
   -6.9052   30.0194    4.1723 C   0  0  0  0  0  0  0  0  0  0  0  0
   -7.0496   31.4789    4.5337 C   0  0  0  0  0  0  0  0  0  0  0  0
   -7.0754   31.9422    5.6766 O   0  0  0  0  0  0  0  0  0  0  0  0
   -7.9593   27.9170    4.9481 N   0  0  0  0  0  0  0  0  0  0  0  0
   -7.2414   33.1997    3.3947 H   0  0  0  0  0  0  0  0  0  0  0  0
   -7.3716   27.4974    4.2277 H   0  0  0  0  0  0  0  0  0  0  0  0
   -5.9695   31.9598    1.2052 C   0  0  0  0  0  0  0  0  0  0  0  0
   -5.1039   32.7338    1.7059 O   0  0  0  0  0  0  0  0  0  0  0  0
   -6.0490   31.5706    0.0130 O   0  0  0  0  0  0  0  0  0  0  0  0
   -5.1445   32.9564    2.6152 H   0  0  0  0  0  0  0  0  0  0  0  0
   -5.7068   29.2408    1.9808 C   0  0  0  0  0  0  0  0  0  0  0  0
   -6.0113   28.2134    0.9094 C   0  0  0  0  0  0  0  0  0  0  0  0
   -6.4439   28.6502   -0.1882 O   0  0  0  0  0  0  0  0  0  0  0  0
   -5.7987   27.0098    1.2059 O   0  0  0  0  0  0  0  0  0  0  0  0
   -6.5687   29.5709   -0.3096 H   0  0  0  0  0  0  0  0  0  0  0  0
  1 13  1  0  0  0
  1  3  1  0  0  0
 13  4  1  0  0  0
  3  2  2  0  0  0
  4 10  1  0  0  0
  4  5  1  0  0  0
  2  5  1  0  0  0
 23 21  2  0  0  0
 12 11  2  0  0  0
 10 11  1  0  0  0
 10  9  1  0  0  0
  5  6  1  0  0  0
 11  7  1  0  0  0
 21 22  1  0  0  0
 21 20  1  0  0  0
  6  9  1  0  0  0
  9 20  1  0  0  0
  9  8  1  0  0  0
  7  8  1  0  0  0
  8 16  1  0  0  0
 16 18  2  0  0  0
 16 17  1  0  0  0
  7 14  1  0  0  0
 17 19  1  0  0  0
 22 24  1  0  0  0
 13 15  1  0  0  0
M  END
> <minimizedAffinity>
-6.86172

$$$$
4ISU_IKM_A_301


 24 26  0  0  0  0  0  0  0  0999 V2000
   -8.2848   27.0808    2.4428 C   0  0  0  0  0  0  0  0  0  0  0  0
   -8.8032   28.5056    0.4468 C   0  0  0  0  0  0  0  0  0  0  0  0
   -8.9787   27.3695    1.1456 C   0  0  0  0  0  0  0  0  0  0  0  0
   -7.4317   29.4341    2.3921 C   0  0  0  0  0  0  0  0  0  0  0  0
   -7.8988   29.6004    0.9309 C   0  0  0  0  0  0  0  0  0  0  0  0
   -6.6979   29.5968    0.1470 O   0  0  0  0  0  0  0  0  0  0  0  0
   -6.3692   32.4882    1.7840 N   0  0  0  0  0  0  0  0  0  0  0  0
   -5.9295   31.8492    0.5467 C   0  0  0  0  0  0  0  0  0  0  0  0
   -5.7283   30.3492    0.9154 C   0  0  0  0  0  0  0  0  0  0  0  0
   -6.1372   30.2359    2.4054 C   0  0  0  0  0  0  0  0  0  0  0  0
   -6.5003   31.6352    2.8437 C   0  0  0  0  0  0  0  0  0  0  0  0
   -6.8548   31.9694    3.9769 O   0  0  0  0  0  0  0  0  0  0  0  0
   -7.1562   27.9973    2.6939 N   0  0  0  0  0  0  0  0  0  0  0  0
   -6.5556   33.4527    1.8494 H   0  0  0  0  0  0  0  0  0  0  0  0
   -6.3705   27.6976    2.1166 H   0  0  0  0  0  0  0  0  0  0  0  0
   -4.6664   32.5431   -0.0354 C   0  0  0  0  0  0  0  0  0  0  0  0
   -4.5249   32.5132   -1.2917 O   0  0  0  0  0  0  0  0  0  0  0  0
   -3.8916   33.0579    0.8093 O   0  0  0  0  0  0  0  0  0  0  0  0
   -5.1726   32.0979   -1.8264 H   0  0  0  0  0  0  0  0  0  0  0  0
   -4.3603   29.7793    0.5402 C   0  0  0  0  0  0  0  0  0  0  0  0
   -4.2664   28.9623   -0.7325 C   0  0  0  0  0  0  0  0  0  0  0  0
   -4.6056   29.5350   -1.8001 O   0  0  0  0  0  0  0  0  0  0  0  0
   -3.8499   27.7814   -0.6148 O   0  0  0  0  0  0  0  0  0  0  0  0
   -4.9042   30.4229   -1.7809 H   0  0  0  0  0  0  0  0  0  0  0  0
  1 13  1  0  0  0
  1  3  1  0  0  0
 13  4  1  0  0  0
  3  2  2  0  0  0
  4 10  1  0  0  0
  4  5  1  0  0  0
  2  5  1  0  0  0
 23 21  2  0  0  0
 12 11  2  0  0  0
 10 11  1  0  0  0
 10  9  1  0  0  0
  5  6  1  0  0  0
 11  7  1  0  0  0
 21 22  1  0  0  0
 21 20  1  0  0  0
  6  9  1  0  0  0
  9 20  1  0  0  0
  9  8  1  0  0  0
  7  8  1  0  0  0
  8 16  1  0  0  0
 16 18  2  0  0  0
 16 17  1  0  0  0
  7 14  1  0  0  0
 17 19  1  0  0  0
 22 24  1  0  0  0
 13 15  1  0  0  0
M  END
> <minimizedAffinity>
-6.76260

$$$$
4ISU_IKM_A_301


 24 26  0  0  0  0  0  0  0  0999 V2000
   -4.8973   28.8400   -1.3033 C   0  0  0  0  0  0  0  0  0  0  0  0
   -4.4128   28.3678    1.1103 C   0  0  0  0  0  0  0  0  0  0  0  0
   -4.1270   28.1917   -0.1925 C   0  0  0  0  0  0  0  0  0  0  0  0
   -6.1176   30.1511    0.4461 C   0  0  0  0  0  0  0  0  0  0  0  0
   -5.5321   29.2595    1.5610 C   0  0  0  0  0  0  0  0  0  0  0  0
   -6.6258   28.4478    2.0099 O   0  0  0  0  0  0  0  0  0  0  0  0
   -7.6000   31.4579    3.0768 N   0  0  0  0  0  0  0  0  0  0  0  0
   -7.7942   30.0451    3.3910 C   0  0  0  0  0  0  0  0  0  0  0  0
   -7.7825   29.3189    2.0129 C   0  0  0  0  0  0  0  0  0  0  0  0
   -7.5209   30.4312    0.9667 C   0  0  0  0  0  0  0  0  0  0  0  0
   -7.4428   31.7232    1.7454 C   0  0  0  0  0  0  0  0  0  0  0  0
   -7.2707   32.8471    1.2670 O   0  0  0  0  0  0  0  0  0  0  0  0
   -6.1821   29.4017   -0.8445 N   0  0  0  0  0  0  0  0  0  0  0  0
   -7.5837   32.1604    3.7663 H   0  0  0  0  0  0  0  0  0  0  0  0
   -6.8416   28.6319   -0.7310 H   0  0  0  0  0  0  0  0  0  0  0  0
   -9.0856   29.8190    4.2257 C   0  0  0  0  0  0  0  0  0  0  0  0
  -10.0509   30.6072    4.0111 O   0  0  0  0  0  0  0  0  0  0  0  0
   -9.0390   28.8747    5.0535 O   0  0  0  0  0  0  0  0  0  0  0  0
   -9.9715   31.2798    3.3636 H   0  0  0  0  0  0  0  0  0  0  0  0
   -8.9897   28.4162    1.7587 C   0  0  0  0  0  0  0  0  0  0  0  0
   -9.0384   27.6644    0.4439 C   0  0  0  0  0  0  0  0  0  0  0  0
   -8.0668   26.9075    0.1874 O   0  0  0  0  0  0  0  0  0  0  0  0
  -10.0509   27.8553   -0.2774 O   0  0  0  0  0  0  0  0  0  0  0  0
   -7.3566   26.8348    0.7944 H   0  0  0  0  0  0  0  0  0  0  0  0
  1 13  1  0  0  0
  1  3  1  0  0  0
 13  4  1  0  0  0
  3  2  2  0  0  0
  4 10  1  0  0  0
  4  5  1  0  0  0
  2  5  1  0  0  0
 23 21  2  0  0  0
 12 11  2  0  0  0
 10 11  1  0  0  0
 10  9  1  0  0  0
  5  6  1  0  0  0
 11  7  1  0  0  0
 21 22  1  0  0  0
 21 20  1  0  0  0
  6  9  1  0  0  0
  9 20  1  0  0  0
  9  8  1  0  0  0
  7  8  1  0  0  0
  8 16  1  0  0  0
 16 18  2  0  0  0
 16 17  1  0  0  0
  7 14  1  0  0  0
 17 19  1  0  0  0
 22 24  1  0  0  0
 13 15  1  0  0  0
M  END
> <minimizedAffinity>
-6.72644

$$$$
4ISU_IKM_A_301


 24 26  0  0  0  0  0  0  0  0999 V2000
   -7.4233   32.3294    1.0235 C   0  0  0  0  0  0  0  0  0  0  0  0
   -5.6390   30.8142    1.9195 C   0  0  0  0  0  0  0  0  0  0  0  0
   -6.0003   31.8923    1.2006 C   0  0  0  0  0  0  0  0  0  0  0  0
   -8.0611   30.5808    2.6981 C   0  0  0  0  0  0  0  0  0  0  0  0
   -6.6492   29.9622    2.6297 C   0  0  0  0  0  0  0  0  0  0  0  0
   -6.8101   28.7305    1.9129 O   0  0  0  0  0  0  0  0  0  0  0  0
   -8.4432   28.0287    4.7393 N   0  0  0  0  0  0  0  0  0  0  0  0
   -7.7347   27.3462    3.6600 C   0  0  0  0  0  0  0  0  0  0  0  0
   -8.0610   28.1690    2.3782 C   0  0  0  0  0  0  0  0  0  0  0  0
   -8.9407   29.3487    2.8624 C   0  0  0  0  0  0  0  0  0  0  0  0
   -9.1264   29.1456    4.3477 C   0  0  0  0  0  0  0  0  0  0  0  0
   -9.7917   29.8634    5.0985 O   0  0  0  0  0  0  0  0  0  0  0  0
   -8.3868   31.2855    1.4218 N   0  0  0  0  0  0  0  0  0  0  0  0
   -8.4298   27.7108    5.6710 H   0  0  0  0  0  0  0  0  0  0  0  0
   -8.4255   30.5896    0.6770 H   0  0  0  0  0  0  0  0  0  0  0  0
   -8.1300   25.8453    3.5784 C   0  0  0  0  0  0  0  0  0  0  0  0
   -9.2742   25.5304    4.0151 O   0  0  0  0  0  0  0  0  0  0  0  0
   -7.2583   25.0795    3.0959 O   0  0  0  0  0  0  0  0  0  0  0  0
   -9.8445   26.1918    4.3546 H   0  0  0  0  0  0  0  0  0  0  0  0
   -8.6103   27.3437    1.2146 C   0  0  0  0  0  0  0  0  0  0  0  0
   -8.9235   28.0733   -0.0761 C   0  0  0  0  0  0  0  0  0  0  0  0
   -8.0437   28.8611   -0.5097 O   0  0  0  0  0  0  0  0  0  0  0  0
  -10.0349   27.8237   -0.6093 O   0  0  0  0  0  0  0  0  0  0  0  0
   -7.2443   28.9777   -0.0350 H   0  0  0  0  0  0  0  0  0  0  0  0
  1 13  1  0  0  0
  1  3  1  0  0  0
 13  4  1  0  0  0
  3  2  2  0  0  0
  4 10  1  0  0  0
  4  5  1  0  0  0
  2  5  1  0  0  0
 23 21  2  0  0  0
 12 11  2  0  0  0
 10 11  1  0  0  0
 10  9  1  0  0  0
  5  6  1  0  0  0
 11  7  1  0  0  0
 21 22  1  0  0  0
 21 20  1  0  0  0
  6  9  1  0  0  0
  9 20  1  0  0  0
  9  8  1  0  0  0
  7  8  1  0  0  0
  8 16  1  0  0  0
 16 18  2  0  0  0
 16 17  1  0  0  0
  7 14  1  0  0  0
 17 19  1  0  0  0
 22 24  1  0  0  0
 13 15  1  0  0  0
M  END
> <minimizedAffinity>
-6.70991

$$$$
4ISU_IKM_A_301


 24 26  0  0  0  0  0  0  0  0999 V2000
   -8.0260   26.1558    1.9326 C   0  0  0  0  0  0  0  0  0  0  0  0
   -6.1341   27.2144    3.1907 C   0  0  0  0  0  0  0  0  0  0  0  0
   -7.1299   26.3123    3.1242 C   0  0  0  0  0  0  0  0  0  0  0  0
   -6.5376   27.7705    0.7299 C   0  0  0  0  0  0  0  0  0  0  0  0
   -5.8244   28.1364    2.0484 C   0  0  0  0  0  0  0  0  0  0  0  0
   -6.2834   29.4556    2.3734 O   0  0  0  0  0  0  0  0  0  0  0  0
   -4.4598   30.0806   -0.3527 N   0  0  0  0  0  0  0  0  0  0  0  0
   -4.9350   30.7556    0.8519 C   0  0  0  0  0  0  0  0  0  0  0  0
   -6.3528   30.1659    1.1136 C   0  0  0  0  0  0  0  0  0  0  0  0
   -6.5671   29.1078    0.0024 C   0  0  0  0  0  0  0  0  0  0  0  0
   -5.3290   29.1568   -0.8616 C   0  0  0  0  0  0  0  0  0  0  0  0
   -5.1248   28.4799   -1.8724 O   0  0  0  0  0  0  0  0  0  0  0  0
   -7.9277   27.2954    1.0006 N   0  0  0  0  0  0  0  0  0  0  0  0
   -3.5866   30.2747   -0.7638 H   0  0  0  0  0  0  0  0  0  0  0  0
   -8.4570   28.0731    1.3947 H   0  0  0  0  0  0  0  0  0  0  0  0
   -4.9015   32.3011    0.6900 C   0  0  0  0  0  0  0  0  0  0  0  0
   -4.7830   32.9847    1.7472 O   0  0  0  0  0  0  0  0  0  0  0  0
   -5.0129   32.7264   -0.4871 O   0  0  0  0  0  0  0  0  0  0  0  0
   -4.7068   32.5555    2.5766 H   0  0  0  0  0  0  0  0  0  0  0  0
   -7.4562   31.2108    1.2799 C   0  0  0  0  0  0  0  0  0  0  0  0
   -8.8703   30.7093    1.4922 C   0  0  0  0  0  0  0  0  0  0  0  0
   -9.0432   29.8767    2.4194 O   0  0  0  0  0  0  0  0  0  0  0  0
   -9.7540   31.1740    0.7274 O   0  0  0  0  0  0  0  0  0  0  0  0
   -8.3147   29.5920    2.9353 H   0  0  0  0  0  0  0  0  0  0  0  0
  1 13  1  0  0  0
  1  3  1  0  0  0
 13  4  1  0  0  0
  3  2  2  0  0  0
  4 10  1  0  0  0
  4  5  1  0  0  0
  2  5  1  0  0  0
 23 21  2  0  0  0
 12 11  2  0  0  0
 10 11  1  0  0  0
 10  9  1  0  0  0
  5  6  1  0  0  0
 11  7  1  0  0  0
 21 22  1  0  0  0
 21 20  1  0  0  0
  6  9  1  0  0  0
  9 20  1  0  0  0
  9  8  1  0  0  0
  7  8  1  0  0  0
  8 16  1  0  0  0
 16 18  2  0  0  0
 16 17  1  0  0  0
  7 14  1  0  0  0
 17 19  1  0  0  0
 22 24  1  0  0  0
 13 15  1  0  0  0
M  END
> <minimizedAffinity>
-6.69737

$$$$
