1MY4_IWD_A_601


 19 19  0  0  0  0  0  0  0  0999 V2000
   77.9006   26.7134   42.4604 N   0  0  0  0  0  0  0  0  0  0  0  0
   78.0732   25.5000   41.7899 C   0  0  0  0  0  0  0  0  0  0  0  0
   78.1959   24.4475   42.3486 O   0  0  0  0  0  0  0  0  0  0  0  0
   78.0524   25.6175   40.3845 N   0  0  0  0  0  0  0  0  0  0  0  0
   77.9059   26.7729   39.6475 C   0  0  0  0  0  0  0  0  0  0  0  0
   77.9184   26.7726   38.4395 O   0  0  0  0  0  0  0  0  0  0  0  0
   77.7076   28.0293   40.5023 C   0  0  0  0  0  0  0  0  0  0  0  0
   77.3437   29.9644   39.6578 I   0  0  0  0  0  0  0  0  0  0  0  0
   77.7025   27.8782   41.8270 C   0  0  0  0  0  0  0  0  0  0  0  0
   78.1539   24.7821   39.8736 H   0  0  0  0  0  0  0  0  0  0  0  0
   77.8214   26.7194   43.9009 C   0  0  0  0  0  0  0  0  0  0  0  0
   76.4124   26.4949   44.3602 C   0  0  0  0  0  0  0  0  0  0  0  0
   75.5868   27.7291   44.0730 N   0  0  0  0  0  0  0  0  0  0  0  0
   75.9541   28.5158   44.6083 H   0  0  0  0  0  0  0  0  0  0  0  0
   74.6172   27.5592   44.3401 H   0  0  0  0  0  0  0  0  0  0  0  0
   76.2856   26.1344   45.8212 C   0  0  0  0  0  0  0  0  0  0  0  0
   76.8257   25.1268   46.1920 O   0  0  0  0  0  0  0  0  0  0  0  0
   75.5545   26.9391   46.5144 O   0  0  0  0  0  0  0  0  0  0  0  0
   75.1839   27.6998   46.1119 H   0  0  0  0  0  0  0  0  0  0  0  0
  1  2  1  0  0  0
  1  9  1  0  0  0
  1 11  1  0  0  0
  2  3  2  0  0  0
  2  4  1  0  0  0
  4  5  1  0  0  0
  5  6  2  0  0  0
  5  7  1  0  0  0
  7  8  1  0  0  0
  7  9  2  0  0  0
 11 12  1  0  0  0
 12 13  1  0  0  0
 12 16  1  0  0  0
 16 17  2  0  0  0
 16 18  1  0  0  0
  4 10  1  0  0  0
 13 14  1  0  0  0
 13 15  1  0  0  0
 18 19  1  0  0  0
M  END
> <minimizedAffinity>
-8.90323

$$$$
1MY4_IWD_A_601


 19 19  0  0  0  0  0  0  0  0999 V2000
   77.8209   26.6335   41.0283 N   0  0  0  0  0  0  0  0  0  0  0  0
   78.4103   26.1024   39.8786 C   0  0  0  0  0  0  0  0  0  0  0  0
   78.7774   24.9656   39.7885 O   0  0  0  0  0  0  0  0  0  0  0  0
   78.5024   27.0185   38.8101 N   0  0  0  0  0  0  0  0  0  0  0  0
   78.1011   28.3371   38.8068 C   0  0  0  0  0  0  0  0  0  0  0  0
   78.2389   29.0501   37.8413 O   0  0  0  0  0  0  0  0  0  0  0  0
   77.4555   28.7891   40.1211 C   0  0  0  0  0  0  0  0  0  0  0  0
   76.6304   30.7468   40.3979 I   0  0  0  0  0  0  0  0  0  0  0  0
   77.3571   27.8894   41.1001 C   0  0  0  0  0  0  0  0  0  0  0  0
   78.8968   26.6786   37.9746 H   0  0  0  0  0  0  0  0  0  0  0  0
   77.5940   25.7763   42.1664 C   0  0  0  0  0  0  0  0  0  0  0  0
   77.7828   26.5288   43.4489 C   0  0  0  0  0  0  0  0  0  0  0  0
   79.0324   26.0347   44.1430 N   0  0  0  0  0  0  0  0  0  0  0  0
   78.9191   25.0509   44.3873 H   0  0  0  0  0  0  0  0  0  0  0  0
   79.1885   26.5798   44.9908 H   0  0  0  0  0  0  0  0  0  0  0  0
   76.6122   26.4402   44.3988 C   0  0  0  0  0  0  0  0  0  0  0  0
   76.6618   25.6063   45.2628 O   0  0  0  0  0  0  0  0  0  0  0  0
   75.6456   27.2540   44.1418 O   0  0  0  0  0  0  0  0  0  0  0  0
   75.7229   27.8652   43.4359 H   0  0  0  0  0  0  0  0  0  0  0  0
  1  2  1  0  0  0
  1  9  1  0  0  0
  1 11  1  0  0  0
  2  3  2  0  0  0
  2  4  1  0  0  0
  4  5  1  0  0  0
  5  6  2  0  0  0
  5  7  1  0  0  0
  7  8  1  0  0  0
  7  9  2  0  0  0
 11 12  1  0  0  0
 12 13  1  0  0  0
 12 16  1  0  0  0
 16 17  2  0  0  0
 16 18  1  0  0  0
  4 10  1  0  0  0
 13 14  1  0  0  0
 13 15  1  0  0  0
 18 19  1  0  0  0
M  END
> <minimizedAffinity>
-7.55656

$$$$
1MY4_IWD_A_601


 19 19  0  0  0  0  0  0  0  0999 V2000
   78.0138   27.9510   41.3116 N   0  0  0  0  0  0  0  0  0  0  0  0
   78.2750   26.8674   40.4695 C   0  0  0  0  0  0  0  0  0  0  0  0
   78.7579   26.9789   39.3789 O   0  0  0  0  0  0  0  0  0  0  0  0
   77.9528   25.6159   41.0345 N   0  0  0  0  0  0  0  0  0  0  0  0
   77.4076   25.3792   42.2781 C   0  0  0  0  0  0  0  0  0  0  0  0
   77.1500   24.2649   42.6671 O   0  0  0  0  0  0  0  0  0  0  0  0
   77.1870   26.6490   43.1072 C   0  0  0  0  0  0  0  0  0  0  0  0
   76.4564   26.6102   45.1208 I   0  0  0  0  0  0  0  0  0  0  0  0
   77.5303   27.8126   42.5544 C   0  0  0  0  0  0  0  0  0  0  0  0
   78.1376   24.8241   40.4794 H   0  0  0  0  0  0  0  0  0  0  0  0
   78.3742   29.2809   40.8840 C   0  0  0  0  0  0  0  0  0  0  0  0
   77.3647   29.8241   39.9181 C   0  0  0  0  0  0  0  0  0  0  0  0
   78.0797   30.5116   38.7765 N   0  0  0  0  0  0  0  0  0  0  0  0
   78.6079   31.3068   39.1358 H   0  0  0  0  0  0  0  0  0  0  0  0
   77.3955   30.8382   38.0942 H   0  0  0  0  0  0  0  0  0  0  0  0
   76.3674   30.7769   40.5328 C   0  0  0  0  0  0  0  0  0  0  0  0
   76.6235   31.2218   41.6195 O   0  0  0  0  0  0  0  0  0  0  0  0
   75.3046   30.9738   39.8297 O   0  0  0  0  0  0  0  0  0  0  0  0
   75.2176   30.5695   38.9889 H   0  0  0  0  0  0  0  0  0  0  0  0
  1  2  1  0  0  0
  1  9  1  0  0  0
  1 11  1  0  0  0
  2  3  2  0  0  0
  2  4  1  0  0  0
  4  5  1  0  0  0
  5  6  2  0  0  0
  5  7  1  0  0  0
  7  8  1  0  0  0
  7  9  2  0  0  0
 11 12  1  0  0  0
 12 13  1  0  0  0
 12 16  1  0  0  0
 16 17  2  0  0  0
 16 18  1  0  0  0
  4 10  1  0  0  0
 13 14  1  0  0  0
 13 15  1  0  0  0
 18 19  1  0  0  0
M  END
> <minimizedAffinity>
-7.33802

$$$$
1MY4_IWD_A_601


 19 19  0  0  0  0  0  0  0  0999 V2000
   77.4996   27.5983   42.1682 N   0  0  0  0  0  0  0  0  0  0  0  0
   76.9453   28.8126   41.7562 C   0  0  0  0  0  0  0  0  0  0  0  0
   76.5463   29.6488   42.5156 O   0  0  0  0  0  0  0  0  0  0  0  0
   76.9304   28.9866   40.3567 N   0  0  0  0  0  0  0  0  0  0  0  0
   77.3736   28.0966   39.4021 C   0  0  0  0  0  0  0  0  0  0  0  0
   77.3020   28.3318   38.2193 O   0  0  0  0  0  0  0  0  0  0  0  0
   77.9742   26.8134   39.9861 C   0  0  0  0  0  0  0  0  0  0  0  0
   78.8486   25.2811   38.7705 I   0  0  0  0  0  0  0  0  0  0  0  0
   77.9998   26.6943   41.3138 C   0  0  0  0  0  0  0  0  0  0  0  0
   76.5629   29.8376   40.0250 H   0  0  0  0  0  0  0  0  0  0  0  0
   77.6479   27.3317   43.5784 C   0  0  0  0  0  0  0  0  0  0  0  0
   76.4230   26.6653   44.1284 C   0  0  0  0  0  0  0  0  0  0  0  0
   75.2556   27.6244   44.0620 N   0  0  0  0  0  0  0  0  0  0  0  0
   75.4465   28.4338   44.6527 H   0  0  0  0  0  0  0  0  0  0  0  0
   74.4113   27.1556   44.3902 H   0  0  0  0  0  0  0  0  0  0  0  0
   76.5751   26.1560   45.5419 C   0  0  0  0  0  0  0  0  0  0  0  0
   77.5085   25.4353   45.7736 O   0  0  0  0  0  0  0  0  0  0  0  0
   75.6384   26.5190   46.3502 O   0  0  0  0  0  0  0  0  0  0  0  0
   74.9574   27.0894   46.0523 H   0  0  0  0  0  0  0  0  0  0  0  0
  1  2  1  0  0  0
  1  9  1  0  0  0
  1 11  1  0  0  0
  2  3  2  0  0  0
  2  4  1  0  0  0
  4  5  1  0  0  0
  5  6  2  0  0  0
  5  7  1  0  0  0
  7  8  1  0  0  0
  7  9  2  0  0  0
 11 12  1  0  0  0
 12 13  1  0  0  0
 12 16  1  0  0  0
 16 17  2  0  0  0
 16 18  1  0  0  0
  4 10  1  0  0  0
 13 14  1  0  0  0
 13 15  1  0  0  0
 18 19  1  0  0  0
M  END
> <minimizedAffinity>
-7.03963

$$$$
1MY4_IWD_A_601


 19 19  0  0  0  0  0  0  0  0999 V2000
   77.9229   28.3972   39.2744 N   0  0  0  0  0  0  0  0  0  0  0  0
   78.6227   27.9279   38.1602 C   0  0  0  0  0  0  0  0  0  0  0  0
   78.8492   28.5961   37.1920 O   0  0  0  0  0  0  0  0  0  0  0  0
   79.0766   26.5989   38.2905 N   0  0  0  0  0  0  0  0  0  0  0  0
   78.8811   25.7533   39.3612 C   0  0  0  0  0  0  0  0  0  0  0  0
   79.2972   24.6192   39.3710 O   0  0  0  0  0  0  0  0  0  0  0  0
   78.1153   26.3955   40.5230 C   0  0  0  0  0  0  0  0  0  0  0  0
   77.7444   25.3804   42.3729 I   0  0  0  0  0  0  0  0  0  0  0  0
   77.7270   27.6627   40.3788 C   0  0  0  0  0  0  0  0  0  0  0  0
   79.5897   26.2351   37.5331 H   0  0  0  0  0  0  0  0  0  0  0  0
   77.4748   29.7683   39.3012 C   0  0  0  0  0  0  0  0  0  0  0  0
   76.1684   29.8900   40.0260 C   0  0  0  0  0  0  0  0  0  0  0  0
   75.1535   30.5578   39.1253 N   0  0  0  0  0  0  0  0  0  0  0  0
   75.4637   31.5047   38.9070 H   0  0  0  0  0  0  0  0  0  0  0  0
   74.2513   30.5965   39.5997 H   0  0  0  0  0  0  0  0  0  0  0  0
   76.2514   30.6415   41.3332 C   0  0  0  0  0  0  0  0  0  0  0  0
   76.6241   31.7834   41.2930 O   0  0  0  0  0  0  0  0  0  0  0  0
   75.9537   29.9447   42.3765 O   0  0  0  0  0  0  0  0  0  0  0  0
   75.6723   29.0560   42.2816 H   0  0  0  0  0  0  0  0  0  0  0  0
  1  2  1  0  0  0
  1  9  1  0  0  0
  1 11  1  0  0  0
  2  3  2  0  0  0
  2  4  1  0  0  0
  4  5  1  0  0  0
  5  6  2  0  0  0
  5  7  1  0  0  0
  7  8  1  0  0  0
  7  9  2  0  0  0
 11 12  1  0  0  0
 12 13  1  0  0  0
 12 16  1  0  0  0
 16 17  2  0  0  0
 16 18  1  0  0  0
  4 10  1  0  0  0
 13 14  1  0  0  0
 13 15  1  0  0  0
 18 19  1  0  0  0
M  END
> <minimizedAffinity>
-6.51336

$$$$
1MY4_IWD_A_601


 19 19  0  0  0  0  0  0  0  0999 V2000
   77.5920   28.1215   41.6225 N   0  0  0  0  0  0  0  0  0  0  0  0
   77.1899   29.3521   41.0977 C   0  0  0  0  0  0  0  0  0  0  0  0
   76.7943   30.2605   41.7710 O   0  0  0  0  0  0  0  0  0  0  0  0
   77.3267   29.4465   39.6971 N   0  0  0  0  0  0  0  0  0  0  0  0
   77.7804   28.4697   38.8370 C   0  0  0  0  0  0  0  0  0  0  0  0
   77.8453   28.6420   37.6431 O   0  0  0  0  0  0  0  0  0  0  0  0
   78.2055   27.1765   39.5408 C   0  0  0  0  0  0  0  0  0  0  0  0
   79.0553   25.5099   38.4964 I   0  0  0  0  0  0  0  0  0  0  0  0
   78.0912   27.1318   40.8684 C   0  0  0  0  0  0  0  0  0  0  0  0
   77.0699   30.3047   39.2888 H   0  0  0  0  0  0  0  0  0  0  0  0
   77.5782   27.9245   43.0517 C   0  0  0  0  0  0  0  0  0  0  0  0
   76.5137   26.9458   43.4464 C   0  0  0  0  0  0  0  0  0  0  0  0
   75.5711   27.5981   44.4329 N   0  0  0  0  0  0  0  0  0  0  0  0
   76.0823   27.8422   45.2811 H   0  0  0  0  0  0  0  0  0  0  0  0
   74.8187   26.9494   44.6642 H   0  0  0  0  0  0  0  0  0  0  0  0
   77.0410   25.6575   44.0320 C   0  0  0  0  0  0  0  0  0  0  0  0
   77.1916   25.6114   45.2235 O   0  0  0  0  0  0  0  0  0  0  0  0
   77.3243   24.7463   43.1648 O   0  0  0  0  0  0  0  0  0  0  0  0
   77.1607   24.8985   42.2548 H   0  0  0  0  0  0  0  0  0  0  0  0
  1  2  1  0  0  0
  1  9  1  0  0  0
  1 11  1  0  0  0
  2  3  2  0  0  0
  2  4  1  0  0  0
  4  5  1  0  0  0
  5  6  2  0  0  0
  5  7  1  0  0  0
  7  8  1  0  0  0
  7  9  2  0  0  0
 11 12  1  0  0  0
 12 13  1  0  0  0
 12 16  1  0  0  0
 16 17  2  0  0  0
 16 18  1  0  0  0
  4 10  1  0  0  0
 13 14  1  0  0  0
 13 15  1  0  0  0
 18 19  1  0  0  0
M  END
> <minimizedAffinity>
-6.47395

$$$$
1MY4_IWD_A_601


 19 19  0  0  0  0  0  0  0  0999 V2000
   77.7704   27.1415   39.9904 N   0  0  0  0  0  0  0  0  0  0  0  0
   78.5243   26.1080   39.4291 C   0  0  0  0  0  0  0  0  0  0  0  0
   78.8939   26.1027   38.2896 O   0  0  0  0  0  0  0  0  0  0  0  0
   78.8476   25.0795   40.3386 N   0  0  0  0  0  0  0  0  0  0  0  0
   78.4839   24.9965   41.6654 C   0  0  0  0  0  0  0  0  0  0  0  0
   78.7976   24.0607   42.3621 O   0  0  0  0  0  0  0  0  0  0  0  0
   77.6754   26.2005   42.1603 C   0  0  0  0  0  0  0  0  0  0  0  0
   77.0529   26.4245   44.1981 I   0  0  0  0  0  0  0  0  0  0  0  0
   77.4130   27.1689   41.2823 C   0  0  0  0  0  0  0  0  0  0  0  0
   79.3932   24.3394   39.9868 H   0  0  0  0  0  0  0  0  0  0  0  0
   77.4423   28.2936   39.1865 C   0  0  0  0  0  0  0  0  0  0  0  0
   76.5901   29.2574   39.9556 C   0  0  0  0  0  0  0  0  0  0  0  0
   75.3468   29.5784   39.1566 N   0  0  0  0  0  0  0  0  0  0  0  0
   75.6116   30.0413   38.2871 H   0  0  0  0  0  0  0  0  0  0  0  0
   74.7432   30.1954   39.7001 H   0  0  0  0  0  0  0  0  0  0  0  0
   77.2903   30.5412   40.3327 C   0  0  0  0  0  0  0  0  0  0  0  0
   76.8356   31.1715   41.2495 O   0  0  0  0  0  0  0  0  0  0  0  0
   78.2913   30.8510   39.5813 O   0  0  0  0  0  0  0  0  0  0  0  0
   78.5555   30.2745   38.8916 H   0  0  0  0  0  0  0  0  0  0  0  0
  1  2  1  0  0  0
  1  9  1  0  0  0
  1 11  1  0  0  0
  2  3  2  0  0  0
  2  4  1  0  0  0
  4  5  1  0  0  0
  5  6  2  0  0  0
  5  7  1  0  0  0
  7  8  1  0  0  0
  7  9  2  0  0  0
 11 12  1  0  0  0
 12 13  1  0  0  0
 12 16  1  0  0  0
 16 17  2  0  0  0
 16 18  1  0  0  0
  4 10  1  0  0  0
 13 14  1  0  0  0
 13 15  1  0  0  0
 18 19  1  0  0  0
M  END
> <minimizedAffinity>
-6.46534

$$$$
