5EVD_VC2_A_401


 17 18  0  0  0  0  0  0  0  0999 V2000
  -18.5996   25.9869   -2.3101 C   0  0  0  0  0  0  0  0  0  0  0  0
  -17.4455   25.4051   -1.6866 N   0  0  0  0  0  0  0  0  0  0  0  0
  -18.1306   27.2810   -3.0152 C   0  0  0  0  0  0  0  0  0  0  0  0
  -19.0166   27.7383   -4.1241 C   0  0  0  0  0  0  0  0  0  0  0  0
  -17.8400   28.4198   -2.1235 C   0  0  0  0  0  0  0  0  0  0  0  0
  -16.5157   26.8180   -3.7586 S   0  0  0  0  0  0  0  0  0  0  0  0
  -16.2878   25.5042   -2.5076 C   0  0  0  0  0  0  0  0  0  0  0  0
  -16.0363   24.2425   -3.2660 C   0  0  0  0  0  0  0  0  0  0  0  0
  -17.2860   23.0911   -2.7820 S   0  0  0  0  0  0  0  0  0  0  0  0
  -17.6875   24.0299   -1.2878 C   0  0  0  0  0  0  0  0  0  0  0  0
  -19.3059   26.3115   -0.0718 O   0  0  0  0  0  0  0  0  0  0  0  0
  -19.6508   26.3778   -1.2839 C   0  0  0  0  0  0  0  0  0  0  0  0
  -20.7164   26.6739   -1.8071 O   0  0  0  0  0  0  0  0  0  0  0  0
  -20.7968   26.6710   -2.7406 H   0  0  0  0  0  0  0  0  0  0  0  0
  -16.6743   23.5979   -0.2315 C   0  0  0  0  0  0  0  0  0  0  0  0
  -17.3743   23.4752    1.4271 S   0  0  0  0  0  0  0  0  0  0  0  0
  -17.8247   24.6967    1.8205 H   0  0  0  0  0  0  0  0  0  0  0  0
 11 12  2  0  0  0
 12 13  1  0  0  0
 12  1  1  0  0  0
  1  2  1  0  0  0
  1  3  1  0  0  0
  2  7  1  0  0  0
  2 10  1  0  0  0
  3  4  1  0  0  0
  3  5  1  0  0  0
  3  6  1  0  0  0
  6  7  1  0  0  0
  7  8  1  0  0  0
  8  9  1  0  0  0
  9 10  1  0  0  0
 10 15  1  0  0  0
 15 16  1  0  0  0
 13 14  1  0  0  0
 16 17  1  0  0  0
M  END
> <minimizedAffinity>
-5.32311

$$$$
5EVD_VC2_A_401


 17 18  0  0  0  0  0  0  0  0999 V2000
  -17.2463   26.1719   -2.3635 C   0  0  0  0  0  0  0  0  0  0  0  0
  -17.7128   24.8442   -2.6440 N   0  0  0  0  0  0  0  0  0  0  0  0
  -18.4599   26.9799   -1.8475 C   0  0  0  0  0  0  0  0  0  0  0  0
  -18.1058   28.1733   -1.0264 C   0  0  0  0  0  0  0  0  0  0  0  0
  -19.4448   27.3705   -2.8742 C   0  0  0  0  0  0  0  0  0  0  0  0
  -19.3408   25.7999   -0.7492 S   0  0  0  0  0  0  0  0  0  0  0  0
  -18.6326   24.3826   -1.6617 C   0  0  0  0  0  0  0  0  0  0  0  0
  -17.9671   23.5180   -0.6420 C   0  0  0  0  0  0  0  0  0  0  0  0
  -16.2703   23.3758   -1.1134 S   0  0  0  0  0  0  0  0  0  0  0  0
  -16.6112   23.9122   -2.8078 C   0  0  0  0  0  0  0  0  0  0  0  0
  -17.5109   26.8627   -4.6145 O   0  0  0  0  0  0  0  0  0  0  0  0
  -16.7356   26.8608   -3.6187 C   0  0  0  0  0  0  0  0  0  0  0  0
  -15.5997   27.2924   -3.4767 O   0  0  0  0  0  0  0  0  0  0  0  0
  -15.1645   27.2036   -2.6517 H   0  0  0  0  0  0  0  0  0  0  0  0
  -17.0763   22.6685   -3.5600 C   0  0  0  0  0  0  0  0  0  0  0  0
  -16.1824   21.1718   -3.0944 S   0  0  0  0  0  0  0  0  0  0  0  0
  -14.8644   21.3185   -3.3961 H   0  0  0  0  0  0  0  0  0  0  0  0
 11 12  2  0  0  0
 12 13  1  0  0  0
 12  1  1  0  0  0
  1  2  1  0  0  0
  1  3  1  0  0  0
  2  7  1  0  0  0
  2 10  1  0  0  0
  3  4  1  0  0  0
  3  5  1  0  0  0
  3  6  1  0  0  0
  6  7  1  0  0  0
  7  8  1  0  0  0
  8  9  1  0  0  0
  9 10  1  0  0  0
 10 15  1  0  0  0
 15 16  1  0  0  0
 13 14  1  0  0  0
 16 17  1  0  0  0
M  END
> <minimizedAffinity>
-4.86551

$$$$
5EVD_VC2_A_401


 17 18  0  0  0  0  0  0  0  0999 V2000
  -18.3604   24.7845   -1.1379 C   0  0  0  0  0  0  0  0  0  0  0  0
  -18.3096   24.7605    0.2959 N   0  0  0  0  0  0  0  0  0  0  0  0
  -16.9082   24.9589   -1.6406 C   0  0  0  0  0  0  0  0  0  0  0  0
  -16.6759   24.4916   -3.0376 C   0  0  0  0  0  0  0  0  0  0  0  0
  -16.3386   26.3101   -1.4785 C   0  0  0  0  0  0  0  0  0  0  0  0
  -15.9237   23.8770   -0.5293 S   0  0  0  0  0  0  0  0  0  0  0  0
  -17.1931   24.0225    0.7785 C   0  0  0  0  0  0  0  0  0  0  0  0
  -17.5708   22.6270    1.1530 C   0  0  0  0  0  0  0  0  0  0  0  0
  -19.3101   22.4728    0.8838 S   0  0  0  0  0  0  0  0  0  0  0  0
  -19.5496   24.2666    0.8682 C   0  0  0  0  0  0  0  0  0  0  0  0
  -19.3265   26.9282   -0.8457 O   0  0  0  0  0  0  0  0  0  0  0  0
  -19.1684   25.9669   -1.6479 C   0  0  0  0  0  0  0  0  0  0  0  0
  -19.5839   25.7842   -2.7840 O   0  0  0  0  0  0  0  0  0  0  0  0
  -19.3644   24.9969   -3.2422 H   0  0  0  0  0  0  0  0  0  0  0  0
  -19.6653   24.6908    2.3295 C   0  0  0  0  0  0  0  0  0  0  0  0
  -20.9506   23.8050    3.2347 S   0  0  0  0  0  0  0  0  0  0  0  0
  -22.1618   24.0661    2.6739 H   0  0  0  0  0  0  0  0  0  0  0  0
 11 12  2  0  0  0
 12 13  1  0  0  0
 12  1  1  0  0  0
  1  2  1  0  0  0
  1  3  1  0  0  0
  2  7  1  0  0  0
  2 10  1  0  0  0
  3  4  1  0  0  0
  3  5  1  0  0  0
  3  6  1  0  0  0
  6  7  1  0  0  0
  7  8  1  0  0  0
  8  9  1  0  0  0
  9 10  1  0  0  0
 10 15  1  0  0  0
 15 16  1  0  0  0
 13 14  1  0  0  0
 16 17  1  0  0  0
M  END
> <minimizedAffinity>
-4.76184

$$$$
5EVD_VC2_A_401


 17 18  0  0  0  0  0  0  0  0999 V2000
  -17.8973   25.2881   -1.9375 C   0  0  0  0  0  0  0  0  0  0  0  0
  -17.6218   24.6168   -0.6996 N   0  0  0  0  0  0  0  0  0  0  0  0
  -17.0373   26.5734   -1.9579 C   0  0  0  0  0  0  0  0  0  0  0  0
  -16.7724   27.1200   -3.3198 C   0  0  0  0  0  0  0  0  0  0  0  0
  -17.5034   27.6626   -1.0787 C   0  0  0  0  0  0  0  0  0  0  0  0
  -15.4254   26.0369   -1.2589 S   0  0  0  0  0  0  0  0  0  0  0  0
  -16.2418   24.6716   -0.3578 C   0  0  0  0  0  0  0  0  0  0  0  0
  -15.5236   23.4223   -0.7497 C   0  0  0  0  0  0  0  0  0  0  0  0
  -16.7253   22.3343   -1.4525 S   0  0  0  0  0  0  0  0  0  0  0  0
  -18.1029   23.2466   -0.7140 C   0  0  0  0  0  0  0  0  0  0  0  0
  -20.0360   25.6198   -0.9730 O   0  0  0  0  0  0  0  0  0  0  0  0
  -19.3550   25.7089   -2.0318 C   0  0  0  0  0  0  0  0  0  0  0  0
  -19.6632   26.0485   -3.1661 O   0  0  0  0  0  0  0  0  0  0  0  0
  -19.0171   26.0563   -3.8447 H   0  0  0  0  0  0  0  0  0  0  0  0
  -18.2443   22.7192    0.7110 C   0  0  0  0  0  0  0  0  0  0  0  0
  -19.9526   22.6628    1.2894 S   0  0  0  0  0  0  0  0  0  0  0  0
  -20.4676   23.9215    1.3052 H   0  0  0  0  0  0  0  0  0  0  0  0
 11 12  2  0  0  0
 12 13  1  0  0  0
 12  1  1  0  0  0
  1  2  1  0  0  0
  1  3  1  0  0  0
  2  7  1  0  0  0
  2 10  1  0  0  0
  3  4  1  0  0  0
  3  5  1  0  0  0
  3  6  1  0  0  0
  6  7  1  0  0  0
  7  8  1  0  0  0
  8  9  1  0  0  0
  9 10  1  0  0  0
 10 15  1  0  0  0
 15 16  1  0  0  0
 13 14  1  0  0  0
 16 17  1  0  0  0
M  END
> <minimizedAffinity>
-4.64897

$$$$
5EVD_VC2_A_401


 17 18  0  0  0  0  0  0  0  0999 V2000
  -18.0318   25.4715   -0.7916 C   0  0  0  0  0  0  0  0  0  0  0  0
  -17.1331   24.6191   -1.5161 N   0  0  0  0  0  0  0  0  0  0  0  0
  -18.6029   24.6380    0.3794 C   0  0  0  0  0  0  0  0  0  0  0  0
  -19.1186   25.4463    1.5215 C   0  0  0  0  0  0  0  0  0  0  0  0
  -19.6092   23.6258    0.0061 C   0  0  0  0  0  0  0  0  0  0  0  0
  -17.1555   23.6859    0.9904 S   0  0  0  0  0  0  0  0  0  0  0  0
  -16.3539   23.8041   -0.6486 C   0  0  0  0  0  0  0  0  0  0  0  0
  -14.9985   24.3845   -0.4114 C   0  0  0  0  0  0  0  0  0  0  0  0
  -14.8945   25.8634   -1.3725 S   0  0  0  0  0  0  0  0  0  0  0  0
  -16.2873   25.3774   -2.4209 C   0  0  0  0  0  0  0  0  0  0  0  0
  -19.7989   26.9656   -1.3008 O   0  0  0  0  0  0  0  0  0  0  0  0
  -19.2022   25.9118   -1.6560 C   0  0  0  0  0  0  0  0  0  0  0  0
  -19.4144   25.1321   -2.5746 O   0  0  0  0  0  0  0  0  0  0  0  0
  -18.8600   24.3862   -2.6935 H   0  0  0  0  0  0  0  0  0  0  0  0
  -15.7083   24.4632   -3.4970 C   0  0  0  0  0  0  0  0  0  0  0  0
  -14.3356   25.2029   -4.4050 S   0  0  0  0  0  0  0  0  0  0  0  0
  -14.7697   26.3155   -5.0556 H   0  0  0  0  0  0  0  0  0  0  0  0
 11 12  2  0  0  0
 12 13  1  0  0  0
 12  1  1  0  0  0
  1  2  1  0  0  0
  1  3  1  0  0  0
  2  7  1  0  0  0
  2 10  1  0  0  0
  3  4  1  0  0  0
  3  5  1  0  0  0
  3  6  1  0  0  0
  6  7  1  0  0  0
  7  8  1  0  0  0
  8  9  1  0  0  0
  9 10  1  0  0  0
 10 15  1  0  0  0
 15 16  1  0  0  0
 13 14  1  0  0  0
 16 17  1  0  0  0
M  END
> <minimizedAffinity>
-4.59134

$$$$
5EVD_VC2_A_401


 17 18  0  0  0  0  0  0  0  0999 V2000
  -18.0686   24.5177    0.7030 C   0  0  0  0  0  0  0  0  0  0  0  0
  -18.4895   24.7247   -0.6531 N   0  0  0  0  0  0  0  0  0  0  0  0
  -17.8399   22.9984    0.8804 C   0  0  0  0  0  0  0  0  0  0  0  0
  -16.9256   22.6363    2.0013 C   0  0  0  0  0  0  0  0  0  0  0  0
  -19.0634   22.1784    0.9662 C   0  0  0  0  0  0  0  0  0  0  0  0
  -17.0197   22.4903   -0.6829 S   0  0  0  0  0  0  0  0  0  0  0  0
  -17.7717   23.9032   -1.5664 C   0  0  0  0  0  0  0  0  0  0  0  0
  -16.6451   24.6428   -2.2098 C   0  0  0  0  0  0  0  0  0  0  0  0
  -16.6957   26.2983   -1.5944 S   0  0  0  0  0  0  0  0  0  0  0  0
  -18.4071   26.1240   -1.0325 C   0  0  0  0  0  0  0  0  0  0  0  0
  -20.3172   25.0399    1.2376 O   0  0  0  0  0  0  0  0  0  0  0  0
  -19.1439   24.9391    1.6915 C   0  0  0  0  0  0  0  0  0  0  0  0
  -18.6855   25.1561    2.8049 O   0  0  0  0  0  0  0  0  0  0  0  0
  -17.7723   25.0258    2.9691 H   0  0  0  0  0  0  0  0  0  0  0  0
  -19.2829   26.3952   -2.2526 C   0  0  0  0  0  0  0  0  0  0  0  0
  -18.5910   27.6289   -3.3729 S   0  0  0  0  0  0  0  0  0  0  0  0
  -18.4783   28.8185   -2.7235 H   0  0  0  0  0  0  0  0  0  0  0  0
 11 12  2  0  0  0
 12 13  1  0  0  0
 12  1  1  0  0  0
  1  2  1  0  0  0
  1  3  1  0  0  0
  2  7  1  0  0  0
  2 10  1  0  0  0
  3  4  1  0  0  0
  3  5  1  0  0  0
  3  6  1  0  0  0
  6  7  1  0  0  0
  7  8  1  0  0  0
  8  9  1  0  0  0
  9 10  1  0  0  0
 10 15  1  0  0  0
 15 16  1  0  0  0
 13 14  1  0  0  0
 16 17  1  0  0  0
M  END
> <minimizedAffinity>
-4.56094

$$$$
5EVD_VC2_A_401


 17 18  0  0  0  0  0  0  0  0999 V2000
  -17.1439   24.4668   -2.8753 C   0  0  0  0  0  0  0  0  0  0  0  0
  -16.3008   23.4280   -2.3565 N   0  0  0  0  0  0  0  0  0  0  0  0
  -16.3183   25.7745   -2.8536 C   0  0  0  0  0  0  0  0  0  0  0  0
  -16.7917   26.8218   -3.8038 C   0  0  0  0  0  0  0  0  0  0  0  0
  -16.1217   26.3787   -1.5221 C   0  0  0  0  0  0  0  0  0  0  0  0
  -14.6461   25.2497   -3.4040 S   0  0  0  0  0  0  0  0  0  0  0  0
  -14.9610   23.5459   -2.8204 C   0  0  0  0  0  0  0  0  0  0  0  0
  -14.6963   22.6486   -3.9845 C   0  0  0  0  0  0  0  0  0  0  0  0
  -16.1832   21.7436   -4.2877 S   0  0  0  0  0  0  0  0  0  0  0  0
  -16.8383   22.1092   -2.6407 C   0  0  0  0  0  0  0  0  0  0  0  0
  -18.2315   24.4300   -0.7705 O   0  0  0  0  0  0  0  0  0  0  0  0
  -18.3679   24.6815   -1.9997 C   0  0  0  0  0  0  0  0  0  0  0  0
  -19.3394   25.0448   -2.6485 O   0  0  0  0  0  0  0  0  0  0  0  0
  -19.2600   25.1871   -3.5712 H   0  0  0  0  0  0  0  0  0  0  0  0
  -16.2259   21.0734   -1.7021 C   0  0  0  0  0  0  0  0  0  0  0  0
  -16.9829   21.0522   -0.0643 S   0  0  0  0  0  0  0  0  0  0  0  0
  -16.7952   22.2573    0.5375 H   0  0  0  0  0  0  0  0  0  0  0  0
 11 12  2  0  0  0
 12 13  1  0  0  0
 12  1  1  0  0  0
  1  2  1  0  0  0
  1  3  1  0  0  0
  2  7  1  0  0  0
  2 10  1  0  0  0
  3  4  1  0  0  0
  3  5  1  0  0  0
  3  6  1  0  0  0
  6  7  1  0  0  0
  7  8  1  0  0  0
  8  9  1  0  0  0
  9 10  1  0  0  0
 10 15  1  0  0  0
 15 16  1  0  0  0
 13 14  1  0  0  0
 16 17  1  0  0  0
M  END
> <minimizedAffinity>
-4.54573

$$$$
5EVD_VC2_A_401


 17 18  0  0  0  0  0  0  0  0999 V2000
  -17.5696   25.5048   -0.5111 C   0  0  0  0  0  0  0  0  0  0  0  0
  -18.2641   24.2694   -0.2861 N   0  0  0  0  0  0  0  0  0  0  0  0
  -18.5593   26.4594   -1.2191 C   0  0  0  0  0  0  0  0  0  0  0  0
  -18.2367   27.9077   -1.0708 C   0  0  0  0  0  0  0  0  0  0  0  0
  -18.8207   26.1622   -2.6404 C   0  0  0  0  0  0  0  0  0  0  0  0
  -20.1535   26.1612   -0.3563 S   0  0  0  0  0  0  0  0  0  0  0  0
  -19.6121   24.4802    0.1168 C   0  0  0  0  0  0  0  0  0  0  0  0
  -19.7680   24.3915    1.5994 C   0  0  0  0  0  0  0  0  0  0  0  0
  -18.1782   23.9998    2.2634 S   0  0  0  0  0  0  0  0  0  0  0  0
  -17.5609   23.4241    0.6625 C   0  0  0  0  0  0  0  0  0  0  0  0
  -16.4441   24.3554   -2.2508 O   0  0  0  0  0  0  0  0  0  0  0  0
  -16.3759   25.3142   -1.4329 C   0  0  0  0  0  0  0  0  0  0  0  0
  -15.4882   26.1258   -1.2096 O   0  0  0  0  0  0  0  0  0  0  0  0
  -15.6091   26.7838   -0.5536 H   0  0  0  0  0  0  0  0  0  0  0  0
  -18.0230   21.9760    0.5266 C   0  0  0  0  0  0  0  0  0  0  0  0
  -16.8341   20.9202   -0.3265 S   0  0  0  0  0  0  0  0  0  0  0  0
  -16.6535   21.3743   -1.5957 H   0  0  0  0  0  0  0  0  0  0  0  0
 11 12  2  0  0  0
 12 13  1  0  0  0
 12  1  1  0  0  0
  1  2  1  0  0  0
  1  3  1  0  0  0
  2  7  1  0  0  0
  2 10  1  0  0  0
  3  4  1  0  0  0
  3  5  1  0  0  0
  3  6  1  0  0  0
  6  7  1  0  0  0
  7  8  1  0  0  0
  8  9  1  0  0  0
  9 10  1  0  0  0
 10 15  1  0  0  0
 15 16  1  0  0  0
 13 14  1  0  0  0
 16 17  1  0  0  0
M  END
> <minimizedAffinity>
-4.42556

$$$$
5EVD_VC2_A_401


 17 18  0  0  0  0  0  0  0  0999 V2000
  -17.0800   24.6762   -0.5658 C   0  0  0  0  0  0  0  0  0  0  0  0
  -18.3794   24.0775   -0.4554 N   0  0  0  0  0  0  0  0  0  0  0  0
  -16.9775   25.2795   -1.9862 C   0  0  0  0  0  0  0  0  0  0  0  0
  -15.9666   26.3669   -2.1260 C   0  0  0  0  0  0  0  0  0  0  0  0
  -16.7970   24.3042   -3.0783 C   0  0  0  0  0  0  0  0  0  0  0  0
  -18.6312   26.0282   -2.2680 S   0  0  0  0  0  0  0  0  0  0  0  0
  -19.3871   24.8708   -1.0714 C   0  0  0  0  0  0  0  0  0  0  0  0
  -20.1150   25.7133   -0.0760 C   0  0  0  0  0  0  0  0  0  0  0  0
  -19.4424   25.3328    1.5129 S   0  0  0  0  0  0  0  0  0  0  0  0
  -18.7180   23.7819    0.9255 C   0  0  0  0  0  0  0  0  0  0  0  0
  -16.2690   22.4572   -0.7470 O   0  0  0  0  0  0  0  0  0  0  0  0
  -15.9751   23.6416   -0.4251 C   0  0  0  0  0  0  0  0  0  0  0  0
  -14.9462   24.1260    0.0260 O   0  0  0  0  0  0  0  0  0  0  0  0
  -14.9021   25.0435    0.2108 H   0  0  0  0  0  0  0  0  0  0  0  0
  -19.8343   22.7432    0.9871 C   0  0  0  0  0  0  0  0  0  0  0  0
  -20.6843   22.6963    2.5781 S   0  0  0  0  0  0  0  0  0  0  0  0
  -19.8014   22.3526    3.5538 H   0  0  0  0  0  0  0  0  0  0  0  0
 11 12  2  0  0  0
 12 13  1  0  0  0
 12  1  1  0  0  0
  1  2  1  0  0  0
  1  3  1  0  0  0
  2  7  1  0  0  0
  2 10  1  0  0  0
  3  4  1  0  0  0
  3  5  1  0  0  0
  3  6  1  0  0  0
  6  7  1  0  0  0
  7  8  1  0  0  0
  8  9  1  0  0  0
  9 10  1  0  0  0
 10 15  1  0  0  0
 15 16  1  0  0  0
 13 14  1  0  0  0
 16 17  1  0  0  0
M  END
> <minimizedAffinity>
-4.39523

$$$$
5EVD_VC2_A_401


 17 18  0  0  0  0  0  0  0  0999 V2000
  -17.4247   26.1957   -1.2818 C   0  0  0  0  0  0  0  0  0  0  0  0
  -16.7210   25.6221   -2.3931 N   0  0  0  0  0  0  0  0  0  0  0  0
  -18.3603   25.0988   -0.7220 C   0  0  0  0  0  0  0  0  0  0  0  0
  -18.7685   25.2983    0.6983 C   0  0  0  0  0  0  0  0  0  0  0  0
  -19.5563   24.8090   -1.5358 C   0  0  0  0  0  0  0  0  0  0  0  0
  -17.3408   23.5722   -0.7907 S   0  0  0  0  0  0  0  0  0  0  0  0
  -16.3301   24.2776   -2.1411 C   0  0  0  0  0  0  0  0  0  0  0  0
  -14.9088   24.1885   -1.6912 C   0  0  0  0  0  0  0  0  0  0  0  0
  -14.2589   25.8314   -1.7042 S   0  0  0  0  0  0  0  0  0  0  0  0
  -15.5815   26.4337   -2.7827 C   0  0  0  0  0  0  0  0  0  0  0  0
  -18.8590   27.2592   -2.8395 O   0  0  0  0  0  0  0  0  0  0  0  0
  -18.2948   27.3644   -1.7155 C   0  0  0  0  0  0  0  0  0  0  0  0
  -18.2870   28.2727   -0.8958 O   0  0  0  0  0  0  0  0  0  0  0  0
  -17.8049   28.1794   -0.0978 H   0  0  0  0  0  0  0  0  0  0  0  0
  -15.1524   26.0959   -4.2078 C   0  0  0  0  0  0  0  0  0  0  0  0
  -13.5186   26.7313   -4.6352 S   0  0  0  0  0  0  0  0  0  0  0  0
  -13.5265   28.0892   -4.5606 H   0  0  0  0  0  0  0  0  0  0  0  0
 11 12  2  0  0  0
 12 13  1  0  0  0
 12  1  1  0  0  0
  1  2  1  0  0  0
  1  3  1  0  0  0
  2  7  1  0  0  0
  2 10  1  0  0  0
  3  4  1  0  0  0
  3  5  1  0  0  0
  3  6  1  0  0  0
  6  7  1  0  0  0
  7  8  1  0  0  0
  8  9  1  0  0  0
  9 10  1  0  0  0
 10 15  1  0  0  0
 15 16  1  0  0  0
 13 14  1  0  0  0
 16 17  1  0  0  0
M  END
> <minimizedAffinity>
-4.39283

$$$$
