5UFR_88J_A_601


 35 39  0  0  0  0  0  0  0  0999 V2000
   17.0391   20.7760  -15.7026 C   0  0  0  0  0  0  0  0  0  0  0  0
   16.7539   19.4332  -15.6026 C   0  0  0  0  0  0  0  0  0  0  0  0
   17.4056   20.5085  -18.0237 C   0  0  0  0  0  0  0  0  0  0  0  0
   17.1178   19.1651  -17.9112 C   0  0  0  0  0  0  0  0  0  0  0  0
   16.8750   16.9807  -18.8739 C   0  0  0  0  0  0  0  0  0  0  0  0
   17.3640   21.3279  -16.9179 C   0  0  0  0  0  0  0  0  0  0  0  0
   16.7883   18.6044  -16.6999 C   0  0  0  0  0  0  0  0  0  0  0  0
   17.1501   18.3205  -18.9911 C   0  0  0  0  0  0  0  0  0  0  0  0
   16.5393   16.4878  -17.6342 C   0  0  0  0  0  0  0  0  0  0  0  0
   16.4932   17.3046  -16.5753 N   0  0  0  0  0  0  0  0  0  0  0  0
   17.5457   18.9484  -20.5444 Cl  0  0  0  0  0  0  0  0  0  0  0  0
   17.3828   14.6353  -22.3064 C   0  0  0  0  0  0  0  0  0  0  0  0
   16.1140   14.9086  -21.8496 C   0  0  0  0  0  0  0  0  0  0  0  0
   18.4748   15.1199  -21.6275 C   0  0  0  0  0  0  0  0  0  0  0  0
   15.9274   15.6701  -20.7187 C   0  0  0  0  0  0  0  0  0  0  0  0
   18.2878   15.8815  -20.4989 C   0  0  0  0  0  0  0  0  0  0  0  0
   17.0203   16.1528  -20.0387 C   0  0  0  0  0  0  0  0  0  0  0  0
   15.2279   14.7700  -16.5547 C   0  0  0  0  0  0  0  0  0  0  0  0
   17.5227   14.3750  -17.3511 C   0  0  0  0  0  0  0  0  0  0  0  0
   16.2820   15.1136  -17.4745 N   0  0  0  0  0  0  0  0  0  0  0  0
   17.6984   22.7802  -17.0190 C   0  0  0  0  0  0  0  0  0  0  0  0
   18.3168   23.0026  -18.2712 O   0  0  0  0  0  0  0  0  0  0  0  0
   17.6833   22.8175  -18.9821 H   0  0  0  0  0  0  0  0  0  0  0  0
   20.0856   23.0289  -16.3354 C   0  0  0  0  0  0  0  0  0  0  0  0
   18.4090   23.4334  -14.7173 C   0  0  0  0  0  0  0  0  0  0  0  0
   21.0248   23.3140  -15.3713 C   0  0  0  0  0  0  0  0  0  0  0  0
   19.4202   23.7032  -13.8199 C   0  0  0  0  0  0  0  0  0  0  0  0
   18.7503   23.0911  -15.9996 C   0  0  0  0  0  0  0  0  0  0  0  0
   20.7198   23.6526  -14.1180 N   0  0  0  0  0  0  0  0  0  0  0  0
   15.2248   23.5377  -16.6700 C   0  0  0  0  0  0  0  0  0  0  0  0
   15.4477   25.6056  -17.0772 C   0  0  0  0  0  0  0  0  0  0  0  0
   16.5597   23.7057  -16.9573 C   0  0  0  0  0  0  0  0  0  0  0  0
   17.8889   25.7465  -17.5878 C   0  0  0  0  0  0  0  0  0  0  0  0
   14.5360   24.7210  -16.7445 N   0  0  0  0  0  0  0  0  0  0  0  0
   16.6805   25.0394  -17.2123 N   0  0  0  0  0  0  0  0  0  0  0  0
 13 12  2  0  0  0
 13 15  1  0  0  0
 12 14  1  0  0  0
 15 17  2  0  0  0
 14 16  2  0  0  0
 11  8  1  0  0  0
 17 16  1  0  0  0
 17  5  1  0  0  0
  8  5  2  0  0  0
  8  4  1  0  0  0
  5  9  1  0  0  0
 22 21  1  0  0  0
 18 20  1  0  0  0
  3  4  2  0  0  0
  3  6  1  0  0  0
  4  7  1  0  0  0
 33 35  1  0  0  0
  9 20  1  0  0  0
  9 10  2  0  0  0
 20 19  1  0  0  0
 35 31  1  0  0  0
 35 32  1  0  0  0
 21 32  1  0  0  0
 21  6  1  0  0  0
 21 28  1  0  0  0
 31 34  2  0  0  0
 32 30  2  0  0  0
  6  1  2  0  0  0
 34 30  1  0  0  0
  7 10  1  0  0  0
  7  2  2  0  0  0
 24 28  2  0  0  0
 24 26  1  0  0  0
 28 25  1  0  0  0
  1  2  1  0  0  0
 26 29  2  0  0  0
 25 27  2  0  0  0
 29 27  1  0  0  0
 22 23  1  0  0  0
M  END
> <minimizedAffinity>
-10.53997

$$$$
5UFR_88J_A_601


 35 39  0  0  0  0  0  0  0  0999 V2000
   19.7306   23.4000  -18.6451 C   0  0  0  0  0  0  0  0  0  0  0  0
   19.3575   24.5565  -19.2914 C   0  0  0  0  0  0  0  0  0  0  0  0
   17.9174   23.6694  -17.1508 C   0  0  0  0  0  0  0  0  0  0  0  0
   17.5531   24.8261  -17.8062 C   0  0  0  0  0  0  0  0  0  0  0  0
   16.1190   26.7325  -18.0635 C   0  0  0  0  0  0  0  0  0  0  0  0
   19.0096   22.9426  -17.5690 C   0  0  0  0  0  0  0  0  0  0  0  0
   18.2666   25.2899  -18.8861 C   0  0  0  0  0  0  0  0  0  0  0  0
   16.4722   25.5745  -17.4165 C   0  0  0  0  0  0  0  0  0  0  0  0
   16.8689   27.1322  -19.1454 C   0  0  0  0  0  0  0  0  0  0  0  0
   17.9190   26.4039  -19.5420 N   0  0  0  0  0  0  0  0  0  0  0  0
   15.5225   25.0552  -16.0778 Cl  0  0  0  0  0  0  0  0  0  0  0  0
   12.9736   28.9504  -16.4118 C   0  0  0  0  0  0  0  0  0  0  0  0
   12.7401   28.1454  -17.5029 C   0  0  0  0  0  0  0  0  0  0  0  0
   14.2377   29.0339  -15.8797 C   0  0  0  0  0  0  0  0  0  0  0  0
   13.7628   27.4158  -18.0647 C   0  0  0  0  0  0  0  0  0  0  0  0
   15.2585   28.3041  -16.4404 C   0  0  0  0  0  0  0  0  0  0  0  0
   15.0277   27.5015  -17.5333 C   0  0  0  0  0  0  0  0  0  0  0  0
   16.0748   28.1961  -21.1636 C   0  0  0  0  0  0  0  0  0  0  0  0
   17.5764   29.3287  -19.5765 C   0  0  0  0  0  0  0  0  0  0  0  0
   16.5521   28.3308  -19.8112 N   0  0  0  0  0  0  0  0  0  0  0  0
   19.4320   21.7013  -16.8534 C   0  0  0  0  0  0  0  0  0  0  0  0
   20.5591   21.1705  -17.5224 O   0  0  0  0  0  0  0  0  0  0  0  0
   21.2999   21.7927  -17.4515 H   0  0  0  0  0  0  0  0  0  0  0  0
   17.7403   20.1235  -15.9171 C   0  0  0  0  0  0  0  0  0  0  0  0
   17.9670   20.2576  -18.2673 C   0  0  0  0  0  0  0  0  0  0  0  0
   16.7599   19.1774  -16.1085 C   0  0  0  0  0  0  0  0  0  0  0  0
   16.9745   19.3052  -18.3603 C   0  0  0  0  0  0  0  0  0  0  0  0
   18.3550   20.6744  -17.0208 C   0  0  0  0  0  0  0  0  0  0  0  0
   16.3615   18.7568  -17.3097 N   0  0  0  0  0  0  0  0  0  0  0  0
   19.1456   21.8333  -14.2621 C   0  0  0  0  0  0  0  0  0  0  0  0
   21.1529   22.2499  -13.7247 C   0  0  0  0  0  0  0  0  0  0  0  0
   19.8350   21.8754  -15.4519 C   0  0  0  0  0  0  0  0  0  0  0  0
   22.2602   22.3076  -15.9631 C   0  0  0  0  0  0  0  0  0  0  0  0
   19.9678   22.0657  -13.1898 N   0  0  0  0  0  0  0  0  0  0  0  0
   21.1203   22.1408  -15.0832 N   0  0  0  0  0  0  0  0  0  0  0  0
 13 12  2  0  0  0
 13 15  1  0  0  0
 12 14  1  0  0  0
 15 17  2  0  0  0
 14 16  2  0  0  0
 11  8  1  0  0  0
 17 16  1  0  0  0
 17  5  1  0  0  0
  8  5  2  0  0  0
  8  4  1  0  0  0
  5  9  1  0  0  0
 22 21  1  0  0  0
 18 20  1  0  0  0
  3  4  2  0  0  0
  3  6  1  0  0  0
  4  7  1  0  0  0
 33 35  1  0  0  0
  9 20  1  0  0  0
  9 10  2  0  0  0
 20 19  1  0  0  0
 35 31  1  0  0  0
 35 32  1  0  0  0
 21 32  1  0  0  0
 21  6  1  0  0  0
 21 28  1  0  0  0
 31 34  2  0  0  0
 32 30  2  0  0  0
  6  1  2  0  0  0
 34 30  1  0  0  0
  7 10  1  0  0  0
  7  2  2  0  0  0
 24 28  2  0  0  0
 24 26  1  0  0  0
 28 25  1  0  0  0
  1  2  1  0  0  0
 26 29  2  0  0  0
 25 27  2  0  0  0
 29 27  1  0  0  0
 22 23  1  0  0  0
M  END
> <minimizedAffinity>
-8.65280

$$$$
5UFR_88J_A_601


 35 39  0  0  0  0  0  0  0  0999 V2000
   17.2068   20.7214  -15.3109 C   0  0  0  0  0  0  0  0  0  0  0  0
   16.8486   19.3933  -15.2634 C   0  0  0  0  0  0  0  0  0  0  0  0
   17.5772   20.5214  -17.6381 C   0  0  0  0  0  0  0  0  0  0  0  0
   17.2163   19.1924  -17.5783 C   0  0  0  0  0  0  0  0  0  0  0  0
   16.8636   17.0619  -18.6242 C   0  0  0  0  0  0  0  0  0  0  0  0
   17.5710   21.2999  -16.5024 C   0  0  0  0  0  0  0  0  0  0  0  0
   16.8471   18.6055  -16.3910 C   0  0  0  0  0  0  0  0  0  0  0  0
   17.2117   18.3882  -18.6890 C   0  0  0  0  0  0  0  0  0  0  0  0
   16.4917   16.5420  -17.4060 C   0  0  0  0  0  0  0  0  0  0  0  0
   16.4812   17.3199  -16.3174 N   0  0  0  0  0  0  0  0  0  0  0  0
   17.6533   19.0514  -20.2150 Cl  0  0  0  0  0  0  0  0  0  0  0  0
   17.2701   14.8241  -22.1410 C   0  0  0  0  0  0  0  0  0  0  0  0
   16.0142   15.1239  -21.6656 C   0  0  0  0  0  0  0  0  0  0  0  0
   18.3820   15.2468  -21.4533 C   0  0  0  0  0  0  0  0  0  0  0  0
   15.8606   15.8507  -20.5072 C   0  0  0  0  0  0  0  0  0  0  0  0
   18.2281   15.9737  -20.2971 C   0  0  0  0  0  0  0  0  0  0  0  0
   16.9734   16.2714  -19.8185 C   0  0  0  0  0  0  0  0  0  0  0  0
   15.1406   14.8492  -16.3360 C   0  0  0  0  0  0  0  0  0  0  0  0
   17.3566   14.3627  -17.2896 C   0  0  0  0  0  0  0  0  0  0  0  0
   16.1591   15.1787  -17.3000 N   0  0  0  0  0  0  0  0  0  0  0  0
   17.9842   22.7347  -16.5466 C   0  0  0  0  0  0  0  0  0  0  0  0
   18.5093   23.0800  -15.2797 O   0  0  0  0  0  0  0  0  0  0  0  0
   19.3162   22.5679  -15.1137 H   0  0  0  0  0  0  0  0  0  0  0  0
   16.8191   24.9416  -16.5617 C   0  0  0  0  0  0  0  0  0  0  0  0
   15.5407   22.9970  -16.9825 C   0  0  0  0  0  0  0  0  0  0  0  0
   15.6665   25.6789  -16.7061 C   0  0  0  0  0  0  0  0  0  0  0  0
   14.4400   23.8174  -17.1107 C   0  0  0  0  0  0  0  0  0  0  0  0
   16.7529   23.5724  -16.7039 C   0  0  0  0  0  0  0  0  0  0  0  0
   14.4757   25.1448  -16.9801 N   0  0  0  0  0  0  0  0  0  0  0  0
   19.0393   23.8582  -18.6534 C   0  0  0  0  0  0  0  0  0  0  0  0
   21.0047   23.0806  -18.4981 C   0  0  0  0  0  0  0  0  0  0  0  0
   19.0265   23.0715  -17.5248 C   0  0  0  0  0  0  0  0  0  0  0  0
   20.8192   21.6815  -16.4370 C   0  0  0  0  0  0  0  0  0  0  0  0
   20.2709   23.8626  -19.2560 N   0  0  0  0  0  0  0  0  0  0  0  0
   20.2976   22.5855  -17.4429 N   0  0  0  0  0  0  0  0  0  0  0  0
 13 12  2  0  0  0
 13 15  1  0  0  0
 12 14  1  0  0  0
 15 17  2  0  0  0
 14 16  2  0  0  0
 11  8  1  0  0  0
 17 16  1  0  0  0
 17  5  1  0  0  0
  8  5  2  0  0  0
  8  4  1  0  0  0
  5  9  1  0  0  0
 22 21  1  0  0  0
 18 20  1  0  0  0
  3  4  2  0  0  0
  3  6  1  0  0  0
  4  7  1  0  0  0
 33 35  1  0  0  0
  9 20  1  0  0  0
  9 10  2  0  0  0
 20 19  1  0  0  0
 35 31  1  0  0  0
 35 32  1  0  0  0
 21 32  1  0  0  0
 21  6  1  0  0  0
 21 28  1  0  0  0
 31 34  2  0  0  0
 32 30  2  0  0  0
  6  1  2  0  0  0
 34 30  1  0  0  0
  7 10  1  0  0  0
  7  2  2  0  0  0
 24 28  2  0  0  0
 24 26  1  0  0  0
 28 25  1  0  0  0
  1  2  1  0  0  0
 26 29  2  0  0  0
 25 27  2  0  0  0
 29 27  1  0  0  0
 22 23  1  0  0  0
M  END
> <minimizedAffinity>
-8.61169

$$$$
5UFR_88J_A_601


 35 39  0  0  0  0  0  0  0  0999 V2000
   17.4947   21.1303  -18.8597 C   0  0  0  0  0  0  0  0  0  0  0  0
   17.2837   19.8067  -19.1729 C   0  0  0  0  0  0  0  0  0  0  0  0
   17.4670   20.5738  -16.5613 C   0  0  0  0  0  0  0  0  0  0  0  0
   17.2560   19.2511  -16.8871 C   0  0  0  0  0  0  0  0  0  0  0  0
   16.9033   16.9627  -16.2578 C   0  0  0  0  0  0  0  0  0  0  0  0
   17.5929   21.5260  -17.5479 C   0  0  0  0  0  0  0  0  0  0  0  0
   17.1598   18.8451  -18.1971 C   0  0  0  0  0  0  0  0  0  0  0  0
   17.1256   18.2772  -15.9306 C   0  0  0  0  0  0  0  0  0  0  0  0
   16.8309   16.6232  -17.5890 C   0  0  0  0  0  0  0  0  0  0  0  0
   16.9683   17.5631  -18.5315 N   0  0  0  0  0  0  0  0  0  0  0  0
   17.2429   18.7046  -14.2671 Cl  0  0  0  0  0  0  0  0  0  0  0  0
   16.3889   14.1976  -13.1545 C   0  0  0  0  0  0  0  0  0  0  0  0
   15.4322   14.3041  -14.1376 C   0  0  0  0  0  0  0  0  0  0  0  0
   17.4987   15.0072  -13.1877 C   0  0  0  0  0  0  0  0  0  0  0  0
   15.5795   15.2128  -15.1605 C   0  0  0  0  0  0  0  0  0  0  0  0
   17.6460   15.9136  -14.2102 C   0  0  0  0  0  0  0  0  0  0  0  0
   16.6889   16.0240  -15.1919 C   0  0  0  0  0  0  0  0  0  0  0  0
   17.6915   14.3849  -17.8814 C   0  0  0  0  0  0  0  0  0  0  0  0
   15.7750   15.2414  -19.1660 C   0  0  0  0  0  0  0  0  0  0  0  0
   16.5731   15.2897  -17.9574 N   0  0  0  0  0  0  0  0  0  0  0  0
   17.7959   22.9668  -17.2101 C   0  0  0  0  0  0  0  0  0  0  0  0
   18.5000   23.5731  -18.2762 O   0  0  0  0  0  0  0  0  0  0  0  0
   17.9530   23.5542  -19.0771 H   0  0  0  0  0  0  0  0  0  0  0  0
   20.0829   22.9677  -16.2110 C   0  0  0  0  0  0  0  0  0  0  0  0
   18.2272   23.1908  -14.7620 C   0  0  0  0  0  0  0  0  0  0  0  0
   20.8997   23.0377  -15.1062 C   0  0  0  0  0  0  0  0  0  0  0  0
   19.1235   23.2528  -13.7163 C   0  0  0  0  0  0  0  0  0  0  0  0
   18.7184   23.0468  -16.0332 C   0  0  0  0  0  0  0  0  0  0  0  0
   20.4482   23.1808  -13.8596 N   0  0  0  0  0  0  0  0  0  0  0  0
   15.2550   23.4244  -16.8245 C   0  0  0  0  0  0  0  0  0  0  0  0
   15.2901   25.5433  -16.8442 C   0  0  0  0  0  0  0  0  0  0  0  0
   16.5739   23.7603  -17.0261 C   0  0  0  0  0  0  0  0  0  0  0  0
   17.7173   25.9921  -17.2283 C   0  0  0  0  0  0  0  0  0  0  0  0
   14.4593   24.5352  -16.7108 N   0  0  0  0  0  0  0  0  0  0  0  0
   16.5734   25.1235  -17.0322 N   0  0  0  0  0  0  0  0  0  0  0  0
 13 12  2  0  0  0
 13 15  1  0  0  0
 12 14  1  0  0  0
 15 17  2  0  0  0
 14 16  2  0  0  0
 11  8  1  0  0  0
 17 16  1  0  0  0
 17  5  1  0  0  0
  8  5  2  0  0  0
  8  4  1  0  0  0
  5  9  1  0  0  0
 22 21  1  0  0  0
 18 20  1  0  0  0
  3  4  2  0  0  0
  3  6  1  0  0  0
  4  7  1  0  0  0
 33 35  1  0  0  0
  9 20  1  0  0  0
  9 10  2  0  0  0
 20 19  1  0  0  0
 35 31  1  0  0  0
 35 32  1  0  0  0
 21 32  1  0  0  0
 21  6  1  0  0  0
 21 28  1  0  0  0
 31 34  2  0  0  0
 32 30  2  0  0  0
  6  1  2  0  0  0
 34 30  1  0  0  0
  7 10  1  0  0  0
  7  2  2  0  0  0
 24 28  2  0  0  0
 24 26  1  0  0  0
 28 25  1  0  0  0
  1  2  1  0  0  0
 26 29  2  0  0  0
 25 27  2  0  0  0
 29 27  1  0  0  0
 22 23  1  0  0  0
M  END
> <minimizedAffinity>
-8.14271

$$$$
5UFR_88J_A_601


 35 39  0  0  0  0  0  0  0  0999 V2000
   17.7863   21.6789  -17.9984 C   0  0  0  0  0  0  0  0  0  0  0  0
   17.6829   20.7392  -18.9988 C   0  0  0  0  0  0  0  0  0  0  0  0
   17.3317   19.9996  -16.3964 C   0  0  0  0  0  0  0  0  0  0  0  0
   17.2308   19.0673  -17.4067 C   0  0  0  0  0  0  0  0  0  0  0  0
   16.8371   16.8251  -18.1649 C   0  0  0  0  0  0  0  0  0  0  0  0
   17.6155   21.3157  -16.6846 C   0  0  0  0  0  0  0  0  0  0  0  0
   17.4034   19.4206  -18.7241 C   0  0  0  0  0  0  0  0  0  0  0  0
   16.9491   17.7489  -17.1557 C   0  0  0  0  0  0  0  0  0  0  0  0
   17.0350   17.2440  -19.4602 C   0  0  0  0  0  0  0  0  0  0  0  0
   17.3219   18.5256  -19.7164 N   0  0  0  0  0  0  0  0  0  0  0  0
   16.7279   17.2259  -15.5306 Cl  0  0  0  0  0  0  0  0  0  0  0  0
   15.7346   12.8859  -17.2659 C   0  0  0  0  0  0  0  0  0  0  0  0
   14.9830   13.9313  -16.7807 C   0  0  0  0  0  0  0  0  0  0  0  0
   16.8489   13.1392  -18.0290 C   0  0  0  0  0  0  0  0  0  0  0  0
   15.3344   15.2325  -17.0583 C   0  0  0  0  0  0  0  0  0  0  0  0
   17.1987   14.4389  -18.3070 C   0  0  0  0  0  0  0  0  0  0  0  0
   16.4506   15.4854  -17.8199 C   0  0  0  0  0  0  0  0  0  0  0  0
   17.9834   16.2856  -21.4647 C   0  0  0  0  0  0  0  0  0  0  0  0
   15.5565   16.3842  -21.0682 C   0  0  0  0  0  0  0  0  0  0  0  0
   16.8968   16.3285  -20.5199 N   0  0  0  0  0  0  0  0  0  0  0  0
   17.7026   22.3424  -15.6031 C   0  0  0  0  0  0  0  0  0  0  0  0
   16.6970   22.0621  -14.6491 O   0  0  0  0  0  0  0  0  0  0  0  0
   16.8788   21.2067  -14.2296 H   0  0  0  0  0  0  0  0  0  0  0  0
   16.0088   24.0419  -16.2894 C   0  0  0  0  0  0  0  0  0  0  0  0
   18.2954   24.5356  -16.6366 C   0  0  0  0  0  0  0  0  0  0  0  0
   15.7051   25.2667  -16.8376 C   0  0  0  0  0  0  0  0  0  0  0  0
   17.8952   25.7423  -17.1699 C   0  0  0  0  0  0  0  0  0  0  0  0
   17.3321   23.6707  -16.1870 C   0  0  0  0  0  0  0  0  0  0  0  0
   16.6225   26.1278  -17.2795 N   0  0  0  0  0  0  0  0  0  0  0  0
   20.2190   21.8637  -15.1005 C   0  0  0  0  0  0  0  0  0  0  0  0
   20.3869   22.8720  -13.2439 C   0  0  0  0  0  0  0  0  0  0  0  0
   18.9685   22.3843  -14.8598 C   0  0  0  0  0  0  0  0  0  0  0  0
   18.0636   23.7391  -12.9427 C   0  0  0  0  0  0  0  0  0  0  0  0
   21.0991   22.1693  -14.0945 N   0  0  0  0  0  0  0  0  0  0  0  0
   19.1001   23.0291  -13.6659 N   0  0  0  0  0  0  0  0  0  0  0  0
 13 12  2  0  0  0
 13 15  1  0  0  0
 12 14  1  0  0  0
 15 17  2  0  0  0
 14 16  2  0  0  0
 11  8  1  0  0  0
 17 16  1  0  0  0
 17  5  1  0  0  0
  8  5  2  0  0  0
  8  4  1  0  0  0
  5  9  1  0  0  0
 22 21  1  0  0  0
 18 20  1  0  0  0
  3  4  2  0  0  0
  3  6  1  0  0  0
  4  7  1  0  0  0
 33 35  1  0  0  0
  9 20  1  0  0  0
  9 10  2  0  0  0
 20 19  1  0  0  0
 35 31  1  0  0  0
 35 32  1  0  0  0
 21 32  1  0  0  0
 21  6  1  0  0  0
 21 28  1  0  0  0
 31 34  2  0  0  0
 32 30  2  0  0  0
  6  1  2  0  0  0
 34 30  1  0  0  0
  7 10  1  0  0  0
  7  2  2  0  0  0
 24 28  2  0  0  0
 24 26  1  0  0  0
 28 25  1  0  0  0
  1  2  1  0  0  0
 26 29  2  0  0  0
 25 27  2  0  0  0
 29 27  1  0  0  0
 22 23  1  0  0  0
M  END
> <minimizedAffinity>
-8.08986

$$$$
5UFR_88J_A_601


 35 39  0  0  0  0  0  0  0  0999 V2000
   16.2690   19.8062  -15.9405 C   0  0  0  0  0  0  0  0  0  0  0  0
   16.0430   18.4499  -16.0020 C   0  0  0  0  0  0  0  0  0  0  0  0
   17.0543   19.7600  -18.1708 C   0  0  0  0  0  0  0  0  0  0  0  0
   16.8237   18.4019  -18.2207 C   0  0  0  0  0  0  0  0  0  0  0  0
   16.8727   16.3038  -19.3838 C   0  0  0  0  0  0  0  0  0  0  0  0
   16.7737   20.4759  -17.0285 C   0  0  0  0  0  0  0  0  0  0  0  0
   16.3156   17.7237  -17.1380 C   0  0  0  0  0  0  0  0  0  0  0  0
   17.0919   17.6583  -19.3411 C   0  0  0  0  0  0  0  0  0  0  0  0
   16.3499   15.6903  -18.2689 C   0  0  0  0  0  0  0  0  0  0  0  0
   16.0733   16.4076  -17.1738 N   0  0  0  0  0  0  0  0  0  0  0  0
   17.7219   18.4362  -20.7416 Cl  0  0  0  0  0  0  0  0  0  0  0  0
   18.1140   14.2833  -22.8360 C   0  0  0  0  0  0  0  0  0  0  0  0
   16.7875   14.6136  -22.6798 C   0  0  0  0  0  0  0  0  0  0  0  0
   19.0203   14.6043  -21.8543 C   0  0  0  0  0  0  0  0  0  0  0  0
   16.3593   15.2698  -21.5485 C   0  0  0  0  0  0  0  0  0  0  0  0
   18.5924   15.2608  -20.7253 C   0  0  0  0  0  0  0  0  0  0  0  0
   17.2661   15.5886  -20.5657 C   0  0  0  0  0  0  0  0  0  0  0  0
   14.9327   13.8389  -17.6367 C   0  0  0  0  0  0  0  0  0  0  0  0
   17.3654   13.6022  -17.9236 C   0  0  0  0  0  0  0  0  0  0  0  0
   16.1425   14.2985  -18.2694 N   0  0  0  0  0  0  0  0  0  0  0  0
   17.0422   21.9432  -16.9504 C   0  0  0  0  0  0  0  0  0  0  0  0
   15.9886   22.6184  -17.6090 O   0  0  0  0  0  0  0  0  0  0  0  0
   15.1584   22.4663  -17.1309 H   0  0  0  0  0  0  0  0  0  0  0  0
   18.5778   23.5375  -18.1030 C   0  0  0  0  0  0  0  0  0  0  0  0
   19.0930   21.2307  -18.1818 C   0  0  0  0  0  0  0  0  0  0  0  0
   19.7066   23.7716  -18.8539 C   0  0  0  0  0  0  0  0  0  0  0  0
   20.2028   21.5623  -18.9297 C   0  0  0  0  0  0  0  0  0  0  0  0
   18.2665   22.2393  -17.7602 C   0  0  0  0  0  0  0  0  0  0  0  0
   20.5289   22.8094  -19.2740 N   0  0  0  0  0  0  0  0  0  0  0  0
   16.2478   23.2963  -14.8642 C   0  0  0  0  0  0  0  0  0  0  0  0
   17.9209   22.9788  -13.6027 C   0  0  0  0  0  0  0  0  0  0  0  0
   17.1073   22.5116  -15.5978 C   0  0  0  0  0  0  0  0  0  0  0  0
   19.3775   21.5688  -15.0623 C   0  0  0  0  0  0  0  0  0  0  0  0
   16.7559   23.5844  -13.6238 N   0  0  0  0  0  0  0  0  0  0  0  0
   18.1718   22.3180  -14.7684 N   0  0  0  0  0  0  0  0  0  0  0  0
 13 12  2  0  0  0
 13 15  1  0  0  0
 12 14  1  0  0  0
 15 17  2  0  0  0
 14 16  2  0  0  0
 11  8  1  0  0  0
 17 16  1  0  0  0
 17  5  1  0  0  0
  8  5  2  0  0  0
  8  4  1  0  0  0
  5  9  1  0  0  0
 22 21  1  0  0  0
 18 20  1  0  0  0
  3  4  2  0  0  0
  3  6  1  0  0  0
  4  7  1  0  0  0
 33 35  1  0  0  0
  9 20  1  0  0  0
  9 10  2  0  0  0
 20 19  1  0  0  0
 35 31  1  0  0  0
 35 32  1  0  0  0
 21 32  1  0  0  0
 21  6  1  0  0  0
 21 28  1  0  0  0
 31 34  2  0  0  0
 32 30  2  0  0  0
  6  1  2  0  0  0
 34 30  1  0  0  0
  7 10  1  0  0  0
  7  2  2  0  0  0
 24 28  2  0  0  0
 24 26  1  0  0  0
 28 25  1  0  0  0
  1  2  1  0  0  0
 26 29  2  0  0  0
 25 27  2  0  0  0
 29 27  1  0  0  0
 22 23  1  0  0  0
M  END
> <minimizedAffinity>
-7.92658

$$$$
