4I72_UA2_A_402


 26 28  0  0  0  0  0  0  0  0999 V2000
   19.6068   48.2893    9.4914 C   0  0  0  0  0  0  0  0  0  0  0  0
   20.5418   47.1976    9.3416 N   0  0  0  0  0  0  0  0  0  0  0  0
   18.2678   47.5943    9.2519 C   0  0  0  0  0  0  0  0  0  0  0  0
   17.8657   47.8699    7.8960 O   0  0  0  0  0  0  0  0  0  0  0  0
   18.4607   46.1112    9.6183 C   0  0  0  0  0  0  0  0  0  0  0  0
   17.7638   45.2616    8.7322 O   0  0  0  0  0  0  0  0  0  0  0  0
   19.9800   45.8772    9.5540 C   0  0  0  0  0  0  0  0  0  0  0  0
   21.2965   47.3325   10.0143 H   0  0  0  0  0  0  0  0  0  0  0  0
   18.5585   47.5714    7.2862 H   0  0  0  0  0  0  0  0  0  0  0  0
   18.0750   45.4140    7.8262 H   0  0  0  0  0  0  0  0  0  0  0  0
   19.2994   42.0063   11.9582 C   0  0  0  0  0  0  0  0  0  0  0  0
   20.0618   44.1306   11.4899 C   0  0  0  0  0  0  0  0  0  0  0  0
   20.7195   44.2320   12.7874 C   0  0  0  0  0  0  0  0  0  0  0  0
   20.5588   43.0680   13.6562 C   0  0  0  0  0  0  0  0  0  0  0  0
   20.4176   45.4107   10.8713 C   0  0  0  0  0  0  0  0  0  0  0  0
   19.3938   43.0430   11.0868 N   0  0  0  0  0  0  0  0  0  0  0  0
   19.8413   42.0253   13.1840 N   0  0  0  0  0  0  0  0  0  0  0  0
   21.1655   46.1522   11.7782 C   0  0  0  0  0  0  0  0  0  0  0  0
   21.3277   45.4161   12.9055 N   0  0  0  0  0  0  0  0  0  0  0  0
   21.1281   43.0896   14.8770 N   0  0  0  0  0  0  0  0  0  0  0  0
   21.8252   45.7131   13.7015 H   0  0  0  0  0  0  0  0  0  0  0  0
   21.6404   43.8786   15.1674 H   0  0  0  0  0  0  0  0  0  0  0  0
   21.0319   42.3163   15.4787 H   0  0  0  0  0  0  0  0  0  0  0  0
   21.0414   49.4357   11.0984 O   0  0  0  0  0  0  0  0  0  0  0  0
   19.7083   48.9049   10.8783 C   0  0  0  0  0  0  0  0  0  0  0  0
   21.0922   49.8248   11.9855 H   0  0  0  0  0  0  0  0  0  0  0  0
 11 17  2  0  0  0
 11 16  1  0  0  0
 12 16  2  0  0  0
 12 13  1  0  0  0
 12 15  1  0  0  0
 13 14  2  0  0  0
 13 19  1  0  0  0
 14 17  1  0  0  0
 14 20  1  0  0  0
 24 25  1  0  0  0
 25  1  1  0  0  0
  1  3  1  0  0  0
  1  2  1  0  0  0
  2  7  1  0  0  0
  3  4  1  0  0  0
  3  5  1  0  0  0
  5  6  1  0  0  0
  5  7  1  0  0  0
  7 15  1  0  0  0
 15 18  2  0  0  0
 18 19  1  0  0  0
 24 26  1  0  0  0
  2  8  1  0  0  0
  4  9  1  0  0  0
  6 10  1  0  0  0
 19 21  1  0  0  0
 20 22  1  0  0  0
 20 23  1  0  0  0
M  END
> <minimizedAffinity>
-10.95975

$$$$
4I72_UA2_A_402


 26 28  0  0  0  0  0  0  0  0999 V2000
   19.5374   48.0283    9.4884 C   0  0  0  0  0  0  0  0  0  0  0  0
   20.3299   46.8292    9.3382 N   0  0  0  0  0  0  0  0  0  0  0  0
   18.1467   47.5408    9.0866 C   0  0  0  0  0  0  0  0  0  0  0  0
   17.9129   47.9518    7.7255 O   0  0  0  0  0  0  0  0  0  0  0  0
   18.1071   46.0256    9.3581 C   0  0  0  0  0  0  0  0  0  0  0  0
   17.3899   45.3362    8.3565 O   0  0  0  0  0  0  0  0  0  0  0  0
   19.5814   45.5886    9.4051 C   0  0  0  0  0  0  0  0  0  0  0  0
   21.0297   46.8172   10.0802 H   0  0  0  0  0  0  0  0  0  0  0  0
   18.6141   47.5984    7.1560 H   0  0  0  0  0  0  0  0  0  0  0  0
   17.8018   45.4994    7.4936 H   0  0  0  0  0  0  0  0  0  0  0  0
   22.3712   46.6288   12.9212 C   0  0  0  0  0  0  0  0  0  0  0  0
   20.8025   45.4553   11.7065 C   0  0  0  0  0  0  0  0  0  0  0  0
   20.6534   44.4647   12.7661 C   0  0  0  0  0  0  0  0  0  0  0  0
   21.5056   44.6743   13.9346 C   0  0  0  0  0  0  0  0  0  0  0  0
   19.8287   44.9863   10.7168 C   0  0  0  0  0  0  0  0  0  0  0  0
   21.6201   46.5113   11.7964 N   0  0  0  0  0  0  0  0  0  0  0  0
   22.3262   45.7475   13.9300 N   0  0  0  0  0  0  0  0  0  0  0  0
   19.2401   43.8188   11.1882 C   0  0  0  0  0  0  0  0  0  0  0  0
   19.7536   43.5422   12.4125 N   0  0  0  0  0  0  0  0  0  0  0  0
   21.4341   43.7946   14.9525 N   0  0  0  0  0  0  0  0  0  0  0  0
   19.4985   42.7682   12.9649 H   0  0  0  0  0  0  0  0  0  0  0  0
   20.8162   43.0300   14.8997 H   0  0  0  0  0  0  0  0  0  0  0  0
   21.9997   43.9164   15.7490 H   0  0  0  0  0  0  0  0  0  0  0  0
   20.7154   49.4370   11.0955 O   0  0  0  0  0  0  0  0  0  0  0  0
   19.5893   48.5378   10.9204 C   0  0  0  0  0  0  0  0  0  0  0  0
   20.7366   49.7541   12.0119 H   0  0  0  0  0  0  0  0  0  0  0  0
 11 17  2  0  0  0
 11 16  1  0  0  0
 12 16  2  0  0  0
 12 13  1  0  0  0
 12 15  1  0  0  0
 13 14  2  0  0  0
 13 19  1  0  0  0
 14 17  1  0  0  0
 14 20  1  0  0  0
 24 25  1  0  0  0
 25  1  1  0  0  0
  1  3  1  0  0  0
  1  2  1  0  0  0
  2  7  1  0  0  0
  3  4  1  0  0  0
  3  5  1  0  0  0
  5  6  1  0  0  0
  5  7  1  0  0  0
  7 15  1  0  0  0
 15 18  2  0  0  0
 18 19  1  0  0  0
 24 26  1  0  0  0
  2  8  1  0  0  0
  4  9  1  0  0  0
  6 10  1  0  0  0
 19 21  1  0  0  0
 20 22  1  0  0  0
 20 23  1  0  0  0
M  END
> <minimizedAffinity>
-9.01181

$$$$
4I72_UA2_A_402


 26 28  0  0  0  0  0  0  0  0999 V2000
   19.0180   46.7055    8.8710 C   0  0  0  0  0  0  0  0  0  0  0  0
   20.1048   45.7816    9.1023 N   0  0  0  0  0  0  0  0  0  0  0  0
   17.8390   45.9733    9.5092 C   0  0  0  0  0  0  0  0  0  0  0  0
   17.0903   45.3410    8.4529 O   0  0  0  0  0  0  0  0  0  0  0  0
   18.4212   45.0396   10.5863 C   0  0  0  0  0  0  0  0  0  0  0  0
   17.7385   43.8047   10.6284 O   0  0  0  0  0  0  0  0  0  0  0  0
   19.9002   44.8592   10.2029 C   0  0  0  0  0  0  0  0  0  0  0  0
   20.9461   46.3246    9.2966 H   0  0  0  0  0  0  0  0  0  0  0  0
   17.6737   44.7494    7.9524 H   0  0  0  0  0  0  0  0  0  0  0  0
   17.7960   43.3737    9.7614 H   0  0  0  0  0  0  0  0  0  0  0  0
   20.7851   43.1740   14.3987 C   0  0  0  0  0  0  0  0  0  0  0  0
   20.8466   44.6440   12.6243 C   0  0  0  0  0  0  0  0  0  0  0  0
   21.7150   45.5614   13.3527 C   0  0  0  0  0  0  0  0  0  0  0  0
   22.0535   45.1462   14.7124 C   0  0  0  0  0  0  0  0  0  0  0  0
   20.7145   45.3186   11.3299 C   0  0  0  0  0  0  0  0  0  0  0  0
   20.4170   43.4809   13.1285 N   0  0  0  0  0  0  0  0  0  0  0  0
   21.5509   43.9729   15.1550 N   0  0  0  0  0  0  0  0  0  0  0  0
   21.4171   46.5169   11.3772 C   0  0  0  0  0  0  0  0  0  0  0  0
   22.0024   46.6245   12.5958 N   0  0  0  0  0  0  0  0  0  0  0  0
   22.8434   45.9464   15.4545 N   0  0  0  0  0  0  0  0  0  0  0  0
   22.5622   47.3817   12.8832 H   0  0  0  0  0  0  0  0  0  0  0  0
   23.1806   46.7913   15.0781 H   0  0  0  0  0  0  0  0  0  0  0  0
   23.0834   45.6862   16.3731 H   0  0  0  0  0  0  0  0  0  0  0  0
   20.6183   48.5257    9.1552 O   0  0  0  0  0  0  0  0  0  0  0  0
   19.2983   48.0489    9.5264 C   0  0  0  0  0  0  0  0  0  0  0  0
   20.7840   49.3821    9.5795 H   0  0  0  0  0  0  0  0  0  0  0  0
 11 17  2  0  0  0
 11 16  1  0  0  0
 12 16  2  0  0  0
 12 13  1  0  0  0
 12 15  1  0  0  0
 13 14  2  0  0  0
 13 19  1  0  0  0
 14 17  1  0  0  0
 14 20  1  0  0  0
 24 25  1  0  0  0
 25  1  1  0  0  0
  1  3  1  0  0  0
  1  2  1  0  0  0
  2  7  1  0  0  0
  3  4  1  0  0  0
  3  5  1  0  0  0
  5  6  1  0  0  0
  5  7  1  0  0  0
  7 15  1  0  0  0
 15 18  2  0  0  0
 18 19  1  0  0  0
 24 26  1  0  0  0
  2  8  1  0  0  0
  4  9  1  0  0  0
  6 10  1  0  0  0
 19 21  1  0  0  0
 20 22  1  0  0  0
 20 23  1  0  0  0
M  END
> <minimizedAffinity>
-8.80268

$$$$
