5J9X_6GC_A_301


 32 34  0  0  0  0  0  0  0  0999 V2000
   -0.0403   33.0531  -22.8770 C   0  0  0  0  0  0  0  0  0  0  0  0
   -1.3544   33.3990  -23.1965 C   0  0  0  0  0  0  0  0  0  0  0  0
    1.0610   33.4375  -23.7618 C   0  0  0  0  0  0  0  0  0  0  0  0
   -1.6105   34.1304  -24.3572 C   0  0  0  0  0  0  0  0  0  0  0  0
   -0.4931   34.4954  -25.2341 C   0  0  0  0  0  0  0  0  0  0  0  0
    0.7823   34.1376  -24.8964 C   0  0  0  0  0  0  0  0  0  0  0  0
   -2.8636   34.4916  -24.7326 O   0  0  0  0  0  0  0  0  0  0  0  0
    0.2463   32.3578  -21.7540 O   0  0  0  0  0  0  0  0  0  0  0  0
   -3.5964   34.2716  -24.1918 H   0  0  0  0  0  0  0  0  0  0  0  0
   -0.4427   32.1013  -21.1731 H   0  0  0  0  0  0  0  0  0  0  0  0
   -0.6951   35.2985  -26.4369 C   0  0  0  0  0  0  0  0  0  0  0  0
   -0.5836   37.0038  -27.8166 C   0  0  0  0  0  0  0  0  0  0  0  0
   -1.4895   34.9947  -27.5011 N   0  0  0  0  0  0  0  0  0  0  0  0
   -0.2005   36.5472  -26.6480 N   0  0  0  0  0  0  0  0  0  0  0  0
   -1.3764   36.0923  -28.3665 N   0  0  0  0  0  0  0  0  0  0  0  0
   -0.2576   38.1464  -28.2795 O   0  0  0  0  0  0  0  0  0  0  0  0
   -1.8157   36.1740  -29.2437 H   0  0  0  0  0  0  0  0  0  0  0  0
    0.0881   37.9890  -24.7566 C   0  0  0  0  0  0  0  0  0  0  0  0
    0.5992   37.2255  -25.8027 C   0  0  0  0  0  0  0  0  0  0  0  0
    2.2454   38.6474  -23.9286 C   0  0  0  0  0  0  0  0  0  0  0  0
    2.0631   37.2167  -25.8802 C   0  0  0  0  0  0  0  0  0  0  0  0
    2.8442   37.9114  -24.9554 C   0  0  0  0  0  0  0  0  0  0  0  0
    0.8629   38.6790  -23.8251 C   0  0  0  0  0  0  0  0  0  0  0  0
    2.5938   36.5146  -26.8905 F   0  0  0  0  0  0  0  0  0  0  0  0
    2.5178   33.0693  -23.5785 C   0  0  0  0  0  0  0  0  0  0  0  0
    2.9686   31.9292  -24.1299 N   0  0  0  0  0  0  0  0  0  0  0  0
    3.2601   33.8456  -23.0247 O   0  0  0  0  0  0  0  0  0  0  0  0
    2.0478   30.9196  -24.6258 C   0  0  0  0  0  0  0  0  0  0  0  0
    4.4045   31.5439  -24.2851 C   0  0  0  0  0  0  0  0  0  0  0  0
    4.5392   30.1250  -24.8678 C   0  0  0  0  0  0  0  0  0  0  0  0
    6.7324   30.8002  -25.8416 C   0  0  0  0  0  0  0  0  0  0  0  0
    5.4197   30.1149  -26.1159 C   0  0  0  0  0  0  0  0  0  0  0  0
  8  1  1  0  0  0
 27 25  2  0  0  0
  1  2  2  0  0  0
  1  3  1  0  0  0
 25  3  1  0  0  0
 25 26  1  0  0  0
  2  4  1  0  0  0
 23 20  2  0  0  0
 23 18  1  0  0  0
  3  6  2  0  0  0
 20 22  1  0  0  0
 29 26  1  0  0  0
 29 30  1  0  0  0
 26 28  1  0  0  0
 18 19  2  0  0  0
  4  7  1  0  0  0
  4  5  2  0  0  0
 22 21  2  0  0  0
  6  5  1  0  0  0
 32 30  1  0  0  0
 32 31  1  0  0  0
  5 11  1  0  0  0
 19 21  1  0  0  0
 19 14  1  0  0  0
 21 24  1  0  0  0
 11 14  1  0  0  0
 11 13  2  0  0  0
 14 12  1  0  0  0
 13 15  1  0  0  0
 12 16  2  0  0  0
 12 15  1  0  0  0
  7  9  1  0  0  0
  8 10  1  0  0  0
 15 17  1  0  0  0
M  END
> <minimizedAffinity>
-10.45993

$$$$
5J9X_6GC_A_301


 32 34  0  0  0  0  0  0  0  0999 V2000
   -0.1083   33.0751  -22.8858 C   0  0  0  0  0  0  0  0  0  0  0  0
   -1.4162   33.4018  -23.2481 C   0  0  0  0  0  0  0  0  0  0  0  0
    1.0142   33.4600  -23.7434 C   0  0  0  0  0  0  0  0  0  0  0  0
   -1.6463   34.1146  -24.4257 C   0  0  0  0  0  0  0  0  0  0  0  0
   -0.5078   34.4804  -25.2747 C   0  0  0  0  0  0  0  0  0  0  0  0
    0.7610   34.1416  -24.8951 C   0  0  0  0  0  0  0  0  0  0  0  0
   -2.8917   34.4565  -24.8423 O   0  0  0  0  0  0  0  0  0  0  0  0
    0.1529   32.3983  -21.7454 O   0  0  0  0  0  0  0  0  0  0  0  0
   -3.6376   34.2355  -24.3200 H   0  0  0  0  0  0  0  0  0  0  0  0
   -0.5500   32.1419  -21.1814 H   0  0  0  0  0  0  0  0  0  0  0  0
   -0.6833   35.2649  -26.4938 C   0  0  0  0  0  0  0  0  0  0  0  0
   -0.4675   36.9112  -27.9316 C   0  0  0  0  0  0  0  0  0  0  0  0
   -1.5489   35.0103  -27.5145 N   0  0  0  0  0  0  0  0  0  0  0  0
   -0.0799   36.4526  -26.7653 N   0  0  0  0  0  0  0  0  0  0  0  0
   -1.3678   36.0665  -28.4190 N   0  0  0  0  0  0  0  0  0  0  0  0
   -0.0530   38.0027  -28.4443 O   0  0  0  0  0  0  0  0  0  0  0  0
   -1.8350   36.1659  -29.2799 H   0  0  0  0  0  0  0  0  0  0  0  0
    2.1802   36.7961  -26.0486 C   0  0  0  0  0  0  0  0  0  0  0  0
    0.8177   37.0731  -25.9756 C   0  0  0  0  0  0  0  0  0  0  0  0
    2.7917   38.3994  -24.3668 C   0  0  0  0  0  0  0  0  0  0  0  0
    0.4655   38.0991  -24.9895 C   0  0  0  0  0  0  0  0  0  0  0  0
    1.4421   38.7345  -24.2212 C   0  0  0  0  0  0  0  0  0  0  0  0
    3.1614   37.4326  -25.2896 C   0  0  0  0  0  0  0  0  0  0  0  0
   -0.8401   38.3752  -24.8696 F   0  0  0  0  0  0  0  0  0  0  0  0
    2.4689   33.1109  -23.5128 C   0  0  0  0  0  0  0  0  0  0  0  0
    2.9611   31.9949  -24.0779 N   0  0  0  0  0  0  0  0  0  0  0  0
    3.1750   33.8830  -22.9081 O   0  0  0  0  0  0  0  0  0  0  0  0
    2.0786   30.9850  -24.6385 C   0  0  0  0  0  0  0  0  0  0  0  0
    4.4086   31.6381  -24.1867 C   0  0  0  0  0  0  0  0  0  0  0  0
    5.1013   32.4574  -25.2912 C   0  0  0  0  0  0  0  0  0  0  0  0
    6.5649   33.4609  -23.5406 C   0  0  0  0  0  0  0  0  0  0  0  0
    6.5334   32.8200  -24.9030 C   0  0  0  0  0  0  0  0  0  0  0  0
  8  1  1  0  0  0
 27 25  2  0  0  0
  1  2  2  0  0  0
  1  3  1  0  0  0
 25  3  1  0  0  0
 25 26  1  0  0  0
  2  4  1  0  0  0
 23 20  2  0  0  0
 23 18  1  0  0  0
  3  6  2  0  0  0
 20 22  1  0  0  0
 29 26  1  0  0  0
 29 30  1  0  0  0
 26 28  1  0  0  0
 18 19  2  0  0  0
  4  7  1  0  0  0
  4  5  2  0  0  0
 22 21  2  0  0  0
  6  5  1  0  0  0
 32 30  1  0  0  0
 32 31  1  0  0  0
  5 11  1  0  0  0
 19 21  1  0  0  0
 19 14  1  0  0  0
 21 24  1  0  0  0
 11 14  1  0  0  0
 11 13  2  0  0  0
 14 12  1  0  0  0
 13 15  1  0  0  0
 12 16  2  0  0  0
 12 15  1  0  0  0
  7  9  1  0  0  0
  8 10  1  0  0  0
 15 17  1  0  0  0
M  END
> <minimizedAffinity>
-9.60400

$$$$
5J9X_6GC_A_301


 32 34  0  0  0  0  0  0  0  0999 V2000
   -0.4045   36.0598  -27.2500 C   0  0  0  0  0  0  0  0  0  0  0  0
   -1.5782   35.3083  -27.1714 C   0  0  0  0  0  0  0  0  0  0  0  0
    0.5078   36.1271  -26.1069 C   0  0  0  0  0  0  0  0  0  0  0  0
   -1.8683   34.6057  -26.0009 C   0  0  0  0  0  0  0  0  0  0  0  0
   -0.9454   34.6962  -24.8648 C   0  0  0  0  0  0  0  0  0  0  0  0
    0.1936   35.4446  -24.9709 C   0  0  0  0  0  0  0  0  0  0  0  0
   -2.9951   33.8640  -25.8532 O   0  0  0  0  0  0  0  0  0  0  0  0
   -0.0844   36.7411  -28.3725 O   0  0  0  0  0  0  0  0  0  0  0  0
   -3.6027   33.7885  -26.5625 H   0  0  0  0  0  0  0  0  0  0  0  0
   -0.6536   36.7124  -29.1163 H   0  0  0  0  0  0  0  0  0  0  0  0
   -1.1735   33.9473  -23.6321 C   0  0  0  0  0  0  0  0  0  0  0  0
   -0.7973   32.5833  -21.9522 C   0  0  0  0  0  0  0  0  0  0  0  0
   -2.3405   33.8514  -22.9356 N   0  0  0  0  0  0  0  0  0  0  0  0
   -0.2755   33.1253  -23.0268 N   0  0  0  0  0  0  0  0  0  0  0  0
   -2.0565   32.9934  -21.8634 N   0  0  0  0  0  0  0  0  0  0  0  0
   -0.1753   31.7779  -21.1836 O   0  0  0  0  0  0  0  0  0  0  0  0
   -2.6912   32.7359  -21.1562 H   0  0  0  0  0  0  0  0  0  0  0  0
    2.0354   33.7546  -23.0820 C   0  0  0  0  0  0  0  0  0  0  0  0
    0.9885   32.9086  -23.4383 C   0  0  0  0  0  0  0  0  0  0  0  0
    3.7145   32.4747  -24.2289 C   0  0  0  0  0  0  0  0  0  0  0  0
    1.3921   31.7719  -24.2714 C   0  0  0  0  0  0  0  0  0  0  0  0
    2.7241   31.5776  -24.6401 C   0  0  0  0  0  0  0  0  0  0  0  0
    3.3689   33.5619  -23.4405 C   0  0  0  0  0  0  0  0  0  0  0  0
    0.4085   30.9485  -24.6583 F   0  0  0  0  0  0  0  0  0  0  0  0
    1.7718   36.9562  -26.0266 C   0  0  0  0  0  0  0  0  0  0  0  0
    1.7369   38.1206  -25.3558 N   0  0  0  0  0  0  0  0  0  0  0  0
    2.8000   36.5151  -26.4833 O   0  0  0  0  0  0  0  0  0  0  0  0
    0.4735   38.7306  -24.9753 C   0  0  0  0  0  0  0  0  0  0  0  0
    2.9272   38.9261  -24.9448 C   0  0  0  0  0  0  0  0  0  0  0  0
    3.6331   38.2946  -23.7308 C   0  0  0  0  0  0  0  0  0  0  0  0
    5.3686   36.5382  -24.0733 C   0  0  0  0  0  0  0  0  0  0  0  0
    5.1073   38.0204  -24.0221 C   0  0  0  0  0  0  0  0  0  0  0  0
  8  1  1  0  0  0
 27 25  2  0  0  0
  1  2  2  0  0  0
  1  3  1  0  0  0
 25  3  1  0  0  0
 25 26  1  0  0  0
  2  4  1  0  0  0
 23 20  2  0  0  0
 23 18  1  0  0  0
  3  6  2  0  0  0
 20 22  1  0  0  0
 29 26  1  0  0  0
 29 30  1  0  0  0
 26 28  1  0  0  0
 18 19  2  0  0  0
  4  7  1  0  0  0
  4  5  2  0  0  0
 22 21  2  0  0  0
  6  5  1  0  0  0
 32 30  1  0  0  0
 32 31  1  0  0  0
  5 11  1  0  0  0
 19 21  1  0  0  0
 19 14  1  0  0  0
 21 24  1  0  0  0
 11 14  1  0  0  0
 11 13  2  0  0  0
 14 12  1  0  0  0
 13 15  1  0  0  0
 12 16  2  0  0  0
 12 15  1  0  0  0
  7  9  1  0  0  0
  8 10  1  0  0  0
 15 17  1  0  0  0
M  END
> <minimizedAffinity>
-9.13253

$$$$
5J9X_6GC_A_301


 32 34  0  0  0  0  0  0  0  0999 V2000
    2.9210   37.6828  -23.3715 C   0  0  0  0  0  0  0  0  0  0  0  0
    1.7211   38.3910  -23.4552 C   0  0  0  0  0  0  0  0  0  0  0  0
    3.2063   36.5983  -24.3128 C   0  0  0  0  0  0  0  0  0  0  0  0
    0.8012   38.0705  -24.4547 C   0  0  0  0  0  0  0  0  0  0  0  0
    1.1033   36.9734  -25.3799 C   0  0  0  0  0  0  0  0  0  0  0  0
    2.2850   36.2953  -25.2691 C   0  0  0  0  0  0  0  0  0  0  0  0
   -0.3876   38.7113  -24.5875 O   0  0  0  0  0  0  0  0  0  0  0  0
    3.8411   37.9755  -22.4257 O   0  0  0  0  0  0  0  0  0  0  0  0
   -0.6071   39.4159  -24.0102 H   0  0  0  0  0  0  0  0  0  0  0  0
    3.6797   38.6655  -21.8127 H   0  0  0  0  0  0  0  0  0  0  0  0
    0.2001   36.6235  -26.4727 C   0  0  0  0  0  0  0  0  0  0  0  0
   -1.2720   35.4901  -27.6443 C   0  0  0  0  0  0  0  0  0  0  0  0
    0.0808   37.2581  -27.6723 N   0  0  0  0  0  0  0  0  0  0  0  0
   -0.6049   35.5286  -26.5154 N   0  0  0  0  0  0  0  0  0  0  0  0
   -0.8790   36.5215  -28.3813 N   0  0  0  0  0  0  0  0  0  0  0  0
   -2.1093   34.5779  -27.9491 O   0  0  0  0  0  0  0  0  0  0  0  0
   -1.2093   36.7357  -29.2837 H   0  0  0  0  0  0  0  0  0  0  0  0
    0.2129   33.6226  -25.3164 C   0  0  0  0  0  0  0  0  0  0  0  0
   -0.7379   34.6162  -25.5336 C   0  0  0  0  0  0  0  0  0  0  0  0
   -0.9270   32.6775  -23.4241 C   0  0  0  0  0  0  0  0  0  0  0  0
   -1.8644   34.5846  -24.5960 C   0  0  0  0  0  0  0  0  0  0  0  0
   -1.9337   33.6359  -23.5747 C   0  0  0  0  0  0  0  0  0  0  0  0
    0.1534   32.6769  -24.2936 C   0  0  0  0  0  0  0  0  0  0  0  0
   -2.8152   35.5087  -24.7886 F   0  0  0  0  0  0  0  0  0  0  0  0
    4.4272   35.7036  -24.2939 C   0  0  0  0  0  0  0  0  0  0  0  0
    4.2828   34.4247  -23.9059 N   0  0  0  0  0  0  0  0  0  0  0  0
    5.4789   36.1271  -24.7120 O   0  0  0  0  0  0  0  0  0  0  0  0
    3.0746   33.9757  -23.2337 C   0  0  0  0  0  0  0  0  0  0  0  0
    5.2975   33.3408  -24.0795 C   0  0  0  0  0  0  0  0  0  0  0  0
    4.6203   31.9765  -24.3045 C   0  0  0  0  0  0  0  0  0  0  0  0
    4.9329   29.7048  -25.2824 C   0  0  0  0  0  0  0  0  0  0  0  0
    5.6344   30.9100  -24.7137 C   0  0  0  0  0  0  0  0  0  0  0  0
  8  1  1  0  0  0
 27 25  2  0  0  0
  1  2  2  0  0  0
  1  3  1  0  0  0
 25  3  1  0  0  0
 25 26  1  0  0  0
  2  4  1  0  0  0
 23 20  2  0  0  0
 23 18  1  0  0  0
  3  6  2  0  0  0
 20 22  1  0  0  0
 29 26  1  0  0  0
 29 30  1  0  0  0
 26 28  1  0  0  0
 18 19  2  0  0  0
  4  7  1  0  0  0
  4  5  2  0  0  0
 22 21  2  0  0  0
  6  5  1  0  0  0
 32 30  1  0  0  0
 32 31  1  0  0  0
  5 11  1  0  0  0
 19 21  1  0  0  0
 19 14  1  0  0  0
 21 24  1  0  0  0
 11 14  1  0  0  0
 11 13  2  0  0  0
 14 12  1  0  0  0
 13 15  1  0  0  0
 12 16  2  0  0  0
 12 15  1  0  0  0
  7  9  1  0  0  0
  8 10  1  0  0  0
 15 17  1  0  0  0
M  END
> <minimizedAffinity>
-8.83798

$$$$
5J9X_6GC_A_301


 32 34  0  0  0  0  0  0  0  0999 V2000
    4.5945   32.6843  -24.6504 C   0  0  0  0  0  0  0  0  0  0  0  0
    3.6903   31.6994  -25.0516 C   0  0  0  0  0  0  0  0  0  0  0  0
    4.1816   33.7280  -23.7103 C   0  0  0  0  0  0  0  0  0  0  0  0
    2.3932   31.7052  -24.5363 C   0  0  0  0  0  0  0  0  0  0  0  0
    1.9984   32.7664  -23.6043 C   0  0  0  0  0  0  0  0  0  0  0  0
    2.9055   33.7199  -23.2344 C   0  0  0  0  0  0  0  0  0  0  0  0
    1.4614   30.7844  -24.8903 O   0  0  0  0  0  0  0  0  0  0  0  0
    5.8626   32.7012  -25.1177 O   0  0  0  0  0  0  0  0  0  0  0  0
    1.6857   30.0952  -25.4841 H   0  0  0  0  0  0  0  0  0  0  0  0
    6.1487   32.0431  -25.7202 H   0  0  0  0  0  0  0  0  0  0  0  0
    0.6702   32.7974  -22.9982 C   0  0  0  0  0  0  0  0  0  0  0  0
   -1.4306   33.3476  -22.6696 C   0  0  0  0  0  0  0  0  0  0  0  0
    0.2885   32.2089  -21.8303 N   0  0  0  0  0  0  0  0  0  0  0  0
   -0.3908   33.5169  -23.4512 N   0  0  0  0  0  0  0  0  0  0  0  0
   -1.0582   32.5634  -21.6657 N   0  0  0  0  0  0  0  0  0  0  0  0
   -2.5661   33.8954  -22.8617 O   0  0  0  0  0  0  0  0  0  0  0  0
   -1.6364   32.2759  -20.9225 H   0  0  0  0  0  0  0  0  0  0  0  0
   -1.0025   33.8486  -25.7436 C   0  0  0  0  0  0  0  0  0  0  0  0
   -0.4032   34.2778  -24.5625 C   0  0  0  0  0  0  0  0  0  0  0  0
   -0.5196   35.8702  -26.9489 C   0  0  0  0  0  0  0  0  0  0  0  0
    0.1832   35.6192  -24.6397 C   0  0  0  0  0  0  0  0  0  0  0  0
    0.1109   36.3779  -25.8089 C   0  0  0  0  0  0  0  0  0  0  0  0
   -1.0848   34.6044  -26.9123 C   0  0  0  0  0  0  0  0  0  0  0  0
    0.7937   36.0583  -23.5308 F   0  0  0  0  0  0  0  0  0  0  0  0
    5.0300   34.8931  -23.2475 C   0  0  0  0  0  0  0  0  0  0  0  0
    4.7054   36.1305  -23.6603 N   0  0  0  0  0  0  0  0  0  0  0  0
    5.9172   34.7002  -22.4500 O   0  0  0  0  0  0  0  0  0  0  0  0
    3.7689   36.3362  -24.7529 C   0  0  0  0  0  0  0  0  0  0  0  0
    5.2476   37.4065  -23.1013 C   0  0  0  0  0  0  0  0  0  0  0  0
    6.1612   38.1148  -24.1183 C   0  0  0  0  0  0  0  0  0  0  0  0
    8.2471   37.2970  -23.0251 C   0  0  0  0  0  0  0  0  0  0  0  0
    7.4721   37.3557  -24.3151 C   0  0  0  0  0  0  0  0  0  0  0  0
  8  1  1  0  0  0
 27 25  2  0  0  0
  1  2  2  0  0  0
  1  3  1  0  0  0
 25  3  1  0  0  0
 25 26  1  0  0  0
  2  4  1  0  0  0
 23 20  2  0  0  0
 23 18  1  0  0  0
  3  6  2  0  0  0
 20 22  1  0  0  0
 29 26  1  0  0  0
 29 30  1  0  0  0
 26 28  1  0  0  0
 18 19  2  0  0  0
  4  7  1  0  0  0
  4  5  2  0  0  0
 22 21  2  0  0  0
  6  5  1  0  0  0
 32 30  1  0  0  0
 32 31  1  0  0  0
  5 11  1  0  0  0
 19 21  1  0  0  0
 19 14  1  0  0  0
 21 24  1  0  0  0
 11 14  1  0  0  0
 11 13  2  0  0  0
 14 12  1  0  0  0
 13 15  1  0  0  0
 12 16  2  0  0  0
 12 15  1  0  0  0
  7  9  1  0  0  0
  8 10  1  0  0  0
 15 17  1  0  0  0
M  END
> <minimizedAffinity>
-8.59907

$$$$
5J9X_6GC_A_301


 32 34  0  0  0  0  0  0  0  0999 V2000
   -1.5303   34.2961  -24.2236 C   0  0  0  0  0  0  0  0  0  0  0  0
   -1.0640   33.6730  -23.0648 C   0  0  0  0  0  0  0  0  0  0  0  0
   -0.6484   34.4593  -25.3809 C   0  0  0  0  0  0  0  0  0  0  0  0
    0.2445   33.1895  -23.0225 C   0  0  0  0  0  0  0  0  0  0  0  0
    1.1133   33.3734  -24.1896 C   0  0  0  0  0  0  0  0  0  0  0  0
    0.6289   33.9923  -25.3081 C   0  0  0  0  0  0  0  0  0  0  0  0
    0.7650   32.5826  -21.9260 O   0  0  0  0  0  0  0  0  0  0  0  0
   -2.7958   34.7635  -24.3052 O   0  0  0  0  0  0  0  0  0  0  0  0
    0.2329   32.4519  -21.1659 H   0  0  0  0  0  0  0  0  0  0  0  0
   -3.3777   34.6700  -23.5768 H   0  0  0  0  0  0  0  0  0  0  0  0
    2.4757   32.8485  -24.2196 C   0  0  0  0  0  0  0  0  0  0  0  0
    4.6663   32.8153  -24.3757 C   0  0  0  0  0  0  0  0  0  0  0  0
    2.8492   31.5384  -24.2193 N   0  0  0  0  0  0  0  0  0  0  0  0
    3.6070   33.5890  -24.3624 N   0  0  0  0  0  0  0  0  0  0  0  0
    4.2492   31.5577  -24.2981 N   0  0  0  0  0  0  0  0  0  0  0  0
    5.8625   33.2429  -24.4870 O   0  0  0  0  0  0  0  0  0  0  0  0
    4.8310   30.7635  -24.2961 H   0  0  0  0  0  0  0  0  0  0  0  0
    3.1728   35.6198  -25.5570 C   0  0  0  0  0  0  0  0  0  0  0  0
    3.6577   34.9322  -24.4476 C   0  0  0  0  0  0  0  0  0  0  0  0
    3.6789   37.7948  -24.6703 C   0  0  0  0  0  0  0  0  0  0  0  0
    4.1993   35.7969  -23.3949 C   0  0  0  0  0  0  0  0  0  0  0  0
    4.1952   37.1867  -23.5220 C   0  0  0  0  0  0  0  0  0  0  0  0
    3.1589   37.0079  -25.6869 C   0  0  0  0  0  0  0  0  0  0  0  0
    4.7009   35.1717  -22.3212 F   0  0  0  0  0  0  0  0  0  0  0  0
   -0.9957   35.1755  -26.6685 C   0  0  0  0  0  0  0  0  0  0  0  0
   -0.6627   36.4717  -26.7947 N   0  0  0  0  0  0  0  0  0  0  0  0
   -1.4773   34.5498  -27.5834 O   0  0  0  0  0  0  0  0  0  0  0  0
   -0.2608   37.2596  -25.6412 C   0  0  0  0  0  0  0  0  0  0  0  0
   -0.6775   37.2558  -28.0673 C   0  0  0  0  0  0  0  0  0  0  0  0
    0.5695   38.1516  -28.1826 C   0  0  0  0  0  0  0  0  0  0  0  0
    2.6688   37.5581  -29.3888 C   0  0  0  0  0  0  0  0  0  0  0  0
    1.2392   38.0041  -29.5475 C   0  0  0  0  0  0  0  0  0  0  0  0
  8  1  1  0  0  0
 27 25  2  0  0  0
  1  2  2  0  0  0
  1  3  1  0  0  0
 25  3  1  0  0  0
 25 26  1  0  0  0
  2  4  1  0  0  0
 23 20  2  0  0  0
 23 18  1  0  0  0
  3  6  2  0  0  0
 20 22  1  0  0  0
 29 26  1  0  0  0
 29 30  1  0  0  0
 26 28  1  0  0  0
 18 19  2  0  0  0
  4  7  1  0  0  0
  4  5  2  0  0  0
 22 21  2  0  0  0
  6  5  1  0  0  0
 32 30  1  0  0  0
 32 31  1  0  0  0
  5 11  1  0  0  0
 19 21  1  0  0  0
 19 14  1  0  0  0
 21 24  1  0  0  0
 11 14  1  0  0  0
 11 13  2  0  0  0
 14 12  1  0  0  0
 13 15  1  0  0  0
 12 16  2  0  0  0
 12 15  1  0  0  0
  7  9  1  0  0  0
  8 10  1  0  0  0
 15 17  1  0  0  0
M  END
> <minimizedAffinity>
-8.14530

$$$$
5J9X_6GC_A_301


 32 34  0  0  0  0  0  0  0  0999 V2000
    5.5123   35.4796  -22.7724 C   0  0  0  0  0  0  0  0  0  0  0  0
    6.8749   35.7820  -22.7535 C   0  0  0  0  0  0  0  0  0  0  0  0
    5.0047   34.4092  -23.6327 C   0  0  0  0  0  0  0  0  0  0  0  0
    7.7544   35.0446  -23.5475 C   0  0  0  0  0  0  0  0  0  0  0  0
    7.2224   33.9840  -24.4094 C   0  0  0  0  0  0  0  0  0  0  0  0
    5.8821   33.7150  -24.4094 C   0  0  0  0  0  0  0  0  0  0  0  0
    9.0883   35.2912  -23.5847 O   0  0  0  0  0  0  0  0  0  0  0  0
    4.6337   36.1633  -22.0059 O   0  0  0  0  0  0  0  0  0  0  0  0
    9.4558   35.9630  -23.0448 H   0  0  0  0  0  0  0  0  0  0  0  0
    4.9362   36.8524  -21.4477 H   0  0  0  0  0  0  0  0  0  0  0  0
    8.0994   33.1501  -25.2265 C   0  0  0  0  0  0  0  0  0  0  0  0
    8.7859   31.4450  -26.4290 C   0  0  0  0  0  0  0  0  0  0  0  0
    9.4179   33.3644  -25.4944 N   0  0  0  0  0  0  0  0  0  0  0  0
    7.7679   31.9506  -25.7740 N   0  0  0  0  0  0  0  0  0  0  0  0
    9.8138   32.2711  -26.2783 N   0  0  0  0  0  0  0  0  0  0  0  0
    8.7545   30.3321  -27.0507 O   0  0  0  0  0  0  0  0  0  0  0  0
   10.7126   32.1373  -26.6571 H   0  0  0  0  0  0  0  0  0  0  0  0
    5.5346   31.6556  -26.5895 C   0  0  0  0  0  0  0  0  0  0  0  0
    6.5595   31.3611  -25.6943 C   0  0  0  0  0  0  0  0  0  0  0  0
    3.9810   30.1000  -25.6204 C   0  0  0  0  0  0  0  0  0  0  0  0
    6.2079   30.3529  -24.6898 C   0  0  0  0  0  0  0  0  0  0  0  0
    4.9497   29.7491  -24.6753 C   0  0  0  0  0  0  0  0  0  0  0  0
    4.2784   31.0507  -26.5852 C   0  0  0  0  0  0  0  0  0  0  0  0
    7.1590   30.0610  -23.7924 F   0  0  0  0  0  0  0  0  0  0  0  0
    3.5514   34.0235  -23.8073 C   0  0  0  0  0  0  0  0  0  0  0  0
    2.7653   34.8023  -24.5704 N   0  0  0  0  0  0  0  0  0  0  0  0
    3.1537   32.9835  -23.3376 O   0  0  0  0  0  0  0  0  0  0  0  0
    3.1903   36.1329  -24.9731 C   0  0  0  0  0  0  0  0  0  0  0  0
    1.4035   34.4424  -25.0710 C   0  0  0  0  0  0  0  0  0  0  0  0
    0.4877   35.6788  -25.1281 C   0  0  0  0  0  0  0  0  0  0  0  0
   -1.2413   34.2512  -24.0389 C   0  0  0  0  0  0  0  0  0  0  0  0
   -0.9874   35.2830  -25.1060 C   0  0  0  0  0  0  0  0  0  0  0  0
  8  1  1  0  0  0
 27 25  2  0  0  0
  1  2  2  0  0  0
  1  3  1  0  0  0
 25  3  1  0  0  0
 25 26  1  0  0  0
  2  4  1  0  0  0
 23 20  2  0  0  0
 23 18  1  0  0  0
  3  6  2  0  0  0
 20 22  1  0  0  0
 29 26  1  0  0  0
 29 30  1  0  0  0
 26 28  1  0  0  0
 18 19  2  0  0  0
  4  7  1  0  0  0
  4  5  2  0  0  0
 22 21  2  0  0  0
  6  5  1  0  0  0
 32 30  1  0  0  0
 32 31  1  0  0  0
  5 11  1  0  0  0
 19 21  1  0  0  0
 19 14  1  0  0  0
 21 24  1  0  0  0
 11 14  1  0  0  0
 11 13  2  0  0  0
 14 12  1  0  0  0
 13 15  1  0  0  0
 12 16  2  0  0  0
 12 15  1  0  0  0
  7  9  1  0  0  0
  8 10  1  0  0  0
 15 17  1  0  0  0
M  END
> <minimizedAffinity>
-8.08658

$$$$
5J9X_6GC_A_301


 32 34  0  0  0  0  0  0  0  0999 V2000
    2.4922   31.7460  -24.1684 C   0  0  0  0  0  0  0  0  0  0  0  0
    3.7345   31.6718  -24.8004 C   0  0  0  0  0  0  0  0  0  0  0  0
    2.1093   32.9511  -23.4303 C   0  0  0  0  0  0  0  0  0  0  0  0
    4.6037   32.7621  -24.7396 C   0  0  0  0  0  0  0  0  0  0  0  0
    4.2036   33.9548  -23.9858 C   0  0  0  0  0  0  0  0  0  0  0  0
    2.9821   33.9951  -23.3734 C   0  0  0  0  0  0  0  0  0  0  0  0
    5.8290   32.7542  -25.3226 O   0  0  0  0  0  0  0  0  0  0  0  0
    1.6196   30.7151  -24.2185 O   0  0  0  0  0  0  0  0  0  0  0  0
    6.1110   32.0055  -25.8104 H   0  0  0  0  0  0  0  0  0  0  0  0
    1.8436   29.9340  -24.6851 H   0  0  0  0  0  0  0  0  0  0  0  0
    5.0516   35.1421  -23.9257 C   0  0  0  0  0  0  0  0  0  0  0  0
    5.6818   37.2351  -24.1408 C   0  0  0  0  0  0  0  0  0  0  0  0
    6.3742   35.1888  -23.6024 N   0  0  0  0  0  0  0  0  0  0  0  0
    4.6824   36.3986  -24.2908 N   0  0  0  0  0  0  0  0  0  0  0  0
    6.7339   36.5382  -23.7299 N   0  0  0  0  0  0  0  0  0  0  0  0
    5.6147   38.4824  -24.3975 O   0  0  0  0  0  0  0  0  0  0  0  0
    7.6264   36.9100  -23.5440 H   0  0  0  0  0  0  0  0  0  0  0  0
    2.9568   36.3537  -25.9520 C   0  0  0  0  0  0  0  0  0  0  0  0
    3.4579   36.7614  -24.7187 C   0  0  0  0  0  0  0  0  0  0  0  0
    0.8361   37.4468  -25.6676 C   0  0  0  0  0  0  0  0  0  0  0  0
    2.5336   37.5906  -23.9394 C   0  0  0  0  0  0  0  0  0  0  0  0
    1.2615   37.9077  -24.4181 C   0  0  0  0  0  0  0  0  0  0  0  0
    1.6845   36.6605  -26.4326 C   0  0  0  0  0  0  0  0  0  0  0  0
    2.9892   38.0261  -22.7571 F   0  0  0  0  0  0  0  0  0  0  0  0
    0.8317   33.1411  -22.6409 C   0  0  0  0  0  0  0  0  0  0  0  0
   -0.3098   33.3782  -23.3100 N   0  0  0  0  0  0  0  0  0  0  0  0
    0.8468   32.9854  -21.4426 O   0  0  0  0  0  0  0  0  0  0  0  0
   -0.2935   33.7473  -24.7158 C   0  0  0  0  0  0  0  0  0  0  0  0
   -1.6872   33.3217  -22.7318 C   0  0  0  0  0  0  0  0  0  0  0  0
   -2.4776   32.1264  -23.2950 C   0  0  0  0  0  0  0  0  0  0  0  0
   -2.4467   31.5254  -20.8759 C   0  0  0  0  0  0  0  0  0  0  0  0
   -3.1712   31.3415  -22.1832 C   0  0  0  0  0  0  0  0  0  0  0  0
  8  1  1  0  0  0
 27 25  2  0  0  0
  1  2  2  0  0  0
  1  3  1  0  0  0
 25  3  1  0  0  0
 25 26  1  0  0  0
  2  4  1  0  0  0
 23 20  2  0  0  0
 23 18  1  0  0  0
  3  6  2  0  0  0
 20 22  1  0  0  0
 29 26  1  0  0  0
 29 30  1  0  0  0
 26 28  1  0  0  0
 18 19  2  0  0  0
  4  7  1  0  0  0
  4  5  2  0  0  0
 22 21  2  0  0  0
  6  5  1  0  0  0
 32 30  1  0  0  0
 32 31  1  0  0  0
  5 11  1  0  0  0
 19 21  1  0  0  0
 19 14  1  0  0  0
 21 24  1  0  0  0
 11 14  1  0  0  0
 11 13  2  0  0  0
 14 12  1  0  0  0
 13 15  1  0  0  0
 12 16  2  0  0  0
 12 15  1  0  0  0
  7  9  1  0  0  0
  8 10  1  0  0  0
 15 17  1  0  0  0
M  END
> <minimizedAffinity>
-7.81516

$$$$
5J9X_6GC_A_301


 32 34  0  0  0  0  0  0  0  0999 V2000
   -0.7050   35.7123  -27.0379 C   0  0  0  0  0  0  0  0  0  0  0  0
    0.1832   36.6714  -27.5274 C   0  0  0  0  0  0  0  0  0  0  0  0
   -0.9310   35.5814  -25.5972 C   0  0  0  0  0  0  0  0  0  0  0  0
    0.8420   37.5183  -26.6349 C   0  0  0  0  0  0  0  0  0  0  0  0
    0.6083   37.3621  -25.1956 C   0  0  0  0  0  0  0  0  0  0  0  0
   -0.2638   36.4099  -24.7468 C   0  0  0  0  0  0  0  0  0  0  0  0
    1.7247   38.4654  -27.0413 O   0  0  0  0  0  0  0  0  0  0  0  0
   -1.3711   34.8850  -27.8737 O   0  0  0  0  0  0  0  0  0  0  0  0
    1.8936   38.5873  -27.9549 H   0  0  0  0  0  0  0  0  0  0  0  0
   -1.2420   34.9509  -28.7994 H   0  0  0  0  0  0  0  0  0  0  0  0
    1.2341   38.2485  -24.2182 C   0  0  0  0  0  0  0  0  0  0  0  0
    2.6915   39.0008  -22.7574 C   0  0  0  0  0  0  0  0  0  0  0  0
    0.7014   39.3812  -23.6802 N   0  0  0  0  0  0  0  0  0  0  0  0
    2.4230   38.0288  -23.5964 N   0  0  0  0  0  0  0  0  0  0  0  0
    1.6653   39.8424  -22.7721 N   0  0  0  0  0  0  0  0  0  0  0  0
    3.7480   39.0594  -22.0456 O   0  0  0  0  0  0  0  0  0  0  0  0
    1.5924   40.6615  -22.2308 H   0  0  0  0  0  0  0  0  0  0  0  0
    2.8444   35.6705  -23.5756 C   0  0  0  0  0  0  0  0  0  0  0  0
    3.2413   36.9825  -23.8195 C   0  0  0  0  0  0  0  0  0  0  0  0
    4.9106   34.7025  -24.3283 C   0  0  0  0  0  0  0  0  0  0  0  0
    4.6019   37.1094  -24.3505 C   0  0  0  0  0  0  0  0  0  0  0  0
    5.3944   35.9868  -24.5949 C   0  0  0  0  0  0  0  0  0  0  0  0
    3.6283   34.5447  -23.8246 C   0  0  0  0  0  0  0  0  0  0  0  0
    5.0315   38.3587  -24.5734 F   0  0  0  0  0  0  0  0  0  0  0  0
   -1.8053   34.5440  -24.9258 C   0  0  0  0  0  0  0  0  0  0  0  0
   -1.2217   33.4551  -24.3959 N   0  0  0  0  0  0  0  0  0  0  0  0
   -2.9879   34.7578  -24.7991 O   0  0  0  0  0  0  0  0  0  0  0  0
    0.1556   33.1130  -24.7104 C   0  0  0  0  0  0  0  0  0  0  0  0
   -1.8754   32.4774  -23.4732 C   0  0  0  0  0  0  0  0  0  0  0  0
   -1.7298   32.9165  -22.0046 C   0  0  0  0  0  0  0  0  0  0  0  0
    0.6301   32.9174  -21.2015 C   0  0  0  0  0  0  0  0  0  0  0  0
   -0.6430   32.1176  -21.2877 C   0  0  0  0  0  0  0  0  0  0  0  0
  8  1  1  0  0  0
 27 25  2  0  0  0
  1  2  2  0  0  0
  1  3  1  0  0  0
 25  3  1  0  0  0
 25 26  1  0  0  0
  2  4  1  0  0  0
 23 20  2  0  0  0
 23 18  1  0  0  0
  3  6  2  0  0  0
 20 22  1  0  0  0
 29 26  1  0  0  0
 29 30  1  0  0  0
 26 28  1  0  0  0
 18 19  2  0  0  0
  4  7  1  0  0  0
  4  5  2  0  0  0
 22 21  2  0  0  0
  6  5  1  0  0  0
 32 30  1  0  0  0
 32 31  1  0  0  0
  5 11  1  0  0  0
 19 21  1  0  0  0
 19 14  1  0  0  0
 21 24  1  0  0  0
 11 14  1  0  0  0
 11 13  2  0  0  0
 14 12  1  0  0  0
 13 15  1  0  0  0
 12 16  2  0  0  0
 12 15  1  0  0  0
  7  9  1  0  0  0
  8 10  1  0  0  0
 15 17  1  0  0  0
M  END
> <minimizedAffinity>
-7.71523

$$$$
5J9X_6GC_A_301


 32 34  0  0  0  0  0  0  0  0999 V2000
    4.4523   35.3752  -24.3729 C   0  0  0  0  0  0  0  0  0  0  0  0
    4.1268   34.0412  -24.6238 C   0  0  0  0  0  0  0  0  0  0  0  0
    3.4038   36.3422  -24.0425 C   0  0  0  0  0  0  0  0  0  0  0  0
    2.7956   33.6303  -24.5401 C   0  0  0  0  0  0  0  0  0  0  0  0
    1.7608   34.6184  -24.2180 C   0  0  0  0  0  0  0  0  0  0  0  0
    2.1108   35.9186  -23.9823 C   0  0  0  0  0  0  0  0  0  0  0  0
    2.4080   32.3523  -24.7806 O   0  0  0  0  0  0  0  0  0  0  0  0
    5.7323   35.8053  -24.4309 O   0  0  0  0  0  0  0  0  0  0  0  0
    3.0477   31.7000  -24.9888 H   0  0  0  0  0  0  0  0  0  0  0  0
    6.4196   35.2039  -24.6406 H   0  0  0  0  0  0  0  0  0  0  0  0
    0.3585   34.2378  -24.0719 C   0  0  0  0  0  0  0  0  0  0  0  0
   -1.8247   34.2921  -24.3063 C   0  0  0  0  0  0  0  0  0  0  0  0
   -0.1482   33.2754  -23.2516 N   0  0  0  0  0  0  0  0  0  0  0  0
   -0.6970   34.8620  -24.6591 N   0  0  0  0  0  0  0  0  0  0  0  0
   -1.5363   33.3253  -23.4438 N   0  0  0  0  0  0  0  0  0  0  0  0
   -2.9731   34.6652  -24.7161 O   0  0  0  0  0  0  0  0  0  0  0  0
   -2.1935   32.7361  -23.0077 H   0  0  0  0  0  0  0  0  0  0  0  0
   -0.4555   37.2104  -25.0667 C   0  0  0  0  0  0  0  0  0  0  0  0
   -0.6161   35.9011  -25.5122 C   0  0  0  0  0  0  0  0  0  0  0  0
   -0.3764   38.1554  -27.2743 C   0  0  0  0  0  0  0  0  0  0  0  0
   -0.6676   35.7654  -26.9710 C   0  0  0  0  0  0  0  0  0  0  0  0
   -0.5442   36.8745  -27.8091 C   0  0  0  0  0  0  0  0  0  0  0  0
   -0.3241   38.3215  -25.8985 C   0  0  0  0  0  0  0  0  0  0  0  0
   -0.8485   34.5232  -27.4395 F   0  0  0  0  0  0  0  0  0  0  0  0
    3.6023   37.8262  -23.8192 C   0  0  0  0  0  0  0  0  0  0  0  0
    3.3483   38.6701  -24.8342 N   0  0  0  0  0  0  0  0  0  0  0  0
    3.8929   38.2259  -22.7164 O   0  0  0  0  0  0  0  0  0  0  0  0
    3.1841   38.1820  -26.1935 C   0  0  0  0  0  0  0  0  0  0  0  0
    3.2262   40.1558  -24.7232 C   0  0  0  0  0  0  0  0  0  0  0  0
    4.5846   40.8436  -24.9527 C   0  0  0  0  0  0  0  0  0  0  0  0
    4.7936   41.3362  -27.3875 C   0  0  0  0  0  0  0  0  0  0  0  0
    4.4904   41.9198  -26.0327 C   0  0  0  0  0  0  0  0  0  0  0  0
  8  1  1  0  0  0
 27 25  2  0  0  0
  1  2  2  0  0  0
  1  3  1  0  0  0
 25  3  1  0  0  0
 25 26  1  0  0  0
  2  4  1  0  0  0
 23 20  2  0  0  0
 23 18  1  0  0  0
  3  6  2  0  0  0
 20 22  1  0  0  0
 29 26  1  0  0  0
 29 30  1  0  0  0
 26 28  1  0  0  0
 18 19  2  0  0  0
  4  7  1  0  0  0
  4  5  2  0  0  0
 22 21  2  0  0  0
  6  5  1  0  0  0
 32 30  1  0  0  0
 32 31  1  0  0  0
  5 11  1  0  0  0
 19 21  1  0  0  0
 19 14  1  0  0  0
 21 24  1  0  0  0
 11 14  1  0  0  0
 11 13  2  0  0  0
 14 12  1  0  0  0
 13 15  1  0  0  0
 12 16  2  0  0  0
 12 15  1  0  0  0
  7  9  1  0  0  0
  8 10  1  0  0  0
 15 17  1  0  0  0
M  END
> <minimizedAffinity>
-7.67786

$$$$
