1AJX_AH1_A_500


 42 46  0  0  0  0  0  0  0  0999 V2000
   13.2807   21.7147    5.5232 N   0  0  0  0  0  0  0  0  0  0  0  0
   11.9426   22.0355    5.8611 C   0  0  0  0  0  0  0  0  0  0  0  0
   11.4584   23.2793    5.7375 N   0  0  0  0  0  0  0  0  0  0  0  0
   11.8719   24.2235    4.6805 C   0  0  0  0  0  0  0  0  0  0  0  0
   13.3183   24.8278    4.9768 C   0  0  0  0  0  0  0  0  0  0  0  0
   14.4686   23.7916    4.8151 C   0  0  0  0  0  0  0  0  0  0  0  0
   14.4372   22.6149    5.8299 C   0  0  0  0  0  0  0  0  0  0  0  0
   11.1746   21.1325    6.2965 O   0  0  0  0  0  0  0  0  0  0  0  0
   13.5556   25.8108    4.0496 O   0  0  0  0  0  0  0  0  0  0  0  0
   15.6520   24.4787    5.0089 O   0  0  0  0  0  0  0  0  0  0  0  0
   13.5455   25.4251    3.1596 H   0  0  0  0  0  0  0  0  0  0  0  0
   15.6702   24.8443    5.9072 H   0  0  0  0  0  0  0  0  0  0  0  0
   13.6634   20.2846    5.4771 C   0  0  0  0  0  0  0  0  0  0  0  0
   14.3299   19.8081    4.2392 C   0  0  0  0  0  0  0  0  0  0  0  0
   14.1585   20.4903    3.0403 C   0  0  0  0  0  0  0  0  0  0  0  0
   14.7625   20.0236    1.8710 C   0  0  0  0  0  0  0  0  0  0  0  0
   15.5446   18.8565    1.8828 C   0  0  0  0  0  0  0  0  0  0  0  0
   15.7044   18.1945    3.0839 C   0  0  0  0  0  0  0  0  0  0  0  0
   15.0893   18.6843    4.2662 C   0  0  0  0  0  0  0  0  0  0  0  0
   10.1986   23.6240    6.2968 C   0  0  0  0  0  0  0  0  0  0  0  0
   10.0865   24.5288    7.5120 C   0  0  0  0  0  0  0  0  0  0  0  0
   11.2443   24.9664    8.2194 C   0  0  0  0  0  0  0  0  0  0  0  0
   11.0858   25.8471    9.2971 C   0  0  0  0  0  0  0  0  0  0  0  0
    9.8306   26.3089    9.6985 C   0  0  0  0  0  0  0  0  0  0  0  0
    8.6798   25.8802    9.0284 C   0  0  0  0  0  0  0  0  0  0  0  0
    8.7923   24.9937    7.9292 C   0  0  0  0  0  0  0  0  0  0  0  0
   11.9415   23.4764    3.3863 C   0  0  0  0  0  0  0  0  0  0  0  0
   10.7295   23.0907    2.6583 O   0  0  0  0  0  0  0  0  0  0  0  0
    9.7130   23.8682    2.4056 C   0  0  0  0  0  0  0  0  0  0  0  0
    9.9239   25.2237    2.0012 C   0  0  0  0  0  0  0  0  0  0  0  0
    8.7960   26.0514    1.7593 C   0  0  0  0  0  0  0  0  0  0  0  0
    7.4754   25.5243    1.9114 C   0  0  0  0  0  0  0  0  0  0  0  0
    7.2630   24.1781    2.2937 C   0  0  0  0  0  0  0  0  0  0  0  0
    8.3811   23.3582    2.5437 C   0  0  0  0  0  0  0  0  0  0  0  0
   14.2576   23.1571    7.2856 C   0  0  0  0  0  0  0  0  0  0  0  0
   14.4616   22.2126    8.4039 O   0  0  0  0  0  0  0  0  0  0  0  0
   15.6394   21.5544    8.6410 C   0  0  0  0  0  0  0  0  0  0  0  0
   16.8691   22.1599    8.3528 C   0  0  0  0  0  0  0  0  0  0  0  0
   18.0974   21.4952    8.6140 C   0  0  0  0  0  0  0  0  0  0  0  0
   18.1101   20.1946    9.1661 C   0  0  0  0  0  0  0  0  0  0  0  0
   16.8676   19.5751    9.4435 C   0  0  0  0  0  0  0  0  0  0  0  0
   15.6368   20.2737    9.1784 C   0  0  0  0  0  0  0  0  0  0  0  0
  1  2  1  0  0  0
  1  7  1  0  0  0
  1 13  1  0  0  0
  2  3  1  0  0  0
  2  8  2  0  0  0
  3  4  1  0  0  0
  3 20  1  0  0  0
  4  5  1  0  0  0
  4 27  1  0  0  0
  5  6  1  0  0  0
  5  9  1  0  0  0
  6  7  1  0  0  0
  6 10  1  0  0  0
  7 35  1  0  0  0
 13 14  1  0  0  0
 14 15  2  0  0  0
 14 19  1  0  0  0
 15 16  1  0  0  0
 16 17  2  0  0  0
 17 18  1  0  0  0
 18 19  2  0  0  0
 20 21  1  0  0  0
 21 22  2  0  0  0
 21 26  1  0  0  0
 22 23  1  0  0  0
 23 24  2  0  0  0
 24 25  1  0  0  0
 25 26  2  0  0  0
 27 28  1  0  0  0
 28 29  1  0  0  0
 29 30  2  0  0  0
 29 34  1  0  0  0
 30 31  1  0  0  0
 31 32  2  0  0  0
 32 33  1  0  0  0
 33 34  2  0  0  0
 35 36  1  0  0  0
 36 37  1  0  0  0
 37 38  2  0  0  0
 37 42  1  0  0  0
 38 39  1  0  0  0
 39 40  2  0  0  0
 40 41  1  0  0  0
 41 42  2  0  0  0
  9 11  1  0  0  0
 10 12  1  0  0  0
M  END
> <minimizedAffinity>
-12.54950

$$$$
1AJX_AH1_A_500


 42 46  0  0  0  0  0  0  0  0999 V2000
   11.5488   23.2376    5.9259 N   0  0  0  0  0  0  0  0  0  0  0  0
   12.0840   21.9275    5.9961 C   0  0  0  0  0  0  0  0  0  0  0  0
   13.3538   21.6609    5.6599 N   0  0  0  0  0  0  0  0  0  0  0  0
   14.4768   22.5949    5.8752 C   0  0  0  0  0  0  0  0  0  0  0  0
   14.4555   23.7820    4.8097 C   0  0  0  0  0  0  0  0  0  0  0  0
   13.2848   24.7855    5.0222 C   0  0  0  0  0  0  0  0  0  0  0  0
   11.8650   24.1888    4.8136 C   0  0  0  0  0  0  0  0  0  0  0  0
   11.3516   20.9735    6.3815 O   0  0  0  0  0  0  0  0  0  0  0  0
   15.6116   24.5035    4.9686 O   0  0  0  0  0  0  0  0  0  0  0  0
   13.4539   25.7953    4.0939 O   0  0  0  0  0  0  0  0  0  0  0  0
   15.6396   24.8765    5.8635 H   0  0  0  0  0  0  0  0  0  0  0  0
   13.4028   25.4239    3.1993 H   0  0  0  0  0  0  0  0  0  0  0  0
   10.2158   23.4782    6.5251 C   0  0  0  0  0  0  0  0  0  0  0  0
   10.1248   24.5466    7.5517 C   0  0  0  0  0  0  0  0  0  0  0  0
   11.2704   25.0124    8.1863 C   0  0  0  0  0  0  0  0  0  0  0  0
   11.1792   25.9965    9.1727 C   0  0  0  0  0  0  0  0  0  0  0  0
    9.9326   26.5262    9.5461 C   0  0  0  0  0  0  0  0  0  0  0  0
    8.8069   26.0519    8.9026 C   0  0  0  0  0  0  0  0  0  0  0  0
    8.9155   25.0554    7.8970 C   0  0  0  0  0  0  0  0  0  0  0  0
   13.7973   20.3189    5.5150 C   0  0  0  0  0  0  0  0  0  0  0  0
   14.3767   19.8076    4.2071 C   0  0  0  0  0  0  0  0  0  0  0  0
   14.2055   20.5280    2.9888 C   0  0  0  0  0  0  0  0  0  0  0  0
   14.8112   20.0402    1.8237 C   0  0  0  0  0  0  0  0  0  0  0  0
   15.5765   18.8723    1.8194 C   0  0  0  0  0  0  0  0  0  0  0  0
   15.7449   18.1412    3.0003 C   0  0  0  0  0  0  0  0  0  0  0  0
   15.1549   18.5994    4.2040 C   0  0  0  0  0  0  0  0  0  0  0  0
   14.3313   23.1962    7.2372 C   0  0  0  0  0  0  0  0  0  0  0  0
   14.6421   22.4328    8.4489 O   0  0  0  0  0  0  0  0  0  0  0  0
   15.7205   21.7264    8.6484 C   0  0  0  0  0  0  0  0  0  0  0  0
   15.6275   20.4008    9.1773 C   0  0  0  0  0  0  0  0  0  0  0  0
   16.8217   19.6683    9.4075 C   0  0  0  0  0  0  0  0  0  0  0  0
   18.0905   20.2532    9.1025 C   0  0  0  0  0  0  0  0  0  0  0  0
   18.1852   21.5579    8.5618 C   0  0  0  0  0  0  0  0  0  0  0  0
   17.0017   22.2900    8.3420 C   0  0  0  0  0  0  0  0  0  0  0  0
   11.8001   23.3985    3.4659 C   0  0  0  0  0  0  0  0  0  0  0  0
   11.2062   24.0778    2.2953 O   0  0  0  0  0  0  0  0  0  0  0  0
    9.8841   24.4244    2.2046 C   0  0  0  0  0  0  0  0  0  0  0  0
    8.8776   23.4862    2.4669 C   0  0  0  0  0  0  0  0  0  0  0  0
    7.5033   23.8398    2.3964 C   0  0  0  0  0  0  0  0  0  0  0  0
    7.1138   25.1528    2.0489 C   0  0  0  0  0  0  0  0  0  0  0  0
    8.1296   26.0982    1.7683 C   0  0  0  0  0  0  0  0  0  0  0  0
    9.5154   25.7173    1.8558 C   0  0  0  0  0  0  0  0  0  0  0  0
  1  2  1  0  0  0
  1  7  1  0  0  0
  1 13  1  0  0  0
  2  3  1  0  0  0
  2  8  2  0  0  0
  3  4  1  0  0  0
  3 20  1  0  0  0
  4  5  1  0  0  0
  4 27  1  0  0  0
  5  6  1  0  0  0
  5  9  1  0  0  0
  6  7  1  0  0  0
  6 10  1  0  0  0
  7 35  1  0  0  0
 13 14  1  0  0  0
 14 15  2  0  0  0
 14 19  1  0  0  0
 15 16  1  0  0  0
 16 17  2  0  0  0
 17 18  1  0  0  0
 18 19  2  0  0  0
 20 21  1  0  0  0
 21 22  2  0  0  0
 21 26  1  0  0  0
 22 23  1  0  0  0
 23 24  2  0  0  0
 24 25  1  0  0  0
 25 26  2  0  0  0
 27 28  1  0  0  0
 28 29  1  0  0  0
 29 30  2  0  0  0
 29 34  1  0  0  0
 30 31  1  0  0  0
 31 32  2  0  0  0
 32 33  1  0  0  0
 33 34  2  0  0  0
 35 36  1  0  0  0
 36 37  1  0  0  0
 37 38  2  0  0  0
 37 42  1  0  0  0
 38 39  1  0  0  0
 39 40  2  0  0  0
 40 41  1  0  0  0
 41 42  2  0  0  0
  9 11  1  0  0  0
 10 12  1  0  0  0
M  END
> <minimizedAffinity>
-12.49947

$$$$
1AJX_AH1_A_500


 42 46  0  0  0  0  0  0  0  0999 V2000
   13.5142   22.4225    6.5136 N   0  0  0  0  0  0  0  0  0  0  0  0
   12.2539   22.0416    5.9901 C   0  0  0  0  0  0  0  0  0  0  0  0
   12.0274   21.9650    4.6712 N   0  0  0  0  0  0  0  0  0  0  0  0
   13.0442   21.5542    3.6828 C   0  0  0  0  0  0  0  0  0  0  0  0
   14.1029   22.7188    3.4222 C   0  0  0  0  0  0  0  0  0  0  0  0
   15.0527   22.9751    4.6284 C   0  0  0  0  0  0  0  0  0  0  0  0
   14.3536   23.5062    5.9109 C   0  0  0  0  0  0  0  0  0  0  0  0
   11.3067   21.7675    6.7791 O   0  0  0  0  0  0  0  0  0  0  0  0
   14.9046   22.3259    2.3805 O   0  0  0  0  0  0  0  0  0  0  0  0
   15.9618   23.9332    4.2213 O   0  0  0  0  0  0  0  0  0  0  0  0
   15.3754   21.5133    2.6235 H   0  0  0  0  0  0  0  0  0  0  0  0
   15.4914   24.7523    4.0007 H   0  0  0  0  0  0  0  0  0  0  0  0
   13.7403   22.2641    7.9688 C   0  0  0  0  0  0  0  0  0  0  0  0
   15.0404   21.6816    8.3861 C   0  0  0  0  0  0  0  0  0  0  0  0
   16.2302   22.3444    8.1084 C   0  0  0  0  0  0  0  0  0  0  0  0
   17.4537   21.7805    8.4757 C   0  0  0  0  0  0  0  0  0  0  0  0
   17.5052   20.5345    9.1228 C   0  0  0  0  0  0  0  0  0  0  0  0
   16.3124   19.8931    9.3917 C   0  0  0  0  0  0  0  0  0  0  0  0
   15.0754   20.4815    9.0179 C   0  0  0  0  0  0  0  0  0  0  0  0
   10.7062   21.8108    4.1719 C   0  0  0  0  0  0  0  0  0  0  0  0
   10.0070   22.9236    3.4098 C   0  0  0  0  0  0  0  0  0  0  0  0
    8.6216   22.8416    3.0839 C   0  0  0  0  0  0  0  0  0  0  0  0
    8.0150   23.9227    2.4315 C   0  0  0  0  0  0  0  0  0  0  0  0
    8.7248   25.0763    2.0919 C   0  0  0  0  0  0  0  0  0  0  0  0
   10.0887   25.1719    2.3883 C   0  0  0  0  0  0  0  0  0  0  0  0
   10.7430   24.1050    3.0520 C   0  0  0  0  0  0  0  0  0  0  0  0
   13.7829   20.3754    4.2331 C   0  0  0  0  0  0  0  0  0  0  0  0
   14.4802   19.4307    3.3563 O   0  0  0  0  0  0  0  0  0  0  0  0
   15.7131   19.0286    3.4971 C   0  0  0  0  0  0  0  0  0  0  0  0
   16.5233   19.5424    4.5578 C   0  0  0  0  0  0  0  0  0  0  0  0
   17.8693   19.1043    4.6675 C   0  0  0  0  0  0  0  0  0  0  0  0
   18.3924   18.1569    3.7326 C   0  0  0  0  0  0  0  0  0  0  0  0
   17.5879   17.6325    2.6927 C   0  0  0  0  0  0  0  0  0  0  0  0
   16.2550   18.0737    2.5764 C   0  0  0  0  0  0  0  0  0  0  0  0
   13.4166   24.7082    5.5612 C   0  0  0  0  0  0  0  0  0  0  0  0
   12.9624   25.5743    6.6693 O   0  0  0  0  0  0  0  0  0  0  0  0
   11.7192   25.4943    7.2393 C   0  0  0  0  0  0  0  0  0  0  0  0
   10.5866   25.2400    6.4554 C   0  0  0  0  0  0  0  0  0  0  0  0
    9.2951   25.1340    7.0383 C   0  0  0  0  0  0  0  0  0  0  0  0
    9.1177   25.2924    8.4311 C   0  0  0  0  0  0  0  0  0  0  0  0
   10.2594   25.5648    9.2227 C   0  0  0  0  0  0  0  0  0  0  0  0
   11.5586   25.6581    8.6091 C   0  0  0  0  0  0  0  0  0  0  0  0
  1  2  1  0  0  0
  1  7  1  0  0  0
  1 13  1  0  0  0
  2  3  1  0  0  0
  2  8  2  0  0  0
  3  4  1  0  0  0
  3 20  1  0  0  0
  4  5  1  0  0  0
  4 27  1  0  0  0
  5  6  1  0  0  0
  5  9  1  0  0  0
  6  7  1  0  0  0
  6 10  1  0  0  0
  7 35  1  0  0  0
 13 14  1  0  0  0
 14 15  2  0  0  0
 14 19  1  0  0  0
 15 16  1  0  0  0
 16 17  2  0  0  0
 17 18  1  0  0  0
 18 19  2  0  0  0
 20 21  1  0  0  0
 21 22  2  0  0  0
 21 26  1  0  0  0
 22 23  1  0  0  0
 23 24  2  0  0  0
 24 25  1  0  0  0
 25 26  2  0  0  0
 27 28  1  0  0  0
 28 29  1  0  0  0
 29 30  2  0  0  0
 29 34  1  0  0  0
 30 31  1  0  0  0
 31 32  2  0  0  0
 32 33  1  0  0  0
 33 34  2  0  0  0
 35 36  1  0  0  0
 36 37  1  0  0  0
 37 38  2  0  0  0
 37 42  1  0  0  0
 38 39  1  0  0  0
 39 40  2  0  0  0
 40 41  1  0  0  0
 41 42  2  0  0  0
  9 11  1  0  0  0
 10 12  1  0  0  0
M  END
> <minimizedAffinity>
-11.26554

$$$$
1AJX_AH1_A_500


 42 46  0  0  0  0  0  0  0  0999 V2000
   12.9785   22.5272    7.0646 N   0  0  0  0  0  0  0  0  0  0  0  0
   12.2498   21.9901    5.9746 C   0  0  0  0  0  0  0  0  0  0  0  0
   11.8952   22.7386    4.9207 N   0  0  0  0  0  0  0  0  0  0  0  0
   12.7091   23.8487    4.3870 C   0  0  0  0  0  0  0  0  0  0  0  0
   12.6139   25.1384    5.3212 C   0  0  0  0  0  0  0  0  0  0  0  0
   13.3359   24.9680    6.6895 C   0  0  0  0  0  0  0  0  0  0  0  0
   12.7195   23.8912    7.6254 C   0  0  0  0  0  0  0  0  0  0  0  0
   11.9152   20.7724    5.9864 O   0  0  0  0  0  0  0  0  0  0  0  0
   13.2536   26.1665    4.6762 O   0  0  0  0  0  0  0  0  0  0  0  0
   13.2485   26.1850    7.3388 O   0  0  0  0  0  0  0  0  0  0  0  0
   14.1862   25.9348    4.5440 H   0  0  0  0  0  0  0  0  0  0  0  0
   12.3158   26.4041    7.4906 H   0  0  0  0  0  0  0  0  0  0  0  0
   13.5188   21.5857    8.0723 C   0  0  0  0  0  0  0  0  0  0  0  0
   14.9955   21.5272    8.2120 C   0  0  0  0  0  0  0  0  0  0  0  0
   15.7676   22.6646    8.0063 C   0  0  0  0  0  0  0  0  0  0  0  0
   17.1587   22.6005    8.1091 C   0  0  0  0  0  0  0  0  0  0  0  0
   17.8016   21.3889    8.4133 C   0  0  0  0  0  0  0  0  0  0  0  0
   17.0170   20.2710    8.6161 C   0  0  0  0  0  0  0  0  0  0  0  0
   15.6031   20.3525    8.5143 C   0  0  0  0  0  0  0  0  0  0  0  0
   10.9733   22.2438    3.9595 C   0  0  0  0  0  0  0  0  0  0  0  0
    9.7521   23.0444    3.5402 C   0  0  0  0  0  0  0  0  0  0  0  0
    9.0790   22.7804    2.3116 C   0  0  0  0  0  0  0  0  0  0  0  0
    7.9236   23.5099    2.0030 C   0  0  0  0  0  0  0  0  0  0  0  0
    7.4119   24.4856    2.8609 C   0  0  0  0  0  0  0  0  0  0  0  0
    8.0651   24.7718    4.0645 C   0  0  0  0  0  0  0  0  0  0  0  0
    9.2342   24.0555    4.4206 C   0  0  0  0  0  0  0  0  0  0  0  0
   14.1384   23.4082    4.3550 C   0  0  0  0  0  0  0  0  0  0  0  0
   14.6197   22.4401    3.3657 O   0  0  0  0  0  0  0  0  0  0  0  0
   14.9706   21.2084    3.6135 C   0  0  0  0  0  0  0  0  0  0  0  0
   15.8848   20.9177    4.6744 C   0  0  0  0  0  0  0  0  0  0  0  0
   16.2669   19.5693    4.9011 C   0  0  0  0  0  0  0  0  0  0  0  0
   15.7324   18.5262    4.0818 C   0  0  0  0  0  0  0  0  0  0  0  0
   14.8133   18.8083    3.0429 C   0  0  0  0  0  0  0  0  0  0  0  0
   14.4406   20.1468    2.8102 C   0  0  0  0  0  0  0  0  0  0  0  0
   11.1718   24.0859    7.7329 C   0  0  0  0  0  0  0  0  0  0  0  0
   10.6677   25.0942    8.6888 O   0  0  0  0  0  0  0  0  0  0  0  0
    9.7992   26.0982    8.3509 C   0  0  0  0  0  0  0  0  0  0  0  0
    9.7193   26.5628    7.0319 C   0  0  0  0  0  0  0  0  0  0  0  0
    8.8074   27.5889    6.6655 C   0  0  0  0  0  0  0  0  0  0  0  0
    7.9588   28.1772    7.6300 C   0  0  0  0  0  0  0  0  0  0  0  0
    8.0494   27.7196    8.9667 C   0  0  0  0  0  0  0  0  0  0  0  0
    8.9751   26.6718    9.3105 C   0  0  0  0  0  0  0  0  0  0  0  0
  1  2  1  0  0  0
  1  7  1  0  0  0
  1 13  1  0  0  0
  2  3  1  0  0  0
  2  8  2  0  0  0
  3  4  1  0  0  0
  3 20  1  0  0  0
  4  5  1  0  0  0
  4 27  1  0  0  0
  5  6  1  0  0  0
  5  9  1  0  0  0
  6  7  1  0  0  0
  6 10  1  0  0  0
  7 35  1  0  0  0
 13 14  1  0  0  0
 14 15  2  0  0  0
 14 19  1  0  0  0
 15 16  1  0  0  0
 16 17  2  0  0  0
 17 18  1  0  0  0
 18 19  2  0  0  0
 20 21  1  0  0  0
 21 22  2  0  0  0
 21 26  1  0  0  0
 22 23  1  0  0  0
 23 24  2  0  0  0
 24 25  1  0  0  0
 25 26  2  0  0  0
 27 28  1  0  0  0
 28 29  1  0  0  0
 29 30  2  0  0  0
 29 34  1  0  0  0
 30 31  1  0  0  0
 31 32  2  0  0  0
 32 33  1  0  0  0
 33 34  2  0  0  0
 35 36  1  0  0  0
 36 37  1  0  0  0
 37 38  2  0  0  0
 37 42  1  0  0  0
 38 39  1  0  0  0
 39 40  2  0  0  0
 40 41  1  0  0  0
 41 42  2  0  0  0
  9 11  1  0  0  0
 10 12  1  0  0  0
M  END
> <minimizedAffinity>
-10.95734

$$$$
1AJX_AH1_A_500


 42 46  0  0  0  0  0  0  0  0999 V2000
   13.4527   22.9482    4.1221 N   0  0  0  0  0  0  0  0  0  0  0  0
   13.6307   23.9402    5.1180 C   0  0  0  0  0  0  0  0  0  0  0  0
   12.6751   24.2262    6.0132 N   0  0  0  0  0  0  0  0  0  0  0  0
   11.7372   23.2283    6.5649 C   0  0  0  0  0  0  0  0  0  0  0  0
   10.6113   22.8420    5.5028 C   0  0  0  0  0  0  0  0  0  0  0  0
   11.1491   22.0066    4.3046 C   0  0  0  0  0  0  0  0  0  0  0  0
   12.1616   22.7506    3.3898 C   0  0  0  0  0  0  0  0  0  0  0  0
   14.7161   24.5837    5.1716 O   0  0  0  0  0  0  0  0  0  0  0  0
    9.6928   22.0478    6.1415 O   0  0  0  0  0  0  0  0  0  0  0  0
   10.0542   21.6724    3.5303 O   0  0  0  0  0  0  0  0  0  0  0  0
   10.1274   21.2396    6.4561 H   0  0  0  0  0  0  0  0  0  0  0  0
    9.6344   22.4812    3.1978 H   0  0  0  0  0  0  0  0  0  0  0  0
   14.6328   22.5435    3.3237 C   0  0  0  0  0  0  0  0  0  0  0  0
   15.0587   21.1252    3.4278 C   0  0  0  0  0  0  0  0  0  0  0  0
   14.6395   20.1934    2.4854 C   0  0  0  0  0  0  0  0  0  0  0  0
   15.0172   18.8541    2.6017 C   0  0  0  0  0  0  0  0  0  0  0  0
   15.8178   18.4239    3.6730 C   0  0  0  0  0  0  0  0  0  0  0  0
   16.2255   19.3650    4.5974 C   0  0  0  0  0  0  0  0  0  0  0  0
   15.8389   20.7246    4.4628 C   0  0  0  0  0  0  0  0  0  0  0  0
   12.7830   25.3729    6.8452 C   0  0  0  0  0  0  0  0  0  0  0  0
   11.5970   25.8992    7.6353 C   0  0  0  0  0  0  0  0  0  0  0  0
   10.5333   26.6008    6.9961 C   0  0  0  0  0  0  0  0  0  0  0  0
    9.4365   27.0122    7.7643 C   0  0  0  0  0  0  0  0  0  0  0  0
    9.3535   26.7561    9.1344 C   0  0  0  0  0  0  0  0  0  0  0  0
   10.3930   26.0828    9.7851 C   0  0  0  0  0  0  0  0  0  0  0  0
   11.5197   25.6433    9.0474 C   0  0  0  0  0  0  0  0  0  0  0  0
   12.5094   21.9886    6.8885 C   0  0  0  0  0  0  0  0  0  0  0  0
   13.3502   21.9004    8.0855 O   0  0  0  0  0  0  0  0  0  0  0  0
   14.6500   21.7897    8.0968 C   0  0  0  0  0  0  0  0  0  0  0  0
   15.2642   20.4991    8.1470 C   0  0  0  0  0  0  0  0  0  0  0  0
   16.6808   20.4140    8.1849 C   0  0  0  0  0  0  0  0  0  0  0  0
   17.4705   21.6061    8.1629 C   0  0  0  0  0  0  0  0  0  0  0  0
   16.8664   22.8843    8.0948 C   0  0  0  0  0  0  0  0  0  0  0  0
   15.4605   22.9709    8.0671 C   0  0  0  0  0  0  0  0  0  0  0  0
   11.6062   24.1584    2.9966 C   0  0  0  0  0  0  0  0  0  0  0  0
   10.3568   24.2121    2.2089 O   0  0  0  0  0  0  0  0  0  0  0  0
    9.1860   24.7516    2.6722 C   0  0  0  0  0  0  0  0  0  0  0  0
    7.9489   24.2344    2.2670 C   0  0  0  0  0  0  0  0  0  0  0  0
    6.7286   24.7723    2.7572 C   0  0  0  0  0  0  0  0  0  0  0  0
    6.7311   25.8554    3.6646 C   0  0  0  0  0  0  0  0  0  0  0  0
    7.9803   26.3894    4.0630 C   0  0  0  0  0  0  0  0  0  0  0  0
    9.2032   25.8203    3.5591 C   0  0  0  0  0  0  0  0  0  0  0  0
  1  2  1  0  0  0
  1  7  1  0  0  0
  1 13  1  0  0  0
  2  3  1  0  0  0
  2  8  2  0  0  0
  3  4  1  0  0  0
  3 20  1  0  0  0
  4  5  1  0  0  0
  4 27  1  0  0  0
  5  6  1  0  0  0
  5  9  1  0  0  0
  6  7  1  0  0  0
  6 10  1  0  0  0
  7 35  1  0  0  0
 13 14  1  0  0  0
 14 15  2  0  0  0
 14 19  1  0  0  0
 15 16  1  0  0  0
 16 17  2  0  0  0
 17 18  1  0  0  0
 18 19  2  0  0  0
 20 21  1  0  0  0
 21 22  2  0  0  0
 21 26  1  0  0  0
 22 23  1  0  0  0
 23 24  2  0  0  0
 24 25  1  0  0  0
 25 26  2  0  0  0
 27 28  1  0  0  0
 28 29  1  0  0  0
 29 30  2  0  0  0
 29 34  1  0  0  0
 30 31  1  0  0  0
 31 32  2  0  0  0
 32 33  1  0  0  0
 33 34  2  0  0  0
 35 36  1  0  0  0
 36 37  1  0  0  0
 37 38  2  0  0  0
 37 42  1  0  0  0
 38 39  1  0  0  0
 39 40  2  0  0  0
 40 41  1  0  0  0
 41 42  2  0  0  0
  9 11  1  0  0  0
 10 12  1  0  0  0
M  END
> <minimizedAffinity>
-9.90234

$$$$
1AJX_AH1_A_500


 42 46  0  0  0  0  0  0  0  0999 V2000
   12.7262   24.1757    6.1067 N   0  0  0  0  0  0  0  0  0  0  0  0
   13.7519   23.8668    5.1793 C   0  0  0  0  0  0  0  0  0  0  0  0
   13.5681   22.9867    4.1852 N   0  0  0  0  0  0  0  0  0  0  0  0
   12.2834   22.7915    3.4844 C   0  0  0  0  0  0  0  0  0  0  0  0
   11.2507   21.9739    4.3844 C   0  0  0  0  0  0  0  0  0  0  0  0
   10.7200   22.7788    5.6064 C   0  0  0  0  0  0  0  0  0  0  0  0
   11.7959   23.1446    6.6667 C   0  0  0  0  0  0  0  0  0  0  0  0
   14.8786   24.4277    5.2843 O   0  0  0  0  0  0  0  0  0  0  0  0
   10.1557   21.6913    3.6075 O   0  0  0  0  0  0  0  0  0  0  0  0
    9.7761   21.9824    6.2268 O   0  0  0  0  0  0  0  0  0  0  0  0
    9.7424   22.5196    3.3177 H   0  0  0  0  0  0  0  0  0  0  0  0
   10.1961   21.1647    6.5363 H   0  0  0  0  0  0  0  0  0  0  0  0
   12.9405   25.3156    7.0277 C   0  0  0  0  0  0  0  0  0  0  0  0
   11.7520   25.8168    7.7626 C   0  0  0  0  0  0  0  0  0  0  0  0
   11.6041   25.5597    9.1206 C   0  0  0  0  0  0  0  0  0  0  0  0
   10.4711   26.0067    9.8035 C   0  0  0  0  0  0  0  0  0  0  0  0
    9.4602   26.7147    9.1320 C   0  0  0  0  0  0  0  0  0  0  0  0
    9.6268   26.9617    7.7838 C   0  0  0  0  0  0  0  0  0  0  0  0
   10.7872   26.5064    7.1038 C   0  0  0  0  0  0  0  0  0  0  0  0
   14.6696   22.5217    3.4178 C   0  0  0  0  0  0  0  0  0  0  0  0
   15.1317   21.0759    3.4810 C   0  0  0  0  0  0  0  0  0  0  0  0
   15.9831   20.6151    4.5275 C   0  0  0  0  0  0  0  0  0  0  0  0
   16.3303   19.2587    4.5692 C   0  0  0  0  0  0  0  0  0  0  0  0
   15.8683   18.3458    3.6189 C   0  0  0  0  0  0  0  0  0  0  0  0
   15.0444   18.7790    2.5745 C   0  0  0  0  0  0  0  0  0  0  0  0
   14.6631   20.1411    2.4952 C   0  0  0  0  0  0  0  0  0  0  0  0
   11.6901   24.1372    3.2104 C   0  0  0  0  0  0  0  0  0  0  0  0
   10.4886   24.2913    2.3856 O   0  0  0  0  0  0  0  0  0  0  0  0
    9.3415   24.7613    2.7914 C   0  0  0  0  0  0  0  0  0  0  0  0
    8.1200   24.2509    2.2501 C   0  0  0  0  0  0  0  0  0  0  0  0
    6.8892   24.8023    2.6935 C   0  0  0  0  0  0  0  0  0  0  0  0
    6.8831   25.8442    3.6731 C   0  0  0  0  0  0  0  0  0  0  0  0
    8.0892   26.3390    4.2244 C   0  0  0  0  0  0  0  0  0  0  0  0
    9.3119   25.7998    3.7782 C   0  0  0  0  0  0  0  0  0  0  0  0
   12.6394   21.8828    7.0428 C   0  0  0  0  0  0  0  0  0  0  0  0
   13.4794   21.9510    8.2570 O   0  0  0  0  0  0  0  0  0  0  0  0
   14.8353   21.7562    8.2580 C   0  0  0  0  0  0  0  0  0  0  0  0
   15.3736   20.4641    8.3101 C   0  0  0  0  0  0  0  0  0  0  0  0
   16.7779   20.2490    8.2905 C   0  0  0  0  0  0  0  0  0  0  0  0
   17.6735   21.3400    8.2268 C   0  0  0  0  0  0  0  0  0  0  0  0
   17.1313   22.6473    8.1898 C   0  0  0  0  0  0  0  0  0  0  0  0
   15.7042   22.8383    8.2013 C   0  0  0  0  0  0  0  0  0  0  0  0
  1  2  1  0  0  0
  1  7  1  0  0  0
  1 13  1  0  0  0
  2  3  1  0  0  0
  2  8  2  0  0  0
  3  4  1  0  0  0
  3 20  1  0  0  0
  4  5  1  0  0  0
  4 27  1  0  0  0
  5  6  1  0  0  0
  5  9  1  0  0  0
  6  7  1  0  0  0
  6 10  1  0  0  0
  7 35  1  0  0  0
 13 14  1  0  0  0
 14 15  2  0  0  0
 14 19  1  0  0  0
 15 16  1  0  0  0
 16 17  2  0  0  0
 17 18  1  0  0  0
 18 19  2  0  0  0
 20 21  1  0  0  0
 21 22  2  0  0  0
 21 26  1  0  0  0
 22 23  1  0  0  0
 23 24  2  0  0  0
 24 25  1  0  0  0
 25 26  2  0  0  0
 27 28  1  0  0  0
 28 29  1  0  0  0
 29 30  2  0  0  0
 29 34  1  0  0  0
 30 31  1  0  0  0
 31 32  2  0  0  0
 32 33  1  0  0  0
 33 34  2  0  0  0
 35 36  1  0  0  0
 36 37  1  0  0  0
 37 38  2  0  0  0
 37 42  1  0  0  0
 38 39  1  0  0  0
 39 40  2  0  0  0
 40 41  1  0  0  0
 41 42  2  0  0  0
  9 11  1  0  0  0
 10 12  1  0  0  0
M  END
> <minimizedAffinity>
-9.79741

$$$$
1AJX_AH1_A_500


 42 46  0  0  0  0  0  0  0  0999 V2000
   12.9182   21.9793    5.6220 N   0  0  0  0  0  0  0  0  0  0  0  0
   11.5555   22.2123    5.9324 C   0  0  0  0  0  0  0  0  0  0  0  0
   10.9589   23.3840    5.6719 N   0  0  0  0  0  0  0  0  0  0  0  0
   11.2858   24.2351    4.5106 C   0  0  0  0  0  0  0  0  0  0  0  0
   12.6697   24.9996    4.7237 C   0  0  0  0  0  0  0  0  0  0  0  0
   13.9109   24.0619    4.6715 C   0  0  0  0  0  0  0  0  0  0  0  0
   13.9862   23.0111    5.8142 C   0  0  0  0  0  0  0  0  0  0  0  0
   10.8732   21.2983    6.4745 O   0  0  0  0  0  0  0  0  0  0  0  0
   12.8172   25.8878    3.6884 O   0  0  0  0  0  0  0  0  0  0  0  0
   15.0255   24.8724    4.7756 O   0  0  0  0  0  0  0  0  0  0  0  0
   12.8446   25.4035    2.8484 H   0  0  0  0  0  0  0  0  0  0  0  0
   15.0081   25.3384    5.6262 H   0  0  0  0  0  0  0  0  0  0  0  0
   13.4313   20.5945    5.7361 C   0  0  0  0  0  0  0  0  0  0  0  0
   14.0123   19.9913    4.5104 C   0  0  0  0  0  0  0  0  0  0  0  0
   14.5716   18.7194    4.5491 C   0  0  0  0  0  0  0  0  0  0  0  0
   15.1441   18.1659    3.4020 C   0  0  0  0  0  0  0  0  0  0  0  0
   15.1724   18.8841    2.1949 C   0  0  0  0  0  0  0  0  0  0  0  0
   14.6099   20.1449    2.1765 C   0  0  0  0  0  0  0  0  0  0  0  0
   14.0257   20.6925    3.3491 C   0  0  0  0  0  0  0  0  0  0  0  0
    9.6716   23.6732    6.1988 C   0  0  0  0  0  0  0  0  0  0  0  0
    9.0651   25.0629    6.1041 C   0  0  0  0  0  0  0  0  0  0  0  0
    8.0072   25.4703    6.9685 C   0  0  0  0  0  0  0  0  0  0  0  0
    7.5258   26.7825    6.8764 C   0  0  0  0  0  0  0  0  0  0  0  0
    8.0500   27.7021    5.9657 C   0  0  0  0  0  0  0  0  0  0  0  0
    9.0779   27.3192    5.0972 C   0  0  0  0  0  0  0  0  0  0  0  0
    9.5996   26.0036    5.1582 C   0  0  0  0  0  0  0  0  0  0  0  0
   11.4267   23.3544    3.3095 C   0  0  0  0  0  0  0  0  0  0  0  0
   10.3787   23.2788    2.2879 O   0  0  0  0  0  0  0  0  0  0  0  0
    9.2782   23.9790    2.2724 C   0  0  0  0  0  0  0  0  0  0  0  0
    8.0662   23.4305    2.7973 C   0  0  0  0  0  0  0  0  0  0  0  0
    6.8799   24.2084    2.7414 C   0  0  0  0  0  0  0  0  0  0  0  0
    6.9108   25.5216    2.1759 C   0  0  0  0  0  0  0  0  0  0  0  0
    8.1124   26.0746    1.6722 C   0  0  0  0  0  0  0  0  0  0  0  0
    9.2885   25.3002    1.7180 C   0  0  0  0  0  0  0  0  0  0  0  0
   13.7543   23.6974    7.1999 C   0  0  0  0  0  0  0  0  0  0  0  0
   13.3426   25.1169    7.2069 O   0  0  0  0  0  0  0  0  0  0  0  0
   12.2979   25.6042    7.9468 C   0  0  0  0  0  0  0  0  0  0  0  0
   11.9262   26.9520    7.8610 C   0  0  0  0  0  0  0  0  0  0  0  0
   10.8311   27.4638    8.6077 C   0  0  0  0  0  0  0  0  0  0  0  0
   10.0899   26.6234    9.4684 C   0  0  0  0  0  0  0  0  0  0  0  0
   10.4740   25.2644    9.5680 C   0  0  0  0  0  0  0  0  0  0  0  0
   11.5818   24.7680    8.7936 C   0  0  0  0  0  0  0  0  0  0  0  0
  1  2  1  0  0  0
  1  7  1  0  0  0
  1 13  1  0  0  0
  2  3  1  0  0  0
  2  8  2  0  0  0
  3  4  1  0  0  0
  3 20  1  0  0  0
  4  5  1  0  0  0
  4 27  1  0  0  0
  5  6  1  0  0  0
  5  9  1  0  0  0
  6  7  1  0  0  0
  6 10  1  0  0  0
  7 35  1  0  0  0
 13 14  1  0  0  0
 14 15  2  0  0  0
 14 19  1  0  0  0
 15 16  1  0  0  0
 16 17  2  0  0  0
 17 18  1  0  0  0
 18 19  2  0  0  0
 20 21  1  0  0  0
 21 22  2  0  0  0
 21 26  1  0  0  0
 22 23  1  0  0  0
 23 24  2  0  0  0
 24 25  1  0  0  0
 25 26  2  0  0  0
 27 28  1  0  0  0
 28 29  1  0  0  0
 29 30  2  0  0  0
 29 34  1  0  0  0
 30 31  1  0  0  0
 31 32  2  0  0  0
 32 33  1  0  0  0
 33 34  2  0  0  0
 35 36  1  0  0  0
 36 37  1  0  0  0
 37 38  2  0  0  0
 37 42  1  0  0  0
 38 39  1  0  0  0
 39 40  2  0  0  0
 40 41  1  0  0  0
 41 42  2  0  0  0
  9 11  1  0  0  0
 10 12  1  0  0  0
M  END
> <minimizedAffinity>
-9.56238

$$$$
