1OGX_EQU_A_1128


 21 24  0  0  0  0  0  0  0  0999 V2000
   23.2274  -34.2780  -37.5535 C   0  0  0  0  0  0  0  0  0  0  0  0
   22.9550  -33.1407  -36.7781 C   0  0  0  0  0  0  0  0  0  0  0  0
   23.7438  -31.9748  -36.9937 C   0  0  0  0  0  0  0  0  0  0  0  0
   24.8286  -31.9761  -38.0201 C   0  0  0  0  0  0  0  0  0  0  0  0
   25.0517  -33.1543  -38.7745 C   0  0  0  0  0  0  0  0  0  0  0  0
   24.2682  -34.2853  -38.5464 C   0  0  0  0  0  0  0  0  0  0  0  0
   23.4583  -30.8085  -36.1898 C   0  0  0  0  0  0  0  0  0  0  0  0
   24.2448  -29.6345  -36.3981 C   0  0  0  0  0  0  0  0  0  0  0  0
   25.2988  -29.6228  -37.3903 C   0  0  0  0  0  0  0  0  0  0  0  0
   25.6013  -30.7831  -38.2059 C   0  0  0  0  0  0  0  0  0  0  0  0
   26.0787  -28.3668  -37.5750 C   0  0  0  0  0  0  0  0  0  0  0  0
   26.6450  -28.2232  -39.0163 C   0  0  0  0  0  0  0  0  0  0  0  0
   27.4891  -29.4565  -39.4073 C   0  0  0  0  0  0  0  0  0  0  0  0
   26.6970  -30.7865  -39.2525 C   0  0  0  0  0  0  0  0  0  0  0  0
   25.3324  -27.0089  -37.4350 C   0  0  0  0  0  0  0  0  0  0  0  0
   26.5102  -26.0244  -37.7483 C   0  0  0  0  0  0  0  0  0  0  0  0
   27.3326  -26.8695  -38.7858 C   0  0  0  0  0  0  0  0  0  0  0  0
   25.5366  -28.0045  -40.0579 C   0  0  0  0  0  0  0  0  0  0  0  0
   22.4860  -35.3310  -37.3167 O   0  0  0  0  0  0  0  0  0  0  0  0
   28.3571  -26.5132  -39.3203 O   0  0  0  0  0  0  0  0  0  0  0  0
   21.8156  -35.2946  -36.6631 H   0  0  0  0  0  0  0  0  0  0  0  0
  1  2  2  0  0  0
  1  6  1  0  0  0
  1 19  1  0  0  0
  2  3  1  0  0  0
  3  4  2  0  0  0
  3  7  1  0  0  0
  4  5  1  0  0  0
  4 10  1  0  0  0
  5  6  2  0  0  0
  7  8  2  0  0  0
  8  9  1  0  0  0
  9 10  2  0  0  0
  9 11  1  0  0  0
 10 14  1  0  0  0
 11 12  1  0  0  0
 11 15  1  0  0  0
 12 13  1  0  0  0
 12 17  1  0  0  0
 12 18  1  0  0  0
 13 14  1  0  0  0
 15 16  1  0  0  0
 16 17  1  0  0  0
 17 20  2  0  0  0
 19 21  1  0  0  0
M  END
> <minimizedAffinity>
-9.52696

$$$$
1OGX_EQU_A_1128


 21 24  0  0  0  0  0  0  0  0999 V2000
   22.8110  -34.0957  -37.6439 C   0  0  0  0  0  0  0  0  0  0  0  0
   22.7670  -33.1192  -36.6373 C   0  0  0  0  0  0  0  0  0  0  0  0
   23.3740  -31.8573  -36.8971 C   0  0  0  0  0  0  0  0  0  0  0  0
   24.0363  -31.5939  -38.2094 C   0  0  0  0  0  0  0  0  0  0  0  0
   24.0434  -32.6190  -39.1873 C   0  0  0  0  0  0  0  0  0  0  0  0
   23.4440  -33.8477  -38.9116 C   0  0  0  0  0  0  0  0  0  0  0  0
   23.3260  -30.8578  -35.8547 C   0  0  0  0  0  0  0  0  0  0  0  0
   23.9329  -29.5893  -36.1057 C   0  0  0  0  0  0  0  0  0  0  0  0
   24.5776  -29.3213  -37.3738 C   0  0  0  0  0  0  0  0  0  0  0  0
   24.6371  -30.3115  -38.4316 C   0  0  0  0  0  0  0  0  0  0  0  0
   25.1824  -27.9764  -37.5863 C   0  0  0  0  0  0  0  0  0  0  0  0
   25.2084  -27.5647  -39.0858 C   0  0  0  0  0  0  0  0  0  0  0  0
   25.9257  -28.6313  -39.9427 C   0  0  0  0  0  0  0  0  0  0  0  0
   25.3028  -30.0460  -39.7667 C   0  0  0  0  0  0  0  0  0  0  0  0
   24.4639  -26.7402  -36.9731 C   0  0  0  0  0  0  0  0  0  0  0  0
   25.4107  -25.6014  -37.4843 C   0  0  0  0  0  0  0  0  0  0  0  0
   25.8652  -26.1941  -38.8660 C   0  0  0  0  0  0  0  0  0  0  0  0
   23.7991  -27.3149  -39.6453 C   0  0  0  0  0  0  0  0  0  0  0  0
   22.2502  -35.2445  -37.3606 O   0  0  0  0  0  0  0  0  0  0  0  0
   26.6232  -25.6571  -39.6402 O   0  0  0  0  0  0  0  0  0  0  0  0
   21.8458  -35.3751  -36.5255 H   0  0  0  0  0  0  0  0  0  0  0  0
  1  2  2  0  0  0
  1  6  1  0  0  0
  1 19  1  0  0  0
  2  3  1  0  0  0
  3  4  2  0  0  0
  3  7  1  0  0  0
  4  5  1  0  0  0
  4 10  1  0  0  0
  5  6  2  0  0  0
  7  8  2  0  0  0
  8  9  1  0  0  0
  9 10  2  0  0  0
  9 11  1  0  0  0
 10 14  1  0  0  0
 11 12  1  0  0  0
 11 15  1  0  0  0
 12 13  1  0  0  0
 12 17  1  0  0  0
 12 18  1  0  0  0
 13 14  1  0  0  0
 15 16  1  0  0  0
 16 17  1  0  0  0
 17 20  2  0  0  0
 19 21  1  0  0  0
M  END
> <minimizedAffinity>
-8.81557

$$$$
1OGX_EQU_A_1128


 21 24  0  0  0  0  0  0  0  0999 V2000
   23.3034  -34.4622  -37.4478 C   0  0  0  0  0  0  0  0  0  0  0  0
   24.4582  -34.2279  -38.2097 C   0  0  0  0  0  0  0  0  0  0  0  0
   24.8783  -32.8802  -38.3976 C   0  0  0  0  0  0  0  0  0  0  0  0
   24.1014  -31.7562  -37.7949 C   0  0  0  0  0  0  0  0  0  0  0  0
   22.9465  -32.0578  -37.0319 C   0  0  0  0  0  0  0  0  0  0  0  0
   22.5524  -33.3847  -36.8613 C   0  0  0  0  0  0  0  0  0  0  0  0
   26.0673  -32.6473  -39.1850 C   0  0  0  0  0  0  0  0  0  0  0  0
   26.4959  -31.2987  -39.3798 C   0  0  0  0  0  0  0  0  0  0  0  0
   25.7520  -30.2004  -38.8004 C   0  0  0  0  0  0  0  0  0  0  0  0
   24.5561  -30.4136  -38.0083 C   0  0  0  0  0  0  0  0  0  0  0  0
   26.2522  -28.8149  -39.0243 C   0  0  0  0  0  0  0  0  0  0  0  0
   25.8522  -27.8441  -37.8771 C   0  0  0  0  0  0  0  0  0  0  0  0
   24.3235  -27.8470  -37.6542 C   0  0  0  0  0  0  0  0  0  0  0  0
   23.7686  -29.2761  -37.3902 C   0  0  0  0  0  0  0  0  0  0  0  0
   27.7904  -28.5835  -39.0581 C   0  0  0  0  0  0  0  0  0  0  0  0
   27.8213  -27.0305  -39.2632 C   0  0  0  0  0  0  0  0  0  0  0  0
   26.5347  -26.6028  -38.4702 C   0  0  0  0  0  0  0  0  0  0  0  0
   26.5672  -28.1759  -36.5580 C   0  0  0  0  0  0  0  0  0  0  0  0
   22.9466  -35.7142  -37.3080 O   0  0  0  0  0  0  0  0  0  0  0  0
   26.1355  -25.4680  -38.3480 O   0  0  0  0  0  0  0  0  0  0  0  0
   23.4571  -36.3938  -37.7024 H   0  0  0  0  0  0  0  0  0  0  0  0
  1  2  2  0  0  0
  1  6  1  0  0  0
  1 19  1  0  0  0
  2  3  1  0  0  0
  3  4  2  0  0  0
  3  7  1  0  0  0
  4  5  1  0  0  0
  4 10  1  0  0  0
  5  6  2  0  0  0
  7  8  2  0  0  0
  8  9  1  0  0  0
  9 10  2  0  0  0
  9 11  1  0  0  0
 10 14  1  0  0  0
 11 12  1  0  0  0
 11 15  1  0  0  0
 12 13  1  0  0  0
 12 17  1  0  0  0
 12 18  1  0  0  0
 13 14  1  0  0  0
 15 16  1  0  0  0
 16 17  1  0  0  0
 17 20  2  0  0  0
 19 21  1  0  0  0
M  END
> <minimizedAffinity>
-8.41540

$$$$
1OGX_EQU_A_1128


 21 24  0  0  0  0  0  0  0  0999 V2000
   25.6042  -25.6294  -39.0513 C   0  0  0  0  0  0  0  0  0  0  0  0
   24.9322  -26.2367  -37.9796 C   0  0  0  0  0  0  0  0  0  0  0  0
   24.6432  -27.6284  -38.0686 C   0  0  0  0  0  0  0  0  0  0  0  0
   25.0496  -28.4083  -39.2755 C   0  0  0  0  0  0  0  0  0  0  0  0
   25.7298  -27.7389  -40.3225 C   0  0  0  0  0  0  0  0  0  0  0  0
   26.0018  -26.3753  -40.2153 C   0  0  0  0  0  0  0  0  0  0  0  0
   23.9494  -28.2459  -36.9616 C   0  0  0  0  0  0  0  0  0  0  0  0
   23.6542  -29.6411  -37.0421 C   0  0  0  0  0  0  0  0  0  0  0  0
   24.0433  -30.4084  -38.2063 C   0  0  0  0  0  0  0  0  0  0  0  0
   24.7391  -29.8068  -39.3275 C   0  0  0  0  0  0  0  0  0  0  0  0
   23.7221  -31.8631  -38.2309 C   0  0  0  0  0  0  0  0  0  0  0  0
   24.7187  -32.6788  -39.1027 C   0  0  0  0  0  0  0  0  0  0  0  0
   24.7980  -32.1093  -40.5365 C   0  0  0  0  0  0  0  0  0  0  0  0
   25.1584  -30.5960  -40.5512 C   0  0  0  0  0  0  0  0  0  0  0  0
   23.8070  -32.6589  -36.8968 C   0  0  0  0  0  0  0  0  0  0  0  0
   23.4432  -34.0910  -37.4177 C   0  0  0  0  0  0  0  0  0  0  0  0
   24.0642  -34.0466  -38.8598 C   0  0  0  0  0  0  0  0  0  0  0  0
   26.1260  -32.7267  -38.4874 C   0  0  0  0  0  0  0  0  0  0  0  0
   25.8413  -24.3471  -38.9336 O   0  0  0  0  0  0  0  0  0  0  0  0
   24.0286  -34.9499  -39.6629 O   0  0  0  0  0  0  0  0  0  0  0  0
   25.5696  -23.8893  -38.1626 H   0  0  0  0  0  0  0  0  0  0  0  0
  1  2  2  0  0  0
  1  6  1  0  0  0
  1 19  1  0  0  0
  2  3  1  0  0  0
  3  4  2  0  0  0
  3  7  1  0  0  0
  4  5  1  0  0  0
  4 10  1  0  0  0
  5  6  2  0  0  0
  7  8  2  0  0  0
  8  9  1  0  0  0
  9 10  2  0  0  0
  9 11  1  0  0  0
 10 14  1  0  0  0
 11 12  1  0  0  0
 11 15  1  0  0  0
 12 13  1  0  0  0
 12 17  1  0  0  0
 12 18  1  0  0  0
 13 14  1  0  0  0
 15 16  1  0  0  0
 16 17  1  0  0  0
 17 20  2  0  0  0
 19 21  1  0  0  0
M  END
> <minimizedAffinity>
-8.35097

$$$$
1OGX_EQU_A_1128


 21 24  0  0  0  0  0  0  0  0999 V2000
   26.7552  -26.3028  -37.7196 C   0  0  0  0  0  0  0  0  0  0  0  0
   27.1388  -27.1722  -38.7520 C   0  0  0  0  0  0  0  0  0  0  0  0
   26.6773  -28.5187  -38.7039 C   0  0  0  0  0  0  0  0  0  0  0  0
   25.8097  -28.9798  -37.5793 C   0  0  0  0  0  0  0  0  0  0  0  0
   25.4530  -28.0527  -36.5692 C   0  0  0  0  0  0  0  0  0  0  0  0
   25.9167  -26.7392  -36.6353 C   0  0  0  0  0  0  0  0  0  0  0  0
   27.0782  -29.4081  -39.7698 C   0  0  0  0  0  0  0  0  0  0  0  0
   26.6212  -30.7608  -39.7298 C   0  0  0  0  0  0  0  0  0  0  0  0
   25.7792  -31.2200  -38.6455 C   0  0  0  0  0  0  0  0  0  0  0  0
   25.3671  -30.3432  -37.5664 C   0  0  0  0  0  0  0  0  0  0  0  0
   25.3204  -32.6374  -38.6614 C   0  0  0  0  0  0  0  0  0  0  0  0
   23.9636  -32.8331  -37.9270 C   0  0  0  0  0  0  0  0  0  0  0  0
   24.0315  -32.2938  -36.4809 C   0  0  0  0  0  0  0  0  0  0  0  0
   24.4819  -30.8057  -36.4268 C   0  0  0  0  0  0  0  0  0  0  0  0
   24.9875  -33.2886  -40.0346 C   0  0  0  0  0  0  0  0  0  0  0  0
   24.5244  -34.7054  -39.5519 C   0  0  0  0  0  0  0  0  0  0  0  0
   23.8627  -34.3454  -38.1737 C   0  0  0  0  0  0  0  0  0  0  0  0
   22.7968  -32.1667  -38.6725 C   0  0  0  0  0  0  0  0  0  0  0  0
   27.2092  -25.0771  -37.7967 O   0  0  0  0  0  0  0  0  0  0  0  0
   23.3544  -35.1385  -37.4154 O   0  0  0  0  0  0  0  0  0  0  0  0
   27.7535  -24.8235  -38.5159 H   0  0  0  0  0  0  0  0  0  0  0  0
  1  2  2  0  0  0
  1  6  1  0  0  0
  1 19  1  0  0  0
  2  3  1  0  0  0
  3  4  2  0  0  0
  3  7  1  0  0  0
  4  5  1  0  0  0
  4 10  1  0  0  0
  5  6  2  0  0  0
  7  8  2  0  0  0
  8  9  1  0  0  0
  9 10  2  0  0  0
  9 11  1  0  0  0
 10 14  1  0  0  0
 11 12  1  0  0  0
 11 15  1  0  0  0
 12 13  1  0  0  0
 12 17  1  0  0  0
 12 18  1  0  0  0
 13 14  1  0  0  0
 15 16  1  0  0  0
 16 17  1  0  0  0
 17 20  2  0  0  0
 19 21  1  0  0  0
M  END
> <minimizedAffinity>
-8.00672

$$$$
1OGX_EQU_A_1128


 21 24  0  0  0  0  0  0  0  0999 V2000
   23.4609  -31.9114  -36.9058 C   0  0  0  0  0  0  0  0  0  0  0  0
   23.2738  -30.6000  -36.4430 C   0  0  0  0  0  0  0  0  0  0  0  0
   24.2039  -29.6026  -36.8532 C   0  0  0  0  0  0  0  0  0  0  0  0
   25.3432  -29.9565  -37.7515 C   0  0  0  0  0  0  0  0  0  0  0  0
   25.4755  -31.2975  -38.1887 C   0  0  0  0  0  0  0  0  0  0  0  0
   24.5539  -32.2586  -37.7741 C   0  0  0  0  0  0  0  0  0  0  0  0
   24.0052  -28.2551  -36.3709 C   0  0  0  0  0  0  0  0  0  0  0  0
   24.9336  -27.2480  -36.7761 C   0  0  0  0  0  0  0  0  0  0  0  0
   26.0418  -27.5780  -37.6470 C   0  0  0  0  0  0  0  0  0  0  0  0
   26.2586  -28.9243  -38.1406 C   0  0  0  0  0  0  0  0  0  0  0  0
   26.9716  -26.4854  -38.0490 C   0  0  0  0  0  0  0  0  0  0  0  0
   27.6396  -26.7486  -39.4285 C   0  0  0  0  0  0  0  0  0  0  0  0
   28.3584  -28.1159  -39.4462 C   0  0  0  0  0  0  0  0  0  0  0  0
   27.4099  -29.2860  -39.0570 C   0  0  0  0  0  0  0  0  0  0  0  0
   26.3798  -25.0677  -38.2948 C   0  0  0  0  0  0  0  0  0  0  0  0
   27.6807  -24.3070  -38.7233 C   0  0  0  0  0  0  0  0  0  0  0  0
   28.4633  -25.4529  -39.4593 C   0  0  0  0  0  0  0  0  0  0  0  0
   26.6313  -26.6801  -40.5860 C   0  0  0  0  0  0  0  0  0  0  0  0
   22.5895  -32.7991  -36.4970 O   0  0  0  0  0  0  0  0  0  0  0  0
   29.5535  -25.3371  -39.9695 O   0  0  0  0  0  0  0  0  0  0  0  0
   21.8883  -32.5415  -35.9315 H   0  0  0  0  0  0  0  0  0  0  0  0
  1  2  2  0  0  0
  1  6  1  0  0  0
  1 19  1  0  0  0
  2  3  1  0  0  0
  3  4  2  0  0  0
  3  7  1  0  0  0
  4  5  1  0  0  0
  4 10  1  0  0  0
  5  6  2  0  0  0
  7  8  2  0  0  0
  8  9  1  0  0  0
  9 10  2  0  0  0
  9 11  1  0  0  0
 10 14  1  0  0  0
 11 12  1  0  0  0
 11 15  1  0  0  0
 12 13  1  0  0  0
 12 17  1  0  0  0
 12 18  1  0  0  0
 13 14  1  0  0  0
 15 16  1  0  0  0
 16 17  1  0  0  0
 17 20  2  0  0  0
 19 21  1  0  0  0
M  END
> <minimizedAffinity>
-7.41401

$$$$
1OGX_EQU_A_1128


 21 24  0  0  0  0  0  0  0  0999 V2000
   26.4003  -24.3227  -37.1338 C   0  0  0  0  0  0  0  0  0  0  0  0
   27.0450  -25.1030  -38.1055 C   0  0  0  0  0  0  0  0  0  0  0  0
   26.7992  -26.5057  -38.1139 C   0  0  0  0  0  0  0  0  0  0  0  0
   25.8781  -27.1168  -37.1096 C   0  0  0  0  0  0  0  0  0  0  0  0
   25.2534  -26.2750  -36.1566 C   0  0  0  0  0  0  0  0  0  0  0  0
   25.5091  -24.9040  -36.1658 C   0  0  0  0  0  0  0  0  0  0  0  0
   27.4683  -27.3024  -39.1166 C   0  0  0  0  0  0  0  0  0  0  0  0
   27.2287  -28.7105  -39.1322 C   0  0  0  0  0  0  0  0  0  0  0  0
   26.3377  -29.3149  -38.1646 C   0  0  0  0  0  0  0  0  0  0  0  0
   25.6579  -28.5327  -37.1502 C   0  0  0  0  0  0  0  0  0  0  0  0
   26.1138  -30.7862  -38.2358 C   0  0  0  0  0  0  0  0  0  0  0  0
   24.7220  -31.2048  -37.6824 C   0  0  0  0  0  0  0  0  0  0  0  0
   24.5183  -30.6872  -36.2412 C   0  0  0  0  0  0  0  0  0  0  0  0
   24.7180  -29.1481  -36.1334 C   0  0  0  0  0  0  0  0  0  0  0  0
   26.0662  -31.4571  -39.6388 C   0  0  0  0  0  0  0  0  0  0  0  0
   25.7742  -32.9372  -39.2161 C   0  0  0  0  0  0  0  0  0  0  0  0
   24.8930  -32.7097  -37.9360 C   0  0  0  0  0  0  0  0  0  0  0  0
   23.5701  -30.7162  -38.5744 C   0  0  0  0  0  0  0  0  0  0  0  0
   26.6616  -23.0399  -37.1549 O   0  0  0  0  0  0  0  0  0  0  0  0
   24.4231  -33.5858  -37.2476 O   0  0  0  0  0  0  0  0  0  0  0  0
   27.2468  -22.6915  -37.7984 H   0  0  0  0  0  0  0  0  0  0  0  0
  1  2  2  0  0  0
  1  6  1  0  0  0
  1 19  1  0  0  0
  2  3  1  0  0  0
  3  4  2  0  0  0
  3  7  1  0  0  0
  4  5  1  0  0  0
  4 10  1  0  0  0
  5  6  2  0  0  0
  7  8  2  0  0  0
  8  9  1  0  0  0
  9 10  2  0  0  0
  9 11  1  0  0  0
 10 14  1  0  0  0
 11 12  1  0  0  0
 11 15  1  0  0  0
 12 13  1  0  0  0
 12 17  1  0  0  0
 12 18  1  0  0  0
 13 14  1  0  0  0
 15 16  1  0  0  0
 16 17  1  0  0  0
 17 20  2  0  0  0
 19 21  1  0  0  0
M  END
> <minimizedAffinity>
-7.21515

$$$$
1OGX_EQU_A_1128


 21 24  0  0  0  0  0  0  0  0999 V2000
   28.9359  -24.6734  -39.2685 C   0  0  0  0  0  0  0  0  0  0  0  0
   29.0005  -25.9953  -39.7347 C   0  0  0  0  0  0  0  0  0  0  0  0
   28.0718  -26.9395  -39.2110 C   0  0  0  0  0  0  0  0  0  0  0  0
   27.0621  -26.5209  -38.1934 C   0  0  0  0  0  0  0  0  0  0  0  0
   27.0445  -25.1703  -37.7662 C   0  0  0  0  0  0  0  0  0  0  0  0
   27.9637  -24.2624  -38.2913 C   0  0  0  0  0  0  0  0  0  0  0  0
   28.1461  -28.2991  -39.6948 C   0  0  0  0  0  0  0  0  0  0  0  0
   27.2194  -29.2535  -39.1746 C   0  0  0  0  0  0  0  0  0  0  0  0
   26.2354  -28.8602  -38.1884 C   0  0  0  0  0  0  0  0  0  0  0  0
   26.1457  -27.5014  -37.6898 C   0  0  0  0  0  0  0  0  0  0  0  0
   25.2848  -29.8938  -37.6905 C   0  0  0  0  0  0  0  0  0  0  0  0
   23.9309  -29.2847  -37.2273 C   0  0  0  0  0  0  0  0  0  0  0  0
   24.1508  -28.1838  -36.1661 C   0  0  0  0  0  0  0  0  0  0  0  0
   25.1188  -27.0714  -36.6619 C   0  0  0  0  0  0  0  0  0  0  0  0
   24.7752  -30.9696  -38.6923 C   0  0  0  0  0  0  0  0  0  0  0  0
   23.8061  -31.7679  -37.7552 C   0  0  0  0  0  0  0  0  0  0  0  0
   23.2842  -30.6173  -36.8220 C   0  0  0  0  0  0  0  0  0  0  0  0
   23.1168  -28.7164  -38.4001 C   0  0  0  0  0  0  0  0  0  0  0  0
   29.8138  -23.8402  -39.7680 O   0  0  0  0  0  0  0  0  0  0  0  0
   22.4960  -30.7573  -35.9157 O   0  0  0  0  0  0  0  0  0  0  0  0
   30.4344  -24.1387  -40.4033 H   0  0  0  0  0  0  0  0  0  0  0  0
  1  2  2  0  0  0
  1  6  1  0  0  0
  1 19  1  0  0  0
  2  3  1  0  0  0
  3  4  2  0  0  0
  3  7  1  0  0  0
  4  5  1  0  0  0
  4 10  1  0  0  0
  5  6  2  0  0  0
  7  8  2  0  0  0
  8  9  1  0  0  0
  9 10  2  0  0  0
  9 11  1  0  0  0
 10 14  1  0  0  0
 11 12  1  0  0  0
 11 15  1  0  0  0
 12 13  1  0  0  0
 12 17  1  0  0  0
 12 18  1  0  0  0
 13 14  1  0  0  0
 15 16  1  0  0  0
 16 17  1  0  0  0
 17 20  2  0  0  0
 19 21  1  0  0  0
M  END
> <minimizedAffinity>
-6.99529

$$$$
1OGX_EQU_A_1128


 21 24  0  0  0  0  0  0  0  0999 V2000
   25.1557  -25.2678  -40.1164 C   0  0  0  0  0  0  0  0  0  0  0  0
   26.3054  -26.0714  -40.0823 C   0  0  0  0  0  0  0  0  0  0  0  0
   26.1789  -27.4069  -39.6041 C   0  0  0  0  0  0  0  0  0  0  0  0
   24.8527  -27.9252  -39.1540 C   0  0  0  0  0  0  0  0  0  0  0  0
   23.7279  -27.0662  -39.2171 C   0  0  0  0  0  0  0  0  0  0  0  0
   23.8744  -25.7616  -39.6877 C   0  0  0  0  0  0  0  0  0  0  0  0
   27.3679  -28.2274  -39.5705 C   0  0  0  0  0  0  0  0  0  0  0  0
   27.2511  -29.5680  -39.0916 C   0  0  0  0  0  0  0  0  0  0  0  0
   25.9712  -30.0825  -38.6529 C   0  0  0  0  0  0  0  0  0  0  0  0
   24.7671  -29.2747  -38.6780 C   0  0  0  0  0  0  0  0  0  0  0  0
   25.9047  -31.4924  -38.1757 C   0  0  0  0  0  0  0  0  0  0  0  0
   24.5020  -32.1289  -38.3905 C   0  0  0  0  0  0  0  0  0  0  0  0
   23.3968  -31.2734  -37.7323 C   0  0  0  0  0  0  0  0  0  0  0  0
   23.4185  -29.7989  -38.2277 C   0  0  0  0  0  0  0  0  0  0  0  0
   26.7995  -32.5518  -38.8810 C   0  0  0  0  0  0  0  0  0  0  0  0
   26.3630  -33.8347  -38.0947 C   0  0  0  0  0  0  0  0  0  0  0  0
   24.8559  -33.5026  -37.8023 C   0  0  0  0  0  0  0  0  0  0  0  0
   24.1782  -32.3353  -39.8783 C   0  0  0  0  0  0  0  0  0  0  0  0
   25.3177  -24.0441  -40.5531 O   0  0  0  0  0  0  0  0  0  0  0  0
   24.0883  -34.2166  -37.1996 O   0  0  0  0  0  0  0  0  0  0  0  0
   26.1655  -23.7522  -40.8252 H   0  0  0  0  0  0  0  0  0  0  0  0
  1  2  2  0  0  0
  1  6  1  0  0  0
  1 19  1  0  0  0
  2  3  1  0  0  0
  3  4  2  0  0  0
  3  7  1  0  0  0
  4  5  1  0  0  0
  4 10  1  0  0  0
  5  6  2  0  0  0
  7  8  2  0  0  0
  8  9  1  0  0  0
  9 10  2  0  0  0
  9 11  1  0  0  0
 10 14  1  0  0  0
 11 12  1  0  0  0
 11 15  1  0  0  0
 12 13  1  0  0  0
 12 17  1  0  0  0
 12 18  1  0  0  0
 13 14  1  0  0  0
 15 16  1  0  0  0
 16 17  1  0  0  0
 17 20  2  0  0  0
 19 21  1  0  0  0
M  END
> <minimizedAffinity>
-6.97262

$$$$
1OGX_EQU_A_1128


 21 24  0  0  0  0  0  0  0  0999 V2000
   26.3834  -31.5823  -38.8799 C   0  0  0  0  0  0  0  0  0  0  0  0
   25.1606  -31.3280  -38.2404 C   0  0  0  0  0  0  0  0  0  0  0  0
   24.5816  -30.0350  -38.3855 C   0  0  0  0  0  0  0  0  0  0  0  0
   25.2679  -28.9873  -39.1988 C   0  0  0  0  0  0  0  0  0  0  0  0
   26.4984  -29.3070  -39.8238 C   0  0  0  0  0  0  0  0  0  0  0  0
   27.0482  -30.5791  -39.6678 C   0  0  0  0  0  0  0  0  0  0  0  0
   23.3232  -29.7805  -37.7223 C   0  0  0  0  0  0  0  0  0  0  0  0
   22.7352  -28.4863  -37.8612 C   0  0  0  0  0  0  0  0  0  0  0  0
   23.3901  -27.4623  -38.6473 C   0  0  0  0  0  0  0  0  0  0  0  0
   24.6534  -27.6978  -39.3193 C   0  0  0  0  0  0  0  0  0  0  0  0
   22.7250  -26.1346  -38.7694 C   0  0  0  0  0  0  0  0  0  0  0  0
   23.0918  -25.4036  -40.0921 C   0  0  0  0  0  0  0  0  0  0  0  0
   24.6229  -25.2672  -40.2457 C   0  0  0  0  0  0  0  0  0  0  0  0
   25.3499  -26.6393  -40.1503 C   0  0  0  0  0  0  0  0  0  0  0  0
   21.1720  -26.0936  -38.8528 C   0  0  0  0  0  0  0  0  0  0  0  0
   20.9548  -24.5502  -39.0125 C   0  0  0  0  0  0  0  0  0  0  0  0
   22.2368  -24.1553  -39.8296 C   0  0  0  0  0  0  0  0  0  0  0  0
   22.5095  -26.1083  -41.3273 C   0  0  0  0  0  0  0  0  0  0  0  0
   26.8858  -32.7798  -38.7127 O   0  0  0  0  0  0  0  0  0  0  0  0
   22.5149  -23.0362  -40.1936 O   0  0  0  0  0  0  0  0  0  0  0  0
   26.4283  -33.4115  -38.1934 H   0  0  0  0  0  0  0  0  0  0  0  0
  1  2  2  0  0  0
  1  6  1  0  0  0
  1 19  1  0  0  0
  2  3  1  0  0  0
  3  4  2  0  0  0
  3  7  1  0  0  0
  4  5  1  0  0  0
  4 10  1  0  0  0
  5  6  2  0  0  0
  7  8  2  0  0  0
  8  9  1  0  0  0
  9 10  2  0  0  0
  9 11  1  0  0  0
 10 14  1  0  0  0
 11 12  1  0  0  0
 11 15  1  0  0  0
 12 13  1  0  0  0
 12 17  1  0  0  0
 12 18  1  0  0  0
 13 14  1  0  0  0
 15 16  1  0  0  0
 16 17  1  0  0  0
 17 20  2  0  0  0
 19 21  1  0  0  0
M  END
> <minimizedAffinity>
-6.93867

$$$$
