3PCK_NNO_M_550


 13 13  0  0  0  0  0  0  0  0999 V2000
   13.8835    9.7788   40.9943 N   0  0  0  0  0  0  0  0  0  0  0  0
   14.6272   10.7799   40.5887 C   0  0  0  0  0  0  0  0  0  0  0  0
   14.4986   12.1030   41.0998 C   0  0  0  0  0  0  0  0  0  0  0  0
   13.4988   12.3308   42.0456 C   0  0  0  0  0  0  0  0  0  0  0  0
   12.7076   11.2854   42.4782 C   0  0  0  0  0  0  0  0  0  0  0  0
   12.9186   10.0093   41.9183 C   0  0  0  0  0  0  0  0  0  0  0  0
   12.1240    9.0658   42.2742 O   0  0  0  0  0  0  0  0  0  0  0  0
   13.9955    8.6374   40.4945 O   0  0  0  0  0  0  0  0  0  0  0  0
   12.2331    8.2039   41.9231 H   0  0  0  0  0  0  0  0  0  0  0  0
   15.4517   13.2381   40.6790 C   0  0  0  0  0  0  0  0  0  0  0  0
   16.2123   13.0453   39.7279 O   0  0  0  0  0  0  0  0  0  0  0  0
   15.4664   14.3292   41.2465 O   0  0  0  0  0  0  0  0  0  0  0  0
   14.8934   14.4885   41.9705 H   0  0  0  0  0  0  0  0  0  0  0  0
  1  2  1  0  0  0
  1  6  2  0  0  0
  1  8  1  0  0  0
  2  3  2  0  0  0
  3  4  1  0  0  0
  3 10  1  0  0  0
  4  5  2  0  0  0
  5  6  1  0  0  0
  6  7  1  0  0  0
 10 11  2  0  0  0
 10 12  1  0  0  0
 12 13  1  0  0  0
  7  9  1  0  0  0
M  CHG 1   1   1
M  CHG 1   8  -1
M  END
> <minimizedAffinity>
-6.51383

$$$$
3PCK_NNO_M_550


 13 13  0  0  0  0  0  0  0  0999 V2000
   15.1118   12.7838   40.6559 N   0  0  0  0  0  0  0  0  0  0  0  0
   14.6333   11.5632   40.6247 C   0  0  0  0  0  0  0  0  0  0  0  0
   13.6387   11.0929   41.5292 C   0  0  0  0  0  0  0  0  0  0  0  0
   13.1978   11.9773   42.5138 C   0  0  0  0  0  0  0  0  0  0  0  0
   13.6963   13.2639   42.5586 C   0  0  0  0  0  0  0  0  0  0  0  0
   14.6723   13.6375   41.6129 C   0  0  0  0  0  0  0  0  0  0  0  0
   15.1811   14.8117   41.7167 O   0  0  0  0  0  0  0  0  0  0  0  0
   16.0148   13.1516   39.8721 O   0  0  0  0  0  0  0  0  0  0  0  0
   15.8328   15.0955   41.1062 H   0  0  0  0  0  0  0  0  0  0  0  0
   13.0220    9.6863   41.4070 C   0  0  0  0  0  0  0  0  0  0  0  0
   13.5159    8.8956   40.6002 O   0  0  0  0  0  0  0  0  0  0  0  0
   12.0698    9.3232   42.0958 O   0  0  0  0  0  0  0  0  0  0  0  0
   11.6854    9.9145   42.7127 H   0  0  0  0  0  0  0  0  0  0  0  0
  1  2  1  0  0  0
  1  6  2  0  0  0
  1  8  1  0  0  0
  2  3  2  0  0  0
  3  4  1  0  0  0
  3 10  1  0  0  0
  4  5  2  0  0  0
  5  6  1  0  0  0
  6  7  1  0  0  0
 10 11  2  0  0  0
 10 12  1  0  0  0
 12 13  1  0  0  0
  7  9  1  0  0  0
M  CHG 1   1   1
M  CHG 1   8  -1
M  END
> <minimizedAffinity>
-6.50738

$$$$
3PCK_NNO_M_550


 13 13  0  0  0  0  0  0  0  0999 V2000
   13.1016   10.2337   42.3031 N   0  0  0  0  0  0  0  0  0  0  0  0
   13.0157   11.2406   43.1389 C   0  0  0  0  0  0  0  0  0  0  0  0
   13.3870   12.5720   42.7955 C   0  0  0  0  0  0  0  0  0  0  0  0
   13.9038   12.7842   41.5173 C   0  0  0  0  0  0  0  0  0  0  0  0
   14.0018   11.7315   40.6295 C   0  0  0  0  0  0  0  0  0  0  0  0
   13.5995   10.4515   41.0610 C   0  0  0  0  0  0  0  0  0  0  0  0
   13.7693    9.4707   40.2502 O   0  0  0  0  0  0  0  0  0  0  0  0
   12.8052    9.0691   42.6507 O   0  0  0  0  0  0  0  0  0  0  0  0
   13.5140    8.6050   40.5020 H   0  0  0  0  0  0  0  0  0  0  0  0
   13.1819   13.7532   43.7632 C   0  0  0  0  0  0  0  0  0  0  0  0
   13.2540   14.8998   43.3155 O   0  0  0  0  0  0  0  0  0  0  0  0
   12.9335   13.5905   44.9568 O   0  0  0  0  0  0  0  0  0  0  0  0
   12.8760   12.7243   45.3095 H   0  0  0  0  0  0  0  0  0  0  0  0
  1  2  1  0  0  0
  1  6  2  0  0  0
  1  8  1  0  0  0
  2  3  2  0  0  0
  3  4  1  0  0  0
  3 10  1  0  0  0
  4  5  2  0  0  0
  5  6  1  0  0  0
  6  7  1  0  0  0
 10 11  2  0  0  0
 10 12  1  0  0  0
 12 13  1  0  0  0
  7  9  1  0  0  0
M  CHG 1   1   1
M  CHG 1   8  -1
M  END
> <minimizedAffinity>
-6.45643

$$$$
3PCK_NNO_M_550


 13 13  0  0  0  0  0  0  0  0999 V2000
   13.9205   12.8682   41.9047 N   0  0  0  0  0  0  0  0  0  0  0  0
   14.3778   14.0390   42.2784 C   0  0  0  0  0  0  0  0  0  0  0  0
   15.4552   14.7002   41.6222 C   0  0  0  0  0  0  0  0  0  0  0  0
   16.0656   14.0328   40.5601 C   0  0  0  0  0  0  0  0  0  0  0  0
   15.5949   12.7984   40.1594 C   0  0  0  0  0  0  0  0  0  0  0  0
   14.5167   12.2304   40.8675 C   0  0  0  0  0  0  0  0  0  0  0  0
   14.1419   11.0493   40.5317 O   0  0  0  0  0  0  0  0  0  0  0  0
   12.9990   12.2972   42.5292 O   0  0  0  0  0  0  0  0  0  0  0  0
   13.4286   10.6390   40.9797 H   0  0  0  0  0  0  0  0  0  0  0  0
   15.9066   16.1190   42.0186 C   0  0  0  0  0  0  0  0  0  0  0  0
   15.7067   16.4984   43.1745 O   0  0  0  0  0  0  0  0  0  0  0  0
   16.4715   16.8744   41.2292 O   0  0  0  0  0  0  0  0  0  0  0  0
   16.6294   16.5981   40.3479 H   0  0  0  0  0  0  0  0  0  0  0  0
  1  2  1  0  0  0
  1  6  2  0  0  0
  1  8  1  0  0  0
  2  3  2  0  0  0
  3  4  1  0  0  0
  3 10  1  0  0  0
  4  5  2  0  0  0
  5  6  1  0  0  0
  6  7  1  0  0  0
 10 11  2  0  0  0
 10 12  1  0  0  0
 12 13  1  0  0  0
  7  9  1  0  0  0
M  CHG 1   1   1
M  CHG 1   8  -1
M  END
> <minimizedAffinity>
-6.20628

$$$$
3PCK_NNO_M_550


 13 13  0  0  0  0  0  0  0  0999 V2000
   13.2837   12.8732   43.6475 N   0  0  0  0  0  0  0  0  0  0  0  0
   12.9429   11.6583   43.2904 C   0  0  0  0  0  0  0  0  0  0  0  0
   13.2506   11.1063   42.0140 C   0  0  0  0  0  0  0  0  0  0  0  0
   13.9093   11.9301   41.1010 C   0  0  0  0  0  0  0  0  0  0  0  0
   14.2705   13.2120   41.4644 C   0  0  0  0  0  0  0  0  0  0  0  0
   13.9289   13.6639   42.7550 C   0  0  0  0  0  0  0  0  0  0  0  0
   14.2033   14.8830   43.0494 O   0  0  0  0  0  0  0  0  0  0  0  0
   12.9616   13.3410   44.7622 O   0  0  0  0  0  0  0  0  0  0  0  0
   13.9911   15.2192   43.8979 H   0  0  0  0  0  0  0  0  0  0  0  0
   12.9270    9.6429   41.6567 C   0  0  0  0  0  0  0  0  0  0  0  0
   12.1331    9.0252   42.3695 O   0  0  0  0  0  0  0  0  0  0  0  0
   13.4188    9.0799   40.6799 O   0  0  0  0  0  0  0  0  0  0  0  0
   14.0235    9.5383   40.1302 H   0  0  0  0  0  0  0  0  0  0  0  0
  1  2  1  0  0  0
  1  6  2  0  0  0
  1  8  1  0  0  0
  2  3  2  0  0  0
  3  4  1  0  0  0
  3 10  1  0  0  0
  4  5  2  0  0  0
  5  6  1  0  0  0
  6  7  1  0  0  0
 10 11  2  0  0  0
 10 12  1  0  0  0
 12 13  1  0  0  0
  7  9  1  0  0  0
M  CHG 1   1   1
M  CHG 1   8  -1
M  END
> <minimizedAffinity>
-6.12759

$$$$
3PCK_NNO_M_550


 13 13  0  0  0  0  0  0  0  0999 V2000
   15.3694   13.0273   40.5949 N   0  0  0  0  0  0  0  0  0  0  0  0
   15.7452   14.1390   41.1800 C   0  0  0  0  0  0  0  0  0  0  0  0
   15.0752   14.6898   42.3097 C   0  0  0  0  0  0  0  0  0  0  0  0
   13.9424   14.0203   42.7727 C   0  0  0  0  0  0  0  0  0  0  0  0
   13.5353   12.8505   42.1630 C   0  0  0  0  0  0  0  0  0  0  0  0
   14.2707   12.3808   41.0562 C   0  0  0  0  0  0  0  0  0  0  0  0
   13.8338   11.3348   40.4535 O   0  0  0  0  0  0  0  0  0  0  0  0
   15.9564   12.5931   39.5790 O   0  0  0  0  0  0  0  0  0  0  0  0
   14.2961   10.9930   39.7136 H   0  0  0  0  0  0  0  0  0  0  0  0
   15.5972   15.9427   43.0390 C   0  0  0  0  0  0  0  0  0  0  0  0
   15.8053   16.9633   42.3794 O   0  0  0  0  0  0  0  0  0  0  0  0
   15.7955   15.9627   44.2528 O   0  0  0  0  0  0  0  0  0  0  0  0
   15.6411   15.1937   44.7654 H   0  0  0  0  0  0  0  0  0  0  0  0
  1  2  1  0  0  0
  1  6  2  0  0  0
  1  8  1  0  0  0
  2  3  2  0  0  0
  3  4  1  0  0  0
  3 10  1  0  0  0
  4  5  2  0  0  0
  5  6  1  0  0  0
  6  7  1  0  0  0
 10 11  2  0  0  0
 10 12  1  0  0  0
 12 13  1  0  0  0
  7  9  1  0  0  0
M  CHG 1   1   1
M  CHG 1   8  -1
M  END
> <minimizedAffinity>
-6.00876

$$$$
3PCK_NNO_M_550


 13 13  0  0  0  0  0  0  0  0999 V2000
   14.4038   14.1716   42.4651 N   0  0  0  0  0  0  0  0  0  0  0  0
   13.7898   13.0425   42.2044 C   0  0  0  0  0  0  0  0  0  0  0  0
   14.1797   12.1693   41.1490 C   0  0  0  0  0  0  0  0  0  0  0  0
   15.2415   12.5750   40.3402 C   0  0  0  0  0  0  0  0  0  0  0  0
   15.8938   13.7630   40.6029 C   0  0  0  0  0  0  0  0  0  0  0  0
   15.4384   14.5541   41.6769 C   0  0  0  0  0  0  0  0  0  0  0  0
   16.0057   15.6912   41.8594 O   0  0  0  0  0  0  0  0  0  0  0  0
   14.0093   14.9348   43.3745 O   0  0  0  0  0  0  0  0  0  0  0  0
   15.7299   16.2448   42.5633 H   0  0  0  0  0  0  0  0  0  0  0  0
   13.5049   10.8020   40.9278 C   0  0  0  0  0  0  0  0  0  0  0  0
   13.9221   10.0803   40.0193 O   0  0  0  0  0  0  0  0  0  0  0  0
   12.5807   10.4024   41.6342 O   0  0  0  0  0  0  0  0  0  0  0  0
   12.2545   10.9412   42.3279 H   0  0  0  0  0  0  0  0  0  0  0  0
  1  2  1  0  0  0
  1  6  2  0  0  0
  1  8  1  0  0  0
  2  3  2  0  0  0
  3  4  1  0  0  0
  3 10  1  0  0  0
  4  5  2  0  0  0
  5  6  1  0  0  0
  6  7  1  0  0  0
 10 11  2  0  0  0
 10 12  1  0  0  0
 12 13  1  0  0  0
  7  9  1  0  0  0
M  CHG 1   1   1
M  CHG 1   8  -1
M  END
> <minimizedAffinity>
-5.98236

$$$$
3PCK_NNO_M_550


 13 13  0  0  0  0  0  0  0  0999 V2000
   14.2622   12.4532   41.1558 N   0  0  0  0  0  0  0  0  0  0  0  0
   13.5659   12.8183   42.2054 C   0  0  0  0  0  0  0  0  0  0  0  0
   13.8304   14.0095   42.9398 C   0  0  0  0  0  0  0  0  0  0  0  0
   14.9131   14.7881   42.5306 C   0  0  0  0  0  0  0  0  0  0  0  0
   15.6554   14.4125   41.4289 C   0  0  0  0  0  0  0  0  0  0  0  0
   15.3088   13.2199   40.7624 C   0  0  0  0  0  0  0  0  0  0  0  0
   16.0561   12.8453   39.7880 O   0  0  0  0  0  0  0  0  0  0  0  0
   14.0285   11.3792   40.5581 O   0  0  0  0  0  0  0  0  0  0  0  0
   15.8572   12.0576   39.3210 H   0  0  0  0  0  0  0  0  0  0  0  0
   12.9347   14.4658   44.1075 C   0  0  0  0  0  0  0  0  0  0  0  0
   12.8328   13.7312   45.0924 O   0  0  0  0  0  0  0  0  0  0  0  0
   12.3354   15.5398   44.0963 O   0  0  0  0  0  0  0  0  0  0  0  0
   12.4046   16.1072   43.3539 H   0  0  0  0  0  0  0  0  0  0  0  0
  1  2  1  0  0  0
  1  6  2  0  0  0
  1  8  1  0  0  0
  2  3  2  0  0  0
  3  4  1  0  0  0
  3 10  1  0  0  0
  4  5  2  0  0  0
  5  6  1  0  0  0
  6  7  1  0  0  0
 10 11  2  0  0  0
 10 12  1  0  0  0
 12 13  1  0  0  0
  7  9  1  0  0  0
M  CHG 1   1   1
M  CHG 1   8  -1
M  END
> <minimizedAffinity>
-5.94622

$$$$
3PCK_NNO_M_550


 13 13  0  0  0  0  0  0  0  0999 V2000
   13.6630   11.3371   40.9170 N   0  0  0  0  0  0  0  0  0  0  0  0
   13.5233   12.4316   41.6258 C   0  0  0  0  0  0  0  0  0  0  0  0
   13.2364   12.4251   43.0208 C   0  0  0  0  0  0  0  0  0  0  0  0
   13.0578   11.1844   43.6329 C   0  0  0  0  0  0  0  0  0  0  0  0
   13.1993   10.0253   42.8966 C   0  0  0  0  0  0  0  0  0  0  0  0
   13.4934   10.1361   41.5226 C   0  0  0  0  0  0  0  0  0  0  0  0
   13.5451    9.0519   40.8369 O   0  0  0  0  0  0  0  0  0  0  0  0
   13.8745   11.3794   39.6847 O   0  0  0  0  0  0  0  0  0  0  0  0
   13.7379    9.0858   39.9206 H   0  0  0  0  0  0  0  0  0  0  0  0
   13.1768   13.7229   43.8492 C   0  0  0  0  0  0  0  0  0  0  0  0
   12.8960   13.6436   45.0471 O   0  0  0  0  0  0  0  0  0  0  0  0
   13.4152   14.8265   43.3612 O   0  0  0  0  0  0  0  0  0  0  0  0
   13.6298   14.9003   42.4521 H   0  0  0  0  0  0  0  0  0  0  0  0
  1  2  1  0  0  0
  1  6  2  0  0  0
  1  8  1  0  0  0
  2  3  2  0  0  0
  3  4  1  0  0  0
  3 10  1  0  0  0
  4  5  2  0  0  0
  5  6  1  0  0  0
  6  7  1  0  0  0
 10 11  2  0  0  0
 10 12  1  0  0  0
 12 13  1  0  0  0
  7  9  1  0  0  0
M  CHG 1   1   1
M  CHG 1   8  -1
M  END
> <minimizedAffinity>
-5.86844

$$$$
3PCK_NNO_M_550


 13 13  0  0  0  0  0  0  0  0999 V2000
   14.3601   15.1873   44.2962 N   0  0  0  0  0  0  0  0  0  0  0  0
   15.1668   15.2674   43.2654 C   0  0  0  0  0  0  0  0  0  0  0  0
   15.0481   14.4341   42.1166 C   0  0  0  0  0  0  0  0  0  0  0  0
   14.0447   13.4650   42.1282 C   0  0  0  0  0  0  0  0  0  0  0  0
   13.1910   13.3691   43.2090 C   0  0  0  0  0  0  0  0  0  0  0  0
   13.3842   14.2462   44.2952 C   0  0  0  0  0  0  0  0  0  0  0  0
   12.6316   14.0924   45.3239 O   0  0  0  0  0  0  0  0  0  0  0  0
   14.5180   15.9075   45.3069 O   0  0  0  0  0  0  0  0  0  0  0  0
   12.7306   14.6566   46.0654 H   0  0  0  0  0  0  0  0  0  0  0  0
   15.9461   14.6166   40.8780 C   0  0  0  0  0  0  0  0  0  0  0  0
   16.2619   15.7606   40.5439 O   0  0  0  0  0  0  0  0  0  0  0  0
   16.3693   13.6634   40.2258 O   0  0  0  0  0  0  0  0  0  0  0  0
   16.1367   12.7890   40.4693 H   0  0  0  0  0  0  0  0  0  0  0  0
  1  2  1  0  0  0
  1  6  2  0  0  0
  1  8  1  0  0  0
  2  3  2  0  0  0
  3  4  1  0  0  0
  3 10  1  0  0  0
  4  5  2  0  0  0
  5  6  1  0  0  0
  6  7  1  0  0  0
 10 11  2  0  0  0
 10 12  1  0  0  0
 12 13  1  0  0  0
  7  9  1  0  0  0
M  CHG 1   1   1
M  CHG 1   8  -1
M  END
> <minimizedAffinity>
-5.82366

$$$$
