4WKP_3QA_A_301


 31 33  0  0  0  0  0  0  0  0999 V2000
   37.1928   73.2526   23.5207 C   0  0  0  0  0  0  0  0  0  0  0  0
   35.7429   73.6864   23.6240 C   0  0  0  0  0  0  0  0  0  0  0  0
   34.8622   72.5627   23.6869 O   0  0  0  0  0  0  0  0  0  0  0  0
   35.6761   74.3902   24.9460 C   0  0  0  0  0  0  0  0  0  0  0  0
   37.6981   73.1994   24.9611 C   0  0  0  0  0  0  0  0  0  0  0  0
   36.5061   73.4912   25.7728 N   0  0  0  0  0  0  0  0  0  0  0  0
   35.1020   72.0059   24.4441 H   0  0  0  0  0  0  0  0  0  0  0  0
   38.0458   74.1949   22.6749 C   0  0  0  0  0  0  0  0  0  0  0  0
   37.4439   74.3002   21.2793 C   0  0  0  0  0  0  0  0  0  0  0  0
   38.6794   74.1961   20.0269 S   0  0  0  0  0  0  0  0  0  0  0  0
   39.7781   72.8577   20.3865 C   0  0  0  0  0  0  0  0  0  0  0  0
   39.2306   71.5641   19.8003 C   0  0  0  0  0  0  0  0  0  0  0  0
   40.3063   70.6897   19.4063 O   0  0  0  0  0  0  0  0  0  0  0  0
   41.5028   71.3887   19.0328 C   0  0  0  0  0  0  0  0  0  0  0  0
   41.6427   71.4475   17.5090 C   0  0  0  0  0  0  0  0  0  0  0  0
   40.9232   72.5684   16.9962 O   0  0  0  0  0  0  0  0  0  0  0  0
   41.2814   73.3849   17.3784 H   0  0  0  0  0  0  0  0  0  0  0  0
   36.8200   74.0049   27.1064 C   0  0  0  0  0  0  0  0  0  0  0  0
   39.2855   74.4398   27.7674 C   0  0  0  0  0  0  0  0  0  0  0  0
   40.1641   75.4720   27.9034 N   0  0  0  0  0  0  0  0  0  0  0  0
   39.5746   76.6211   27.5466 C   0  0  0  0  0  0  0  0  0  0  0  0
   39.9783   78.0240   27.4612 C   0  0  0  0  0  0  0  0  0  0  0  0
   39.0622   78.9302   27.0302 N   0  0  0  0  0  0  0  0  0  0  0  0
   37.8231   78.5436   26.6904 C   0  0  0  0  0  0  0  0  0  0  0  0
   37.3678   77.2876   26.7326 N   0  0  0  0  0  0  0  0  0  0  0  0
   38.2112   76.3187   27.1676 C   0  0  0  0  0  0  0  0  0  0  0  0
   38.0426   74.8697   27.2996 C   0  0  0  0  0  0  0  0  0  0  0  0
   41.2288   78.3498   27.8100 N   0  0  0  0  0  0  0  0  0  0  0  0
   41.0934   75.3864   28.2169 H   0  0  0  0  0  0  0  0  0  0  0  0
   41.5250   79.2874   27.7613 H   0  0  0  0  0  0  0  0  0  0  0  0
   41.8523   77.6518   28.1152 H   0  0  0  0  0  0  0  0  0  0  0  0
 16 15  1  0  0  0
 15 14  1  0  0  0
 14 13  1  0  0  0
 13 12  1  0  0  0
 12 11  1  0  0  0
 11 10  1  0  0  0
 10  9  1  0  0  0
  9  8  1  0  0  0
  8  1  1  0  0  0
  1  2  1  0  0  0
  1  5  1  0  0  0
  2  3  1  0  0  0
  2  4  1  0  0  0
  5  6  1  0  0  0
  4  6  1  0  0  0
  6 18  1  0  0  0
 24 25  2  0  0  0
 24 23  1  0  0  0
 25 26  1  0  0  0
 23 22  2  0  0  0
 26 27  1  0  0  0
 26 21  2  0  0  0
 18 27  1  0  0  0
 22 21  1  0  0  0
 22 28  1  0  0  0
 27 19  2  0  0  0
 21 20  1  0  0  0
 19 20  1  0  0  0
  3  7  1  0  0  0
 20 29  1  0  0  0
 28 30  1  0  0  0
 28 31  1  0  0  0
 16 17  1  0  0  0
M  END
> <minimizedAffinity>
-8.92594

$$$$
4WKP_3QA_A_301


 31 33  0  0  0  0  0  0  0  0999 V2000
   39.6702   73.5469   20.3164 C   0  0  0  0  0  0  0  0  0  0  0  0
   38.7567   73.8010   19.1322 C   0  0  0  0  0  0  0  0  0  0  0  0
   39.3371   74.7266   18.2109 O   0  0  0  0  0  0  0  0  0  0  0  0
   38.6809   72.4683   18.4498 C   0  0  0  0  0  0  0  0  0  0  0  0
   40.4976   72.3232   19.9280 C   0  0  0  0  0  0  0  0  0  0  0  0
   40.0898   72.0362   18.5438 N   0  0  0  0  0  0  0  0  0  0  0  0
   40.1941   74.3876   17.9086 H   0  0  0  0  0  0  0  0  0  0  0  0
   38.9143   73.3062   21.6208 C   0  0  0  0  0  0  0  0  0  0  0  0
   37.5631   74.0068   21.5546 C   0  0  0  0  0  0  0  0  0  0  0  0
   36.5804   73.6638   22.9766 S   0  0  0  0  0  0  0  0  0  0  0  0
   37.5995   73.6857   24.4219 C   0  0  0  0  0  0  0  0  0  0  0  0
   37.2887   74.9187   25.2584 C   0  0  0  0  0  0  0  0  0  0  0  0
   37.0897   74.5586   26.6396 O   0  0  0  0  0  0  0  0  0  0  0  0
   38.2057   73.8635   27.2150 C   0  0  0  0  0  0  0  0  0  0  0  0
   39.3492   74.8346   27.5217 C   0  0  0  0  0  0  0  0  0  0  0  0
   38.8603   75.9396   28.2813 O   0  0  0  0  0  0  0  0  0  0  0  0
   38.4863   75.6176   29.1165 H   0  0  0  0  0  0  0  0  0  0  0  0
   40.3316   70.6509   18.1398 C   0  0  0  0  0  0  0  0  0  0  0  0
   39.0374   68.8938   19.5335 C   0  0  0  0  0  0  0  0  0  0  0  0
   38.0370   67.9799   19.3931 N   0  0  0  0  0  0  0  0  0  0  0  0
   37.5427   68.0340   18.1490 C   0  0  0  0  0  0  0  0  0  0  0  0
   36.4870   67.3434   17.4094 C   0  0  0  0  0  0  0  0  0  0  0  0
   36.2734   67.6972   16.1151 N   0  0  0  0  0  0  0  0  0  0  0  0
   37.0112   68.6569   15.5362 C   0  0  0  0  0  0  0  0  0  0  0  0
   37.9912   69.3425   16.1332 N   0  0  0  0  0  0  0  0  0  0  0  0
   38.2843   69.0424   17.4229 C   0  0  0  0  0  0  0  0  0  0  0  0
   39.2546   69.6154   18.3585 C   0  0  0  0  0  0  0  0  0  0  0  0
   35.7811   66.3972   18.0404 N   0  0  0  0  0  0  0  0  0  0  0  0
   37.7240   67.3705   20.1002 H   0  0  0  0  0  0  0  0  0  0  0  0
   35.0650   65.9177   17.5644 H   0  0  0  0  0  0  0  0  0  0  0  0
   35.9780   66.1809   18.9804 H   0  0  0  0  0  0  0  0  0  0  0  0
 16 15  1  0  0  0
 15 14  1  0  0  0
 14 13  1  0  0  0
 13 12  1  0  0  0
 12 11  1  0  0  0
 11 10  1  0  0  0
 10  9  1  0  0  0
  9  8  1  0  0  0
  8  1  1  0  0  0
  1  2  1  0  0  0
  1  5  1  0  0  0
  2  3  1  0  0  0
  2  4  1  0  0  0
  5  6  1  0  0  0
  4  6  1  0  0  0
  6 18  1  0  0  0
 24 25  2  0  0  0
 24 23  1  0  0  0
 25 26  1  0  0  0
 23 22  2  0  0  0
 26 27  1  0  0  0
 26 21  2  0  0  0
 18 27  1  0  0  0
 22 21  1  0  0  0
 22 28  1  0  0  0
 27 19  2  0  0  0
 21 20  1  0  0  0
 19 20  1  0  0  0
  3  7  1  0  0  0
 20 29  1  0  0  0
 28 30  1  0  0  0
 28 31  1  0  0  0
 16 17  1  0  0  0
M  END
> <minimizedAffinity>
-6.99581

$$$$
4WKP_3QA_A_301


 31 33  0  0  0  0  0  0  0  0999 V2000
   39.5743   72.3417   19.4376 C   0  0  0  0  0  0  0  0  0  0  0  0
   39.4444   73.6082   18.6127 C   0  0  0  0  0  0  0  0  0  0  0  0
   38.3375   73.5362   17.7116 O   0  0  0  0  0  0  0  0  0  0  0  0
   39.1336   74.6644   19.6301 C   0  0  0  0  0  0  0  0  0  0  0  0
   38.7827   72.6135   20.7152 C   0  0  0  0  0  0  0  0  0  0  0  0
   38.1802   73.9371   20.4919 N   0  0  0  0  0  0  0  0  0  0  0  0
   37.5226   73.3754   18.2126 H   0  0  0  0  0  0  0  0  0  0  0  0
   41.0216   71.9753   19.7568 C   0  0  0  0  0  0  0  0  0  0  0  0
   41.3808   70.6791   19.0413 C   0  0  0  0  0  0  0  0  0  0  0  0
   40.6323   69.2810   19.8099 S   0  0  0  0  0  0  0  0  0  0  0  0
   39.5299   68.4966   18.6709 C   0  0  0  0  0  0  0  0  0  0  0  0
   38.0891   68.8372   19.0240 C   0  0  0  0  0  0  0  0  0  0  0  0
   37.2246   67.7122   18.7710 O   0  0  0  0  0  0  0  0  0  0  0  0
   35.9428   68.0842   18.2433 C   0  0  0  0  0  0  0  0  0  0  0  0
   34.8437   67.1730   18.7971 C   0  0  0  0  0  0  0  0  0  0  0  0
   33.6028   67.8767   18.8404 O   0  0  0  0  0  0  0  0  0  0  0  0
   33.3590   68.1577   17.9446 H   0  0  0  0  0  0  0  0  0  0  0  0
   37.8232   74.6318   21.7292 C   0  0  0  0  0  0  0  0  0  0  0  0
   36.0278   73.0910   22.7815 C   0  0  0  0  0  0  0  0  0  0  0  0
   35.6740   72.5738   23.9911 N   0  0  0  0  0  0  0  0  0  0  0  0
   36.5567   72.9546   24.9244 C   0  0  0  0  0  0  0  0  0  0  0  0
   36.7307   72.7257   26.3581 C   0  0  0  0  0  0  0  0  0  0  0  0
   37.7970   73.2992   26.9748 N   0  0  0  0  0  0  0  0  0  0  0  0
   38.6658   74.0518   26.2825 C   0  0  0  0  0  0  0  0  0  0  0  0
   38.5896   74.3117   24.9736 N   0  0  0  0  0  0  0  0  0  0  0  0
   37.5457   73.7923   24.2808 C   0  0  0  0  0  0  0  0  0  0  0  0
   37.1930   73.8555   22.8607 C   0  0  0  0  0  0  0  0  0  0  0  0
   35.8340   71.9630   26.9952 N   0  0  0  0  0  0  0  0  0  0  0  0
   34.8872   72.0052   24.1550 H   0  0  0  0  0  0  0  0  0  0  0  0
   35.9289   71.7939   27.9604 H   0  0  0  0  0  0  0  0  0  0  0  0
   35.0796   71.5712   26.4986 H   0  0  0  0  0  0  0  0  0  0  0  0
 16 15  1  0  0  0
 15 14  1  0  0  0
 14 13  1  0  0  0
 13 12  1  0  0  0
 12 11  1  0  0  0
 11 10  1  0  0  0
 10  9  1  0  0  0
  9  8  1  0  0  0
  8  1  1  0  0  0
  1  2  1  0  0  0
  1  5  1  0  0  0
  2  3  1  0  0  0
  2  4  1  0  0  0
  5  6  1  0  0  0
  4  6  1  0  0  0
  6 18  1  0  0  0
 24 25  2  0  0  0
 24 23  1  0  0  0
 25 26  1  0  0  0
 23 22  2  0  0  0
 26 27  1  0  0  0
 26 21  2  0  0  0
 18 27  1  0  0  0
 22 21  1  0  0  0
 22 28  1  0  0  0
 27 19  2  0  0  0
 21 20  1  0  0  0
 19 20  1  0  0  0
  3  7  1  0  0  0
 20 29  1  0  0  0
 28 30  1  0  0  0
 28 31  1  0  0  0
 16 17  1  0  0  0
M  END
> <minimizedAffinity>
-6.59899

$$$$
4WKP_3QA_A_301


 31 33  0  0  0  0  0  0  0  0999 V2000
   38.7951   74.3173   20.4550 C   0  0  0  0  0  0  0  0  0  0  0  0
   38.4598   74.1594   18.9840 C   0  0  0  0  0  0  0  0  0  0  0  0
   39.4309   74.7987   18.1530 O   0  0  0  0  0  0  0  0  0  0  0  0
   38.5658   72.6821   18.7521 C   0  0  0  0  0  0  0  0  0  0  0  0
   39.6140   73.0789   20.8138 C   0  0  0  0  0  0  0  0  0  0  0  0
   39.7797   72.3724   19.5339 N   0  0  0  0  0  0  0  0  0  0  0  0
   40.3088   74.4309   18.3398 H   0  0  0  0  0  0  0  0  0  0  0  0
   37.5609   74.4355   21.3459 C   0  0  0  0  0  0  0  0  0  0  0  0
   37.4948   73.2295   22.2745 C   0  0  0  0  0  0  0  0  0  0  0  0
   36.4053   73.5100   23.6309 S   0  0  0  0  0  0  0  0  0  0  0  0
   37.1713   74.6029   24.7915 C   0  0  0  0  0  0  0  0  0  0  0  0
   36.4025   74.5877   26.1051 C   0  0  0  0  0  0  0  0  0  0  0  0
   37.2697   74.2231   27.1969 O   0  0  0  0  0  0  0  0  0  0  0  0
   37.9800   75.3366   27.7584 C   0  0  0  0  0  0  0  0  0  0  0  0
   39.4926   75.1314   27.6370 C   0  0  0  0  0  0  0  0  0  0  0  0
   39.8236   73.7703   27.9106 O   0  0  0  0  0  0  0  0  0  0  0  0
   39.3741   73.1937   27.2731 H   0  0  0  0  0  0  0  0  0  0  0  0
   40.0588   70.9444   19.6877 C   0  0  0  0  0  0  0  0  0  0  0  0
   42.0268   69.2635   19.6055 C   0  0  0  0  0  0  0  0  0  0  0  0
   43.1820   69.0405   18.9189 N   0  0  0  0  0  0  0  0  0  0  0  0
   43.3255   69.9632   17.9580 C   0  0  0  0  0  0  0  0  0  0  0  0
   44.3110   70.2464   16.9154 C   0  0  0  0  0  0  0  0  0  0  0  0
   44.0933   71.3101   16.0986 N   0  0  0  0  0  0  0  0  0  0  0  0
   43.0009   72.0752   16.2461 C   0  0  0  0  0  0  0  0  0  0  0  0
   42.0478   71.8906   17.1650 N   0  0  0  0  0  0  0  0  0  0  0  0
   42.1927   70.8602   18.0348 C   0  0  0  0  0  0  0  0  0  0  0  0
   41.3334   70.3716   19.1156 C   0  0  0  0  0  0  0  0  0  0  0  0
   45.3792   69.4463   16.8137 N   0  0  0  0  0  0  0  0  0  0  0  0
   43.8167   68.3103   19.1014 H   0  0  0  0  0  0  0  0  0  0  0  0
   46.0570   69.6158   16.1201 H   0  0  0  0  0  0  0  0  0  0  0  0
   45.4870   68.6882   17.4325 H   0  0  0  0  0  0  0  0  0  0  0  0
 16 15  1  0  0  0
 15 14  1  0  0  0
 14 13  1  0  0  0
 13 12  1  0  0  0
 12 11  1  0  0  0
 11 10  1  0  0  0
 10  9  1  0  0  0
  9  8  1  0  0  0
  8  1  1  0  0  0
  1  2  1  0  0  0
  1  5  1  0  0  0
  2  3  1  0  0  0
  2  4  1  0  0  0
  5  6  1  0  0  0
  4  6  1  0  0  0
  6 18  1  0  0  0
 24 25  2  0  0  0
 24 23  1  0  0  0
 25 26  1  0  0  0
 23 22  2  0  0  0
 26 27  1  0  0  0
 26 21  2  0  0  0
 18 27  1  0  0  0
 22 21  1  0  0  0
 22 28  1  0  0  0
 27 19  2  0  0  0
 21 20  1  0  0  0
 19 20  1  0  0  0
  3  7  1  0  0  0
 20 29  1  0  0  0
 28 30  1  0  0  0
 28 31  1  0  0  0
 16 17  1  0  0  0
M  END
> <minimizedAffinity>
-6.53372

$$$$
4WKP_3QA_A_301


 31 33  0  0  0  0  0  0  0  0999 V2000
   40.0187   72.4397   18.1975 C   0  0  0  0  0  0  0  0  0  0  0  0
   40.2768   71.4558   19.3230 C   0  0  0  0  0  0  0  0  0  0  0  0
   41.5000   71.7455   20.0029 O   0  0  0  0  0  0  0  0  0  0  0  0
   39.1530   71.7104   20.2820 C   0  0  0  0  0  0  0  0  0  0  0  0
   39.1695   73.5461   18.8203 C   0  0  0  0  0  0  0  0  0  0  0  0
   39.0950   73.1854   20.2448 N   0  0  0  0  0  0  0  0  0  0  0  0
   41.4715   72.6518   20.3476 H   0  0  0  0  0  0  0  0  0  0  0  0
   39.3098   71.8133   16.9992 C   0  0  0  0  0  0  0  0  0  0  0  0
   39.6682   70.3347   16.9207 C   0  0  0  0  0  0  0  0  0  0  0  0
   38.2645   69.3434   16.5299 S   0  0  0  0  0  0  0  0  0  0  0  0
   37.3077   69.0668   17.9914 C   0  0  0  0  0  0  0  0  0  0  0  0
   36.5571   67.7474   17.8791 C   0  0  0  0  0  0  0  0  0  0  0  0
   35.1475   67.9795   17.6891 O   0  0  0  0  0  0  0  0  0  0  0  0
   34.5335   68.6867   18.7765 C   0  0  0  0  0  0  0  0  0  0  0  0
   33.1404   69.1847   18.3811 C   0  0  0  0  0  0  0  0  0  0  0  0
   33.2339   70.0440   17.2454 O   0  0  0  0  0  0  0  0  0  0  0  0
   33.6180   69.5551   16.5008 H   0  0  0  0  0  0  0  0  0  0  0  0
   37.9440   73.7686   20.9347 C   0  0  0  0  0  0  0  0  0  0  0  0
   38.8874   74.0736   23.3268 C   0  0  0  0  0  0  0  0  0  0  0  0
   38.5464   73.8303   24.6231 N   0  0  0  0  0  0  0  0  0  0  0  0
   37.3181   73.2978   24.6781 C   0  0  0  0  0  0  0  0  0  0  0  0
   36.4180   72.8460   25.7383 C   0  0  0  0  0  0  0  0  0  0  0  0
   35.2029   72.3534   25.3818 N   0  0  0  0  0  0  0  0  0  0  0  0
   34.8417   72.2880   24.0912 C   0  0  0  0  0  0  0  0  0  0  0  0
   35.5944   72.6799   23.0583 N   0  0  0  0  0  0  0  0  0  0  0  0
   36.8314   73.1698   23.3214 C   0  0  0  0  0  0  0  0  0  0  0  0
   37.8724   73.7061   22.4417 C   0  0  0  0  0  0  0  0  0  0  0  0
   36.8313   72.9389   27.0079 N   0  0  0  0  0  0  0  0  0  0  0  0
   39.1172   74.0177   25.4030 H   0  0  0  0  0  0  0  0  0  0  0  0
   36.2439   72.6414   27.7399 H   0  0  0  0  0  0  0  0  0  0  0  0
   37.7227   73.3047   27.2099 H   0  0  0  0  0  0  0  0  0  0  0  0
 16 15  1  0  0  0
 15 14  1  0  0  0
 14 13  1  0  0  0
 13 12  1  0  0  0
 12 11  1  0  0  0
 11 10  1  0  0  0
 10  9  1  0  0  0
  9  8  1  0  0  0
  8  1  1  0  0  0
  1  2  1  0  0  0
  1  5  1  0  0  0
  2  3  1  0  0  0
  2  4  1  0  0  0
  5  6  1  0  0  0
  4  6  1  0  0  0
  6 18  1  0  0  0
 24 25  2  0  0  0
 24 23  1  0  0  0
 25 26  1  0  0  0
 23 22  2  0  0  0
 26 27  1  0  0  0
 26 21  2  0  0  0
 18 27  1  0  0  0
 22 21  1  0  0  0
 22 28  1  0  0  0
 27 19  2  0  0  0
 21 20  1  0  0  0
 19 20  1  0  0  0
  3  7  1  0  0  0
 20 29  1  0  0  0
 28 30  1  0  0  0
 28 31  1  0  0  0
 16 17  1  0  0  0
M  END
> <minimizedAffinity>
-6.42616

$$$$
4WKP_3QA_A_301


 31 33  0  0  0  0  0  0  0  0999 V2000
   40.8341   72.5263   18.3616 C   0  0  0  0  0  0  0  0  0  0  0  0
   40.6614   72.3610   16.8635 C   0  0  0  0  0  0  0  0  0  0  0  0
   41.8945   72.5572   16.1683 O   0  0  0  0  0  0  0  0  0  0  0  0
   40.2763   70.9206   16.7072 C   0  0  0  0  0  0  0  0  0  0  0  0
   41.1163   71.1210   18.8892 C   0  0  0  0  0  0  0  0  0  0  0  0
   41.1926   70.2892   17.6780 N   0  0  0  0  0  0  0  0  0  0  0  0
   42.5568   71.9321   16.5021 H   0  0  0  0  0  0  0  0  0  0  0  0
   39.6124   73.1340   19.0464 C   0  0  0  0  0  0  0  0  0  0  0  0
   39.6229   72.7535   20.5216 C   0  0  0  0  0  0  0  0  0  0  0  0
   39.1337   74.1014   21.5461 S   0  0  0  0  0  0  0  0  0  0  0  0
   38.1571   73.5000   22.8923 C   0  0  0  0  0  0  0  0  0  0  0  0
   36.6784   73.6986   22.5910 C   0  0  0  0  0  0  0  0  0  0  0  0
   35.9279   73.8555   23.8114 O   0  0  0  0  0  0  0  0  0  0  0  0
   35.3912   72.6232   24.3142 C   0  0  0  0  0  0  0  0  0  0  0  0
   35.5902   72.5237   25.8293 C   0  0  0  0  0  0  0  0  0  0  0  0
   34.6184   71.6428   26.3920 O   0  0  0  0  0  0  0  0  0  0  0  0
   34.7173   70.7604   26.0014 H   0  0  0  0  0  0  0  0  0  0  0  0
   40.9347   68.8706   17.9273 C   0  0  0  0  0  0  0  0  0  0  0  0
   38.8372   68.4363   19.3822 C   0  0  0  0  0  0  0  0  0  0  0  0
   37.5993   67.8754   19.2893 N   0  0  0  0  0  0  0  0  0  0  0  0
   37.3876   67.4452   18.0382 C   0  0  0  0  0  0  0  0  0  0  0  0
   36.2901   66.7921   17.3258 C   0  0  0  0  0  0  0  0  0  0  0  0
   36.4581   66.5115   16.0070 N   0  0  0  0  0  0  0  0  0  0  0  0
   37.6003   66.8295   15.3787 C   0  0  0  0  0  0  0  0  0  0  0  0
   38.6519   67.4289   15.9458 N   0  0  0  0  0  0  0  0  0  0  0  0
   38.5775   67.7308   17.2659 C   0  0  0  0  0  0  0  0  0  0  0  0
   39.5181   68.4045   18.1641 C   0  0  0  0  0  0  0  0  0  0  0  0
   35.1731   66.5023   18.0039 N   0  0  0  0  0  0  0  0  0  0  0  0
   36.9562   67.7978   20.0307 H   0  0  0  0  0  0  0  0  0  0  0  0
   34.4199   66.0627   17.5471 H   0  0  0  0  0  0  0  0  0  0  0  0
   35.1047   66.7287   18.9596 H   0  0  0  0  0  0  0  0  0  0  0  0
 16 15  1  0  0  0
 15 14  1  0  0  0
 14 13  1  0  0  0
 13 12  1  0  0  0
 12 11  1  0  0  0
 11 10  1  0  0  0
 10  9  1  0  0  0
  9  8  1  0  0  0
  8  1  1  0  0  0
  1  2  1  0  0  0
  1  5  1  0  0  0
  2  3  1  0  0  0
  2  4  1  0  0  0
  5  6  1  0  0  0
  4  6  1  0  0  0
  6 18  1  0  0  0
 24 25  2  0  0  0
 24 23  1  0  0  0
 25 26  1  0  0  0
 23 22  2  0  0  0
 26 27  1  0  0  0
 26 21  2  0  0  0
 18 27  1  0  0  0
 22 21  1  0  0  0
 22 28  1  0  0  0
 27 19  2  0  0  0
 21 20  1  0  0  0
 19 20  1  0  0  0
  3  7  1  0  0  0
 20 29  1  0  0  0
 28 30  1  0  0  0
 28 31  1  0  0  0
 16 17  1  0  0  0
M  END
> <minimizedAffinity>
-6.15275

$$$$
4WKP_3QA_A_301


 31 33  0  0  0  0  0  0  0  0999 V2000
   37.8731   73.9104   23.2426 C   0  0  0  0  0  0  0  0  0  0  0  0
   36.9904   73.7985   22.0140 C   0  0  0  0  0  0  0  0  0  0  0  0
   36.7689   75.0742   21.4091 O   0  0  0  0  0  0  0  0  0  0  0  0
   37.8095   72.9805   21.0614 C   0  0  0  0  0  0  0  0  0  0  0  0
   39.2959   73.6856   22.7347 C   0  0  0  0  0  0  0  0  0  0  0  0
   39.1449   73.5734   21.2755 N   0  0  0  0  0  0  0  0  0  0  0  0
   37.6214   75.4740   21.1762 H   0  0  0  0  0  0  0  0  0  0  0  0
   37.5160   72.9060   24.3356 C   0  0  0  0  0  0  0  0  0  0  0  0
   36.6945   73.6056   25.4111 C   0  0  0  0  0  0  0  0  0  0  0  0
   37.2880   75.2342   25.7287 S   0  0  0  0  0  0  0  0  0  0  0  0
   38.7336   75.1518   26.7442 C   0  0  0  0  0  0  0  0  0  0  0  0
   38.4949   75.8973   28.0496 C   0  0  0  0  0  0  0  0  0  0  0  0
   39.4895   76.9231   28.2379 O   0  0  0  0  0  0  0  0  0  0  0  0
   39.4997   77.9073   27.1934 C   0  0  0  0  0  0  0  0  0  0  0  0
   38.3069   78.8574   27.3325 C   0  0  0  0  0  0  0  0  0  0  0  0
   37.6201   78.9637   26.0859 O   0  0  0  0  0  0  0  0  0  0  0  0
   37.2978   78.0887   25.8187 H   0  0  0  0  0  0  0  0  0  0  0  0
   40.2429   72.8541   20.6290 C   0  0  0  0  0  0  0  0  0  0  0  0
   40.0392   72.9839   18.0509 C   0  0  0  0  0  0  0  0  0  0  0  0
   39.7520   72.1867   16.9842 N   0  0  0  0  0  0  0  0  0  0  0  0
   39.5455   70.9293   17.3986 C   0  0  0  0  0  0  0  0  0  0  0  0
   39.2250   69.6540   16.7589 C   0  0  0  0  0  0  0  0  0  0  0  0
   39.0978   68.5548   17.5473 N   0  0  0  0  0  0  0  0  0  0  0  0
   39.2656   68.6410   18.8758 C   0  0  0  0  0  0  0  0  0  0  0  0
   39.5628   69.7592   19.5451 N   0  0  0  0  0  0  0  0  0  0  0  0
   39.6919   70.9094   18.8381 C   0  0  0  0  0  0  0  0  0  0  0  0
   40.0385   72.2712   19.2511 C   0  0  0  0  0  0  0  0  0  0  0  0
   39.0728   69.6284   15.4294 N   0  0  0  0  0  0  0  0  0  0  0  0
   39.7035   72.4892   16.0486 H   0  0  0  0  0  0  0  0  0  0  0  0
   38.8568   68.7822   14.9748 H   0  0  0  0  0  0  0  0  0  0  0  0
   39.1768   70.4557   14.9059 H   0  0  0  0  0  0  0  0  0  0  0  0
 16 15  1  0  0  0
 15 14  1  0  0  0
 14 13  1  0  0  0
 13 12  1  0  0  0
 12 11  1  0  0  0
 11 10  1  0  0  0
 10  9  1  0  0  0
  9  8  1  0  0  0
  8  1  1  0  0  0
  1  2  1  0  0  0
  1  5  1  0  0  0
  2  3  1  0  0  0
  2  4  1  0  0  0
  5  6  1  0  0  0
  4  6  1  0  0  0
  6 18  1  0  0  0
 24 25  2  0  0  0
 24 23  1  0  0  0
 25 26  1  0  0  0
 23 22  2  0  0  0
 26 27  1  0  0  0
 26 21  2  0  0  0
 18 27  1  0  0  0
 22 21  1  0  0  0
 22 28  1  0  0  0
 27 19  2  0  0  0
 21 20  1  0  0  0
 19 20  1  0  0  0
  3  7  1  0  0  0
 20 29  1  0  0  0
 28 30  1  0  0  0
 28 31  1  0  0  0
 16 17  1  0  0  0
M  END
> <minimizedAffinity>
-6.07195

$$$$
