6C7W_LMS_A_302


 29 31  0  0  0  0  0  0  0  0999 V2000
   -3.5278    5.0770   12.1714 C   0  0  0  0  0  0  0  0  0  0  0  0
   -4.4345    4.6019   13.1492 O   0  0  0  0  0  0  0  0  0  0  0  0
   -2.1828    4.8170   12.7789 C   0  0  0  0  0  0  0  0  0  0  0  0
   -1.1274    5.5689   12.1537 O   0  0  0  0  0  0  0  0  0  0  0  0
   -2.4073    5.2608   14.2040 C   0  0  0  0  0  0  0  0  0  0  0  0
   -2.2833    6.6755   14.3138 O   0  0  0  0  0  0  0  0  0  0  0  0
   -3.8578    4.8169   14.4343 C   0  0  0  0  0  0  0  0  0  0  0  0
   -1.3325    6.5157   12.2021 H   0  0  0  0  0  0  0  0  0  0  0  0
   -2.8954    7.1027   13.6944 H   0  0  0  0  0  0  0  0  0  0  0  0
   -4.0243    3.5998   15.2402 N   0  0  0  0  0  0  0  0  0  0  0  0
   -3.0614    2.6956   15.5655 C   0  0  0  0  0  0  0  0  0  0  0  0
   -3.4887    1.7320   16.3276 N   0  0  0  0  0  0  0  0  0  0  0  0
   -4.8381    2.0092   16.4982 C   0  0  0  0  0  0  0  0  0  0  0  0
   -5.8809    1.3754   17.1670 C   0  0  0  0  0  0  0  0  0  0  0  0
   -5.6801    0.2144   17.8721 N   0  0  0  0  0  0  0  0  0  0  0  0
   -7.0982    1.8814   17.1157 N   0  0  0  0  0  0  0  0  0  0  0  0
   -7.2757    3.0078   16.4231 C   0  0  0  0  0  0  0  0  0  0  0  0
   -6.3866    3.7208   15.7373 N   0  0  0  0  0  0  0  0  0  0  0  0
   -5.1801    3.1591   15.8284 C   0  0  0  0  0  0  0  0  0  0  0  0
   -4.7799   -0.1809   17.9236 H   0  0  0  0  0  0  0  0  0  0  0  0
   -6.4363   -0.2228   18.3261 H   0  0  0  0  0  0  0  0  0  0  0  0
   -3.7715    4.3130   10.8810 C   0  0  0  0  0  0  0  0  0  0  0  0
   -3.3089    2.9559   10.9755 O   0  0  0  0  0  0  0  0  0  0  0  0
   -5.7928    2.4983   11.0702 N   0  0  0  0  0  0  0  0  0  0  0  0
   -4.3952    1.8002   11.2033 S   0  0  0  0  0  0  0  0  0  0  0  0
   -4.0868    0.9672   10.1002 O   0  0  0  0  0  0  0  0  0  0  0  0
   -4.2422    1.2926   12.5135 O   0  0  0  0  0  0  0  0  0  0  0  0
   -5.9015    2.8639   10.1242 H   0  0  0  0  0  0  0  0  0  0  0  0
   -5.8552    3.2648   11.7402 H   0  0  0  0  0  0  0  0  0  0  0  0
  7 10  1  0  0  0
 10 11  1  0  0  0
 11 12  2  0  0  0
 12 13  1  0  0  0
 13 14  2  0  0  0
 14 15  1  0  0  0
 14 16  1  0  0  0
 16 17  2  0  0  0
 17 18  1  0  0  0
 10 19  1  0  0  0
 13 19  1  0  0  0
 18 19  2  0  0  0
 23 25  1  0  0  0
 26 25  2  0  0  0
 27 25  2  0  0  0
 24 25  1  0  0  0
 23 22  1  0  0  0
 22  1  1  0  0  0
  1  2  1  0  0  0
  1  3  1  0  0  0
  3  4  1  0  0  0
  3  5  1  0  0  0
  5  6  1  0  0  0
  2  7  1  0  0  0
  5  7  1  0  0  0
 15 20  1  0  0  0
 15 21  1  0  0  0
 24 28  1  0  0  0
 24 29  1  0  0  0
  4  8  1  0  0  0
  6  9  1  0  0  0
M  END
> <minimizedAffinity>
-7.55073

$$$$
6C7W_LMS_A_302


 29 31  0  0  0  0  0  0  0  0999 V2000
   -2.6480    2.9107   11.3902 C   0  0  0  0  0  0  0  0  0  0  0  0
   -2.8262    2.3963   12.6969 O   0  0  0  0  0  0  0  0  0  0  0  0
   -3.9934    3.4730   11.0440 C   0  0  0  0  0  0  0  0  0  0  0  0
   -4.1668    3.6902    9.6324 O   0  0  0  0  0  0  0  0  0  0  0  0
   -4.9111    2.3880   11.5526 C   0  0  0  0  0  0  0  0  0  0  0  0
   -5.0095    1.3297   10.6043 O   0  0  0  0  0  0  0  0  0  0  0  0
   -4.1670    1.9286   12.8133 C   0  0  0  0  0  0  0  0  0  0  0  0
   -4.0271    2.8560    9.1574 H   0  0  0  0  0  0  0  0  0  0  0  0
   -4.1223    0.9954   10.3996 H   0  0  0  0  0  0  0  0  0  0  0  0
   -4.7282    2.4041   14.0852 N   0  0  0  0  0  0  0  0  0  0  0  0
   -5.1906    3.6538   14.3592 C   0  0  0  0  0  0  0  0  0  0  0  0
   -5.6697    3.7791   15.5619 N   0  0  0  0  0  0  0  0  0  0  0  0
   -5.4886    2.5256   16.1300 C   0  0  0  0  0  0  0  0  0  0  0  0
   -5.7489    1.9833   17.3848 C   0  0  0  0  0  0  0  0  0  0  0  0
   -6.3248    2.7296   18.3833 N   0  0  0  0  0  0  0  0  0  0  0  0
   -5.4238    0.7303   17.6394 N   0  0  0  0  0  0  0  0  0  0  0  0
   -4.8619    0.0212   16.6590 C   0  0  0  0  0  0  0  0  0  0  0  0
   -4.5525    0.3977   15.4214 N   0  0  0  0  0  0  0  0  0  0  0  0
   -4.9052    1.6695   15.2275 C   0  0  0  0  0  0  0  0  0  0  0  0
   -6.5753    3.6667   18.2153 H   0  0  0  0  0  0  0  0  0  0  0  0
   -6.4870    2.3275   19.2672 H   0  0  0  0  0  0  0  0  0  0  0  0
   -1.5442    3.9538   11.4325 C   0  0  0  0  0  0  0  0  0  0  0  0
   -2.0721    5.2726   11.6483 O   0  0  0  0  0  0  0  0  0  0  0  0
   -1.4745    4.7697   14.0521 N   0  0  0  0  0  0  0  0  0  0  0  0
   -1.8681    5.9430   13.0894 S   0  0  0  0  0  0  0  0  0  0  0  0
   -0.7827    6.8044   12.7963 O   0  0  0  0  0  0  0  0  0  0  0  0
   -3.0989    6.5020   13.5024 O   0  0  0  0  0  0  0  0  0  0  0  0
   -0.5862    4.3676   13.7526 H   0  0  0  0  0  0  0  0  0  0  0  0
   -2.1985    4.0517   14.0268 H   0  0  0  0  0  0  0  0  0  0  0  0
  7 10  1  0  0  0
 10 11  1  0  0  0
 11 12  2  0  0  0
 12 13  1  0  0  0
 13 14  2  0  0  0
 14 15  1  0  0  0
 14 16  1  0  0  0
 16 17  2  0  0  0
 17 18  1  0  0  0
 10 19  1  0  0  0
 13 19  1  0  0  0
 18 19  2  0  0  0
 23 25  1  0  0  0
 26 25  2  0  0  0
 27 25  2  0  0  0
 24 25  1  0  0  0
 23 22  1  0  0  0
 22  1  1  0  0  0
  1  2  1  0  0  0
  1  3  1  0  0  0
  3  4  1  0  0  0
  3  5  1  0  0  0
  5  6  1  0  0  0
  2  7  1  0  0  0
  5  7  1  0  0  0
 15 20  1  0  0  0
 15 21  1  0  0  0
 24 28  1  0  0  0
 24 29  1  0  0  0
  4  8  1  0  0  0
  6  9  1  0  0  0
M  END
> <minimizedAffinity>
-7.53533

$$$$
6C7W_LMS_A_302


 29 31  0  0  0  0  0  0  0  0999 V2000
   -4.5978    2.8433   11.3504 C   0  0  0  0  0  0  0  0  0  0  0  0
   -5.6339    3.2466   12.2266 O   0  0  0  0  0  0  0  0  0  0  0  0
   -3.3518    3.0447   12.1583 C   0  0  0  0  0  0  0  0  0  0  0  0
   -2.1591    3.0810   11.3545 O   0  0  0  0  0  0  0  0  0  0  0  0
   -3.6251    4.3826   12.8013 C   0  0  0  0  0  0  0  0  0  0  0  0
   -3.3204    5.4431   11.9006 O   0  0  0  0  0  0  0  0  0  0  0  0
   -5.1357    4.2937   13.0545 C   0  0  0  0  0  0  0  0  0  0  0  0
   -2.2378    3.7840   10.6908 H   0  0  0  0  0  0  0  0  0  0  0  0
   -3.8190    5.3215   11.0775 H   0  0  0  0  0  0  0  0  0  0  0  0
   -5.5275    4.0279   14.4454 N   0  0  0  0  0  0  0  0  0  0  0  0
   -6.2536    4.8397   15.2604 C   0  0  0  0  0  0  0  0  0  0  0  0
   -6.4848    4.3271   16.4333 N   0  0  0  0  0  0  0  0  0  0  0  0
   -5.8440    3.0964   16.3964 C   0  0  0  0  0  0  0  0  0  0  0  0
   -5.6719    2.0652   17.3148 C   0  0  0  0  0  0  0  0  0  0  0  0
   -6.2108    2.1307   18.5761 N   0  0  0  0  0  0  0  0  0  0  0  0
   -4.9622    1.0031   16.9850 N   0  0  0  0  0  0  0  0  0  0  0  0
   -4.4430    0.9579   15.7569 C   0  0  0  0  0  0  0  0  0  0  0  0
   -4.5189    1.8569   14.7795 N   0  0  0  0  0  0  0  0  0  0  0  0
   -5.2470    2.9026   15.1742 C   0  0  0  0  0  0  0  0  0  0  0  0
   -6.7438    2.9141   18.8436 H   0  0  0  0  0  0  0  0  0  0  0  0
   -6.0641    1.3944   19.2129 H   0  0  0  0  0  0  0  0  0  0  0  0
   -4.8407    1.3965   10.9555 C   0  0  0  0  0  0  0  0  0  0  0  0
   -3.9795    0.5006   11.6769 O   0  0  0  0  0  0  0  0  0  0  0  0
   -3.5033   -0.3848    9.3579 N   0  0  0  0  0  0  0  0  0  0  0  0
   -2.9850   -0.4337   10.8369 S   0  0  0  0  0  0  0  0  0  0  0  0
   -1.7771    0.2822   11.0225 O   0  0  0  0  0  0  0  0  0  0  0  0
   -3.0858   -1.7542   11.3307 O   0  0  0  0  0  0  0  0  0  0  0  0
   -3.4299    0.5688    9.0033 H   0  0  0  0  0  0  0  0  0  0  0  0
   -4.4780   -0.6841    9.3292 H   0  0  0  0  0  0  0  0  0  0  0  0
  7 10  1  0  0  0
 10 11  1  0  0  0
 11 12  2  0  0  0
 12 13  1  0  0  0
 13 14  2  0  0  0
 14 15  1  0  0  0
 14 16  1  0  0  0
 16 17  2  0  0  0
 17 18  1  0  0  0
 10 19  1  0  0  0
 13 19  1  0  0  0
 18 19  2  0  0  0
 23 25  1  0  0  0
 26 25  2  0  0  0
 27 25  2  0  0  0
 24 25  1  0  0  0
 23 22  1  0  0  0
 22  1  1  0  0  0
  1  2  1  0  0  0
  1  3  1  0  0  0
  3  4  1  0  0  0
  3  5  1  0  0  0
  5  6  1  0  0  0
  2  7  1  0  0  0
  5  7  1  0  0  0
 15 20  1  0  0  0
 15 21  1  0  0  0
 24 28  1  0  0  0
 24 29  1  0  0  0
  4  8  1  0  0  0
  6  9  1  0  0  0
M  END
> <minimizedAffinity>
-7.53191

$$$$
6C7W_LMS_A_302


 29 31  0  0  0  0  0  0  0  0999 V2000
   -4.5175    3.3438   13.0385 C   0  0  0  0  0  0  0  0  0  0  0  0
   -3.8083    4.4839   12.5901 O   0  0  0  0  0  0  0  0  0  0  0  0
   -3.6934    2.1952   12.5408 C   0  0  0  0  0  0  0  0  0  0  0  0
   -4.4127    0.9493   12.5291 O   0  0  0  0  0  0  0  0  0  0  0  0
   -3.3575    2.6520   11.1420 C   0  0  0  0  0  0  0  0  0  0  0  0
   -4.4367    2.3798   10.2532 O   0  0  0  0  0  0  0  0  0  0  0  0
   -3.1847    4.1622   11.3501 C   0  0  0  0  0  0  0  0  0  0  0  0
   -5.2104    1.0416   11.9850 H   0  0  0  0  0  0  0  0  0  0  0  0
   -5.2462    2.7938   10.5912 H   0  0  0  0  0  0  0  0  0  0  0  0
   -1.7956    4.6400   11.3780 N   0  0  0  0  0  0  0  0  0  0  0  0
   -1.1697    5.2767   12.4044 C   0  0  0  0  0  0  0  0  0  0  0  0
    0.0792    5.5490   12.1635 N   0  0  0  0  0  0  0  0  0  0  0  0
    0.2851    5.0776   10.8742 C   0  0  0  0  0  0  0  0  0  0  0  0
    1.3724    5.0735   10.0058 C   0  0  0  0  0  0  0  0  0  0  0  0
    2.5840    5.6067   10.3709 N   0  0  0  0  0  0  0  0  0  0  0  0
    1.2446    4.5649    8.7952 N   0  0  0  0  0  0  0  0  0  0  0  0
    0.0594    4.0546    8.4561 C   0  0  0  0  0  0  0  0  0  0  0  0
   -1.0614    3.9884    9.1692 N   0  0  0  0  0  0  0  0  0  0  0  0
   -0.8671    4.5168   10.3786 C   0  0  0  0  0  0  0  0  0  0  0  0
    2.7018    5.9916   11.2693 H   0  0  0  0  0  0  0  0  0  0  0  0
    3.3349    5.6041    9.7342 H   0  0  0  0  0  0  0  0  0  0  0  0
   -4.6203    3.4088   14.5529 C   0  0  0  0  0  0  0  0  0  0  0  0
   -5.2718    2.2453   15.0883 O   0  0  0  0  0  0  0  0  0  0  0  0
   -5.2828    1.5296   17.5123 N   0  0  0  0  0  0  0  0  0  0  0  0
   -4.4834    1.3683   16.1731 S   0  0  0  0  0  0  0  0  0  0  0  0
   -4.6330    0.0855   15.5919 O   0  0  0  0  0  0  0  0  0  0  0  0
   -3.1859    1.9071   16.3282 O   0  0  0  0  0  0  0  0  0  0  0  0
   -6.2187    1.1403   17.3985 H   0  0  0  0  0  0  0  0  0  0  0  0
   -5.3527    2.5192   17.7495 H   0  0  0  0  0  0  0  0  0  0  0  0
  7 10  1  0  0  0
 10 11  1  0  0  0
 11 12  2  0  0  0
 12 13  1  0  0  0
 13 14  2  0  0  0
 14 15  1  0  0  0
 14 16  1  0  0  0
 16 17  2  0  0  0
 17 18  1  0  0  0
 10 19  1  0  0  0
 13 19  1  0  0  0
 18 19  2  0  0  0
 23 25  1  0  0  0
 26 25  2  0  0  0
 27 25  2  0  0  0
 24 25  1  0  0  0
 23 22  1  0  0  0
 22  1  1  0  0  0
  1  2  1  0  0  0
  1  3  1  0  0  0
  3  4  1  0  0  0
  3  5  1  0  0  0
  5  6  1  0  0  0
  2  7  1  0  0  0
  5  7  1  0  0  0
 15 20  1  0  0  0
 15 21  1  0  0  0
 24 28  1  0  0  0
 24 29  1  0  0  0
  4  8  1  0  0  0
  6  9  1  0  0  0
M  END
> <minimizedAffinity>
-7.43603

$$$$
6C7W_LMS_A_302


 29 31  0  0  0  0  0  0  0  0999 V2000
   -4.4286    3.1705   12.6900 C   0  0  0  0  0  0  0  0  0  0  0  0
   -3.2685    3.9758   12.7876 O   0  0  0  0  0  0  0  0  0  0  0  0
   -4.3910    2.6639   11.2801 C   0  0  0  0  0  0  0  0  0  0  0  0
   -5.6592    2.1543   10.8307 O   0  0  0  0  0  0  0  0  0  0  0  0
   -3.9977    3.9101   10.5248 C   0  0  0  0  0  0  0  0  0  0  0  0
   -5.1351    4.7356   10.2932 O   0  0  0  0  0  0  0  0  0  0  0  0
   -3.0310    4.5720   11.5154 C   0  0  0  0  0  0  0  0  0  0  0  0
   -6.3334    2.8467   10.9133 H   0  0  0  0  0  0  0  0  0  0  0  0
   -5.5653    4.9379   11.1387 H   0  0  0  0  0  0  0  0  0  0  0  0
   -1.6048    4.4414   11.1875 N   0  0  0  0  0  0  0  0  0  0  0  0
   -1.0007    3.3928   10.5662 C   0  0  0  0  0  0  0  0  0  0  0  0
    0.2730    3.5684   10.3689 N   0  0  0  0  0  0  0  0  0  0  0  0
    0.5316    4.8151   10.9218 C   0  0  0  0  0  0  0  0  0  0  0  0
    1.6785    5.5878   11.0764 C   0  0  0  0  0  0  0  0  0  0  0  0
    2.8995    5.1593   10.6169 N   0  0  0  0  0  0  0  0  0  0  0  0
    1.6081    6.7524   11.6923 N   0  0  0  0  0  0  0  0  0  0  0  0
    0.4147    7.1513   12.1356 C   0  0  0  0  0  0  0  0  0  0  0  0
   -0.7586    6.5288   12.0643 N   0  0  0  0  0  0  0  0  0  0  0  0
   -0.6207    5.3619   11.4328 C   0  0  0  0  0  0  0  0  0  0  0  0
    2.9751    4.2935   10.1544 H   0  0  0  0  0  0  0  0  0  0  0  0
    3.6992    5.7179   10.7498 H   0  0  0  0  0  0  0  0  0  0  0  0
   -4.3377    2.0714   13.7350 C   0  0  0  0  0  0  0  0  0  0  0  0
   -4.8791    2.4961   14.9964 O   0  0  0  0  0  0  0  0  0  0  0  0
   -4.7167    0.1585   15.9438 N   0  0  0  0  0  0  0  0  0  0  0  0
   -4.4829    1.6655   16.3082 S   0  0  0  0  0  0  0  0  0  0  0  0
   -3.1109    2.0057   16.3963 O   0  0  0  0  0  0  0  0  0  0  0  0
   -5.3540    2.0400   17.3564 O   0  0  0  0  0  0  0  0  0  0  0  0
   -4.0874   -0.1100   15.1873 H   0  0  0  0  0  0  0  0  0  0  0  0
   -5.6831    0.0269   15.6450 H   0  0  0  0  0  0  0  0  0  0  0  0
  7 10  1  0  0  0
 10 11  1  0  0  0
 11 12  2  0  0  0
 12 13  1  0  0  0
 13 14  2  0  0  0
 14 15  1  0  0  0
 14 16  1  0  0  0
 16 17  2  0  0  0
 17 18  1  0  0  0
 10 19  1  0  0  0
 13 19  1  0  0  0
 18 19  2  0  0  0
 23 25  1  0  0  0
 26 25  2  0  0  0
 27 25  2  0  0  0
 24 25  1  0  0  0
 23 22  1  0  0  0
 22  1  1  0  0  0
  1  2  1  0  0  0
  1  3  1  0  0  0
  3  4  1  0  0  0
  3  5  1  0  0  0
  5  6  1  0  0  0
  2  7  1  0  0  0
  5  7  1  0  0  0
 15 20  1  0  0  0
 15 21  1  0  0  0
 24 28  1  0  0  0
 24 29  1  0  0  0
  4  8  1  0  0  0
  6  9  1  0  0  0
M  END
> <minimizedAffinity>
-7.35186

$$$$
6C7W_LMS_A_302


 29 31  0  0  0  0  0  0  0  0999 V2000
   -4.4929    2.2593   13.1201 C   0  0  0  0  0  0  0  0  0  0  0  0
   -3.6436    3.1271   13.8478 O   0  0  0  0  0  0  0  0  0  0  0  0
   -4.7725    3.0145   11.8562 C   0  0  0  0  0  0  0  0  0  0  0  0
   -5.9177    2.5146   11.1430 O   0  0  0  0  0  0  0  0  0  0  0  0
   -5.0170    4.4062   12.3870 C   0  0  0  0  0  0  0  0  0  0  0  0
   -6.3529    4.5328   12.8645 O   0  0  0  0  0  0  0  0  0  0  0  0
   -4.0115    4.4697   13.5441 C   0  0  0  0  0  0  0  0  0  0  0  0
   -6.6960    2.5419   11.7213 H   0  0  0  0  0  0  0  0  0  0  0  0
   -6.5242    3.8492   13.5311 H   0  0  0  0  0  0  0  0  0  0  0  0
   -2.7941    5.2485   13.2796 N   0  0  0  0  0  0  0  0  0  0  0  0
   -2.5205    6.5101   13.7086 C   0  0  0  0  0  0  0  0  0  0  0  0
   -1.3432    6.9359   13.3554 N   0  0  0  0  0  0  0  0  0  0  0  0
   -0.8110    5.8859   12.6198 C   0  0  0  0  0  0  0  0  0  0  0  0
    0.3851    5.6897   11.9362 C   0  0  0  0  0  0  0  0  0  0  0  0
    1.3603    6.6559   11.9051 N   0  0  0  0  0  0  0  0  0  0  0  0
    0.5921    4.5614   11.2846 N   0  0  0  0  0  0  0  0  0  0  0  0
   -0.3675    3.6353   11.3226 C   0  0  0  0  0  0  0  0  0  0  0  0
   -1.5524    3.6780   11.9254 N   0  0  0  0  0  0  0  0  0  0  0  0
   -1.7000    4.8397   12.5643 C   0  0  0  0  0  0  0  0  0  0  0  0
    1.2269    7.5055   12.3842 H   0  0  0  0  0  0  0  0  0  0  0  0
    2.1928    6.4990   11.4036 H   0  0  0  0  0  0  0  0  0  0  0  0
   -3.7595    0.9477   12.8966 C   0  0  0  0  0  0  0  0  0  0  0  0
   -4.2918    0.2303   11.7711 O   0  0  0  0  0  0  0  0  0  0  0  0
   -2.0409    0.6849   10.7152 N   0  0  0  0  0  0  0  0  0  0  0  0
   -3.2692   -0.2876   10.6514 S   0  0  0  0  0  0  0  0  0  0  0  0
   -2.9828   -1.5735   11.1714 O   0  0  0  0  0  0  0  0  0  0  0  0
   -3.8943   -0.1790    9.3884 O   0  0  0  0  0  0  0  0  0  0  0  0
   -1.5911    0.6052   11.6271 H   0  0  0  0  0  0  0  0  0  0  0  0
   -2.3589    1.6439   10.5755 H   0  0  0  0  0  0  0  0  0  0  0  0
  7 10  1  0  0  0
 10 11  1  0  0  0
 11 12  2  0  0  0
 12 13  1  0  0  0
 13 14  2  0  0  0
 14 15  1  0  0  0
 14 16  1  0  0  0
 16 17  2  0  0  0
 17 18  1  0  0  0
 10 19  1  0  0  0
 13 19  1  0  0  0
 18 19  2  0  0  0
 23 25  1  0  0  0
 26 25  2  0  0  0
 27 25  2  0  0  0
 24 25  1  0  0  0
 23 22  1  0  0  0
 22  1  1  0  0  0
  1  2  1  0  0  0
  1  3  1  0  0  0
  3  4  1  0  0  0
  3  5  1  0  0  0
  5  6  1  0  0  0
  2  7  1  0  0  0
  5  7  1  0  0  0
 15 20  1  0  0  0
 15 21  1  0  0  0
 24 28  1  0  0  0
 24 29  1  0  0  0
  4  8  1  0  0  0
  6  9  1  0  0  0
M  END
> <minimizedAffinity>
-7.09728

$$$$
6C7W_LMS_A_302


 29 31  0  0  0  0  0  0  0  0999 V2000
   -4.4172    2.2385   12.8791 C   0  0  0  0  0  0  0  0  0  0  0  0
   -3.3002    2.9532   13.3746 O   0  0  0  0  0  0  0  0  0  0  0  0
   -4.6093    2.7925   11.5000 C   0  0  0  0  0  0  0  0  0  0  0  0
   -5.9106    2.5098   10.9556 O   0  0  0  0  0  0  0  0  0  0  0  0
   -4.4213    4.2704   11.7423 C   0  0  0  0  0  0  0  0  0  0  0  0
   -5.6216    4.8530   12.2410 O   0  0  0  0  0  0  0  0  0  0  0  0
   -3.3261    4.2640   12.8168 C   0  0  0  0  0  0  0  0  0  0  0  0
   -6.5927    2.8614   11.5490 H   0  0  0  0  0  0  0  0  0  0  0  0
   -5.9018    4.3815   13.0410 H   0  0  0  0  0  0  0  0  0  0  0  0
   -1.9777    4.6070   12.3447 N   0  0  0  0  0  0  0  0  0  0  0  0
   -1.1194    3.8007   11.6637 C   0  0  0  0  0  0  0  0  0  0  0  0
   -0.0042    4.3854   11.3375 N   0  0  0  0  0  0  0  0  0  0  0  0
   -0.1274    5.6645   11.8626 C   0  0  0  0  0  0  0  0  0  0  0  0
    0.7025    6.7809   11.9001 C   0  0  0  0  0  0  0  0  0  0  0  0
    1.9460    6.7702   11.3177 N   0  0  0  0  0  0  0  0  0  0  0  0
    0.3048    7.8747   12.5214 N   0  0  0  0  0  0  0  0  0  0  0  0
   -0.9046    7.8661   13.0847 C   0  0  0  0  0  0  0  0  0  0  0  0
   -1.8015    6.8851   13.1330 N   0  0  0  0  0  0  0  0  0  0  0  0
   -1.3413    5.8112   12.4892 C   0  0  0  0  0  0  0  0  0  0  0  0
    2.2631    5.9646   10.8489 H   0  0  0  0  0  0  0  0  0  0  0  0
    2.5204    7.5681   11.3689 H   0  0  0  0  0  0  0  0  0  0  0  0
   -4.0846    0.7562   12.8994 C   0  0  0  0  0  0  0  0  0  0  0  0
   -4.3009    0.1490   11.6152 O   0  0  0  0  0  0  0  0  0  0  0  0
   -2.7811   -1.8551   11.3658 N   0  0  0  0  0  0  0  0  0  0  0  0
   -3.0276   -0.4072   10.8170 S   0  0  0  0  0  0  0  0  0  0  0  0
   -3.5522   -0.3973    9.5015 O   0  0  0  0  0  0  0  0  0  0  0  0
   -1.9154    0.4103   11.1211 O   0  0  0  0  0  0  0  0  0  0  0  0
   -3.5846   -2.4436   11.1456 H   0  0  0  0  0  0  0  0  0  0  0  0
   -2.6537   -1.8183   12.3772 H   0  0  0  0  0  0  0  0  0  0  0  0
  7 10  1  0  0  0
 10 11  1  0  0  0
 11 12  2  0  0  0
 12 13  1  0  0  0
 13 14  2  0  0  0
 14 15  1  0  0  0
 14 16  1  0  0  0
 16 17  2  0  0  0
 17 18  1  0  0  0
 10 19  1  0  0  0
 13 19  1  0  0  0
 18 19  2  0  0  0
 23 25  1  0  0  0
 26 25  2  0  0  0
 27 25  2  0  0  0
 24 25  1  0  0  0
 23 22  1  0  0  0
 22  1  1  0  0  0
  1  2  1  0  0  0
  1  3  1  0  0  0
  3  4  1  0  0  0
  3  5  1  0  0  0
  5  6  1  0  0  0
  2  7  1  0  0  0
  5  7  1  0  0  0
 15 20  1  0  0  0
 15 21  1  0  0  0
 24 28  1  0  0  0
 24 29  1  0  0  0
  4  8  1  0  0  0
  6  9  1  0  0  0
M  END
> <minimizedAffinity>
-7.09380

$$$$
6C7W_LMS_A_302


 29 31  0  0  0  0  0  0  0  0999 V2000
   -4.9168    3.2167   12.6344 C   0  0  0  0  0  0  0  0  0  0  0  0
   -5.4413    4.4562   12.1958 O   0  0  0  0  0  0  0  0  0  0  0  0
   -3.5227    3.2071   12.0847 C   0  0  0  0  0  0  0  0  0  0  0  0
   -2.9355    1.8939   12.0611 O   0  0  0  0  0  0  0  0  0  0  0  0
   -3.7477    3.7365   10.6892 C   0  0  0  0  0  0  0  0  0  0  0  0
   -4.1923    2.6959    9.8242 O   0  0  0  0  0  0  0  0  0  0  0  0
   -4.8616    4.7635   10.9310 C   0  0  0  0  0  0  0  0  0  0  0  0
   -3.4977    1.2977   11.5421 H   0  0  0  0  0  0  0  0  0  0  0  0
   -4.9891    2.2854   10.1951 H   0  0  0  0  0  0  0  0  0  0  0  0
   -4.4338    6.1691   10.9324 N   0  0  0  0  0  0  0  0  0  0  0  0
   -3.1636    6.6377   11.0646 C   0  0  0  0  0  0  0  0  0  0  0  0
   -3.0765    7.9333   10.9885 N   0  0  0  0  0  0  0  0  0  0  0  0
   -4.3892    8.3506   10.8165 C   0  0  0  0  0  0  0  0  0  0  0  0
   -5.0032    9.5934   10.6947 C   0  0  0  0  0  0  0  0  0  0  0  0
   -4.2759   10.7579   10.7170 N   0  0  0  0  0  0  0  0  0  0  0  0
   -6.3146    9.6693   10.5721 N   0  0  0  0  0  0  0  0  0  0  0  0
   -7.0056    8.5281   10.5561 C   0  0  0  0  0  0  0  0  0  0  0  0
   -6.5646    7.2778   10.6629 N   0  0  0  0  0  0  0  0  0  0  0  0
   -5.2361    7.2691   10.7833 C   0  0  0  0  0  0  0  0  0  0  0  0
   -3.2962   10.7248   10.8077 H   0  0  0  0  0  0  0  0  0  0  0  0
   -4.7343   11.6260   10.6424 H   0  0  0  0  0  0  0  0  0  0  0  0
   -4.9735    3.1830   14.1523 C   0  0  0  0  0  0  0  0  0  0  0  0
   -4.5736    1.9025   14.6672 O   0  0  0  0  0  0  0  0  0  0  0  0
   -4.9637    0.2270   16.5190 N   0  0  0  0  0  0  0  0  0  0  0  0
   -4.5224    1.7086   16.2570 S   0  0  0  0  0  0  0  0  0  0  0  0
   -3.1389    1.9193   16.4749 O   0  0  0  0  0  0  0  0  0  0  0  0
   -5.4548    2.5919   16.8469 O   0  0  0  0  0  0  0  0  0  0  0  0
   -4.2897   -0.4089   16.0926 H   0  0  0  0  0  0  0  0  0  0  0  0
   -5.8851    0.0695   16.1108 H   0  0  0  0  0  0  0  0  0  0  0  0
  7 10  1  0  0  0
 10 11  1  0  0  0
 11 12  2  0  0  0
 12 13  1  0  0  0
 13 14  2  0  0  0
 14 15  1  0  0  0
 14 16  1  0  0  0
 16 17  2  0  0  0
 17 18  1  0  0  0
 10 19  1  0  0  0
 13 19  1  0  0  0
 18 19  2  0  0  0
 23 25  1  0  0  0
 26 25  2  0  0  0
 27 25  2  0  0  0
 24 25  1  0  0  0
 23 22  1  0  0  0
 22  1  1  0  0  0
  1  2  1  0  0  0
  1  3  1  0  0  0
  3  4  1  0  0  0
  3  5  1  0  0  0
  5  6  1  0  0  0
  2  7  1  0  0  0
  5  7  1  0  0  0
 15 20  1  0  0  0
 15 21  1  0  0  0
 24 28  1  0  0  0
 24 29  1  0  0  0
  4  8  1  0  0  0
  6  9  1  0  0  0
M  END
> <minimizedAffinity>
-6.96438

$$$$
6C7W_LMS_A_302


 29 31  0  0  0  0  0  0  0  0999 V2000
   -2.4129    3.7875   11.6290 C   0  0  0  0  0  0  0  0  0  0  0  0
   -2.8925    2.9637   12.6755 O   0  0  0  0  0  0  0  0  0  0  0  0
   -3.5058    4.7958   11.4423 C   0  0  0  0  0  0  0  0  0  0  0  0
   -3.4260    5.4863   10.1827 O   0  0  0  0  0  0  0  0  0  0  0  0
   -4.7346    3.9223   11.5162 C   0  0  0  0  0  0  0  0  0  0  0  0
   -4.9781    3.2928   10.2619 O   0  0  0  0  0  0  0  0  0  0  0  0
   -4.3120    2.8944   12.5740 C   0  0  0  0  0  0  0  0  0  0  0  0
   -3.4466    4.8412    9.4585 H   0  0  0  0  0  0  0  0  0  0  0  0
   -4.1897    2.7970    9.9906 H   0  0  0  0  0  0  0  0  0  0  0  0
   -4.8946    3.0874   13.9089 N   0  0  0  0  0  0  0  0  0  0  0  0
   -5.5618    4.1838   14.3598 C   0  0  0  0  0  0  0  0  0  0  0  0
   -6.0038    4.0599   15.5768 N   0  0  0  0  0  0  0  0  0  0  0  0
   -5.5764    2.7974   15.9645 C   0  0  0  0  0  0  0  0  0  0  0  0
   -5.6812    2.0564   17.1377 C   0  0  0  0  0  0  0  0  0  0  0  0
   -6.3385    2.5464   18.2392 N   0  0  0  0  0  0  0  0  0  0  0  0
   -5.1257    0.8621   17.2124 N   0  0  0  0  0  0  0  0  0  0  0  0
   -4.4880    0.4034   16.1340 C   0  0  0  0  0  0  0  0  0  0  0  0
   -4.3044    0.9896   14.9543 N   0  0  0  0  0  0  0  0  0  0  0  0
   -4.8878    2.1892   14.9429 C   0  0  0  0  0  0  0  0  0  0  0  0
   -6.7603    3.4353   18.2057 H   0  0  0  0  0  0  0  0  0  0  0  0
   -6.3880    2.0088   19.0625 H   0  0  0  0  0  0  0  0  0  0  0  0
   -1.0910    4.3958   12.0659 C   0  0  0  0  0  0  0  0  0  0  0  0
   -0.4827    5.1529   11.0070 O   0  0  0  0  0  0  0  0  0  0  0  0
    1.7696    4.3080   11.7828 N   0  0  0  0  0  0  0  0  0  0  0  0
    0.9688    4.7070   10.4951 S   0  0  0  0  0  0  0  0  0  0  0  0
    0.6059    3.5907    9.7027 O   0  0  0  0  0  0  0  0  0  0  0  0
    1.5876    5.8178    9.8778 O   0  0  0  0  0  0  0  0  0  0  0  0
    1.3217    3.5064   12.2269 H   0  0  0  0  0  0  0  0  0  0  0  0
    1.7817    5.0940   12.4328 H   0  0  0  0  0  0  0  0  0  0  0  0
  7 10  1  0  0  0
 10 11  1  0  0  0
 11 12  2  0  0  0
 12 13  1  0  0  0
 13 14  2  0  0  0
 14 15  1  0  0  0
 14 16  1  0  0  0
 16 17  2  0  0  0
 17 18  1  0  0  0
 10 19  1  0  0  0
 13 19  1  0  0  0
 18 19  2  0  0  0
 23 25  1  0  0  0
 26 25  2  0  0  0
 27 25  2  0  0  0
 24 25  1  0  0  0
 23 22  1  0  0  0
 22  1  1  0  0  0
  1  2  1  0  0  0
  1  3  1  0  0  0
  3  4  1  0  0  0
  3  5  1  0  0  0
  5  6  1  0  0  0
  2  7  1  0  0  0
  5  7  1  0  0  0
 15 20  1  0  0  0
 15 21  1  0  0  0
 24 28  1  0  0  0
 24 29  1  0  0  0
  4  8  1  0  0  0
  6  9  1  0  0  0
M  END
> <minimizedAffinity>
-6.95676

$$$$
6C7W_LMS_A_302


 29 31  0  0  0  0  0  0  0  0999 V2000
   -4.3663    3.6448   14.6274 C   0  0  0  0  0  0  0  0  0  0  0  0
   -3.0034    3.8063   14.2808 O   0  0  0  0  0  0  0  0  0  0  0  0
   -5.0857    3.8084   13.3229 C   0  0  0  0  0  0  0  0  0  0  0  0
   -6.4894    4.0793   13.4839 O   0  0  0  0  0  0  0  0  0  0  0  0
   -4.3600    4.9903   12.7272 C   0  0  0  0  0  0  0  0  0  0  0  0
   -4.8654    6.2100   13.2618 O   0  0  0  0  0  0  0  0  0  0  0  0
   -2.9240    4.7351   13.2032 C   0  0  0  0  0  0  0  0  0  0  0  0
   -6.6050    4.8759   14.0251 H   0  0  0  0  0  0  0  0  0  0  0  0
   -4.8030    6.1892   14.2296 H   0  0  0  0  0  0  0  0  0  0  0  0
   -2.0069    4.2053   12.1849 N   0  0  0  0  0  0  0  0  0  0  0  0
   -2.1913    3.1004   11.4131 C   0  0  0  0  0  0  0  0  0  0  0  0
   -1.2278    2.8917   10.5645 N   0  0  0  0  0  0  0  0  0  0  0  0
   -0.3312    3.9223   10.8115 C   0  0  0  0  0  0  0  0  0  0  0  0
    0.9083    4.2752   10.2867 C   0  0  0  0  0  0  0  0  0  0  0  0
    1.4978    3.5438    9.2852 N   0  0  0  0  0  0  0  0  0  0  0  0
    1.5502    5.3236   10.7656 N   0  0  0  0  0  0  0  0  0  0  0  0
    0.9644    6.0204   11.7410 C   0  0  0  0  0  0  0  0  0  0  0  0
   -0.2040    5.8076   12.3399 N   0  0  0  0  0  0  0  0  0  0  0  0
   -0.8013    4.7378   11.8124 C   0  0  0  0  0  0  0  0  0  0  0  0
    1.0367    2.7576    8.9130 H   0  0  0  0  0  0  0  0  0  0  0  0
    2.3815    3.8056    8.9392 H   0  0  0  0  0  0  0  0  0  0  0  0
   -4.5421    2.2711   15.2521 C   0  0  0  0  0  0  0  0  0  0  0  0
   -4.6757    2.3538   16.6804 O   0  0  0  0  0  0  0  0  0  0  0  0
   -5.5403    0.1092   17.4566 N   0  0  0  0  0  0  0  0  0  0  0  0
   -5.9274    1.6260   17.3668 S   0  0  0  0  0  0  0  0  0  0  0  0
   -5.9148    2.2744   18.6258 O   0  0  0  0  0  0  0  0  0  0  0  0
   -7.0522    1.7787   16.5247 O   0  0  0  0  0  0  0  0  0  0  0  0
   -4.7286    0.0009   18.0646 H   0  0  0  0  0  0  0  0  0  0  0  0
   -5.3164   -0.2403   16.5249 H   0  0  0  0  0  0  0  0  0  0  0  0
  7 10  1  0  0  0
 10 11  1  0  0  0
 11 12  2  0  0  0
 12 13  1  0  0  0
 13 14  2  0  0  0
 14 15  1  0  0  0
 14 16  1  0  0  0
 16 17  2  0  0  0
 17 18  1  0  0  0
 10 19  1  0  0  0
 13 19  1  0  0  0
 18 19  2  0  0  0
 23 25  1  0  0  0
 26 25  2  0  0  0
 27 25  2  0  0  0
 24 25  1  0  0  0
 23 22  1  0  0  0
 22  1  1  0  0  0
  1  2  1  0  0  0
  1  3  1  0  0  0
  3  4  1  0  0  0
  3  5  1  0  0  0
  5  6  1  0  0  0
  2  7  1  0  0  0
  5  7  1  0  0  0
 15 20  1  0  0  0
 15 21  1  0  0  0
 24 28  1  0  0  0
 24 29  1  0  0  0
  4  8  1  0  0  0
  6  9  1  0  0  0
M  END
> <minimizedAffinity>
-6.86355

$$$$
