2HJB_PZM_D_1102


 12 12  0  0  0  0  0  0  0  0999 V2000
   22.2685   16.0441   29.8398 C   0  0  0  0  0  0  0  0  0  0  0  0
   23.2120   17.0796   29.8767 C   0  0  0  0  0  0  0  0  0  0  0  0
   23.7617   17.6524   28.6919 C   0  0  0  0  0  0  0  0  0  0  0  0
   23.3768   17.2200   27.3947 C   0  0  0  0  0  0  0  0  0  0  0  0
   22.4356   16.2287   27.2428 C   0  0  0  0  0  0  0  0  0  0  0  0
   21.8112   15.5772   28.6173 C   0  0  0  0  0  0  0  0  0  0  0  0
   20.5868   16.1871   31.7715 N   0  0  0  0  0  0  0  0  0  0  0  0
   21.6855   15.4804   31.0938 C   0  0  0  0  0  0  0  0  0  0  0  0
   20.3114   15.6677   32.6050 H   0  0  0  0  0  0  0  0  0  0  0  0
   19.7900   16.2626   31.1392 H   0  0  0  0  0  0  0  0  0  0  0  0
   23.9255   17.8360   26.2555 O   0  0  0  0  0  0  0  0  0  0  0  0
   24.9174   17.0419   25.8005 C   0  0  0  0  0  0  0  0  0  0  0  0
  7  8  1  0  0  0
  8  1  1  0  0  0
  1  2  2  0  0  0
  1  6  1  0  0  0
  2  3  1  0  0  0
  3  4  2  0  0  0
  4  5  1  0  0  0
  4 11  1  0  0  0
  5  6  2  0  0  0
 11 12  1  0  0  0
  7  9  1  0  0  0
  7 10  1  0  0  0
M  END
> <minimizedAffinity>
-6.55907

$$$$
2HJB_PZM_D_1102


 12 12  0  0  0  0  0  0  0  0999 V2000
   22.2555   16.1058   29.7916 C   0  0  0  0  0  0  0  0  0  0  0  0
   21.8751   15.6826   28.5109 C   0  0  0  0  0  0  0  0  0  0  0  0
   22.4261   16.2521   27.3251 C   0  0  0  0  0  0  0  0  0  0  0  0
   23.4090   17.2769   27.3651 C   0  0  0  0  0  0  0  0  0  0  0  0
   23.8754   17.7466   28.5708 C   0  0  0  0  0  0  0  0  0  0  0  0
   23.2307   17.0813   29.9292 C   0  0  0  0  0  0  0  0  0  0  0  0
   20.6013   16.1466   31.7516 N   0  0  0  0  0  0  0  0  0  0  0  0
   21.6857   15.4737   31.0188 C   0  0  0  0  0  0  0  0  0  0  0  0
   20.3337   15.5814   32.5573 H   0  0  0  0  0  0  0  0  0  0  0  0
   19.7965   16.2636   31.1359 H   0  0  0  0  0  0  0  0  0  0  0  0
   23.9440   17.7866   26.1683 O   0  0  0  0  0  0  0  0  0  0  0  0
   24.9692   16.9868   25.8068 C   0  0  0  0  0  0  0  0  0  0  0  0
  7  8  1  0  0  0
  8  1  1  0  0  0
  1  2  2  0  0  0
  1  6  1  0  0  0
  2  3  1  0  0  0
  3  4  2  0  0  0
  4  5  1  0  0  0
  4 11  1  0  0  0
  5  6  2  0  0  0
 11 12  1  0  0  0
  7  9  1  0  0  0
  7 10  1  0  0  0
M  END
> <minimizedAffinity>
-6.46693

$$$$
2HJB_PZM_D_1102


 12 12  0  0  0  0  0  0  0  0999 V2000
   21.6956   15.4855   30.3274 C   0  0  0  0  0  0  0  0  0  0  0  0
   22.5958   16.5575   30.3931 C   0  0  0  0  0  0  0  0  0  0  0  0
   23.2886   17.0425   29.2446 C   0  0  0  0  0  0  0  0  0  0  0  0
   23.0996   16.4791   27.9544 C   0  0  0  0  0  0  0  0  0  0  0  0
   22.2163   15.4408   27.7714 C   0  0  0  0  0  0  0  0  0  0  0  0
   21.4255   14.8917   29.1043 C   0  0  0  0  0  0  0  0  0  0  0  0
   19.5813   15.4691   31.7797 N   0  0  0  0  0  0  0  0  0  0  0  0
   20.9600   15.0145   31.5387 C   0  0  0  0  0  0  0  0  0  0  0  0
   19.2327   15.0546   32.6440 H   0  0  0  0  0  0  0  0  0  0  0  0
   18.9877   15.1820   31.0014 H   0  0  0  0  0  0  0  0  0  0  0  0
   23.7838   17.0111   26.8466 O   0  0  0  0  0  0  0  0  0  0  0  0
   23.6915   18.3558   26.9178 C   0  0  0  0  0  0  0  0  0  0  0  0
  7  8  1  0  0  0
  8  1  1  0  0  0
  1  2  2  0  0  0
  1  6  1  0  0  0
  2  3  1  0  0  0
  3  4  2  0  0  0
  4  5  1  0  0  0
  4 11  1  0  0  0
  5  6  2  0  0  0
 11 12  1  0  0  0
  7  9  1  0  0  0
  7 10  1  0  0  0
M  END
> <minimizedAffinity>
-6.38612

$$$$
2HJB_PZM_D_1102


 12 12  0  0  0  0  0  0  0  0999 V2000
   23.2257   17.0926   27.7256 C   0  0  0  0  0  0  0  0  0  0  0  0
   23.5713   17.4463   29.0369 C   0  0  0  0  0  0  0  0  0  0  0  0
   23.1200   16.7069   30.1698 C   0  0  0  0  0  0  0  0  0  0  0  0
   22.3016   15.5529   30.0419 C   0  0  0  0  0  0  0  0  0  0  0  0
   21.9269   15.1003   28.7983 C   0  0  0  0  0  0  0  0  0  0  0  0
   22.4540   15.9631   27.5016 C   0  0  0  0  0  0  0  0  0  0  0  0
   24.8017   17.3000   25.7124 N   0  0  0  0  0  0  0  0  0  0  0  0
   23.7347   17.8655   26.5536 C   0  0  0  0  0  0  0  0  0  0  0  0
   25.0267   17.9545   24.9631 H   0  0  0  0  0  0  0  0  0  0  0  0
   24.4856   16.4178   25.3098 H   0  0  0  0  0  0  0  0  0  0  0  0
   21.9059   14.8397   31.1878 O   0  0  0  0  0  0  0  0  0  0  0  0
   20.7179   15.3391   31.5888 C   0  0  0  0  0  0  0  0  0  0  0  0
  7  8  1  0  0  0
  8  1  1  0  0  0
  1  2  2  0  0  0
  1  6  1  0  0  0
  2  3  1  0  0  0
  3  4  2  0  0  0
  4  5  1  0  0  0
  4 11  1  0  0  0
  5  6  2  0  0  0
 11 12  1  0  0  0
  7  9  1  0  0  0
  7 10  1  0  0  0
M  END
> <minimizedAffinity>
-6.27068

$$$$
2HJB_PZM_D_1102


 12 12  0  0  0  0  0  0  0  0999 V2000
   21.6284   15.5128   30.2863 C   0  0  0  0  0  0  0  0  0  0  0  0
   21.4113   14.8991   29.0453 C   0  0  0  0  0  0  0  0  0  0  0  0
   22.0671   15.3329   27.8554 C   0  0  0  0  0  0  0  0  0  0  0  0
   22.9960   16.4076   27.8534 C   0  0  0  0  0  0  0  0  0  0  0  0
   23.3049   17.0620   29.0231 C   0  0  0  0  0  0  0  0  0  0  0  0
   22.5407   16.5516   30.3865 C   0  0  0  0  0  0  0  0  0  0  0  0
   19.5652   15.4242   31.8078 N   0  0  0  0  0  0  0  0  0  0  0  0
   20.9519   15.0217   31.5238 C   0  0  0  0  0  0  0  0  0  0  0  0
   19.2616   15.0023   32.6853 H   0  0  0  0  0  0  0  0  0  0  0  0
   18.9580   15.1093   31.0511 H   0  0  0  0  0  0  0  0  0  0  0  0
   23.6396   16.7799   26.6595 O   0  0  0  0  0  0  0  0  0  0  0  0
   23.8219   18.1167   26.6944 C   0  0  0  0  0  0  0  0  0  0  0  0
  7  8  1  0  0  0
  8  1  1  0  0  0
  1  2  2  0  0  0
  1  6  1  0  0  0
  2  3  1  0  0  0
  3  4  2  0  0  0
  4  5  1  0  0  0
  4 11  1  0  0  0
  5  6  2  0  0  0
 11 12  1  0  0  0
  7  9  1  0  0  0
  7 10  1  0  0  0
M  END
> <minimizedAffinity>
-6.25851

$$$$
2HJB_PZM_D_1102


 12 12  0  0  0  0  0  0  0  0999 V2000
   23.1997   17.0589   27.6159 C   0  0  0  0  0  0  0  0  0  0  0  0
   22.2759   16.0593   27.2824 C   0  0  0  0  0  0  0  0  0  0  0  0
   21.6196   15.2677   28.2707 C   0  0  0  0  0  0  0  0  0  0  0  0
   21.8488   15.4513   29.6605 C   0  0  0  0  0  0  0  0  0  0  0  0
   22.7151   16.4251   30.0998 C   0  0  0  0  0  0  0  0  0  0  0  0
   23.4649   17.3293   28.9493 C   0  0  0  0  0  0  0  0  0  0  0  0
   24.8831   17.3036   25.6959 N   0  0  0  0  0  0  0  0  0  0  0  0
   23.8523   17.8946   26.5642 C   0  0  0  0  0  0  0  0  0  0  0  0
   25.2198   18.0082   25.0398 H   0  0  0  0  0  0  0  0  0  0  0  0
   24.4837   16.5205   25.1785 H   0  0  0  0  0  0  0  0  0  0  0  0
   21.1554   14.6654   30.5984 O   0  0  0  0  0  0  0  0  0  0  0  0
   20.8355   15.4614   31.6403 C   0  0  0  0  0  0  0  0  0  0  0  0
  7  8  1  0  0  0
  8  1  1  0  0  0
  1  2  2  0  0  0
  1  6  1  0  0  0
  2  3  1  0  0  0
  3  4  2  0  0  0
  4  5  1  0  0  0
  4 11  1  0  0  0
  5  6  2  0  0  0
 11 12  1  0  0  0
  7  9  1  0  0  0
  7 10  1  0  0  0
M  END
> <minimizedAffinity>
-6.21609

$$$$
2HJB_PZM_D_1102


 12 12  0  0  0  0  0  0  0  0999 V2000
   20.5285   14.7747   31.0864 C   0  0  0  0  0  0  0  0  0  0  0  0
   21.3329   15.8744   31.4143 C   0  0  0  0  0  0  0  0  0  0  0  0
   22.2330   16.4660   30.4795 C   0  0  0  0  0  0  0  0  0  0  0  0
   22.3622   15.9876   29.1483 C   0  0  0  0  0  0  0  0  0  0  0  0
   21.5983   14.9304   28.7119 C   0  0  0  0  0  0  0  0  0  0  0  0
   20.5657   14.2580   29.8006 C   0  0  0  0  0  0  0  0  0  0  0  0
   20.0629   13.2668   33.1085 N   0  0  0  0  0  0  0  0  0  0  0  0
   19.5722   14.1909   32.0737 C   0  0  0  0  0  0  0  0  0  0  0  0
   19.2831   12.9658   33.6930 H   0  0  0  0  0  0  0  0  0  0  0  0
   20.7576   13.7406   33.6858 H   0  0  0  0  0  0  0  0  0  0  0  0
   23.2425   16.6229   28.2540 O   0  0  0  0  0  0  0  0  0  0  0  0
   23.6428   17.7775   28.8271 C   0  0  0  0  0  0  0  0  0  0  0  0
  7  8  1  0  0  0
  8  1  1  0  0  0
  1  2  2  0  0  0
  1  6  1  0  0  0
  2  3  1  0  0  0
  3  4  2  0  0  0
  4  5  1  0  0  0
  4 11  1  0  0  0
  5  6  2  0  0  0
 11 12  1  0  0  0
  7  9  1  0  0  0
  7 10  1  0  0  0
M  END
> <minimizedAffinity>
-5.59704

$$$$
2HJB_PZM_D_1102


 12 12  0  0  0  0  0  0  0  0999 V2000
   22.0494   15.8606   29.2011 C   0  0  0  0  0  0  0  0  0  0  0  0
   22.1553   16.3788   30.4988 C   0  0  0  0  0  0  0  0  0  0  0  0
   21.4583   15.8105   31.6057 C   0  0  0  0  0  0  0  0  0  0  0  0
   20.6216   14.6709   31.4674 C   0  0  0  0  0  0  0  0  0  0  0  0
   20.4692   14.0646   30.2422 C   0  0  0  0  0  0  0  0  0  0  0  0
   21.2780   14.7311   28.9753 C   0  0  0  0  0  0  0  0  0  0  0  0
   22.2862   17.6435   27.3722 N   0  0  0  0  0  0  0  0  0  0  0  0
   22.8121   16.4554   28.0633 C   0  0  0  0  0  0  0  0  0  0  0  0
   22.9274   17.9149   26.6268 H   0  0  0  0  0  0  0  0  0  0  0  0
   22.1942   18.4110   28.0377 H   0  0  0  0  0  0  0  0  0  0  0  0
   19.9780   14.1289   32.5944 O   0  0  0  0  0  0  0  0  0  0  0  0
   18.8351   13.5487   32.1715 C   0  0  0  0  0  0  0  0  0  0  0  0
  7  8  1  0  0  0
  8  1  1  0  0  0
  1  2  2  0  0  0
  1  6  1  0  0  0
  2  3  1  0  0  0
  3  4  2  0  0  0
  4  5  1  0  0  0
  4 11  1  0  0  0
  5  6  2  0  0  0
 11 12  1  0  0  0
  7  9  1  0  0  0
  7 10  1  0  0  0
M  END
> <minimizedAffinity>
-5.26805

$$$$
2HJB_PZM_D_1102


 12 12  0  0  0  0  0  0  0  0999 V2000
   22.9455   16.4094   28.0880 C   0  0  0  0  0  0  0  0  0  0  0  0
   21.8788   15.5047   28.0015 C   0  0  0  0  0  0  0  0  0  0  0  0
   21.1864   15.0303   29.1546 C   0  0  0  0  0  0  0  0  0  0  0  0
   21.5238   15.4562   30.4671 C   0  0  0  0  0  0  0  0  0  0  0  0
   22.5368   16.3654   30.6643 C   0  0  0  0  0  0  0  0  0  0  0  0
   23.3265   16.9029   29.3260 C   0  0  0  0  0  0  0  0  0  0  0  0
   23.5869   18.3479   26.5354 N   0  0  0  0  0  0  0  0  0  0  0  0
   23.6360   16.9143   26.8639 C   0  0  0  0  0  0  0  0  0  0  0  0
   24.1063   18.5174   25.6741 H   0  0  0  0  0  0  0  0  0  0  0  0
   24.0040   18.8853   27.2954 H   0  0  0  0  0  0  0  0  0  0  0  0
   20.7923   14.9824   31.5710 O   0  0  0  0  0  0  0  0  0  0  0  0
   19.8809   14.1010   31.1082 C   0  0  0  0  0  0  0  0  0  0  0  0
  7  8  1  0  0  0
  8  1  1  0  0  0
  1  2  2  0  0  0
  1  6  1  0  0  0
  2  3  1  0  0  0
  3  4  2  0  0  0
  4  5  1  0  0  0
  4 11  1  0  0  0
  5  6  2  0  0  0
 11 12  1  0  0  0
  7  9  1  0  0  0
  7 10  1  0  0  0
M  END
> <minimizedAffinity>
-5.24313

$$$$
