4TY7_39F_A_301


 42 46  0  0  0  0  0  0  0  0999 V2000
   41.6316  -21.3689   29.3126 C   0  0  0  0  0  0  0  0  0  0  0  0
   38.9476  -19.0924   28.3931 C   0  0  0  0  0  0  0  0  0  0  0  0
   40.3385  -20.7225   28.8414 C   0  0  0  0  0  0  0  0  0  0  0  0
   38.5499  -20.2652   27.7750 C   0  0  0  0  0  0  0  0  0  0  0  0
   39.4162  -21.2724   28.0886 N   0  0  0  0  0  0  0  0  0  0  0  0
   40.1325  -19.3880   28.9914 N   0  0  0  0  0  0  0  0  0  0  0  0
   37.1551  -20.5878   26.8069 Cl  0  0  0  0  0  0  0  0  0  0  0  0
   39.3603  -22.2145   27.8082 H   0  0  0  0  0  0  0  0  0  0  0  0
   36.6935  -16.1650   28.6643 C   0  0  0  0  0  0  0  0  0  0  0  0
   38.7554  -15.4305   27.5950 C   0  0  0  0  0  0  0  0  0  0  0  0
   39.2365  -16.7455   27.7385 C   0  0  0  0  0  0  0  0  0  0  0  0
   37.1710  -17.4688   28.8563 C   0  0  0  0  0  0  0  0  0  0  0  0
   37.4481  -15.1487   28.0596 C   0  0  0  0  0  0  0  0  0  0  0  0
   38.4516  -17.7461   28.3437 C   0  0  0  0  0  0  0  0  0  0  0  0
   36.5895  -14.0152   28.0910 C   0  0  0  0  0  0  0  0  0  0  0  0
   35.4021  -14.2934   28.6273 N   0  0  0  0  0  0  0  0  0  0  0  0
   35.4915  -15.5897   28.9848 N   0  0  0  0  0  0  0  0  0  0  0  0
   36.9568  -12.8043   27.5958 N   0  0  0  0  0  0  0  0  0  0  0  0
   34.6330  -13.6887   28.7375 H   0  0  0  0  0  0  0  0  0  0  0  0
   36.3314  -12.0451   27.6376 H   0  0  0  0  0  0  0  0  0  0  0  0
   37.8484  -12.6862   27.1952 H   0  0  0  0  0  0  0  0  0  0  0  0
   41.3333  -23.7875   29.5292 C   0  0  0  0  0  0  0  0  0  0  0  0
   41.8001  -22.7161   28.8135 N   0  0  0  0  0  0  0  0  0  0  0  0
   40.7533  -23.6894   30.6168 O   0  0  0  0  0  0  0  0  0  0  0  0
   42.2540  -22.8646   27.9525 H   0  0  0  0  0  0  0  0  0  0  0  0
   43.1566  -25.3443   28.8711 C   0  0  0  0  0  0  0  0  0  0  0  0
   40.8458  -26.2893   29.5215 C   0  0  0  0  0  0  0  0  0  0  0  0
   43.5721  -26.7237   28.3273 C   0  0  0  0  0  0  0  0  0  0  0  0
   41.2634  -27.6438   28.9074 C   0  0  0  0  0  0  0  0  0  0  0  0
   41.6367  -25.1179   28.8917 C   0  0  0  0  0  0  0  0  0  0  0  0
   42.7887  -27.8650   29.0310 C   0  0  0  0  0  0  0  0  0  0  0  0
   43.2145  -29.2414   28.4810 C   0  0  0  0  0  0  0  0  0  0  0  0
   42.6259  -29.4801   27.1892 N   0  0  0  0  0  0  0  0  0  0  0  0
   42.9393  -28.7630   26.5351 H   0  0  0  0  0  0  0  0  0  0  0  0
   41.6094  -29.4481   27.2676 H   0  0  0  0  0  0  0  0  0  0  0  0
   42.8585  -20.4755   28.9643 C   0  0  0  0  0  0  0  0  0  0  0  0
   44.0526  -20.8368   29.8341 C   0  0  0  0  0  0  0  0  0  0  0  0
   46.2163  -21.3889   31.5290 C   0  0  0  0  0  0  0  0  0  0  0  0
   46.4046  -20.5723   30.3953 C   0  0  0  0  0  0  0  0  0  0  0  0
   44.9513  -21.9109   31.8118 C   0  0  0  0  0  0  0  0  0  0  0  0
   45.3182  -20.2951   29.5541 C   0  0  0  0  0  0  0  0  0  0  0  0
   43.8653  -21.6089   30.9900 C   0  0  0  0  0  0  0  0  0  0  0  0
  7  4  1  0  0  0
 29 27  1  0  0  0
 29 31  1  0  0  0
 33 32  1  0  0  0
  5  4  1  0  0  0
  5  3  1  0  0  0
 41 39  2  0  0  0
 41 37  1  0  0  0
 27 30  1  0  0  0
 32 31  1  0  0  0
  4  2  2  0  0  0
 36 37  1  0  0  0
 36  1  1  0  0  0
 39 38  1  0  0  0
 23  1  1  0  0  0
 23 22  1  0  0  0
 31 28  1  0  0  0
 30 22  1  0  0  0
 30 26  1  0  0  0
 37 42  2  0  0  0
  3  1  1  0  0  0
  3  6  2  0  0  0
 28 26  1  0  0  0
 22 24  2  0  0  0
  2  6  1  0  0  0
  2 14  1  0  0  0
 38 40  2  0  0  0
 42 40  1  0  0  0
 12 14  2  0  0  0
 12  9  1  0  0  0
 14 11  1  0  0  0
 17  9  2  0  0  0
 17 16  1  0  0  0
  9 13  1  0  0  0
 11 10  2  0  0  0
 16 15  1  0  0  0
 13 10  1  0  0  0
 13 15  2  0  0  0
 15 18  1  0  0  0
 16 19  1  0  0  0
  5  8  1  0  0  0
 18 20  1  0  0  0
 18 21  1  0  0  0
 33 34  1  0  0  0
 33 35  1  0  0  0
 23 25  1  0  0  0
M  END
> <minimizedAffinity>
-10.32362

$$$$
4TY7_39F_A_301


 42 46  0  0  0  0  0  0  0  0999 V2000
   39.9916  -20.7401   28.7481 C   0  0  0  0  0  0  0  0  0  0  0  0
   43.5831  -20.6525   29.3184 C   0  0  0  0  0  0  0  0  0  0  0  0
   41.4954  -20.5293   28.6708 C   0  0  0  0  0  0  0  0  0  0  0  0
   43.5009  -20.3338   27.9740 C   0  0  0  0  0  0  0  0  0  0  0  0
   42.1920  -20.2374   27.5987 N   0  0  0  0  0  0  0  0  0  0  0  0
   42.2989  -20.8575   29.7161 N   0  0  0  0  0  0  0  0  0  0  0  0
   44.7584  -19.9901   26.8394 Cl  0  0  0  0  0  0  0  0  0  0  0  0
   41.8438  -19.9987   26.7093 H   0  0  0  0  0  0  0  0  0  0  0  0
   47.0258  -20.8873   30.6663 C   0  0  0  0  0  0  0  0  0  0  0  0
   45.5454  -22.1085   32.1668 C   0  0  0  0  0  0  0  0  0  0  0  0
   44.4759  -21.7333   31.3321 C   0  0  0  0  0  0  0  0  0  0  0  0
   45.9690  -20.4665   29.8473 C   0  0  0  0  0  0  0  0  0  0  0  0
   46.8469  -21.6817   31.8086 C   0  0  0  0  0  0  0  0  0  0  0  0
   44.6888  -20.9408   30.1874 C   0  0  0  0  0  0  0  0  0  0  0  0
   48.1618  -21.8452   32.3256 C   0  0  0  0  0  0  0  0  0  0  0  0
   49.0816  -21.2467   31.5700 N   0  0  0  0  0  0  0  0  0  0  0  0
   48.3746  -20.6580   30.5852 N   0  0  0  0  0  0  0  0  0  0  0  0
   48.4226  -22.5613   33.4506 N   0  0  0  0  0  0  0  0  0  0  0  0
   50.0572  -21.2368   31.7014 H   0  0  0  0  0  0  0  0  0  0  0  0
   49.3482  -22.6495   33.7744 H   0  0  0  0  0  0  0  0  0  0  0  0
   47.6861  -22.9918   33.9419 H   0  0  0  0  0  0  0  0  0  0  0  0
   39.1039  -18.4762   29.0175 C   0  0  0  0  0  0  0  0  0  0  0  0
   39.2399  -19.6068   28.2550 N   0  0  0  0  0  0  0  0  0  0  0  0
   39.5951  -18.3420   30.1443 O   0  0  0  0  0  0  0  0  0  0  0  0
   38.8224  -19.6481   27.3644 H   0  0  0  0  0  0  0  0  0  0  0  0
   37.1394  -16.9891   29.3497 C   0  0  0  0  0  0  0  0  0  0  0  0
   39.0706  -16.2275   27.8180 C   0  0  0  0  0  0  0  0  0  0  0  0
   36.2651  -15.8335   28.8288 C   0  0  0  0  0  0  0  0  0  0  0  0
   38.1493  -15.1187   27.2628 C   0  0  0  0  0  0  0  0  0  0  0  0
   38.2496  -17.4145   28.3760 C   0  0  0  0  0  0  0  0  0  0  0  0
   37.1369  -14.6481   28.3326 C   0  0  0  0  0  0  0  0  0  0  0  0
   36.2515  -13.4959   27.8160 C   0  0  0  0  0  0  0  0  0  0  0  0
   37.0595  -12.3946   27.3616 N   0  0  0  0  0  0  0  0  0  0  0  0
   37.6588  -12.7054   26.5970 H   0  0  0  0  0  0  0  0  0  0  0  0
   37.6376  -12.0568   28.1310 H   0  0  0  0  0  0  0  0  0  0  0  0
   39.5769  -22.0557   28.0256 C   0  0  0  0  0  0  0  0  0  0  0  0
   40.3728  -23.2371   28.5584 C   0  0  0  0  0  0  0  0  0  0  0  0
   41.7378  -25.5066   29.4776 C   0  0  0  0  0  0  0  0  0  0  0  0
   40.8101  -24.8583   30.3182 C   0  0  0  0  0  0  0  0  0  0  0  0
   41.9660  -25.0247   28.1859 C   0  0  0  0  0  0  0  0  0  0  0  0
   40.1264  -23.7271   29.8517 C   0  0  0  0  0  0  0  0  0  0  0  0
   41.2621  -23.9169   27.7133 C   0  0  0  0  0  0  0  0  0  0  0  0
  7  4  1  0  0  0
 29 27  1  0  0  0
 29 31  1  0  0  0
 33 32  1  0  0  0
  5  4  1  0  0  0
  5  3  1  0  0  0
 41 39  2  0  0  0
 41 37  1  0  0  0
 27 30  1  0  0  0
 32 31  1  0  0  0
  4  2  2  0  0  0
 36 37  1  0  0  0
 36  1  1  0  0  0
 39 38  1  0  0  0
 23  1  1  0  0  0
 23 22  1  0  0  0
 31 28  1  0  0  0
 30 22  1  0  0  0
 30 26  1  0  0  0
 37 42  2  0  0  0
  3  1  1  0  0  0
  3  6  2  0  0  0
 28 26  1  0  0  0
 22 24  2  0  0  0
  2  6  1  0  0  0
  2 14  1  0  0  0
 38 40  2  0  0  0
 42 40  1  0  0  0
 12 14  2  0  0  0
 12  9  1  0  0  0
 14 11  1  0  0  0
 17  9  2  0  0  0
 17 16  1  0  0  0
  9 13  1  0  0  0
 11 10  2  0  0  0
 16 15  1  0  0  0
 13 10  1  0  0  0
 13 15  2  0  0  0
 15 18  1  0  0  0
 16 19  1  0  0  0
  5  8  1  0  0  0
 18 20  1  0  0  0
 18 21  1  0  0  0
 33 34  1  0  0  0
 33 35  1  0  0  0
 23 25  1  0  0  0
M  END
> <minimizedAffinity>
-10.23429

$$$$
4TY7_39F_A_301


 42 46  0  0  0  0  0  0  0  0999 V2000
   39.9705  -20.2797   28.4143 C   0  0  0  0  0  0  0  0  0  0  0  0
   43.5377  -20.5700   29.0639 C   0  0  0  0  0  0  0  0  0  0  0  0
   41.4896  -20.2686   28.3516 C   0  0  0  0  0  0  0  0  0  0  0  0
   43.5111  -20.4109   27.6892 C   0  0  0  0  0  0  0  0  0  0  0  0
   42.2291  -20.1993   27.2708 N   0  0  0  0  0  0  0  0  0  0  0  0
   42.2337  -20.5634   29.4495 N   0  0  0  0  0  0  0  0  0  0  0  0
   44.8143  -20.3679   26.5549 Cl  0  0  0  0  0  0  0  0  0  0  0  0
   41.9237  -20.0301   26.3504 H   0  0  0  0  0  0  0  0  0  0  0  0
   46.8905  -20.8385   30.6168 C   0  0  0  0  0  0  0  0  0  0  0  0
   45.3268  -22.1195   31.9762 C   0  0  0  0  0  0  0  0  0  0  0  0
   44.3094  -21.7190   31.0898 C   0  0  0  0  0  0  0  0  0  0  0  0
   45.8844  -20.3929   29.7484 C   0  0  0  0  0  0  0  0  0  0  0  0
   46.6453  -21.6745   31.7163 C   0  0  0  0  0  0  0  0  0  0  0  0
   44.5885  -20.8848   29.9900 C   0  0  0  0  0  0  0  0  0  0  0  0
   47.9263  -21.8508   32.3090 C   0  0  0  0  0  0  0  0  0  0  0  0
   48.8877  -21.2214   31.6348 N   0  0  0  0  0  0  0  0  0  0  0  0
   48.2402  -20.6006   30.6291 N   0  0  0  0  0  0  0  0  0  0  0  0
   48.1206  -22.6060   33.4218 N   0  0  0  0  0  0  0  0  0  0  0  0
   49.8531  -21.2121   31.8276 H   0  0  0  0  0  0  0  0  0  0  0  0
   49.0245  -22.7019   33.7999 H   0  0  0  0  0  0  0  0  0  0  0  0
   47.3575  -23.0572   33.8499 H   0  0  0  0  0  0  0  0  0  0  0  0
   39.2870  -18.1856   29.4790 C   0  0  0  0  0  0  0  0  0  0  0  0
   39.3963  -18.9536   28.3492 N   0  0  0  0  0  0  0  0  0  0  0  0
   39.6572  -18.5531   30.6001 O   0  0  0  0  0  0  0  0  0  0  0  0
   39.0813  -18.5998   27.4861 H   0  0  0  0  0  0  0  0  0  0  0  0
   39.1252  -16.2549   27.9210 C   0  0  0  0  0  0  0  0  0  0  0  0
   37.0787  -16.9202   29.3439 C   0  0  0  0  0  0  0  0  0  0  0  0
   38.4320  -14.9357   27.5336 C   0  0  0  0  0  0  0  0  0  0  0  0
   36.4349  -15.5601   28.9948 C   0  0  0  0  0  0  0  0  0  0  0  0
   38.6213  -16.8554   29.2428 C   0  0  0  0  0  0  0  0  0  0  0  0
   36.8865  -15.0720   27.5988 C   0  0  0  0  0  0  0  0  0  0  0  0
   36.2028  -13.7465   27.2064 C   0  0  0  0  0  0  0  0  0  0  0  0
   37.0475  -12.6235   27.5190 N   0  0  0  0  0  0  0  0  0  0  0  0
   37.9211  -12.6998   26.9981 H   0  0  0  0  0  0  0  0  0  0  0  0
   37.2475  -12.6166   28.5192 H   0  0  0  0  0  0  0  0  0  0  0  0
   39.3758  -21.2116   27.3176 C   0  0  0  0  0  0  0  0  0  0  0  0
   38.5541  -20.4120   26.3184 C   0  0  0  0  0  0  0  0  0  0  0  0
   37.0482  -19.0553   24.3818 C   0  0  0  0  0  0  0  0  0  0  0  0
   38.4419  -18.8547   24.4533 C   0  0  0  0  0  0  0  0  0  0  0  0
   36.4229  -19.9374   25.2670 C   0  0  0  0  0  0  0  0  0  0  0  0
   39.1908  -19.5397   25.4201 C   0  0  0  0  0  0  0  0  0  0  0  0
   37.1746  -20.6407   26.2083 C   0  0  0  0  0  0  0  0  0  0  0  0
  7  4  1  0  0  0
 29 27  1  0  0  0
 29 31  1  0  0  0
 33 32  1  0  0  0
  5  4  1  0  0  0
  5  3  1  0  0  0
 41 39  2  0  0  0
 41 37  1  0  0  0
 27 30  1  0  0  0
 32 31  1  0  0  0
  4  2  2  0  0  0
 36 37  1  0  0  0
 36  1  1  0  0  0
 39 38  1  0  0  0
 23  1  1  0  0  0
 23 22  1  0  0  0
 31 28  1  0  0  0
 30 22  1  0  0  0
 30 26  1  0  0  0
 37 42  2  0  0  0
  3  1  1  0  0  0
  3  6  2  0  0  0
 28 26  1  0  0  0
 22 24  2  0  0  0
  2  6  1  0  0  0
  2 14  1  0  0  0
 38 40  2  0  0  0
 42 40  1  0  0  0
 12 14  2  0  0  0
 12  9  1  0  0  0
 14 11  1  0  0  0
 17  9  2  0  0  0
 17 16  1  0  0  0
  9 13  1  0  0  0
 11 10  2  0  0  0
 16 15  1  0  0  0
 13 10  1  0  0  0
 13 15  2  0  0  0
 15 18  1  0  0  0
 16 19  1  0  0  0
  5  8  1  0  0  0
 18 20  1  0  0  0
 18 21  1  0  0  0
 33 34  1  0  0  0
 33 35  1  0  0  0
 23 25  1  0  0  0
M  END
> <minimizedAffinity>
-9.88164

$$$$
4TY7_39F_A_301


 42 46  0  0  0  0  0  0  0  0999 V2000
   42.8471  -20.5168   28.5541 C   0  0  0  0  0  0  0  0  0  0  0  0
   39.9739  -18.6320   27.3609 C   0  0  0  0  0  0  0  0  0  0  0  0
   41.7018  -19.9179   27.7533 C   0  0  0  0  0  0  0  0  0  0  0  0
   40.4977  -19.1296   26.1803 C   0  0  0  0  0  0  0  0  0  0  0  0
   41.5566  -19.9476   26.4503 N   0  0  0  0  0  0  0  0  0  0  0  0
   40.8093  -19.0764   28.3376 N   0  0  0  0  0  0  0  0  0  0  0  0
   39.9551  -18.9180   24.5531 Cl  0  0  0  0  0  0  0  0  0  0  0  0
   42.0981  -20.4539   25.8024 H   0  0  0  0  0  0  0  0  0  0  0  0
   38.1197  -15.4473   27.7405 C   0  0  0  0  0  0  0  0  0  0  0  0
   36.7385  -17.2354   28.6513 C   0  0  0  0  0  0  0  0  0  0  0  0
   37.7539  -18.1371   28.2811 C   0  0  0  0  0  0  0  0  0  0  0  0
   39.1224  -16.3341   27.3244 C   0  0  0  0  0  0  0  0  0  0  0  0
   36.9427  -15.8606   28.3824 C   0  0  0  0  0  0  0  0  0  0  0  0
   38.9280  -17.6904   27.6444 C   0  0  0  0  0  0  0  0  0  0  0  0
   36.2250  -14.6520   28.6001 C   0  0  0  0  0  0  0  0  0  0  0  0
   36.8934  -13.5816   28.1729 N   0  0  0  0  0  0  0  0  0  0  0  0
   38.0246  -14.0838   27.6398 N   0  0  0  0  0  0  0  0  0  0  0  0
   35.0085  -14.6215   29.2047 N   0  0  0  0  0  0  0  0  0  0  0  0
   36.6222  -12.6371   28.2331 H   0  0  0  0  0  0  0  0  0  0  0  0
   34.5455  -13.7627   29.3359 H   0  0  0  0  0  0  0  0  0  0  0  0
   34.5901  -15.4582   29.5114 H   0  0  0  0  0  0  0  0  0  0  0  0
   42.5566  -22.4417   30.0361 C   0  0  0  0  0  0  0  0  0  0  0  0
   42.6981  -21.9396   28.7688 N   0  0  0  0  0  0  0  0  0  0  0  0
   42.5457  -21.7434   31.0565 O   0  0  0  0  0  0  0  0  0  0  0  0
   42.6984  -22.5522   27.9982 H   0  0  0  0  0  0  0  0  0  0  0  0
   41.0072  -24.3783   29.8627 C   0  0  0  0  0  0  0  0  0  0  0  0
   43.4685  -24.6456   29.1374 C   0  0  0  0  0  0  0  0  0  0  0  0
   40.8169  -25.9048   29.7939 C   0  0  0  0  0  0  0  0  0  0  0  0
   43.2694  -26.1775   29.1426 C   0  0  0  0  0  0  0  0  0  0  0  0
   42.4648  -23.9443   30.0834 C   0  0  0  0  0  0  0  0  0  0  0  0
   41.8108  -26.5509   28.7908 C   0  0  0  0  0  0  0  0  0  0  0  0
   41.6096  -28.0786   28.7278 C   0  0  0  0  0  0  0  0  0  0  0  0
   40.2381  -28.4250   28.9945 N   0  0  0  0  0  0  0  0  0  0  0  0
   39.6359  -27.9935   28.2934 H   0  0  0  0  0  0  0  0  0  0  0  0
   39.9764  -28.0883   29.9211 H   0  0  0  0  0  0  0  0  0  0  0  0
   44.2190  -20.1810   27.8985 C   0  0  0  0  0  0  0  0  0  0  0  0
   45.3663  -20.5963   28.8063 C   0  0  0  0  0  0  0  0  0  0  0  0
   47.3970  -21.4782   30.5260 C   0  0  0  0  0  0  0  0  0  0  0  0
   46.4872  -20.4937   30.9625 C   0  0  0  0  0  0  0  0  0  0  0  0
   47.2778  -22.0202   29.2434 C   0  0  0  0  0  0  0  0  0  0  0  0
   45.4705  -20.0601   30.1006 C   0  0  0  0  0  0  0  0  0  0  0  0
   46.2468  -21.6091   28.3985 C   0  0  0  0  0  0  0  0  0  0  0  0
  7  4  1  0  0  0
 29 27  1  0  0  0
 29 31  1  0  0  0
 33 32  1  0  0  0
  5  4  1  0  0  0
  5  3  1  0  0  0
 41 39  2  0  0  0
 41 37  1  0  0  0
 27 30  1  0  0  0
 32 31  1  0  0  0
  4  2  2  0  0  0
 36 37  1  0  0  0
 36  1  1  0  0  0
 39 38  1  0  0  0
 23  1  1  0  0  0
 23 22  1  0  0  0
 31 28  1  0  0  0
 30 22  1  0  0  0
 30 26  1  0  0  0
 37 42  2  0  0  0
  3  1  1  0  0  0
  3  6  2  0  0  0
 28 26  1  0  0  0
 22 24  2  0  0  0
  2  6  1  0  0  0
  2 14  1  0  0  0
 38 40  2  0  0  0
 42 40  1  0  0  0
 12 14  2  0  0  0
 12  9  1  0  0  0
 14 11  1  0  0  0
 17  9  2  0  0  0
 17 16  1  0  0  0
  9 13  1  0  0  0
 11 10  2  0  0  0
 16 15  1  0  0  0
 13 10  1  0  0  0
 13 15  2  0  0  0
 15 18  1  0  0  0
 16 19  1  0  0  0
  5  8  1  0  0  0
 18 20  1  0  0  0
 18 21  1  0  0  0
 33 34  1  0  0  0
 33 35  1  0  0  0
 23 25  1  0  0  0
M  END
> <minimizedAffinity>
-9.78070

$$$$
4TY7_39F_A_301


 42 46  0  0  0  0  0  0  0  0999 V2000
   39.1585  -18.9529   27.0422 C   0  0  0  0  0  0  0  0  0  0  0  0
   42.5422  -20.1695   27.5917 C   0  0  0  0  0  0  0  0  0  0  0  0
   40.5995  -19.4210   26.9146 C   0  0  0  0  0  0  0  0  0  0  0  0
   42.4060  -20.3168   26.2222 C   0  0  0  0  0  0  0  0  0  0  0  0
   41.1998  -19.8209   25.8194 N   0  0  0  0  0  0  0  0  0  0  0  0
   41.3476  -19.6798   28.0188 N   0  0  0  0  0  0  0  0  0  0  0  0
   43.5287  -20.9254   25.0577 Cl  0  0  0  0  0  0  0  0  0  0  0  0
   40.8530  -19.7735   24.8992 H   0  0  0  0  0  0  0  0  0  0  0  0
   44.2010  -21.4101   30.6632 C   0  0  0  0  0  0  0  0  0  0  0  0
   45.9331  -20.6628   29.1220 C   0  0  0  0  0  0  0  0  0  0  0  0
   44.9106  -20.3528   28.2056 C   0  0  0  0  0  0  0  0  0  0  0  0
   43.1715  -21.1495   29.7483 C   0  0  0  0  0  0  0  0  0  0  0  0
   45.5574  -21.1900   30.3810 C   0  0  0  0  0  0  0  0  0  0  0  0
   43.5568  -20.5785   28.5214 C   0  0  0  0  0  0  0  0  0  0  0  0
   46.2283  -21.6012   31.5658 C   0  0  0  0  0  0  0  0  0  0  0  0
   45.3828  -22.0060   32.5126 N   0  0  0  0  0  0  0  0  0  0  0  0
   44.1663  -21.9020   31.9420 N   0  0  0  0  0  0  0  0  0  0  0  0
   47.5796  -21.5486   31.6980 N   0  0  0  0  0  0  0  0  0  0  0  0
   45.5980  -22.3120   33.4232 H   0  0  0  0  0  0  0  0  0  0  0  0
   48.0041  -21.8433   32.5360 H   0  0  0  0  0  0  0  0  0  0  0  0
   48.1342  -21.2158   30.9558 H   0  0  0  0  0  0  0  0  0  0  0  0
   37.2067  -19.5886   25.7110 C   0  0  0  0  0  0  0  0  0  0  0  0
   38.2052  -19.9387   26.5819 N   0  0  0  0  0  0  0  0  0  0  0  0
   37.0490  -18.4452   25.2675 O   0  0  0  0  0  0  0  0  0  0  0  0
   38.2743  -20.8689   26.8969 H   0  0  0  0  0  0  0  0  0  0  0  0
   35.8649  -20.6315   23.8963 C   0  0  0  0  0  0  0  0  0  0  0  0
   36.8299  -22.1084   25.7786 C   0  0  0  0  0  0  0  0  0  0  0  0
   34.9865  -21.8036   23.4214 C   0  0  0  0  0  0  0  0  0  0  0  0
   35.8885  -23.2458   25.3239 C   0  0  0  0  0  0  0  0  0  0  0  0
   36.2736  -20.7221   25.3749 C   0  0  0  0  0  0  0  0  0  0  0  0
   35.6172  -23.1702   23.8036 C   0  0  0  0  0  0  0  0  0  0  0  0
   34.7311  -24.3364   23.3209 C   0  0  0  0  0  0  0  0  0  0  0  0
   34.3734  -25.1952   24.4193 N   0  0  0  0  0  0  0  0  0  0  0  0
   33.8497  -24.6606   25.1123 H   0  0  0  0  0  0  0  0  0  0  0  0
   35.2200  -25.5698   24.8477 H   0  0  0  0  0  0  0  0  0  0  0  0
   38.8487  -18.4986   28.4990 C   0  0  0  0  0  0  0  0  0  0  0  0
   38.1382  -17.1539   28.5047 C   0  0  0  0  0  0  0  0  0  0  0  0
   36.7645  -14.7131   28.3841 C   0  0  0  0  0  0  0  0  0  0  0  0
   38.0853  -14.7989   27.8986 C   0  0  0  0  0  0  0  0  0  0  0  0
   36.1395  -15.8458   28.9127 C   0  0  0  0  0  0  0  0  0  0  0  0
   38.7657  -16.0230   27.9564 C   0  0  0  0  0  0  0  0  0  0  0  0
   36.8080  -17.0698   28.9413 C   0  0  0  0  0  0  0  0  0  0  0  0
  7  4  1  0  0  0
 29 27  1  0  0  0
 29 31  1  0  0  0
 33 32  1  0  0  0
  5  4  1  0  0  0
  5  3  1  0  0  0
 41 39  2  0  0  0
 41 37  1  0  0  0
 27 30  1  0  0  0
 32 31  1  0  0  0
  4  2  2  0  0  0
 36 37  1  0  0  0
 36  1  1  0  0  0
 39 38  1  0  0  0
 23  1  1  0  0  0
 23 22  1  0  0  0
 31 28  1  0  0  0
 30 22  1  0  0  0
 30 26  1  0  0  0
 37 42  2  0  0  0
  3  1  1  0  0  0
  3  6  2  0  0  0
 28 26  1  0  0  0
 22 24  2  0  0  0
  2  6  1  0  0  0
  2 14  1  0  0  0
 38 40  2  0  0  0
 42 40  1  0  0  0
 12 14  2  0  0  0
 12  9  1  0  0  0
 14 11  1  0  0  0
 17  9  2  0  0  0
 17 16  1  0  0  0
  9 13  1  0  0  0
 11 10  2  0  0  0
 16 15  1  0  0  0
 13 10  1  0  0  0
 13 15  2  0  0  0
 15 18  1  0  0  0
 16 19  1  0  0  0
  5  8  1  0  0  0
 18 20  1  0  0  0
 18 21  1  0  0  0
 33 34  1  0  0  0
 33 35  1  0  0  0
 23 25  1  0  0  0
M  END
> <minimizedAffinity>
-9.53254

$$$$
4TY7_39F_A_301


 42 46  0  0  0  0  0  0  0  0999 V2000
   41.2083  -21.1576   27.8920 C   0  0  0  0  0  0  0  0  0  0  0  0
   39.4752  -18.0764   27.0352 C   0  0  0  0  0  0  0  0  0  0  0  0
   40.5840  -19.9571   27.1986 C   0  0  0  0  0  0  0  0  0  0  0  0
   40.2073  -18.3198   25.8860 C   0  0  0  0  0  0  0  0  0  0  0  0
   40.8693  -19.5081   26.0000 N   0  0  0  0  0  0  0  0  0  0  0  0
   39.8006  -19.0857   27.8864 N   0  0  0  0  0  0  0  0  0  0  0  0
   40.2997  -17.4102   24.4194 Cl  0  0  0  0  0  0  0  0  0  0  0  0
   41.4413  -19.9381   25.3238 H   0  0  0  0  0  0  0  0  0  0  0  0
   36.6834  -16.0917   28.4461 C   0  0  0  0  0  0  0  0  0  0  0  0
   38.2892  -14.5424   27.4687 C   0  0  0  0  0  0  0  0  0  0  0  0
   39.0832  -15.6565   27.1375 C   0  0  0  0  0  0  0  0  0  0  0  0
   37.4799  -17.2102   28.1645 C   0  0  0  0  0  0  0  0  0  0  0  0
   37.0574  -14.7782   28.1254 C   0  0  0  0  0  0  0  0  0  0  0  0
   38.6766  -16.9642   27.4665 C   0  0  0  0  0  0  0  0  0  0  0  0
   35.9768  -13.9851   28.6010 C   0  0  0  0  0  0  0  0  0  0  0  0
   35.0038  -14.7220   29.1351 N   0  0  0  0  0  0  0  0  0  0  0  0
   35.4575  -15.9881   29.0502 N   0  0  0  0  0  0  0  0  0  0  0  0
   35.9548  -12.6315   28.4838 N   0  0  0  0  0  0  0  0  0  0  0  0
   34.1469  -14.4117   29.5076 H   0  0  0  0  0  0  0  0  0  0  0  0
   35.1866  -12.1201   28.8269 H   0  0  0  0  0  0  0  0  0  0  0  0
   36.7070  -12.1622   28.0559 H   0  0  0  0  0  0  0  0  0  0  0  0
   43.6317  -21.4579   27.7412 C   0  0  0  0  0  0  0  0  0  0  0  0
   42.5495  -20.8967   28.3671 N   0  0  0  0  0  0  0  0  0  0  0  0
   43.5489  -22.2032   26.7580 O   0  0  0  0  0  0  0  0  0  0  0  0
   42.6859  -20.3110   29.1467 H   0  0  0  0  0  0  0  0  0  0  0  0
   44.6948  -20.5566   29.8000 C   0  0  0  0  0  0  0  0  0  0  0  0
   45.9527  -22.3000   28.3739 C   0  0  0  0  0  0  0  0  0  0  0  0
   45.9820  -20.2731   30.5961 C   0  0  0  0  0  0  0  0  0  0  0  0
   47.2456  -21.9474   29.1423 C   0  0  0  0  0  0  0  0  0  0  0  0
   44.9472  -21.1241   28.3943 C   0  0  0  0  0  0  0  0  0  0  0  0
   46.9300  -21.5030   30.5893 C   0  0  0  0  0  0  0  0  0  0  0  0
   48.2140  -21.2091   31.3914 C   0  0  0  0  0  0  0  0  0  0  0  0
   48.6496  -22.3803   32.1060 N   0  0  0  0  0  0  0  0  0  0  0  0
   48.8508  -23.1283   31.4424 H   0  0  0  0  0  0  0  0  0  0  0  0
   47.9142  -22.6816   32.7453 H   0  0  0  0  0  0  0  0  0  0  0  0
   40.2902  -21.6776   29.0371 C   0  0  0  0  0  0  0  0  0  0  0  0
   40.2307  -23.1973   29.0323 C   0  0  0  0  0  0  0  0  0  0  0  0
   40.2704  -26.0002   29.0009 C   0  0  0  0  0  0  0  0  0  0  0  0
   39.9808  -25.2900   27.8180 C   0  0  0  0  0  0  0  0  0  0  0  0
   40.5484  -25.3068   30.1819 C   0  0  0  0  0  0  0  0  0  0  0  0
   39.9675  -23.8885   27.8380 C   0  0  0  0  0  0  0  0  0  0  0  0
   40.5643  -23.9120   30.1921 C   0  0  0  0  0  0  0  0  0  0  0  0
  7  4  1  0  0  0
 29 27  1  0  0  0
 29 31  1  0  0  0
 33 32  1  0  0  0
  5  4  1  0  0  0
  5  3  1  0  0  0
 41 39  2  0  0  0
 41 37  1  0  0  0
 27 30  1  0  0  0
 32 31  1  0  0  0
  4  2  2  0  0  0
 36 37  1  0  0  0
 36  1  1  0  0  0
 39 38  1  0  0  0
 23  1  1  0  0  0
 23 22  1  0  0  0
 31 28  1  0  0  0
 30 22  1  0  0  0
 30 26  1  0  0  0
 37 42  2  0  0  0
  3  1  1  0  0  0
  3  6  2  0  0  0
 28 26  1  0  0  0
 22 24  2  0  0  0
  2  6  1  0  0  0
  2 14  1  0  0  0
 38 40  2  0  0  0
 42 40  1  0  0  0
 12 14  2  0  0  0
 12  9  1  0  0  0
 14 11  1  0  0  0
 17  9  2  0  0  0
 17 16  1  0  0  0
  9 13  1  0  0  0
 11 10  2  0  0  0
 16 15  1  0  0  0
 13 10  1  0  0  0
 13 15  2  0  0  0
 15 18  1  0  0  0
 16 19  1  0  0  0
  5  8  1  0  0  0
 18 20  1  0  0  0
 18 21  1  0  0  0
 33 34  1  0  0  0
 33 35  1  0  0  0
 23 25  1  0  0  0
M  END
> <minimizedAffinity>
-9.30042

$$$$
4TY7_39F_A_301


 42 46  0  0  0  0  0  0  0  0999 V2000
   40.3287  -22.9263   28.1359 C   0  0  0  0  0  0  0  0  0  0  0  0
   38.3396  -19.9429   27.5243 C   0  0  0  0  0  0  0  0  0  0  0  0
   39.2588  -21.9169   27.7510 C   0  0  0  0  0  0  0  0  0  0  0  0
   37.6867  -20.8840   26.7473 C   0  0  0  0  0  0  0  0  0  0  0  0
   38.2599  -22.1103   26.9236 N   0  0  0  0  0  0  0  0  0  0  0  0
   39.3873  -20.6057   28.0831 N   0  0  0  0  0  0  0  0  0  0  0  0
   36.2964  -20.7115   25.7353 Cl  0  0  0  0  0  0  0  0  0  0  0  0
   37.9816  -22.9618   26.5152 H   0  0  0  0  0  0  0  0  0  0  0  0
   36.9600  -16.6129   28.3801 C   0  0  0  0  0  0  0  0  0  0  0  0
   38.9720  -16.2744   27.0493 C   0  0  0  0  0  0  0  0  0  0  0  0
   39.1197  -17.6737   27.0122 C   0  0  0  0  0  0  0  0  0  0  0  0
   37.1137  -18.0061   28.3921 C   0  0  0  0  0  0  0  0  0  0  0  0
   37.8560  -15.7438   27.7400 C   0  0  0  0  0  0  0  0  0  0  0  0
   38.1987  -18.5206   27.6587 C   0  0  0  0  0  0  0  0  0  0  0  0
   37.3253  -14.4494   27.9968 C   0  0  0  0  0  0  0  0  0  0  0  0
   36.1922  -14.4957   28.6960 N   0  0  0  0  0  0  0  0  0  0  0  0
   35.9991  -15.8080   28.9344 N   0  0  0  0  0  0  0  0  0  0  0  0
   37.9150  -13.3128   27.5421 N   0  0  0  0  0  0  0  0  0  0  0  0
   35.6242  -13.7417   28.9753 H   0  0  0  0  0  0  0  0  0  0  0  0
   37.5142  -12.4362   27.7426 H   0  0  0  0  0  0  0  0  0  0  0  0
   38.7430  -13.3658   27.0123 H   0  0  0  0  0  0  0  0  0  0  0  0
   42.7034  -22.3617   28.3027 C   0  0  0  0  0  0  0  0  0  0  0  0
   41.4419  -22.3248   28.8369 N   0  0  0  0  0  0  0  0  0  0  0  0
   42.9777  -22.8925   27.2202 O   0  0  0  0  0  0  0  0  0  0  0  0
   41.2920  -21.8851   29.7050 H   0  0  0  0  0  0  0  0  0  0  0  0
   43.8407  -22.5102   30.5086 C   0  0  0  0  0  0  0  0  0  0  0  0
   45.1163  -21.5595   28.4777 C   0  0  0  0  0  0  0  0  0  0  0  0
   44.9545  -22.0107   31.4471 C   0  0  0  0  0  0  0  0  0  0  0  0
   46.1851  -21.0096   29.4480 C   0  0  0  0  0  0  0  0  0  0  0  0
   43.7512  -21.7350   29.1847 C   0  0  0  0  0  0  0  0  0  0  0  0
   46.3128  -21.9052   30.7019 C   0  0  0  0  0  0  0  0  0  0  0  0
   47.4211  -21.4070   31.6516 C   0  0  0  0  0  0  0  0  0  0  0  0
   47.7610  -22.4198   32.6164 N   0  0  0  0  0  0  0  0  0  0  0  0
   48.1034  -23.2496   32.1320 H   0  0  0  0  0  0  0  0  0  0  0  0
   46.9334  -22.6616   33.1614 H   0  0  0  0  0  0  0  0  0  0  0  0
   39.7146  -24.1044   28.9482 C   0  0  0  0  0  0  0  0  0  0  0  0
   40.3331  -25.4288   28.5281 C   0  0  0  0  0  0  0  0  0  0  0  0
   41.3339  -27.9277   27.7453 C   0  0  0  0  0  0  0  0  0  0  0  0
   41.2440  -27.6065   29.1151 C   0  0  0  0  0  0  0  0  0  0  0  0
   40.9137  -27.0062   26.7824 C   0  0  0  0  0  0  0  0  0  0  0  0
   40.7378  -26.3577   29.5012 C   0  0  0  0  0  0  0  0  0  0  0  0
   40.3822  -25.7761   27.1701 C   0  0  0  0  0  0  0  0  0  0  0  0
  7  4  1  0  0  0
 29 27  1  0  0  0
 29 31  1  0  0  0
 33 32  1  0  0  0
  5  4  1  0  0  0
  5  3  1  0  0  0
 41 39  2  0  0  0
 41 37  1  0  0  0
 27 30  1  0  0  0
 32 31  1  0  0  0
  4  2  2  0  0  0
 36 37  1  0  0  0
 36  1  1  0  0  0
 39 38  1  0  0  0
 23  1  1  0  0  0
 23 22  1  0  0  0
 31 28  1  0  0  0
 30 22  1  0  0  0
 30 26  1  0  0  0
 37 42  2  0  0  0
  3  1  1  0  0  0
  3  6  2  0  0  0
 28 26  1  0  0  0
 22 24  2  0  0  0
  2  6  1  0  0  0
  2 14  1  0  0  0
 38 40  2  0  0  0
 42 40  1  0  0  0
 12 14  2  0  0  0
 12  9  1  0  0  0
 14 11  1  0  0  0
 17  9  2  0  0  0
 17 16  1  0  0  0
  9 13  1  0  0  0
 11 10  2  0  0  0
 16 15  1  0  0  0
 13 10  1  0  0  0
 13 15  2  0  0  0
 15 18  1  0  0  0
 16 19  1  0  0  0
  5  8  1  0  0  0
 18 20  1  0  0  0
 18 21  1  0  0  0
 33 34  1  0  0  0
 33 35  1  0  0  0
 23 25  1  0  0  0
M  END
> <minimizedAffinity>
-8.89583

$$$$
4TY7_39F_A_301


 42 46  0  0  0  0  0  0  0  0999 V2000
   40.9264  -21.3574   25.9126 C   0  0  0  0  0  0  0  0  0  0  0  0
   38.3677  -18.7747   26.0314 C   0  0  0  0  0  0  0  0  0  0  0  0
   39.6774  -20.5059   25.7484 C   0  0  0  0  0  0  0  0  0  0  0  0
   37.9484  -19.5410   24.9578 C   0  0  0  0  0  0  0  0  0  0  0  0
   38.7631  -20.6270   24.8160 N   0  0  0  0  0  0  0  0  0  0  0  0
   39.5173  -19.3603   26.4610 N   0  0  0  0  0  0  0  0  0  0  0  0
   36.5790  -19.3403   23.9228 Cl  0  0  0  0  0  0  0  0  0  0  0  0
   38.6815  -21.3499   24.1527 H   0  0  0  0  0  0  0  0  0  0  0  0
   36.5932  -16.2601   28.0937 C   0  0  0  0  0  0  0  0  0  0  0  0
   37.8175  -15.0762   26.3519 C   0  0  0  0  0  0  0  0  0  0  0  0
   38.2951  -16.3250   25.9118 C   0  0  0  0  0  0  0  0  0  0  0  0
   37.0926  -17.5088   27.6984 C   0  0  0  0  0  0  0  0  0  0  0  0
   36.9367  -15.0566   27.4600 C   0  0  0  0  0  0  0  0  0  0  0  0
   37.9259  -17.5171   26.5647 C   0  0  0  0  0  0  0  0  0  0  0  0
   36.2240  -14.0657   28.1903 C   0  0  0  0  0  0  0  0  0  0  0  0
   35.4790  -14.5902   29.1623 N   0  0  0  0  0  0  0  0  0  0  0  0
   35.7306  -15.9127   29.1005 N   0  0  0  0  0  0  0  0  0  0  0  0
   36.2929  -12.7426   27.8885 N   0  0  0  0  0  0  0  0  0  0  0  0
   34.8800  -14.1183   29.7850 H   0  0  0  0  0  0  0  0  0  0  0  0
   35.7831  -12.0892   28.4200 H   0  0  0  0  0  0  0  0  0  0  0  0
   36.8527  -12.4372   27.1384 H   0  0  0  0  0  0  0  0  0  0  0  0
   42.7526  -20.5343   27.3173 C   0  0  0  0  0  0  0  0  0  0  0  0
   41.5542  -21.1895   27.2050 N   0  0  0  0  0  0  0  0  0  0  0  0
   43.3675  -20.0536   26.3582 O   0  0  0  0  0  0  0  0  0  0  0  0
   41.1170  -21.5489   28.0105 H   0  0  0  0  0  0  0  0  0  0  0  0
   42.7513  -21.6965   29.5152 C   0  0  0  0  0  0  0  0  0  0  0  0
   44.8287  -20.3525   28.7847 C   0  0  0  0  0  0  0  0  0  0  0  0
   43.3186  -21.8054   30.9425 C   0  0  0  0  0  0  0  0  0  0  0  0
   45.3422  -20.4179   30.2401 C   0  0  0  0  0  0  0  0  0  0  0  0
   43.2890  -20.4937   28.7241 C   0  0  0  0  0  0  0  0  0  0  0  0
   44.8688  -21.7127   30.9403 C   0  0  0  0  0  0  0  0  0  0  0  0
   45.4261  -21.8257   32.3738 C   0  0  0  0  0  0  0  0  0  0  0  0
   46.8243  -22.1674   32.3531 N   0  0  0  0  0  0  0  0  0  0  0  0
   47.3450  -21.4397   31.8636 H   0  0  0  0  0  0  0  0  0  0  0  0
   46.9496  -23.0577   31.8714 H   0  0  0  0  0  0  0  0  0  0  0  0
   40.6201  -22.8556   25.6192 C   0  0  0  0  0  0  0  0  0  0  0  0
   40.9752  -23.7229   26.8170 C   0  0  0  0  0  0  0  0  0  0  0  0
   41.5925  -25.4429   28.9430 C   0  0  0  0  0  0  0  0  0  0  0  0
   40.3149  -24.8515   28.8681 C   0  0  0  0  0  0  0  0  0  0  0  0
   42.5430  -25.1806   27.9528 C   0  0  0  0  0  0  0  0  0  0  0  0
   40.0098  -23.9964   27.8001 C   0  0  0  0  0  0  0  0  0  0  0  0
   42.2268  -24.3534   26.8750 C   0  0  0  0  0  0  0  0  0  0  0  0
  7  4  1  0  0  0
 29 27  1  0  0  0
 29 31  1  0  0  0
 33 32  1  0  0  0
  5  4  1  0  0  0
  5  3  1  0  0  0
 41 39  2  0  0  0
 41 37  1  0  0  0
 27 30  1  0  0  0
 32 31  1  0  0  0
  4  2  2  0  0  0
 36 37  1  0  0  0
 36  1  1  0  0  0
 39 38  1  0  0  0
 23  1  1  0  0  0
 23 22  1  0  0  0
 31 28  1  0  0  0
 30 22  1  0  0  0
 30 26  1  0  0  0
 37 42  2  0  0  0
  3  1  1  0  0  0
  3  6  2  0  0  0
 28 26  1  0  0  0
 22 24  2  0  0  0
  2  6  1  0  0  0
  2 14  1  0  0  0
 38 40  2  0  0  0
 42 40  1  0  0  0
 12 14  2  0  0  0
 12  9  1  0  0  0
 14 11  1  0  0  0
 17  9  2  0  0  0
 17 16  1  0  0  0
  9 13  1  0  0  0
 11 10  2  0  0  0
 16 15  1  0  0  0
 13 10  1  0  0  0
 13 15  2  0  0  0
 15 18  1  0  0  0
 16 19  1  0  0  0
  5  8  1  0  0  0
 18 20  1  0  0  0
 18 21  1  0  0  0
 33 34  1  0  0  0
 33 35  1  0  0  0
 23 25  1  0  0  0
M  END
> <minimizedAffinity>
-8.78693

$$$$
4TY7_39F_A_301


 42 46  0  0  0  0  0  0  0  0999 V2000
   38.8794  -20.3622   25.6510 C   0  0  0  0  0  0  0  0  0  0  0  0
   41.9149  -21.5088   27.2950 C   0  0  0  0  0  0  0  0  0  0  0  0
   40.2075  -21.0032   26.0214 C   0  0  0  0  0  0  0  0  0  0  0  0
   41.8503  -22.3505   26.1982 C   0  0  0  0  0  0  0  0  0  0  0  0
   40.7949  -22.0012   25.4061 N   0  0  0  0  0  0  0  0  0  0  0  0
   40.8109  -20.7199   27.2054 N   0  0  0  0  0  0  0  0  0  0  0  0
   42.9133  -23.6257   25.7179 Cl  0  0  0  0  0  0  0  0  0  0  0  0
   40.5301  -22.4125   24.5517 H   0  0  0  0  0  0  0  0  0  0  0  0
   44.7648  -20.7796   29.5469 C   0  0  0  0  0  0  0  0  0  0  0  0
   43.2962  -22.3592   30.6792 C   0  0  0  0  0  0  0  0  0  0  0  0
   42.4494  -22.2962   29.5565 C   0  0  0  0  0  0  0  0  0  0  0  0
   43.9132  -20.6691   28.4390 C   0  0  0  0  0  0  0  0  0  0  0  0
   44.4844  -21.5900   30.6571 C   0  0  0  0  0  0  0  0  0  0  0  0
   42.7623  -21.4783   28.4535 C   0  0  0  0  0  0  0  0  0  0  0  0
   45.5918  -21.3824   31.5252 C   0  0  0  0  0  0  0  0  0  0  0  0
   46.4963  -20.5546   31.0040 N   0  0  0  0  0  0  0  0  0  0  0  0
   45.9699  -20.1864   29.8193 N   0  0  0  0  0  0  0  0  0  0  0  0
   45.7009  -21.9960   32.7327 N   0  0  0  0  0  0  0  0  0  0  0  0
   47.3551  -20.2750   31.3958 H   0  0  0  0  0  0  0  0  0  0  0  0
   46.4846  -21.8242   33.3032 H   0  0  0  0  0  0  0  0  0  0  0  0
   44.9961  -22.6124   33.0371 H   0  0  0  0  0  0  0  0  0  0  0  0
   38.0235  -18.8871   27.4053 C   0  0  0  0  0  0  0  0  0  0  0  0
   38.7098  -19.0474   26.2300 N   0  0  0  0  0  0  0  0  0  0  0  0
   37.5148  -19.8194   28.0386 O   0  0  0  0  0  0  0  0  0  0  0  0
   39.0906  -18.2613   25.7759 H   0  0  0  0  0  0  0  0  0  0  0  0
   37.6978  -16.5555   26.6062 C   0  0  0  0  0  0  0  0  0  0  0  0
   36.8266  -17.2382   28.9366 C   0  0  0  0  0  0  0  0  0  0  0  0
   37.4580  -15.0730   26.9465 C   0  0  0  0  0  0  0  0  0  0  0  0
   36.6600  -15.7406   29.2769 C   0  0  0  0  0  0  0  0  0  0  0  0
   37.8969  -17.4505   27.8395 C   0  0  0  0  0  0  0  0  0  0  0  0
   36.3381  -14.9140   28.0104 C   0  0  0  0  0  0  0  0  0  0  0  0
   36.1045  -13.4260   28.3414 C   0  0  0  0  0  0  0  0  0  0  0  0
   36.5894  -12.5839   27.2794 N   0  0  0  0  0  0  0  0  0  0  0  0
   36.0901  -12.8024   26.4173 H   0  0  0  0  0  0  0  0  0  0  0  0
   37.5873  -12.7468   27.1450 H   0  0  0  0  0  0  0  0  0  0  0  0
   38.6885  -20.3324   24.1059 C   0  0  0  0  0  0  0  0  0  0  0  0
   37.2629  -20.7074   23.7317 C   0  0  0  0  0  0  0  0  0  0  0  0
   34.5879  -21.3260   23.1653 C   0  0  0  0  0  0  0  0  0  0  0  0
   35.3867  -22.2492   23.8705 C   0  0  0  0  0  0  0  0  0  0  0  0
   35.1267  -20.1016   22.7611 C   0  0  0  0  0  0  0  0  0  0  0  0
   36.7221  -21.9327   24.1557 C   0  0  0  0  0  0  0  0  0  0  0  0
   36.4469  -19.7763   23.0726 C   0  0  0  0  0  0  0  0  0  0  0  0
  7  4  1  0  0  0
 29 27  1  0  0  0
 29 31  1  0  0  0
 33 32  1  0  0  0
  5  4  1  0  0  0
  5  3  1  0  0  0
 41 39  2  0  0  0
 41 37  1  0  0  0
 27 30  1  0  0  0
 32 31  1  0  0  0
  4  2  2  0  0  0
 36 37  1  0  0  0
 36  1  1  0  0  0
 39 38  1  0  0  0
 23  1  1  0  0  0
 23 22  1  0  0  0
 31 28  1  0  0  0
 30 22  1  0  0  0
 30 26  1  0  0  0
 37 42  2  0  0  0
  3  1  1  0  0  0
  3  6  2  0  0  0
 28 26  1  0  0  0
 22 24  2  0  0  0
  2  6  1  0  0  0
  2 14  1  0  0  0
 38 40  2  0  0  0
 42 40  1  0  0  0
 12 14  2  0  0  0
 12  9  1  0  0  0
 14 11  1  0  0  0
 17  9  2  0  0  0
 17 16  1  0  0  0
  9 13  1  0  0  0
 11 10  2  0  0  0
 16 15  1  0  0  0
 13 10  1  0  0  0
 13 15  2  0  0  0
 15 18  1  0  0  0
 16 19  1  0  0  0
  5  8  1  0  0  0
 18 20  1  0  0  0
 18 21  1  0  0  0
 33 34  1  0  0  0
 33 35  1  0  0  0
 23 25  1  0  0  0
M  END
> <minimizedAffinity>
-8.73708

$$$$
4TY7_39F_A_301


 42 46  0  0  0  0  0  0  0  0999 V2000
   39.4723  -23.7276   26.4566 C   0  0  0  0  0  0  0  0  0  0  0  0
   37.7924  -20.5013   26.4579 C   0  0  0  0  0  0  0  0  0  0  0  0
   38.4981  -22.5688   26.3157 C   0  0  0  0  0  0  0  0  0  0  0  0
   36.9853  -21.2416   25.6116 C   0  0  0  0  0  0  0  0  0  0  0  0
   37.4283  -22.5317   25.5581 N   0  0  0  0  0  0  0  0  0  0  0  0
   38.7957  -21.3437   26.8223 N   0  0  0  0  0  0  0  0  0  0  0  0
   35.5557  -20.7771   24.7588 Cl  0  0  0  0  0  0  0  0  0  0  0  0
   37.0283  -23.2781   25.0559 H   0  0  0  0  0  0  0  0  0  0  0  0
   37.8507  -17.3801   28.4527 C   0  0  0  0  0  0  0  0  0  0  0  0
   37.6046  -16.7696   26.1073 C   0  0  0  0  0  0  0  0  0  0  0  0
   37.6642  -18.1415   25.7982 C   0  0  0  0  0  0  0  0  0  0  0  0
   37.9564  -18.7472   28.1618 C   0  0  0  0  0  0  0  0  0  0  0  0
   37.6870  -16.3929   27.4694 C   0  0  0  0  0  0  0  0  0  0  0  0
   37.8216  -19.1096   26.8090 C   0  0  0  0  0  0  0  0  0  0  0  0
   37.6450  -15.1761   28.2047 C   0  0  0  0  0  0  0  0  0  0  0  0
   37.7367  -15.3746   29.5190 N   0  0  0  0  0  0  0  0  0  0  0  0
   37.8800  -16.7084   29.6471 N   0  0  0  0  0  0  0  0  0  0  0  0
   37.4982  -13.9644   27.6076 N   0  0  0  0  0  0  0  0  0  0  0  0
   37.7066  -14.6994   30.2348 H   0  0  0  0  0  0  0  0  0  0  0  0
   37.4741  -13.1459   28.1543 H   0  0  0  0  0  0  0  0  0  0  0  0
   37.4159  -13.9049   26.6284 H   0  0  0  0  0  0  0  0  0  0  0  0
   41.8205  -23.1850   26.8774 C   0  0  0  0  0  0  0  0  0  0  0  0
   40.5632  -23.4371   27.3609 N   0  0  0  0  0  0  0  0  0  0  0  0
   42.1092  -23.1863   25.6750 O   0  0  0  0  0  0  0  0  0  0  0  0
   40.4012  -23.4203   28.3319 H   0  0  0  0  0  0  0  0  0  0  0  0
   42.8645  -21.4638   28.3365 C   0  0  0  0  0  0  0  0  0  0  0  0
   42.6809  -23.8992   29.1678 C   0  0  0  0  0  0  0  0  0  0  0  0
   43.8128  -21.1326   29.5035 C   0  0  0  0  0  0  0  0  0  0  0  0
   43.6872  -23.5576   30.2890 C   0  0  0  0  0  0  0  0  0  0  0  0
   42.8466  -22.9524   27.9552 C   0  0  0  0  0  0  0  0  0  0  0  0
   43.5672  -22.0755   30.7128 C   0  0  0  0  0  0  0  0  0  0  0  0
   44.5199  -21.7332   31.8762 C   0  0  0  0  0  0  0  0  0  0  0  0
   45.0363  -22.9318   32.4835 N   0  0  0  0  0  0  0  0  0  0  0  0
   45.5579  -23.4670   31.7894 H   0  0  0  0  0  0  0  0  0  0  0  0
   44.2624  -23.4950   32.8359 H   0  0  0  0  0  0  0  0  0  0  0  0
   38.7278  -25.0331   26.8642 C   0  0  0  0  0  0  0  0  0  0  0  0
   38.5310  -25.9400   25.6593 C   0  0  0  0  0  0  0  0  0  0  0  0
   38.1660  -27.4886   23.3511 C   0  0  0  0  0  0  0  0  0  0  0  0
   37.0498  -27.1078   24.1235 C   0  0  0  0  0  0  0  0  0  0  0  0
   39.4488  -27.0841   23.7302 C   0  0  0  0  0  0  0  0  0  0  0  0
   37.2374  -26.3290   25.2737 C   0  0  0  0  0  0  0  0  0  0  0  0
   39.6299  -26.2838   24.8583 C   0  0  0  0  0  0  0  0  0  0  0  0
  7  4  1  0  0  0
 29 27  1  0  0  0
 29 31  1  0  0  0
 33 32  1  0  0  0
  5  4  1  0  0  0
  5  3  1  0  0  0
 41 39  2  0  0  0
 41 37  1  0  0  0
 27 30  1  0  0  0
 32 31  1  0  0  0
  4  2  2  0  0  0
 36 37  1  0  0  0
 36  1  1  0  0  0
 39 38  1  0  0  0
 23  1  1  0  0  0
 23 22  1  0  0  0
 31 28  1  0  0  0
 30 22  1  0  0  0
 30 26  1  0  0  0
 37 42  2  0  0  0
  3  1  1  0  0  0
  3  6  2  0  0  0
 28 26  1  0  0  0
 22 24  2  0  0  0
  2  6  1  0  0  0
  2 14  1  0  0  0
 38 40  2  0  0  0
 42 40  1  0  0  0
 12 14  2  0  0  0
 12  9  1  0  0  0
 14 11  1  0  0  0
 17  9  2  0  0  0
 17 16  1  0  0  0
  9 13  1  0  0  0
 11 10  2  0  0  0
 16 15  1  0  0  0
 13 10  1  0  0  0
 13 15  2  0  0  0
 15 18  1  0  0  0
 16 19  1  0  0  0
  5  8  1  0  0  0
 18 20  1  0  0  0
 18 21  1  0  0  0
 33 34  1  0  0  0
 33 35  1  0  0  0
 23 25  1  0  0  0
M  END
> <minimizedAffinity>
-8.73689

$$$$
