4B2I_LZ1_A_1351


 10 11  0  0  0  0  0  0  0  0999 V2000
   19.1231    7.4862   -2.0046 C   0  0  0  0  0  0  0  0  0  0  0  0
   20.1343    6.6606   -2.4713 C   0  0  0  0  0  0  0  0  0  0  0  0
   20.0039    5.2793   -2.4266 C   0  0  0  0  0  0  0  0  0  0  0  0
   18.8362    4.7320   -1.9020 C   0  0  0  0  0  0  0  0  0  0  0  0
   17.8237    5.5580   -1.4467 C   0  0  0  0  0  0  0  0  0  0  0  0
   17.9539    6.9363   -1.4933 C   0  0  0  0  0  0  0  0  0  0  0  0
   19.5382    8.7370   -2.1867 N   0  0  0  0  0  0  0  0  0  0  0  0
   21.0974    7.4709   -2.8907 C   0  0  0  0  0  0  0  0  0  0  0  0
   20.6678    8.7183   -2.6974 N   0  0  0  0  0  0  0  0  0  0  0  0
   19.0301    9.5473   -1.9533 H   0  0  0  0  0  0  0  0  0  0  0  0
  1  2  1  0  0  0
  1  6  2  0  0  0
  1  7  1  0  0  0
  2  3  2  0  0  0
  2  8  1  0  0  0
  3  4  1  0  0  0
  4  5  2  0  0  0
  5  6  1  0  0  0
  7  9  1  0  0  0
  8  9  2  0  0  0
  7 10  1  0  0  0
M  END
> <minimizedAffinity>
-5.08118

$$$$
4B2I_LZ1_A_1351


 10 11  0  0  0  0  0  0  0  0999 V2000
   20.2887    6.5603   -2.5782 C   0  0  0  0  0  0  0  0  0  0  0  0
   19.3384    7.4468   -2.0956 C   0  0  0  0  0  0  0  0  0  0  0  0
   18.1590    6.9867   -1.5260 C   0  0  0  0  0  0  0  0  0  0  0  0
   17.9427    5.6137   -1.4473 C   0  0  0  0  0  0  0  0  0  0  0  0
   18.8973    4.7304   -1.9199 C   0  0  0  0  0  0  0  0  0  0  0  0
   20.0748    5.1904   -2.4864 C   0  0  0  0  0  0  0  0  0  0  0  0
   21.2918    7.2964   -3.0490 N   0  0  0  0  0  0  0  0  0  0  0  0
   19.8279    8.6591   -2.3212 C   0  0  0  0  0  0  0  0  0  0  0  0
   21.0207    8.4963   -2.8945 N   0  0  0  0  0  0  0  0  0  0  0  0
   22.1170    6.9449   -3.4548 H   0  0  0  0  0  0  0  0  0  0  0  0
  1  2  1  0  0  0
  1  6  2  0  0  0
  1  7  1  0  0  0
  2  3  2  0  0  0
  2  8  1  0  0  0
  3  4  1  0  0  0
  4  5  2  0  0  0
  5  6  1  0  0  0
  7  9  1  0  0  0
  8  9  2  0  0  0
  7 10  1  0  0  0
M  END
> <minimizedAffinity>
-5.05121

$$$$
4B2I_LZ1_A_1351


 10 11  0  0  0  0  0  0  0  0999 V2000
   19.7962    5.7258   -2.2716 C   0  0  0  0  0  0  0  0  0  0  0  0
   18.8913    6.6914   -1.8583 C   0  0  0  0  0  0  0  0  0  0  0  0
   19.1929    8.0423   -1.9642 C   0  0  0  0  0  0  0  0  0  0  0  0
   20.4253    8.4153   -2.4936 C   0  0  0  0  0  0  0  0  0  0  0  0
   21.3226    7.4502   -2.9155 C   0  0  0  0  0  0  0  0  0  0  0  0
   21.0201    6.1024   -2.8112 C   0  0  0  0  0  0  0  0  0  0  0  0
   19.2219    4.5463   -2.0505 N   0  0  0  0  0  0  0  0  0  0  0  0
   17.8373    6.0270   -1.4025 C   0  0  0  0  0  0  0  0  0  0  0  0
   18.0997    4.7288   -1.5561 N   0  0  0  0  0  0  0  0  0  0  0  0
   19.6236    3.6694   -2.2478 H   0  0  0  0  0  0  0  0  0  0  0  0
  1  2  1  0  0  0
  1  6  2  0  0  0
  1  7  1  0  0  0
  2  3  2  0  0  0
  2  8  1  0  0  0
  3  4  1  0  0  0
  4  5  2  0  0  0
  5  6  1  0  0  0
  7  9  1  0  0  0
  8  9  2  0  0  0
  7 10  1  0  0  0
M  END
> <minimizedAffinity>
-4.93703

$$$$
4B2I_LZ1_A_1351


 10 11  0  0  0  0  0  0  0  0999 V2000
   19.9402    5.4092   -2.3433 C   0  0  0  0  0  0  0  0  0  0  0  0
   20.1271    6.7803   -2.4264 C   0  0  0  0  0  0  0  0  0  0  0  0
   19.1346    7.6607   -2.0179 C   0  0  0  0  0  0  0  0  0  0  0  0
   17.9412    7.1433   -1.5216 C   0  0  0  0  0  0  0  0  0  0  0  0
   17.7609    5.7745   -1.4294 C   0  0  0  0  0  0  0  0  0  0  0  0
   18.7526    4.8966   -1.8356 C   0  0  0  0  0  0  0  0  0  0  0  0
   21.0560    4.8445   -2.7973 N   0  0  0  0  0  0  0  0  0  0  0  0
   21.3392    6.9491   -2.9387 C   0  0  0  0  0  0  0  0  0  0  0  0
   21.8522    5.7338   -3.1326 N   0  0  0  0  0  0  0  0  0  0  0  0
   21.2227    3.8761   -2.8573 H   0  0  0  0  0  0  0  0  0  0  0  0
  1  2  1  0  0  0
  1  6  2  0  0  0
  1  7  1  0  0  0
  2  3  2  0  0  0
  2  8  1  0  0  0
  3  4  1  0  0  0
  4  5  2  0  0  0
  5  6  1  0  0  0
  7  9  1  0  0  0
  8  9  2  0  0  0
  7 10  1  0  0  0
M  END
> <minimizedAffinity>
-4.91908

$$$$
4B2I_LZ1_A_1351


 10 11  0  0  0  0  0  0  0  0999 V2000
   19.5123    5.8030   -2.1578 C   0  0  0  0  0  0  0  0  0  0  0  0
   20.4932    6.6593   -2.6335 C   0  0  0  0  0  0  0  0  0  0  0  0
   20.3653    8.0349   -2.4975 C   0  0  0  0  0  0  0  0  0  0  0  0
   19.2301    8.5449   -1.8735 C   0  0  0  0  0  0  0  0  0  0  0  0
   18.2573    7.6880   -1.3898 C   0  0  0  0  0  0  0  0  0  0  0  0
   18.3866    6.3153   -1.5243 C   0  0  0  0  0  0  0  0  0  0  0  0
   19.9221    4.5666   -2.4285 N   0  0  0  0  0  0  0  0  0  0  0  0
   21.4224    5.8803   -3.1720 C   0  0  0  0  0  0  0  0  0  0  0  0
   21.0178    4.6207   -3.0061 N   0  0  0  0  0  0  0  0  0  0  0  0
   19.4337    3.7412   -2.2060 H   0  0  0  0  0  0  0  0  0  0  0  0
  1  2  1  0  0  0
  1  6  2  0  0  0
  1  7  1  0  0  0
  2  3  2  0  0  0
  2  8  1  0  0  0
  3  4  1  0  0  0
  4  5  2  0  0  0
  5  6  1  0  0  0
  7  9  1  0  0  0
  8  9  2  0  0  0
  7 10  1  0  0  0
M  END
> <minimizedAffinity>
-4.58893

$$$$
4B2I_LZ1_A_1351


 10 11  0  0  0  0  0  0  0  0999 V2000
   19.7814    7.3636   -2.1552 C   0  0  0  0  0  0  0  0  0  0  0  0
   19.2180    6.1007   -2.0571 C   0  0  0  0  0  0  0  0  0  0  0  0
   19.9205    4.9738   -2.4615 C   0  0  0  0  0  0  0  0  0  0  0  0
   21.2063    5.1316   -2.9714 C   0  0  0  0  0  0  0  0  0  0  0  0
   21.7708    6.3919   -3.0585 C   0  0  0  0  0  0  0  0  0  0  0  0
   21.0698    7.5158   -2.6529 C   0  0  0  0  0  0  0  0  0  0  0  0
   18.8772    8.2212   -1.6895 N   0  0  0  0  0  0  0  0  0  0  0  0
   18.0054    6.2846   -1.5511 C   0  0  0  0  0  0  0  0  0  0  0  0
   17.8653    7.5941   -1.3430 N   0  0  0  0  0  0  0  0  0  0  0  0
   18.9930    9.1970   -1.6296 H   0  0  0  0  0  0  0  0  0  0  0  0
  1  2  1  0  0  0
  1  6  2  0  0  0
  1  7  1  0  0  0
  2  3  2  0  0  0
  2  8  1  0  0  0
  3  4  1  0  0  0
  4  5  2  0  0  0
  5  6  1  0  0  0
  7  9  1  0  0  0
  8  9  2  0  0  0
  7 10  1  0  0  0
M  END
> <minimizedAffinity>
-4.39808

$$$$
4B2I_LZ1_A_1351


 10 11  0  0  0  0  0  0  0  0999 V2000
   19.3896    6.0946   -2.1198 C   0  0  0  0  0  0  0  0  0  0  0  0
   20.0002    7.3266   -2.2962 C   0  0  0  0  0  0  0  0  0  0  0  0
   21.2598    7.4217   -2.8720 C   0  0  0  0  0  0  0  0  0  0  0  0
   21.9051    6.2545   -3.2710 C   0  0  0  0  0  0  0  0  0  0  0  0
   21.2894    5.0266   -3.1039 C   0  0  0  0  0  0  0  0  0  0  0  0
   20.0317    4.9328   -2.5309 C   0  0  0  0  0  0  0  0  0  0  0  0
   18.2074    6.3324   -1.5581 N   0  0  0  0  0  0  0  0  0  0  0  0
   19.1491    8.2236   -1.8153 C   0  0  0  0  0  0  0  0  0  0  0  0
   18.0771    7.5539   -1.3907 N   0  0  0  0  0  0  0  0  0  0  0  0
   17.5426    5.6483   -1.3145 H   0  0  0  0  0  0  0  0  0  0  0  0
  1  2  1  0  0  0
  1  6  2  0  0  0
  1  7  1  0  0  0
  2  3  2  0  0  0
  2  8  1  0  0  0
  3  4  1  0  0  0
  4  5  2  0  0  0
  5  6  1  0  0  0
  7  9  1  0  0  0
  8  9  2  0  0  0
  7 10  1  0  0  0
M  END
> <minimizedAffinity>
-4.10913

$$$$
4B2I_LZ1_A_1351


 10 11  0  0  0  0  0  0  0  0999 V2000
   20.8010    6.3236   -2.9594 C   0  0  0  0  0  0  0  0  0  0  0  0
   21.2995    6.5755   -4.2283 C   0  0  0  0  0  0  0  0  0  0  0  0
   21.0399    7.7788   -4.8700 C   0  0  0  0  0  0  0  0  0  0  0  0
   20.2659    8.7342   -4.2170 C   0  0  0  0  0  0  0  0  0  0  0  0
   19.7783    8.4851   -2.9462 C   0  0  0  0  0  0  0  0  0  0  0  0
   20.0394    7.2848   -2.3059 C   0  0  0  0  0  0  0  0  0  0  0  0
   21.2213    5.1081   -2.6195 N   0  0  0  0  0  0  0  0  0  0  0  0
   21.9757    5.4873   -4.5731 C   0  0  0  0  0  0  0  0  0  0  0  0
   21.8956    4.6385   -3.5479 N   0  0  0  0  0  0  0  0  0  0  0  0
   21.0279    4.6542   -1.7675 H   0  0  0  0  0  0  0  0  0  0  0  0
  1  2  1  0  0  0
  1  6  2  0  0  0
  1  7  1  0  0  0
  2  3  2  0  0  0
  2  8  1  0  0  0
  3  4  1  0  0  0
  4  5  2  0  0  0
  5  6  1  0  0  0
  7  9  1  0  0  0
  8  9  2  0  0  0
  7 10  1  0  0  0
M  END
> <minimizedAffinity>
-3.92417

$$$$
4B2I_LZ1_A_1351


 10 11  0  0  0  0  0  0  0  0999 V2000
   20.4164    8.5555   -4.2550 C   0  0  0  0  0  0  0  0  0  0  0  0
   21.0587    7.4304   -4.7483 C   0  0  0  0  0  0  0  0  0  0  0  0
   21.1413    6.2685   -3.9931 C   0  0  0  0  0  0  0  0  0  0  0  0
   20.5671    6.2501   -2.7250 C   0  0  0  0  0  0  0  0  0  0  0  0
   19.9171    7.3708   -2.2388 C   0  0  0  0  0  0  0  0  0  0  0  0
   19.8335    8.5292   -2.9939 C   0  0  0  0  0  0  0  0  0  0  0  0
   20.4993    9.4869   -5.2013 N   0  0  0  0  0  0  0  0  0  0  0  0
   21.4979    7.7651   -5.9546 C   0  0  0  0  0  0  0  0  0  0  0  0
   21.1170    9.0243   -6.1716 N   0  0  0  0  0  0  0  0  0  0  0  0
   20.1294   10.3973   -5.1409 H   0  0  0  0  0  0  0  0  0  0  0  0
  1  2  1  0  0  0
  1  6  2  0  0  0
  1  7  1  0  0  0
  2  3  2  0  0  0
  2  8  1  0  0  0
  3  4  1  0  0  0
  4  5  2  0  0  0
  5  6  1  0  0  0
  7  9  1  0  0  0
  8  9  2  0  0  0
  7 10  1  0  0  0
M  END
> <minimizedAffinity>
-3.85197

$$$$
4B2I_LZ1_A_1351


 10 11  0  0  0  0  0  0  0  0999 V2000
   20.8376    6.7911   -3.6007 C   0  0  0  0  0  0  0  0  0  0  0  0
   20.3685    8.0877   -3.4572 C   0  0  0  0  0  0  0  0  0  0  0  0
   19.3932    8.3926   -2.5175 C   0  0  0  0  0  0  0  0  0  0  0  0
   18.8893    7.3707   -1.7175 C   0  0  0  0  0  0  0  0  0  0  0  0
   19.3667    6.0793   -1.8550 C   0  0  0  0  0  0  0  0  0  0  0  0
   20.3413    5.7763   -2.7916 C   0  0  0  0  0  0  0  0  0  0  0  0
   21.7566    6.8229   -4.5622 N   0  0  0  0  0  0  0  0  0  0  0  0
   21.0274    8.8114   -4.3528 C   0  0  0  0  0  0  0  0  0  0  0  0
   21.8607    7.9840   -4.9843 N   0  0  0  0  0  0  0  0  0  0  0  0
   22.2713    6.0488   -4.8864 H   0  0  0  0  0  0  0  0  0  0  0  0
  1  2  1  0  0  0
  1  6  2  0  0  0
  1  7  1  0  0  0
  2  3  2  0  0  0
  2  8  1  0  0  0
  3  4  1  0  0  0
  4  5  2  0  0  0
  5  6  1  0  0  0
  7  9  1  0  0  0
  8  9  2  0  0  0
  7 10  1  0  0  0
M  END
> <minimizedAffinity>
-3.77374

$$$$
