1KEL_AAH_H_219


 26 26  0  0  0  0  0  0  0  0999 V2000
  -24.0235   40.4287   15.8575 N   0  0  0  0  0  0  0  0  0  0  0  0
  -22.6540   39.8682   15.8701 C   0  0  0  0  0  0  0  0  0  0  0  0
  -21.2653   36.3206   16.1788 C   0  0  0  0  0  0  0  0  0  0  0  0
  -21.4246   37.6463   15.7589 C   0  0  0  0  0  0  0  0  0  0  0  0
  -22.5689   38.3748   16.1809 C   0  0  0  0  0  0  0  0  0  0  0  0
  -23.5708   37.7226   16.8731 C   0  0  0  0  0  0  0  0  0  0  0  0
  -23.4688   36.3488   17.1716 C   0  0  0  0  0  0  0  0  0  0  0  0
  -22.3224   35.6535   16.8123 C   0  0  0  0  0  0  0  0  0  0  0  0
  -22.1981   34.1908   17.1113 N   0  0  0  0  0  0  0  0  0  0  0  0
  -21.2417   33.5974   16.7663 O   0  0  0  0  0  0  0  0  0  0  0  0
  -22.9326   33.6651   17.8853 O   0  0  0  0  0  0  0  0  0  0  0  0
  -24.5799   40.6826   14.4730 C   0  0  0  0  0  0  0  0  0  0  0  0
  -25.7851   39.4822   13.7395 P   0  0  0  0  0  0  0  0  0  0  0  0
  -27.1728   39.5218   14.4594 O   0  0  0  0  0  0  0  0  0  0  0  0
  -26.0706   39.7283   12.1679 O   0  0  0  0  0  0  0  0  0  0  0  0
  -25.1754   38.1793   13.9111 O   0  0  0  0  0  0  0  0  0  0  0  0
  -26.4791   40.5997   12.0462 H   0  0  0  0  0  0  0  0  0  0  0  0
  -25.0014   38.0253   14.8528 H   0  0  0  0  0  0  0  0  0  0  0  0
  -24.3208   41.5666   16.8620 C   0  0  0  0  0  0  0  0  0  0  0  0
  -23.9931   41.1729   18.3120 C   0  0  0  0  0  0  0  0  0  0  0  0
  -24.7840   42.0452   19.3024 C   0  0  0  0  0  0  0  0  0  0  0  0
  -25.8067   42.8935   18.5335 C   0  0  0  0  0  0  0  0  0  0  0  0
  -27.2089   42.5720   19.0197 C   0  0  0  0  0  0  0  0  0  0  0  0
  -28.2773   43.3794   18.6844 O   0  0  0  0  0  0  0  0  0  0  0  0
  -27.3828   41.5767   19.7144 O   0  0  0  0  0  0  0  0  0  0  0  0
  -28.1417   44.1394   18.1534 H   0  0  0  0  0  0  0  0  0  0  0  0
  3  4  2  0  0  0
  3  8  1  0  0  0
  4  5  1  0  0  0
  5  6  2  0  0  0
  5  2  1  0  0  0
  6  7  1  0  0  0
  7  8  2  0  0  0
  8  9  1  0  0  0
  9 10  2  0  0  0
  9 11  1  0  0  0
  2  1  1  0  0  0
  1 12  1  0  0  0
  1 19  1  0  0  0
 12 13  1  0  0  0
 13 14  2  0  0  0
 13 15  1  0  0  0
 13 16  1  0  0  0
 19 20  1  0  0  0
 20 21  1  0  0  0
 21 22  1  0  0  0
 22 23  1  0  0  0
 23 24  1  0  0  0
 23 25  2  0  0  0
 15 17  1  0  0  0
 16 18  1  0  0  0
 24 26  1  0  0  0
M  CHG 1   9   1
M  CHG 1  11  -1
M  END
> <minimizedAffinity>
-8.20879

$$$$
1KEL_AAH_H_219


 26 26  0  0  0  0  0  0  0  0999 V2000
  -24.2484   40.5952   16.0580 N   0  0  0  0  0  0  0  0  0  0  0  0
  -22.9022   40.0369   15.8013 C   0  0  0  0  0  0  0  0  0  0  0  0
  -21.3394   36.5668   16.1550 C   0  0  0  0  0  0  0  0  0  0  0  0
  -21.5662   37.8762   15.7157 C   0  0  0  0  0  0  0  0  0  0  0  0
  -22.7420   38.5546   16.1347 C   0  0  0  0  0  0  0  0  0  0  0  0
  -23.7063   37.8653   16.8441 C   0  0  0  0  0  0  0  0  0  0  0  0
  -23.5352   36.5030   17.1632 C   0  0  0  0  0  0  0  0  0  0  0  0
  -22.3584   35.8589   16.8065 C   0  0  0  0  0  0  0  0  0  0  0  0
  -22.1607   34.4090   17.1272 N   0  0  0  0  0  0  0  0  0  0  0  0
  -22.9288   33.8483   17.8209 O   0  0  0  0  0  0  0  0  0  0  0  0
  -21.3775   33.7538   16.5169 O   0  0  0  0  0  0  0  0  0  0  0  0
  -25.1849   40.5337   14.8706 C   0  0  0  0  0  0  0  0  0  0  0  0
  -26.6431   39.3921   14.9163 P   0  0  0  0  0  0  0  0  0  0  0  0
  -26.3371   38.0136   14.2443 O   0  0  0  0  0  0  0  0  0  0  0  0
  -27.1702   39.0730   16.4104 O   0  0  0  0  0  0  0  0  0  0  0  0
  -27.6866   40.0793   14.1833 O   0  0  0  0  0  0  0  0  0  0  0  0
  -26.4757   38.6125   16.9068 H   0  0  0  0  0  0  0  0  0  0  0  0
  -27.3763   40.2739   13.2851 H   0  0  0  0  0  0  0  0  0  0  0  0
  -24.3129   41.9349   16.8281 C   0  0  0  0  0  0  0  0  0  0  0  0
  -25.1582   41.8379   18.1091 C   0  0  0  0  0  0  0  0  0  0  0  0
  -24.5983   40.7545   19.0472 C   0  0  0  0  0  0  0  0  0  0  0  0
  -24.6773   41.2447   20.4998 C   0  0  0  0  0  0  0  0  0  0  0  0
  -23.5642   42.2429   20.7656 C   0  0  0  0  0  0  0  0  0  0  0  0
  -23.8089   43.6012   20.7352 O   0  0  0  0  0  0  0  0  0  0  0  0
  -22.4388   41.8248   21.0145 O   0  0  0  0  0  0  0  0  0  0  0  0
  -24.6698   43.9181   20.5448 H   0  0  0  0  0  0  0  0  0  0  0  0
  3  4  2  0  0  0
  3  8  1  0  0  0
  4  5  1  0  0  0
  5  6  2  0  0  0
  5  2  1  0  0  0
  6  7  1  0  0  0
  7  8  2  0  0  0
  8  9  1  0  0  0
  9 10  2  0  0  0
  9 11  1  0  0  0
  2  1  1  0  0  0
  1 12  1  0  0  0
  1 19  1  0  0  0
 12 13  1  0  0  0
 13 14  2  0  0  0
 13 15  1  0  0  0
 13 16  1  0  0  0
 19 20  1  0  0  0
 20 21  1  0  0  0
 21 22  1  0  0  0
 22 23  1  0  0  0
 23 24  1  0  0  0
 23 25  2  0  0  0
 15 17  1  0  0  0
 16 18  1  0  0  0
 24 26  1  0  0  0
M  CHG 1   9   1
M  CHG 1  11  -1
M  END
> <minimizedAffinity>
-8.14210

$$$$
1KEL_AAH_H_219


 26 26  0  0  0  0  0  0  0  0999 V2000
  -24.2418   40.3313   16.0387 N   0  0  0  0  0  0  0  0  0  0  0  0
  -22.9051   39.7867   15.7123 C   0  0  0  0  0  0  0  0  0  0  0  0
  -23.5650   36.2856   17.0965 C   0  0  0  0  0  0  0  0  0  0  0  0
  -23.6951   37.6581   16.8550 C   0  0  0  0  0  0  0  0  0  0  0  0
  -22.6795   38.3337   16.1267 C   0  0  0  0  0  0  0  0  0  0  0  0
  -21.5188   37.6605   15.7981 C   0  0  0  0  0  0  0  0  0  0  0  0
  -21.3334   36.3131   16.1686 C   0  0  0  0  0  0  0  0  0  0  0  0
  -22.3524   35.6374   16.8258 C   0  0  0  0  0  0  0  0  0  0  0  0
  -22.1719   34.2084   17.2373 N   0  0  0  0  0  0  0  0  0  0  0  0
  -22.9705   33.6881   17.9281 O   0  0  0  0  0  0  0  0  0  0  0  0
  -21.3645   33.5195   16.7000 O   0  0  0  0  0  0  0  0  0  0  0  0
  -25.1512   40.5089   14.8419 C   0  0  0  0  0  0  0  0  0  0  0  0
  -26.6446   39.4278   14.6620 P   0  0  0  0  0  0  0  0  0  0  0  0
  -27.3074   39.0996   16.0399 O   0  0  0  0  0  0  0  0  0  0  0  0
  -27.8007   40.0684   13.7320 O   0  0  0  0  0  0  0  0  0  0  0  0
  -26.1601   38.2108   14.0435 O   0  0  0  0  0  0  0  0  0  0  0  0
  -28.1296   40.8842   14.1409 H   0  0  0  0  0  0  0  0  0  0  0  0
  -25.4655   37.8211   14.5971 H   0  0  0  0  0  0  0  0  0  0  0  0
  -24.2891   41.5152   17.0328 C   0  0  0  0  0  0  0  0  0  0  0  0
  -23.8066   41.1230   18.4394 C   0  0  0  0  0  0  0  0  0  0  0  0
  -24.2532   42.1681   19.4765 C   0  0  0  0  0  0  0  0  0  0  0  0
  -23.5887   41.8654   20.8268 C   0  0  0  0  0  0  0  0  0  0  0  0
  -24.5156   41.0126   21.6750 C   0  0  0  0  0  0  0  0  0  0  0  0
  -25.8147   40.7679   21.2773 O   0  0  0  0  0  0  0  0  0  0  0  0
  -24.0915   40.5363   22.7223 O   0  0  0  0  0  0  0  0  0  0  0  0
  -26.1362   41.1331   20.4766 H   0  0  0  0  0  0  0  0  0  0  0  0
  3  4  2  0  0  0
  3  8  1  0  0  0
  4  5  1  0  0  0
  5  6  2  0  0  0
  5  2  1  0  0  0
  6  7  1  0  0  0
  7  8  2  0  0  0
  8  9  1  0  0  0
  9 10  2  0  0  0
  9 11  1  0  0  0
  2  1  1  0  0  0
  1 12  1  0  0  0
  1 19  1  0  0  0
 12 13  1  0  0  0
 13 14  2  0  0  0
 13 15  1  0  0  0
 13 16  1  0  0  0
 19 20  1  0  0  0
 20 21  1  0  0  0
 21 22  1  0  0  0
 22 23  1  0  0  0
 23 24  1  0  0  0
 23 25  2  0  0  0
 15 17  1  0  0  0
 16 18  1  0  0  0
 24 26  1  0  0  0
M  CHG 1   9   1
M  CHG 1  11  -1
M  END
> <minimizedAffinity>
-8.13710

$$$$
1KEL_AAH_H_219


 26 26  0  0  0  0  0  0  0  0999 V2000
  -24.3672   40.4958   16.2964 N   0  0  0  0  0  0  0  0  0  0  0  0
  -23.0842   39.9660   15.7834 C   0  0  0  0  0  0  0  0  0  0  0  0
  -23.5730   36.4036   17.0793 C   0  0  0  0  0  0  0  0  0  0  0  0
  -23.7617   37.7764   16.8821 C   0  0  0  0  0  0  0  0  0  0  0  0
  -22.7924   38.5116   16.1486 C   0  0  0  0  0  0  0  0  0  0  0  0
  -21.6160   37.8938   15.7706 C   0  0  0  0  0  0  0  0  0  0  0  0
  -21.3695   36.5446   16.0961 C   0  0  0  0  0  0  0  0  0  0  0  0
  -22.3442   35.8112   16.7587 C   0  0  0  0  0  0  0  0  0  0  0  0
  -22.0984   34.3790   17.1227 N   0  0  0  0  0  0  0  0  0  0  0  0
  -22.8686   33.8022   17.8008 O   0  0  0  0  0  0  0  0  0  0  0  0
  -21.2654   33.7438   16.5589 O   0  0  0  0  0  0  0  0  0  0  0  0
  -25.4164   40.7268   15.2304 C   0  0  0  0  0  0  0  0  0  0  0  0
  -26.7896   39.5012   15.0206 P   0  0  0  0  0  0  0  0  0  0  0  0
  -28.0192   40.1121   14.2719 O   0  0  0  0  0  0  0  0  0  0  0  0
  -26.3577   38.1775   14.2003 O   0  0  0  0  0  0  0  0  0  0  0  0
  -27.1684   39.1213   16.3663 O   0  0  0  0  0  0  0  0  0  0  0  0
  -26.1028   38.4252   13.2978 H   0  0  0  0  0  0  0  0  0  0  0  0
  -27.4289   39.9119   16.8643 H   0  0  0  0  0  0  0  0  0  0  0  0
  -24.2845   41.6342   17.3401 C   0  0  0  0  0  0  0  0  0  0  0  0
  -23.6863   41.1655   18.6770 C   0  0  0  0  0  0  0  0  0  0  0  0
  -24.6565   41.4542   19.8358 C   0  0  0  0  0  0  0  0  0  0  0  0
  -23.9979   42.4265   20.8244 C   0  0  0  0  0  0  0  0  0  0  0  0
  -24.3586   43.8550   20.4564 C   0  0  0  0  0  0  0  0  0  0  0  0
  -23.4937   44.8962   20.7278 O   0  0  0  0  0  0  0  0  0  0  0  0
  -25.4326   44.0733   19.9066 O   0  0  0  0  0  0  0  0  0  0  0  0
  -22.6736   44.7265   21.1480 H   0  0  0  0  0  0  0  0  0  0  0  0
  3  4  2  0  0  0
  3  8  1  0  0  0
  4  5  1  0  0  0
  5  6  2  0  0  0
  5  2  1  0  0  0
  6  7  1  0  0  0
  7  8  2  0  0  0
  8  9  1  0  0  0
  9 10  2  0  0  0
  9 11  1  0  0  0
  2  1  1  0  0  0
  1 12  1  0  0  0
  1 19  1  0  0  0
 12 13  1  0  0  0
 13 14  2  0  0  0
 13 15  1  0  0  0
 13 16  1  0  0  0
 19 20  1  0  0  0
 20 21  1  0  0  0
 21 22  1  0  0  0
 22 23  1  0  0  0
 23 24  1  0  0  0
 23 25  2  0  0  0
 15 17  1  0  0  0
 16 18  1  0  0  0
 24 26  1  0  0  0
M  CHG 1   9   1
M  CHG 1  11  -1
M  END
> <minimizedAffinity>
-8.09082

$$$$
1KEL_AAH_H_219


 26 26  0  0  0  0  0  0  0  0999 V2000
  -24.6582   40.5424   16.5480 N   0  0  0  0  0  0  0  0  0  0  0  0
  -23.2840   40.1503   16.1641 C   0  0  0  0  0  0  0  0  0  0  0  0
  -21.3659   36.8447   16.1114 C   0  0  0  0  0  0  0  0  0  0  0  0
  -21.7379   38.1623   15.8206 C   0  0  0  0  0  0  0  0  0  0  0  0
  -22.9637   38.6660   16.3322 C   0  0  0  0  0  0  0  0  0  0  0  0
  -23.8312   37.8086   16.9808 C   0  0  0  0  0  0  0  0  0  0  0  0
  -23.5127   36.4456   17.1475 C   0  0  0  0  0  0  0  0  0  0  0  0
  -22.2875   35.9694   16.7014 C   0  0  0  0  0  0  0  0  0  0  0  0
  -21.9336   34.5223   16.8598 N   0  0  0  0  0  0  0  0  0  0  0  0
  -22.5897   33.8263   17.5460 O   0  0  0  0  0  0  0  0  0  0  0  0
  -21.1453   34.0074   16.1328 O   0  0  0  0  0  0  0  0  0  0  0  0
  -25.5906   40.7710   15.3779 C   0  0  0  0  0  0  0  0  0  0  0  0
  -26.9292   39.5404   15.0236 P   0  0  0  0  0  0  0  0  0  0  0  0
  -28.1908   40.2060   14.3826 O   0  0  0  0  0  0  0  0  0  0  0  0
  -26.4723   38.3547   14.0249 O   0  0  0  0  0  0  0  0  0  0  0  0
  -27.2706   38.9696   16.3105 O   0  0  0  0  0  0  0  0  0  0  0  0
  -26.2422   38.7305   13.1608 H   0  0  0  0  0  0  0  0  0  0  0  0
  -27.5459   39.6765   16.9150 H   0  0  0  0  0  0  0  0  0  0  0  0
  -24.7947   41.6042   17.6643 C   0  0  0  0  0  0  0  0  0  0  0  0
  -24.6913   40.9950   19.0726 C   0  0  0  0  0  0  0  0  0  0  0  0
  -23.6697   41.7686   19.9241 C   0  0  0  0  0  0  0  0  0  0  0  0
  -24.1238   41.7720   21.3905 C   0  0  0  0  0  0  0  0  0  0  0  0
  -25.6246   41.9922   21.4623 C   0  0  0  0  0  0  0  0  0  0  0  0
  -26.4889   40.9297   21.6354 O   0  0  0  0  0  0  0  0  0  0  0  0
  -26.0623   43.1338   21.3692 O   0  0  0  0  0  0  0  0  0  0  0  0
  -26.1518   40.0583   21.7063 H   0  0  0  0  0  0  0  0  0  0  0  0
  3  4  2  0  0  0
  3  8  1  0  0  0
  4  5  1  0  0  0
  5  6  2  0  0  0
  5  2  1  0  0  0
  6  7  1  0  0  0
  7  8  2  0  0  0
  8  9  1  0  0  0
  9 10  2  0  0  0
  9 11  1  0  0  0
  2  1  1  0  0  0
  1 12  1  0  0  0
  1 19  1  0  0  0
 12 13  1  0  0  0
 13 14  2  0  0  0
 13 15  1  0  0  0
 13 16  1  0  0  0
 19 20  1  0  0  0
 20 21  1  0  0  0
 21 22  1  0  0  0
 22 23  1  0  0  0
 23 24  1  0  0  0
 23 25  2  0  0  0
 15 17  1  0  0  0
 16 18  1  0  0  0
 24 26  1  0  0  0
M  CHG 1   9   1
M  CHG 1  11  -1
M  END
> <minimizedAffinity>
-7.64279

$$$$
1KEL_AAH_H_219


 26 26  0  0  0  0  0  0  0  0999 V2000
  -24.9211   40.6706   16.9387 N   0  0  0  0  0  0  0  0  0  0  0  0
  -23.5905   40.4488   16.3303 C   0  0  0  0  0  0  0  0  0  0  0  0
  -23.4579   36.6914   17.0183 C   0  0  0  0  0  0  0  0  0  0  0  0
  -23.8657   38.0297   17.0602 C   0  0  0  0  0  0  0  0  0  0  0  0
  -23.0598   39.0202   16.4376 C   0  0  0  0  0  0  0  0  0  0  0  0
  -21.8232   38.6689   15.9320 C   0  0  0  0  0  0  0  0  0  0  0  0
  -21.3555   37.3420   16.0190 C   0  0  0  0  0  0  0  0  0  0  0  0
  -22.1705   36.3638   16.5722 C   0  0  0  0  0  0  0  0  0  0  0  0
  -21.6888   34.9497   16.6833 N   0  0  0  0  0  0  0  0  0  0  0  0
  -20.5747   34.6831   16.4121 O   0  0  0  0  0  0  0  0  0  0  0  0
  -22.3357   34.1314   17.2550 O   0  0  0  0  0  0  0  0  0  0  0  0
  -26.0231   40.9530   15.9405 C   0  0  0  0  0  0  0  0  0  0  0  0
  -26.6110   39.5980   14.8224 P   0  0  0  0  0  0  0  0  0  0  0  0
  -26.8184   38.2489   15.5855 O   0  0  0  0  0  0  0  0  0  0  0  0
  -28.0073   39.9302   14.0795 O   0  0  0  0  0  0  0  0  0  0  0  0
  -25.5694   39.4485   13.8268 O   0  0  0  0  0  0  0  0  0  0  0  0
  -28.7094   40.0316   14.7411 H   0  0  0  0  0  0  0  0  0  0  0  0
  -24.7281   39.2489   14.2664 H   0  0  0  0  0  0  0  0  0  0  0  0
  -24.9734   41.5769   18.1909 C   0  0  0  0  0  0  0  0  0  0  0  0
  -23.9925   41.1258   19.2860 C   0  0  0  0  0  0  0  0  0  0  0  0
  -24.0873   42.0499   20.5126 C   0  0  0  0  0  0  0  0  0  0  0  0
  -22.7996   41.9353   21.3403 C   0  0  0  0  0  0  0  0  0  0  0  0
  -23.0697   41.1327   22.6009 C   0  0  0  0  0  0  0  0  0  0  0  0
  -22.0882   40.3381   23.1585 O   0  0  0  0  0  0  0  0  0  0  0  0
  -24.1764   41.2036   23.1240 O   0  0  0  0  0  0  0  0  0  0  0  0
  -21.2433   40.2858   22.7566 H   0  0  0  0  0  0  0  0  0  0  0  0
  3  4  2  0  0  0
  3  8  1  0  0  0
  4  5  1  0  0  0
  5  6  2  0  0  0
  5  2  1  0  0  0
  6  7  1  0  0  0
  7  8  2  0  0  0
  8  9  1  0  0  0
  9 10  2  0  0  0
  9 11  1  0  0  0
  2  1  1  0  0  0
  1 12  1  0  0  0
  1 19  1  0  0  0
 12 13  1  0  0  0
 13 14  2  0  0  0
 13 15  1  0  0  0
 13 16  1  0  0  0
 19 20  1  0  0  0
 20 21  1  0  0  0
 21 22  1  0  0  0
 22 23  1  0  0  0
 23 24  1  0  0  0
 23 25  2  0  0  0
 15 17  1  0  0  0
 16 18  1  0  0  0
 24 26  1  0  0  0
M  CHG 1   9   1
M  CHG 1  11  -1
M  END
> <minimizedAffinity>
-7.46098

$$$$
1KEL_AAH_H_219


 26 26  0  0  0  0  0  0  0  0999 V2000
  -25.2126   40.7820   16.9573 N   0  0  0  0  0  0  0  0  0  0  0  0
  -25.3067   39.3110   16.8268 C   0  0  0  0  0  0  0  0  0  0  0  0
  -22.6998   36.5242   16.6101 C   0  0  0  0  0  0  0  0  0  0  0  0
  -23.8573   37.2274   16.9632 C   0  0  0  0  0  0  0  0  0  0  0  0
  -23.9765   38.5952   16.5984 C   0  0  0  0  0  0  0  0  0  0  0  0
  -22.8948   39.2433   16.0342 C   0  0  0  0  0  0  0  0  0  0  0  0
  -21.6801   38.5642   15.8096 C   0  0  0  0  0  0  0  0  0  0  0  0
  -21.5861   37.2122   16.1098 C   0  0  0  0  0  0  0  0  0  0  0  0
  -20.3015   36.4741   15.8881 N   0  0  0  0  0  0  0  0  0  0  0  0
  -19.4172   36.9905   15.3074 O   0  0  0  0  0  0  0  0  0  0  0  0
  -20.0694   35.4686   16.4799 O   0  0  0  0  0  0  0  0  0  0  0  0
  -25.0053   41.2695   18.3751 C   0  0  0  0  0  0  0  0  0  0  0  0
  -24.7592   43.0781   18.6916 P   0  0  0  0  0  0  0  0  0  0  0  0
  -23.9131   43.3440   19.9796 O   0  0  0  0  0  0  0  0  0  0  0  0
  -24.0191   43.8533   17.4820 O   0  0  0  0  0  0  0  0  0  0  0  0
  -26.0928   43.6199   18.8548 O   0  0  0  0  0  0  0  0  0  0  0  0
  -23.1250   43.4950   17.3675 H   0  0  0  0  0  0  0  0  0  0  0  0
  -26.5427   43.1585   19.5798 H   0  0  0  0  0  0  0  0  0  0  0  0
  -26.2379   41.6203   16.1586 C   0  0  0  0  0  0  0  0  0  0  0  0
  -25.8137   41.8323   14.6957 C   0  0  0  0  0  0  0  0  0  0  0  0
  -26.2771   40.6544   13.8209 C   0  0  0  0  0  0  0  0  0  0  0  0
  -26.7614   41.1843   12.4640 C   0  0  0  0  0  0  0  0  0  0  0  0
  -27.3375   40.0435   11.6438 C   0  0  0  0  0  0  0  0  0  0  0  0
  -27.7403   38.8696   12.2482 O   0  0  0  0  0  0  0  0  0  0  0  0
  -27.4462   40.1807   10.4301 O   0  0  0  0  0  0  0  0  0  0  0  0
  -27.6562   38.7674   13.1758 H   0  0  0  0  0  0  0  0  0  0  0  0
  3  4  2  0  0  0
  3  8  1  0  0  0
  4  5  1  0  0  0
  5  6  2  0  0  0
  5  2  1  0  0  0
  6  7  1  0  0  0
  7  8  2  0  0  0
  8  9  1  0  0  0
  9 10  2  0  0  0
  9 11  1  0  0  0
  2  1  1  0  0  0
  1 12  1  0  0  0
  1 19  1  0  0  0
 12 13  1  0  0  0
 13 14  2  0  0  0
 13 15  1  0  0  0
 13 16  1  0  0  0
 19 20  1  0  0  0
 20 21  1  0  0  0
 21 22  1  0  0  0
 22 23  1  0  0  0
 23 24  1  0  0  0
 23 25  2  0  0  0
 15 17  1  0  0  0
 16 18  1  0  0  0
 24 26  1  0  0  0
M  CHG 1   9   1
M  CHG 1  11  -1
M  END
> <minimizedAffinity>
-7.30582

$$$$
1KEL_AAH_H_219


 26 26  0  0  0  0  0  0  0  0999 V2000
  -25.1781   40.9087   18.2305 N   0  0  0  0  0  0  0  0  0  0  0  0
  -24.9259   40.4952   16.8322 C   0  0  0  0  0  0  0  0  0  0  0  0
  -23.3135   37.0298   16.8051 C   0  0  0  0  0  0  0  0  0  0  0  0
  -24.1943   38.0761   17.1030 C   0  0  0  0  0  0  0  0  0  0  0  0
  -23.8845   39.3905   16.6619 C   0  0  0  0  0  0  0  0  0  0  0  0
  -22.6573   39.6382   16.0778 C   0  0  0  0  0  0  0  0  0  0  0  0
  -21.7144   38.6043   15.9076 C   0  0  0  0  0  0  0  0  0  0  0  0
  -22.0434   37.3091   16.2830 C   0  0  0  0  0  0  0  0  0  0  0  0
  -21.0522   36.1977   16.1199 N   0  0  0  0  0  0  0  0  0  0  0  0
  -19.9762   36.4241   15.6994 O   0  0  0  0  0  0  0  0  0  0  0  0
  -21.2454   35.1345   16.6170 O   0  0  0  0  0  0  0  0  0  0  0  0
  -26.3215   41.8866   18.3943 C   0  0  0  0  0  0  0  0  0  0  0  0
  -26.1620   43.6004   17.7092 P   0  0  0  0  0  0  0  0  0  0  0  0
  -27.0219   44.6377   18.5029 O   0  0  0  0  0  0  0  0  0  0  0  0
  -24.6456   44.1595   17.7073 O   0  0  0  0  0  0  0  0  0  0  0  0
  -26.6340   43.5085   16.3427 O   0  0  0  0  0  0  0  0  0  0  0  0
  -24.3235   44.2234   18.6200 H   0  0  0  0  0  0  0  0  0  0  0  0
  -27.5442   43.1733   16.3369 H   0  0  0  0  0  0  0  0  0  0  0  0
  -23.9396   41.2554   19.0897 C   0  0  0  0  0  0  0  0  0  0  0  0
  -24.3162   41.7091   20.5100 C   0  0  0  0  0  0  0  0  0  0  0  0
  -24.8180   40.5177   21.3443 C   0  0  0  0  0  0  0  0  0  0  0  0
  -25.2255   41.0067   22.7412 C   0  0  0  0  0  0  0  0  0  0  0  0
  -26.7322   40.9058   22.9008 C   0  0  0  0  0  0  0  0  0  0  0  0
  -27.3192   40.9853   24.1478 O   0  0  0  0  0  0  0  0  0  0  0  0
  -27.4265   40.7569   21.9012 O   0  0  0  0  0  0  0  0  0  0  0  0
  -26.7864   41.0991   24.9101 H   0  0  0  0  0  0  0  0  0  0  0  0
  3  4  2  0  0  0
  3  8  1  0  0  0
  4  5  1  0  0  0
  5  6  2  0  0  0
  5  2  1  0  0  0
  6  7  1  0  0  0
  7  8  2  0  0  0
  8  9  1  0  0  0
  9 10  2  0  0  0
  9 11  1  0  0  0
  2  1  1  0  0  0
  1 12  1  0  0  0
  1 19  1  0  0  0
 12 13  1  0  0  0
 13 14  2  0  0  0
 13 15  1  0  0  0
 13 16  1  0  0  0
 19 20  1  0  0  0
 20 21  1  0  0  0
 21 22  1  0  0  0
 22 23  1  0  0  0
 23 24  1  0  0  0
 23 25  2  0  0  0
 15 17  1  0  0  0
 16 18  1  0  0  0
 24 26  1  0  0  0
M  CHG 1   9   1
M  CHG 1  11  -1
M  END
> <minimizedAffinity>
-7.16784

$$$$
1KEL_AAH_H_219


 26 26  0  0  0  0  0  0  0  0999 V2000
  -25.9393   40.0335   15.6425 N   0  0  0  0  0  0  0  0  0  0  0  0
  -25.4169   39.2728   16.7993 C   0  0  0  0  0  0  0  0  0  0  0  0
  -21.7504   38.6660   15.9058 C   0  0  0  0  0  0  0  0  0  0  0  0
  -23.0097   39.2721   15.9830 C   0  0  0  0  0  0  0  0  0  0  0  0
  -24.0925   38.5516   16.5547 C   0  0  0  0  0  0  0  0  0  0  0  0
  -23.9213   37.2221   16.8887 C   0  0  0  0  0  0  0  0  0  0  0  0
  -22.6868   36.5754   16.6770 C   0  0  0  0  0  0  0  0  0  0  0  0
  -21.6125   37.2979   16.1760 C   0  0  0  0  0  0  0  0  0  0  0  0
  -20.2949   36.6273   15.9342 N   0  0  0  0  0  0  0  0  0  0  0  0
  -20.1262   35.5156   16.2827 O   0  0  0  0  0  0  0  0  0  0  0  0
  -19.4946   37.1096   15.1981 O   0  0  0  0  0  0  0  0  0  0  0  0
  -26.7050   41.2849   16.0145 C   0  0  0  0  0  0  0  0  0  0  0  0
  -25.9061   42.5545   17.1015 P   0  0  0  0  0  0  0  0  0  0  0  0
  -26.0546   42.2117   18.6200 O   0  0  0  0  0  0  0  0  0  0  0  0
  -24.3260   42.7461   16.8215 O   0  0  0  0  0  0  0  0  0  0  0  0
  -26.5929   43.7950   16.8046 O   0  0  0  0  0  0  0  0  0  0  0  0
  -23.8600   41.9185   17.0185 H   0  0  0  0  0  0  0  0  0  0  0  0
  -27.5424   43.6866   16.9707 H   0  0  0  0  0  0  0  0  0  0  0  0
  -26.6046   39.2144   14.5118 C   0  0  0  0  0  0  0  0  0  0  0  0
  -26.1343   39.6497   13.1138 C   0  0  0  0  0  0  0  0  0  0  0  0
  -27.2962   40.2730   12.3208 C   0  0  0  0  0  0  0  0  0  0  0  0
  -26.7474   41.3374   11.3604 C   0  0  0  0  0  0  0  0  0  0  0  0
  -25.8705   42.3141   12.1240 C   0  0  0  0  0  0  0  0  0  0  0  0
  -24.5210   42.4167   11.8516 O   0  0  0  0  0  0  0  0  0  0  0  0
  -26.3802   43.0193   12.9879 O   0  0  0  0  0  0  0  0  0  0  0  0
  -24.1341   41.8766   11.1909 H   0  0  0  0  0  0  0  0  0  0  0  0
  3  4  2  0  0  0
  3  8  1  0  0  0
  4  5  1  0  0  0
  5  6  2  0  0  0
  5  2  1  0  0  0
  6  7  1  0  0  0
  7  8  2  0  0  0
  8  9  1  0  0  0
  9 10  2  0  0  0
  9 11  1  0  0  0
  2  1  1  0  0  0
  1 12  1  0  0  0
  1 19  1  0  0  0
 12 13  1  0  0  0
 13 14  2  0  0  0
 13 15  1  0  0  0
 13 16  1  0  0  0
 19 20  1  0  0  0
 20 21  1  0  0  0
 21 22  1  0  0  0
 22 23  1  0  0  0
 23 24  1  0  0  0
 23 25  2  0  0  0
 15 17  1  0  0  0
 16 18  1  0  0  0
 24 26  1  0  0  0
M  CHG 1   9   1
M  CHG 1  11  -1
M  END
> <minimizedAffinity>
-6.94013

$$$$
1KEL_AAH_H_219


 26 26  0  0  0  0  0  0  0  0999 V2000
  -26.1671   40.6524   16.3413 N   0  0  0  0  0  0  0  0  0  0  0  0
  -25.0519   40.4787   17.2984 C   0  0  0  0  0  0  0  0  0  0  0  0
  -21.8683   38.8099   15.9988 C   0  0  0  0  0  0  0  0  0  0  0  0
  -22.8726   39.7632   16.2033 C   0  0  0  0  0  0  0  0  0  0  0  0
  -24.0406   39.3965   16.9241 C   0  0  0  0  0  0  0  0  0  0  0  0
  -24.2300   38.0757   17.2819 C   0  0  0  0  0  0  0  0  0  0  0  0
  -23.2778   37.0914   16.9484 C   0  0  0  0  0  0  0  0  0  0  0  0
  -22.1085   37.4623   16.2986 C   0  0  0  0  0  0  0  0  0  0  0  0
  -21.0883   36.4305   15.9262 N   0  0  0  0  0  0  0  0  0  0  0  0
  -19.9967   36.7593   15.6331 O   0  0  0  0  0  0  0  0  0  0  0  0
  -21.2860   35.2770   16.1395 O   0  0  0  0  0  0  0  0  0  0  0  0
  -26.5314   39.3989   15.5752 C   0  0  0  0  0  0  0  0  0  0  0  0
  -25.9189   39.1788   13.8409 P   0  0  0  0  0  0  0  0  0  0  0  0
  -27.0805   38.8873   12.8352 O   0  0  0  0  0  0  0  0  0  0  0  0
  -25.1199   40.4613   13.2676 O   0  0  0  0  0  0  0  0  0  0  0  0
  -25.0173   38.0463   13.8975 O   0  0  0  0  0  0  0  0  0  0  0  0
  -25.7184   41.2235   13.2272 H   0  0  0  0  0  0  0  0  0  0  0  0
  -25.4911   37.2727   14.2410 H   0  0  0  0  0  0  0  0  0  0  0  0
  -26.1431   41.9273   15.4660 C   0  0  0  0  0  0  0  0  0  0  0  0
  -27.2644   42.9142   15.8317 C   0  0  0  0  0  0  0  0  0  0  0  0
  -28.1754   43.1729   14.6190 C   0  0  0  0  0  0  0  0  0  0  0  0
  -29.5131   42.4470   14.8198 C   0  0  0  0  0  0  0  0  0  0  0  0
  -29.4785   41.1032   14.1133 C   0  0  0  0  0  0  0  0  0  0  0  0
  -28.9562   40.9852   12.8409 O   0  0  0  0  0  0  0  0  0  0  0  0
  -29.9186   40.1163   14.6929 O   0  0  0  0  0  0  0  0  0  0  0  0
  -28.6206   41.7410   12.4003 H   0  0  0  0  0  0  0  0  0  0  0  0
  3  4  2  0  0  0
  3  8  1  0  0  0
  4  5  1  0  0  0
  5  6  2  0  0  0
  5  2  1  0  0  0
  6  7  1  0  0  0
  7  8  2  0  0  0
  8  9  1  0  0  0
  9 10  2  0  0  0
  9 11  1  0  0  0
  2  1  1  0  0  0
  1 12  1  0  0  0
  1 19  1  0  0  0
 12 13  1  0  0  0
 13 14  2  0  0  0
 13 15  1  0  0  0
 13 16  1  0  0  0
 19 20  1  0  0  0
 20 21  1  0  0  0
 21 22  1  0  0  0
 22 23  1  0  0  0
 23 24  1  0  0  0
 23 25  2  0  0  0
 15 17  1  0  0  0
 16 18  1  0  0  0
 24 26  1  0  0  0
M  CHG 1   9   1
M  CHG 1  11  -1
M  END
> <minimizedAffinity>
-6.88067

$$$$
