2QHY_MZ1_A_200


 42 44  0  0  0  0  0  0  0  0999 V2000
   20.1381   29.5917   15.4291 C   0  0  0  0  0  0  0  0  0  0  0  0
   20.2462   28.4846   16.3326 O   0  0  0  0  0  0  0  0  0  0  0  0
   19.3936   28.0249   16.3841 H   0  0  0  0  0  0  0  0  0  0  0  0
   19.8055   29.1005   14.0107 C   0  0  0  0  0  0  0  0  0  0  0  0
   21.8186   28.6801   12.6264 C   0  0  0  0  0  0  0  0  0  0  0  0
   21.8218   29.8232   12.1546 O   0  0  0  0  0  0  0  0  0  0  0  0
   20.9091   28.2640   13.5167 N   0  0  0  0  0  0  0  0  0  0  0  0
   20.9837   27.3445   13.8604 H   0  0  0  0  0  0  0  0  0  0  0  0
   22.8802   27.6737   12.2010 C   0  0  0  0  0  0  0  0  0  0  0  0
   24.2471   28.3388   12.0370 C   0  0  0  0  0  0  0  0  0  0  0  0
   21.7393   25.1380   11.9102 O   0  0  0  0  0  0  0  0  0  0  0  0
   21.8922   25.8282   10.9073 C   0  0  0  0  0  0  0  0  0  0  0  0
   21.4684   25.2595    9.5640 C   0  0  0  0  0  0  0  0  0  0  0  0
   22.4401   27.0477   10.9577 N   0  0  0  0  0  0  0  0  0  0  0  0
   22.5518   27.5467   10.1164 H   0  0  0  0  0  0  0  0  0  0  0  0
   18.5490   28.2208   13.9583 C   0  0  0  0  0  0  0  0  0  0  0  0
   18.2945   27.7465   12.5238 C   0  0  0  0  0  0  0  0  0  0  0  0
   18.0704   28.6638   11.5005 C   0  0  0  0  0  0  0  0  0  0  0  0
   17.8477   28.2315   10.1946 C   0  0  0  0  0  0  0  0  0  0  0  0
   17.8590   26.8763    9.8964 C   0  0  0  0  0  0  0  0  0  0  0  0
   18.0905   25.9533   10.9070 C   0  0  0  0  0  0  0  0  0  0  0  0
   18.3069   26.3865   12.2153 C   0  0  0  0  0  0  0  0  0  0  0  0
   19.0892   30.6048   15.9561 C   0  0  0  0  0  0  0  0  0  0  0  0
   19.3939   31.9419   15.3773 N   0  0  0  0  0  0  0  0  0  0  0  0
   18.1653   32.6594   14.5812 S   0  0  0  0  0  0  0  0  0  0  0  0
   18.8299   33.5047   13.6522 O   0  0  0  0  0  0  0  0  0  0  0  0
   17.4719   31.6298   13.8750 O   0  0  0  0  0  0  0  0  0  0  0  0
   17.1297   33.5545   15.4807 C   0  0  0  0  0  0  0  0  0  0  0  0
   17.1007   34.9511   15.3828 C   0  0  0  0  0  0  0  0  0  0  0  0
   16.2173   35.7382   16.1457 C   0  0  0  0  0  0  0  0  0  0  0  0
   16.2038   37.0874   16.0620 F   0  0  0  0  0  0  0  0  0  0  0  0
   16.2190   32.9765   16.3734 C   0  0  0  0  0  0  0  0  0  0  0  0
   16.1609   31.6560   16.5257 F   0  0  0  0  0  0  0  0  0  0  0  0
   15.3281   33.7530   17.1343 C   0  0  0  0  0  0  0  0  0  0  0  0
   15.3284   35.1346   17.0239 C   0  0  0  0  0  0  0  0  0  0  0  0
   14.4838   35.9000   17.7514 F   0  0  0  0  0  0  0  0  0  0  0  0
   20.1215   32.8770   16.2854 C   0  0  0  0  0  0  0  0  0  0  0  0
   21.5821   32.9391   15.8491 C   0  0  0  0  0  0  0  0  0  0  0  0
   21.9688   32.6395   14.5849 C   0  0  0  0  0  0  0  0  0  0  0  0
   23.3752   32.8253   14.4904 C   0  0  0  0  0  0  0  0  0  0  0  0
   23.9206   33.2358   15.6446 C   0  0  0  0  0  0  0  0  0  0  0  0
   22.8242   33.4164   16.8773 S   0  0  0  0  0  0  0  0  0  0  0  0
 11 12  2  0  0  0
 12 13  1  0  0  0
 12 14  1  0  0  0
 14  9  1  0  0  0
  9 10  1  0  0  0
  9  5  1  0  0  0
  5  6  2  0  0  0
  5  7  1  0  0  0
  7  4  1  0  0  0
  4 16  1  0  0  0
  4  1  1  0  0  0
 16 17  1  0  0  0
 17 18  2  0  0  0
 17 22  1  0  0  0
 18 19  1  0  0  0
 19 20  2  0  0  0
 20 21  1  0  0  0
 21 22  2  0  0  0
  1 23  1  0  0  0
  1  2  1  0  0  0
 23 24  1  0  0  0
 24 25  1  0  0  0
 24 37  1  0  0  0
 25 26  2  0  0  0
 25 27  2  0  0  0
 25 28  1  0  0  0
 28 29  2  0  0  0
 28 32  1  0  0  0
 29 30  1  0  0  0
 30 31  1  0  0  0
 30 35  2  0  0  0
 32 33  1  0  0  0
 32 34  2  0  0  0
 34 35  1  0  0  0
 35 36  1  0  0  0
 37 38  1  0  0  0
 38 42  1  0  0  0
 38 39  2  0  0  0
 39 40  1  0  0  0
 40 41  2  0  0  0
 41 42  1  0  0  0
 14 15  1  0  0  0
  7  8  1  0  0  0
  2  3  1  0  0  0
M  END
> <minimizedAffinity>
-10.23802

$$$$
2QHY_MZ1_A_200


 42 44  0  0  0  0  0  0  0  0999 V2000
   20.9755   29.2507   14.5760 C   0  0  0  0  0  0  0  0  0  0  0  0
   21.2207   28.2789   15.6002 O   0  0  0  0  0  0  0  0  0  0  0  0
   20.5831   27.5527   15.5161 H   0  0  0  0  0  0  0  0  0  0  0  0
   21.1803   28.6312   13.1838 C   0  0  0  0  0  0  0  0  0  0  0  0
   19.2924   27.9768   11.7166 C   0  0  0  0  0  0  0  0  0  0  0  0
   19.5508   26.7704   11.8002 O   0  0  0  0  0  0  0  0  0  0  0  0
   20.0051   28.9180   12.3484 N   0  0  0  0  0  0  0  0  0  0  0  0
   19.7258   29.8567   12.2476 H   0  0  0  0  0  0  0  0  0  0  0  0
   18.1193   28.4512   10.8682 C   0  0  0  0  0  0  0  0  0  0  0  0
   17.0234   29.0782   11.7304 C   0  0  0  0  0  0  0  0  0  0  0  0
   18.5940   27.8780    8.1734 O   0  0  0  0  0  0  0  0  0  0  0  0
   17.8986   27.1025    8.8218 C   0  0  0  0  0  0  0  0  0  0  0  0
   17.3222   25.8850    8.1197 C   0  0  0  0  0  0  0  0  0  0  0  0
   17.6141   27.3087   10.1127 N   0  0  0  0  0  0  0  0  0  0  0  0
   17.0365   26.6592   10.5751 H   0  0  0  0  0  0  0  0  0  0  0  0
   22.3861   29.2168   12.4366 C   0  0  0  0  0  0  0  0  0  0  0  0
   23.2648   28.0898   11.8843 C   0  0  0  0  0  0  0  0  0  0  0  0
   22.7660   26.7960   11.7575 C   0  0  0  0  0  0  0  0  0  0  0  0
   23.5633   25.7736   11.2468 C   0  0  0  0  0  0  0  0  0  0  0  0
   24.8653   26.0378   10.8459 C   0  0  0  0  0  0  0  0  0  0  0  0
   25.3700   27.3259   10.9592 C   0  0  0  0  0  0  0  0  0  0  0  0
   24.5733   28.3475   11.4766 C   0  0  0  0  0  0  0  0  0  0  0  0
   19.5555   29.8504   14.7441 C   0  0  0  0  0  0  0  0  0  0  0  0
   19.6872   31.3153   14.9729 N   0  0  0  0  0  0  0  0  0  0  0  0
   18.6356   32.2519   14.1514 S   0  0  0  0  0  0  0  0  0  0  0  0
   19.4788   33.1903   13.4972 O   0  0  0  0  0  0  0  0  0  0  0  0
   18.0097   31.4160   13.1773 O   0  0  0  0  0  0  0  0  0  0  0  0
   17.5190   33.0567   15.0394 C   0  0  0  0  0  0  0  0  0  0  0  0
   17.3698   34.4451   14.9359 C   0  0  0  0  0  0  0  0  0  0  0  0
   16.4154   35.1550   15.6890 C   0  0  0  0  0  0  0  0  0  0  0  0
   16.2856   36.4977   15.6001 F   0  0  0  0  0  0  0  0  0  0  0  0
   16.6546   32.4046   15.9270 C   0  0  0  0  0  0  0  0  0  0  0  0
   16.7100   31.0846   16.0839 F   0  0  0  0  0  0  0  0  0  0  0  0
   15.6936   33.1033   16.6781 C   0  0  0  0  0  0  0  0  0  0  0  0
   15.5751   34.4794   16.5624 C   0  0  0  0  0  0  0  0  0  0  0  0
   14.6613   35.1708   17.2804 F   0  0  0  0  0  0  0  0  0  0  0  0
   19.8363   31.7250   16.4005 C   0  0  0  0  0  0  0  0  0  0  0  0
   20.9984   32.7080   16.5046 C   0  0  0  0  0  0  0  0  0  0  0  0
   22.2777   32.3393   16.2504 C   0  0  0  0  0  0  0  0  0  0  0  0
   23.1116   33.4812   16.3999 C   0  0  0  0  0  0  0  0  0  0  0  0
   22.4246   34.5812   16.7408 C   0  0  0  0  0  0  0  0  0  0  0  0
   20.7923   34.3287   16.9031 S   0  0  0  0  0  0  0  0  0  0  0  0
 11 12  2  0  0  0
 12 13  1  0  0  0
 12 14  1  0  0  0
 14  9  1  0  0  0
  9 10  1  0  0  0
  9  5  1  0  0  0
  5  6  2  0  0  0
  5  7  1  0  0  0
  7  4  1  0  0  0
  4 16  1  0  0  0
  4  1  1  0  0  0
 16 17  1  0  0  0
 17 18  2  0  0  0
 17 22  1  0  0  0
 18 19  1  0  0  0
 19 20  2  0  0  0
 20 21  1  0  0  0
 21 22  2  0  0  0
  1 23  1  0  0  0
  1  2  1  0  0  0
 23 24  1  0  0  0
 24 25  1  0  0  0
 24 37  1  0  0  0
 25 26  2  0  0  0
 25 27  2  0  0  0
 25 28  1  0  0  0
 28 29  2  0  0  0
 28 32  1  0  0  0
 29 30  1  0  0  0
 30 31  1  0  0  0
 30 35  2  0  0  0
 32 33  1  0  0  0
 32 34  2  0  0  0
 34 35  1  0  0  0
 35 36  1  0  0  0
 37 38  1  0  0  0
 38 42  1  0  0  0
 38 39  2  0  0  0
 39 40  1  0  0  0
 40 41  2  0  0  0
 41 42  1  0  0  0
 14 15  1  0  0  0
  7  8  1  0  0  0
  2  3  1  0  0  0
M  END
> <minimizedAffinity>
-9.51769

$$$$
2QHY_MZ1_A_200


 42 44  0  0  0  0  0  0  0  0999 V2000
   20.1318   29.5537   14.9369 C   0  0  0  0  0  0  0  0  0  0  0  0
   20.3073   28.5209   15.9148 O   0  0  0  0  0  0  0  0  0  0  0  0
   19.4924   27.9994   15.9841 H   0  0  0  0  0  0  0  0  0  0  0  0
   19.8680   28.9448   13.5500 C   0  0  0  0  0  0  0  0  0  0  0  0
   22.0149   28.5490   12.3754 C   0  0  0  0  0  0  0  0  0  0  0  0
   22.0660   29.7008   11.9284 O   0  0  0  0  0  0  0  0  0  0  0  0
   21.0179   28.1168   13.1579 N   0  0  0  0  0  0  0  0  0  0  0  0
   21.0572   27.1909   13.4900 H   0  0  0  0  0  0  0  0  0  0  0  0
   23.1161   27.5498   12.0439 C   0  0  0  0  0  0  0  0  0  0  0  0
   24.4769   28.2367   11.9254 C   0  0  0  0  0  0  0  0  0  0  0  0
   21.6794   25.1643   11.7968 O   0  0  0  0  0  0  0  0  0  0  0  0
   22.0521   25.7303   10.7739 C   0  0  0  0  0  0  0  0  0  0  0  0
   21.7261   25.0946    9.4334 C   0  0  0  0  0  0  0  0  0  0  0  0
   22.7535   26.8692   10.8043 N   0  0  0  0  0  0  0  0  0  0  0  0
   23.0387   27.2671    9.9502 H   0  0  0  0  0  0  0  0  0  0  0  0
   18.6467   28.0158   13.5237 C   0  0  0  0  0  0  0  0  0  0  0  0
   18.4156   27.4855   12.1050 C   0  0  0  0  0  0  0  0  0  0  0  0
   18.3009   26.1185   11.8664 C   0  0  0  0  0  0  0  0  0  0  0  0
   18.0820   25.6379   10.5769 C   0  0  0  0  0  0  0  0  0  0  0  0
   17.9632   26.5214    9.5134 C   0  0  0  0  0  0  0  0  0  0  0  0
   18.0666   27.8868    9.7410 C   0  0  0  0  0  0  0  0  0  0  0  0
   18.2923   28.3668   11.0312 C   0  0  0  0  0  0  0  0  0  0  0  0
   18.9963   30.5130   15.3780 C   0  0  0  0  0  0  0  0  0  0  0  0
   19.5228   31.9052   15.3605 N   0  0  0  0  0  0  0  0  0  0  0  0
   18.4186   33.0704   15.0761 S   0  0  0  0  0  0  0  0  0  0  0  0
   19.0377   33.8675   14.0759 O   0  0  0  0  0  0  0  0  0  0  0  0
   17.2689   32.4263   14.5259 O   0  0  0  0  0  0  0  0  0  0  0  0
   18.0083   34.0200   16.3460 C   0  0  0  0  0  0  0  0  0  0  0  0
   16.8145   33.8186   17.0497 C   0  0  0  0  0  0  0  0  0  0  0  0
   16.4445   34.6226   18.1445 C   0  0  0  0  0  0  0  0  0  0  0  0
   15.2830   34.4370   18.8108 F   0  0  0  0  0  0  0  0  0  0  0  0
   18.8271   35.0614   16.7994 C   0  0  0  0  0  0  0  0  0  0  0  0
   19.9884   35.3216   16.2045 F   0  0  0  0  0  0  0  0  0  0  0  0
   18.4701   35.8651   17.8958 C   0  0  0  0  0  0  0  0  0  0  0  0
   17.2772   35.6489   18.5675 C   0  0  0  0  0  0  0  0  0  0  0  0
   16.9125   36.4146   19.6207 F   0  0  0  0  0  0  0  0  0  0  0  0
   20.4529   32.2473   16.4769 C   0  0  0  0  0  0  0  0  0  0  0  0
   21.7971   32.6546   15.8813 C   0  0  0  0  0  0  0  0  0  0  0  0
   22.7867   33.1895   16.6375 C   0  0  0  0  0  0  0  0  0  0  0  0
   23.9120   33.4261   15.8012 C   0  0  0  0  0  0  0  0  0  0  0  0
   23.6944   33.0647   14.5283 C   0  0  0  0  0  0  0  0  0  0  0  0
   22.1796   32.4432   14.2575 S   0  0  0  0  0  0  0  0  0  0  0  0
 11 12  2  0  0  0
 12 13  1  0  0  0
 12 14  1  0  0  0
 14  9  1  0  0  0
  9 10  1  0  0  0
  9  5  1  0  0  0
  5  6  2  0  0  0
  5  7  1  0  0  0
  7  4  1  0  0  0
  4 16  1  0  0  0
  4  1  1  0  0  0
 16 17  1  0  0  0
 17 18  2  0  0  0
 17 22  1  0  0  0
 18 19  1  0  0  0
 19 20  2  0  0  0
 20 21  1  0  0  0
 21 22  2  0  0  0
  1 23  1  0  0  0
  1  2  1  0  0  0
 23 24  1  0  0  0
 24 25  1  0  0  0
 24 37  1  0  0  0
 25 26  2  0  0  0
 25 27  2  0  0  0
 25 28  1  0  0  0
 28 29  2  0  0  0
 28 32  1  0  0  0
 29 30  1  0  0  0
 30 31  1  0  0  0
 30 35  2  0  0  0
 32 33  1  0  0  0
 32 34  2  0  0  0
 34 35  1  0  0  0
 35 36  1  0  0  0
 37 38  1  0  0  0
 38 42  1  0  0  0
 38 39  2  0  0  0
 39 40  1  0  0  0
 40 41  2  0  0  0
 41 42  1  0  0  0
 14 15  1  0  0  0
  7  8  1  0  0  0
  2  3  1  0  0  0
M  END
> <minimizedAffinity>
-9.49778

$$$$
2QHY_MZ1_A_200


 42 44  0  0  0  0  0  0  0  0999 V2000
   18.4121   31.6091   15.6002 C   0  0  0  0  0  0  0  0  0  0  0  0
   18.4395   30.6958   16.7042 O   0  0  0  0  0  0  0  0  0  0  0  0
   17.6793   30.0961   16.6466 H   0  0  0  0  0  0  0  0  0  0  0  0
   18.5375   30.8505   14.2688 C   0  0  0  0  0  0  0  0  0  0  0  0
   20.5278   31.4660   12.9252 C   0  0  0  0  0  0  0  0  0  0  0  0
   19.9079   32.3011   12.2564 O   0  0  0  0  0  0  0  0  0  0  0  0
   19.9574   30.7485   13.9013 N   0  0  0  0  0  0  0  0  0  0  0  0
   20.5216   30.1158   14.4020 H   0  0  0  0  0  0  0  0  0  0  0  0
   22.0063   31.2153   12.6569 C   0  0  0  0  0  0  0  0  0  0  0  0
   22.2492   29.7935   12.1497 C   0  0  0  0  0  0  0  0  0  0  0  0
   22.7101   33.7111   13.7017 O   0  0  0  0  0  0  0  0  0  0  0  0
   23.0301   32.7049   14.3268 C   0  0  0  0  0  0  0  0  0  0  0  0
   23.8041   32.8721   15.6231 C   0  0  0  0  0  0  0  0  0  0  0  0
   22.7419   31.4732   13.8913 N   0  0  0  0  0  0  0  0  0  0  0  0
   23.0400   30.7041   14.4288 H   0  0  0  0  0  0  0  0  0  0  0  0
   18.0138   29.4100   14.3460 C   0  0  0  0  0  0  0  0  0  0  0  0
   17.9179   28.8057   12.9414 C   0  0  0  0  0  0  0  0  0  0  0  0
   17.2421   29.4743   11.9241 C   0  0  0  0  0  0  0  0  0  0  0  0
   17.1630   28.9279   10.6446 C   0  0  0  0  0  0  0  0  0  0  0  0
   17.7701   27.7115   10.3663 C   0  0  0  0  0  0  0  0  0  0  0  0
   18.4544   27.0406   11.3704 C   0  0  0  0  0  0  0  0  0  0  0  0
   18.5276   27.5852   12.6527 C   0  0  0  0  0  0  0  0  0  0  0  0
   17.1262   32.4735   15.6598 C   0  0  0  0  0  0  0  0  0  0  0  0
   17.4991   33.8413   16.1135 N   0  0  0  0  0  0  0  0  0  0  0  0
   16.3172   34.9600   16.0170 S   0  0  0  0  0  0  0  0  0  0  0  0
   16.5196   35.5367   14.7342 O   0  0  0  0  0  0  0  0  0  0  0  0
   15.0761   34.2537   16.0297 O   0  0  0  0  0  0  0  0  0  0  0  0
   16.3310   36.1435   17.1493 C   0  0  0  0  0  0  0  0  0  0  0  0
   16.7042   37.4542   16.8276 C   0  0  0  0  0  0  0  0  0  0  0  0
   16.7212   38.4858   17.7855 C   0  0  0  0  0  0  0  0  0  0  0  0
   17.0990   39.7463   17.4759 F   0  0  0  0  0  0  0  0  0  0  0  0
   15.9599   35.9133   18.4796 C   0  0  0  0  0  0  0  0  0  0  0  0
   15.5760   34.7036   18.8789 F   0  0  0  0  0  0  0  0  0  0  0  0
   15.9667   36.9378   19.4419 C   0  0  0  0  0  0  0  0  0  0  0  0
   16.3503   38.2242   19.0969 C   0  0  0  0  0  0  0  0  0  0  0  0
   16.3694   39.2224   20.0088 F   0  0  0  0  0  0  0  0  0  0  0  0
   18.2508   33.9011   17.4018 C   0  0  0  0  0  0  0  0  0  0  0  0
   19.4744   34.7918   17.2091 C   0  0  0  0  0  0  0  0  0  0  0  0
   20.2351   34.7367   16.0886 C   0  0  0  0  0  0  0  0  0  0  0  0
   21.2690   35.7063   16.2005 C   0  0  0  0  0  0  0  0  0  0  0  0
   21.2108   36.3927   17.3510 C   0  0  0  0  0  0  0  0  0  0  0  0
   19.9604   35.9356   18.3419 S   0  0  0  0  0  0  0  0  0  0  0  0
 11 12  2  0  0  0
 12 13  1  0  0  0
 12 14  1  0  0  0
 14  9  1  0  0  0
  9 10  1  0  0  0
  9  5  1  0  0  0
  5  6  2  0  0  0
  5  7  1  0  0  0
  7  4  1  0  0  0
  4 16  1  0  0  0
  4  1  1  0  0  0
 16 17  1  0  0  0
 17 18  2  0  0  0
 17 22  1  0  0  0
 18 19  1  0  0  0
 19 20  2  0  0  0
 20 21  1  0  0  0
 21 22  2  0  0  0
  1 23  1  0  0  0
  1  2  1  0  0  0
 23 24  1  0  0  0
 24 25  1  0  0  0
 24 37  1  0  0  0
 25 26  2  0  0  0
 25 27  2  0  0  0
 25 28  1  0  0  0
 28 29  2  0  0  0
 28 32  1  0  0  0
 29 30  1  0  0  0
 30 31  1  0  0  0
 30 35  2  0  0  0
 32 33  1  0  0  0
 32 34  2  0  0  0
 34 35  1  0  0  0
 35 36  1  0  0  0
 37 38  1  0  0  0
 38 42  1  0  0  0
 38 39  2  0  0  0
 39 40  1  0  0  0
 40 41  2  0  0  0
 41 42  1  0  0  0
 14 15  1  0  0  0
  7  8  1  0  0  0
  2  3  1  0  0  0
M  END
> <minimizedAffinity>
-9.07440

$$$$
2QHY_MZ1_A_200


 42 44  0  0  0  0  0  0  0  0999 V2000
   19.4706   29.2901   14.1523 C   0  0  0  0  0  0  0  0  0  0  0  0
   18.9236   28.4229   15.1535 O   0  0  0  0  0  0  0  0  0  0  0  0
   18.0110   28.1929   14.9187 H   0  0  0  0  0  0  0  0  0  0  0  0
   19.5223   28.5777   12.7908 C   0  0  0  0  0  0  0  0  0  0  0  0
   21.9007   28.5123   12.0949 C   0  0  0  0  0  0  0  0  0  0  0  0
   21.8903   29.6815   11.6924 O   0  0  0  0  0  0  0  0  0  0  0  0
   20.8287   27.9210   12.6372 N   0  0  0  0  0  0  0  0  0  0  0  0
   20.9206   26.9925   12.9514 H   0  0  0  0  0  0  0  0  0  0  0  0
   23.1700   27.6769   11.9866 C   0  0  0  0  0  0  0  0  0  0  0  0
   24.4227   28.5484   12.0825 C   0  0  0  0  0  0  0  0  0  0  0  0
   24.4872   25.2855   11.3848 O   0  0  0  0  0  0  0  0  0  0  0  0
   23.7812   25.7968   10.5213 C   0  0  0  0  0  0  0  0  0  0  0  0
   23.6763   25.1104    9.1702 C   0  0  0  0  0  0  0  0  0  0  0  0
   23.1258   26.9453   10.7240 N   0  0  0  0  0  0  0  0  0  0  0  0
   22.5881   27.3148    9.9866 H   0  0  0  0  0  0  0  0  0  0  0  0
   18.4702   27.4691   12.6520 C   0  0  0  0  0  0  0  0  0  0  0  0
   18.2705   27.1108   11.1758 C   0  0  0  0  0  0  0  0  0  0  0  0
   18.3489   28.0903   10.1893 C   0  0  0  0  0  0  0  0  0  0  0  0
   18.1757   27.7618    8.8461 C   0  0  0  0  0  0  0  0  0  0  0  0
   17.9343   26.4467    8.4747 C   0  0  0  0  0  0  0  0  0  0  0  0
   17.8633   25.4606    9.4490 C   0  0  0  0  0  0  0  0  0  0  0  0
   18.0302   25.7912   10.7939 C   0  0  0  0  0  0  0  0  0  0  0  0
   18.6552   30.6076   14.0904 C   0  0  0  0  0  0  0  0  0  0  0  0
   19.2814   31.5926   15.0141 N   0  0  0  0  0  0  0  0  0  0  0  0
   18.2521   32.6276   15.7402 S   0  0  0  0  0  0  0  0  0  0  0  0
   17.4741   33.1237   14.6596 O   0  0  0  0  0  0  0  0  0  0  0  0
   17.4232   31.8496   16.6044 O   0  0  0  0  0  0  0  0  0  0  0  0
   18.9221   33.8866   16.5457 C   0  0  0  0  0  0  0  0  0  0  0  0
   18.5308   34.2060   17.8518 C   0  0  0  0  0  0  0  0  0  0  0  0
   19.0953   35.2828   18.5616 C   0  0  0  0  0  0  0  0  0  0  0  0
   18.7029   35.5997   19.8159 F   0  0  0  0  0  0  0  0  0  0  0  0
   19.9205   34.6911   15.9834 C   0  0  0  0  0  0  0  0  0  0  0  0
   20.3690   34.4577   14.7527 F   0  0  0  0  0  0  0  0  0  0  0  0
   20.4955   35.7639   16.6863 C   0  0  0  0  0  0  0  0  0  0  0  0
   20.0814   36.0631   17.9747 C   0  0  0  0  0  0  0  0  0  0  0  0
   20.6174   37.0944   18.6657 F   0  0  0  0  0  0  0  0  0  0  0  0
   20.2953   31.0283   15.9531 C   0  0  0  0  0  0  0  0  0  0  0  0
   21.6333   31.7133   15.6919 C   0  0  0  0  0  0  0  0  0  0  0  0
   22.1900   31.7575   14.4568 C   0  0  0  0  0  0  0  0  0  0  0  0
   23.4063   32.4892   14.5392 C   0  0  0  0  0  0  0  0  0  0  0  0
   23.6637   32.9250   15.7810 C   0  0  0  0  0  0  0  0  0  0  0  0
   22.5085   32.4989   16.8939 S   0  0  0  0  0  0  0  0  0  0  0  0
 11 12  2  0  0  0
 12 13  1  0  0  0
 12 14  1  0  0  0
 14  9  1  0  0  0
  9 10  1  0  0  0
  9  5  1  0  0  0
  5  6  2  0  0  0
  5  7  1  0  0  0
  7  4  1  0  0  0
  4 16  1  0  0  0
  4  1  1  0  0  0
 16 17  1  0  0  0
 17 18  2  0  0  0
 17 22  1  0  0  0
 18 19  1  0  0  0
 19 20  2  0  0  0
 20 21  1  0  0  0
 21 22  2  0  0  0
  1 23  1  0  0  0
  1  2  1  0  0  0
 23 24  1  0  0  0
 24 25  1  0  0  0
 24 37  1  0  0  0
 25 26  2  0  0  0
 25 27  2  0  0  0
 25 28  1  0  0  0
 28 29  2  0  0  0
 28 32  1  0  0  0
 29 30  1  0  0  0
 30 31  1  0  0  0
 30 35  2  0  0  0
 32 33  1  0  0  0
 32 34  2  0  0  0
 34 35  1  0  0  0
 35 36  1  0  0  0
 37 38  1  0  0  0
 38 42  1  0  0  0
 38 39  2  0  0  0
 39 40  1  0  0  0
 40 41  2  0  0  0
 41 42  1  0  0  0
 14 15  1  0  0  0
  7  8  1  0  0  0
  2  3  1  0  0  0
M  END
> <minimizedAffinity>
-8.86056

$$$$
2QHY_MZ1_A_200


 42 44  0  0  0  0  0  0  0  0999 V2000
   18.5545   30.4576   14.9102 C   0  0  0  0  0  0  0  0  0  0  0  0
   17.3463   30.0719   15.5775 O   0  0  0  0  0  0  0  0  0  0  0  0
   17.5546   29.7735   16.4766 H   0  0  0  0  0  0  0  0  0  0  0  0
   19.2171   31.6408   15.6347 C   0  0  0  0  0  0  0  0  0  0  0  0
   17.8639   33.5487   16.4560 C   0  0  0  0  0  0  0  0  0  0  0  0
   18.2964   34.3209   15.5925 O   0  0  0  0  0  0  0  0  0  0  0  0
   18.2387   32.2657   16.5368 N   0  0  0  0  0  0  0  0  0  0  0  0
   17.8356   31.7084   17.2412 H   0  0  0  0  0  0  0  0  0  0  0  0
   16.8588   34.0415   17.4894 C   0  0  0  0  0  0  0  0  0  0  0  0
   15.4513   33.5242   17.1911 C   0  0  0  0  0  0  0  0  0  0  0  0
   15.9485   35.7292   19.5238 O   0  0  0  0  0  0  0  0  0  0  0  0
   16.4484   36.2360   18.5244 C   0  0  0  0  0  0  0  0  0  0  0  0
   16.5290   37.7506   18.4425 C   0  0  0  0  0  0  0  0  0  0  0  0
   16.8984   35.5008   17.5012 N   0  0  0  0  0  0  0  0  0  0  0  0
   17.2740   35.9660   16.7191 H   0  0  0  0  0  0  0  0  0  0  0  0
   20.4001   31.2195   16.5168 C   0  0  0  0  0  0  0  0  0  0  0  0
   21.6493   32.0261   16.1474 C   0  0  0  0  0  0  0  0  0  0  0  0
   22.0453   33.1165   16.9175 C   0  0  0  0  0  0  0  0  0  0  0  0
   23.1866   33.8441   16.5857 C   0  0  0  0  0  0  0  0  0  0  0  0
   23.9509   33.4805   15.4860 C   0  0  0  0  0  0  0  0  0  0  0  0
   23.5707   32.3896   14.7165 C   0  0  0  0  0  0  0  0  0  0  0  0
   22.4244   31.6657   15.0456 C   0  0  0  0  0  0  0  0  0  0  0  0
   19.5064   29.2392   14.7923 C   0  0  0  0  0  0  0  0  0  0  0  0
   19.5729   28.8305   13.3626 N   0  0  0  0  0  0  0  0  0  0  0  0
   18.1418   28.4787   12.6652 S   0  0  0  0  0  0  0  0  0  0  0  0
   17.4654   27.7345   13.6691 O   0  0  0  0  0  0  0  0  0  0  0  0
   17.4661   29.7196   12.4575 O   0  0  0  0  0  0  0  0  0  0  0  0
   18.1935   27.5997   11.2841 C   0  0  0  0  0  0  0  0  0  0  0  0
   18.2034   28.2181   10.0278 C   0  0  0  0  0  0  0  0  0  0  0  0
   18.2492   27.4807    8.8294 C   0  0  0  0  0  0  0  0  0  0  0  0
   18.2408   28.0799    7.6176 F   0  0  0  0  0  0  0  0  0  0  0  0
   18.2452   26.2005   11.2869 C   0  0  0  0  0  0  0  0  0  0  0  0
   18.2546   25.5227   12.4318 F   0  0  0  0  0  0  0  0  0  0  0  0
   18.2983   25.4555   10.0962 C   0  0  0  0  0  0  0  0  0  0  0  0
   18.2970   26.0944    8.8662 C   0  0  0  0  0  0  0  0  0  0  0  0
   18.3415   25.3959    7.7093 F   0  0  0  0  0  0  0  0  0  0  0  0
   20.4464   29.6784   12.4988 C   0  0  0  0  0  0  0  0  0  0  0  0
   21.7252   28.9045   12.1933 C   0  0  0  0  0  0  0  0  0  0  0  0
   22.9155   29.5260   12.0082 C   0  0  0  0  0  0  0  0  0  0  0  0
   23.9080   28.5343   11.7777 C   0  0  0  0  0  0  0  0  0  0  0  0
   23.4105   27.2894   11.8067 C   0  0  0  0  0  0  0  0  0  0  0  0
   21.7778   27.2264   12.0977 S   0  0  0  0  0  0  0  0  0  0  0  0
 11 12  2  0  0  0
 12 13  1  0  0  0
 12 14  1  0  0  0
 14  9  1  0  0  0
  9 10  1  0  0  0
  9  5  1  0  0  0
  5  6  2  0  0  0
  5  7  1  0  0  0
  7  4  1  0  0  0
  4 16  1  0  0  0
  4  1  1  0  0  0
 16 17  1  0  0  0
 17 18  2  0  0  0
 17 22  1  0  0  0
 18 19  1  0  0  0
 19 20  2  0  0  0
 20 21  1  0  0  0
 21 22  2  0  0  0
  1 23  1  0  0  0
  1  2  1  0  0  0
 23 24  1  0  0  0
 24 25  1  0  0  0
 24 37  1  0  0  0
 25 26  2  0  0  0
 25 27  2  0  0  0
 25 28  1  0  0  0
 28 29  2  0  0  0
 28 32  1  0  0  0
 29 30  1  0  0  0
 30 31  1  0  0  0
 30 35  2  0  0  0
 32 33  1  0  0  0
 32 34  2  0  0  0
 34 35  1  0  0  0
 35 36  1  0  0  0
 37 38  1  0  0  0
 38 42  1  0  0  0
 38 39  2  0  0  0
 39 40  1  0  0  0
 40 41  2  0  0  0
 41 42  1  0  0  0
 14 15  1  0  0  0
  7  8  1  0  0  0
  2  3  1  0  0  0
M  END
> <minimizedAffinity>
-8.72413

$$$$
2QHY_MZ1_A_200


 42 44  0  0  0  0  0  0  0  0999 V2000
   19.7476   35.4777   18.9444 C   0  0  0  0  0  0  0  0  0  0  0  0
   20.1350   34.9910   20.2354 O   0  0  0  0  0  0  0  0  0  0  0  0
   20.1928   34.0230   20.2121 H   0  0  0  0  0  0  0  0  0  0  0  0
   20.8072   35.1156   17.8908 C   0  0  0  0  0  0  0  0  0  0  0  0
   21.3016   32.9727   16.7466 C   0  0  0  0  0  0  0  0  0  0  0  0
   22.5256   33.1234   16.8370 O   0  0  0  0  0  0  0  0  0  0  0  0
   20.4227   33.8604   17.2289 N   0  0  0  0  0  0  0  0  0  0  0  0
   19.4632   33.6608   17.1348 H   0  0  0  0  0  0  0  0  0  0  0  0
   20.7311   31.7359   16.0643 C   0  0  0  0  0  0  0  0  0  0  0  0
   20.0158   30.8261   17.0636 C   0  0  0  0  0  0  0  0  0  0  0  0
   20.6478   30.4663   13.5749 O   0  0  0  0  0  0  0  0  0  0  0  0
   21.7054   30.4632   14.1971 C   0  0  0  0  0  0  0  0  0  0  0  0
   22.9035   29.7562   13.5871 C   0  0  0  0  0  0  0  0  0  0  0  0
   21.8273   31.0380   15.3990 N   0  0  0  0  0  0  0  0  0  0  0  0
   22.6976   30.9879   15.8566 H   0  0  0  0  0  0  0  0  0  0  0  0
   20.9296   36.1636   16.7764 C   0  0  0  0  0  0  0  0  0  0  0  0
   21.7727   37.3497   17.2556 C   0  0  0  0  0  0  0  0  0  0  0  0
   22.8920   37.1483   18.0590 C   0  0  0  0  0  0  0  0  0  0  0  0
   23.6632   38.2272   18.4871 C   0  0  0  0  0  0  0  0  0  0  0  0
   23.3292   39.5189   18.1055 C   0  0  0  0  0  0  0  0  0  0  0  0
   22.2209   39.7306   17.2972 C   0  0  0  0  0  0  0  0  0  0  0  0
   21.4456   38.6506   16.8744 C   0  0  0  0  0  0  0  0  0  0  0  0
   18.3448   34.9323   18.5720 C   0  0  0  0  0  0  0  0  0  0  0  0
   17.5100   36.0680   18.0935 N   0  0  0  0  0  0  0  0  0  0  0  0
   16.5405   35.7413   16.8241 S   0  0  0  0  0  0  0  0  0  0  0  0
   15.2488   35.6691   17.4119 O   0  0  0  0  0  0  0  0  0  0  0  0
   16.6034   36.8712   15.9531 O   0  0  0  0  0  0  0  0  0  0  0  0
   16.8406   34.3532   16.0080 C   0  0  0  0  0  0  0  0  0  0  0  0
   17.8311   34.2893   15.0202 C   0  0  0  0  0  0  0  0  0  0  0  0
   18.1055   33.1059   14.3088 C   0  0  0  0  0  0  0  0  0  0  0  0
   19.0502   33.0519   13.3433 F   0  0  0  0  0  0  0  0  0  0  0  0
   16.1415   33.1671   16.2626 C   0  0  0  0  0  0  0  0  0  0  0  0
   15.1913   33.1242   17.1930 F   0  0  0  0  0  0  0  0  0  0  0  0
   16.4127   31.9787   15.5628 C   0  0  0  0  0  0  0  0  0  0  0  0
   17.3925   31.9474   14.5830 C   0  0  0  0  0  0  0  0  0  0  0  0
   17.6646   30.8160   13.8943 F   0  0  0  0  0  0  0  0  0  0  0  0
   16.8207   36.8460   19.1648 C   0  0  0  0  0  0  0  0  0  0  0  0
   17.1399   38.3254   18.9722 C   0  0  0  0  0  0  0  0  0  0  0  0
   18.4060   38.8037   19.0452 C   0  0  0  0  0  0  0  0  0  0  0  0
   18.3726   40.2019   18.7887 C   0  0  0  0  0  0  0  0  0  0  0  0
   17.1328   40.6536   18.5499 C   0  0  0  0  0  0  0  0  0  0  0  0
   15.9655   39.4758   18.6184 S   0  0  0  0  0  0  0  0  0  0  0  0
 11 12  2  0  0  0
 12 13  1  0  0  0
 12 14  1  0  0  0
 14  9  1  0  0  0
  9 10  1  0  0  0
  9  5  1  0  0  0
  5  6  2  0  0  0
  5  7  1  0  0  0
  7  4  1  0  0  0
  4 16  1  0  0  0
  4  1  1  0  0  0
 16 17  1  0  0  0
 17 18  2  0  0  0
 17 22  1  0  0  0
 18 19  1  0  0  0
 19 20  2  0  0  0
 20 21  1  0  0  0
 21 22  2  0  0  0
  1 23  1  0  0  0
  1  2  1  0  0  0
 23 24  1  0  0  0
 24 25  1  0  0  0
 24 37  1  0  0  0
 25 26  2  0  0  0
 25 27  2  0  0  0
 25 28  1  0  0  0
 28 29  2  0  0  0
 28 32  1  0  0  0
 29 30  1  0  0  0
 30 31  1  0  0  0
 30 35  2  0  0  0
 32 33  1  0  0  0
 32 34  2  0  0  0
 34 35  1  0  0  0
 35 36  1  0  0  0
 37 38  1  0  0  0
 38 42  1  0  0  0
 38 39  2  0  0  0
 39 40  1  0  0  0
 40 41  2  0  0  0
 41 42  1  0  0  0
 14 15  1  0  0  0
  7  8  1  0  0  0
  2  3  1  0  0  0
M  END
> <minimizedAffinity>
-8.54439

$$$$
2QHY_MZ1_A_200


 42 44  0  0  0  0  0  0  0  0999 V2000
   19.4588   35.6562   18.7913 C   0  0  0  0  0  0  0  0  0  0  0  0
   20.0776   35.1442   19.9783 O   0  0  0  0  0  0  0  0  0  0  0  0
   20.1969   34.1853   19.8928 H   0  0  0  0  0  0  0  0  0  0  0  0
   20.3609   35.4223   17.5684 C   0  0  0  0  0  0  0  0  0  0  0  0
   21.4695   37.6359   17.6959 C   0  0  0  0  0  0  0  0  0  0  0  0
   21.8545   37.4571   18.8573 O   0  0  0  0  0  0  0  0  0  0  0  0
   20.7701   36.7206   17.0131 N   0  0  0  0  0  0  0  0  0  0  0  0
   20.5152   36.9292   16.0854 H   0  0  0  0  0  0  0  0  0  0  0  0
   21.7861   38.9413   16.9771 C   0  0  0  0  0  0  0  0  0  0  0  0
   22.9667   39.6645   17.6259 C   0  0  0  0  0  0  0  0  0  0  0  0
   20.6698   40.3098   14.8099 O   0  0  0  0  0  0  0  0  0  0  0  0
   20.1093   40.3840   15.8989 C   0  0  0  0  0  0  0  0  0  0  0  0
   18.8512   41.2278   16.0109 C   0  0  0  0  0  0  0  0  0  0  0  0
   20.5835   39.7689   16.9883 N   0  0  0  0  0  0  0  0  0  0  0  0
   20.0984   39.8797   17.8378 H   0  0  0  0  0  0  0  0  0  0  0  0
   21.6587   34.6788   17.9121 C   0  0  0  0  0  0  0  0  0  0  0  0
   22.0124   33.6887   16.7976 C   0  0  0  0  0  0  0  0  0  0  0  0
   21.2387   32.5508   16.5851 C   0  0  0  0  0  0  0  0  0  0  0  0
   21.5562   31.6555   15.5655 C   0  0  0  0  0  0  0  0  0  0  0  0
   22.6450   31.8959   14.7395 C   0  0  0  0  0  0  0  0  0  0  0  0
   23.4179   33.0320   14.9363 C   0  0  0  0  0  0  0  0  0  0  0  0
   23.1032   33.9244   15.9613 C   0  0  0  0  0  0  0  0  0  0  0  0
   18.0553   35.0224   18.6103 C   0  0  0  0  0  0  0  0  0  0  0  0
   17.1415   36.0547   18.0491 N   0  0  0  0  0  0  0  0  0  0  0  0
   16.4003   35.6529   16.6537 S   0  0  0  0  0  0  0  0  0  0  0  0
   15.0396   35.5108   17.0378 O   0  0  0  0  0  0  0  0  0  0  0  0
   16.5320   36.7727   15.7773 O   0  0  0  0  0  0  0  0  0  0  0  0
   16.9024   34.2746   15.9250 C   0  0  0  0  0  0  0  0  0  0  0  0
   17.9365   34.2855   14.9809 C   0  0  0  0  0  0  0  0  0  0  0  0
   18.3835   33.1119   14.3446 C   0  0  0  0  0  0  0  0  0  0  0  0
   19.3700   33.1281   13.4205 F   0  0  0  0  0  0  0  0  0  0  0  0
   16.3413   33.0252   16.2155 C   0  0  0  0  0  0  0  0  0  0  0  0
   15.3627   32.9105   17.1097 F   0  0  0  0  0  0  0  0  0  0  0  0
   16.7853   31.8468   15.5911 C   0  0  0  0  0  0  0  0  0  0  0  0
   17.8045   31.8891   14.6528 C   0  0  0  0  0  0  0  0  0  0  0  0
   18.2420   30.7679   14.0364 F   0  0  0  0  0  0  0  0  0  0  0  0
   16.2177   36.6897   19.0348 C   0  0  0  0  0  0  0  0  0  0  0  0
   16.3808   38.2041   18.9473 C   0  0  0  0  0  0  0  0  0  0  0  0
   15.3680   39.0153   18.5557 C   0  0  0  0  0  0  0  0  0  0  0  0
   15.8240   40.3609   18.6120 C   0  0  0  0  0  0  0  0  0  0  0  0
   17.0956   40.4582   19.0266 C   0  0  0  0  0  0  0  0  0  0  0  0
   17.8055   38.9958   19.3608 S   0  0  0  0  0  0  0  0  0  0  0  0
 11 12  2  0  0  0
 12 13  1  0  0  0
 12 14  1  0  0  0
 14  9  1  0  0  0
  9 10  1  0  0  0
  9  5  1  0  0  0
  5  6  2  0  0  0
  5  7  1  0  0  0
  7  4  1  0  0  0
  4 16  1  0  0  0
  4  1  1  0  0  0
 16 17  1  0  0  0
 17 18  2  0  0  0
 17 22  1  0  0  0
 18 19  1  0  0  0
 19 20  2  0  0  0
 20 21  1  0  0  0
 21 22  2  0  0  0
  1 23  1  0  0  0
  1  2  1  0  0  0
 23 24  1  0  0  0
 24 25  1  0  0  0
 24 37  1  0  0  0
 25 26  2  0  0  0
 25 27  2  0  0  0
 25 28  1  0  0  0
 28 29  2  0  0  0
 28 32  1  0  0  0
 29 30  1  0  0  0
 30 31  1  0  0  0
 30 35  2  0  0  0
 32 33  1  0  0  0
 32 34  2  0  0  0
 34 35  1  0  0  0
 35 36  1  0  0  0
 37 38  1  0  0  0
 38 42  1  0  0  0
 38 39  2  0  0  0
 39 40  1  0  0  0
 40 41  2  0  0  0
 41 42  1  0  0  0
 14 15  1  0  0  0
  7  8  1  0  0  0
  2  3  1  0  0  0
M  END
> <minimizedAffinity>
-8.50469

$$$$
2QHY_MZ1_A_200


 42 44  0  0  0  0  0  0  0  0999 V2000
   21.2323   29.3346   13.4398 C   0  0  0  0  0  0  0  0  0  0  0  0
   21.4000   27.9269   13.6498 O   0  0  0  0  0  0  0  0  0  0  0  0
   21.7502   27.5190   12.8424 H   0  0  0  0  0  0  0  0  0  0  0  0
   22.5865   30.0022   13.1494 C   0  0  0  0  0  0  0  0  0  0  0  0
   22.2087   32.3703   13.7777 C   0  0  0  0  0  0  0  0  0  0  0  0
   21.5015   32.5954   12.7886 O   0  0  0  0  0  0  0  0  0  0  0  0
   22.7486   31.1705   14.0270 N   0  0  0  0  0  0  0  0  0  0  0  0
   23.2852   31.0646   14.8455 H   0  0  0  0  0  0  0  0  0  0  0  0
   22.5001   33.4809   14.7789 C   0  0  0  0  0  0  0  0  0  0  0  0
   23.8824   33.3150   15.4110 C   0  0  0  0  0  0  0  0  0  0  0  0
   21.3047   35.7014   15.9857 O   0  0  0  0  0  0  0  0  0  0  0  0
   20.9206   34.5823   16.3111 C   0  0  0  0  0  0  0  0  0  0  0  0
   19.8300   34.4671   17.3621 C   0  0  0  0  0  0  0  0  0  0  0  0
   21.4472   33.4683   15.7902 N   0  0  0  0  0  0  0  0  0  0  0  0
   21.1087   32.5986   16.1037 H   0  0  0  0  0  0  0  0  0  0  0  0
   23.7829   29.0851   13.4372 C   0  0  0  0  0  0  0  0  0  0  0  0
   24.1014   28.2290   12.2072 C   0  0  0  0  0  0  0  0  0  0  0  0
   23.8657   28.7132   10.9231 C   0  0  0  0  0  0  0  0  0  0  0  0
   24.1640   27.9369    9.8049 C   0  0  0  0  0  0  0  0  0  0  0  0
   24.7129   26.6718    9.9595 C   0  0  0  0  0  0  0  0  0  0  0  0
   24.9606   26.1826   11.2347 C   0  0  0  0  0  0  0  0  0  0  0  0
   24.6557   26.9577   12.3538 C   0  0  0  0  0  0  0  0  0  0  0  0
   20.2051   29.5819   12.3049 C   0  0  0  0  0  0  0  0  0  0  0  0
   18.8653   29.7890   12.9196 N   0  0  0  0  0  0  0  0  0  0  0  0
   17.6740   28.8356   12.3453 S   0  0  0  0  0  0  0  0  0  0  0  0
   17.2912   28.0737   13.4821 O   0  0  0  0  0  0  0  0  0  0  0  0
   16.5996   29.6972   11.9674 O   0  0  0  0  0  0  0  0  0  0  0  0
   18.0701   27.8199   11.1229 C   0  0  0  0  0  0  0  0  0  0  0  0
   18.0494   28.2440    9.7886 C   0  0  0  0  0  0  0  0  0  0  0  0
   18.3878   27.3873    8.7240 C   0  0  0  0  0  0  0  0  0  0  0  0
   18.3497   27.7944    7.4354 F   0  0  0  0  0  0  0  0  0  0  0  0
   18.4605   26.4939   11.3460 C   0  0  0  0  0  0  0  0  0  0  0  0
   18.5250   26.0026   12.5808 F   0  0  0  0  0  0  0  0  0  0  0  0
   18.8071   25.6327   10.2907 C   0  0  0  0  0  0  0  0  0  0  0  0
   18.7680   26.0772    8.9785 C   0  0  0  0  0  0  0  0  0  0  0  0
   19.0917   25.2629    7.9486 F   0  0  0  0  0  0  0  0  0  0  0  0
   18.8581   29.8931   14.4087 C   0  0  0  0  0  0  0  0  0  0  0  0
   18.2382   31.2315   14.7987 C   0  0  0  0  0  0  0  0  0  0  0  0
   18.4087   32.3487   14.0504 C   0  0  0  0  0  0  0  0  0  0  0  0
   17.6836   33.4102   14.6579 C   0  0  0  0  0  0  0  0  0  0  0  0
   17.0455   33.0275   15.7735 C   0  0  0  0  0  0  0  0  0  0  0  0
   17.2672   31.4282   16.1575 S   0  0  0  0  0  0  0  0  0  0  0  0
 11 12  2  0  0  0
 12 13  1  0  0  0
 12 14  1  0  0  0
 14  9  1  0  0  0
  9 10  1  0  0  0
  9  5  1  0  0  0
  5  6  2  0  0  0
  5  7  1  0  0  0
  7  4  1  0  0  0
  4 16  1  0  0  0
  4  1  1  0  0  0
 16 17  1  0  0  0
 17 18  2  0  0  0
 17 22  1  0  0  0
 18 19  1  0  0  0
 19 20  2  0  0  0
 20 21  1  0  0  0
 21 22  2  0  0  0
  1 23  1  0  0  0
  1  2  1  0  0  0
 23 24  1  0  0  0
 24 25  1  0  0  0
 24 37  1  0  0  0
 25 26  2  0  0  0
 25 27  2  0  0  0
 25 28  1  0  0  0
 28 29  2  0  0  0
 28 32  1  0  0  0
 29 30  1  0  0  0
 30 31  1  0  0  0
 30 35  2  0  0  0
 32 33  1  0  0  0
 32 34  2  0  0  0
 34 35  1  0  0  0
 35 36  1  0  0  0
 37 38  1  0  0  0
 38 42  1  0  0  0
 38 39  2  0  0  0
 39 40  1  0  0  0
 40 41  2  0  0  0
 41 42  1  0  0  0
 14 15  1  0  0  0
  7  8  1  0  0  0
  2  3  1  0  0  0
M  END
> <minimizedAffinity>
-8.39800

$$$$
2QHY_MZ1_A_200


 42 44  0  0  0  0  0  0  0  0999 V2000
   19.0478   35.7032   18.9715 C   0  0  0  0  0  0  0  0  0  0  0  0
   19.4154   35.0722   20.2046 O   0  0  0  0  0  0  0  0  0  0  0  0
   19.8832   34.2435   20.0169 H   0  0  0  0  0  0  0  0  0  0  0  0
   20.3001   36.0680   18.1575 C   0  0  0  0  0  0  0  0  0  0  0  0
   21.1002   38.3158   17.4848 C   0  0  0  0  0  0  0  0  0  0  0  0
   21.2230   37.9961   16.2966 O   0  0  0  0  0  0  0  0  0  0  0  0
   20.6595   37.4686   18.4234 N   0  0  0  0  0  0  0  0  0  0  0  0
   20.5711   37.8030   19.3452 H   0  0  0  0  0  0  0  0  0  0  0  0
   21.4548   39.7263   17.9384 C   0  0  0  0  0  0  0  0  0  0  0  0
   20.9698   40.7743   16.9363 C   0  0  0  0  0  0  0  0  0  0  0  0
   22.8766   39.1974   20.2868 O   0  0  0  0  0  0  0  0  0  0  0  0
   23.5056   39.5140   19.2819 C   0  0  0  0  0  0  0  0  0  0  0  0
   25.0182   39.6164   19.3755 C   0  0  0  0  0  0  0  0  0  0  0  0
   22.9016   39.7940   18.1214 N   0  0  0  0  0  0  0  0  0  0  0  0
   23.4594   40.0584   17.3544 H   0  0  0  0  0  0  0  0  0  0  0  0
   21.5300   35.2335   18.5401 C   0  0  0  0  0  0  0  0  0  0  0  0
   21.9664   34.3616   17.3583 C   0  0  0  0  0  0  0  0  0  0  0  0
   22.6132   33.1471   17.5710 C   0  0  0  0  0  0  0  0  0  0  0  0
   23.0019   32.3508   16.4955 C   0  0  0  0  0  0  0  0  0  0  0  0
   22.7364   32.7559   15.1951 C   0  0  0  0  0  0  0  0  0  0  0  0
   22.0839   33.9605   14.9715 C   0  0  0  0  0  0  0  0  0  0  0  0
   21.7009   34.7603   16.0485 C   0  0  0  0  0  0  0  0  0  0  0  0
   18.0815   34.7880   18.1760 C   0  0  0  0  0  0  0  0  0  0  0  0
   17.1575   35.6500   17.3892 N   0  0  0  0  0  0  0  0  0  0  0  0
   16.4641   34.9395   16.0960 S   0  0  0  0  0  0  0  0  0  0  0  0
   15.1962   34.5310   16.5908 O   0  0  0  0  0  0  0  0  0  0  0  0
   16.2840   35.9576   15.1109 O   0  0  0  0  0  0  0  0  0  0  0  0
   17.2408   33.6427   15.4653 C   0  0  0  0  0  0  0  0  0  0  0  0
   18.2460   33.7940   14.5022 C   0  0  0  0  0  0  0  0  0  0  0  0
   18.9265   32.6926   13.9490 C   0  0  0  0  0  0  0  0  0  0  0  0
   19.8841   32.8407   13.0064 F   0  0  0  0  0  0  0  0  0  0  0  0
   16.9549   32.3308   15.8622 C   0  0  0  0  0  0  0  0  0  0  0  0
   16.0255   32.0861   16.7823 F   0  0  0  0  0  0  0  0  0  0  0  0
   17.6334   31.2251   15.3212 C   0  0  0  0  0  0  0  0  0  0  0  0
   18.6175   31.4044   14.3618 C   0  0  0  0  0  0  0  0  0  0  0  0
   19.2777   30.3537   13.8246 F   0  0  0  0  0  0  0  0  0  0  0  0
   16.1922   36.4514   18.1980 C   0  0  0  0  0  0  0  0  0  0  0  0
   16.6472   37.9076   18.1942 C   0  0  0  0  0  0  0  0  0  0  0  0
   17.1289   38.5079   17.0785 C   0  0  0  0  0  0  0  0  0  0  0  0
   17.4306   39.8615   17.3924 C   0  0  0  0  0  0  0  0  0  0  0  0
   17.1627   40.1672   18.6703 C   0  0  0  0  0  0  0  0  0  0  0  0
   16.5570   38.8974   19.5506 S   0  0  0  0  0  0  0  0  0  0  0  0
 11 12  2  0  0  0
 12 13  1  0  0  0
 12 14  1  0  0  0
 14  9  1  0  0  0
  9 10  1  0  0  0
  9  5  1  0  0  0
  5  6  2  0  0  0
  5  7  1  0  0  0
  7  4  1  0  0  0
  4 16  1  0  0  0
  4  1  1  0  0  0
 16 17  1  0  0  0
 17 18  2  0  0  0
 17 22  1  0  0  0
 18 19  1  0  0  0
 19 20  2  0  0  0
 20 21  1  0  0  0
 21 22  2  0  0  0
  1 23  1  0  0  0
  1  2  1  0  0  0
 23 24  1  0  0  0
 24 25  1  0  0  0
 24 37  1  0  0  0
 25 26  2  0  0  0
 25 27  2  0  0  0
 25 28  1  0  0  0
 28 29  2  0  0  0
 28 32  1  0  0  0
 29 30  1  0  0  0
 30 31  1  0  0  0
 30 35  2  0  0  0
 32 33  1  0  0  0
 32 34  2  0  0  0
 34 35  1  0  0  0
 35 36  1  0  0  0
 37 38  1  0  0  0
 38 42  1  0  0  0
 38 39  2  0  0  0
 39 40  1  0  0  0
 40 41  2  0  0  0
 41 42  1  0  0  0
 14 15  1  0  0  0
  7  8  1  0  0  0
  2  3  1  0  0  0
M  END
> <minimizedAffinity>
-8.32765

$$$$
