2FU8_MCO_A_1410


 16 16  0  0  0  0  0  0  0  0999 V2000
   12.6226   29.0761   31.1083 C   0  0  0  0  0  0  0  0  0  0  0  0
   13.5921   28.3511   30.1862 C   0  0  0  0  0  0  0  0  0  0  0  0
   14.1135   27.1096   30.8635 C   0  0  0  0  0  0  0  0  0  0  0  0
   13.3445   27.0048   32.1686 C   0  0  0  0  0  0  0  0  0  0  0  0
   12.4771   28.1589   32.2691 N   0  0  0  0  0  0  0  0  0  0  0  0
   11.6294   28.3895   33.3019 C   0  0  0  0  0  0  0  0  0  0  0  0
   10.8945   29.3733   33.3439 O   0  0  0  0  0  0  0  0  0  0  0  0
   14.4679   30.3778   31.8872 O   0  0  0  0  0  0  0  0  0  0  0  0
   13.2934   30.3927   31.4242 C   0  0  0  0  0  0  0  0  0  0  0  0
   12.6210   31.4491   31.3495 O   0  0  0  0  0  0  0  0  0  0  0  0
   11.7516   31.4275   31.0009 H   0  0  0  0  0  0  0  0  0  0  0  0
   11.5337   27.4217   34.4697 C   0  0  0  0  0  0  0  0  0  0  0  0
   10.0923   26.8918   34.5609 C   0  0  0  0  0  0  0  0  0  0  0  0
   11.9098   28.0905   35.7891 C   0  0  0  0  0  0  0  0  0  0  0  0
   10.4946   28.4228   36.8659 S   0  0  0  0  0  0  0  0  0  0  0  0
    9.6461   29.2860   36.2460 H   0  0  0  0  0  0  0  0  0  0  0  0
  8  9  2  0  0  0
  9 10  1  0  0  0
  9  1  1  0  0  0
  1  2  1  0  0  0
  1  5  1  0  0  0
  2  3  1  0  0  0
  3  4  1  0  0  0
  4  5  1  0  0  0
  5  6  1  0  0  0
  6  7  2  0  0  0
  6 12  1  0  0  0
 12 13  1  0  0  0
 12 14  1  0  0  0
 14 15  1  0  0  0
 10 11  1  0  0  0
 15 16  1  0  0  0
M  END
> <minimizedAffinity>
-5.22554

$$$$
2FU8_MCO_A_1410


 16 16  0  0  0  0  0  0  0  0999 V2000
   13.1572   29.3255   32.8263 C   0  0  0  0  0  0  0  0  0  0  0  0
   12.4740   29.3459   34.1859 C   0  0  0  0  0  0  0  0  0  0  0  0
   11.9302   27.9773   34.5076 C   0  0  0  0  0  0  0  0  0  0  0  0
   12.4089   27.0750   33.3840 C   0  0  0  0  0  0  0  0  0  0  0  0
   13.1308   27.8923   32.4326 N   0  0  0  0  0  0  0  0  0  0  0  0
   13.7150   27.4161   31.3054 C   0  0  0  0  0  0  0  0  0  0  0  0
   14.3354   28.1389   30.5292 O   0  0  0  0  0  0  0  0  0  0  0  0
   12.6759   31.4399   31.8244 O   0  0  0  0  0  0  0  0  0  0  0  0
   12.3223   30.2349   31.9551 C   0  0  0  0  0  0  0  0  0  0  0  0
   11.2335   29.8081   31.5012 O   0  0  0  0  0  0  0  0  0  0  0  0
   10.9994   28.9079   31.6145 H   0  0  0  0  0  0  0  0  0  0  0  0
   13.6432   25.9410   30.9471 C   0  0  0  0  0  0  0  0  0  0  0  0
   15.0701   25.4139   30.7172 C   0  0  0  0  0  0  0  0  0  0  0  0
   12.8097   25.7055   29.6904 C   0  0  0  0  0  0  0  0  0  0  0  0
   11.0260   25.8281   29.9667 S   0  0  0  0  0  0  0  0  0  0  0  0
   10.6371   24.8696   30.8496 H   0  0  0  0  0  0  0  0  0  0  0  0
  8  9  2  0  0  0
  9 10  1  0  0  0
  9  1  1  0  0  0
  1  2  1  0  0  0
  1  5  1  0  0  0
  2  3  1  0  0  0
  3  4  1  0  0  0
  4  5  1  0  0  0
  5  6  1  0  0  0
  6  7  2  0  0  0
  6 12  1  0  0  0
 12 13  1  0  0  0
 12 14  1  0  0  0
 14 15  1  0  0  0
 10 11  1  0  0  0
 15 16  1  0  0  0
M  END
> <minimizedAffinity>
-5.05885

$$$$
2FU8_MCO_A_1410


 16 16  0  0  0  0  0  0  0  0999 V2000
   13.5042   27.8294   31.0598 C   0  0  0  0  0  0  0  0  0  0  0  0
   13.9458   28.9236   30.0989 C   0  0  0  0  0  0  0  0  0  0  0  0
   13.4018   30.2545   30.5517 C   0  0  0  0  0  0  0  0  0  0  0  0
   12.7295   29.9863   31.8865 C   0  0  0  0  0  0  0  0  0  0  0  0
   12.8217   28.5672   32.1551 N   0  0  0  0  0  0  0  0  0  0  0  0
   12.3392   27.9685   33.2719 C   0  0  0  0  0  0  0  0  0  0  0  0
   12.4518   26.7616   33.4733 O   0  0  0  0  0  0  0  0  0  0  0  0
   13.1138   25.9572   29.6286 O   0  0  0  0  0  0  0  0  0  0  0  0
   12.6016   26.9332   30.2442 C   0  0  0  0  0  0  0  0  0  0  0  0
   11.4006   27.2611   30.0896 O   0  0  0  0  0  0  0  0  0  0  0  0
   11.0498   27.9909   30.5612 H   0  0  0  0  0  0  0  0  0  0  0  0
   11.6371   28.7734   34.3530 C   0  0  0  0  0  0  0  0  0  0  0  0
   11.9232   28.1279   35.7198 C   0  0  0  0  0  0  0  0  0  0  0  0
   10.1288   28.8277   34.1263 C   0  0  0  0  0  0  0  0  0  0  0  0
    9.1814   29.2039   35.6209 S   0  0  0  0  0  0  0  0  0  0  0  0
    9.3788   28.2227   36.5417 H   0  0  0  0  0  0  0  0  0  0  0  0
  8  9  2  0  0  0
  9 10  1  0  0  0
  9  1  1  0  0  0
  1  2  1  0  0  0
  1  5  1  0  0  0
  2  3  1  0  0  0
  3  4  1  0  0  0
  4  5  1  0  0  0
  5  6  1  0  0  0
  6  7  2  0  0  0
  6 12  1  0  0  0
 12 13  1  0  0  0
 12 14  1  0  0  0
 14 15  1  0  0  0
 10 11  1  0  0  0
 15 16  1  0  0  0
M  END
> <minimizedAffinity>
-4.50502

$$$$
2FU8_MCO_A_1410


 16 16  0  0  0  0  0  0  0  0999 V2000
   12.4600   29.1497   31.0309 C   0  0  0  0  0  0  0  0  0  0  0  0
   13.5297   28.6061   30.0950 C   0  0  0  0  0  0  0  0  0  0  0  0
   13.8260   27.1677   30.4348 C   0  0  0  0  0  0  0  0  0  0  0  0
   12.8224   26.7884   31.5092 C   0  0  0  0  0  0  0  0  0  0  0  0
   12.0362   27.9631   31.8197 N   0  0  0  0  0  0  0  0  0  0  0  0
   11.0299   27.9903   32.7282 C   0  0  0  0  0  0  0  0  0  0  0  0
   10.3722   29.0036   32.9525 O   0  0  0  0  0  0  0  0  0  0  0  0
   12.5847   31.3470   31.9597 O   0  0  0  0  0  0  0  0  0  0  0  0
   13.1527   30.2265   31.8333 C   0  0  0  0  0  0  0  0  0  0  0  0
   14.3252   30.0263   32.2318 O   0  0  0  0  0  0  0  0  0  0  0  0
   14.7192   29.1831   32.1235 H   0  0  0  0  0  0  0  0  0  0  0  0
   10.6499   26.7475   33.5159 C   0  0  0  0  0  0  0  0  0  0  0  0
    9.1383   26.7805   33.8001 C   0  0  0  0  0  0  0  0  0  0  0  0
   11.4100   26.6622   34.8367 C   0  0  0  0  0  0  0  0  0  0  0  0
   11.9537   24.9887   35.2567 S   0  0  0  0  0  0  0  0  0  0  0  0
   10.8680   24.1833   35.4057 H   0  0  0  0  0  0  0  0  0  0  0  0
  8  9  2  0  0  0
  9 10  1  0  0  0
  9  1  1  0  0  0
  1  2  1  0  0  0
  1  5  1  0  0  0
  2  3  1  0  0  0
  3  4  1  0  0  0
  4  5  1  0  0  0
  5  6  1  0  0  0
  6  7  2  0  0  0
  6 12  1  0  0  0
 12 13  1  0  0  0
 12 14  1  0  0  0
 14 15  1  0  0  0
 10 11  1  0  0  0
 15 16  1  0  0  0
M  END
> <minimizedAffinity>
-4.48980

$$$$
2FU8_MCO_A_1410


 16 16  0  0  0  0  0  0  0  0999 V2000
   10.6248   29.5219   34.2860 C   0  0  0  0  0  0  0  0  0  0  0  0
    9.8134   28.4103   33.6366 C   0  0  0  0  0  0  0  0  0  0  0  0
    8.6550   28.0344   34.5249 C   0  0  0  0  0  0  0  0  0  0  0  0
    8.6838   29.0277   35.6730 C   0  0  0  0  0  0  0  0  0  0  0  0
    9.8353   29.8854   35.4919 N   0  0  0  0  0  0  0  0  0  0  0  0
   10.1679   30.9029   36.3241 C   0  0  0  0  0  0  0  0  0  0  0  0
   11.1449   31.6218   36.1279 O   0  0  0  0  0  0  0  0  0  0  0  0
   12.2251   28.5289   35.7554 O   0  0  0  0  0  0  0  0  0  0  0  0
   11.9727   28.9039   34.5766 C   0  0  0  0  0  0  0  0  0  0  0  0
   12.8477   28.9070   33.6777 O   0  0  0  0  0  0  0  0  0  0  0  0
   12.6291   29.1912   32.8120 H   0  0  0  0  0  0  0  0  0  0  0  0
    9.3292   31.2194   37.5513 C   0  0  0  0  0  0  0  0  0  0  0  0
    9.5692   32.6844   37.9547 C   0  0  0  0  0  0  0  0  0  0  0  0
    9.6804   30.3089   38.7248 C   0  0  0  0  0  0  0  0  0  0  0  0
    9.8715   31.1866   40.2951 S   0  0  0  0  0  0  0  0  0  0  0  0
   10.8992   32.0719   40.1974 H   0  0  0  0  0  0  0  0  0  0  0  0
  8  9  2  0  0  0
  9 10  1  0  0  0
  9  1  1  0  0  0
  1  2  1  0  0  0
  1  5  1  0  0  0
  2  3  1  0  0  0
  3  4  1  0  0  0
  4  5  1  0  0  0
  5  6  1  0  0  0
  6  7  2  0  0  0
  6 12  1  0  0  0
 12 13  1  0  0  0
 12 14  1  0  0  0
 14 15  1  0  0  0
 10 11  1  0  0  0
 15 16  1  0  0  0
M  END
> <minimizedAffinity>
-4.45526

$$$$
2FU8_MCO_A_1410


 16 16  0  0  0  0  0  0  0  0999 V2000
   12.7657   29.0026   32.9330 C   0  0  0  0  0  0  0  0  0  0  0  0
   12.0902   29.7729   34.0583 C   0  0  0  0  0  0  0  0  0  0  0  0
   10.6507   29.3433   34.1823 C   0  0  0  0  0  0  0  0  0  0  0  0
   10.4834   28.1942   33.2039 C   0  0  0  0  0  0  0  0  0  0  0  0
   11.7387   28.0164   32.5060 N   0  0  0  0  0  0  0  0  0  0  0  0
   11.9611   27.0661   31.5647 C   0  0  0  0  0  0  0  0  0  0  0  0
   13.0472   26.9344   31.0054 O   0  0  0  0  0  0  0  0  0  0  0  0
   14.3057   30.4375   31.8035 O   0  0  0  0  0  0  0  0  0  0  0  0
   13.1088   30.0462   31.8955 C   0  0  0  0  0  0  0  0  0  0  0  0
   12.1793   30.5917   31.2536 O   0  0  0  0  0  0  0  0  0  0  0  0
   11.3009   30.2780   31.3434 H   0  0  0  0  0  0  0  0  0  0  0  0
   10.8671   26.0927   31.1583 C   0  0  0  0  0  0  0  0  0  0  0  0
   11.0747   24.7671   31.9109 C   0  0  0  0  0  0  0  0  0  0  0  0
   10.8781   25.8268   29.6554 C   0  0  0  0  0  0  0  0  0  0  0  0
   10.2435   24.1950   29.2004 S   0  0  0  0  0  0  0  0  0  0  0  0
   11.0325   23.2326   29.7489 H   0  0  0  0  0  0  0  0  0  0  0  0
  8  9  2  0  0  0
  9 10  1  0  0  0
  9  1  1  0  0  0
  1  2  1  0  0  0
  1  5  1  0  0  0
  2  3  1  0  0  0
  3  4  1  0  0  0
  4  5  1  0  0  0
  5  6  1  0  0  0
  6  7  2  0  0  0
  6 12  1  0  0  0
 12 13  1  0  0  0
 12 14  1  0  0  0
 14 15  1  0  0  0
 10 11  1  0  0  0
 15 16  1  0  0  0
M  END
> <minimizedAffinity>
-4.39262

$$$$
2FU8_MCO_A_1410


 16 16  0  0  0  0  0  0  0  0999 V2000
   12.9711   27.1966   30.4135 C   0  0  0  0  0  0  0  0  0  0  0  0
   14.2738   27.0108   31.1779 C   0  0  0  0  0  0  0  0  0  0  0  0
   14.2575   25.6914   31.9066 C   0  0  0  0  0  0  0  0  0  0  0  0
   12.9778   25.0009   31.4693 C   0  0  0  0  0  0  0  0  0  0  0  0
   12.2631   25.9015   30.5904 N   0  0  0  0  0  0  0  0  0  0  0  0
   11.0800   25.6094   29.9958 C   0  0  0  0  0  0  0  0  0  0  0  0
   10.5108   26.3940   29.2406 O   0  0  0  0  0  0  0  0  0  0  0  0
   12.4458   28.5472   32.3124 O   0  0  0  0  0  0  0  0  0  0  0  0
   12.2974   28.3791   31.0699 C   0  0  0  0  0  0  0  0  0  0  0  0
   11.5031   29.0765   30.3944 O   0  0  0  0  0  0  0  0  0  0  0  0
   11.4154   28.9273   29.4735 H   0  0  0  0  0  0  0  0  0  0  0  0
   10.3953   24.2722   30.2252 C   0  0  0  0  0  0  0  0  0  0  0  0
   10.3001   23.5245   28.8841 C   0  0  0  0  0  0  0  0  0  0  0  0
    8.9947   24.4477   30.8057 C   0  0  0  0  0  0  0  0  0  0  0  0
    7.6725   24.2599   29.5853 S   0  0  0  0  0  0  0  0  0  0  0  0
    7.7968   25.2205   28.6307 H   0  0  0  0  0  0  0  0  0  0  0  0
  8  9  2  0  0  0
  9 10  1  0  0  0
  9  1  1  0  0  0
  1  2  1  0  0  0
  1  5  1  0  0  0
  2  3  1  0  0  0
  3  4  1  0  0  0
  4  5  1  0  0  0
  5  6  1  0  0  0
  6  7  2  0  0  0
  6 12  1  0  0  0
 12 13  1  0  0  0
 12 14  1  0  0  0
 14 15  1  0  0  0
 10 11  1  0  0  0
 15 16  1  0  0  0
M  END
> <minimizedAffinity>
-4.20592

$$$$
2FU8_MCO_A_1410


 16 16  0  0  0  0  0  0  0  0999 V2000
   13.7055   28.6355   31.6455 C   0  0  0  0  0  0  0  0  0  0  0  0
   13.7239   30.1385   31.8829 C   0  0  0  0  0  0  0  0  0  0  0  0
   12.5849   30.5289   32.7897 C   0  0  0  0  0  0  0  0  0  0  0  0
   11.9421   29.2225   33.2208 C   0  0  0  0  0  0  0  0  0  0  0  0
   12.6300   28.1429   32.5457 N   0  0  0  0  0  0  0  0  0  0  0  0
   12.3317   26.8298   32.7049 C   0  0  0  0  0  0  0  0  0  0  0  0
   12.9504   25.9391   32.1272 O   0  0  0  0  0  0  0  0  0  0  0  0
   13.2921   29.5135   29.4628 O   0  0  0  0  0  0  0  0  0  0  0  0
   13.4170   28.4757   30.1709 C   0  0  0  0  0  0  0  0  0  0  0  0
   13.1739   27.3301   29.7212 O   0  0  0  0  0  0  0  0  0  0  0  0
   13.2762   26.5791   30.2722 H   0  0  0  0  0  0  0  0  0  0  0  0
   11.2105   26.3861   33.6298 C   0  0  0  0  0  0  0  0  0  0  0  0
   11.7928   25.4571   34.7089 C   0  0  0  0  0  0  0  0  0  0  0  0
   10.1104   25.6497   32.8700 C   0  0  0  0  0  0  0  0  0  0  0  0
    8.5280   25.6022   33.7455 S   0  0  0  0  0  0  0  0  0  0  0  0
    8.6783   24.9287   34.9174 H   0  0  0  0  0  0  0  0  0  0  0  0
  8  9  2  0  0  0
  9 10  1  0  0  0
  9  1  1  0  0  0
  1  2  1  0  0  0
  1  5  1  0  0  0
  2  3  1  0  0  0
  3  4  1  0  0  0
  4  5  1  0  0  0
  5  6  1  0  0  0
  6  7  2  0  0  0
  6 12  1  0  0  0
 12 13  1  0  0  0
 12 14  1  0  0  0
 14 15  1  0  0  0
 10 11  1  0  0  0
 15 16  1  0  0  0
M  END
> <minimizedAffinity>
-4.10524

$$$$
2FU8_MCO_A_1410


 16 16  0  0  0  0  0  0  0  0999 V2000
   11.7773   29.3876   31.9239 C   0  0  0  0  0  0  0  0  0  0  0  0
   12.7575   30.4907   31.5520 C   0  0  0  0  0  0  0  0  0  0  0  0
   13.8542   29.9311   30.6823 C   0  0  0  0  0  0  0  0  0  0  0  0
   13.4610   28.4902   30.4087 C   0  0  0  0  0  0  0  0  0  0  0  0
   12.2406   28.2151   31.1362 N   0  0  0  0  0  0  0  0  0  0  0  0
   11.5895   27.0259   31.1133 C   0  0  0  0  0  0  0  0  0  0  0  0
   10.5446   26.8350   31.7311 O   0  0  0  0  0  0  0  0  0  0  0  0
   13.0144   29.5191   33.9631 O   0  0  0  0  0  0  0  0  0  0  0  0
   11.9101   29.2346   33.4212 C   0  0  0  0  0  0  0  0  0  0  0  0
   10.9724   28.7018   34.0619 O   0  0  0  0  0  0  0  0  0  0  0  0
   10.1645   28.5026   33.6310 H   0  0  0  0  0  0  0  0  0  0  0  0
   12.1189   25.8568   30.2994 C   0  0  0  0  0  0  0  0  0  0  0  0
   11.0051   25.3561   29.3636 C   0  0  0  0  0  0  0  0  0  0  0  0
   12.5801   24.7095   31.1940 C   0  0  0  0  0  0  0  0  0  0  0  0
   14.0329   25.1069   32.1962 S   0  0  0  0  0  0  0  0  0  0  0  0
   15.0854   25.3814   31.3799 H   0  0  0  0  0  0  0  0  0  0  0  0
  8  9  2  0  0  0
  9 10  1  0  0  0
  9  1  1  0  0  0
  1  2  1  0  0  0
  1  5  1  0  0  0
  2  3  1  0  0  0
  3  4  1  0  0  0
  4  5  1  0  0  0
  5  6  1  0  0  0
  6  7  2  0  0  0
  6 12  1  0  0  0
 12 13  1  0  0  0
 12 14  1  0  0  0
 14 15  1  0  0  0
 10 11  1  0  0  0
 15 16  1  0  0  0
M  END
> <minimizedAffinity>
-4.04318

$$$$
2FU8_MCO_A_1410


 16 16  0  0  0  0  0  0  0  0999 V2000
   11.9832   28.2399   31.5389 C   0  0  0  0  0  0  0  0  0  0  0  0
   11.9544   27.0868   30.5462 C   0  0  0  0  0  0  0  0  0  0  0  0
   11.1647   25.9372   31.1177 C   0  0  0  0  0  0  0  0  0  0  0  0
   10.5886   26.4498   32.4258 C   0  0  0  0  0  0  0  0  0  0  0  0
   11.0754   27.7974   32.6297 N   0  0  0  0  0  0  0  0  0  0  0  0
   10.7512   28.5736   33.6932 C   0  0  0  0  0  0  0  0  0  0  0  0
   11.1709   29.7211   33.8235 O   0  0  0  0  0  0  0  0  0  0  0  0
   14.1390   27.3304   32.0201 O   0  0  0  0  0  0  0  0  0  0  0  0
   13.4336   28.3745   31.9404 C   0  0  0  0  0  0  0  0  0  0  0  0
   13.8578   29.4942   32.3148 O   0  0  0  0  0  0  0  0  0  0  0  0
   13.3098   30.2508   32.2427 H   0  0  0  0  0  0  0  0  0  0  0  0
    9.8278   28.0615   34.7862 C   0  0  0  0  0  0  0  0  0  0  0  0
    8.4395   28.6991   34.6051 C   0  0  0  0  0  0  0  0  0  0  0  0
   10.3596   28.3969   36.1770 C   0  0  0  0  0  0  0  0  0  0  0  0
   11.8157   27.4337   36.6511 S   0  0  0  0  0  0  0  0  0  0  0  0
   11.4926   26.1132   36.6906 H   0  0  0  0  0  0  0  0  0  0  0  0
  8  9  2  0  0  0
  9 10  1  0  0  0
  9  1  1  0  0  0
  1  2  1  0  0  0
  1  5  1  0  0  0
  2  3  1  0  0  0
  3  4  1  0  0  0
  4  5  1  0  0  0
  5  6  1  0  0  0
  6  7  2  0  0  0
  6 12  1  0  0  0
 12 13  1  0  0  0
 12 14  1  0  0  0
 14 15  1  0  0  0
 10 11  1  0  0  0
 15 16  1  0  0  0
M  END
> <minimizedAffinity>
-3.91636

$$$$
