4R3W_A2P_A_406


 34 36  0  0  0  0  0  0  0  0999 V2000
  -11.2705   -3.4155    6.3233 C   0  0  0  0  0  0  0  0  0  0  0  0
  -12.1020   -2.2695    6.2286 O   0  0  0  0  0  0  0  0  0  0  0  0
  -12.2033   -4.6092    6.2437 C   0  0  0  0  0  0  0  0  0  0  0  0
  -12.5669   -5.0500    7.5498 O   0  0  0  0  0  0  0  0  0  0  0  0
  -13.4072   -4.0507    5.5356 C   0  0  0  0  0  0  0  0  0  0  0  0
  -13.4536   -2.6747    6.1681 C   0  0  0  0  0  0  0  0  0  0  0  0
  -12.9699   -4.3154    8.0385 H   0  0  0  0  0  0  0  0  0  0  0  0
  -14.3056   -1.7475    5.3924 N   0  0  0  0  0  0  0  0  0  0  0  0
  -14.4410   -1.6726    4.0573 C   0  0  0  0  0  0  0  0  0  0  0  0
  -15.3187   -0.7006    3.7272 N   0  0  0  0  0  0  0  0  0  0  0  0
  -15.7694   -0.1505    4.8675 C   0  0  0  0  0  0  0  0  0  0  0  0
  -16.7217    0.9105    5.2283 C   0  0  0  0  0  0  0  0  0  0  0  0
  -17.3912    1.6054    4.2717 N   0  0  0  0  0  0  0  0  0  0  0  0
  -16.8800    1.1718    6.5271 N   0  0  0  0  0  0  0  0  0  0  0  0
  -16.2141    0.5023    7.4847 C   0  0  0  0  0  0  0  0  0  0  0  0
  -15.3497   -0.4857    7.2333 N   0  0  0  0  0  0  0  0  0  0  0  0
  -15.0896   -0.8393    5.9617 C   0  0  0  0  0  0  0  0  0  0  0  0
  -17.2545    1.3906    3.3207 H   0  0  0  0  0  0  0  0  0  0  0  0
  -18.0130    2.3239    4.5296 H   0  0  0  0  0  0  0  0  0  0  0  0
  -10.2739   -3.4111    5.1711 C   0  0  0  0  0  0  0  0  0  0  0  0
   -9.3085   -4.4278    5.4107 O   0  0  0  0  0  0  0  0  0  0  0  0
   -7.8449   -4.0697    5.9261 P   0  0  0  0  0  0  0  0  0  0  0  0
   -6.9169   -4.8660    5.0528 O   0  0  0  0  0  0  0  0  0  0  0  0
   -7.7890   -2.5826    5.7152 O   0  0  0  0  0  0  0  0  0  0  0  0
   -7.8386   -4.3945    7.3840 O   0  0  0  0  0  0  0  0  0  0  0  0
   -6.9245   -2.2478    6.0004 H   0  0  0  0  0  0  0  0  0  0  0  0
   -6.9652   -4.1952    7.7560 H   0  0  0  0  0  0  0  0  0  0  0  0
  -14.5942   -4.8208    5.7346 O   0  0  0  0  0  0  0  0  0  0  0  0
  -15.2767   -5.6815    4.5605 P   0  0  0  0  0  0  0  0  0  0  0  0
  -14.6285   -7.0161    4.7440 O   0  0  0  0  0  0  0  0  0  0  0  0
  -16.7427   -5.5853    4.8122 O   0  0  0  0  0  0  0  0  0  0  0  0
  -14.8611   -5.0060    3.2997 O   0  0  0  0  0  0  0  0  0  0  0  0
  -17.2209   -6.0873    4.1337 H   0  0  0  0  0  0  0  0  0  0  0  0
  -15.2404   -5.4761    2.5408 H   0  0  0  0  0  0  0  0  0  0  0  0
 29 30  2  0  0  0
 29 31  1  0  0  0
 29 32  1  0  0  0
 29 28  1  0  0  0
 22 23  2  0  0  0
 22 24  1  0  0  0
 22 25  1  0  0  0
 22 21  1  0  0  0
 21 20  1  0  0  0
 20  1  1  0  0  0
  1  2  1  0  0  0
  1  3  1  0  0  0
  2  6  1  0  0  0
  3  4  1  0  0  0
  3  5  1  0  0  0
  5 28  1  0  0  0
  5  6  1  0  0  0
  6  8  1  0  0  0
  8  9  1  0  0  0
  8 17  1  0  0  0
  9 10  2  0  0  0
 10 11  1  0  0  0
 11 12  1  0  0  0
 11 17  2  0  0  0
 12 13  1  0  0  0
 12 14  2  0  0  0
 14 15  1  0  0  0
 15 16  2  0  0  0
 16 17  1  0  0  0
 31 33  1  0  0  0
 32 34  1  0  0  0
 24 26  1  0  0  0
 25 27  1  0  0  0
  4  7  1  0  0  0
 13 18  1  0  0  0
 13 19  1  0  0  0
M  END
> <minimizedAffinity>
-7.86549

$$$$
4R3W_A2P_A_406


 34 36  0  0  0  0  0  0  0  0999 V2000
   -9.5901   -1.8054    2.6036 C   0  0  0  0  0  0  0  0  0  0  0  0
  -10.9037   -2.1151    3.0419 O   0  0  0  0  0  0  0  0  0  0  0  0
   -8.6737   -2.1762    3.7544 C   0  0  0  0  0  0  0  0  0  0  0  0
   -8.4179   -1.0410    4.5781 O   0  0  0  0  0  0  0  0  0  0  0  0
   -9.4806   -3.1924    4.5152 C   0  0  0  0  0  0  0  0  0  0  0  0
  -10.8567   -2.5738    4.3768 C   0  0  0  0  0  0  0  0  0  0  0  0
   -9.2586   -0.6762    4.8960 H   0  0  0  0  0  0  0  0  0  0  0  0
  -11.9249   -3.5451    4.6972 N   0  0  0  0  0  0  0  0  0  0  0  0
  -11.8488   -4.8871    4.6914 C   0  0  0  0  0  0  0  0  0  0  0  0
  -13.0343   -5.4271    5.0480 N   0  0  0  0  0  0  0  0  0  0  0  0
  -13.8842   -4.4179    5.3039 C   0  0  0  0  0  0  0  0  0  0  0  0
  -15.2834   -4.2955    5.7398 C   0  0  0  0  0  0  0  0  0  0  0  0
  -16.0408   -5.3975    5.9807 N   0  0  0  0  0  0  0  0  0  0  0  0
  -15.7770   -3.0623    5.8655 N   0  0  0  0  0  0  0  0  0  0  0  0
  -15.0442   -1.9623    5.6171 C   0  0  0  0  0  0  0  0  0  0  0  0
  -13.7630   -1.9958    5.2374 N   0  0  0  0  0  0  0  0  0  0  0  0
  -13.1487   -3.1795    5.0609 C   0  0  0  0  0  0  0  0  0  0  0  0
  -15.6496   -6.2953    5.8799 H   0  0  0  0  0  0  0  0  0  0  0  0
  -16.9807   -5.2982    6.2561 H   0  0  0  0  0  0  0  0  0  0  0  0
   -9.2711   -2.6181    1.3552 C   0  0  0  0  0  0  0  0  0  0  0  0
  -10.1773   -3.7124    1.2900 O   0  0  0  0  0  0  0  0  0  0  0  0
   -9.6860   -5.1651    0.8608 P   0  0  0  0  0  0  0  0  0  0  0  0
   -9.2976   -5.8419    2.1449 O   0  0  0  0  0  0  0  0  0  0  0  0
  -10.9091   -5.7301    0.1946 O   0  0  0  0  0  0  0  0  0  0  0  0
   -8.5974   -4.9453   -0.1382 O   0  0  0  0  0  0  0  0  0  0  0  0
  -10.7227   -6.6309   -0.1132 H   0  0  0  0  0  0  0  0  0  0  0  0
   -8.2562   -5.8022   -0.4383 H   0  0  0  0  0  0  0  0  0  0  0  0
   -9.0543   -3.3621    5.8684 O   0  0  0  0  0  0  0  0  0  0  0  0
   -7.6256   -3.9899    6.2553 P   0  0  0  0  0  0  0  0  0  0  0  0
   -7.4171   -4.9772    5.1524 O   0  0  0  0  0  0  0  0  0  0  0  0
   -6.6973   -2.8257    6.3246 O   0  0  0  0  0  0  0  0  0  0  0  0
   -7.8385   -4.6389    7.5790 O   0  0  0  0  0  0  0  0  0  0  0  0
   -5.8076   -3.1349    6.5561 H   0  0  0  0  0  0  0  0  0  0  0  0
   -7.0091   -5.0433    7.8780 H   0  0  0  0  0  0  0  0  0  0  0  0
 29 30  2  0  0  0
 29 31  1  0  0  0
 29 32  1  0  0  0
 29 28  1  0  0  0
 22 23  2  0  0  0
 22 24  1  0  0  0
 22 25  1  0  0  0
 22 21  1  0  0  0
 21 20  1  0  0  0
 20  1  1  0  0  0
  1  2  1  0  0  0
  1  3  1  0  0  0
  2  6  1  0  0  0
  3  4  1  0  0  0
  3  5  1  0  0  0
  5 28  1  0  0  0
  5  6  1  0  0  0
  6  8  1  0  0  0
  8  9  1  0  0  0
  8 17  1  0  0  0
  9 10  2  0  0  0
 10 11  1  0  0  0
 11 12  1  0  0  0
 11 17  2  0  0  0
 12 13  1  0  0  0
 12 14  2  0  0  0
 14 15  1  0  0  0
 15 16  2  0  0  0
 16 17  1  0  0  0
 31 33  1  0  0  0
 32 34  1  0  0  0
 24 26  1  0  0  0
 25 27  1  0  0  0
  4  7  1  0  0  0
 13 18  1  0  0  0
 13 19  1  0  0  0
M  END
> <minimizedAffinity>
-7.50442

$$$$
4R3W_A2P_A_406


 34 36  0  0  0  0  0  0  0  0999 V2000
  -11.0405   -3.6917    6.4063 C   0  0  0  0  0  0  0  0  0  0  0  0
  -11.6786   -2.4261    6.3381 O   0  0  0  0  0  0  0  0  0  0  0  0
  -12.1502   -4.7194    6.2889 C   0  0  0  0  0  0  0  0  0  0  0  0
  -12.5921   -5.1306    7.5805 O   0  0  0  0  0  0  0  0  0  0  0  0
  -13.2432   -3.9585    5.5895 C   0  0  0  0  0  0  0  0  0  0  0  0
  -13.0767   -2.6095    6.2589 C   0  0  0  0  0  0  0  0  0  0  0  0
  -12.8782   -4.3542    8.0867 H   0  0  0  0  0  0  0  0  0  0  0  0
  -13.7630   -1.5389    5.5040 N   0  0  0  0  0  0  0  0  0  0  0  0
  -14.9215   -0.9282    5.8067 C   0  0  0  0  0  0  0  0  0  0  0  0
  -15.2190    0.0043    4.8760 N   0  0  0  0  0  0  0  0  0  0  0  0
  -14.2291    0.0070    3.9672 C   0  0  0  0  0  0  0  0  0  0  0  0
  -13.9179    0.7575    2.7414 C   0  0  0  0  0  0  0  0  0  0  0  0
  -14.7537    1.7250    2.2814 N   0  0  0  0  0  0  0  0  0  0  0  0
  -12.7969    0.4318    2.0951 N   0  0  0  0  0  0  0  0  0  0  0  0
  -11.9670   -0.5328    2.5301 C   0  0  0  0  0  0  0  0  0  0  0  0
  -12.1742   -1.2416    3.6443 N   0  0  0  0  0  0  0  0  0  0  0  0
  -13.2770   -1.0201    4.3822 C   0  0  0  0  0  0  0  0  0  0  0  0
  -15.5742    1.9443    2.7794 H   0  0  0  0  0  0  0  0  0  0  0  0
  -14.5389    2.2068    1.4502 H   0  0  0  0  0  0  0  0  0  0  0  0
  -10.0446   -3.8160    5.2602 C   0  0  0  0  0  0  0  0  0  0  0  0
   -8.8475   -3.1443    5.6330 O   0  0  0  0  0  0  0  0  0  0  0  0
   -7.5537   -3.9554    6.0848 P   0  0  0  0  0  0  0  0  0  0  0  0
   -7.3691   -5.0140    5.0344 O   0  0  0  0  0  0  0  0  0  0  0  0
   -6.4968   -2.8867    6.0962 O   0  0  0  0  0  0  0  0  0  0  0  0
   -7.8374   -4.4291    7.4727 O   0  0  0  0  0  0  0  0  0  0  0  0
   -5.6483   -3.2739    6.3626 H   0  0  0  0  0  0  0  0  0  0  0  0
   -7.0780   -4.9339    7.8036 H   0  0  0  0  0  0  0  0  0  0  0  0
  -14.5393   -4.5350    5.7608 O   0  0  0  0  0  0  0  0  0  0  0  0
  -15.2353   -5.4529    4.6391 P   0  0  0  0  0  0  0  0  0  0  0  0
  -16.6761   -5.3723    5.0295 O   0  0  0  0  0  0  0  0  0  0  0  0
  -14.8371   -4.8433    3.3385 O   0  0  0  0  0  0  0  0  0  0  0  0
  -14.6568   -6.8103    4.8424 O   0  0  0  0  0  0  0  0  0  0  0  0
  -15.2263   -5.3522    2.6102 H   0  0  0  0  0  0  0  0  0  0  0  0
  -15.0353   -7.4236    4.1932 H   0  0  0  0  0  0  0  0  0  0  0  0
 29 30  2  0  0  0
 29 31  1  0  0  0
 29 32  1  0  0  0
 29 28  1  0  0  0
 22 23  2  0  0  0
 22 24  1  0  0  0
 22 25  1  0  0  0
 22 21  1  0  0  0
 21 20  1  0  0  0
 20  1  1  0  0  0
  1  2  1  0  0  0
  1  3  1  0  0  0
  2  6  1  0  0  0
  3  4  1  0  0  0
  3  5  1  0  0  0
  5 28  1  0  0  0
  5  6  1  0  0  0
  6  8  1  0  0  0
  8  9  1  0  0  0
  8 17  1  0  0  0
  9 10  2  0  0  0
 10 11  1  0  0  0
 11 12  1  0  0  0
 11 17  2  0  0  0
 12 13  1  0  0  0
 12 14  2  0  0  0
 14 15  1  0  0  0
 15 16  2  0  0  0
 16 17  1  0  0  0
 31 33  1  0  0  0
 32 34  1  0  0  0
 24 26  1  0  0  0
 25 27  1  0  0  0
  4  7  1  0  0  0
 13 18  1  0  0  0
 13 19  1  0  0  0
M  END
> <minimizedAffinity>
-6.99279

$$$$
4R3W_A2P_A_406


 34 36  0  0  0  0  0  0  0  0999 V2000
  -11.7417   -4.3915    4.5965 C   0  0  0  0  0  0  0  0  0  0  0  0
  -12.1805   -3.2966    5.3853 O   0  0  0  0  0  0  0  0  0  0  0  0
  -12.9068   -5.3622    4.5546 C   0  0  0  0  0  0  0  0  0  0  0  0
  -12.7774   -6.3461    5.5782 O   0  0  0  0  0  0  0  0  0  0  0  0
  -14.0921   -4.4799    4.8360 C   0  0  0  0  0  0  0  0  0  0  0  0
  -13.4794   -3.5607    5.8728 C   0  0  0  0  0  0  0  0  0  0  0  0
  -12.7101   -5.9080    6.4411 H   0  0  0  0  0  0  0  0  0  0  0  0
  -14.2900   -2.3385    6.0636 N   0  0  0  0  0  0  0  0  0  0  0  0
  -14.7970   -1.8553    7.2109 C   0  0  0  0  0  0  0  0  0  0  0  0
  -15.4759   -0.7108    6.9800 N   0  0  0  0  0  0  0  0  0  0  0  0
  -15.3920   -0.4422    5.6659 C   0  0  0  0  0  0  0  0  0  0  0  0
  -15.8725    0.6191    4.7684 C   0  0  0  0  0  0  0  0  0  0  0  0
  -16.6066    1.6590    5.2436 N   0  0  0  0  0  0  0  0  0  0  0  0
  -15.5754    0.5027    3.4729 N   0  0  0  0  0  0  0  0  0  0  0  0
  -14.8620   -0.5278    2.9853 C   0  0  0  0  0  0  0  0  0  0  0  0
  -14.3764   -1.5166    3.7424 N   0  0  0  0  0  0  0  0  0  0  0  0
  -14.6167   -1.5251    5.0660 C   0  0  0  0  0  0  0  0  0  0  0  0
  -16.8105    1.7189    6.2049 H   0  0  0  0  0  0  0  0  0  0  0  0
  -16.9345    2.3527    4.6267 H   0  0  0  0  0  0  0  0  0  0  0  0
  -11.3815   -3.8951    3.2020 C   0  0  0  0  0  0  0  0  0  0  0  0
  -11.0538   -5.0212    2.3971 O   0  0  0  0  0  0  0  0  0  0  0  0
   -9.5458   -5.3343    1.9925 P   0  0  0  0  0  0  0  0  0  0  0  0
   -8.9029   -3.9888    1.8073 O   0  0  0  0  0  0  0  0  0  0  0  0
   -9.0528   -6.1109    3.1813 O   0  0  0  0  0  0  0  0  0  0  0  0
   -9.6243   -6.2125    0.7868 O   0  0  0  0  0  0  0  0  0  0  0  0
   -8.1256   -6.3598    3.0430 H   0  0  0  0  0  0  0  0  0  0  0  0
   -8.7281   -6.4381    0.4921 H   0  0  0  0  0  0  0  0  0  0  0  0
  -15.2385   -5.1956    5.3002 O   0  0  0  0  0  0  0  0  0  0  0  0
  -16.0436   -6.2367    4.3766 P   0  0  0  0  0  0  0  0  0  0  0  0
  -15.6230   -7.5485    4.9572 O   0  0  0  0  0  0  0  0  0  0  0  0
  -17.4761   -5.8483    4.5139 O   0  0  0  0  0  0  0  0  0  0  0  0
  -15.5145   -6.0172    3.0017 O   0  0  0  0  0  0  0  0  0  0  0  0
  -18.0248   -6.4413    3.9771 H   0  0  0  0  0  0  0  0  0  0  0  0
  -15.9599   -6.6181    2.3841 H   0  0  0  0  0  0  0  0  0  0  0  0
 29 30  2  0  0  0
 29 31  1  0  0  0
 29 32  1  0  0  0
 29 28  1  0  0  0
 22 23  2  0  0  0
 22 24  1  0  0  0
 22 25  1  0  0  0
 22 21  1  0  0  0
 21 20  1  0  0  0
 20  1  1  0  0  0
  1  2  1  0  0  0
  1  3  1  0  0  0
  2  6  1  0  0  0
  3  4  1  0  0  0
  3  5  1  0  0  0
  5 28  1  0  0  0
  5  6  1  0  0  0
  6  8  1  0  0  0
  8  9  1  0  0  0
  8 17  1  0  0  0
  9 10  2  0  0  0
 10 11  1  0  0  0
 11 12  1  0  0  0
 11 17  2  0  0  0
 12 13  1  0  0  0
 12 14  2  0  0  0
 14 15  1  0  0  0
 15 16  2  0  0  0
 16 17  1  0  0  0
 31 33  1  0  0  0
 32 34  1  0  0  0
 24 26  1  0  0  0
 25 27  1  0  0  0
  4  7  1  0  0  0
 13 18  1  0  0  0
 13 19  1  0  0  0
M  END
> <minimizedAffinity>
-6.87041

$$$$
4R3W_A2P_A_406


 34 36  0  0  0  0  0  0  0  0999 V2000
  -12.2656   -3.5670    5.6041 C   0  0  0  0  0  0  0  0  0  0  0  0
  -10.9007   -3.6737    5.9776 O   0  0  0  0  0  0  0  0  0  0  0  0
  -12.3140   -2.5094    4.5176 C   0  0  0  0  0  0  0  0  0  0  0  0
  -12.6058   -1.2301    5.0751 O   0  0  0  0  0  0  0  0  0  0  0  0
  -10.9134   -2.5241    3.9690 C   0  0  0  0  0  0  0  0  0  0  0  0
  -10.1420   -2.7249    5.2574 C   0  0  0  0  0  0  0  0  0  0  0  0
  -11.9458   -1.0144    5.7525 H   0  0  0  0  0  0  0  0  0  0  0  0
   -8.7540   -3.1645    4.9979 N   0  0  0  0  0  0  0  0  0  0  0  0
   -8.3221   -4.4025    4.7023 C   0  0  0  0  0  0  0  0  0  0  0  0
   -6.9829   -4.4043    4.5269 N   0  0  0  0  0  0  0  0  0  0  0  0
   -6.5456   -3.1448    4.6956 C   0  0  0  0  0  0  0  0  0  0  0  0
   -5.2474   -2.4566    4.6347 C   0  0  0  0  0  0  0  0  0  0  0  0
   -4.1065   -3.1376    4.3504 N   0  0  0  0  0  0  0  0  0  0  0  0
   -5.2389   -1.1473    4.8911 N   0  0  0  0  0  0  0  0  0  0  0  0
   -6.3575   -0.4622    5.1878 C   0  0  0  0  0  0  0  0  0  0  0  0
   -7.5729   -1.0159    5.2417 N   0  0  0  0  0  0  0  0  0  0  0  0
   -7.7178   -2.3341    5.0158 C   0  0  0  0  0  0  0  0  0  0  0  0
   -4.1431   -4.1038    4.1652 H   0  0  0  0  0  0  0  0  0  0  0  0
   -3.2432   -2.6648    4.3296 H   0  0  0  0  0  0  0  0  0  0  0  0
  -12.7537   -4.9152    5.0894 C   0  0  0  0  0  0  0  0  0  0  0  0
  -13.9368   -5.2631    5.7984 O   0  0  0  0  0  0  0  0  0  0  0  0
  -15.3667   -5.1917    5.1012 P   0  0  0  0  0  0  0  0  0  0  0  0
  -15.1024   -4.6621    3.7200 O   0  0  0  0  0  0  0  0  0  0  0  0
  -15.8166   -6.6249    5.1520 O   0  0  0  0  0  0  0  0  0  0  0  0
  -16.2108   -4.3436    5.9952 O   0  0  0  0  0  0  0  0  0  0  0  0
  -16.6944   -6.7028    4.7466 H   0  0  0  0  0  0  0  0  0  0  0  0
  -17.1012   -4.2635    5.6188 H   0  0  0  0  0  0  0  0  0  0  0  0
  -10.5645   -1.3313    3.2638 O   0  0  0  0  0  0  0  0  0  0  0  0
   -9.7594   -1.3505    1.8722 P   0  0  0  0  0  0  0  0  0  0  0  0
   -9.5285   -2.8141    1.6733 O   0  0  0  0  0  0  0  0  0  0  0  0
  -10.6494   -0.6535    0.9006 O   0  0  0  0  0  0  0  0  0  0  0  0
   -8.5028   -0.5995    2.1467 O   0  0  0  0  0  0  0  0  0  0  0  0
  -10.2215   -0.6286    0.0305 H   0  0  0  0  0  0  0  0  0  0  0  0
   -7.9613   -0.5704    1.3424 H   0  0  0  0  0  0  0  0  0  0  0  0
 29 30  2  0  0  0
 29 31  1  0  0  0
 29 32  1  0  0  0
 29 28  1  0  0  0
 22 23  2  0  0  0
 22 24  1  0  0  0
 22 25  1  0  0  0
 22 21  1  0  0  0
 21 20  1  0  0  0
 20  1  1  0  0  0
  1  2  1  0  0  0
  1  3  1  0  0  0
  2  6  1  0  0  0
  3  4  1  0  0  0
  3  5  1  0  0  0
  5 28  1  0  0  0
  5  6  1  0  0  0
  6  8  1  0  0  0
  8  9  1  0  0  0
  8 17  1  0  0  0
  9 10  2  0  0  0
 10 11  1  0  0  0
 11 12  1  0  0  0
 11 17  2  0  0  0
 12 13  1  0  0  0
 12 14  2  0  0  0
 14 15  1  0  0  0
 15 16  2  0  0  0
 16 17  1  0  0  0
 31 33  1  0  0  0
 32 34  1  0  0  0
 24 26  1  0  0  0
 25 27  1  0  0  0
  4  7  1  0  0  0
 13 18  1  0  0  0
 13 19  1  0  0  0
M  END
> <minimizedAffinity>
-6.85640

$$$$
4R3W_A2P_A_406


 34 36  0  0  0  0  0  0  0  0999 V2000
   -9.4946   -2.3555    3.5806 C   0  0  0  0  0  0  0  0  0  0  0  0
  -10.4678   -3.3687    3.3801 O   0  0  0  0  0  0  0  0  0  0  0  0
  -10.1480   -1.0620    3.1320 C   0  0  0  0  0  0  0  0  0  0  0  0
   -9.8244   -0.7815    1.7722 O   0  0  0  0  0  0  0  0  0  0  0  0
  -11.6163   -1.3630    3.2598 C   0  0  0  0  0  0  0  0  0  0  0  0
  -11.6185   -2.8028    2.7884 C   0  0  0  0  0  0  0  0  0  0  0  0
  -10.0940   -1.5283    1.2150 H   0  0  0  0  0  0  0  0  0  0  0  0
  -12.8688   -3.4970    3.1654 N   0  0  0  0  0  0  0  0  0  0  0  0
  -13.7622   -4.0873    2.3529 C   0  0  0  0  0  0  0  0  0  0  0  0
  -14.7727   -4.6206    3.0731 N   0  0  0  0  0  0  0  0  0  0  0  0
  -14.5194   -4.3853    4.3718 C   0  0  0  0  0  0  0  0  0  0  0  0
  -15.1751   -4.6921    5.6519 C   0  0  0  0  0  0  0  0  0  0  0  0
  -16.3465   -5.3795    5.6917 N   0  0  0  0  0  0  0  0  0  0  0  0
  -14.5826   -4.2485    6.7620 N   0  0  0  0  0  0  0  0  0  0  0  0
  -13.4307   -3.5548    6.7379 C   0  0  0  0  0  0  0  0  0  0  0  0
  -12.7688   -3.2566    5.6156 N   0  0  0  0  0  0  0  0  0  0  0  0
  -13.2671   -3.6352    4.4248 C   0  0  0  0  0  0  0  0  0  0  0  0
  -16.7608   -5.6947    4.8561 H   0  0  0  0  0  0  0  0  0  0  0  0
  -16.7808   -5.5624    6.5560 H   0  0  0  0  0  0  0  0  0  0  0  0
   -9.1168   -2.3049    5.0556 C   0  0  0  0  0  0  0  0  0  0  0  0
   -8.7769   -3.6206    5.4758 O   0  0  0  0  0  0  0  0  0  0  0  0
   -7.3723   -3.9305    6.1591 P   0  0  0  0  0  0  0  0  0  0  0  0
   -6.6305   -2.6239    6.1386 O   0  0  0  0  0  0  0  0  0  0  0  0
   -7.7815   -4.4023    7.5263 O   0  0  0  0  0  0  0  0  0  0  0  0
   -6.7781   -5.0523    5.3719 O   0  0  0  0  0  0  0  0  0  0  0  0
   -6.9905   -4.6238    8.0421 H   0  0  0  0  0  0  0  0  0  0  0  0
   -5.9138   -5.2867    5.7448 H   0  0  0  0  0  0  0  0  0  0  0  0
  -12.4458   -0.4970    2.4828 O   0  0  0  0  0  0  0  0  0  0  0  0
  -13.5834    0.4318    3.1375 P   0  0  0  0  0  0  0  0  0  0  0  0
  -13.9032   -0.3158    4.3920 O   0  0  0  0  0  0  0  0  0  0  0  0
  -12.9535    1.7756    3.2759 O   0  0  0  0  0  0  0  0  0  0  0  0
  -14.7024    0.4164    2.1546 O   0  0  0  0  0  0  0  0  0  0  0  0
  -13.5908    2.3925    3.6687 H   0  0  0  0  0  0  0  0  0  0  0  0
  -15.4322    0.9622    2.4870 H   0  0  0  0  0  0  0  0  0  0  0  0
 29 30  2  0  0  0
 29 31  1  0  0  0
 29 32  1  0  0  0
 29 28  1  0  0  0
 22 23  2  0  0  0
 22 24  1  0  0  0
 22 25  1  0  0  0
 22 21  1  0  0  0
 21 20  1  0  0  0
 20  1  1  0  0  0
  1  2  1  0  0  0
  1  3  1  0  0  0
  2  6  1  0  0  0
  3  4  1  0  0  0
  3  5  1  0  0  0
  5 28  1  0  0  0
  5  6  1  0  0  0
  6  8  1  0  0  0
  8  9  1  0  0  0
  8 17  1  0  0  0
  9 10  2  0  0  0
 10 11  1  0  0  0
 11 12  1  0  0  0
 11 17  2  0  0  0
 12 13  1  0  0  0
 12 14  2  0  0  0
 14 15  1  0  0  0
 15 16  2  0  0  0
 16 17  1  0  0  0
 31 33  1  0  0  0
 32 34  1  0  0  0
 24 26  1  0  0  0
 25 27  1  0  0  0
  4  7  1  0  0  0
 13 18  1  0  0  0
 13 19  1  0  0  0
M  END
> <minimizedAffinity>
-6.79495

$$$$
4R3W_A2P_A_406


 34 36  0  0  0  0  0  0  0  0999 V2000
   -7.6164   -3.7688    5.0785 C   0  0  0  0  0  0  0  0  0  0  0  0
   -8.8530   -3.2902    5.5839 O   0  0  0  0  0  0  0  0  0  0  0  0
   -7.9614   -4.5747    3.8404 C   0  0  0  0  0  0  0  0  0  0  0  0
   -8.1000   -5.9564    4.1635 O   0  0  0  0  0  0  0  0  0  0  0  0
   -9.2919   -4.0071    3.4276 C   0  0  0  0  0  0  0  0  0  0  0  0
   -9.9093   -3.7965    4.7950 C   0  0  0  0  0  0  0  0  0  0  0  0
   -8.7722   -6.0609    4.8549 H   0  0  0  0  0  0  0  0  0  0  0  0
  -11.0758   -2.8895    4.7317 N   0  0  0  0  0  0  0  0  0  0  0  0
  -11.2419   -1.8125    3.9448 C   0  0  0  0  0  0  0  0  0  0  0  0
  -12.4463   -1.2451    4.1721 N   0  0  0  0  0  0  0  0  0  0  0  0
  -13.0742   -1.9767    5.1083 C   0  0  0  0  0  0  0  0  0  0  0  0
  -14.3771   -1.9342    5.7889 C   0  0  0  0  0  0  0  0  0  0  0  0
  -15.2828   -0.9612    5.5073 N   0  0  0  0  0  0  0  0  0  0  0  0
  -14.6178   -2.8747    6.7042 N   0  0  0  0  0  0  0  0  0  0  0  0
  -13.7260   -3.8357    7.0039 C   0  0  0  0  0  0  0  0  0  0  0  0
  -12.5322   -3.9488    6.4132 N   0  0  0  0  0  0  0  0  0  0  0  0
  -12.1604   -3.0540    5.4801 C   0  0  0  0  0  0  0  0  0  0  0  0
  -15.0779   -0.2800    4.8268 H   0  0  0  0  0  0  0  0  0  0  0  0
  -16.1440   -0.9375    5.9839 H   0  0  0  0  0  0  0  0  0  0  0  0
   -6.7193   -2.5852    4.7389 C   0  0  0  0  0  0  0  0  0  0  0  0
   -6.5052   -1.8311    5.9258 O   0  0  0  0  0  0  0  0  0  0  0  0
   -5.7410   -0.4345    5.8884 P   0  0  0  0  0  0  0  0  0  0  0  0
   -6.6072    0.5067    6.6770 O   0  0  0  0  0  0  0  0  0  0  0  0
   -4.4271   -0.7740    6.5345 O   0  0  0  0  0  0  0  0  0  0  0  0
   -5.5489   -0.1170    4.4415 O   0  0  0  0  0  0  0  0  0  0  0  0
   -3.8682    0.0182    6.5665 H   0  0  0  0  0  0  0  0  0  0  0  0
   -5.0845    0.7302    4.3552 H   0  0  0  0  0  0  0  0  0  0  0  0
  -10.0443   -4.8763    2.5789 O   0  0  0  0  0  0  0  0  0  0  0  0
   -9.8844   -4.8785    0.9791 P   0  0  0  0  0  0  0  0  0  0  0  0
  -11.2395   -4.4287    0.5362 O   0  0  0  0  0  0  0  0  0  0  0  0
   -8.7323   -3.9735    0.7041 O   0  0  0  0  0  0  0  0  0  0  0  0
   -9.6022   -6.2974    0.6246 O   0  0  0  0  0  0  0  0  0  0  0  0
   -8.5782   -3.9278   -0.2525 H   0  0  0  0  0  0  0  0  0  0  0  0
   -9.4929   -6.3750   -0.3360 H   0  0  0  0  0  0  0  0  0  0  0  0
 29 30  2  0  0  0
 29 31  1  0  0  0
 29 32  1  0  0  0
 29 28  1  0  0  0
 22 23  2  0  0  0
 22 24  1  0  0  0
 22 25  1  0  0  0
 22 21  1  0  0  0
 21 20  1  0  0  0
 20  1  1  0  0  0
  1  2  1  0  0  0
  1  3  1  0  0  0
  2  6  1  0  0  0
  3  4  1  0  0  0
  3  5  1  0  0  0
  5 28  1  0  0  0
  5  6  1  0  0  0
  6  8  1  0  0  0
  8  9  1  0  0  0
  8 17  1  0  0  0
  9 10  2  0  0  0
 10 11  1  0  0  0
 11 12  1  0  0  0
 11 17  2  0  0  0
 12 13  1  0  0  0
 12 14  2  0  0  0
 14 15  1  0  0  0
 15 16  2  0  0  0
 16 17  1  0  0  0
 31 33  1  0  0  0
 32 34  1  0  0  0
 24 26  1  0  0  0
 25 27  1  0  0  0
  4  7  1  0  0  0
 13 18  1  0  0  0
 13 19  1  0  0  0
M  END
> <minimizedAffinity>
-6.70304

$$$$
4R3W_A2P_A_406


 34 36  0  0  0  0  0  0  0  0999 V2000
  -11.8513   -3.2469    2.2249 C   0  0  0  0  0  0  0  0  0  0  0  0
  -12.3369   -4.5802    2.2171 O   0  0  0  0  0  0  0  0  0  0  0  0
  -12.7878   -2.4726    3.1330 C   0  0  0  0  0  0  0  0  0  0  0  0
  -13.8199   -1.8473    2.3738 O   0  0  0  0  0  0  0  0  0  0  0  0
  -13.3725   -3.5459    4.0099 C   0  0  0  0  0  0  0  0  0  0  0  0
  -13.5192   -4.6530    2.9862 C   0  0  0  0  0  0  0  0  0  0  0  0
  -14.2961   -2.5189    1.8609 H   0  0  0  0  0  0  0  0  0  0  0  0
  -13.7141   -5.9692    3.6320 N   0  0  0  0  0  0  0  0  0  0  0  0
  -12.7885   -6.7425    4.2251 C   0  0  0  0  0  0  0  0  0  0  0  0
  -13.3552   -7.8707    4.7048 N   0  0  0  0  0  0  0  0  0  0  0  0
  -14.6700   -7.8172    4.4318 C   0  0  0  0  0  0  0  0  0  0  0  0
  -15.8388   -8.6758    4.6757 C   0  0  0  0  0  0  0  0  0  0  0  0
  -15.7132   -9.8608    5.3286 N   0  0  0  0  0  0  0  0  0  0  0  0
  -17.0150   -8.2510    4.2105 N   0  0  0  0  0  0  0  0  0  0  0  0
  -17.1528   -7.0875    3.5502 C   0  0  0  0  0  0  0  0  0  0  0  0
  -16.1409   -6.2479    3.3096 N   0  0  0  0  0  0  0  0  0  0  0  0
  -14.8981   -6.5649    3.7153 C   0  0  0  0  0  0  0  0  0  0  0  0
  -14.8324  -10.1487    5.6610 H   0  0  0  0  0  0  0  0  0  0  0  0
  -16.5030  -10.4314    5.4693 H   0  0  0  0  0  0  0  0  0  0  0  0
  -10.4240   -3.2339    2.7574 C   0  0  0  0  0  0  0  0  0  0  0  0
  -10.4158   -2.5388    3.9984 O   0  0  0  0  0  0  0  0  0  0  0  0
   -9.6714   -3.1364    5.2730 P   0  0  0  0  0  0  0  0  0  0  0  0
   -9.1233   -4.4604    4.8208 O   0  0  0  0  0  0  0  0  0  0  0  0
   -8.6332   -2.0869    5.5554 O   0  0  0  0  0  0  0  0  0  0  0  0
  -10.6948   -3.1696    6.3606 O   0  0  0  0  0  0  0  0  0  0  0  0
   -8.1090   -2.3503    6.3279 H   0  0  0  0  0  0  0  0  0  0  0  0
  -10.2959   -3.5276    7.1690 H   0  0  0  0  0  0  0  0  0  0  0  0
  -14.6006   -3.1664    4.6340 O   0  0  0  0  0  0  0  0  0  0  0  0
  -14.9590   -3.5570    6.1519 P   0  0  0  0  0  0  0  0  0  0  0  0
  -15.1867   -2.2137    6.7672 O   0  0  0  0  0  0  0  0  0  0  0  0
  -16.1276   -4.4766    6.0493 O   0  0  0  0  0  0  0  0  0  0  0  0
  -13.7370   -4.2311    6.6723 O   0  0  0  0  0  0  0  0  0  0  0  0
  -16.3995   -4.7544    6.9380 H   0  0  0  0  0  0  0  0  0  0  0  0
  -13.8821   -4.4973    7.5937 H   0  0  0  0  0  0  0  0  0  0  0  0
 29 30  2  0  0  0
 29 31  1  0  0  0
 29 32  1  0  0  0
 29 28  1  0  0  0
 22 23  2  0  0  0
 22 24  1  0  0  0
 22 25  1  0  0  0
 22 21  1  0  0  0
 21 20  1  0  0  0
 20  1  1  0  0  0
  1  2  1  0  0  0
  1  3  1  0  0  0
  2  6  1  0  0  0
  3  4  1  0  0  0
  3  5  1  0  0  0
  5 28  1  0  0  0
  5  6  1  0  0  0
  6  8  1  0  0  0
  8  9  1  0  0  0
  8 17  1  0  0  0
  9 10  2  0  0  0
 10 11  1  0  0  0
 11 12  1  0  0  0
 11 17  2  0  0  0
 12 13  1  0  0  0
 12 14  2  0  0  0
 14 15  1  0  0  0
 15 16  2  0  0  0
 16 17  1  0  0  0
 31 33  1  0  0  0
 32 34  1  0  0  0
 24 26  1  0  0  0
 25 27  1  0  0  0
  4  7  1  0  0  0
 13 18  1  0  0  0
 13 19  1  0  0  0
M  END
> <minimizedAffinity>
-6.68270

$$$$
4R3W_A2P_A_406


 34 36  0  0  0  0  0  0  0  0999 V2000
  -13.2743   -5.3929    5.0138 C   0  0  0  0  0  0  0  0  0  0  0  0
  -11.9295   -4.9404    4.9919 O   0  0  0  0  0  0  0  0  0  0  0  0
  -14.0955   -4.2201    5.5154 C   0  0  0  0  0  0  0  0  0  0  0  0
  -14.2860   -4.3076    6.9256 O   0  0  0  0  0  0  0  0  0  0  0  0
  -13.2293   -3.0353    5.1859 C   0  0  0  0  0  0  0  0  0  0  0  0
  -11.8693   -3.6243    5.5006 C   0  0  0  0  0  0  0  0  0  0  0  0
  -13.4230   -4.3521    7.3663 H   0  0  0  0  0  0  0  0  0  0  0  0
  -10.7779   -2.8203    4.9094 N   0  0  0  0  0  0  0  0  0  0  0  0
  -10.8840   -1.7715    4.0754 C   0  0  0  0  0  0  0  0  0  0  0  0
   -9.6600   -1.2964    3.7589 N   0  0  0  0  0  0  0  0  0  0  0  0
   -8.7503   -2.0395    4.4116 C   0  0  0  0  0  0  0  0  0  0  0  0
   -7.2844   -2.0592    4.5279 C   0  0  0  0  0  0  0  0  0  0  0  0
   -6.5166   -1.1598    3.8586 N   0  0  0  0  0  0  0  0  0  0  0  0
   -6.7466   -3.0073    5.2974 N   0  0  0  0  0  0  0  0  0  0  0  0
   -7.4923   -3.9131    5.9547 C   0  0  0  0  0  0  0  0  0  0  0  0
   -8.8280   -3.9441    5.9124 N   0  0  0  0  0  0  0  0  0  0  0  0
   -9.4941   -3.0491    5.1608 C   0  0  0  0  0  0  0  0  0  0  0  0
   -6.9413   -0.4709    3.2979 H   0  0  0  0  0  0  0  0  0  0  0  0
   -5.5358   -1.1971    3.9344 H   0  0  0  0  0  0  0  0  0  0  0  0
  -13.6910   -5.8016    3.6066 C   0  0  0  0  0  0  0  0  0  0  0  0
  -15.0505   -5.4288    3.4165 O   0  0  0  0  0  0  0  0  0  0  0  0
  -16.2209   -6.5046    3.5097 P   0  0  0  0  0  0  0  0  0  0  0  0
  -17.1767   -5.9552    4.5308 O   0  0  0  0  0  0  0  0  0  0  0  0
  -16.7456   -6.5257    2.1014 O   0  0  0  0  0  0  0  0  0  0  0  0
  -15.5547   -7.7995    3.8421 O   0  0  0  0  0  0  0  0  0  0  0  0
  -17.4771   -7.1596    2.0384 H   0  0  0  0  0  0  0  0  0  0  0  0
  -16.2235   -8.4985    3.9124 H   0  0  0  0  0  0  0  0  0  0  0  0
  -13.5460   -1.8680    5.9466 O   0  0  0  0  0  0  0  0  0  0  0  0
  -14.7570   -0.8833    5.5604 P   0  0  0  0  0  0  0  0  0  0  0  0
  -15.1152   -1.3627    4.1905 O   0  0  0  0  0  0  0  0  0  0  0  0
  -15.7657   -1.0676    6.6423 O   0  0  0  0  0  0  0  0  0  0  0  0
  -14.1558    0.4795    5.5568 O   0  0  0  0  0  0  0  0  0  0  0  0
  -16.5313   -0.4973    6.4711 H   0  0  0  0  0  0  0  0  0  0  0  0
  -14.8362    1.1323    5.3293 H   0  0  0  0  0  0  0  0  0  0  0  0
 29 30  2  0  0  0
 29 31  1  0  0  0
 29 32  1  0  0  0
 29 28  1  0  0  0
 22 23  2  0  0  0
 22 24  1  0  0  0
 22 25  1  0  0  0
 22 21  1  0  0  0
 21 20  1  0  0  0
 20  1  1  0  0  0
  1  2  1  0  0  0
  1  3  1  0  0  0
  2  6  1  0  0  0
  3  4  1  0  0  0
  3  5  1  0  0  0
  5 28  1  0  0  0
  5  6  1  0  0  0
  6  8  1  0  0  0
  8  9  1  0  0  0
  8 17  1  0  0  0
  9 10  2  0  0  0
 10 11  1  0  0  0
 11 12  1  0  0  0
 11 17  2  0  0  0
 12 13  1  0  0  0
 12 14  2  0  0  0
 14 15  1  0  0  0
 15 16  2  0  0  0
 16 17  1  0  0  0
 31 33  1  0  0  0
 32 34  1  0  0  0
 24 26  1  0  0  0
 25 27  1  0  0  0
  4  7  1  0  0  0
 13 18  1  0  0  0
 13 19  1  0  0  0
M  END
> <minimizedAffinity>
-6.63107

$$$$
4R3W_A2P_A_406


 34 36  0  0  0  0  0  0  0  0999 V2000
  -12.5858   -5.5300    4.4413 C   0  0  0  0  0  0  0  0  0  0  0  0
  -11.2764   -5.0254    4.6522 O   0  0  0  0  0  0  0  0  0  0  0  0
  -13.5286   -4.4445    4.9252 C   0  0  0  0  0  0  0  0  0  0  0  0
  -13.9071   -4.6759    6.2801 O   0  0  0  0  0  0  0  0  0  0  0  0
  -12.6885   -3.2004    4.8311 C   0  0  0  0  0  0  0  0  0  0  0  0
  -11.3560   -3.7635    5.2815 C   0  0  0  0  0  0  0  0  0  0  0  0
  -13.1121   -4.7292    6.8333 H   0  0  0  0  0  0  0  0  0  0  0  0
  -10.2370   -2.8639    4.9270 N   0  0  0  0  0  0  0  0  0  0  0  0
  -10.2808   -1.7470    4.1805 C   0  0  0  0  0  0  0  0  0  0  0  0
   -9.0518   -1.1947    4.0875 N   0  0  0  0  0  0  0  0  0  0  0  0
   -8.2045   -1.9579    4.7986 C   0  0  0  0  0  0  0  0  0  0  0  0
   -6.7707   -1.9285    5.1245 C   0  0  0  0  0  0  0  0  0  0  0  0
   -5.9658   -0.9398    4.6543 N   0  0  0  0  0  0  0  0  0  0  0  0
   -6.2965   -2.9216    5.8788 N   0  0  0  0  0  0  0  0  0  0  0  0
   -7.0776   -3.9145    6.3399 C   0  0  0  0  0  0  0  0  0  0  0  0
   -8.3903   -3.9959    6.1014 N   0  0  0  0  0  0  0  0  0  0  0  0
   -8.9911   -3.0626    5.3415 C   0  0  0  0  0  0  0  0  0  0  0  0
   -6.3436   -0.2195    4.0997 H   0  0  0  0  0  0  0  0  0  0  0  0
   -5.0049   -0.9439    4.8682 H   0  0  0  0  0  0  0  0  0  0  0  0
  -12.7823   -5.8161    2.9580 C   0  0  0  0  0  0  0  0  0  0  0  0
  -11.6434   -6.5243    2.4841 O   0  0  0  0  0  0  0  0  0  0  0  0
  -10.4970   -5.7858    1.6617 P   0  0  0  0  0  0  0  0  0  0  0  0
  -11.0156   -4.3945    1.4307 O   0  0  0  0  0  0  0  0  0  0  0  0
   -9.3257   -5.8750    2.5995 O   0  0  0  0  0  0  0  0  0  0  0  0
  -10.2643   -6.6256    0.4486 O   0  0  0  0  0  0  0  0  0  0  0  0
   -8.5542   -5.4486    2.1947 H   0  0  0  0  0  0  0  0  0  0  0  0
   -9.5701   -6.2222   -0.0957 H   0  0  0  0  0  0  0  0  0  0  0  0
  -13.1678   -2.1257    5.6416 O   0  0  0  0  0  0  0  0  0  0  0  0
  -14.5107   -1.3114    5.2967 P   0  0  0  0  0  0  0  0  0  0  0  0
  -14.6323   -1.5333    3.8233 O   0  0  0  0  0  0  0  0  0  0  0  0
  -15.5595   -1.9057    6.1734 O   0  0  0  0  0  0  0  0  0  0  0  0
  -14.2003    0.1033    5.6442 O   0  0  0  0  0  0  0  0  0  0  0  0
  -16.4049   -1.4570    6.0158 H   0  0  0  0  0  0  0  0  0  0  0  0
  -14.9739    0.6587    5.4599 H   0  0  0  0  0  0  0  0  0  0  0  0
 29 30  2  0  0  0
 29 31  1  0  0  0
 29 32  1  0  0  0
 29 28  1  0  0  0
 22 23  2  0  0  0
 22 24  1  0  0  0
 22 25  1  0  0  0
 22 21  1  0  0  0
 21 20  1  0  0  0
 20  1  1  0  0  0
  1  2  1  0  0  0
  1  3  1  0  0  0
  2  6  1  0  0  0
  3  4  1  0  0  0
  3  5  1  0  0  0
  5 28  1  0  0  0
  5  6  1  0  0  0
  6  8  1  0  0  0
  8  9  1  0  0  0
  8 17  1  0  0  0
  9 10  2  0  0  0
 10 11  1  0  0  0
 11 12  1  0  0  0
 11 17  2  0  0  0
 12 13  1  0  0  0
 12 14  2  0  0  0
 14 15  1  0  0  0
 15 16  2  0  0  0
 16 17  1  0  0  0
 31 33  1  0  0  0
 32 34  1  0  0  0
 24 26  1  0  0  0
 25 27  1  0  0  0
  4  7  1  0  0  0
 13 18  1  0  0  0
 13 19  1  0  0  0
M  END
> <minimizedAffinity>
-6.60186

$$$$
