3UEU_DAO_A_2871


 15 14  0  0  0  0  0  0  0  0999 V2000
   -2.4656   10.8997   18.0779 C   0  0  0  0  0  0  0  0  0  0  0  0
   -3.3025    9.9470   18.9269 C   0  0  0  0  0  0  0  0  0  0  0  0
   -4.1321   10.6929   19.9824 C   0  0  0  0  0  0  0  0  0  0  0  0
   -4.2683    9.8943   21.2828 C   0  0  0  0  0  0  0  0  0  0  0  0
   -5.9583   10.9998   22.5942 O   0  0  0  0  0  0  0  0  0  0  0  0
   -3.9070   11.1494   23.3077 O   0  0  0  0  0  0  0  0  0  0  0  0
   -4.7357   10.7361   22.4655 C   0  0  0  0  0  0  0  0  0  0  0  0
   -2.9971   10.9498   23.2067 H   0  0  0  0  0  0  0  0  0  0  0  0
   -1.6175   11.8576   18.9007 C   0  0  0  0  0  0  0  0  0  0  0  0
   -1.9004   13.2958   18.4550 C   0  0  0  0  0  0  0  0  0  0  0  0
   -3.2308   13.4318   17.7212 C   0  0  0  0  0  0  0  0  0  0  0  0
   -3.5553   14.8757   17.3957 C   0  0  0  0  0  0  0  0  0  0  0  0
   -2.4811   15.8586   17.8646 C   0  0  0  0  0  0  0  0  0  0  0  0
   -2.8903   17.2892   17.5835 C   0  0  0  0  0  0  0  0  0  0  0  0
   -4.2561   17.3218   16.9428 C   0  0  0  0  0  0  0  0  0  0  0  0
  5  7  2  0  0  0
  6  7  1  0  0  0
  7  4  1  0  0  0
  4  3  1  0  0  0
  3  2  1  0  0  0
  2  1  1  0  0  0
  1  9  1  0  0  0
  9 10  1  0  0  0
 10 11  1  0  0  0
 11 12  1  0  0  0
 12 13  1  0  0  0
 13 14  1  0  0  0
 14 15  1  0  0  0
  6  8  1  0  0  0
M  END
> <minimizedAffinity>
-6.39360

$$$$
3UEU_DAO_A_2871


 15 14  0  0  0  0  0  0  0  0999 V2000
   -2.2007   14.1417   18.0628 C   0  0  0  0  0  0  0  0  0  0  0  0
   -1.5391   15.5079   18.2200 C   0  0  0  0  0  0  0  0  0  0  0  0
   -2.5253   16.6582   17.9695 C   0  0  0  0  0  0  0  0  0  0  0  0
   -3.7438   16.2100   17.1559 C   0  0  0  0  0  0  0  0  0  0  0  0
   -3.7544   18.4023   16.1600 O   0  0  0  0  0  0  0  0  0  0  0  0
   -4.9032   16.8565   15.1450 O   0  0  0  0  0  0  0  0  0  0  0  0
   -4.1646   17.2159   16.0897 C   0  0  0  0  0  0  0  0  0  0  0  0
   -5.2059   15.9710   15.0977 H   0  0  0  0  0  0  0  0  0  0  0  0
   -1.5136   13.0414   18.8573 C   0  0  0  0  0  0  0  0  0  0  0  0
   -2.0750   11.6815   18.4298 C   0  0  0  0  0  0  0  0  0  0  0  0
   -3.5139   11.7711   17.9315 C   0  0  0  0  0  0  0  0  0  0  0  0
   -4.4676   10.9794   18.8030 C   0  0  0  0  0  0  0  0  0  0  0  0
   -3.7694   10.2292   19.9387 C   0  0  0  0  0  0  0  0  0  0  0  0
   -4.2693   10.6963   21.2897 C   0  0  0  0  0  0  0  0  0  0  0  0
   -4.7083    9.5136   22.1177 C   0  0  0  0  0  0  0  0  0  0  0  0
  5  7  2  0  0  0
  6  7  1  0  0  0
  7  4  1  0  0  0
  4  3  1  0  0  0
  3  2  1  0  0  0
  2  1  1  0  0  0
  1  9  1  0  0  0
  9 10  1  0  0  0
 10 11  1  0  0  0
 11 12  1  0  0  0
 12 13  1  0  0  0
 13 14  1  0  0  0
 14 15  1  0  0  0
  6  8  1  0  0  0
M  END
> <minimizedAffinity>
-6.08282

$$$$
3UEU_DAO_A_2871


 15 14  0  0  0  0  0  0  0  0999 V2000
   -1.8627   13.7139   18.3524 C   0  0  0  0  0  0  0  0  0  0  0  0
   -1.6895   15.2271   18.2560 C   0  0  0  0  0  0  0  0  0  0  0  0
   -2.4174   15.8142   17.0377 C   0  0  0  0  0  0  0  0  0  0  0  0
   -3.2552   17.0445   17.4008 C   0  0  0  0  0  0  0  0  0  0  0  0
   -3.6862   18.8781   15.9007 O   0  0  0  0  0  0  0  0  0  0  0  0
   -4.7522   17.0199   15.5128 O   0  0  0  0  0  0  0  0  0  0  0  0
   -3.9446   17.6847   16.2005 C   0  0  0  0  0  0  0  0  0  0  0  0
   -4.9409   16.1309   15.7409 H   0  0  0  0  0  0  0  0  0  0  0  0
   -3.2118   13.2257   17.8470 C   0  0  0  0  0  0  0  0  0  0  0  0
   -3.2602   11.6966   17.9279 C   0  0  0  0  0  0  0  0  0  0  0  0
   -1.8892   11.0789   18.1842 C   0  0  0  0  0  0  0  0  0  0  0  0
   -1.7107    9.7662   17.4487 C   0  0  0  0  0  0  0  0  0  0  0  0
   -2.3361    8.5745   18.1758 C   0  0  0  0  0  0  0  0  0  0  0  0
   -2.2440    7.3154   17.3395 C   0  0  0  0  0  0  0  0  0  0  0  0
   -3.3833    6.3848   17.6756 C   0  0  0  0  0  0  0  0  0  0  0  0
  5  7  2  0  0  0
  6  7  1  0  0  0
  7  4  1  0  0  0
  4  3  1  0  0  0
  3  2  1  0  0  0
  2  1  1  0  0  0
  1  9  1  0  0  0
  9 10  1  0  0  0
 10 11  1  0  0  0
 11 12  1  0  0  0
 12 13  1  0  0  0
 13 14  1  0  0  0
 14 15  1  0  0  0
  6  8  1  0  0  0
M  END
> <minimizedAffinity>
-6.03699

$$$$
3UEU_DAO_A_2871


 15 14  0  0  0  0  0  0  0  0999 V2000
   -3.3863   11.6181   17.8707 C   0  0  0  0  0  0  0  0  0  0  0  0
   -2.0584   10.9385   18.1926 C   0  0  0  0  0  0  0  0  0  0  0  0
   -2.1362    9.4137   18.0273 C   0  0  0  0  0  0  0  0  0  0  0  0
   -1.8472    8.6733   19.3372 C   0  0  0  0  0  0  0  0  0  0  0  0
   -3.4196    7.0933   20.2478 O   0  0  0  0  0  0  0  0  0  0  0  0
   -3.8119    9.2006   20.6287 O   0  0  0  0  0  0  0  0  0  0  0  0
   -3.1055    8.3036   20.1154 C   0  0  0  0  0  0  0  0  0  0  0  0
   -3.5729   10.1009   20.5268 H   0  0  0  0  0  0  0  0  0  0  0  0
   -3.2938   13.1357   17.8237 C   0  0  0  0  0  0  0  0  0  0  0  0
   -1.9497   13.5799   18.4094 C   0  0  0  0  0  0  0  0  0  0  0  0
   -1.5968   15.0182   18.0438 C   0  0  0  0  0  0  0  0  0  0  0  0
   -2.6071   15.6271   17.0928 C   0  0  0  0  0  0  0  0  0  0  0  0
   -3.1277   16.9898   17.5532 C   0  0  0  0  0  0  0  0  0  0  0  0
   -4.2167   17.4978   16.6316 C   0  0  0  0  0  0  0  0  0  0  0  0
   -3.7117   18.6718   15.8295 C   0  0  0  0  0  0  0  0  0  0  0  0
  5  7  2  0  0  0
  6  7  1  0  0  0
  7  4  1  0  0  0
  4  3  1  0  0  0
  3  2  1  0  0  0
  2  1  1  0  0  0
  1  9  1  0  0  0
  9 10  1  0  0  0
 10 11  1  0  0  0
 11 12  1  0  0  0
 12 13  1  0  0  0
 13 14  1  0  0  0
 14 15  1  0  0  0
  6  8  1  0  0  0
M  END
> <minimizedAffinity>
-5.99089

$$$$
3UEU_DAO_A_2871


 15 14  0  0  0  0  0  0  0  0999 V2000
   -3.7353   11.9473   18.0966 C   0  0  0  0  0  0  0  0  0  0  0  0
   -2.7203   11.2264   18.9792 C   0  0  0  0  0  0  0  0  0  0  0  0
   -3.3332   10.0088   19.6864 C   0  0  0  0  0  0  0  0  0  0  0  0
   -2.4412    8.7675   19.5808 C   0  0  0  0  0  0  0  0  0  0  0  0
   -3.3878    7.2156   18.0017 O   0  0  0  0  0  0  0  0  0  0  0  0
   -1.6978    8.4052   17.3176 O   0  0  0  0  0  0  0  0  0  0  0  0
   -2.5076    8.0870   18.2176 C   0  0  0  0  0  0  0  0  0  0  0  0
   -1.0439    9.0554   17.4842 H   0  0  0  0  0  0  0  0  0  0  0  0
   -3.3101   13.3562   17.7118 C   0  0  0  0  0  0  0  0  0  0  0  0
   -1.9624   13.6755   18.3667 C   0  0  0  0  0  0  0  0  0  0  0  0
   -1.5929   15.1516   18.2594 C   0  0  0  0  0  0  0  0  0  0  0  0
   -2.3583   15.8502   17.1539 C   0  0  0  0  0  0  0  0  0  0  0  0
   -3.1054   17.0976   17.6291 C   0  0  0  0  0  0  0  0  0  0  0  0
   -4.1843   17.4959   16.6440 C   0  0  0  0  0  0  0  0  0  0  0  0
   -3.7198   18.6647   15.8103 C   0  0  0  0  0  0  0  0  0  0  0  0
  5  7  2  0  0  0
  6  7  1  0  0  0
  7  4  1  0  0  0
  4  3  1  0  0  0
  3  2  1  0  0  0
  2  1  1  0  0  0
  1  9  1  0  0  0
  9 10  1  0  0  0
 10 11  1  0  0  0
 11 12  1  0  0  0
 12 13  1  0  0  0
 13 14  1  0  0  0
 14 15  1  0  0  0
  6  8  1  0  0  0
M  END
> <minimizedAffinity>
-5.98866

$$$$
3UEU_DAO_A_2871


 15 14  0  0  0  0  0  0  0  0999 V2000
   -2.4117   13.7005   18.0403 C   0  0  0  0  0  0  0  0  0  0  0  0
   -1.5160   14.9283   18.1775 C   0  0  0  0  0  0  0  0  0  0  0  0
   -2.2822   16.2331   17.9148 C   0  0  0  0  0  0  0  0  0  0  0  0
   -3.6010   15.9914   17.1734 C   0  0  0  0  0  0  0  0  0  0  0  0
   -4.7969   16.9505   15.3164 O   0  0  0  0  0  0  0  0  0  0  0  0
   -3.5961   18.3106   16.5197 O   0  0  0  0  0  0  0  0  0  0  0  0
   -4.0180   17.1563   16.2818 C   0  0  0  0  0  0  0  0  0  0  0  0
   -3.0159   18.4580   17.2405 H   0  0  0  0  0  0  0  0  0  0  0  0
   -2.1127   12.6157   19.0639 C   0  0  0  0  0  0  0  0  0  0  0  0
   -1.3810   11.4583   18.3768 C   0  0  0  0  0  0  0  0  0  0  0  0
   -2.3174   10.3164   17.9946 C   0  0  0  0  0  0  0  0  0  0  0  0
   -1.6092    9.2458   17.1896 C   0  0  0  0  0  0  0  0  0  0  0  0
   -1.9060    7.8262   17.6762 C   0  0  0  0  0  0  0  0  0  0  0  0
   -1.7105    7.7106   19.1734 C   0  0  0  0  0  0  0  0  0  0  0  0
   -0.9679    6.4391   19.5030 C   0  0  0  0  0  0  0  0  0  0  0  0
  5  7  2  0  0  0
  6  7  1  0  0  0
  7  4  1  0  0  0
  4  3  1  0  0  0
  3  2  1  0  0  0
  2  1  1  0  0  0
  1  9  1  0  0  0
  9 10  1  0  0  0
 10 11  1  0  0  0
 11 12  1  0  0  0
 12 13  1  0  0  0
 13 14  1  0  0  0
 14 15  1  0  0  0
  6  8  1  0  0  0
M  END
> <minimizedAffinity>
-5.73014

$$$$
3UEU_DAO_A_2871


 15 14  0  0  0  0  0  0  0  0999 V2000
   -3.4728   11.8895   18.0613 C   0  0  0  0  0  0  0  0  0  0  0  0
   -3.5787   13.3253   17.5552 C   0  0  0  0  0  0  0  0  0  0  0  0
   -2.4190   14.1996   18.0545 C   0  0  0  0  0  0  0  0  0  0  0  0
   -2.0582   15.3073   17.0594 C   0  0  0  0  0  0  0  0  0  0  0  0
   -2.9064   17.3515   18.0079 O   0  0  0  0  0  0  0  0  0  0  0  0
   -3.9001   16.6127   16.2173 O   0  0  0  0  0  0  0  0  0  0  0  0
   -3.0174   16.4923   17.0967 C   0  0  0  0  0  0  0  0  0  0  0  0
   -3.9782   15.9693   15.5406 H   0  0  0  0  0  0  0  0  0  0  0  0
   -2.0405   11.4354   18.2982 C   0  0  0  0  0  0  0  0  0  0  0  0
   -2.0023   10.4852   19.4994 C   0  0  0  0  0  0  0  0  0  0  0  0
   -3.0223    9.3565   19.3874 C   0  0  0  0  0  0  0  0  0  0  0  0
   -2.4487    8.1390   18.6912 C   0  0  0  0  0  0  0  0  0  0  0  0
   -1.4504    7.3631   19.5522 C   0  0  0  0  0  0  0  0  0  0  0  0
   -0.7439    6.2967   18.7416 C   0  0  0  0  0  0  0  0  0  0  0  0
    0.2275    5.5403   19.6140 C   0  0  0  0  0  0  0  0  0  0  0  0
  5  7  2  0  0  0
  6  7  1  0  0  0
  7  4  1  0  0  0
  4  3  1  0  0  0
  3  2  1  0  0  0
  2  1  1  0  0  0
  1  9  1  0  0  0
  9 10  1  0  0  0
 10 11  1  0  0  0
 11 12  1  0  0  0
 12 13  1  0  0  0
 13 14  1  0  0  0
 14 15  1  0  0  0
  6  8  1  0  0  0
M  END
> <minimizedAffinity>
-5.30300

$$$$
3UEU_DAO_A_2871


 15 14  0  0  0  0  0  0  0  0999 V2000
   -2.2504    8.7978   17.9487 C   0  0  0  0  0  0  0  0  0  0  0  0
   -2.2209    8.5506   19.4543 C   0  0  0  0  0  0  0  0  0  0  0  0
   -1.6525    7.1664   19.8001 C   0  0  0  0  0  0  0  0  0  0  0  0
   -2.6312    6.3288   20.6296 C   0  0  0  0  0  0  0  0  0  0  0  0
   -3.9359    4.3125   20.4548 O   0  0  0  0  0  0  0  0  0  0  0  0
   -2.3827    4.6106   18.9588 O   0  0  0  0  0  0  0  0  0  0  0  0
   -3.0004    5.0019   19.9748 C   0  0  0  0  0  0  0  0  0  0  0  0
   -1.6863    5.1285   18.6054 H   0  0  0  0  0  0  0  0  0  0  0  0
   -1.6796   10.1491   17.5460 C   0  0  0  0  0  0  0  0  0  0  0  0
   -1.8328   11.1317   18.7114 C   0  0  0  0  0  0  0  0  0  0  0  0
   -2.7987   12.2695   18.3964 C   0  0  0  0  0  0  0  0  0  0  0  0
   -2.0805   13.5917   18.2174 C   0  0  0  0  0  0  0  0  0  0  0  0
   -2.9919   14.7131   17.7158 C   0  0  0  0  0  0  0  0  0  0  0  0
   -2.3295   16.0659   17.8725 C   0  0  0  0  0  0  0  0  0  0  0  0
   -3.2608   17.1569   17.4042 C   0  0  0  0  0  0  0  0  0  0  0  0
  5  7  2  0  0  0
  6  7  1  0  0  0
  7  4  1  0  0  0
  4  3  1  0  0  0
  3  2  1  0  0  0
  2  1  1  0  0  0
  1  9  1  0  0  0
  9 10  1  0  0  0
 10 11  1  0  0  0
 11 12  1  0  0  0
 12 13  1  0  0  0
 13 14  1  0  0  0
 14 15  1  0  0  0
  6  8  1  0  0  0
M  END
> <minimizedAffinity>
-5.24410

$$$$
3UEU_DAO_A_2871


 15 14  0  0  0  0  0  0  0  0999 V2000
   -1.7330   15.6491   18.1950 C   0  0  0  0  0  0  0  0  0  0  0  0
   -2.6328   16.8470   17.9051 C   0  0  0  0  0  0  0  0  0  0  0  0
   -3.8954   16.4451   17.1287 C   0  0  0  0  0  0  0  0  0  0  0  0
   -4.7162   17.6613   16.6875 C   0  0  0  0  0  0  0  0  0  0  0  0
   -4.7201   17.6024   14.2803 O   0  0  0  0  0  0  0  0  0  0  0  0
   -3.6126   19.2231   15.2217 O   0  0  0  0  0  0  0  0  0  0  0  0
   -4.3203   18.1948   15.3148 C   0  0  0  0  0  0  0  0  0  0  0  0
   -3.3175   19.6605   15.9961 H   0  0  0  0  0  0  0  0  0  0  0  0
   -2.0367   14.4392   17.3245 C   0  0  0  0  0  0  0  0  0  0  0  0
   -2.5210   13.2865   18.2099 C   0  0  0  0  0  0  0  0  0  0  0  0
   -1.4381   12.7789   19.1567 C   0  0  0  0  0  0  0  0  0  0  0  0
   -1.5188   11.2796   19.3608 C   0  0  0  0  0  0  0  0  0  0  0  0
   -1.7898   10.5061   18.0692 C   0  0  0  0  0  0  0  0  0  0  0  0
   -2.4739    9.1861   18.3570 C   0  0  0  0  0  0  0  0  0  0  0  0
   -1.9397    8.1140   17.4394 C   0  0  0  0  0  0  0  0  0  0  0  0
  5  7  2  0  0  0
  6  7  1  0  0  0
  7  4  1  0  0  0
  4  3  1  0  0  0
  3  2  1  0  0  0
  2  1  1  0  0  0
  1  9  1  0  0  0
  9 10  1  0  0  0
 10 11  1  0  0  0
 11 12  1  0  0  0
 12 13  1  0  0  0
 13 14  1  0  0  0
 14 15  1  0  0  0
  6  8  1  0  0  0
M  END
> <minimizedAffinity>
-5.17946

$$$$
3UEU_DAO_A_2871


 15 14  0  0  0  0  0  0  0  0999 V2000
   -1.1500   13.4817   18.5757 C   0  0  0  0  0  0  0  0  0  0  0  0
   -2.2812   12.4788   18.3673 C   0  0  0  0  0  0  0  0  0  0  0  0
   -2.1920   11.2979   19.3452 C   0  0  0  0  0  0  0  0  0  0  0  0
   -3.5623   10.9074   19.9086 C   0  0  0  0  0  0  0  0  0  0  0  0
   -4.2614    9.2179   21.4755 O   0  0  0  0  0  0  0  0  0  0  0  0
   -3.0413    8.5574   19.7979 O   0  0  0  0  0  0  0  0  0  0  0  0
   -3.6196    9.4736   20.4250 C   0  0  0  0  0  0  0  0  0  0  0  0
   -2.5644    8.7538   19.0155 H   0  0  0  0  0  0  0  0  0  0  0  0
   -1.5829   14.9286   18.3937 C   0  0  0  0  0  0  0  0  0  0  0  0
   -2.5559   15.0219   17.2140 C   0  0  0  0  0  0  0  0  0  0  0  0
   -3.7325   15.9509   17.4959 C   0  0  0  0  0  0  0  0  0  0  0  0
   -3.7024   17.1878   16.6212 C   0  0  0  0  0  0  0  0  0  0  0  0
   -4.6608   17.1117   15.4313 C   0  0  0  0  0  0  0  0  0  0  0  0
   -4.5046   18.3163   14.5270 C   0  0  0  0  0  0  0  0  0  0  0  0
   -3.5795   19.3253   15.1620 C   0  0  0  0  0  0  0  0  0  0  0  0
  5  7  2  0  0  0
  6  7  1  0  0  0
  7  4  1  0  0  0
  4  3  1  0  0  0
  3  2  1  0  0  0
  2  1  1  0  0  0
  1  9  1  0  0  0
  9 10  1  0  0  0
 10 11  1  0  0  0
 11 12  1  0  0  0
 12 13  1  0  0  0
 13 14  1  0  0  0
 14 15  1  0  0  0
  6  8  1  0  0  0
M  END
> <minimizedAffinity>
-4.96320

$$$$
