1JAK_IFG_A_601


 19 19  0  0  0  0  0  0  0  0999 V2000
   -4.8453   66.0126   10.2721 N   0  0  0  0  0  0  0  0  0  0  0  0
   -5.3901   66.5235    8.9876 C   0  0  0  0  0  0  0  0  0  0  0  0
   -4.3119   66.9312    7.9032 C   0  0  0  0  0  0  0  0  0  0  0  0
   -3.0651   67.6229    8.4936 C   0  0  0  0  0  0  0  0  0  0  0  0
   -2.5137   66.7476    9.6214 C   0  0  0  0  0  0  0  0  0  0  0  0
   -3.5382   66.5017   10.7370 C   0  0  0  0  0  0  0  0  0  0  0  0
   -4.9153   67.7840    6.9391 O   0  0  0  0  0  0  0  0  0  0  0  0
   -3.4545   68.8861    9.0313 O   0  0  0  0  0  0  0  0  0  0  0  0
   -4.7709   64.9992   10.1832 H   0  0  0  0  0  0  0  0  0  0  0  0
   -5.2160   68.5988    7.3712 H   0  0  0  0  0  0  0  0  0  0  0  0
   -4.1292   68.7522    9.7152 H   0  0  0  0  0  0  0  0  0  0  0  0
   -5.8633   64.2529    8.1647 C   0  0  0  0  0  0  0  0  0  0  0  0
   -6.7044   63.1667    7.5446 C   0  0  0  0  0  0  0  0  0  0  0  0
   -6.3115   65.5208    8.4079 N   0  0  0  0  0  0  0  0  0  0  0  0
   -4.7196   63.9462    8.4710 O   0  0  0  0  0  0  0  0  0  0  0  0
   -7.2418   65.7657    8.1988 H   0  0  0  0  0  0  0  0  0  0  0  0
   -1.2414   67.2607   10.2876 C   0  0  0  0  0  0  0  0  0  0  0  0
   -0.7493   66.3331   11.2487 O   0  0  0  0  0  0  0  0  0  0  0  0
   -1.4150   66.2021   11.9419 H   0  0  0  0  0  0  0  0  0  0  0  0
  1  2  1  0  0  0
  1  6  1  0  0  0
  2  3  1  0  0  0
  2 14  1  0  0  0
  3  4  1  0  0  0
  3  7  1  0  0  0
  4  5  1  0  0  0
  4  8  1  0  0  0
  5 17  1  0  0  0
  5  6  1  0  0  0
 17 18  1  0  0  0
 12 13  1  0  0  0
 12 14  1  0  0  0
 12 15  2  0  0  0
  1  9  1  0  0  0
 14 16  1  0  0  0
  7 10  1  0  0  0
  8 11  1  0  0  0
 18 19  1  0  0  0
M  END
> <minimizedAffinity>
-8.24111

$$$$
1JAK_IFG_A_601


 19 19  0  0  0  0  0  0  0  0999 V2000
   -4.8265   67.4460    9.7397 N   0  0  0  0  0  0  0  0  0  0  0  0
   -3.8248   66.3933    9.4296 C   0  0  0  0  0  0  0  0  0  0  0  0
   -2.6860   66.1955   10.5106 C   0  0  0  0  0  0  0  0  0  0  0  0
   -2.1882   67.5138   11.1396 C   0  0  0  0  0  0  0  0  0  0  0  0
   -3.4009   68.2961   11.6490 C   0  0  0  0  0  0  0  0  0  0  0  0
   -4.4137   68.6095   10.5396 C   0  0  0  0  0  0  0  0  0  0  0  0
   -1.5907   65.5096    9.9182 O   0  0  0  0  0  0  0  0  0  0  0  0
   -1.5279   68.2801   10.1329 O   0  0  0  0  0  0  0  0  0  0  0  0
   -5.5900   66.9933   10.2424 H   0  0  0  0  0  0  0  0  0  0  0  0
   -1.2212   66.0486    9.2014 H   0  0  0  0  0  0  0  0  0  0  0  0
   -2.1445   68.4579    9.4056 H   0  0  0  0  0  0  0  0  0  0  0  0
   -5.4434   64.9989    8.2079 C   0  0  0  0  0  0  0  0  0  0  0  0
   -6.2307   63.7468    7.9179 C   0  0  0  0  0  0  0  0  0  0  0  0
   -4.5161   65.1039    9.2062 N   0  0  0  0  0  0  0  0  0  0  0  0
   -5.6595   65.9574    7.4795 O   0  0  0  0  0  0  0  0  0  0  0  0
   -4.3091   64.3263    9.7735 H   0  0  0  0  0  0  0  0  0  0  0  0
   -3.0846   69.6125   12.3509 C   0  0  0  0  0  0  0  0  0  0  0  0
   -2.5580   70.5718   11.4406 O   0  0  0  0  0  0  0  0  0  0  0  0
   -1.7334   70.2346   11.0568 H   0  0  0  0  0  0  0  0  0  0  0  0
  1  2  1  0  0  0
  1  6  1  0  0  0
  2  3  1  0  0  0
  2 14  1  0  0  0
  3  4  1  0  0  0
  3  7  1  0  0  0
  4  5  1  0  0  0
  4  8  1  0  0  0
  5 17  1  0  0  0
  5  6  1  0  0  0
 17 18  1  0  0  0
 12 13  1  0  0  0
 12 14  1  0  0  0
 12 15  2  0  0  0
  1  9  1  0  0  0
 14 16  1  0  0  0
  7 10  1  0  0  0
  8 11  1  0  0  0
 18 19  1  0  0  0
M  END
> <minimizedAffinity>
-7.12391

$$$$
1JAK_IFG_A_601


 19 19  0  0  0  0  0  0  0  0999 V2000
   -4.8904   68.1525   12.2723 N   0  0  0  0  0  0  0  0  0  0  0  0
   -4.1297   67.8608   11.0297 C   0  0  0  0  0  0  0  0  0  0  0  0
   -2.5789   68.1705   11.0906 C   0  0  0  0  0  0  0  0  0  0  0  0
   -2.2298   69.4523   11.8760 C   0  0  0  0  0  0  0  0  0  0  0  0
   -2.9043   69.3790   13.2478 C   0  0  0  0  0  0  0  0  0  0  0  0
   -4.4293   69.2371   13.1526 C   0  0  0  0  0  0  0  0  0  0  0  0
   -2.0682   68.2713    9.7677 O   0  0  0  0  0  0  0  0  0  0  0  0
   -2.7414   70.5783   11.1641 O   0  0  0  0  0  0  0  0  0  0  0  0
   -4.8939   67.2973   12.8283 H   0  0  0  0  0  0  0  0  0  0  0  0
   -2.4955   69.0132    9.3118 H   0  0  0  0  0  0  0  0  0  0  0  0
   -3.7019   70.4881   11.0634 H   0  0  0  0  0  0  0  0  0  0  0  0
   -4.6347   66.1314    9.3532 C   0  0  0  0  0  0  0  0  0  0  0  0
   -4.8952   64.7294    8.8650 C   0  0  0  0  0  0  0  0  0  0  0  0
   -4.3308   66.4451   10.6481 N   0  0  0  0  0  0  0  0  0  0  0  0
   -4.6920   67.0186    8.5131 O   0  0  0  0  0  0  0  0  0  0  0  0
   -4.2461   65.7335   11.3231 H   0  0  0  0  0  0  0  0  0  0  0  0
   -2.6215   70.5514   14.1812 C   0  0  0  0  0  0  0  0  0  0  0  0
   -3.0426   71.7840   13.6073 O   0  0  0  0  0  0  0  0  0  0  0  0
   -2.5576   71.9386   12.7816 H   0  0  0  0  0  0  0  0  0  0  0  0
  1  2  1  0  0  0
  1  6  1  0  0  0
  2  3  1  0  0  0
  2 14  1  0  0  0
  3  4  1  0  0  0
  3  7  1  0  0  0
  4  5  1  0  0  0
  4  8  1  0  0  0
  5 17  1  0  0  0
  5  6  1  0  0  0
 17 18  1  0  0  0
 12 13  1  0  0  0
 12 14  1  0  0  0
 12 15  2  0  0  0
  1  9  1  0  0  0
 14 16  1  0  0  0
  7 10  1  0  0  0
  8 11  1  0  0  0
 18 19  1  0  0  0
M  END
> <minimizedAffinity>
-6.19280

$$$$
1JAK_IFG_A_601


 19 19  0  0  0  0  0  0  0  0999 V2000
   -2.9034   66.3335   10.9999 N   0  0  0  0  0  0  0  0  0  0  0  0
   -3.0033   67.7543   10.5767 C   0  0  0  0  0  0  0  0  0  0  0  0
   -4.2933   68.1277    9.7394 C   0  0  0  0  0  0  0  0  0  0  0  0
   -4.7232   67.0359    8.7371 C   0  0  0  0  0  0  0  0  0  0  0  0
   -4.8307   65.7056    9.4861 C   0  0  0  0  0  0  0  0  0  0  0  0
   -3.5133   65.2938   10.1566 C   0  0  0  0  0  0  0  0  0  0  0  0
   -4.0648   69.3463    9.0439 O   0  0  0  0  0  0  0  0  0  0  0  0
   -3.7220   66.9229    7.7267 O   0  0  0  0  0  0  0  0  0  0  0  0
   -3.3374   66.2645   11.9203 H   0  0  0  0  0  0  0  0  0  0  0  0
   -3.3346   69.2284    8.4164 H   0  0  0  0  0  0  0  0  0  0  0  0
   -2.8725   66.6971    8.1371 H   0  0  0  0  0  0  0  0  0  0  0  0
   -3.8550   68.5125   12.7577 C   0  0  0  0  0  0  0  0  0  0  0  0
   -3.8872   69.3772   13.9917 C   0  0  0  0  0  0  0  0  0  0  0  0
   -2.9219   68.6311   11.7663 N   0  0  0  0  0  0  0  0  0  0  0  0
   -4.7206   67.6525   12.6742 O   0  0  0  0  0  0  0  0  0  0  0  0
   -2.1997   69.2958   11.8429 H   0  0  0  0  0  0  0  0  0  0  0  0
   -5.2977   64.5183    8.6506 C   0  0  0  0  0  0  0  0  0  0  0  0
   -6.6971   64.5810    8.3978 O   0  0  0  0  0  0  0  0  0  0  0  0
   -7.1789   64.5592    9.2393 H   0  0  0  0  0  0  0  0  0  0  0  0
  1  2  1  0  0  0
  1  6  1  0  0  0
  2  3  1  0  0  0
  2 14  1  0  0  0
  3  4  1  0  0  0
  3  7  1  0  0  0
  4  5  1  0  0  0
  4  8  1  0  0  0
  5 17  1  0  0  0
  5  6  1  0  0  0
 17 18  1  0  0  0
 12 13  1  0  0  0
 12 14  1  0  0  0
 12 15  2  0  0  0
  1  9  1  0  0  0
 14 16  1  0  0  0
  7 10  1  0  0  0
  8 11  1  0  0  0
 18 19  1  0  0  0
M  END
> <minimizedAffinity>
-6.12962

$$$$
1JAK_IFG_A_601


 19 19  0  0  0  0  0  0  0  0999 V2000
   -4.4685   68.3730   11.0361 N   0  0  0  0  0  0  0  0  0  0  0  0
   -3.1316   67.9545   11.5315 C   0  0  0  0  0  0  0  0  0  0  0  0
   -2.0589   67.6345   10.4128 C   0  0  0  0  0  0  0  0  0  0  0  0
   -2.6405   66.9092    9.1811 C   0  0  0  0  0  0  0  0  0  0  0  0
   -3.8482   67.7027    8.6768 C   0  0  0  0  0  0  0  0  0  0  0  0
   -4.9420   67.8593    9.7415 C   0  0  0  0  0  0  0  0  0  0  0  0
   -1.0142   66.8511   10.9748 O   0  0  0  0  0  0  0  0  0  0  0  0
   -3.0701   65.6075    9.5776 O   0  0  0  0  0  0  0  0  0  0  0  0
   -4.4568   69.3907   10.9677 H   0  0  0  0  0  0  0  0  0  0  0  0
   -1.3746   66.0049   11.2830 H   0  0  0  0  0  0  0  0  0  0  0  0
   -3.7378   65.6863   10.2767 H   0  0  0  0  0  0  0  0  0  0  0  0
   -3.2522   69.2739   13.6055 C   0  0  0  0  0  0  0  0  0  0  0  0
   -2.8146   70.3335   14.5839 C   0  0  0  0  0  0  0  0  0  0  0  0
   -2.5950   68.9913   12.4411 N   0  0  0  0  0  0  0  0  0  0  0  0
   -4.2512   68.6357   13.9067 O   0  0  0  0  0  0  0  0  0  0  0  0
   -1.7693   69.4746   12.2087 H   0  0  0  0  0  0  0  0  0  0  0  0
   -4.5193   67.1500    7.4238 C   0  0  0  0  0  0  0  0  0  0  0  0
   -5.9378   67.1890    7.5357 O   0  0  0  0  0  0  0  0  0  0  0  0
   -6.2180   66.6436    8.2873 H   0  0  0  0  0  0  0  0  0  0  0  0
  1  2  1  0  0  0
  1  6  1  0  0  0
  2  3  1  0  0  0
  2 14  1  0  0  0
  3  4  1  0  0  0
  3  7  1  0  0  0
  4  5  1  0  0  0
  4  8  1  0  0  0
  5 17  1  0  0  0
  5  6  1  0  0  0
 17 18  1  0  0  0
 12 13  1  0  0  0
 12 14  1  0  0  0
 12 15  2  0  0  0
  1  9  1  0  0  0
 14 16  1  0  0  0
  7 10  1  0  0  0
  8 11  1  0  0  0
 18 19  1  0  0  0
M  END
> <minimizedAffinity>
-6.06279

$$$$
1JAK_IFG_A_601


 19 19  0  0  0  0  0  0  0  0999 V2000
   -4.4284   67.1452   11.7866 N   0  0  0  0  0  0  0  0  0  0  0  0
   -3.1829   67.8846   11.4554 C   0  0  0  0  0  0  0  0  0  0  0  0
   -2.7358   67.8231    9.9385 C   0  0  0  0  0  0  0  0  0  0  0  0
   -2.9663   66.4484    9.2762 C   0  0  0  0  0  0  0  0  0  0  0  0
   -4.4201   66.0334    9.5141 C   0  0  0  0  0  0  0  0  0  0  0  0
   -4.7770   65.9493   11.0041 C   0  0  0  0  0  0  0  0  0  0  0  0
   -1.3614   68.1724    9.8398 O   0  0  0  0  0  0  0  0  0  0  0  0
   -2.1020   65.4939    9.8912 O   0  0  0  0  0  0  0  0  0  0  0  0
   -5.2017   67.8029   11.6880 H   0  0  0  0  0  0  0  0  0  0  0  0
   -0.8276   67.5254   10.3270 H   0  0  0  0  0  0  0  0  0  0  0  0
   -2.2900   65.4529   10.8419 H   0  0  0  0  0  0  0  0  0  0  0  0
   -3.6014   69.5992   13.1706 C   0  0  0  0  0  0  0  0  0  0  0  0
   -3.8012   71.0003   13.6886 C   0  0  0  0  0  0  0  0  0  0  0  0
   -3.3240   69.2993   11.8665 N   0  0  0  0  0  0  0  0  0  0  0  0
   -3.6845   68.6986   13.9940 O   0  0  0  0  0  0  0  0  0  0  0  0
   -3.2187   70.0202   11.2043 H   0  0  0  0  0  0  0  0  0  0  0  0
   -4.8371   64.7112    8.8788 C   0  0  0  0  0  0  0  0  0  0  0  0
   -6.1377   64.7985    8.3070 O   0  0  0  0  0  0  0  0  0  0  0  0
   -6.7821   65.0107    9.0002 H   0  0  0  0  0  0  0  0  0  0  0  0
  1  2  1  0  0  0
  1  6  1  0  0  0
  2  3  1  0  0  0
  2 14  1  0  0  0
  3  4  1  0  0  0
  3  7  1  0  0  0
  4  5  1  0  0  0
  4  8  1  0  0  0
  5 17  1  0  0  0
  5  6  1  0  0  0
 17 18  1  0  0  0
 12 13  1  0  0  0
 12 14  1  0  0  0
 12 15  2  0  0  0
  1  9  1  0  0  0
 14 16  1  0  0  0
  7 10  1  0  0  0
  8 11  1  0  0  0
 18 19  1  0  0  0
M  END
> <minimizedAffinity>
-5.90511

$$$$
1JAK_IFG_A_601


 19 19  0  0  0  0  0  0  0  0999 V2000
   -4.4447   66.3396   11.3555 N   0  0  0  0  0  0  0  0  0  0  0  0
   -3.6851   67.5503   11.7616 C   0  0  0  0  0  0  0  0  0  0  0  0
   -3.7097   68.7494   10.7290 C   0  0  0  0  0  0  0  0  0  0  0  0
   -3.6363   68.3027    9.2537 C   0  0  0  0  0  0  0  0  0  0  0  0
   -4.7207   67.2502    9.0114 C   0  0  0  0  0  0  0  0  0  0  0  0
   -4.5736   66.0255    9.9241 C   0  0  0  0  0  0  0  0  0  0  0  0
   -2.6327   69.6334   11.0108 O   0  0  0  0  0  0  0  0  0  0  0  0
   -2.3567   67.7175    9.0161 O   0  0  0  0  0  0  0  0  0  0  0  0
   -5.3898   66.4415   11.7254 H   0  0  0  0  0  0  0  0  0  0  0  0
   -1.7911   69.1655   10.8935 H   0  0  0  0  0  0  0  0  0  0  0  0
   -2.2317   66.9612    9.6106 H   0  0  0  0  0  0  0  0  0  0  0  0
   -5.1265   67.3028   13.7411 C   0  0  0  0  0  0  0  0  0  0  0  0
   -5.7226   67.7132   15.0631 C   0  0  0  0  0  0  0  0  0  0  0  0
   -4.1774   68.0252   13.0741 N   0  0  0  0  0  0  0  0  0  0  0  0
   -5.5261   66.2475   13.2691 O   0  0  0  0  0  0  0  0  0  0  0  0
   -3.8231   68.8567   13.4643 H   0  0  0  0  0  0  0  0  0  0  0  0
   -4.8239   66.7322    7.5807 C   0  0  0  0  0  0  0  0  0  0  0  0
   -5.1069   67.7863    6.6670 O   0  0  0  0  0  0  0  0  0  0  0  0
   -5.9565   68.1940    6.8969 H   0  0  0  0  0  0  0  0  0  0  0  0
  1  2  1  0  0  0
  1  6  1  0  0  0
  2  3  1  0  0  0
  2 14  1  0  0  0
  3  4  1  0  0  0
  3  7  1  0  0  0
  4  5  1  0  0  0
  4  8  1  0  0  0
  5 17  1  0  0  0
  5  6  1  0  0  0
 17 18  1  0  0  0
 12 13  1  0  0  0
 12 14  1  0  0  0
 12 15  2  0  0  0
  1  9  1  0  0  0
 14 16  1  0  0  0
  7 10  1  0  0  0
  8 11  1  0  0  0
 18 19  1  0  0  0
M  END
> <minimizedAffinity>
-5.88828

$$$$
1JAK_IFG_A_601


 19 19  0  0  0  0  0  0  0  0999 V2000
   -4.8110   66.1016   10.4558 N   0  0  0  0  0  0  0  0  0  0  0  0
   -4.1773   67.3295   11.0021 C   0  0  0  0  0  0  0  0  0  0  0  0
   -4.3001   68.6215   10.0964 C   0  0  0  0  0  0  0  0  0  0  0  0
   -4.1609   68.3388    8.5857 C   0  0  0  0  0  0  0  0  0  0  0  0
   -5.1356   67.2202    8.2100 C   0  0  0  0  0  0  0  0  0  0  0  0
   -4.8865   65.9268    8.9971 C   0  0  0  0  0  0  0  0  0  0  0  0
   -3.3173   69.5685   10.4940 O   0  0  0  0  0  0  0  0  0  0  0  0
   -2.8276   67.9036    8.3228 O   0  0  0  0  0  0  0  0  0  0  0  0
   -5.7672   66.0758   10.8098 H   0  0  0  0  0  0  0  0  0  0  0  0
   -2.4330   69.1960   10.3514 H   0  0  0  0  0  0  0  0  0  0  0  0
   -2.6402   67.1049    8.8403 H   0  0  0  0  0  0  0  0  0  0  0  0
   -3.9684   68.2763   13.2642 C   0  0  0  0  0  0  0  0  0  0  0  0
   -4.4215   68.5878   14.6674 C   0  0  0  0  0  0  0  0  0  0  0  0
   -4.7335   67.6178   12.3430 N   0  0  0  0  0  0  0  0  0  0  0  0
   -2.8489   68.6614   12.9567 O   0  0  0  0  0  0  0  0  0  0  0  0
   -5.6494   67.3369   12.5700 H   0  0  0  0  0  0  0  0  0  0  0  0
   -5.1660   66.8457    6.7320 C   0  0  0  0  0  0  0  0  0  0  0  0
   -5.9342   67.7765    5.9772 O   0  0  0  0  0  0  0  0  0  0  0  0
   -6.8485   67.7793    6.3014 H   0  0  0  0  0  0  0  0  0  0  0  0
  1  2  1  0  0  0
  1  6  1  0  0  0
  2  3  1  0  0  0
  2 14  1  0  0  0
  3  4  1  0  0  0
  3  7  1  0  0  0
  4  5  1  0  0  0
  4  8  1  0  0  0
  5 17  1  0  0  0
  5  6  1  0  0  0
 17 18  1  0  0  0
 12 13  1  0  0  0
 12 14  1  0  0  0
 12 15  2  0  0  0
  1  9  1  0  0  0
 14 16  1  0  0  0
  7 10  1  0  0  0
  8 11  1  0  0  0
 18 19  1  0  0  0
M  END
> <minimizedAffinity>
-5.82967

$$$$
1JAK_IFG_A_601


 19 19  0  0  0  0  0  0  0  0999 V2000
   -2.9714   69.4804   11.6044 N   0  0  0  0  0  0  0  0  0  0  0  0
   -3.6216   68.2952   12.2210 C   0  0  0  0  0  0  0  0  0  0  0  0
   -4.7544   68.6121   13.2798 C   0  0  0  0  0  0  0  0  0  0  0  0
   -4.4427   69.8250   14.1816 C   0  0  0  0  0  0  0  0  0  0  0  0
   -4.0762   71.0120   13.2878 C   0  0  0  0  0  0  0  0  0  0  0  0
   -2.8704   70.7241   12.3835 C   0  0  0  0  0  0  0  0  0  0  0  0
   -4.9751   67.4641   14.0887 O   0  0  0  0  0  0  0  0  0  0  0  0
   -3.3268   69.5034   15.0109 O   0  0  0  0  0  0  0  0  0  0  0  0
   -3.4937   69.7005   10.7564 H   0  0  0  0  0  0  0  0  0  0  0  0
   -4.1661   67.2556   14.5816 H   0  0  0  0  0  0  0  0  0  0  0  0
   -2.5632   69.2838   14.4546 H   0  0  0  0  0  0  0  0  0  0  0  0
   -3.3682   66.5069   10.5493 C   0  0  0  0  0  0  0  0  0  0  0  0
   -3.8181   65.5994    9.4332 C   0  0  0  0  0  0  0  0  0  0  0  0
   -4.1751   67.4265   11.1582 N   0  0  0  0  0  0  0  0  0  0  0  0
   -2.2096   66.3788   10.9200 O   0  0  0  0  0  0  0  0  0  0  0  0
   -5.1190   67.5107   10.8915 H   0  0  0  0  0  0  0  0  0  0  0  0
   -3.7852   72.3184   14.0190 C   0  0  0  0  0  0  0  0  0  0  0  0
   -2.3924   72.4736   14.2684 O   0  0  0  0  0  0  0  0  0  0  0  0
   -2.0809   71.7448   14.8277 H   0  0  0  0  0  0  0  0  0  0  0  0
  1  2  1  0  0  0
  1  6  1  0  0  0
  2  3  1  0  0  0
  2 14  1  0  0  0
  3  4  1  0  0  0
  3  7  1  0  0  0
  4  5  1  0  0  0
  4  8  1  0  0  0
  5 17  1  0  0  0
  5  6  1  0  0  0
 17 18  1  0  0  0
 12 13  1  0  0  0
 12 14  1  0  0  0
 12 15  2  0  0  0
  1  9  1  0  0  0
 14 16  1  0  0  0
  7 10  1  0  0  0
  8 11  1  0  0  0
 18 19  1  0  0  0
M  END
> <minimizedAffinity>
-5.51305

$$$$
