1C5Y_ESP_B_251


 16 17  0  0  0  0  0  0  0  0999 V2000
    8.6356    0.7267   25.3480 C   0  0  0  0  0  0  0  0  0  0  0  0
    9.3633    0.9480   23.7332 S   0  0  0  0  0  0  0  0  0  0  0  0
    9.2703    2.6532   23.8380 C   0  0  0  0  0  0  0  0  0  0  0  0
    8.7086    3.0091   25.0546 C   0  0  0  0  0  0  0  0  0  0  0  0
    8.3608    1.9658   25.8789 C   0  0  0  0  0  0  0  0  0  0  0  0
    9.6156    3.6176   23.0236 N   0  0  0  0  0  0  0  0  0  0  0  0
    9.4756    4.9154   23.2382 C   0  0  0  0  0  0  0  0  0  0  0  0
    8.9114    5.2853   24.4568 C   0  0  0  0  0  0  0  0  0  0  0  0
    8.5226    4.3319   25.3664 C   0  0  0  0  0  0  0  0  0  0  0  0
    8.4617   -0.5429   25.8280 C   0  0  0  0  0  0  0  0  0  0  0  0
    8.3763   -0.6924   27.1158 N   0  0  0  0  0  0  0  0  0  0  0  0
    8.4050   -1.4927   24.9515 N   0  0  0  0  0  0  0  0  0  0  0  0
    8.4303    0.0929   27.7071 H   0  0  0  0  0  0  0  0  0  0  0  0
    8.2576   -1.5909   27.5002 H   0  0  0  0  0  0  0  0  0  0  0  0
    8.4793   -1.2826   23.9925 H   0  0  0  0  0  0  0  0  0  0  0  0
    8.2875   -2.4255   25.2434 H   0  0  0  0  0  0  0  0  0  0  0  0
 10  1  1  0  0  0
 10 11  1  0  0  0
 10 12  2  0  0  0
  1  2  1  0  0  0
  1  5  2  0  0  0
  2  3  1  0  0  0
  3  4  2  0  0  0
  3  6  1  0  0  0
  4  5  1  0  0  0
  4  9  1  0  0  0
  6  7  2  0  0  0
  7  8  1  0  0  0
  8  9  2  0  0  0
 11 13  1  0  0  0
 11 14  1  0  0  0
 12 15  1  0  0  0
 12 16  1  0  0  0
M  CHG 1  12   1
M  END
> <minimizedAffinity>
-6.80232

$$$$
1C5Y_ESP_B_251


 16 17  0  0  0  0  0  0  0  0999 V2000
    8.6300    0.7079   25.3172 C   0  0  0  0  0  0  0  0  0  0  0  0
    8.3120    2.0858   26.4065 S   0  0  0  0  0  0  0  0  0  0  0  0
    8.7595    3.2313   25.2169 C   0  0  0  0  0  0  0  0  0  0  0  0
    9.1284    2.5686   24.0563 C   0  0  0  0  0  0  0  0  0  0  0  0
    9.0609    1.1969   24.1056 C   0  0  0  0  0  0  0  0  0  0  0  0
    8.8099    4.5390   25.2113 N   0  0  0  0  0  0  0  0  0  0  0  0
    9.1893    5.3066   24.2030 C   0  0  0  0  0  0  0  0  0  0  0  0
    9.5633    4.6521   23.0318 C   0  0  0  0  0  0  0  0  0  0  0  0
    9.5375    3.2805   22.9574 C   0  0  0  0  0  0  0  0  0  0  0  0
    8.4158   -0.5630   25.7768 C   0  0  0  0  0  0  0  0  0  0  0  0
    8.3031   -0.7271   27.0607 N   0  0  0  0  0  0  0  0  0  0  0  0
    8.3517   -1.4997   24.8867 N   0  0  0  0  0  0  0  0  0  0  0  0
    8.3657    0.0488   27.6635 H   0  0  0  0  0  0  0  0  0  0  0  0
    8.1551   -1.6273   27.4308 H   0  0  0  0  0  0  0  0  0  0  0  0
    8.4489   -1.2791   23.9322 H   0  0  0  0  0  0  0  0  0  0  0  0
    8.2057   -2.4330   25.1639 H   0  0  0  0  0  0  0  0  0  0  0  0
 10  1  1  0  0  0
 10 11  1  0  0  0
 10 12  2  0  0  0
  1  2  1  0  0  0
  1  5  2  0  0  0
  2  3  1  0  0  0
  3  4  2  0  0  0
  3  6  1  0  0  0
  4  5  1  0  0  0
  4  9  1  0  0  0
  6  7  2  0  0  0
  7  8  1  0  0  0
  8  9  2  0  0  0
 11 13  1  0  0  0
 11 14  1  0  0  0
 12 15  1  0  0  0
 12 16  1  0  0  0
M  CHG 1  12   1
M  END
> <minimizedAffinity>
-6.24292

$$$$
1C5Y_ESP_B_251


 16 17  0  0  0  0  0  0  0  0999 V2000
    9.1269    4.4581   23.2928 C   0  0  0  0  0  0  0  0  0  0  0  0
    8.4224    4.4225   24.9326 S   0  0  0  0  0  0  0  0  0  0  0  0
    8.5754    2.7223   25.0470 C   0  0  0  0  0  0  0  0  0  0  0  0
    9.1390    2.2317   23.8791 C   0  0  0  0  0  0  0  0  0  0  0  0
    9.4398    3.1708   22.9218 C   0  0  0  0  0  0  0  0  0  0  0  0
    8.2740    1.8601   25.9842 N   0  0  0  0  0  0  0  0  0  0  0  0
    8.4450    0.5494   25.9310 C   0  0  0  0  0  0  0  0  0  0  0  0
    9.0096    0.0446   24.7620 C   0  0  0  0  0  0  0  0  0  0  0  0
    9.3542    0.8851   23.7312 C   0  0  0  0  0  0  0  0  0  0  0  0
    9.2680    5.6623   22.6584 C   0  0  0  0  0  0  0  0  0  0  0  0
   10.4332    6.2349   22.7078 N   0  0  0  0  0  0  0  0  0  0  0  0
    8.2186    6.1338   22.0667 N   0  0  0  0  0  0  0  0  0  0  0  0
   11.1764    5.7985   23.1837 H   0  0  0  0  0  0  0  0  0  0  0  0
   10.5730    7.1052   22.2693 H   0  0  0  0  0  0  0  0  0  0  0  0
    7.3750    5.6265   22.0824 H   0  0  0  0  0  0  0  0  0  0  0  0
    8.2637    6.9999   21.6008 H   0  0  0  0  0  0  0  0  0  0  0  0
 10  1  1  0  0  0
 10 11  1  0  0  0
 10 12  2  0  0  0
  1  2  1  0  0  0
  1  5  2  0  0  0
  2  3  1  0  0  0
  3  4  2  0  0  0
  3  6  1  0  0  0
  4  5  1  0  0  0
  4  9  1  0  0  0
  6  7  2  0  0  0
  7  8  1  0  0  0
  8  9  2  0  0  0
 11 13  1  0  0  0
 11 14  1  0  0  0
 12 15  1  0  0  0
 12 16  1  0  0  0
M  CHG 1  12   1
M  END
> <minimizedAffinity>
-6.23092

$$$$
1C5Y_ESP_B_251


 16 17  0  0  0  0  0  0  0  0999 V2000
    8.6973    1.3634   25.0672 C   0  0  0  0  0  0  0  0  0  0  0  0
    8.3233    2.5916   26.3073 S   0  0  0  0  0  0  0  0  0  0  0  0
    8.7070    3.8851   25.2551 C   0  0  0  0  0  0  0  0  0  0  0  0
    9.0977    3.3772   24.0256 C   0  0  0  0  0  0  0  0  0  0  0  0
    9.0952    2.0070   23.9182 C   0  0  0  0  0  0  0  0  0  0  0  0
    8.6957    5.1858   25.3986 N   0  0  0  0  0  0  0  0  0  0  0  0
    9.0306    6.0804   24.4835 C   0  0  0  0  0  0  0  0  0  0  0  0
    9.4258    5.5820   23.2443 C   0  0  0  0  0  0  0  0  0  0  0  0
    9.4641    4.2282   23.0141 C   0  0  0  0  0  0  0  0  0  0  0  0
    8.5469    0.0396   25.3794 C   0  0  0  0  0  0  0  0  0  0  0  0
    8.3633   -0.7923   24.3984 N   0  0  0  0  0  0  0  0  0  0  0  0
    8.5927   -0.2702   26.6346 N   0  0  0  0  0  0  0  0  0  0  0  0
    8.3433   -0.4630   23.4709 H   0  0  0  0  0  0  0  0  0  0  0  0
    8.2443   -1.7521   24.5827 H   0  0  0  0  0  0  0  0  0  0  0  0
    8.7368    0.4316   27.3098 H   0  0  0  0  0  0  0  0  0  0  0  0
    8.4834   -1.2077   26.9145 H   0  0  0  0  0  0  0  0  0  0  0  0
 10  1  1  0  0  0
 10 11  1  0  0  0
 10 12  2  0  0  0
  1  2  1  0  0  0
  1  5  2  0  0  0
  2  3  1  0  0  0
  3  4  2  0  0  0
  3  6  1  0  0  0
  4  5  1  0  0  0
  4  9  1  0  0  0
  6  7  2  0  0  0
  7  8  1  0  0  0
  8  9  2  0  0  0
 11 13  1  0  0  0
 11 14  1  0  0  0
 12 15  1  0  0  0
 12 16  1  0  0  0
M  CHG 1  12   1
M  END
> <minimizedAffinity>
-6.06462

$$$$
1C5Y_ESP_B_251


 16 17  0  0  0  0  0  0  0  0999 V2000
    9.5405    3.8527   23.6162 C   0  0  0  0  0  0  0  0  0  0  0  0
    9.7531    2.3879   22.6184 S   0  0  0  0  0  0  0  0  0  0  0  0
    9.1944    1.3604   23.8672 C   0  0  0  0  0  0  0  0  0  0  0  0
    8.8684    2.1226   24.9785 C   0  0  0  0  0  0  0  0  0  0  0  0
    9.0556    3.4779   24.8478 C   0  0  0  0  0  0  0  0  0  0  0  0
    9.0306    0.0647   23.9506 N   0  0  0  0  0  0  0  0  0  0  0  0
    8.5882   -0.6055   25.0018 C   0  0  0  0  0  0  0  0  0  0  0  0
    8.2583    0.1495   26.1248 C   0  0  0  0  0  0  0  0  0  0  0  0
    8.4018    1.5158   26.1168 C   0  0  0  0  0  0  0  0  0  0  0  0
    9.8507    5.0718   23.0777 C   0  0  0  0  0  0  0  0  0  0  0  0
    9.0026    5.5938   22.2433 N   0  0  0  0  0  0  0  0  0  0  0  0
   10.9741    5.5994   23.4427 N   0  0  0  0  0  0  0  0  0  0  0  0
    8.1697    5.1166   22.0248 H   0  0  0  0  0  0  0  0  0  0  0  0
    9.1929    6.4666   21.8294 H   0  0  0  0  0  0  0  0  0  0  0  0
   11.5543    5.1277   24.0831 H   0  0  0  0  0  0  0  0  0  0  0  0
   11.2488    6.4725   23.0801 H   0  0  0  0  0  0  0  0  0  0  0  0
 10  1  1  0  0  0
 10 11  1  0  0  0
 10 12  2  0  0  0
  1  2  1  0  0  0
  1  5  2  0  0  0
  2  3  1  0  0  0
  3  4  2  0  0  0
  3  6  1  0  0  0
  4  5  1  0  0  0
  4  9  1  0  0  0
  6  7  2  0  0  0
  7  8  1  0  0  0
  8  9  2  0  0  0
 11 13  1  0  0  0
 11 14  1  0  0  0
 12 15  1  0  0  0
 12 16  1  0  0  0
M  CHG 1  12   1
M  END
> <minimizedAffinity>
-6.05236

$$$$
1C5Y_ESP_B_251


 16 17  0  0  0  0  0  0  0  0999 V2000
    8.9316    2.1453   24.7303 C   0  0  0  0  0  0  0  0  0  0  0  0
    9.7845    2.5486   23.2150 S   0  0  0  0  0  0  0  0  0  0  0  0
    9.5565    4.2292   23.4413 C   0  0  0  0  0  0  0  0  0  0  0  0
    8.8619    4.4440   24.6218 C   0  0  0  0  0  0  0  0  0  0  0  0
    8.5189    3.3148   25.3260 C   0  0  0  0  0  0  0  0  0  0  0  0
    9.9020    5.2791   22.7407 N   0  0  0  0  0  0  0  0  0  0  0  0
    9.6474    6.5422   23.0399 C   0  0  0  0  0  0  0  0  0  0  0  0
    8.9491    6.7706   24.2233 C   0  0  0  0  0  0  0  0  0  0  0  0
    8.5510    5.7209   25.0151 C   0  0  0  0  0  0  0  0  0  0  0  0
    8.8093    0.8314   25.0922 C   0  0  0  0  0  0  0  0  0  0  0  0
    9.0453   -0.0669   24.1836 N   0  0  0  0  0  0  0  0  0  0  0  0
    8.4587    0.5956   26.3149 N   0  0  0  0  0  0  0  0  0  0  0  0
    9.3080    0.2085   23.2756 H   0  0  0  0  0  0  0  0  0  0  0  0
    8.9614   -1.0230   24.4031 H   0  0  0  0  0  0  0  0  0  0  0  0
    8.3008    1.3441   26.9347 H   0  0  0  0  0  0  0  0  0  0  0  0
    8.3497   -0.3322   26.6256 H   0  0  0  0  0  0  0  0  0  0  0  0
 10  1  1  0  0  0
 10 11  1  0  0  0
 10 12  2  0  0  0
  1  2  1  0  0  0
  1  5  2  0  0  0
  2  3  1  0  0  0
  3  4  2  0  0  0
  3  6  1  0  0  0
  4  5  1  0  0  0
  4  9  1  0  0  0
  6  7  2  0  0  0
  7  8  1  0  0  0
  8  9  2  0  0  0
 11 13  1  0  0  0
 11 14  1  0  0  0
 12 15  1  0  0  0
 12 16  1  0  0  0
M  CHG 1  12   1
M  END
> <minimizedAffinity>
-5.90037

$$$$
1C5Y_ESP_B_251


 16 17  0  0  0  0  0  0  0  0999 V2000
    8.8908    2.7595   24.2805 C   0  0  0  0  0  0  0  0  0  0  0  0
    8.7390    1.9406   25.8594 S   0  0  0  0  0  0  0  0  0  0  0  0
    8.2522    3.3792   26.6475 C   0  0  0  0  0  0  0  0  0  0  0  0
    8.2154    4.4169   25.7288 C   0  0  0  0  0  0  0  0  0  0  0  0
    8.5626    4.0858   24.4409 C   0  0  0  0  0  0  0  0  0  0  0  0
    7.9285    3.6529   27.8856 N   0  0  0  0  0  0  0  0  0  0  0  0
    7.5726    4.8345   28.3620 C   0  0  0  0  0  0  0  0  0  0  0  0
    7.5329    5.8852   27.4485 C   0  0  0  0  0  0  0  0  0  0  0  0
    7.8585    5.6792   26.1298 C   0  0  0  0  0  0  0  0  0  0  0  0
    9.2744    2.0284   23.1893 C   0  0  0  0  0  0  0  0  0  0  0  0
    9.8252    2.6671   22.2010 N   0  0  0  0  0  0  0  0  0  0  0  0
    9.0463    0.7557   23.2332 N   0  0  0  0  0  0  0  0  0  0  0  0
    9.9590    3.6409   22.2578 H   0  0  0  0  0  0  0  0  0  0  0  0
   10.1088    2.1774   21.3954 H   0  0  0  0  0  0  0  0  0  0  0  0
    8.6224    0.3587   24.0281 H   0  0  0  0  0  0  0  0  0  0  0  0
    9.2966    0.1842   22.4716 H   0  0  0  0  0  0  0  0  0  0  0  0
 10  1  1  0  0  0
 10 11  1  0  0  0
 10 12  2  0  0  0
  1  2  1  0  0  0
  1  5  2  0  0  0
  2  3  1  0  0  0
  3  4  2  0  0  0
  3  6  1  0  0  0
  4  5  1  0  0  0
  4  9  1  0  0  0
  6  7  2  0  0  0
  7  8  1  0  0  0
  8  9  2  0  0  0
 11 13  1  0  0  0
 11 14  1  0  0  0
 12 15  1  0  0  0
 12 16  1  0  0  0
M  CHG 1  12   1
M  END
> <minimizedAffinity>
-5.45082

$$$$
1C5Y_ESP_B_251


 16 17  0  0  0  0  0  0  0  0999 V2000
    8.9246    2.9018   24.4311 C   0  0  0  0  0  0  0  0  0  0  0  0
    8.3881    4.5666   24.0751 S   0  0  0  0  0  0  0  0  0  0  0  0
    8.0125    4.8804   25.7145 C   0  0  0  0  0  0  0  0  0  0  0  0
    8.2922    3.7547   26.4740 C   0  0  0  0  0  0  0  0  0  0  0  0
    8.7873    2.6759   25.7812 C   0  0  0  0  0  0  0  0  0  0  0  0
    7.5391    5.9300   26.3366 N   0  0  0  0  0  0  0  0  0  0  0  0
    7.2876    6.0290   27.6315 C   0  0  0  0  0  0  0  0  0  0  0  0
    7.5637    4.9039   28.4048 C   0  0  0  0  0  0  0  0  0  0  0  0
    8.0631    3.7622   27.8264 C   0  0  0  0  0  0  0  0  0  0  0  0
    9.3791    2.1185   23.4052 C   0  0  0  0  0  0  0  0  0  0  0  0
    9.4052    0.8336   23.5958 N   0  0  0  0  0  0  0  0  0  0  0  0
    9.7539    2.7307   22.3289 N   0  0  0  0  0  0  0  0  0  0  0  0
    9.0984    0.4566   24.4520 H   0  0  0  0  0  0  0  0  0  0  0  0
    9.7318    0.2369   22.8841 H   0  0  0  0  0  0  0  0  0  0  0  0
    9.6976    3.7122   22.2759 H   0  0  0  0  0  0  0  0  0  0  0  0
   10.0955    2.2151   21.5629 H   0  0  0  0  0  0  0  0  0  0  0  0
 10  1  1  0  0  0
 10 11  1  0  0  0
 10 12  2  0  0  0
  1  2  1  0  0  0
  1  5  2  0  0  0
  2  3  1  0  0  0
  3  4  2  0  0  0
  3  6  1  0  0  0
  4  5  1  0  0  0
  4  9  1  0  0  0
  6  7  2  0  0  0
  7  8  1  0  0  0
  8  9  2  0  0  0
 11 13  1  0  0  0
 11 14  1  0  0  0
 12 15  1  0  0  0
 12 16  1  0  0  0
M  CHG 1  12   1
M  END
> <minimizedAffinity>
-5.24702

$$$$
1C5Y_ESP_B_251


 16 17  0  0  0  0  0  0  0  0999 V2000
    9.0000    1.9133   25.0116 C   0  0  0  0  0  0  0  0  0  0  0  0
    8.8315    3.4635   24.1428 S   0  0  0  0  0  0  0  0  0  0  0  0
    8.3223    4.2887   25.5525 C   0  0  0  0  0  0  0  0  0  0  0  0
    8.2914    3.4024   26.6182 C   0  0  0  0  0  0  0  0  0  0  0  0
    8.6579    2.1096   26.3296 C   0  0  0  0  0  0  0  0  0  0  0  0
    7.9802    5.5302   25.7855 N   0  0  0  0  0  0  0  0  0  0  0  0
    7.5943    6.0346   26.9459 C   0  0  0  0  0  0  0  0  0  0  0  0
    7.5583    5.1534   28.0240 C   0  0  0  0  0  0  0  0  0  0  0  0
    7.9032    3.8335   27.8612 C   0  0  0  0  0  0  0  0  0  0  0  0
    9.4230    0.8098   24.3218 C   0  0  0  0  0  0  0  0  0  0  0  0
   10.4464    0.9493   23.5336 N   0  0  0  0  0  0  0  0  0  0  0  0
    8.7570   -0.2833   24.5095 N   0  0  0  0  0  0  0  0  0  0  0  0
   10.8915    1.8239   23.4549 H   0  0  0  0  0  0  0  0  0  0  0  0
   10.7768    0.1804   23.0151 H   0  0  0  0  0  0  0  0  0  0  0  0
    7.9921   -0.2935   25.1292 H   0  0  0  0  0  0  0  0  0  0  0  0
    9.0152   -1.1050   24.0327 H   0  0  0  0  0  0  0  0  0  0  0  0
 10  1  1  0  0  0
 10 11  1  0  0  0
 10 12  2  0  0  0
  1  2  1  0  0  0
  1  5  2  0  0  0
  2  3  1  0  0  0
  3  4  2  0  0  0
  3  6  1  0  0  0
  4  5  1  0  0  0
  4  9  1  0  0  0
  6  7  2  0  0  0
  7  8  1  0  0  0
  8  9  2  0  0  0
 11 13  1  0  0  0
 11 14  1  0  0  0
 12 15  1  0  0  0
 12 16  1  0  0  0
M  CHG 1  12   1
M  END
> <minimizedAffinity>
-5.21506

$$$$
1C5Y_ESP_B_251


 16 17  0  0  0  0  0  0  0  0999 V2000
    8.6247    4.9466   24.9193 C   0  0  0  0  0  0  0  0  0  0  0  0
    9.1862    4.3231   23.3438 S   0  0  0  0  0  0  0  0  0  0  0  0
    9.0853    2.6958   23.8628 C   0  0  0  0  0  0  0  0  0  0  0  0
    8.6424    2.6588   25.1761 C   0  0  0  0  0  0  0  0  0  0  0  0
    8.3915    3.8794   25.7556 C   0  0  0  0  0  0  0  0  0  0  0  0
    9.3357    1.5541   23.2743 N   0  0  0  0  0  0  0  0  0  0  0  0
    9.2172    0.3507   23.8107 C   0  0  0  0  0  0  0  0  0  0  0  0
    8.7740    0.3008   25.1302 C   0  0  0  0  0  0  0  0  0  0  0  0
    8.4894    1.4558   25.8174 C   0  0  0  0  0  0  0  0  0  0  0  0
    8.4954    6.2983   25.0888 C   0  0  0  0  0  0  0  0  0  0  0  0
    8.0045    6.7187   26.2159 N   0  0  0  0  0  0  0  0  0  0  0  0
    8.8687    7.0460   24.1013 N   0  0  0  0  0  0  0  0  0  0  0  0
    7.7473    6.0722   26.9124 H   0  0  0  0  0  0  0  0  0  0  0  0
    7.8897    7.6837   26.3734 H   0  0  0  0  0  0  0  0  0  0  0  0
    9.2306    6.6359   23.2827 H   0  0  0  0  0  0  0  0  0  0  0  0
    8.7908    8.0251   24.1683 H   0  0  0  0  0  0  0  0  0  0  0  0
 10  1  1  0  0  0
 10 11  1  0  0  0
 10 12  2  0  0  0
  1  2  1  0  0  0
  1  5  2  0  0  0
  2  3  1  0  0  0
  3  4  2  0  0  0
  3  6  1  0  0  0
  4  5  1  0  0  0
  4  9  1  0  0  0
  6  7  2  0  0  0
  7  8  1  0  0  0
  8  9  2  0  0  0
 11 13  1  0  0  0
 11 14  1  0  0  0
 12 15  1  0  0  0
 12 16  1  0  0  0
M  CHG 1  12   1
M  END
> <minimizedAffinity>
-5.19254

$$$$
