2WEG_FBV_A_1263


 13 13  0  0  0  0  0  0  0  0999 V2000
   16.7398    6.4579   14.6092 C   0  0  0  0  0  0  0  0  0  0  0  0
   15.3912    6.2934   14.9098 C   0  0  0  0  0  0  0  0  0  0  0  0
   14.9208    5.1771   15.6219 C   0  0  0  0  0  0  0  0  0  0  0  0
   15.8439    4.1642   16.0126 C   0  0  0  0  0  0  0  0  0  0  0  0
   17.2141    4.4209   15.6670 C   0  0  0  0  0  0  0  0  0  0  0  0
   17.6565    5.5247   14.9926 C   0  0  0  0  0  0  0  0  0  0  0  0
   18.0951    3.4908   16.0981 F   0  0  0  0  0  0  0  0  0  0  0  0
   15.3421    2.7313   16.9012 S   0  0  0  0  0  0  0  0  0  0  0  0
   13.7399    2.7150   16.9268 N   0  0  0  0  0  0  0  0  0  0  0  0
   15.8634    1.5994   16.1118 O   0  0  0  0  0  0  0  0  0  0  0  0
   15.8281    2.9431   18.2216 O   0  0  0  0  0  0  0  0  0  0  0  0
   13.3863    2.5634   15.9822 H   0  0  0  0  0  0  0  0  0  0  0  0
   13.3964    3.6085   17.2792 H   0  0  0  0  0  0  0  0  0  0  0  0
  1  2  1  0  0  0
  1  6  2  0  0  0
  2  3  2  0  0  0
  3  4  1  0  0  0
  4  5  2  0  0  0
  4  8  1  0  0  0
  5  6  1  0  0  0
  5  7  1  0  0  0
  8  9  1  0  0  0
  8 10  2  0  0  0
  8 11  2  0  0  0
  9 12  1  0  0  0
  9 13  1  0  0  0
M  END
> <minimizedAffinity>
-6.36261

$$$$
2WEG_FBV_A_1263


 13 13  0  0  0  0  0  0  0  0999 V2000
   15.8713    6.2674   14.0415 C   0  0  0  0  0  0  0  0  0  0  0  0
   16.4334    5.0003   13.9192 C   0  0  0  0  0  0  0  0  0  0  0  0
   16.1387    3.9676   14.8254 C   0  0  0  0  0  0  0  0  0  0  0  0
   15.2718    4.2354   15.9242 C   0  0  0  0  0  0  0  0  0  0  0  0
   14.7334    5.5662   15.9667 C   0  0  0  0  0  0  0  0  0  0  0  0
   15.0144    6.5522   15.0626 C   0  0  0  0  0  0  0  0  0  0  0  0
   13.8593    5.7962   16.9719 F   0  0  0  0  0  0  0  0  0  0  0  0
   14.8533    3.0045   17.1092 S   0  0  0  0  0  0  0  0  0  0  0  0
   15.6972    1.6883   16.7575 N   0  0  0  0  0  0  0  0  0  0  0  0
   15.2813    3.5691   18.4031 O   0  0  0  0  0  0  0  0  0  0  0  0
   13.4722    2.7478   16.8830 O   0  0  0  0  0  0  0  0  0  0  0  0
   16.6885    1.8671   16.9180 H   0  0  0  0  0  0  0  0  0  0  0  0
   15.5503    1.4417   15.7787 H   0  0  0  0  0  0  0  0  0  0  0  0
  1  2  1  0  0  0
  1  6  2  0  0  0
  2  3  2  0  0  0
  3  4  1  0  0  0
  4  5  2  0  0  0
  4  8  1  0  0  0
  5  6  1  0  0  0
  5  7  1  0  0  0
  8  9  1  0  0  0
  8 10  2  0  0  0
  8 11  2  0  0  0
  9 12  1  0  0  0
  9 13  1  0  0  0
M  END
> <minimizedAffinity>
-5.98525

$$$$
2WEG_FBV_A_1263


 13 13  0  0  0  0  0  0  0  0999 V2000
   14.8132    6.6463   15.5522 C   0  0  0  0  0  0  0  0  0  0  0  0
   14.2621    5.7095   16.4211 C   0  0  0  0  0  0  0  0  0  0  0  0
   14.7843    4.4103   16.5393 C   0  0  0  0  0  0  0  0  0  0  0  0
   15.8836    4.0271   15.7175 C   0  0  0  0  0  0  0  0  0  0  0  0
   16.3915    5.0591   14.8574 C   0  0  0  0  0  0  0  0  0  0  0  0
   15.8840    6.3255   14.7720 C   0  0  0  0  0  0  0  0  0  0  0  0
   17.4761    4.7122   14.1290 F   0  0  0  0  0  0  0  0  0  0  0  0
   16.5964    2.4208   15.7952 S   0  0  0  0  0  0  0  0  0  0  0  0
   16.5712    1.8088   14.3143 N   0  0  0  0  0  0  0  0  0  0  0  0
   17.9836    2.6477   16.2430 O   0  0  0  0  0  0  0  0  0  0  0  0
   15.7093    1.6774   16.6227 O   0  0  0  0  0  0  0  0  0  0  0  0
   17.2059    2.3384   13.7167 H   0  0  0  0  0  0  0  0  0  0  0  0
   15.6244    1.8653   13.9392 H   0  0  0  0  0  0  0  0  0  0  0  0
  1  2  1  0  0  0
  1  6  2  0  0  0
  2  3  2  0  0  0
  3  4  1  0  0  0
  4  5  2  0  0  0
  4  8  1  0  0  0
  5  6  1  0  0  0
  5  7  1  0  0  0
  8  9  1  0  0  0
  8 10  2  0  0  0
  8 11  2  0  0  0
  9 12  1  0  0  0
  9 13  1  0  0  0
M  END
> <minimizedAffinity>
-5.95633

$$$$
2WEG_FBV_A_1263


 13 13  0  0  0  0  0  0  0  0999 V2000
   16.0467    7.1852   14.2187 C   0  0  0  0  0  0  0  0  0  0  0  0
   17.3474    6.7010   14.3199 C   0  0  0  0  0  0  0  0  0  0  0  0
   17.6274    5.4350   14.8617 C   0  0  0  0  0  0  0  0  0  0  0  0
   16.5540    4.6405   15.3590 C   0  0  0  0  0  0  0  0  0  0  0  0
   15.2471    5.2162   15.2069 C   0  0  0  0  0  0  0  0  0  0  0  0
   14.9918    6.4412   14.6564 C   0  0  0  0  0  0  0  0  0  0  0  0
   14.2264    4.4311   15.6182 F   0  0  0  0  0  0  0  0  0  0  0  0
   16.8133    3.0474   16.0584 S   0  0  0  0  0  0  0  0  0  0  0  0
   16.0161    2.9939   17.4475 N   0  0  0  0  0  0  0  0  0  0  0  0
   16.2260    2.1097   15.0827 O   0  0  0  0  0  0  0  0  0  0  0  0
   18.2110    2.9969   16.3201 O   0  0  0  0  0  0  0  0  0  0  0  0
   15.0131    3.0298   17.2655 H   0  0  0  0  0  0  0  0  0  0  0  0
   16.2856    3.7902   18.0251 H   0  0  0  0  0  0  0  0  0  0  0  0
  1  2  1  0  0  0
  1  6  2  0  0  0
  2  3  2  0  0  0
  3  4  1  0  0  0
  4  5  2  0  0  0
  4  8  1  0  0  0
  5  6  1  0  0  0
  5  7  1  0  0  0
  8  9  1  0  0  0
  8 10  2  0  0  0
  8 11  2  0  0  0
  9 12  1  0  0  0
  9 13  1  0  0  0
M  END
> <minimizedAffinity>
-5.91344

$$$$
2WEG_FBV_A_1263


 13 13  0  0  0  0  0  0  0  0999 V2000
   14.6837    3.8658   17.6878 C   0  0  0  0  0  0  0  0  0  0  0  0
   14.2890    4.7869   16.7223 C   0  0  0  0  0  0  0  0  0  0  0  0
   14.9198    4.8639   15.4690 C   0  0  0  0  0  0  0  0  0  0  0  0
   16.0211    4.0029   15.1927 C   0  0  0  0  0  0  0  0  0  0  0  0
   16.3539    3.0812   16.2427 C   0  0  0  0  0  0  0  0  0  0  0  0
   15.7138    3.0057   17.4482 C   0  0  0  0  0  0  0  0  0  0  0  0
   17.3550    2.2212   15.9509 F   0  0  0  0  0  0  0  0  0  0  0  0
   16.8726    4.0351   13.6537 S   0  0  0  0  0  0  0  0  0  0  0  0
   16.1502    5.1226   12.7244 N   0  0  0  0  0  0  0  0  0  0  0  0
   18.2425    4.4650   13.9924 O   0  0  0  0  0  0  0  0  0  0  0  0
   16.6640    2.7392   13.1044 O   0  0  0  0  0  0  0  0  0  0  0  0
   16.2967    6.0538   13.1140 H   0  0  0  0  0  0  0  0  0  0  0  0
   15.1504    4.9246   12.6835 H   0  0  0  0  0  0  0  0  0  0  0  0
  1  2  1  0  0  0
  1  6  2  0  0  0
  2  3  2  0  0  0
  3  4  1  0  0  0
  4  5  2  0  0  0
  4  8  1  0  0  0
  5  6  1  0  0  0
  5  7  1  0  0  0
  8  9  1  0  0  0
  8 10  2  0  0  0
  8 11  2  0  0  0
  9 12  1  0  0  0
  9 13  1  0  0  0
M  END
> <minimizedAffinity>
-5.79026

$$$$
2WEG_FBV_A_1263


 13 13  0  0  0  0  0  0  0  0999 V2000
   14.6784    3.5336   17.6389 C   0  0  0  0  0  0  0  0  0  0  0  0
   15.7260    2.7492   17.1660 C   0  0  0  0  0  0  0  0  0  0  0  0
   16.4000    3.0538   15.9712 C   0  0  0  0  0  0  0  0  0  0  0  0
   15.9732    4.1738   15.2003 C   0  0  0  0  0  0  0  0  0  0  0  0
   14.8913    4.9289   15.7678 C   0  0  0  0  0  0  0  0  0  0  0  0
   14.2620    4.6298   16.9439 C   0  0  0  0  0  0  0  0  0  0  0  0
   14.5342    6.0286   15.0677 F   0  0  0  0  0  0  0  0  0  0  0  0
   16.7551    4.6246   13.6904 S   0  0  0  0  0  0  0  0  0  0  0  0
   17.8511    3.5031   13.3601 N   0  0  0  0  0  0  0  0  0  0  0  0
   15.6725    4.6079   12.6884 O   0  0  0  0  0  0  0  0  0  0  0  0
   17.4151    5.8505   13.9835 O   0  0  0  0  0  0  0  0  0  0  0  0
   17.3829    2.6218   13.1491 H   0  0  0  0  0  0  0  0  0  0  0  0
   18.4634    3.3783   14.1662 H   0  0  0  0  0  0  0  0  0  0  0  0
  1  2  1  0  0  0
  1  6  2  0  0  0
  2  3  2  0  0  0
  3  4  1  0  0  0
  4  5  2  0  0  0
  4  8  1  0  0  0
  5  6  1  0  0  0
  5  7  1  0  0  0
  8  9  1  0  0  0
  8 10  2  0  0  0
  8 11  2  0  0  0
  9 12  1  0  0  0
  9 13  1  0  0  0
M  END
> <minimizedAffinity>
-5.68476

$$$$
2WEG_FBV_A_1263


 13 13  0  0  0  0  0  0  0  0999 V2000
   16.3514    2.2915   11.0899 C   0  0  0  0  0  0  0  0  0  0  0  0
   16.7925    1.3531   12.0180 C   0  0  0  0  0  0  0  0  0  0  0  0
   17.0376    1.6945   13.3588 C   0  0  0  0  0  0  0  0  0  0  0  0
   16.8692    3.0480   13.7718 C   0  0  0  0  0  0  0  0  0  0  0  0
   16.4052    3.9446   12.7504 C   0  0  0  0  0  0  0  0  0  0  0  0
   16.1504    3.5893   11.4552 C   0  0  0  0  0  0  0  0  0  0  0  0
   16.1824    5.2126   13.1625 F   0  0  0  0  0  0  0  0  0  0  0  0
   17.1590    3.5652   15.4280 S   0  0  0  0  0  0  0  0  0  0  0  0
   18.3760    4.6074   15.4030 N   0  0  0  0  0  0  0  0  0  0  0  0
   15.9083    4.2324   15.8364 O   0  0  0  0  0  0  0  0  0  0  0  0
   17.5710    2.3824   16.1033 O   0  0  0  0  0  0  0  0  0  0  0  0
   18.0858    5.4575   14.9198 H   0  0  0  0  0  0  0  0  0  0  0  0
   19.1691    4.1923   14.9140 H   0  0  0  0  0  0  0  0  0  0  0  0
  1  2  1  0  0  0
  1  6  2  0  0  0
  2  3  2  0  0  0
  3  4  1  0  0  0
  4  5  2  0  0  0
  4  8  1  0  0  0
  5  6  1  0  0  0
  5  7  1  0  0  0
  8  9  1  0  0  0
  8 10  2  0  0  0
  8 11  2  0  0  0
  9 12  1  0  0  0
  9 13  1  0  0  0
M  END
> <minimizedAffinity>
-5.62794

$$$$
2WEG_FBV_A_1263


 13 13  0  0  0  0  0  0  0  0999 V2000
   17.6341    4.1146   15.8120 C   0  0  0  0  0  0  0  0  0  0  0  0
   17.1745    2.8343   15.5190 C   0  0  0  0  0  0  0  0  0  0  0  0
   16.8759    2.4360   14.2050 C   0  0  0  0  0  0  0  0  0  0  0  0
   17.0081    3.3812   13.1468 C   0  0  0  0  0  0  0  0  0  0  0  0
   17.4947    4.6740   13.5402 C   0  0  0  0  0  0  0  0  0  0  0  0
   17.8015    5.0366   14.8221 C   0  0  0  0  0  0  0  0  0  0  0  0
   17.6827    5.5462   12.5248 F   0  0  0  0  0  0  0  0  0  0  0  0
   16.6507    2.9710   11.4739 S   0  0  0  0  0  0  0  0  0  0  0  0
   15.3322    3.7770   11.0498 N   0  0  0  0  0  0  0  0  0  0  0  0
   17.8214    3.4473   10.7131 O   0  0  0  0  0  0  0  0  0  0  0  0
   16.3577    1.5790   11.5037 O   0  0  0  0  0  0  0  0  0  0  0  0
   15.5370    4.7760   11.0269 H   0  0  0  0  0  0  0  0  0  0  0  0
   14.5912    3.5973   11.7272 H   0  0  0  0  0  0  0  0  0  0  0  0
  1  2  1  0  0  0
  1  6  2  0  0  0
  2  3  2  0  0  0
  3  4  1  0  0  0
  4  5  2  0  0  0
  4  8  1  0  0  0
  5  6  1  0  0  0
  5  7  1  0  0  0
  8  9  1  0  0  0
  8 10  2  0  0  0
  8 11  2  0  0  0
  9 12  1  0  0  0
  9 13  1  0  0  0
M  END
> <minimizedAffinity>
-5.62707

$$$$
2WEG_FBV_A_1263


 13 13  0  0  0  0  0  0  0  0999 V2000
   17.2872    3.2160   15.8907 C   0  0  0  0  0  0  0  0  0  0  0  0
   17.3543    4.5484   15.4952 C   0  0  0  0  0  0  0  0  0  0  0  0
   17.1624    4.9359   14.1582 C   0  0  0  0  0  0  0  0  0  0  0  0
   16.9329    3.9334   13.1717 C   0  0  0  0  0  0  0  0  0  0  0  0
   16.8727    2.5881   13.6709 C   0  0  0  0  0  0  0  0  0  0  0  0
   17.0399    2.2321   14.9802 C   0  0  0  0  0  0  0  0  0  0  0  0
   16.5880    1.6474   12.7430 F   0  0  0  0  0  0  0  0  0  0  0  0
   16.6882    4.3274   11.4748 S   0  0  0  0  0  0  0  0  0  0  0  0
   15.3367    3.6078   11.0017 N   0  0  0  0  0  0  0  0  0  0  0  0
   16.5354    5.7944   11.4490 O   0  0  0  0  0  0  0  0  0  0  0  0
   17.7936    3.7295   10.8077 O   0  0  0  0  0  0  0  0  0  0  0  0
   14.5407    4.0328   11.4772 H   0  0  0  0  0  0  0  0  0  0  0  0
   15.3809    2.6154   11.2333 H   0  0  0  0  0  0  0  0  0  0  0  0
  1  2  1  0  0  0
  1  6  2  0  0  0
  2  3  2  0  0  0
  3  4  1  0  0  0
  4  5  2  0  0  0
  4  8  1  0  0  0
  5  6  1  0  0  0
  5  7  1  0  0  0
  8  9  1  0  0  0
  8 10  2  0  0  0
  8 11  2  0  0  0
  9 12  1  0  0  0
  9 13  1  0  0  0
M  END
> <minimizedAffinity>
-5.54467

$$$$
2WEG_FBV_A_1263


 13 13  0  0  0  0  0  0  0  0999 V2000
   17.3674    4.3120   11.3178 C   0  0  0  0  0  0  0  0  0  0  0  0
   17.0019    2.9973   11.5903 C   0  0  0  0  0  0  0  0  0  0  0  0
   16.8526    2.5264   12.9058 C   0  0  0  0  0  0  0  0  0  0  0  0
   17.1222    3.4077   13.9927 C   0  0  0  0  0  0  0  0  0  0  0  0
   17.4858    4.7457   13.6180 C   0  0  0  0  0  0  0  0  0  0  0  0
   17.6045    5.1921   12.3314 C   0  0  0  0  0  0  0  0  0  0  0  0
   17.6750    5.5961   14.6515 F   0  0  0  0  0  0  0  0  0  0  0  0
   16.9666    2.9015   15.6702 S   0  0  0  0  0  0  0  0  0  0  0  0
   15.8689    3.8439   16.3595 N   0  0  0  0  0  0  0  0  0  0  0  0
   16.4876    1.5081   15.5982 O   0  0  0  0  0  0  0  0  0  0  0  0
   18.2405    3.1723   16.2432 O   0  0  0  0  0  0  0  0  0  0  0  0
   14.9534    3.6536   15.9521 H   0  0  0  0  0  0  0  0  0  0  0  0
   16.1139    4.8216   16.2035 H   0  0  0  0  0  0  0  0  0  0  0  0
  1  2  1  0  0  0
  1  6  2  0  0  0
  2  3  2  0  0  0
  3  4  1  0  0  0
  4  5  2  0  0  0
  4  8  1  0  0  0
  5  6  1  0  0  0
  5  7  1  0  0  0
  8  9  1  0  0  0
  8 10  2  0  0  0
  8 11  2  0  0  0
  9 12  1  0  0  0
  9 13  1  0  0  0
M  END
> <minimizedAffinity>
-5.44676

$$$$
