1EFY_BZC_A_201


 23 25  0  0  0  0  0  0  0  0999 V2000
   41.0768   23.3134   20.6601 C   0  0  0  0  0  0  0  0  0  0  0  0
   41.2191   23.9283   19.4617 N   0  0  0  0  0  0  0  0  0  0  0  0
   40.0427   23.8637   18.7680 C   0  0  0  0  0  0  0  0  0  0  0  0
   39.1316   23.1850   19.5587 N   0  0  0  0  0  0  0  0  0  0  0  0
   39.7405   22.8375   20.7225 C   0  0  0  0  0  0  0  0  0  0  0  0
   39.3254   22.1557   21.8631 C   0  0  0  0  0  0  0  0  0  0  0  0
   41.9746   23.1077   21.7295 C   0  0  0  0  0  0  0  0  0  0  0  0
   41.5365   22.4146   22.8723 C   0  0  0  0  0  0  0  0  0  0  0  0
   40.2185   21.9473   22.9268 C   0  0  0  0  0  0  0  0  0  0  0  0
   38.1977   22.9870   19.3179 H   0  0  0  0  0  0  0  0  0  0  0  0
   39.8809   24.4522   17.3824 C   0  0  0  0  0  0  0  0  0  0  0  0
   40.9072   24.2759   16.4339 C   0  0  0  0  0  0  0  0  0  0  0  0
   38.7413   25.2038   17.0334 C   0  0  0  0  0  0  0  0  0  0  0  0
   40.7904   24.8530   15.1603 C   0  0  0  0  0  0  0  0  0  0  0  0
   39.6472   25.6070   14.8339 C   0  0  0  0  0  0  0  0  0  0  0  0
   38.6159   25.7876   15.7611 C   0  0  0  0  0  0  0  0  0  0  0  0
   41.7863   24.6731   14.1561 O   0  0  0  0  0  0  0  0  0  0  0  0
   42.0108   23.3859   13.5975 C   0  0  0  0  0  0  0  0  0  0  0  0
   43.3264   23.6249   21.6773 C   0  0  0  0  0  0  0  0  0  0  0  0
   43.7854   24.4610   22.6243 N   0  0  0  0  0  0  0  0  0  0  0  0
   44.0785   23.3025   20.7641 O   0  0  0  0  0  0  0  0  0  0  0  0
   43.1990   24.7333   23.3668 H   0  0  0  0  0  0  0  0  0  0  0  0
   44.7080   24.8011   22.5756 H   0  0  0  0  0  0  0  0  0  0  0  0
  1  2  1  0  0  0
  1  5  2  0  0  0
  1  7  1  0  0  0
  2  3  2  0  0  0
  3  4  1  0  0  0
  3 11  1  0  0  0
  4  5  1  0  0  0
  5  6  1  0  0  0
  6  9  2  0  0  0
  7  8  2  0  0  0
  7 19  1  0  0  0
 11 12  2  0  0  0
 11 13  1  0  0  0
  8  9  1  0  0  0
 19 20  1  0  0  0
 19 21  2  0  0  0
 12 14  1  0  0  0
 13 16  2  0  0  0
 14 17  1  0  0  0
 14 15  2  0  0  0
 17 18  1  0  0  0
 15 16  1  0  0  0
  4 10  1  0  0  0
 20 22  1  0  0  0
 20 23  1  0  0  0
M  END
> <minimizedAffinity>
-9.07204

$$$$
1EFY_BZC_A_201


 23 25  0  0  0  0  0  0  0  0999 V2000
   37.0289   22.0853   21.0900 C   0  0  0  0  0  0  0  0  0  0  0  0
   38.3497   21.9351   21.3494 N   0  0  0  0  0  0  0  0  0  0  0  0
   39.0429   22.9995   20.8434 C   0  0  0  0  0  0  0  0  0  0  0  0
   38.1249   23.8461   20.2462 N   0  0  0  0  0  0  0  0  0  0  0  0
   36.8846   23.3087   20.3837 C   0  0  0  0  0  0  0  0  0  0  0  0
   35.6107   23.7070   19.9880 C   0  0  0  0  0  0  0  0  0  0  0  0
   35.9086   21.2822   21.3932 C   0  0  0  0  0  0  0  0  0  0  0  0
   34.6302   21.7011   20.9828 C   0  0  0  0  0  0  0  0  0  0  0  0
   34.4953   22.9073   20.2862 C   0  0  0  0  0  0  0  0  0  0  0  0
   38.3357   24.6962   19.7966 H   0  0  0  0  0  0  0  0  0  0  0  0
   40.5474   23.1216   20.9608 C   0  0  0  0  0  0  0  0  0  0  0  0
   41.1832   22.7025   22.1457 C   0  0  0  0  0  0  0  0  0  0  0  0
   41.3209   23.6797   19.9236 C   0  0  0  0  0  0  0  0  0  0  0  0
   42.5714   22.8505   22.2856 C   0  0  0  0  0  0  0  0  0  0  0  0
   43.3253   23.4176   21.2407 C   0  0  0  0  0  0  0  0  0  0  0  0
   42.7117   23.8340   20.0549 C   0  0  0  0  0  0  0  0  0  0  0  0
   43.2636   22.4094   23.4514 O   0  0  0  0  0  0  0  0  0  0  0  0
   42.6077   21.5759   24.3971 C   0  0  0  0  0  0  0  0  0  0  0  0
   36.0550   20.0526   22.1443 C   0  0  0  0  0  0  0  0  0  0  0  0
   36.6309   20.0469   23.3588 N   0  0  0  0  0  0  0  0  0  0  0  0
   35.6495   18.9918   21.6817 O   0  0  0  0  0  0  0  0  0  0  0  0
   36.9637   20.8869   23.7497 H   0  0  0  0  0  0  0  0  0  0  0  0
   36.7198   19.2026   23.8574 H   0  0  0  0  0  0  0  0  0  0  0  0
  1  2  1  0  0  0
  1  5  2  0  0  0
  1  7  1  0  0  0
  2  3  2  0  0  0
  3  4  1  0  0  0
  3 11  1  0  0  0
  4  5  1  0  0  0
  5  6  1  0  0  0
  6  9  2  0  0  0
  7  8  2  0  0  0
  7 19  1  0  0  0
 11 12  2  0  0  0
 11 13  1  0  0  0
  8  9  1  0  0  0
 19 20  1  0  0  0
 19 21  2  0  0  0
 12 14  1  0  0  0
 13 16  2  0  0  0
 14 17  1  0  0  0
 14 15  2  0  0  0
 17 18  1  0  0  0
 15 16  1  0  0  0
  4 10  1  0  0  0
 20 22  1  0  0  0
 20 23  1  0  0  0
M  END
> <minimizedAffinity>
-9.05190

$$$$
1EFY_BZC_A_201


 23 25  0  0  0  0  0  0  0  0999 V2000
   41.0298   22.7500   21.8653 C   0  0  0  0  0  0  0  0  0  0  0  0
   40.5147   23.3531   20.7674 N   0  0  0  0  0  0  0  0  0  0  0  0
   39.1956   23.0190   20.6342 C   0  0  0  0  0  0  0  0  0  0  0  0
   38.8727   22.1774   21.6847 N   0  0  0  0  0  0  0  0  0  0  0  0
   39.9789   21.9972   22.4528 C   0  0  0  0  0  0  0  0  0  0  0  0
   40.2430   21.2683   23.6090 C   0  0  0  0  0  0  0  0  0  0  0  0
   42.3205   22.7685   22.4361 C   0  0  0  0  0  0  0  0  0  0  0  0
   42.5676   22.0236   23.6033 C   0  0  0  0  0  0  0  0  0  0  0  0
   41.5276   21.2831   24.1764 C   0  0  0  0  0  0  0  0  0  0  0  0
   37.9886   21.7762   21.8481 H   0  0  0  0  0  0  0  0  0  0  0  0
   38.3382   23.5262   19.4941 C   0  0  0  0  0  0  0  0  0  0  0  0
   38.8177   23.4275   18.1734 C   0  0  0  0  0  0  0  0  0  0  0  0
   37.0861   24.1282   19.7298 C   0  0  0  0  0  0  0  0  0  0  0  0
   38.0532   23.9333   17.1111 C   0  0  0  0  0  0  0  0  0  0  0  0
   36.8083   24.5382   17.3684 C   0  0  0  0  0  0  0  0  0  0  0  0
   36.3138   24.6397   18.6728 C   0  0  0  0  0  0  0  0  0  0  0  0
   38.4807   23.8252   15.7553 O   0  0  0  0  0  0  0  0  0  0  0  0
   37.7475   24.4705   14.7232 C   0  0  0  0  0  0  0  0  0  0  0  0
   43.3809   23.5652   21.8544 C   0  0  0  0  0  0  0  0  0  0  0  0
   43.8928   24.6215   22.5091 N   0  0  0  0  0  0  0  0  0  0  0  0
   43.8331   23.2834   20.7500 O   0  0  0  0  0  0  0  0  0  0  0  0
   43.5450   24.8661   23.3971 H   0  0  0  0  0  0  0  0  0  0  0  0
   44.6156   25.1507   22.1007 H   0  0  0  0  0  0  0  0  0  0  0  0
  1  2  1  0  0  0
  1  5  2  0  0  0
  1  7  1  0  0  0
  2  3  2  0  0  0
  3  4  1  0  0  0
  3 11  1  0  0  0
  4  5  1  0  0  0
  5  6  1  0  0  0
  6  9  2  0  0  0
  7  8  2  0  0  0
  7 19  1  0  0  0
 11 12  2  0  0  0
 11 13  1  0  0  0
  8  9  1  0  0  0
 19 20  1  0  0  0
 19 21  2  0  0  0
 12 14  1  0  0  0
 13 16  2  0  0  0
 14 17  1  0  0  0
 14 15  2  0  0  0
 17 18  1  0  0  0
 15 16  1  0  0  0
  4 10  1  0  0  0
 20 22  1  0  0  0
 20 23  1  0  0  0
M  END
> <minimizedAffinity>
-9.00362

$$$$
1EFY_BZC_A_201


 23 25  0  0  0  0  0  0  0  0999 V2000
   40.9815   22.7752   21.7989 C   0  0  0  0  0  0  0  0  0  0  0  0
   40.5250   23.3548   20.6631 N   0  0  0  0  0  0  0  0  0  0  0  0
   39.2076   23.0375   20.4810 C   0  0  0  0  0  0  0  0  0  0  0  0
   38.8251   22.2311   21.5391 N   0  0  0  0  0  0  0  0  0  0  0  0
   39.8935   22.0557   22.3600 C   0  0  0  0  0  0  0  0  0  0  0  0
   40.0946   21.3558   23.5465 C   0  0  0  0  0  0  0  0  0  0  0  0
   42.2461   22.7900   22.4255 C   0  0  0  0  0  0  0  0  0  0  0  0
   42.4295   22.0748   23.6225 C   0  0  0  0  0  0  0  0  0  0  0  0
   41.3532   21.3669   24.1695 C   0  0  0  0  0  0  0  0  0  0  0  0
   37.9282   21.8484   21.6743 H   0  0  0  0  0  0  0  0  0  0  0  0
   38.4094   23.5254   19.2906 C   0  0  0  0  0  0  0  0  0  0  0  0
   37.6313   24.6930   19.4135 C   0  0  0  0  0  0  0  0  0  0  0  0
   38.4000   22.8155   18.0734 C   0  0  0  0  0  0  0  0  0  0  0  0
   36.8522   25.1323   18.3324 C   0  0  0  0  0  0  0  0  0  0  0  0
   36.8505   24.4046   17.1274 C   0  0  0  0  0  0  0  0  0  0  0  0
   37.6213   23.2462   16.9855 C   0  0  0  0  0  0  0  0  0  0  0  0
   36.0762   26.3266   18.3977 O   0  0  0  0  0  0  0  0  0  0  0  0
   36.3721   27.4168   17.5356 C   0  0  0  0  0  0  0  0  0  0  0  0
   43.3440   23.5533   21.8693 C   0  0  0  0  0  0  0  0  0  0  0  0
   43.8750   24.5914   22.5380 N   0  0  0  0  0  0  0  0  0  0  0  0
   43.8113   23.2594   20.7744 O   0  0  0  0  0  0  0  0  0  0  0  0
   43.5157   24.8452   23.4187 H   0  0  0  0  0  0  0  0  0  0  0  0
   44.6232   25.0980   22.1470 H   0  0  0  0  0  0  0  0  0  0  0  0
  1  2  1  0  0  0
  1  5  2  0  0  0
  1  7  1  0  0  0
  2  3  2  0  0  0
  3  4  1  0  0  0
  3 11  1  0  0  0
  4  5  1  0  0  0
  5  6  1  0  0  0
  6  9  2  0  0  0
  7  8  2  0  0  0
  7 19  1  0  0  0
 11 12  2  0  0  0
 11 13  1  0  0  0
  8  9  1  0  0  0
 19 20  1  0  0  0
 19 21  2  0  0  0
 12 14  1  0  0  0
 13 16  2  0  0  0
 14 17  1  0  0  0
 14 15  2  0  0  0
 17 18  1  0  0  0
 15 16  1  0  0  0
  4 10  1  0  0  0
 20 22  1  0  0  0
 20 23  1  0  0  0
M  END
> <minimizedAffinity>
-8.98799

$$$$
1EFY_BZC_A_201


 23 25  0  0  0  0  0  0  0  0999 V2000
   40.7839   22.7688   21.6516 C   0  0  0  0  0  0  0  0  0  0  0  0
   39.5279   22.3583   21.9490 N   0  0  0  0  0  0  0  0  0  0  0  0
   38.6920   22.6376   20.9037 C   0  0  0  0  0  0  0  0  0  0  0  0
   39.4500   23.2442   19.9171 N   0  0  0  0  0  0  0  0  0  0  0  0
   40.7344   23.3361   20.3507 C   0  0  0  0  0  0  0  0  0  0  0  0
   41.9061   23.8448   19.7973 C   0  0  0  0  0  0  0  0  0  0  0  0
   41.9931   22.7137   22.3772 C   0  0  0  0  0  0  0  0  0  0  0  0
   43.1657   23.2351   21.8014 C   0  0  0  0  0  0  0  0  0  0  0  0
   43.1096   23.7937   20.5195 C   0  0  0  0  0  0  0  0  0  0  0  0
   39.1144   23.5571   19.0460 H   0  0  0  0  0  0  0  0  0  0  0  0
   37.2141   22.3100   20.9328 C   0  0  0  0  0  0  0  0  0  0  0  0
   36.7979   21.0388   21.3738 C   0  0  0  0  0  0  0  0  0  0  0  0
   36.2486   23.2376   20.4934 C   0  0  0  0  0  0  0  0  0  0  0  0
   35.4348   20.7059   21.3645 C   0  0  0  0  0  0  0  0  0  0  0  0
   34.4867   21.6441   20.9143 C   0  0  0  0  0  0  0  0  0  0  0  0
   34.8813   22.9131   20.4783 C   0  0  0  0  0  0  0  0  0  0  0  0
   34.9627   19.4452   21.8338 O   0  0  0  0  0  0  0  0  0  0  0  0
   35.8795   18.4837   22.3382 C   0  0  0  0  0  0  0  0  0  0  0  0
   42.0473   22.1029   23.6893 C   0  0  0  0  0  0  0  0  0  0  0  0
   41.1754   22.4499   24.6516 N   0  0  0  0  0  0  0  0  0  0  0  0
   42.8928   21.2516   23.9422 O   0  0  0  0  0  0  0  0  0  0  0  0
   40.4881   23.1312   24.4708 H   0  0  0  0  0  0  0  0  0  0  0  0
   41.2241   22.0227   25.5373 H   0  0  0  0  0  0  0  0  0  0  0  0
  1  2  1  0  0  0
  1  5  2  0  0  0
  1  7  1  0  0  0
  2  3  2  0  0  0
  3  4  1  0  0  0
  3 11  1  0  0  0
  4  5  1  0  0  0
  5  6  1  0  0  0
  6  9  2  0  0  0
  7  8  2  0  0  0
  7 19  1  0  0  0
 11 12  2  0  0  0
 11 13  1  0  0  0
  8  9  1  0  0  0
 19 20  1  0  0  0
 19 21  2  0  0  0
 12 14  1  0  0  0
 13 16  2  0  0  0
 14 17  1  0  0  0
 14 15  2  0  0  0
 17 18  1  0  0  0
 15 16  1  0  0  0
  4 10  1  0  0  0
 20 22  1  0  0  0
 20 23  1  0  0  0
M  END
> <minimizedAffinity>
-8.92418

$$$$
1EFY_BZC_A_201


 23 25  0  0  0  0  0  0  0  0999 V2000
   41.0469   22.6782   21.8926 C   0  0  0  0  0  0  0  0  0  0  0  0
   40.5606   23.1206   20.7084 N   0  0  0  0  0  0  0  0  0  0  0  0
   39.2612   22.7199   20.5652 C   0  0  0  0  0  0  0  0  0  0  0  0
   38.9212   22.0017   21.6986 N   0  0  0  0  0  0  0  0  0  0  0  0
   39.9976   21.9618   22.5268 C   0  0  0  0  0  0  0  0  0  0  0  0
   40.2350   21.3919   23.7745 C   0  0  0  0  0  0  0  0  0  0  0  0
   42.3093   22.8186   22.5078 C   0  0  0  0  0  0  0  0  0  0  0  0
   42.5298   22.2335   23.7676 C   0  0  0  0  0  0  0  0  0  0  0  0
   41.4917   21.5280   24.3865 C   0  0  0  0  0  0  0  0  0  0  0  0
   38.0453   21.5885   21.8752 H   0  0  0  0  0  0  0  0  0  0  0  0
   38.4384   23.0483   19.3373 C   0  0  0  0  0  0  0  0  0  0  0  0
   37.1180   22.5671   19.2429 C   0  0  0  0  0  0  0  0  0  0  0  0
   38.9782   23.7945   18.2709 C   0  0  0  0  0  0  0  0  0  0  0  0
   36.3588   22.8264   18.0917 C   0  0  0  0  0  0  0  0  0  0  0  0
   36.9193   23.5672   17.0339 C   0  0  0  0  0  0  0  0  0  0  0  0
   38.2267   24.0577   17.1128 C   0  0  0  0  0  0  0  0  0  0  0  0
   35.0074   22.3903   17.9650 O   0  0  0  0  0  0  0  0  0  0  0  0
   34.5589   21.2437   18.6746 C   0  0  0  0  0  0  0  0  0  0  0  0
   43.3662   23.5795   21.8742 C   0  0  0  0  0  0  0  0  0  0  0  0
   43.8902   24.6653   22.4685 N   0  0  0  0  0  0  0  0  0  0  0  0
   43.8043   23.2399   20.7805 O   0  0  0  0  0  0  0  0  0  0  0  0
   43.5539   24.9563   23.3468 H   0  0  0  0  0  0  0  0  0  0  0  0
   44.6104   25.1696   22.0255 H   0  0  0  0  0  0  0  0  0  0  0  0
  1  2  1  0  0  0
  1  5  2  0  0  0
  1  7  1  0  0  0
  2  3  2  0  0  0
  3  4  1  0  0  0
  3 11  1  0  0  0
  4  5  1  0  0  0
  5  6  1  0  0  0
  6  9  2  0  0  0
  7  8  2  0  0  0
  7 19  1  0  0  0
 11 12  2  0  0  0
 11 13  1  0  0  0
  8  9  1  0  0  0
 19 20  1  0  0  0
 19 21  2  0  0  0
 12 14  1  0  0  0
 13 16  2  0  0  0
 14 17  1  0  0  0
 14 15  2  0  0  0
 17 18  1  0  0  0
 15 16  1  0  0  0
  4 10  1  0  0  0
 20 22  1  0  0  0
 20 23  1  0  0  0
M  END
> <minimizedAffinity>
-8.87494

$$$$
1EFY_BZC_A_201


 23 25  0  0  0  0  0  0  0  0999 V2000
   40.8936   22.6130   21.8960 C   0  0  0  0  0  0  0  0  0  0  0  0
   40.1278   23.0618   20.8729 N   0  0  0  0  0  0  0  0  0  0  0  0
   38.8500   22.5968   21.0153 C   0  0  0  0  0  0  0  0  0  0  0  0
   38.8134   21.8303   22.1673 N   0  0  0  0  0  0  0  0  0  0  0  0
   40.0524   21.8246   22.7248 C   0  0  0  0  0  0  0  0  0  0  0  0
   40.5968   21.2335   23.8616 C   0  0  0  0  0  0  0  0  0  0  0  0
   42.2562   22.8031   22.2108 C   0  0  0  0  0  0  0  0  0  0  0  0
   42.7877   22.1956   23.3627 C   0  0  0  0  0  0  0  0  0  0  0  0
   41.9533   21.4189   24.1746 C   0  0  0  0  0  0  0  0  0  0  0  0
   38.0214   21.3664   22.5234 H   0  0  0  0  0  0  0  0  0  0  0  0
   37.7521   22.9151   20.0224 C   0  0  0  0  0  0  0  0  0  0  0  0
   37.0166   21.8613   19.4459 C   0  0  0  0  0  0  0  0  0  0  0  0
   37.4754   24.2415   19.6355 C   0  0  0  0  0  0  0  0  0  0  0  0
   36.0263   22.1387   18.4915 C   0  0  0  0  0  0  0  0  0  0  0  0
   35.7703   23.4702   18.1127 C   0  0  0  0  0  0  0  0  0  0  0  0
   36.4869   24.5295   18.6788 C   0  0  0  0  0  0  0  0  0  0  0  0
   35.2325   21.1089   17.9065 O   0  0  0  0  0  0  0  0  0  0  0  0
   34.2737   20.4146   18.6926 C   0  0  0  0  0  0  0  0  0  0  0  0
   43.1030   23.6364   21.3825 C   0  0  0  0  0  0  0  0  0  0  0  0
   42.8065   23.8573   20.0902 N   0  0  0  0  0  0  0  0  0  0  0  0
   44.1077   24.1594   21.8521 O   0  0  0  0  0  0  0  0  0  0  0  0
   42.0047   23.4475   19.6921 H   0  0  0  0  0  0  0  0  0  0  0  0
   43.3911   24.4289   19.5418 H   0  0  0  0  0  0  0  0  0  0  0  0
  1  2  1  0  0  0
  1  5  2  0  0  0
  1  7  1  0  0  0
  2  3  2  0  0  0
  3  4  1  0  0  0
  3 11  1  0  0  0
  4  5  1  0  0  0
  5  6  1  0  0  0
  6  9  2  0  0  0
  7  8  2  0  0  0
  7 19  1  0  0  0
 11 12  2  0  0  0
 11 13  1  0  0  0
  8  9  1  0  0  0
 19 20  1  0  0  0
 19 21  2  0  0  0
 12 14  1  0  0  0
 13 16  2  0  0  0
 14 17  1  0  0  0
 14 15  2  0  0  0
 17 18  1  0  0  0
 15 16  1  0  0  0
  4 10  1  0  0  0
 20 22  1  0  0  0
 20 23  1  0  0  0
M  END
> <minimizedAffinity>
-8.83942

$$$$
1EFY_BZC_A_201


 23 25  0  0  0  0  0  0  0  0999 V2000
   40.4241   24.5287   16.0323 C   0  0  0  0  0  0  0  0  0  0  0  0
   41.0202   23.9053   17.0766 N   0  0  0  0  0  0  0  0  0  0  0  0
   40.3909   24.2512   18.2401 C   0  0  0  0  0  0  0  0  0  0  0  0
   39.3650   25.1214   17.9140 N   0  0  0  0  0  0  0  0  0  0  0  0
   39.3643   25.3073   16.5681 C   0  0  0  0  0  0  0  0  0  0  0  0
   38.5811   26.0607   15.6981 C   0  0  0  0  0  0  0  0  0  0  0  0
   40.6852   24.5091   14.6455 C   0  0  0  0  0  0  0  0  0  0  0  0
   39.8838   25.2790   13.7833 C   0  0  0  0  0  0  0  0  0  0  0  0
   38.8418   26.0449   14.3182 C   0  0  0  0  0  0  0  0  0  0  0  0
   38.7399   25.5364   18.5513 H   0  0  0  0  0  0  0  0  0  0  0  0
   40.8303   23.7265   19.5907 C   0  0  0  0  0  0  0  0  0  0  0  0
   39.9227   22.9837   20.3707 C   0  0  0  0  0  0  0  0  0  0  0  0
   42.1163   23.9968   20.0993 C   0  0  0  0  0  0  0  0  0  0  0  0
   40.3016   22.5289   21.6428 C   0  0  0  0  0  0  0  0  0  0  0  0
   41.5884   22.8162   22.1361 C   0  0  0  0  0  0  0  0  0  0  0  0
   42.5045   23.5474   21.3731 C   0  0  0  0  0  0  0  0  0  0  0  0
   39.4303   21.7443   22.4541 O   0  0  0  0  0  0  0  0  0  0  0  0
   39.9471   21.0226   23.5637 C   0  0  0  0  0  0  0  0  0  0  0  0
   41.7444   23.6867   14.0985 C   0  0  0  0  0  0  0  0  0  0  0  0
   41.9009   22.4096   14.4872 N   0  0  0  0  0  0  0  0  0  0  0  0
   42.5171   24.1454   13.2641 O   0  0  0  0  0  0  0  0  0  0  0  0
   41.2922   22.0205   15.1559 H   0  0  0  0  0  0  0  0  0  0  0  0
   42.6243   21.8633   14.1031 H   0  0  0  0  0  0  0  0  0  0  0  0
  1  2  1  0  0  0
  1  5  2  0  0  0
  1  7  1  0  0  0
  2  3  2  0  0  0
  3  4  1  0  0  0
  3 11  1  0  0  0
  4  5  1  0  0  0
  5  6  1  0  0  0
  6  9  2  0  0  0
  7  8  2  0  0  0
  7 19  1  0  0  0
 11 12  2  0  0  0
 11 13  1  0  0  0
  8  9  1  0  0  0
 19 20  1  0  0  0
 19 21  2  0  0  0
 12 14  1  0  0  0
 13 16  2  0  0  0
 14 17  1  0  0  0
 14 15  2  0  0  0
 17 18  1  0  0  0
 15 16  1  0  0  0
  4 10  1  0  0  0
 20 22  1  0  0  0
 20 23  1  0  0  0
M  END
> <minimizedAffinity>
-8.78106

$$$$
1EFY_BZC_A_201


 23 25  0  0  0  0  0  0  0  0999 V2000
   40.1139   24.5659   16.0529 C   0  0  0  0  0  0  0  0  0  0  0  0
   40.5103   23.8634   17.1410 N   0  0  0  0  0  0  0  0  0  0  0  0
   39.7319   24.1978   18.2142 C   0  0  0  0  0  0  0  0  0  0  0  0
   38.8161   25.1425   17.7840 N   0  0  0  0  0  0  0  0  0  0  0  0
   39.0293   25.3849   16.4643 C   0  0  0  0  0  0  0  0  0  0  0  0
   38.4291   26.2211   15.5270 C   0  0  0  0  0  0  0  0  0  0  0  0
   40.5806   24.5888   14.7212 C   0  0  0  0  0  0  0  0  0  0  0  0
   39.9621   25.4423   13.7898 C   0  0  0  0  0  0  0  0  0  0  0  0
   38.8944   26.2476   14.2022 C   0  0  0  0  0  0  0  0  0  0  0  0
   38.1252   25.5679   18.3416 H   0  0  0  0  0  0  0  0  0  0  0  0
   39.9325   23.5905   19.5865 C   0  0  0  0  0  0  0  0  0  0  0  0
   41.1938   23.6869   20.2059 C   0  0  0  0  0  0  0  0  0  0  0  0
   38.8939   22.8992   20.2414 C   0  0  0  0  0  0  0  0  0  0  0  0
   41.4065   23.0908   21.4581 C   0  0  0  0  0  0  0  0  0  0  0  0
   40.3580   22.3977   22.0923 C   0  0  0  0  0  0  0  0  0  0  0  0
   39.0975   22.2969   21.4948 C   0  0  0  0  0  0  0  0  0  0  0  0
   42.6548   23.1914   22.1395 O   0  0  0  0  0  0  0  0  0  0  0  0
   42.7956   22.6628   23.4510 C   0  0  0  0  0  0  0  0  0  0  0  0
   41.6640   23.7267   14.2965 C   0  0  0  0  0  0  0  0  0  0  0  0
   41.8406   22.5134   14.8473 N   0  0  0  0  0  0  0  0  0  0  0  0
   42.4392   24.0918   13.4194 O   0  0  0  0  0  0  0  0  0  0  0  0
   41.2301   22.1996   15.5531 H   0  0  0  0  0  0  0  0  0  0  0  0
   42.5803   21.9384   14.5449 H   0  0  0  0  0  0  0  0  0  0  0  0
  1  2  1  0  0  0
  1  5  2  0  0  0
  1  7  1  0  0  0
  2  3  2  0  0  0
  3  4  1  0  0  0
  3 11  1  0  0  0
  4  5  1  0  0  0
  5  6  1  0  0  0
  6  9  2  0  0  0
  7  8  2  0  0  0
  7 19  1  0  0  0
 11 12  2  0  0  0
 11 13  1  0  0  0
  8  9  1  0  0  0
 19 20  1  0  0  0
 19 21  2  0  0  0
 12 14  1  0  0  0
 13 16  2  0  0  0
 14 17  1  0  0  0
 14 15  2  0  0  0
 17 18  1  0  0  0
 15 16  1  0  0  0
  4 10  1  0  0  0
 20 22  1  0  0  0
 20 23  1  0  0  0
M  END
> <minimizedAffinity>
-8.67917

$$$$
1EFY_BZC_A_201


 23 25  0  0  0  0  0  0  0  0999 V2000
   37.1437   23.5608   20.2559 C   0  0  0  0  0  0  0  0  0  0  0  0
   38.4462   23.9307   20.2206 N   0  0  0  0  0  0  0  0  0  0  0  0
   39.2104   22.9874   20.8494 C   0  0  0  0  0  0  0  0  0  0  0  0
   38.3577   21.9919   21.2943 N   0  0  0  0  0  0  0  0  0  0  0  0
   37.0867   22.3196   20.9432 C   0  0  0  0  0  0  0  0  0  0  0  0
   35.8479   21.7107   21.1239 C   0  0  0  0  0  0  0  0  0  0  0  0
   35.9734   24.1729   19.7583 C   0  0  0  0  0  0  0  0  0  0  0  0
   34.7311   23.5428   19.9530 C   0  0  0  0  0  0  0  0  0  0  0  0
   34.6820   22.3202   20.6322 C   0  0  0  0  0  0  0  0  0  0  0  0
   38.6273   21.1813   21.7837 H   0  0  0  0  0  0  0  0  0  0  0  0
   40.7126   23.1167   20.9884 C   0  0  0  0  0  0  0  0  0  0  0  0
   41.3293   22.7320   22.1949 C   0  0  0  0  0  0  0  0  0  0  0  0
   41.5021   23.6480   19.9492 C   0  0  0  0  0  0  0  0  0  0  0  0
   42.7147   22.8873   22.3537 C   0  0  0  0  0  0  0  0  0  0  0  0
   43.4847   23.4275   21.3062 C   0  0  0  0  0  0  0  0  0  0  0  0
   42.8901   23.8095   20.0994 C   0  0  0  0  0  0  0  0  0  0  0  0
   43.3883   22.4802   23.5425 O   0  0  0  0  0  0  0  0  0  0  0  0
   42.7983   21.5132   24.4004 C   0  0  0  0  0  0  0  0  0  0  0  0
   36.0389   25.4213   19.0271 C   0  0  0  0  0  0  0  0  0  0  0  0
   35.8250   26.5969   19.6428 N   0  0  0  0  0  0  0  0  0  0  0  0
   36.2960   25.4247   17.8282 O   0  0  0  0  0  0  0  0  0  0  0  0
   35.6170   26.6181   20.6048 H   0  0  0  0  0  0  0  0  0  0  0  0
   35.8763   27.4367   19.1317 H   0  0  0  0  0  0  0  0  0  0  0  0
  1  2  1  0  0  0
  1  5  2  0  0  0
  1  7  1  0  0  0
  2  3  2  0  0  0
  3  4  1  0  0  0
  3 11  1  0  0  0
  4  5  1  0  0  0
  5  6  1  0  0  0
  6  9  2  0  0  0
  7  8  2  0  0  0
  7 19  1  0  0  0
 11 12  2  0  0  0
 11 13  1  0  0  0
  8  9  1  0  0  0
 19 20  1  0  0  0
 19 21  2  0  0  0
 12 14  1  0  0  0
 13 16  2  0  0  0
 14 17  1  0  0  0
 14 15  2  0  0  0
 17 18  1  0  0  0
 15 16  1  0  0  0
  4 10  1  0  0  0
 20 22  1  0  0  0
 20 23  1  0  0  0
M  END
> <minimizedAffinity>
-8.60213

$$$$
