2EXM_ZIP_A_400


 17 18  0  0  0  0  0  0  0  0999 V2000
  100.4580   96.3844   82.0438 C   0  0  0  0  0  0  0  0  0  0  0  0
  100.5579   96.1249   83.4569 C   0  0  0  0  0  0  0  0  0  0  0  0
  100.8474   96.9594   84.5577 N   0  0  0  0  0  0  0  0  0  0  0  0
  100.4111   94.8390   83.9383 C   0  0  0  0  0  0  0  0  0  0  0  0
  100.5390   94.8316   85.2798 N   0  0  0  0  0  0  0  0  0  0  0  0
  100.8565   96.1186   85.5763 C   0  0  0  0  0  0  0  0  0  0  0  0
  100.1245   93.7866   83.0028 N   0  0  0  0  0  0  0  0  0  0  0  0
   99.9824   94.1173   81.7351 C   0  0  0  0  0  0  0  0  0  0  0  0
  100.1501   95.3195   81.2896 N   0  0  0  0  0  0  0  0  0  0  0  0
  100.4285   94.0734   85.8981 H   0  0  0  0  0  0  0  0  0  0  0  0
  100.6326   97.6583   81.4024 N   0  0  0  0  0  0  0  0  0  0  0  0
   99.8690   98.2797   81.4040 H   0  0  0  0  0  0  0  0  0  0  0  0
  101.8778   98.1021   80.7402 C   0  0  0  0  0  0  0  0  0  0  0  0
  104.6546  100.3108   81.0888 C   0  0  0  0  0  0  0  0  0  0  0  0
  103.4167  100.1607   80.1986 C   0  0  0  0  0  0  0  0  0  0  0  0
  103.3602  101.1931   79.0909 C   0  0  0  0  0  0  0  0  0  0  0  0
  102.2925   99.5658   80.6790 C   0  0  0  0  0  0  0  0  0  0  0  0
 14 15  1  0  0  0
 15 16  1  0  0  0
 15 17  2  0  0  0
 17 13  1  0  0  0
 13 11  1  0  0  0
 11  1  1  0  0  0
  1  2  2  0  0  0
  1  9  1  0  0  0
  2  3  1  0  0  0
  2  4  1  0  0  0
  3  6  2  0  0  0
  4  5  1  0  0  0
  4  7  2  0  0  0
  5  6  1  0  0  0
  7  8  1  0  0  0
  8  9  2  0  0  0
 11 12  1  0  0  0
  5 10  1  0  0  0
M  END
> <minimizedAffinity>
-6.20380

$$$$
2EXM_ZIP_A_400


 17 18  0  0  0  0  0  0  0  0999 V2000
  101.1876   99.0393   78.2149 C   0  0  0  0  0  0  0  0  0  0  0  0
  102.1750   99.5050   79.1544 C   0  0  0  0  0  0  0  0  0  0  0  0
  102.5830   99.0276   80.4184 N   0  0  0  0  0  0  0  0  0  0  0  0
  102.8855  100.6610   78.8982 C   0  0  0  0  0  0  0  0  0  0  0  0
  103.7502  100.9029   79.9031 N   0  0  0  0  0  0  0  0  0  0  0  0
  103.4748   99.9230   80.8027 C   0  0  0  0  0  0  0  0  0  0  0  0
  102.6385  101.3572   77.6657 N   0  0  0  0  0  0  0  0  0  0  0  0
  101.7674  100.8295   76.8293 C   0  0  0  0  0  0  0  0  0  0  0  0
  101.0859   99.7623   77.0904 N   0  0  0  0  0  0  0  0  0  0  0  0
  104.4220  101.6195   79.9695 H   0  0  0  0  0  0  0  0  0  0  0  0
  100.3476   97.8842   78.3724 N   0  0  0  0  0  0  0  0  0  0  0  0
  100.6445   97.0426   77.9567 H   0  0  0  0  0  0  0  0  0  0  0  0
   99.0689   97.8699   79.1145 C   0  0  0  0  0  0  0  0  0  0  0  0
   99.9672   95.2272   81.3326 C   0  0  0  0  0  0  0  0  0  0  0  0
   99.8628   96.7555   81.3566 C   0  0  0  0  0  0  0  0  0  0  0  0
  100.3362   97.3568   82.6645 C   0  0  0  0  0  0  0  0  0  0  0  0
   98.9683   97.3962   80.5580 C   0  0  0  0  0  0  0  0  0  0  0  0
 14 15  1  0  0  0
 15 16  1  0  0  0
 15 17  2  0  0  0
 17 13  1  0  0  0
 13 11  1  0  0  0
 11  1  1  0  0  0
  1  2  2  0  0  0
  1  9  1  0  0  0
  2  3  1  0  0  0
  2  4  1  0  0  0
  3  6  2  0  0  0
  4  5  1  0  0  0
  4  7  2  0  0  0
  5  6  1  0  0  0
  7  8  1  0  0  0
  8  9  2  0  0  0
 11 12  1  0  0  0
  5 10  1  0  0  0
M  END
> <minimizedAffinity>
-6.08494

$$$$
2EXM_ZIP_A_400


 17 18  0  0  0  0  0  0  0  0999 V2000
  101.7703   98.3403   79.6221 C   0  0  0  0  0  0  0  0  0  0  0  0
  102.8154   99.2525   80.0095 C   0  0  0  0  0  0  0  0  0  0  0  0
  103.7153   99.2594   81.0967 N   0  0  0  0  0  0  0  0  0  0  0  0
  103.0374  100.4036   79.2797 C   0  0  0  0  0  0  0  0  0  0  0  0
  104.0579  101.1005   79.8172 N   0  0  0  0  0  0  0  0  0  0  0  0
  104.3759  100.3911   80.9312 C   0  0  0  0  0  0  0  0  0  0  0  0
  102.2281  100.6433   78.1168 N   0  0  0  0  0  0  0  0  0  0  0  0
  101.3383   99.7272   77.7916 C   0  0  0  0  0  0  0  0  0  0  0  0
  101.1178   98.6665   78.4972 N   0  0  0  0  0  0  0  0  0  0  0  0
  104.4742  101.9273   79.4820 H   0  0  0  0  0  0  0  0  0  0  0  0
  101.4005   97.1346   80.3109 N   0  0  0  0  0  0  0  0  0  0  0  0
  101.4271   96.2915   79.8033 H   0  0  0  0  0  0  0  0  0  0  0  0
  100.9829   97.0705   81.7277 C   0  0  0  0  0  0  0  0  0  0  0  0
   98.8111   99.8639   81.2907 C   0  0  0  0  0  0  0  0  0  0  0  0
   98.7008   98.3613   81.5687 C   0  0  0  0  0  0  0  0  0  0  0  0
   97.2665   97.8740   81.6070 C   0  0  0  0  0  0  0  0  0  0  0  0
   99.6948   97.7094   82.2285 C   0  0  0  0  0  0  0  0  0  0  0  0
 14 15  1  0  0  0
 15 16  1  0  0  0
 15 17  2  0  0  0
 17 13  1  0  0  0
 13 11  1  0  0  0
 11  1  1  0  0  0
  1  2  2  0  0  0
  1  9  1  0  0  0
  2  3  1  0  0  0
  2  4  1  0  0  0
  3  6  2  0  0  0
  4  5  1  0  0  0
  4  7  2  0  0  0
  5  6  1  0  0  0
  7  8  1  0  0  0
  8  9  2  0  0  0
 11 12  1  0  0  0
  5 10  1  0  0  0
M  END
> <minimizedAffinity>
-6.06980

$$$$
2EXM_ZIP_A_400


 17 18  0  0  0  0  0  0  0  0999 V2000
  100.3200   95.3751   81.8536 C   0  0  0  0  0  0  0  0  0  0  0  0
   98.8926   95.5647   81.8198 C   0  0  0  0  0  0  0  0  0  0  0  0
   98.0668   96.4284   81.0688 N   0  0  0  0  0  0  0  0  0  0  0  0
   98.0779   94.8554   82.6800 C   0  0  0  0  0  0  0  0  0  0  0  0
   96.7884   95.1871   82.4722 N   0  0  0  0  0  0  0  0  0  0  0  0
   96.8596   96.1725   81.5399 C   0  0  0  0  0  0  0  0  0  0  0  0
   98.6860   93.9090   83.5741 N   0  0  0  0  0  0  0  0  0  0  0  0
   99.9914   93.7460   83.4964 C   0  0  0  0  0  0  0  0  0  0  0  0
  100.7495   94.4353   82.7079 N   0  0  0  0  0  0  0  0  0  0  0  0
   95.9855   94.8059   82.8956 H   0  0  0  0  0  0  0  0  0  0  0  0
  101.2862   96.0743   81.0522 N   0  0  0  0  0  0  0  0  0  0  0  0
  101.8218   95.5461   80.4171 H   0  0  0  0  0  0  0  0  0  0  0  0
  101.5331   97.5307   81.1138 C   0  0  0  0  0  0  0  0  0  0  0  0
  102.6700  100.2842   79.1550 C   0  0  0  0  0  0  0  0  0  0  0  0
  103.1323   99.4785   80.3734 C   0  0  0  0  0  0  0  0  0  0  0  0
  104.4024  100.0257   80.9927 C   0  0  0  0  0  0  0  0  0  0  0  0
  102.7745   98.1741   80.5111 C   0  0  0  0  0  0  0  0  0  0  0  0
 14 15  1  0  0  0
 15 16  1  0  0  0
 15 17  2  0  0  0
 17 13  1  0  0  0
 13 11  1  0  0  0
 11  1  1  0  0  0
  1  2  2  0  0  0
  1  9  1  0  0  0
  2  3  1  0  0  0
  2  4  1  0  0  0
  3  6  2  0  0  0
  4  5  1  0  0  0
  4  7  2  0  0  0
  5  6  1  0  0  0
  7  8  1  0  0  0
  8  9  2  0  0  0
 11 12  1  0  0  0
  5 10  1  0  0  0
M  END
> <minimizedAffinity>
-6.06551

$$$$
2EXM_ZIP_A_400


 17 18  0  0  0  0  0  0  0  0999 V2000
  101.4620   97.5220   81.0110 C   0  0  0  0  0  0  0  0  0  0  0  0
  100.2420   98.2436   81.2662 C   0  0  0  0  0  0  0  0  0  0  0  0
   99.8113   99.5386   80.9060 N   0  0  0  0  0  0  0  0  0  0  0  0
   99.2515   97.6785   82.0450 C   0  0  0  0  0  0  0  0  0  0  0  0
   98.2068   98.5236   82.1470 N   0  0  0  0  0  0  0  0  0  0  0  0
   98.6324   99.6360   81.4938 C   0  0  0  0  0  0  0  0  0  0  0  0
   99.4573   96.3519   82.5574 N   0  0  0  0  0  0  0  0  0  0  0  0
  100.5719   95.7333   82.2230 C   0  0  0  0  0  0  0  0  0  0  0  0
  101.5062   96.2813   81.5171 N   0  0  0  0  0  0  0  0  0  0  0  0
   97.3408   98.3710   82.5897 H   0  0  0  0  0  0  0  0  0  0  0  0
  102.5889   98.0029   80.2602 N   0  0  0  0  0  0  0  0  0  0  0  0
  102.7946   97.5560   79.4074 H   0  0  0  0  0  0  0  0  0  0  0  0
  103.4614   99.1211   80.6776 C   0  0  0  0  0  0  0  0  0  0  0  0
  105.1036  102.0444   79.4660 C   0  0  0  0  0  0  0  0  0  0  0  0
  103.7993  101.2793   79.2191 C   0  0  0  0  0  0  0  0  0  0  0  0
  102.9758  101.8691   78.0921 C   0  0  0  0  0  0  0  0  0  0  0  0
  103.2286  100.5535   80.2171 C   0  0  0  0  0  0  0  0  0  0  0  0
 14 15  1  0  0  0
 15 16  1  0  0  0
 15 17  2  0  0  0
 17 13  1  0  0  0
 13 11  1  0  0  0
 11  1  1  0  0  0
  1  2  2  0  0  0
  1  9  1  0  0  0
  2  3  1  0  0  0
  2  4  1  0  0  0
  3  6  2  0  0  0
  4  5  1  0  0  0
  4  7  2  0  0  0
  5  6  1  0  0  0
  7  8  1  0  0  0
  8  9  2  0  0  0
 11 12  1  0  0  0
  5 10  1  0  0  0
M  END
> <minimizedAffinity>
-6.04955

$$$$
2EXM_ZIP_A_400


 17 18  0  0  0  0  0  0  0  0999 V2000
  100.9960   98.6934   78.6982 C   0  0  0  0  0  0  0  0  0  0  0  0
  101.5534   99.7395   77.8800 C   0  0  0  0  0  0  0  0  0  0  0  0
  101.3358  100.1119   76.5362 N   0  0  0  0  0  0  0  0  0  0  0  0
  102.5355  100.5676   78.3865 C   0  0  0  0  0  0  0  0  0  0  0  0
  102.9045  101.4684   77.4546 N   0  0  0  0  0  0  0  0  0  0  0  0
  102.1923  101.1015   76.3576 C   0  0  0  0  0  0  0  0  0  0  0  0
  102.9542  100.3794   79.7481 N   0  0  0  0  0  0  0  0  0  0  0  0
  102.3478   99.4438   80.4506 C   0  0  0  0  0  0  0  0  0  0  0  0
  101.4495   98.6542   79.9593 N   0  0  0  0  0  0  0  0  0  0  0  0
  103.5395  102.2151   77.5469 H   0  0  0  0  0  0  0  0  0  0  0  0
  100.0064   97.7351   78.2894 N   0  0  0  0  0  0  0  0  0  0  0  0
  100.2544   97.0938   77.5848 H   0  0  0  0  0  0  0  0  0  0  0  0
   98.6422   97.6439   78.8520 C   0  0  0  0  0  0  0  0  0  0  0  0
   99.6264   95.3249   81.3748 C   0  0  0  0  0  0  0  0  0  0  0  0
   98.3728   96.1030   80.9621 C   0  0  0  0  0  0  0  0  0  0  0  0
   97.2166   95.9073   81.9219 C   0  0  0  0  0  0  0  0  0  0  0  0
   98.1718   96.4430   79.6612 C   0  0  0  0  0  0  0  0  0  0  0  0
 14 15  1  0  0  0
 15 16  1  0  0  0
 15 17  2  0  0  0
 17 13  1  0  0  0
 13 11  1  0  0  0
 11  1  1  0  0  0
  1  2  2  0  0  0
  1  9  1  0  0  0
  2  3  1  0  0  0
  2  4  1  0  0  0
  3  6  2  0  0  0
  4  5  1  0  0  0
  4  7  2  0  0  0
  5  6  1  0  0  0
  7  8  1  0  0  0
  8  9  2  0  0  0
 11 12  1  0  0  0
  5 10  1  0  0  0
M  END
> <minimizedAffinity>
-6.04034

$$$$
2EXM_ZIP_A_400


 17 18  0  0  0  0  0  0  0  0999 V2000
  102.6675   98.8476   80.0536 C   0  0  0  0  0  0  0  0  0  0  0  0
  102.5290   99.8394   79.0185 C   0  0  0  0  0  0  0  0  0  0  0  0
  101.7166   99.9026   77.8661 N   0  0  0  0  0  0  0  0  0  0  0  0
  103.3303  100.9641   79.0235 C   0  0  0  0  0  0  0  0  0  0  0  0
  103.0279  101.7502   77.9716 N   0  0  0  0  0  0  0  0  0  0  0  0
  102.0995  101.0286   77.2915 C   0  0  0  0  0  0  0  0  0  0  0  0
  104.2699  101.1301   80.0979 N   0  0  0  0  0  0  0  0  0  0  0  0
  104.2882  100.2106   81.0418 C   0  0  0  0  0  0  0  0  0  0  0  0
  103.5544   99.1465   81.0136 N   0  0  0  0  0  0  0  0  0  0  0  0
  103.3931  102.6370   77.7489 H   0  0  0  0  0  0  0  0  0  0  0  0
  101.9359   97.6145   80.1480 N   0  0  0  0  0  0  0  0  0  0  0  0
  101.8399   97.0758   79.3295 H   0  0  0  0  0  0  0  0  0  0  0  0
  101.3170   97.0973   81.3871 C   0  0  0  0  0  0  0  0  0  0  0  0
   99.1044   99.8820   81.1406 C   0  0  0  0  0  0  0  0  0  0  0  0
   99.0422   98.4024   81.5333 C   0  0  0  0  0  0  0  0  0  0  0  0
   97.6352   97.9362   81.8482 C   0  0  0  0  0  0  0  0  0  0  0  0
  100.1339   97.7834   82.0562 C   0  0  0  0  0  0  0  0  0  0  0  0
 14 15  1  0  0  0
 15 16  1  0  0  0
 15 17  2  0  0  0
 17 13  1  0  0  0
 13 11  1  0  0  0
 11  1  1  0  0  0
  1  2  2  0  0  0
  1  9  1  0  0  0
  2  3  1  0  0  0
  2  4  1  0  0  0
  3  6  2  0  0  0
  4  5  1  0  0  0
  4  7  2  0  0  0
  5  6  1  0  0  0
  7  8  1  0  0  0
  8  9  2  0  0  0
 11 12  1  0  0  0
  5 10  1  0  0  0
M  END
> <minimizedAffinity>
-6.03865

$$$$
2EXM_ZIP_A_400


 17 18  0  0  0  0  0  0  0  0999 V2000
   99.7290   97.5593   80.8457 C   0  0  0  0  0  0  0  0  0  0  0  0
   98.5488   96.8022   81.1747 C   0  0  0  0  0  0  0  0  0  0  0  0
   98.2517   95.4246   81.0966 N   0  0  0  0  0  0  0  0  0  0  0  0
   97.4096   97.4482   81.6124 C   0  0  0  0  0  0  0  0  0  0  0  0
   96.4372   96.5494   81.8627 N   0  0  0  0  0  0  0  0  0  0  0  0
   96.9882   95.3690   81.4774 C   0  0  0  0  0  0  0  0  0  0  0  0
   97.4476   98.8769   81.7615 N   0  0  0  0  0  0  0  0  0  0  0  0
   98.5861   99.4885   81.5037 C   0  0  0  0  0  0  0  0  0  0  0  0
   99.6391   98.8786   81.0668 N   0  0  0  0  0  0  0  0  0  0  0  0
   95.5406   96.7100   82.2361 H   0  0  0  0  0  0  0  0  0  0  0  0
  100.9632   97.0259   80.3387 N   0  0  0  0  0  0  0  0  0  0  0  0
  100.9250   96.4893   79.5141 H   0  0  0  0  0  0  0  0  0  0  0  0
  102.2862   97.2257   80.9676 C   0  0  0  0  0  0  0  0  0  0  0  0
  102.5685  100.2553   79.1094 C   0  0  0  0  0  0  0  0  0  0  0  0
  103.1823   99.6191   80.3608 C   0  0  0  0  0  0  0  0  0  0  0  0
  104.1408  100.5453   81.0815 C   0  0  0  0  0  0  0  0  0  0  0  0
  103.2782   98.2672   80.4681 C   0  0  0  0  0  0  0  0  0  0  0  0
 14 15  1  0  0  0
 15 16  1  0  0  0
 15 17  2  0  0  0
 17 13  1  0  0  0
 13 11  1  0  0  0
 11  1  1  0  0  0
  1  2  2  0  0  0
  1  9  1  0  0  0
  2  3  1  0  0  0
  2  4  1  0  0  0
  3  6  2  0  0  0
  4  5  1  0  0  0
  4  7  2  0  0  0
  5  6  1  0  0  0
  7  8  1  0  0  0
  8  9  2  0  0  0
 11 12  1  0  0  0
  5 10  1  0  0  0
M  END
> <minimizedAffinity>
-6.02573

$$$$
2EXM_ZIP_A_400


 17 18  0  0  0  0  0  0  0  0999 V2000
  100.1893   97.8036   80.6912 C   0  0  0  0  0  0  0  0  0  0  0  0
   99.4511   98.5618   79.7143 C   0  0  0  0  0  0  0  0  0  0  0  0
   99.7143   98.8845   78.3657 N   0  0  0  0  0  0  0  0  0  0  0  0
   98.2680   99.1810   80.0659 C   0  0  0  0  0  0  0  0  0  0  0  0
   97.7514   99.8262   79.0016 N   0  0  0  0  0  0  0  0  0  0  0  0
   98.6943   99.6573   78.0385 C   0  0  0  0  0  0  0  0  0  0  0  0
   97.7838   99.0192   81.4091 N   0  0  0  0  0  0  0  0  0  0  0  0
   98.4835   98.2549   82.2234 C   0  0  0  0  0  0  0  0  0  0  0  0
   99.6051   97.7026   81.8938 N   0  0  0  0  0  0  0  0  0  0  0  0
   96.8941  100.3061   78.9374 H   0  0  0  0  0  0  0  0  0  0  0  0
  101.4500   97.1478   80.4780 N   0  0  0  0  0  0  0  0  0  0  0  0
  101.4587   96.1634   80.4746 H   0  0  0  0  0  0  0  0  0  0  0  0
  102.7350   97.8467   80.2633 C   0  0  0  0  0  0  0  0  0  0  0  0
  105.2246  100.1863   81.2828 C   0  0  0  0  0  0  0  0  0  0  0  0
  103.9667  100.1622   80.4085 C   0  0  0  0  0  0  0  0  0  0  0  0
  103.7161  101.4792   79.7021 C   0  0  0  0  0  0  0  0  0  0  0  0
  102.9565   99.2940   80.6810 C   0  0  0  0  0  0  0  0  0  0  0  0
 14 15  1  0  0  0
 15 16  1  0  0  0
 15 17  2  0  0  0
 17 13  1  0  0  0
 13 11  1  0  0  0
 11  1  1  0  0  0
  1  2  2  0  0  0
  1  9  1  0  0  0
  2  3  1  0  0  0
  2  4  1  0  0  0
  3  6  2  0  0  0
  4  5  1  0  0  0
  4  7  2  0  0  0
  5  6  1  0  0  0
  7  8  1  0  0  0
  8  9  2  0  0  0
 11 12  1  0  0  0
  5 10  1  0  0  0
M  END
> <minimizedAffinity>
-6.01992

$$$$
2EXM_ZIP_A_400


 17 18  0  0  0  0  0  0  0  0999 V2000
   99.6005   98.0755   79.9338 C   0  0  0  0  0  0  0  0  0  0  0  0
  100.1289   97.4197   81.1023 C   0  0  0  0  0  0  0  0  0  0  0  0
  101.2196   96.5434   81.2880 N   0  0  0  0  0  0  0  0  0  0  0  0
   99.4986   97.5623   82.3226 C   0  0  0  0  0  0  0  0  0  0  0  0
  100.1631   96.8695   83.2684 N   0  0  0  0  0  0  0  0  0  0  0  0
  101.1434   96.2388   82.5710 C   0  0  0  0  0  0  0  0  0  0  0  0
   98.3349   98.4020   82.3978 N   0  0  0  0  0  0  0  0  0  0  0  0
   97.9546   99.0198   81.2976 C   0  0  0  0  0  0  0  0  0  0  0  0
   98.5339   98.8576   80.1532 N   0  0  0  0  0  0  0  0  0  0  0  0
   99.9812   96.8300   84.2351 H   0  0  0  0  0  0  0  0  0  0  0  0
  100.1246   97.9796   78.5993 N   0  0  0  0  0  0  0  0  0  0  0  0
   99.7395   97.2958   78.0048 H   0  0  0  0  0  0  0  0  0  0  0  0
  101.2010   98.8349   78.0558 C   0  0  0  0  0  0  0  0  0  0  0  0
  103.1029   99.7523   80.9284 C   0  0  0  0  0  0  0  0  0  0  0  0
  102.9470  100.1954   79.4701 C   0  0  0  0  0  0  0  0  0  0  0  0
  103.9152  101.2948   79.0828 C   0  0  0  0  0  0  0  0  0  0  0  0
  101.7641  100.0239   78.8222 C   0  0  0  0  0  0  0  0  0  0  0  0
 14 15  1  0  0  0
 15 16  1  0  0  0
 15 17  2  0  0  0
 17 13  1  0  0  0
 13 11  1  0  0  0
 11  1  1  0  0  0
  1  2  2  0  0  0
  1  9  1  0  0  0
  2  3  1  0  0  0
  2  4  1  0  0  0
  3  6  2  0  0  0
  4  5  1  0  0  0
  4  7  2  0  0  0
  5  6  1  0  0  0
  7  8  1  0  0  0
  8  9  2  0  0  0
 11 12  1  0  0  0
  5 10  1  0  0  0
M  END
> <minimizedAffinity>
-5.99629

$$$$
