3B3X_A33_A_300


 18 17  0  0  0  0  0  0  0  0999 V2000
   50.0507   48.2830  -19.0230 C   0  0  0  0  0  0  0  0  0  0  0  0
   49.9610   49.5909  -18.3969 N   0  0  0  0  0  0  0  0  0  0  0  0
   50.1025   50.3153  -19.1009 H   0  0  0  0  0  0  0  0  0  0  0  0
   50.6780   49.6726  -17.6760 H   0  0  0  0  0  0  0  0  0  0  0  0
   52.1954   47.1503  -19.0538 O   0  0  0  0  0  0  0  0  0  0  0  0
   51.4863   48.1165  -19.4141 C   0  0  0  0  0  0  0  0  0  0  0  0
   51.9023   49.0410  -20.1235 O   0  0  0  0  0  0  0  0  0  0  0  0
   51.3283   49.7413  -20.3647 H   0  0  0  0  0  0  0  0  0  0  0  0
   49.8475   47.1122  -18.0251 C   0  0  0  0  0  0  0  0  0  0  0  0
   49.9796   47.4600  -16.5315 C   0  0  0  0  0  0  0  0  0  0  0  0
   48.9472   47.7605  -15.8522 O   0  0  0  0  0  0  0  0  0  0  0  0
   51.1307   47.4371  -15.9944 O   0  0  0  0  0  0  0  0  0  0  0  0
   51.8826   47.2139  -16.5071 H   0  0  0  0  0  0  0  0  0  0  0  0
   49.0442   48.3156  -20.1768 C   0  0  0  0  0  0  0  0  0  0  0  0
   48.6889   49.7126  -20.7322 C   0  0  0  0  0  0  0  0  0  0  0  0
   47.5613   50.2024  -20.4971 O   0  0  0  0  0  0  0  0  0  0  0  0
   49.4882   50.3585  -21.4553 O   0  0  0  0  0  0  0  0  0  0  0  0
   46.9509   49.7365  -19.9602 H   0  0  0  0  0  0  0  0  0  0  0  0
  5  6  2  0  0  0
  6  7  1  0  0  0
  6  1  1  0  0  0
 11 10  2  0  0  0
 17 15  2  0  0  0
 14  1  1  0  0  0
 14 15  1  0  0  0
  1  2  1  0  0  0
  1  9  1  0  0  0
 10  9  1  0  0  0
 10 12  1  0  0  0
 15 16  1  0  0  0
  7  8  1  0  0  0
 12 13  1  0  0  0
  2  3  1  0  0  0
  2  4  1  0  0  0
 16 18  1  0  0  0
M  END
> <minimizedAffinity>
-6.33307

$$$$
3B3X_A33_A_300


 18 17  0  0  0  0  0  0  0  0999 V2000
   49.1402   47.9285  -19.7507 C   0  0  0  0  0  0  0  0  0  0  0  0
   47.7089   48.0234  -19.9807 N   0  0  0  0  0  0  0  0  0  0  0  0
   47.3118   48.7328  -19.3646 H   0  0  0  0  0  0  0  0  0  0  0  0
   47.2728   47.1220  -19.7867 H   0  0  0  0  0  0  0  0  0  0  0  0
   49.3508   46.1026  -18.1679 O   0  0  0  0  0  0  0  0  0  0  0  0
   49.2946   47.3337  -18.3854 C   0  0  0  0  0  0  0  0  0  0  0  0
   49.3505   48.1877  -17.4918 O   0  0  0  0  0  0  0  0  0  0  0  0
   49.3037   49.0978  -17.7099 H   0  0  0  0  0  0  0  0  0  0  0  0
   49.8347   46.8695  -20.6474 C   0  0  0  0  0  0  0  0  0  0  0  0
   50.2312   47.3296  -22.0618 C   0  0  0  0  0  0  0  0  0  0  0  0
   51.4195   47.1550  -22.4802 O   0  0  0  0  0  0  0  0  0  0  0  0
   49.3538   47.8791  -22.7981 O   0  0  0  0  0  0  0  0  0  0  0  0
   48.4822   48.0013  -22.4766 H   0  0  0  0  0  0  0  0  0  0  0  0
   49.6741   49.3537  -19.9219 C   0  0  0  0  0  0  0  0  0  0  0  0
   48.6773   50.3922  -20.4822 C   0  0  0  0  0  0  0  0  0  0  0  0
   48.2798   50.2916  -21.6648 O   0  0  0  0  0  0  0  0  0  0  0  0
   48.2843   51.3679  -19.7948 O   0  0  0  0  0  0  0  0  0  0  0  0
   48.5613   49.5714  -22.1940 H   0  0  0  0  0  0  0  0  0  0  0  0
  5  6  2  0  0  0
  6  7  1  0  0  0
  6  1  1  0  0  0
 11 10  2  0  0  0
 17 15  2  0  0  0
 14  1  1  0  0  0
 14 15  1  0  0  0
  1  2  1  0  0  0
  1  9  1  0  0  0
 10  9  1  0  0  0
 10 12  1  0  0  0
 15 16  1  0  0  0
  7  8  1  0  0  0
 12 13  1  0  0  0
  2  3  1  0  0  0
  2  4  1  0  0  0
 16 18  1  0  0  0
M  END
> <minimizedAffinity>
-6.09914

$$$$
3B3X_A33_A_300


 18 17  0  0  0  0  0  0  0  0999 V2000
   48.8407   48.5505  -20.3854 C   0  0  0  0  0  0  0  0  0  0  0  0
   47.5321   48.0677  -19.9792 N   0  0  0  0  0  0  0  0  0  0  0  0
   46.9209   48.0156  -20.7941 H   0  0  0  0  0  0  0  0  0  0  0  0
   47.1311   48.7080  -19.2939 H   0  0  0  0  0  0  0  0  0  0  0  0
   48.7646   50.9389  -19.9688 O   0  0  0  0  0  0  0  0  0  0  0  0
   48.6445   49.9843  -20.7691 C   0  0  0  0  0  0  0  0  0  0  0  0
   48.3405   50.1267  -21.9601 O   0  0  0  0  0  0  0  0  0  0  0  0
   48.2638   49.3770  -22.5169 H   0  0  0  0  0  0  0  0  0  0  0  0
   49.8437   48.6634  -19.2069 C   0  0  0  0  0  0  0  0  0  0  0  0
   49.5526   47.7828  -17.9784 C   0  0  0  0  0  0  0  0  0  0  0  0
   49.5126   46.5170  -18.0953 O   0  0  0  0  0  0  0  0  0  0  0  0
   49.3584   48.3411  -16.8538 O   0  0  0  0  0  0  0  0  0  0  0  0
   49.3908   49.2749  -16.7825 H   0  0  0  0  0  0  0  0  0  0  0  0
   49.2873   47.6135  -21.5115 C   0  0  0  0  0  0  0  0  0  0  0  0
   50.7365   47.0859  -21.4247 C   0  0  0  0  0  0  0  0  0  0  0  0
   50.9797   46.0546  -20.7585 O   0  0  0  0  0  0  0  0  0  0  0  0
   51.6930   47.6905  -21.9710 O   0  0  0  0  0  0  0  0  0  0  0  0
   50.2804   45.5893  -20.3432 H   0  0  0  0  0  0  0  0  0  0  0  0
  5  6  2  0  0  0
  6  7  1  0  0  0
  6  1  1  0  0  0
 11 10  2  0  0  0
 17 15  2  0  0  0
 14  1  1  0  0  0
 14 15  1  0  0  0
  1  2  1  0  0  0
  1  9  1  0  0  0
 10  9  1  0  0  0
 10 12  1  0  0  0
 15 16  1  0  0  0
  7  8  1  0  0  0
 12 13  1  0  0  0
  2  3  1  0  0  0
  2  4  1  0  0  0
 16 18  1  0  0  0
M  END
> <minimizedAffinity>
-6.09729

$$$$
3B3X_A33_A_300


 18 17  0  0  0  0  0  0  0  0999 V2000
   50.3231   48.0588  -18.6938 C   0  0  0  0  0  0  0  0  0  0  0  0
   50.0262   49.4334  -19.0585 N   0  0  0  0  0  0  0  0  0  0  0  0
   50.7508   50.0477  -18.6871 H   0  0  0  0  0  0  0  0  0  0  0  0
   49.1218   49.7005  -18.6697 H   0  0  0  0  0  0  0  0  0  0  0  0
   49.0149   48.1210  -16.6521 O   0  0  0  0  0  0  0  0  0  0  0  0
   50.1251   47.9790  -17.2119 C   0  0  0  0  0  0  0  0  0  0  0  0
   51.1775   47.7678  -16.5964 O   0  0  0  0  0  0  0  0  0  0  0  0
   51.9828   47.6690  -17.0652 H   0  0  0  0  0  0  0  0  0  0  0  0
   49.2704   47.0462  -19.2176 C   0  0  0  0  0  0  0  0  0  0  0  0
   48.2409   47.5932  -20.2228 C   0  0  0  0  0  0  0  0  0  0  0  0
   48.5256   47.6500  -21.4611 O   0  0  0  0  0  0  0  0  0  0  0  0
   47.1090   47.9799  -19.7947 O   0  0  0  0  0  0  0  0  0  0  0  0
   46.9130   47.9323  -18.8796 H   0  0  0  0  0  0  0  0  0  0  0  0
   51.7493   47.8060  -19.1911 C   0  0  0  0  0  0  0  0  0  0  0  0
   52.1583   48.5372  -20.4888 C   0  0  0  0  0  0  0  0  0  0  0  0
   52.9347   49.5171  -20.4275 O   0  0  0  0  0  0  0  0  0  0  0  0
   51.6969   48.2026  -21.6087 O   0  0  0  0  0  0  0  0  0  0  0  0
   53.2895   49.7827  -19.6019 H   0  0  0  0  0  0  0  0  0  0  0  0
  5  6  2  0  0  0
  6  7  1  0  0  0
  6  1  1  0  0  0
 11 10  2  0  0  0
 17 15  2  0  0  0
 14  1  1  0  0  0
 14 15  1  0  0  0
  1  2  1  0  0  0
  1  9  1  0  0  0
 10  9  1  0  0  0
 10 12  1  0  0  0
 15 16  1  0  0  0
  7  8  1  0  0  0
 12 13  1  0  0  0
  2  3  1  0  0  0
  2  4  1  0  0  0
 16 18  1  0  0  0
M  END
> <minimizedAffinity>
-6.03153

$$$$
3B3X_A33_A_300


 18 17  0  0  0  0  0  0  0  0999 V2000
   50.5351   47.7475  -18.8404 C   0  0  0  0  0  0  0  0  0  0  0  0
   50.9135   48.8020  -19.7652 N   0  0  0  0  0  0  0  0  0  0  0  0
   51.6890   49.3361  -19.3729 H   0  0  0  0  0  0  0  0  0  0  0  0
   50.1177   49.4211  -19.9190 H   0  0  0  0  0  0  0  0  0  0  0  0
   49.4102   47.8362  -16.6932 O   0  0  0  0  0  0  0  0  0  0  0  0
   49.9237   48.4396  -17.6619 C   0  0  0  0  0  0  0  0  0  0  0  0
   49.9700   49.6729  -17.7507 O   0  0  0  0  0  0  0  0  0  0  0  0
   50.3666   50.0742  -18.4988 H   0  0  0  0  0  0  0  0  0  0  0  0
   49.3571   46.8775  -19.3538 C   0  0  0  0  0  0  0  0  0  0  0  0
   48.3631   47.5698  -20.3037 C   0  0  0  0  0  0  0  0  0  0  0  0
   48.6738   47.7645  -21.5215 O   0  0  0  0  0  0  0  0  0  0  0  0
   47.2339   47.9362  -19.8512 O   0  0  0  0  0  0  0  0  0  0  0  0
   47.0186   47.7863  -18.9517 H   0  0  0  0  0  0  0  0  0  0  0  0
   51.8246   46.9695  -18.5623 C   0  0  0  0  0  0  0  0  0  0  0  0
   51.7291   45.8473  -17.5051 C   0  0  0  0  0  0  0  0  0  0  0  0
   51.9821   46.1045  -16.3065 O   0  0  0  0  0  0  0  0  0  0  0  0
   51.4454   44.6647  -17.8212 O   0  0  0  0  0  0  0  0  0  0  0  0
   52.1959   46.9800  -16.0503 H   0  0  0  0  0  0  0  0  0  0  0  0
  5  6  2  0  0  0
  6  7  1  0  0  0
  6  1  1  0  0  0
 11 10  2  0  0  0
 17 15  2  0  0  0
 14  1  1  0  0  0
 14 15  1  0  0  0
  1  2  1  0  0  0
  1  9  1  0  0  0
 10  9  1  0  0  0
 10 12  1  0  0  0
 15 16  1  0  0  0
  7  8  1  0  0  0
 12 13  1  0  0  0
  2  3  1  0  0  0
  2  4  1  0  0  0
 16 18  1  0  0  0
M  END
> <minimizedAffinity>
-5.98107

$$$$
3B3X_A33_A_300


 18 17  0  0  0  0  0  0  0  0999 V2000
   49.2764   47.9197  -19.5125 C   0  0  0  0  0  0  0  0  0  0  0  0
   47.8264   47.9831  -19.5752 N   0  0  0  0  0  0  0  0  0  0  0  0
   47.5204   48.9414  -19.4064 H   0  0  0  0  0  0  0  0  0  0  0  0
   47.4282   47.3689  -18.8648 H   0  0  0  0  0  0  0  0  0  0  0  0
   49.5160   47.2859  -17.1834 O   0  0  0  0  0  0  0  0  0  0  0  0
   49.6325   48.1540  -18.0773 C   0  0  0  0  0  0  0  0  0  0  0  0
   50.0451   49.3011  -17.8648 O   0  0  0  0  0  0  0  0  0  0  0  0
   50.1130   49.9129  -18.5712 H   0  0  0  0  0  0  0  0  0  0  0  0
   49.8373   46.4938  -19.7582 C   0  0  0  0  0  0  0  0  0  0  0  0
   51.2690   46.4125  -20.3177 C   0  0  0  0  0  0  0  0  0  0  0  0
   51.4592   46.1804  -21.5537 O   0  0  0  0  0  0  0  0  0  0  0  0
   52.2487   46.5845  -19.5273 O   0  0  0  0  0  0  0  0  0  0  0  0
   52.0935   46.7547  -18.6190 H   0  0  0  0  0  0  0  0  0  0  0  0
   49.7721   48.9763  -20.5041 C   0  0  0  0  0  0  0  0  0  0  0  0
   48.8074   50.1483  -20.7902 C   0  0  0  0  0  0  0  0  0  0  0  0
   48.2482   50.2297  -21.9071 O   0  0  0  0  0  0  0  0  0  0  0  0
   48.5992   51.0537  -19.9442 O   0  0  0  0  0  0  0  0  0  0  0  0
   48.3905   49.5648  -22.5518 H   0  0  0  0  0  0  0  0  0  0  0  0
  5  6  2  0  0  0
  6  7  1  0  0  0
  6  1  1  0  0  0
 11 10  2  0  0  0
 17 15  2  0  0  0
 14  1  1  0  0  0
 14 15  1  0  0  0
  1  2  1  0  0  0
  1  9  1  0  0  0
 10  9  1  0  0  0
 10 12  1  0  0  0
 15 16  1  0  0  0
  7  8  1  0  0  0
 12 13  1  0  0  0
  2  3  1  0  0  0
  2  4  1  0  0  0
 16 18  1  0  0  0
M  END
> <minimizedAffinity>
-5.97822

$$$$
3B3X_A33_A_300


 18 17  0  0  0  0  0  0  0  0999 V2000
   49.7125   47.9266  -19.2981 C   0  0  0  0  0  0  0  0  0  0  0  0
   49.7401   49.2425  -18.6832 N   0  0  0  0  0  0  0  0  0  0  0  0
   48.9409   49.3422  -18.0573 H   0  0  0  0  0  0  0  0  0  0  0  0
   49.6949   49.9579  -19.4089 H   0  0  0  0  0  0  0  0  0  0  0  0
   48.6411   47.9420  -21.4742 O   0  0  0  0  0  0  0  0  0  0  0  0
   48.5384   47.9358  -20.2270 C   0  0  0  0  0  0  0  0  0  0  0  0
   47.4537   47.9472  -19.6317 O   0  0  0  0  0  0  0  0  0  0  0  0
   47.4333   47.9418  -18.6949 H   0  0  0  0  0  0  0  0  0  0  0  0
   50.8957   47.6817  -20.2717 C   0  0  0  0  0  0  0  0  0  0  0  0
   51.7615   48.9079  -20.6130 C   0  0  0  0  0  0  0  0  0  0  0  0
   53.0141   48.8858  -20.3942 O   0  0  0  0  0  0  0  0  0  0  0  0
   51.2046   49.9325  -21.1172 O   0  0  0  0  0  0  0  0  0  0  0  0
   50.2807   49.9346  -21.2730 H   0  0  0  0  0  0  0  0  0  0  0  0
   49.6338   46.9358  -18.1329 C   0  0  0  0  0  0  0  0  0  0  0  0
   49.9398   47.5070  -16.7307 C   0  0  0  0  0  0  0  0  0  0  0  0
   48.9955   47.7941  -15.9609 O   0  0  0  0  0  0  0  0  0  0  0  0
   51.1164   47.7349  -16.3529 O   0  0  0  0  0  0  0  0  0  0  0  0
   48.1109   47.6319  -16.2239 H   0  0  0  0  0  0  0  0  0  0  0  0
  5  6  2  0  0  0
  6  7  1  0  0  0
  6  1  1  0  0  0
 11 10  2  0  0  0
 17 15  2  0  0  0
 14  1  1  0  0  0
 14 15  1  0  0  0
  1  2  1  0  0  0
  1  9  1  0  0  0
 10  9  1  0  0  0
 10 12  1  0  0  0
 15 16  1  0  0  0
  7  8  1  0  0  0
 12 13  1  0  0  0
  2  3  1  0  0  0
  2  4  1  0  0  0
 16 18  1  0  0  0
M  END
> <minimizedAffinity>
-5.91781

$$$$
3B3X_A33_A_300


 18 17  0  0  0  0  0  0  0  0999 V2000
   50.0711   46.8352  -19.0192 C   0  0  0  0  0  0  0  0  0  0  0  0
   49.1853   45.8717  -18.3886 N   0  0  0  0  0  0  0  0  0  0  0  0
   49.5948   45.5586  -17.5085 H   0  0  0  0  0  0  0  0  0  0  0  0
   49.0574   45.0714  -19.0079 H   0  0  0  0  0  0  0  0  0  0  0  0
   52.0463   45.4755  -18.6537 O   0  0  0  0  0  0  0  0  0  0  0  0
   51.2767   46.0589  -19.4497 C   0  0  0  0  0  0  0  0  0  0  0  0
   51.4389   46.0628  -20.6764 O   0  0  0  0  0  0  0  0  0  0  0  0
   50.8319   46.5159  -21.2278 H   0  0  0  0  0  0  0  0  0  0  0  0
   49.5292   47.3708  -20.3710 C   0  0  0  0  0  0  0  0  0  0  0  0
   48.2961   48.2889  -20.2944 C   0  0  0  0  0  0  0  0  0  0  0  0
   48.3926   49.5156  -20.6160 O   0  0  0  0  0  0  0  0  0  0  0  0
   47.1883   47.7997  -19.9104 O   0  0  0  0  0  0  0  0  0  0  0  0
   47.1320   46.8941  -19.6766 H   0  0  0  0  0  0  0  0  0  0  0  0
   50.3156   47.9149  -17.9608 C   0  0  0  0  0  0  0  0  0  0  0  0
   50.1488   47.4767  -16.4890 C   0  0  0  0  0  0  0  0  0  0  0  0
   51.0552   46.8147  -15.9350 O   0  0  0  0  0  0  0  0  0  0  0  0
   49.1033   47.7293  -15.8393 O   0  0  0  0  0  0  0  0  0  0  0  0
   51.8426   46.6158  -16.4023 H   0  0  0  0  0  0  0  0  0  0  0  0
  5  6  2  0  0  0
  6  7  1  0  0  0
  6  1  1  0  0  0
 11 10  2  0  0  0
 17 15  2  0  0  0
 14  1  1  0  0  0
 14 15  1  0  0  0
  1  2  1  0  0  0
  1  9  1  0  0  0
 10  9  1  0  0  0
 10 12  1  0  0  0
 15 16  1  0  0  0
  7  8  1  0  0  0
 12 13  1  0  0  0
  2  3  1  0  0  0
  2  4  1  0  0  0
 16 18  1  0  0  0
M  END
> <minimizedAffinity>
-5.79626

$$$$
3B3X_A33_A_300


 18 17  0  0  0  0  0  0  0  0999 V2000
   50.0011   48.1311  -19.6290 C   0  0  0  0  0  0  0  0  0  0  0  0
   51.1295   48.9572  -20.0223 N   0  0  0  0  0  0  0  0  0  0  0  0
   51.9842   48.5846  -19.6088 H   0  0  0  0  0  0  0  0  0  0  0  0
   50.9820   49.9121  -19.6955 H   0  0  0  0  0  0  0  0  0  0  0  0
   49.4966   47.4717  -17.3498 O   0  0  0  0  0  0  0  0  0  0  0  0
   49.8140   48.3688  -18.1627 C   0  0  0  0  0  0  0  0  0  0  0  0
   49.9963   49.5491  -17.8393 O   0  0  0  0  0  0  0  0  0  0  0  0
   50.2330   50.1817  -18.4888 H   0  0  0  0  0  0  0  0  0  0  0  0
   48.6502   48.6228  -20.2132 C   0  0  0  0  0  0  0  0  0  0  0  0
   48.6733   49.9864  -20.9269 C   0  0  0  0  0  0  0  0  0  0  0  0
   48.7800   50.0426  -22.1931 O   0  0  0  0  0  0  0  0  0  0  0  0
   48.5804   51.0458  -20.2318 O   0  0  0  0  0  0  0  0  0  0  0  0
   48.5023   50.9893  -19.2998 H   0  0  0  0  0  0  0  0  0  0  0  0
   50.3841   46.7035  -20.0301 C   0  0  0  0  0  0  0  0  0  0  0  0
   51.3685   46.5687  -21.2127 C   0  0  0  0  0  0  0  0  0  0  0  0
   50.9712   46.8006  -22.3768 O   0  0  0  0  0  0  0  0  0  0  0  0
   52.5541   46.1876  -21.0448 O   0  0  0  0  0  0  0  0  0  0  0  0
   50.0907   47.0856  -22.5233 H   0  0  0  0  0  0  0  0  0  0  0  0
  5  6  2  0  0  0
  6  7  1  0  0  0
  6  1  1  0  0  0
 11 10  2  0  0  0
 17 15  2  0  0  0
 14  1  1  0  0  0
 14 15  1  0  0  0
  1  2  1  0  0  0
  1  9  1  0  0  0
 10  9  1  0  0  0
 10 12  1  0  0  0
 15 16  1  0  0  0
  7  8  1  0  0  0
 12 13  1  0  0  0
  2  3  1  0  0  0
  2  4  1  0  0  0
 16 18  1  0  0  0
M  END
> <minimizedAffinity>
-5.74672

$$$$
3B3X_A33_A_300


 18 17  0  0  0  0  0  0  0  0999 V2000
   49.7763   48.1728  -20.1530 C   0  0  0  0  0  0  0  0  0  0  0  0
   50.7098   49.2838  -20.2232 N   0  0  0  0  0  0  0  0  0  0  0  0
   50.6067   49.8674  -19.3931 H   0  0  0  0  0  0  0  0  0  0  0  0
   50.5148   49.8396  -21.0559 H   0  0  0  0  0  0  0  0  0  0  0  0
   48.2151   49.9344  -20.7389 O   0  0  0  0  0  0  0  0  0  0  0  0
   48.4147   48.7744  -20.3138 C   0  0  0  0  0  0  0  0  0  0  0  0
   47.5061   48.0071  -19.9723 O   0  0  0  0  0  0  0  0  0  0  0  0
   47.7111   47.1475  -19.6606 H   0  0  0  0  0  0  0  0  0  0  0  0
   49.8602   47.2252  -21.3789 C   0  0  0  0  0  0  0  0  0  0  0  0
   50.2709   47.8733  -22.7134 C   0  0  0  0  0  0  0  0  0  0  0  0
   51.4922   47.8857  -23.0679 O   0  0  0  0  0  0  0  0  0  0  0  0
   49.3721   48.3878  -23.4493 O   0  0  0  0  0  0  0  0  0  0  0  0
   48.4762   48.3715  -23.1753 H   0  0  0  0  0  0  0  0  0  0  0  0
   50.0519   47.4957  -18.8073 C   0  0  0  0  0  0  0  0  0  0  0  0
   49.7878   48.3498  -17.5476 C   0  0  0  0  0  0  0  0  0  0  0  0
   49.9439   49.5907  -17.5987 O   0  0  0  0  0  0  0  0  0  0  0  0
   49.4606   47.8277  -16.4525 O   0  0  0  0  0  0  0  0  0  0  0  0
   50.1878   49.9994  -18.4058 H   0  0  0  0  0  0  0  0  0  0  0  0
  5  6  2  0  0  0
  6  7  1  0  0  0
  6  1  1  0  0  0
 11 10  2  0  0  0
 17 15  2  0  0  0
 14  1  1  0  0  0
 14 15  1  0  0  0
  1  2  1  0  0  0
  1  9  1  0  0  0
 10  9  1  0  0  0
 10 12  1  0  0  0
 15 16  1  0  0  0
  7  8  1  0  0  0
 12 13  1  0  0  0
  2  3  1  0  0  0
  2  4  1  0  0  0
 16 18  1  0  0  0
M  END
> <minimizedAffinity>
-5.70736

$$$$
