2X00_GYN_A_301


 38 42  0  0  0  0  0  0  0  0999 V2000
    5.3667   24.9762   -8.1739 C   0  0  0  0  0  0  0  0  0  0  0  0
    4.4103   25.7371   -7.6037 C   0  0  0  0  0  0  0  0  0  0  0  0
    3.6893   26.7769   -8.4351 C   0  0  0  0  0  0  0  0  0  0  0  0
    4.0158   25.6232   -6.1456 C   0  0  0  0  0  0  0  0  0  0  0  0
    5.0534   24.8505   -5.3171 C   0  0  0  0  0  0  0  0  0  0  0  0
    5.4276   23.5824   -6.0856 C   0  0  0  0  0  0  0  0  0  0  0  0
    6.0157   23.8119   -7.4692 C   0  0  0  0  0  0  0  0  0  0  0  0
    3.7937   27.0163   -5.5770 C   0  0  0  0  0  0  0  0  0  0  0  0
    2.6161   27.5334   -5.1615 C   0  0  0  0  0  0  0  0  0  0  0  0
    1.3150   26.7688   -5.2225 C   0  0  0  0  0  0  0  0  0  0  0  0
    2.6261   28.9480   -4.6331 C   0  0  0  0  0  0  0  0  0  0  0  0
    1.8295   29.7576   -5.5111 O   0  0  0  0  0  0  0  0  0  0  0  0
    2.0271   29.0202   -3.2333 C   0  0  0  0  0  0  0  0  0  0  0  0
    3.0327   28.7940   -2.1195 C   0  0  0  0  0  0  0  0  0  0  0  0
    2.7924   27.4861   -1.3803 C   0  0  0  0  0  0  0  0  0  0  0  0
    3.3965   27.4497    0.0196 C   0  0  0  0  0  0  0  0  0  0  0  0
    2.4646   26.5555    0.8207 C   0  0  0  0  0  0  0  0  0  0  0  0
    1.8536   27.3429    1.9812 C   0  0  0  0  0  0  0  0  0  0  0  0
    1.4176   27.1189   -1.1929 O   0  0  0  0  0  0  0  0  0  0  0  0
    1.3840   26.1143   -0.1591 C   0  0  0  0  0  0  0  0  0  0  0  0
    1.6562   24.7218   -0.6877 C   0  0  0  0  0  0  0  0  0  0  0  0
    1.2935   23.5204    0.1552 C   0  0  0  0  0  0  0  0  0  0  0  0
    2.2003   24.5770   -1.9146 C   0  0  0  0  0  0  0  0  0  0  0  0
    2.5516   23.2758   -2.6135 C   0  0  0  0  0  0  0  0  0  0  0  0
    3.1081   23.5587   -4.0174 C   0  0  0  0  0  0  0  0  0  0  0  0
    4.4220   24.3385   -4.0258 C   0  0  0  0  0  0  0  0  0  0  0  0
    5.0238   24.5375   -2.9240 N   0  0  0  0  0  0  0  0  0  0  0  0
    6.4099   24.9016   -2.6692 C   0  0  0  0  0  0  0  0  0  0  0  0
    6.7003   26.0424   -3.6327 C   0  0  0  0  0  0  0  0  0  0  0  0
    6.3046   25.7291   -5.0733 C   0  0  0  0  0  0  0  0  0  0  0  0
    0.9211   29.4179   -5.5288 H   0  0  0  0  0  0  0  0  0  0  0  0
    9.0294   26.1947  -10.6098 O   0  0  0  0  0  0  0  0  0  0  0  0
    7.9555   25.6572  -10.4234 C   0  0  0  0  0  0  0  0  0  0  0  0
    7.0002   26.1589   -9.4626 O   0  0  0  0  0  0  0  0  0  0  0  0
    5.8607   25.3028   -9.5563 C   0  0  0  0  0  0  0  0  0  0  0  0
    6.2645   24.0591  -10.3600 C   0  0  0  0  0  0  0  0  0  0  0  0
    7.4985   24.4522  -11.1634 C   0  0  0  0  0  0  0  0  0  0  0  0
    8.5811   23.3873  -11.2112 C   0  0  0  0  0  0  0  0  0  0  0  0
 32 33  2  0  0  0
 33 34  1  0  0  0
 33 37  1  0  0  0
 34 35  1  0  0  0
 35 36  1  0  0  0
 35  1  1  0  0  0
 36 37  1  0  0  0
 37 38  1  0  0  0
  1  2  2  0  0  0
  1  7  1  0  0  0
  2  3  1  0  0  0
  2  4  1  0  0  0
  4  5  1  0  0  0
  4  8  1  0  0  0
  5  6  1  0  0  0
  5 26  1  0  0  0
  5 30  1  0  0  0
  6  7  1  0  0  0
  8  9  2  0  0  0
  9 10  1  0  0  0
  9 11  1  0  0  0
 11 12  1  0  0  0
 11 13  1  0  0  0
 13 14  1  0  0  0
 14 15  1  0  0  0
 15 16  1  0  0  0
 15 19  1  0  0  0
 16 17  1  0  0  0
 17 18  1  0  0  0
 17 20  1  0  0  0
 19 20  1  0  0  0
 20 21  1  0  0  0
 21 22  1  0  0  0
 21 23  2  0  0  0
 23 24  1  0  0  0
 24 25  1  0  0  0
 25 26  1  0  0  0
 26 27  2  0  0  0
 27 28  1  0  0  0
 28 29  1  0  0  0
 29 30  1  0  0  0
 12 31  1  0  0  0
M  END
> <minimizedAffinity>
-13.95048

$$$$
2X00_GYN_A_301


 38 42  0  0  0  0  0  0  0  0999 V2000
    5.1978   25.3931   -8.2680 C   0  0  0  0  0  0  0  0  0  0  0  0
    4.2754   26.1166   -7.6014 C   0  0  0  0  0  0  0  0  0  0  0  0
    3.5489   27.2379   -8.3134 C   0  0  0  0  0  0  0  0  0  0  0  0
    3.9256   25.8809   -6.1464 C   0  0  0  0  0  0  0  0  0  0  0  0
    4.9738   25.0205   -5.4244 C   0  0  0  0  0  0  0  0  0  0  0  0
    5.2980   23.8193   -6.3136 C   0  0  0  0  0  0  0  0  0  0  0  0
    5.8459   24.1603   -7.6906 C   0  0  0  0  0  0  0  0  0  0  0  0
    3.7496   27.2218   -5.4506 C   0  0  0  0  0  0  0  0  0  0  0  0
    2.5963   27.7199   -4.9518 C   0  0  0  0  0  0  0  0  0  0  0  0
    1.2790   26.9858   -5.0359 C   0  0  0  0  0  0  0  0  0  0  0  0
    2.6512   29.0819   -4.3019 C   0  0  0  0  0  0  0  0  0  0  0  0
    1.8431   29.9793   -5.0780 O   0  0  0  0  0  0  0  0  0  0  0  0
    2.0989   29.0401   -2.8817 C   0  0  0  0  0  0  0  0  0  0  0  0
    3.1351   28.6993   -1.8266 C   0  0  0  0  0  0  0  0  0  0  0  0
    2.8928   27.3354   -1.1975 C   0  0  0  0  0  0  0  0  0  0  0  0
    3.5405   27.1652    0.1728 C   0  0  0  0  0  0  0  0  0  0  0  0
    2.6173   26.2194    0.9231 C   0  0  0  0  0  0  0  0  0  0  0  0
    2.0595   26.9114    2.1681 C   0  0  0  0  0  0  0  0  0  0  0  0
    1.5177   26.9764   -0.9969 O   0  0  0  0  0  0  0  0  0  0  0  0
    1.4973   25.8850   -0.0547 C   0  0  0  0  0  0  0  0  0  0  0  0
    1.7248   24.5403   -0.7125 C   0  0  0  0  0  0  0  0  0  0  0  0
    1.3656   23.2753    0.0333 C   0  0  0  0  0  0  0  0  0  0  0  0
    2.2264   24.4954   -1.9649 C   0  0  0  0  0  0  0  0  0  0  0  0
    2.5293   23.2554   -2.7869 C   0  0  0  0  0  0  0  0  0  0  0  0
    3.0460   23.6519   -4.1784 C   0  0  0  0  0  0  0  0  0  0  0  0
    4.3741   24.4070   -4.1626 C   0  0  0  0  0  0  0  0  0  0  0  0
    5.0147   24.4976   -3.0685 N   0  0  0  0  0  0  0  0  0  0  0  0
    6.4152   24.8143   -2.8294 C   0  0  0  0  0  0  0  0  0  0  0  0
    6.6971   26.0308   -3.6983 C   0  0  0  0  0  0  0  0  0  0  0  0
    6.2493   25.8529   -5.1466 C   0  0  0  0  0  0  0  0  0  0  0  0
    0.9281   29.6579   -5.0949 H   0  0  0  0  0  0  0  0  0  0  0  0
    4.3144   28.2228  -11.7388 O   0  0  0  0  0  0  0  0  0  0  0  0
    5.0218   27.5541  -11.0112 C   0  0  0  0  0  0  0  0  0  0  0  0
    4.5412   26.3588  -10.3571 O   0  0  0  0  0  0  0  0  0  0  0  0
    5.6537   25.8323   -9.6323 C   0  0  0  0  0  0  0  0  0  0  0  0
    6.7440   26.9114   -9.5836 C   0  0  0  0  0  0  0  0  0  0  0  0
    6.4460   27.8712  -10.7292 C   0  0  0  0  0  0  0  0  0  0  0  0
    6.6288   29.3388  -10.3814 C   0  0  0  0  0  0  0  0  0  0  0  0
 32 33  2  0  0  0
 33 34  1  0  0  0
 33 37  1  0  0  0
 34 35  1  0  0  0
 35 36  1  0  0  0
 35  1  1  0  0  0
 36 37  1  0  0  0
 37 38  1  0  0  0
  1  2  2  0  0  0
  1  7  1  0  0  0
  2  3  1  0  0  0
  2  4  1  0  0  0
  4  5  1  0  0  0
  4  8  1  0  0  0
  5  6  1  0  0  0
  5 26  1  0  0  0
  5 30  1  0  0  0
  6  7  1  0  0  0
  8  9  2  0  0  0
  9 10  1  0  0  0
  9 11  1  0  0  0
 11 12  1  0  0  0
 11 13  1  0  0  0
 13 14  1  0  0  0
 14 15  1  0  0  0
 15 16  1  0  0  0
 15 19  1  0  0  0
 16 17  1  0  0  0
 17 18  1  0  0  0
 17 20  1  0  0  0
 19 20  1  0  0  0
 20 21  1  0  0  0
 21 22  1  0  0  0
 21 23  2  0  0  0
 23 24  1  0  0  0
 24 25  1  0  0  0
 25 26  1  0  0  0
 26 27  2  0  0  0
 27 28  1  0  0  0
 28 29  1  0  0  0
 29 30  1  0  0  0
 12 31  1  0  0  0
M  END
> <minimizedAffinity>
-11.59816

$$$$
