4MO8_2VQ_A_302


 19 19  0  0  0  0  0  0  0  0999 V2000
   -4.2235    2.7764   14.3577 C   0  0  0  0  0  0  0  0  0  0  0  0
   -6.9003    3.5509   16.6763 N   0  0  0  0  0  0  0  0  0  0  0  0
   -5.5039    1.8523   16.3889 C   0  0  0  0  0  0  0  0  0  0  0  0
   -6.5643    2.3201   17.1182 C   0  0  0  0  0  0  0  0  0  0  0  0
   -6.0757    3.8350   15.6848 C   0  0  0  0  0  0  0  0  0  0  0  0
   -6.1471    5.0540   14.8647 C   0  0  0  0  0  0  0  0  0  0  0  0
   -5.1995    2.8228   15.4570 N   0  0  0  0  0  0  0  0  0  0  0  0
   -4.7725    0.6650   16.6069 N   0  0  0  0  0  0  0  0  0  0  0  0
   -3.5444    0.7395   16.5182 O   0  0  0  0  0  0  0  0  0  0  0  0
   -5.3668   -0.3910   16.8213 O   0  0  0  0  0  0  0  0  0  0  0  0
   -4.6643    1.8830   13.2501 C   0  0  0  0  0  0  0  0  0  0  0  0
   -5.0036    2.6961   12.0624 N   0  0  0  0  0  0  0  0  0  0  0  0
   -4.9735    3.6753   12.3467 H   0  0  0  0  0  0  0  0  0  0  0  0
   -4.0712    2.5481   10.7472 S   0  0  0  0  0  0  0  0  0  0  0  0
   -4.5369    3.6104    9.9120 O   0  0  0  0  0  0  0  0  0  0  0  0
   -2.6965    2.5155   11.1399 O   0  0  0  0  0  0  0  0  0  0  0  0
   -4.4230    1.1541   10.0504 N   0  0  0  0  0  0  0  0  0  0  0  0
   -4.0950    0.3878   10.6383 H   0  0  0  0  0  0  0  0  0  0  0  0
   -3.9658    1.1040    9.1401 H   0  0  0  0  0  0  0  0  0  0  0  0
 10  8  2  0  0  0
  9  8  1  0  0  0
  8  3  1  0  0  0
  3  7  1  0  0  0
  3  4  2  0  0  0
  1  7  1  0  0  0
  1 11  1  0  0  0
  7  5  1  0  0  0
  4  2  1  0  0  0
 11 12  1  0  0  0
  5  2  2  0  0  0
  5  6  1  0  0  0
 12 14  1  0  0  0
 16 14  2  0  0  0
 17 14  1  0  0  0
 14 15  2  0  0  0
 12 13  1  0  0  0
 17 18  1  0  0  0
 17 19  1  0  0  0
M  CHG 1   8   1
M  CHG 1   9  -1
M  END
> <minimizedAffinity>
-7.29509

$$$$
4MO8_2VQ_A_302


 19 19  0  0  0  0  0  0  0  0999 V2000
   -5.5906    3.6934   14.1370 C   0  0  0  0  0  0  0  0  0  0  0  0
   -2.2221    4.0377   12.8423 N   0  0  0  0  0  0  0  0  0  0  0  0
   -3.8612    2.5632   12.6037 C   0  0  0  0  0  0  0  0  0  0  0  0
   -2.5658    2.8618   12.2748 C   0  0  0  0  0  0  0  0  0  0  0  0
   -3.2764    4.4530   13.5204 C   0  0  0  0  0  0  0  0  0  0  0  0
   -3.3052    5.6613   14.3589 C   0  0  0  0  0  0  0  0  0  0  0  0
   -4.3129    3.5815   13.4173 N   0  0  0  0  0  0  0  0  0  0  0  0
   -4.6414    1.4908   12.1205 N   0  0  0  0  0  0  0  0  0  0  0  0
   -4.4276    0.3782   12.6087 O   0  0  0  0  0  0  0  0  0  0  0  0
   -5.4526    1.6814   11.2151 O   0  0  0  0  0  0  0  0  0  0  0  0
   -5.4708    3.2847   15.5646 C   0  0  0  0  0  0  0  0  0  0  0  0
   -5.7476    1.8375   15.6909 N   0  0  0  0  0  0  0  0  0  0  0  0
   -5.8985    1.4745   14.7497 H   0  0  0  0  0  0  0  0  0  0  0  0
   -4.6238    0.9061   16.3915 S   0  0  0  0  0  0  0  0  0  0  0  0
   -3.4586    1.7325   16.3447 O   0  0  0  0  0  0  0  0  0  0  0  0
   -5.1079    0.4466   17.6562 O   0  0  0  0  0  0  0  0  0  0  0  0
   -4.3890   -0.3675   15.4559 N   0  0  0  0  0  0  0  0  0  0  0  0
   -5.2151   -0.9652   15.4815 H   0  0  0  0  0  0  0  0  0  0  0  0
   -3.5802   -0.8910   15.7909 H   0  0  0  0  0  0  0  0  0  0  0  0
 10  8  2  0  0  0
  9  8  1  0  0  0
  8  3  1  0  0  0
  3  7  1  0  0  0
  3  4  2  0  0  0
  1  7  1  0  0  0
  1 11  1  0  0  0
  7  5  1  0  0  0
  4  2  1  0  0  0
 11 12  1  0  0  0
  5  2  2  0  0  0
  5  6  1  0  0  0
 12 14  1  0  0  0
 16 14  2  0  0  0
 17 14  1  0  0  0
 14 15  2  0  0  0
 12 13  1  0  0  0
 17 18  1  0  0  0
 17 19  1  0  0  0
M  CHG 1   8   1
M  CHG 1   9  -1
M  END
> <minimizedAffinity>
-6.82654

$$$$
4MO8_2VQ_A_302


 19 19  0  0  0  0  0  0  0  0999 V2000
   -5.0275    2.5447   12.7173 C   0  0  0  0  0  0  0  0  0  0  0  0
   -4.0131    6.0107   13.0327 N   0  0  0  0  0  0  0  0  0  0  0  0
   -3.1426    4.1891   12.1153 C   0  0  0  0  0  0  0  0  0  0  0  0
   -2.9362    5.5155   12.3863 C   0  0  0  0  0  0  0  0  0  0  0  0
   -4.8635    5.0101   13.1726 C   0  0  0  0  0  0  0  0  0  0  0  0
   -6.1403    5.0966   13.8981 C   0  0  0  0  0  0  0  0  0  0  0  0
   -4.3779    3.8616   12.6346 N   0  0  0  0  0  0  0  0  0  0  0  0
   -2.3201    3.3336   11.3512 N   0  0  0  0  0  0  0  0  0  0  0  0
   -1.4386    2.7175   11.9555 O   0  0  0  0  0  0  0  0  0  0  0  0
   -2.4679    3.2687   10.1314 O   0  0  0  0  0  0  0  0  0  0  0  0
   -4.3824    1.6607   13.7282 C   0  0  0  0  0  0  0  0  0  0  0  0
   -5.1127    1.7584   15.0103 N   0  0  0  0  0  0  0  0  0  0  0  0
   -6.0577    1.4102   14.8482 H   0  0  0  0  0  0  0  0  0  0  0  0
   -4.5184    0.9603   16.2874 S   0  0  0  0  0  0  0  0  0  0  0  0
   -4.8107   -0.4020   15.9691 O   0  0  0  0  0  0  0  0  0  0  0  0
   -3.1609    1.3544   16.5048 O   0  0  0  0  0  0  0  0  0  0  0  0
   -5.3710    1.3831   17.5707 N   0  0  0  0  0  0  0  0  0  0  0  0
   -5.1702    2.3547   17.8074 H   0  0  0  0  0  0  0  0  0  0  0  0
   -5.1219    0.7832   18.3572 H   0  0  0  0  0  0  0  0  0  0  0  0
 10  8  2  0  0  0
  9  8  1  0  0  0
  8  3  1  0  0  0
  3  7  1  0  0  0
  3  4  2  0  0  0
  1  7  1  0  0  0
  1 11  1  0  0  0
  7  5  1  0  0  0
  4  2  1  0  0  0
 11 12  1  0  0  0
  5  2  2  0  0  0
  5  6  1  0  0  0
 12 14  1  0  0  0
 16 14  2  0  0  0
 17 14  1  0  0  0
 14 15  2  0  0  0
 12 13  1  0  0  0
 17 18  1  0  0  0
 17 19  1  0  0  0
M  CHG 1   8   1
M  CHG 1   9  -1
M  END
> <minimizedAffinity>
-6.62428

$$$$
4MO8_2VQ_A_302


 19 19  0  0  0  0  0  0  0  0999 V2000
   -5.4718    3.1169   13.7793 C   0  0  0  0  0  0  0  0  0  0  0  0
   -2.4527    2.3206   11.9374 N   0  0  0  0  0  0  0  0  0  0  0  0
   -3.2774    4.1372   12.9057 C   0  0  0  0  0  0  0  0  0  0  0  0
   -2.2460    3.6368   12.1566 C   0  0  0  0  0  0  0  0  0  0  0  0
   -3.5945    2.0139   12.5255 C   0  0  0  0  0  0  0  0  0  0  0  0
   -4.2357    0.6914   12.4624 C   0  0  0  0  0  0  0  0  0  0  0  0
   -4.1521    3.0944   13.1304 N   0  0  0  0  0  0  0  0  0  0  0  0
   -3.3870    5.4334   13.4535 N   0  0  0  0  0  0  0  0  0  0  0  0
   -2.8002    5.6428   14.5182 O   0  0  0  0  0  0  0  0  0  0  0  0
   -4.0875    6.2777   12.8962 O   0  0  0  0  0  0  0  0  0  0  0  0
   -5.3698    3.0833   15.2652 C   0  0  0  0  0  0  0  0  0  0  0  0
   -5.8323    1.7703   15.7643 N   0  0  0  0  0  0  0  0  0  0  0  0
   -6.2707    1.2856   14.9812 H   0  0  0  0  0  0  0  0  0  0  0  0
   -4.7312    0.7657   16.3964 S   0  0  0  0  0  0  0  0  0  0  0  0
   -5.1941    0.5979   17.7381 O   0  0  0  0  0  0  0  0  0  0  0  0
   -4.5939   -0.3810   15.5529 O   0  0  0  0  0  0  0  0  0  0  0  0
   -3.3291    1.5311   16.4279 N   0  0  0  0  0  0  0  0  0  0  0  0
   -2.9888    1.6566   15.4745 H   0  0  0  0  0  0  0  0  0  0  0  0
   -2.6541    0.9824   16.9604 H   0  0  0  0  0  0  0  0  0  0  0  0
 10  8  2  0  0  0
  9  8  1  0  0  0
  8  3  1  0  0  0
  3  7  1  0  0  0
  3  4  2  0  0  0
  1  7  1  0  0  0
  1 11  1  0  0  0
  7  5  1  0  0  0
  4  2  1  0  0  0
 11 12  1  0  0  0
  5  2  2  0  0  0
  5  6  1  0  0  0
 12 14  1  0  0  0
 16 14  2  0  0  0
 17 14  1  0  0  0
 14 15  2  0  0  0
 12 13  1  0  0  0
 17 18  1  0  0  0
 17 19  1  0  0  0
M  CHG 1   8   1
M  CHG 1   9  -1
M  END
> <minimizedAffinity>
-6.56651

$$$$
4MO8_2VQ_A_302


 19 19  0  0  0  0  0  0  0  0999 V2000
   -3.6176    4.9647   13.9524 C   0  0  0  0  0  0  0  0  0  0  0  0
   -4.5799    5.0279   10.4579 N   0  0  0  0  0  0  0  0  0  0  0  0
   -3.1141    3.8882   11.6705 C   0  0  0  0  0  0  0  0  0  0  0  0
   -3.5941    4.1067   10.4067 C   0  0  0  0  0  0  0  0  0  0  0  0
   -4.6995    5.3840   11.7239 C   0  0  0  0  0  0  0  0  0  0  0  0
   -5.6093    6.4315   12.2127 C   0  0  0  0  0  0  0  0  0  0  0  0
   -3.8170    4.7217   12.5156 N   0  0  0  0  0  0  0  0  0  0  0  0
   -2.1691    2.9195   12.0715 N   0  0  0  0  0  0  0  0  0  0  0  0
   -2.5841    1.7711   12.2467 O   0  0  0  0  0  0  0  0  0  0  0  0
   -1.0022    3.2502   12.2794 O   0  0  0  0  0  0  0  0  0  0  0  0
   -4.4289    4.0442   14.7975 C   0  0  0  0  0  0  0  0  0  0  0  0
   -3.5915    2.9074   15.2371 N   0  0  0  0  0  0  0  0  0  0  0  0
   -3.1060    3.1987   16.0855 H   0  0  0  0  0  0  0  0  0  0  0  0
   -4.3263    1.5018   15.5617 S   0  0  0  0  0  0  0  0  0  0  0  0
   -3.4456    0.9004   16.5132 O   0  0  0  0  0  0  0  0  0  0  0  0
   -5.6874    1.7492   15.9240 O   0  0  0  0  0  0  0  0  0  0  0  0
   -4.3183    0.6239   14.2268 N   0  0  0  0  0  0  0  0  0  0  0  0
   -4.9441    1.0442   13.5397 H   0  0  0  0  0  0  0  0  0  0  0  0
   -4.6338   -0.3223   14.4402 H   0  0  0  0  0  0  0  0  0  0  0  0
 10  8  2  0  0  0
  9  8  1  0  0  0
  8  3  1  0  0  0
  3  7  1  0  0  0
  3  4  2  0  0  0
  1  7  1  0  0  0
  1 11  1  0  0  0
  7  5  1  0  0  0
  4  2  1  0  0  0
 11 12  1  0  0  0
  5  2  2  0  0  0
  5  6  1  0  0  0
 12 14  1  0  0  0
 16 14  2  0  0  0
 17 14  1  0  0  0
 14 15  2  0  0  0
 12 13  1  0  0  0
 17 18  1  0  0  0
 17 19  1  0  0  0
M  CHG 1   8   1
M  CHG 1   9  -1
M  END
> <minimizedAffinity>
-6.31506

$$$$
4MO8_2VQ_A_302


 19 19  0  0  0  0  0  0  0  0999 V2000
   -4.2366    4.8428   11.0393 C   0  0  0  0  0  0  0  0  0  0  0  0
   -2.7301    5.5257   14.2651 N   0  0  0  0  0  0  0  0  0  0  0  0
   -4.7887    5.1445   13.5340 C   0  0  0  0  0  0  0  0  0  0  0  0
   -4.0283    5.4558   14.6295 C   0  0  0  0  0  0  0  0  0  0  0  0
   -2.6871    5.2773   12.9689 C   0  0  0  0  0  0  0  0  0  0  0  0
   -1.4667    5.3331   12.1495 C   0  0  0  0  0  0  0  0  0  0  0  0
   -3.9255    5.0438   12.4627 N   0  0  0  0  0  0  0  0  0  0  0  0
   -6.1708    4.8598   13.5045 N   0  0  0  0  0  0  0  0  0  0  0  0
   -6.5041    3.6838   13.6710 O   0  0  0  0  0  0  0  0  0  0  0  0
   -6.9774    5.7586   13.2682 O   0  0  0  0  0  0  0  0  0  0  0  0
   -3.9893    3.4406   10.6011 C   0  0  0  0  0  0  0  0  0  0  0  0
   -4.7160    2.5081   11.4894 N   0  0  0  0  0  0  0  0  0  0  0  0
   -5.3736    1.9872   10.9092 H   0  0  0  0  0  0  0  0  0  0  0  0
   -3.8514    1.4256   12.3272 S   0  0  0  0  0  0  0  0  0  0  0  0
   -4.4136    0.1813   11.9049 O   0  0  0  0  0  0  0  0  0  0  0  0
   -2.4572    1.6706   12.1240 O   0  0  0  0  0  0  0  0  0  0  0  0
   -4.1727    1.6352   13.8781 N   0  0  0  0  0  0  0  0  0  0  0  0
   -3.7758    2.5212   14.1909 H   0  0  0  0  0  0  0  0  0  0  0  0
   -3.7644    0.8709   14.4162 H   0  0  0  0  0  0  0  0  0  0  0  0
 10  8  2  0  0  0
  9  8  1  0  0  0
  8  3  1  0  0  0
  3  7  1  0  0  0
  3  4  2  0  0  0
  1  7  1  0  0  0
  1 11  1  0  0  0
  7  5  1  0  0  0
  4  2  1  0  0  0
 11 12  1  0  0  0
  5  2  2  0  0  0
  5  6  1  0  0  0
 12 14  1  0  0  0
 16 14  2  0  0  0
 17 14  1  0  0  0
 14 15  2  0  0  0
 12 13  1  0  0  0
 17 18  1  0  0  0
 17 19  1  0  0  0
M  CHG 1   8   1
M  CHG 1   9  -1
M  END
> <minimizedAffinity>
-6.03815

$$$$
4MO8_2VQ_A_302


 19 19  0  0  0  0  0  0  0  0999 V2000
   -6.2409    3.4060   15.3086 C   0  0  0  0  0  0  0  0  0  0  0  0
   -4.7887    0.3296   16.5609 N   0  0  0  0  0  0  0  0  0  0  0  0
   -4.6899    1.4599   14.6556 C   0  0  0  0  0  0  0  0  0  0  0  0
   -4.2923    0.3219   15.3053 C   0  0  0  0  0  0  0  0  0  0  0  0
   -5.4909    1.4412   16.6833 C   0  0  0  0  0  0  0  0  0  0  0  0
   -6.2720    1.8067   17.8750 C   0  0  0  0  0  0  0  0  0  0  0  0
   -5.4732    2.1729   15.5393 N   0  0  0  0  0  0  0  0  0  0  0  0
   -4.2915    1.8973   13.3741 N   0  0  0  0  0  0  0  0  0  0  0  0
   -5.1114    1.7749   12.4606 O   0  0  0  0  0  0  0  0  0  0  0  0
   -3.1519    2.3274   13.1995 O   0  0  0  0  0  0  0  0  0  0  0  0
   -5.4055    4.4871   14.7147 C   0  0  0  0  0  0  0  0  0  0  0  0
   -5.9011    4.8084   13.3590 N   0  0  0  0  0  0  0  0  0  0  0  0
   -6.7257    5.3985   13.4697 H   0  0  0  0  0  0  0  0  0  0  0  0
   -4.8972    5.5703   12.3426 S   0  0  0  0  0  0  0  0  0  0  0  0
   -3.7995    5.9186   13.1890 O   0  0  0  0  0  0  0  0  0  0  0  0
   -4.6658    4.7469   11.1964 O   0  0  0  0  0  0  0  0  0  0  0  0
   -5.6166    6.9110   11.8552 N   0  0  0  0  0  0  0  0  0  0  0  0
   -6.4026    6.6744   11.2497 H   0  0  0  0  0  0  0  0  0  0  0  0
   -4.9506    7.4857   11.3388 H   0  0  0  0  0  0  0  0  0  0  0  0
 10  8  2  0  0  0
  9  8  1  0  0  0
  8  3  1  0  0  0
  3  7  1  0  0  0
  3  4  2  0  0  0
  1  7  1  0  0  0
  1 11  1  0  0  0
  7  5  1  0  0  0
  4  2  1  0  0  0
 11 12  1  0  0  0
  5  2  2  0  0  0
  5  6  1  0  0  0
 12 14  1  0  0  0
 16 14  2  0  0  0
 17 14  1  0  0  0
 14 15  2  0  0  0
 12 13  1  0  0  0
 17 18  1  0  0  0
 17 19  1  0  0  0
M  CHG 1   8   1
M  CHG 1   9  -1
M  END
> <minimizedAffinity>
-5.96207

$$$$
4MO8_2VQ_A_302


 19 19  0  0  0  0  0  0  0  0999 V2000
   -4.3974    4.5073   12.1386 C   0  0  0  0  0  0  0  0  0  0  0  0
   -4.1061    1.5137   14.1621 N   0  0  0  0  0  0  0  0  0  0  0  0
   -4.3519    1.9387   11.9996 C   0  0  0  0  0  0  0  0  0  0  0  0
   -4.2715    0.9518   12.9456 C   0  0  0  0  0  0  0  0  0  0  0  0
   -4.0984    2.8211   13.9771 C   0  0  0  0  0  0  0  0  0  0  0  0
   -4.0215    3.8155   15.0584 C   0  0  0  0  0  0  0  0  0  0  0  0
   -4.2546    3.1421   12.6668 N   0  0  0  0  0  0  0  0  0  0  0  0
   -4.4044    1.7787   10.5982 N   0  0  0  0  0  0  0  0  0  0  0  0
   -4.4321    0.6231   10.1671 O   0  0  0  0  0  0  0  0  0  0  0  0
   -4.3690    2.7671    9.8661 O   0  0  0  0  0  0  0  0  0  0  0  0
   -3.0827    5.1891   11.9765 C   0  0  0  0  0  0  0  0  0  0  0  0
   -2.1563    4.3090   11.2322 N   0  0  0  0  0  0  0  0  0  0  0  0
   -1.9206    4.7844   10.3611 H   0  0  0  0  0  0  0  0  0  0  0  0
   -0.7636    3.8932   11.9454 S   0  0  0  0  0  0  0  0  0  0  0  0
   -0.8435    2.4666   11.9807 O   0  0  0  0  0  0  0  0  0  0  0  0
    0.3260    4.5183   11.2619 O   0  0  0  0  0  0  0  0  0  0  0  0
   -0.7948    4.4473   13.4436 N   0  0  0  0  0  0  0  0  0  0  0  0
   -0.7383    5.4656   13.4308 H   0  0  0  0  0  0  0  0  0  0  0  0
   -0.0022    4.0693   13.9625 H   0  0  0  0  0  0  0  0  0  0  0  0
 10  8  2  0  0  0
  9  8  1  0  0  0
  8  3  1  0  0  0
  3  7  1  0  0  0
  3  4  2  0  0  0
  1  7  1  0  0  0
  1 11  1  0  0  0
  7  5  1  0  0  0
  4  2  1  0  0  0
 11 12  1  0  0  0
  5  2  2  0  0  0
  5  6  1  0  0  0
 12 14  1  0  0  0
 16 14  2  0  0  0
 17 14  1  0  0  0
 14 15  2  0  0  0
 12 13  1  0  0  0
 17 18  1  0  0  0
 17 19  1  0  0  0
M  CHG 1   8   1
M  CHG 1   9  -1
M  END
> <minimizedAffinity>
-5.85557

$$$$
4MO8_2VQ_A_302


 19 19  0  0  0  0  0  0  0  0999 V2000
   -4.5213    3.0285   11.3211 C   0  0  0  0  0  0  0  0  0  0  0  0
   -4.2464    1.2055   14.4424 N   0  0  0  0  0  0  0  0  0  0  0  0
   -4.6095    3.3185   13.8760 C   0  0  0  0  0  0  0  0  0  0  0  0
   -4.4265    2.4545   14.9225 C   0  0  0  0  0  0  0  0  0  0  0  0
   -4.3020    1.2945   13.1261 C   0  0  0  0  0  0  0  0  0  0  0  0
   -4.0735    0.1712   12.2043 C   0  0  0  0  0  0  0  0  0  0  0  0
   -4.5150    2.5727   12.7195 N   0  0  0  0  0  0  0  0  0  0  0  0
   -4.9485    4.6870   13.9452 N   0  0  0  0  0  0  0  0  0  0  0  0
   -4.0234    5.4983   13.8568 O   0  0  0  0  0  0  0  0  0  0  0  0
   -6.1171    5.0204   14.1387 O   0  0  0  0  0  0  0  0  0  0  0  0
   -3.1449    3.1807   10.7718 C   0  0  0  0  0  0  0  0  0  0  0  0
   -2.4645    4.3083   11.4444 N   0  0  0  0  0  0  0  0  0  0  0  0
   -3.0993    4.6618   12.1603 H   0  0  0  0  0  0  0  0  0  0  0  0
   -1.0423    4.0199   12.1622 S   0  0  0  0  0  0  0  0  0  0  0  0
   -0.9005    2.6050   12.0192 O   0  0  0  0  0  0  0  0  0  0  0  0
   -0.0464    4.8844   11.6090 O   0  0  0  0  0  0  0  0  0  0  0  0
   -1.1963    4.3672   13.7141 N   0  0  0  0  0  0  0  0  0  0  0  0
   -1.2983    5.3756   13.8283 H   0  0  0  0  0  0  0  0  0  0  0  0
   -0.3677    4.0501   14.2173 H   0  0  0  0  0  0  0  0  0  0  0  0
 10  8  2  0  0  0
  9  8  1  0  0  0
  8  3  1  0  0  0
  3  7  1  0  0  0
  3  4  2  0  0  0
  1  7  1  0  0  0
  1 11  1  0  0  0
  7  5  1  0  0  0
  4  2  1  0  0  0
 11 12  1  0  0  0
  5  2  2  0  0  0
  5  6  1  0  0  0
 12 14  1  0  0  0
 16 14  2  0  0  0
 17 14  1  0  0  0
 14 15  2  0  0  0
 12 13  1  0  0  0
 17 18  1  0  0  0
 17 19  1  0  0  0
M  CHG 1   8   1
M  CHG 1   9  -1
M  END
> <minimizedAffinity>
-5.70897

$$$$
4MO8_2VQ_A_302


 19 19  0  0  0  0  0  0  0  0999 V2000
   -4.6816    3.7702   13.7452 C   0  0  0  0  0  0  0  0  0  0  0  0
   -4.2602    0.1782   13.4979 N   0  0  0  0  0  0  0  0  0  0  0  0
   -4.1817    1.8777   12.0755 C   0  0  0  0  0  0  0  0  0  0  0  0
   -4.1079    0.5159   12.1995 C   0  0  0  0  0  0  0  0  0  0  0  0
   -4.4389    1.3047   14.1633 C   0  0  0  0  0  0  0  0  0  0  0  0
   -4.7252    1.3853   15.6039 C   0  0  0  0  0  0  0  0  0  0  0  0
   -4.4090    2.3833   13.3387 N   0  0  0  0  0  0  0  0  0  0  0  0
   -3.9541    2.6447   10.9127 N   0  0  0  0  0  0  0  0  0  0  0  0
   -4.9398    3.1628   10.3818 O   0  0  0  0  0  0  0  0  0  0  0  0
   -2.8188    2.7290   10.4458 O   0  0  0  0  0  0  0  0  0  0  0  0
   -3.4568    4.4666   14.2293 C   0  0  0  0  0  0  0  0  0  0  0  0
   -3.0685    5.5161   13.2626 N   0  0  0  0  0  0  0  0  0  0  0  0
   -3.1114    6.4100   13.7521 H   0  0  0  0  0  0  0  0  0  0  0  0
   -1.6063    5.4139   12.5749 S   0  0  0  0  0  0  0  0  0  0  0  0
   -1.8962    5.6203   11.1907 O   0  0  0  0  0  0  0  0  0  0  0  0
   -0.7038    6.2998   13.2426 O   0  0  0  0  0  0  0  0  0  0  0  0
   -1.0746    3.9203   12.7720 N   0  0  0  0  0  0  0  0  0  0  0  0
   -0.8643    3.7614   13.7573 H   0  0  0  0  0  0  0  0  0  0  0  0
   -0.2291    3.7845   12.2177 H   0  0  0  0  0  0  0  0  0  0  0  0
 10  8  2  0  0  0
  9  8  1  0  0  0
  8  3  1  0  0  0
  3  7  1  0  0  0
  3  4  2  0  0  0
  1  7  1  0  0  0
  1 11  1  0  0  0
  7  5  1  0  0  0
  4  2  1  0  0  0
 11 12  1  0  0  0
  5  2  2  0  0  0
  5  6  1  0  0  0
 12 14  1  0  0  0
 16 14  2  0  0  0
 17 14  1  0  0  0
 14 15  2  0  0  0
 12 13  1  0  0  0
 17 18  1  0  0  0
 17 19  1  0  0  0
M  CHG 1   8   1
M  CHG 1   9  -1
M  END
> <minimizedAffinity>
-5.67631

$$$$
