2Q7Q_C2B_D_2002


 11 11  0  0  0  0  0  0  0  0999 V2000
   22.2000   15.8200   30.0789 C   0  0  0  0  0  0  0  0  0  0  0  0
   23.0853   16.8956   30.1603 C   0  0  0  0  0  0  0  0  0  0  0  0
   23.6506   17.4647   29.0189 C   0  0  0  0  0  0  0  0  0  0  0  0
   23.3260   17.0069   27.7529 C   0  0  0  0  0  0  0  0  0  0  0  0
   22.4552   15.9633   27.5727 C   0  0  0  0  0  0  0  0  0  0  0  0
   21.8269   15.3274   28.8441 C   0  0  0  0  0  0  0  0  0  0  0  0
   23.9967   17.7851   26.4083 Cl  0  0  0  0  0  0  0  0  0  0  0  0
   20.2885   15.7689   31.7674 N   0  0  0  0  0  0  0  0  0  0  0  0
   21.5811   15.2457   31.3003 C   0  0  0  0  0  0  0  0  0  0  0  0
   20.0049   15.2709   32.6112 H   0  0  0  0  0  0  0  0  0  0  0  0
   19.5850   15.6351   31.0410 H   0  0  0  0  0  0  0  0  0  0  0  0
  8  9  1  0  0  0
  9  1  1  0  0  0
  1  2  2  0  0  0
  1  6  1  0  0  0
  2  3  1  0  0  0
  3  4  2  0  0  0
  4  5  1  0  0  0
  4  7  1  0  0  0
  5  6  2  0  0  0
  8 10  1  0  0  0
  8 11  1  0  0  0
M  END
> <minimizedAffinity>
-6.62887

$$$$
2Q7Q_C2B_D_2002


 11 11  0  0  0  0  0  0  0  0999 V2000
   22.1631   15.8768   30.0451 C   0  0  0  0  0  0  0  0  0  0  0  0
   21.8576   15.3982   28.7704 C   0  0  0  0  0  0  0  0  0  0  0  0
   22.4257   15.9559   27.6247 C   0  0  0  0  0  0  0  0  0  0  0  0
   23.3471   16.9861   27.7096 C   0  0  0  0  0  0  0  0  0  0  0  0
   23.7196   17.5130   28.9194 C   0  0  0  0  0  0  0  0  0  0  0  0
   23.0852   16.8936   30.1958 C   0  0  0  0  0  0  0  0  0  0  0  0
   24.0475   17.5721   26.2850 Cl  0  0  0  0  0  0  0  0  0  0  0  0
   20.2714   15.7206   31.7493 N   0  0  0  0  0  0  0  0  0  0  0  0
   21.5756   15.2519   31.2570 C   0  0  0  0  0  0  0  0  0  0  0  0
   20.0127   15.1923   32.5827 H   0  0  0  0  0  0  0  0  0  0  0  0
   19.5654   15.5823   31.0263 H   0  0  0  0  0  0  0  0  0  0  0  0
  8  9  1  0  0  0
  9  1  1  0  0  0
  1  2  2  0  0  0
  1  6  1  0  0  0
  2  3  1  0  0  0
  3  4  2  0  0  0
  4  5  1  0  0  0
  4  7  1  0  0  0
  5  6  2  0  0  0
  8 10  1  0  0  0
  8 11  1  0  0  0
M  END
> <minimizedAffinity>
-6.55887

$$$$
2Q7Q_C2B_D_2002


 11 11  0  0  0  0  0  0  0  0999 V2000
   22.3153   15.5070   29.0672 C   0  0  0  0  0  0  0  0  0  0  0  0
   23.0351   16.3189   29.9448 C   0  0  0  0  0  0  0  0  0  0  0  0
   23.5434   17.5554   29.5460 C   0  0  0  0  0  0  0  0  0  0  0  0
   23.3214   18.0445   28.2696 C   0  0  0  0  0  0  0  0  0  0  0  0
   22.6140   17.3240   27.3420 C   0  0  0  0  0  0  0  0  0  0  0  0
   22.0495   15.9454   27.7851 C   0  0  0  0  0  0  0  0  0  0  0  0
   23.9094   19.5806   27.8720 Cl  0  0  0  0  0  0  0  0  0  0  0  0
   20.3388   14.1341   29.9132 N   0  0  0  0  0  0  0  0  0  0  0  0
   21.7527   14.2081   29.5154 C   0  0  0  0  0  0  0  0  0  0  0  0
   20.1136   13.1791   30.1920 H   0  0  0  0  0  0  0  0  0  0  0  0
   19.7495   14.4066   29.1265 H   0  0  0  0  0  0  0  0  0  0  0  0
  8  9  1  0  0  0
  9  1  1  0  0  0
  1  2  2  0  0  0
  1  6  1  0  0  0
  2  3  1  0  0  0
  3  4  2  0  0  0
  4  5  1  0  0  0
  4  7  1  0  0  0
  5  6  2  0  0  0
  8 10  1  0  0  0
  8 11  1  0  0  0
M  END
> <minimizedAffinity>
-6.34402

$$$$
2Q7Q_C2B_D_2002


 11 11  0  0  0  0  0  0  0  0999 V2000
   23.3216   17.2959   27.8204 C   0  0  0  0  0  0  0  0  0  0  0  0
   23.6682   17.5961   29.1384 C   0  0  0  0  0  0  0  0  0  0  0  0
   23.1690   16.8578   30.2116 C   0  0  0  0  0  0  0  0  0  0  0  0
   22.3356   15.7706   30.0086 C   0  0  0  0  0  0  0  0  0  0  0  0
   21.9508   15.3915   28.7484 C   0  0  0  0  0  0  0  0  0  0  0  0
   22.5050   16.2152   27.5525 C   0  0  0  0  0  0  0  0  0  0  0  0
   21.8191   14.8782   31.3503 Cl  0  0  0  0  0  0  0  0  0  0  0  0
   24.6999   17.3781   25.6754 N   0  0  0  0  0  0  0  0  0  0  0  0
   23.8866   18.0702   26.6865 C   0  0  0  0  0  0  0  0  0  0  0  0
   25.0088   18.0478   24.9708 H   0  0  0  0  0  0  0  0  0  0  0  0
   24.1416   16.6496   25.2305 H   0  0  0  0  0  0  0  0  0  0  0  0
  8  9  1  0  0  0
  9  1  1  0  0  0
  1  2  2  0  0  0
  1  6  1  0  0  0
  2  3  1  0  0  0
  3  4  2  0  0  0
  4  5  1  0  0  0
  4  7  1  0  0  0
  5  6  2  0  0  0
  8 10  1  0  0  0
  8 11  1  0  0  0
M  END
> <minimizedAffinity>
-6.29050

$$$$
2Q7Q_C2B_D_2002


 11 11  0  0  0  0  0  0  0  0999 V2000
   23.3516   17.1226   27.6995 C   0  0  0  0  0  0  0  0  0  0  0  0
   22.4780   16.0396   27.5934 C   0  0  0  0  0  0  0  0  0  0  0  0
   21.9883   15.3823   28.7224 C   0  0  0  0  0  0  0  0  0  0  0  0
   22.3220   15.8033   29.9987 C   0  0  0  0  0  0  0  0  0  0  0  0
   23.1632   16.8666   30.2027 C   0  0  0  0  0  0  0  0  0  0  0  0
   23.7108   17.5978   28.9453 C   0  0  0  0  0  0  0  0  0  0  0  0
   21.6406   15.0028   31.3247 Cl  0  0  0  0  0  0  0  0  0  0  0  0
   25.0489   17.3488   25.8086 N   0  0  0  0  0  0  0  0  0  0  0  0
   23.8387   17.8327   26.4899 C   0  0  0  0  0  0  0  0  0  0  0  0
   25.2458   17.9424   25.0029 H   0  0  0  0  0  0  0  0  0  0  0  0
   24.9024   16.3890   25.4962 H   0  0  0  0  0  0  0  0  0  0  0  0
  8  9  1  0  0  0
  9  1  1  0  0  0
  1  2  2  0  0  0
  1  6  1  0  0  0
  2  3  1  0  0  0
  3  4  2  0  0  0
  4  5  1  0  0  0
  4  7  1  0  0  0
  5  6  2  0  0  0
  8 10  1  0  0  0
  8 11  1  0  0  0
M  END
> <minimizedAffinity>
-6.20701

$$$$
2Q7Q_C2B_D_2002


 11 11  0  0  0  0  0  0  0  0999 V2000
   22.8534   16.3253   28.1538 C   0  0  0  0  0  0  0  0  0  0  0  0
   21.9779   15.2387   28.1507 C   0  0  0  0  0  0  0  0  0  0  0  0
   21.4382   14.7316   29.3331 C   0  0  0  0  0  0  0  0  0  0  0  0
   21.7221   15.3118   30.5580 C   0  0  0  0  0  0  0  0  0  0  0  0
   22.5612   16.3915   30.6592 C   0  0  0  0  0  0  0  0  0  0  0  0
   23.1644   16.9554   29.3425 C   0  0  0  0  0  0  0  0  0  0  0  0
   20.9819   14.6882   31.9460 Cl  0  0  0  0  0  0  0  0  0  0  0  0
   23.7275   18.3044   26.8023 N   0  0  0  0  0  0  0  0  0  0  0  0
   23.3941   16.8745   26.8847 C   0  0  0  0  0  0  0  0  0  0  0  0
   24.0838   18.5174   25.8706 H   0  0  0  0  0  0  0  0  0  0  0  0
   24.4393   18.5282   27.4978 H   0  0  0  0  0  0  0  0  0  0  0  0
  8  9  1  0  0  0
  9  1  1  0  0  0
  1  2  2  0  0  0
  1  6  1  0  0  0
  2  3  1  0  0  0
  3  4  2  0  0  0
  4  5  1  0  0  0
  4  7  1  0  0  0
  5  6  2  0  0  0
  8 10  1  0  0  0
  8 11  1  0  0  0
M  END
> <minimizedAffinity>
-5.76783

$$$$
