4HWS_1B3_A_702


 35 37  0  0  0  0  0  0  0  0999 V2000
   16.8029  -37.5864  -17.8602 C   0  0  0  0  0  0  0  0  0  0  0  0
   15.6411  -37.6957  -17.1196 C   0  0  0  0  0  0  0  0  0  0  0  0
   16.7560  -37.0871  -19.1774 C   0  0  0  0  0  0  0  0  0  0  0  0
   15.5206  -36.8344  -19.8030 C   0  0  0  0  0  0  0  0  0  0  0  0
   14.3510  -36.9899  -19.0344 C   0  0  0  0  0  0  0  0  0  0  0  0
   14.4058  -37.4162  -17.7007 C   0  0  0  0  0  0  0  0  0  0  0  0
   24.3271  -37.5122  -18.3274 Cl  0  0  0  0  0  0  0  0  0  0  0  0
   22.8804  -37.7314  -17.3535 C   0  0  0  0  0  0  0  0  0  0  0  0
   21.7109  -37.5970  -18.0194 N   0  0  0  0  0  0  0  0  0  0  0  0
   23.0190  -37.9790  -16.0296 N   0  0  0  0  0  0  0  0  0  0  0  0
   21.9603  -38.1252  -15.2643 C   0  0  0  0  0  0  0  0  0  0  0  0
   22.0977  -38.3646  -13.9460 N   0  0  0  0  0  0  0  0  0  0  0  0
   20.6231  -38.0257  -15.9246 C   0  0  0  0  0  0  0  0  0  0  0  0
   20.5559  -37.7539  -17.3618 C   0  0  0  0  0  0  0  0  0  0  0  0
   19.3086  -37.6312  -18.0020 C   0  0  0  0  0  0  0  0  0  0  0  0
   19.4436  -38.1709  -15.1936 C   0  0  0  0  0  0  0  0  0  0  0  0
   18.2166  -38.0716  -15.8518 C   0  0  0  0  0  0  0  0  0  0  0  0
   18.1524  -37.7951  -17.2316 C   0  0  0  0  0  0  0  0  0  0  0  0
   22.9959  -38.4232  -13.5473 H   0  0  0  0  0  0  0  0  0  0  0  0
   21.2998  -38.4810  -13.3811 H   0  0  0  0  0  0  0  0  0  0  0  0
   13.0304  -37.6054  -16.8445 S   0  0  0  0  0  0  0  0  0  0  0  0
   12.4710  -38.9029  -17.1690 O   0  0  0  0  0  0  0  0  0  0  0  0
   13.2990  -37.5136  -15.4612 O   0  0  0  0  0  0  0  0  0  0  0  0
   11.9411  -36.5465  -17.2808 N   0  0  0  0  0  0  0  0  0  0  0  0
   12.0394  -35.2635  -16.9103 C   0  0  0  0  0  0  0  0  0  0  0  0
   12.9695  -34.8557  -16.2146 O   0  0  0  0  0  0  0  0  0  0  0  0
   11.1788  -36.8345  -17.8332 H   0  0  0  0  0  0  0  0  0  0  0  0
   10.9386  -34.3614  -17.3750 C   0  0  0  0  0  0  0  0  0  0  0  0
   11.1389  -32.9962  -16.8790 N   0  0  0  0  0  0  0  0  0  0  0  0
   12.0176  -32.6278  -17.2430 H   0  0  0  0  0  0  0  0  0  0  0  0
   11.1707  -33.0061  -15.8596 H   0  0  0  0  0  0  0  0  0  0  0  0
   10.9366  -34.2677  -18.9026 C   0  0  0  0  0  0  0  0  0  0  0  0
   12.3826  -34.0622  -19.4141 C   0  0  0  0  0  0  0  0  0  0  0  0
   10.3596  -35.4710  -19.4387 O   0  0  0  0  0  0  0  0  0  0  0  0
   10.8826  -36.2359  -19.1520 H   0  0  0  0  0  0  0  0  0  0  0  0
 33 32  1  0  0  0
  4  3  2  0  0  0
  4  5  1  0  0  0
  3  1  1  0  0  0
  5  6  2  0  0  0
 34 32  1  0  0  0
 32 28  1  0  0  0
  7  8  1  0  0  0
  9  8  2  0  0  0
  9 14  1  0  0  0
 15 14  2  0  0  0
 15 18  1  0  0  0
  1 18  1  0  0  0
  1  2  2  0  0  0
  6  2  1  0  0  0
  6 21  1  0  0  0
 28 25  1  0  0  0
 28 29  1  0  0  0
  8 10  1  0  0  0
 14 13  1  0  0  0
 24 25  1  0  0  0
 24 21  1  0  0  0
 22 21  2  0  0  0
 18 17  2  0  0  0
 25 26  2  0  0  0
 21 23  2  0  0  0
 10 11  2  0  0  0
 13 11  1  0  0  0
 13 16  2  0  0  0
 17 16  1  0  0  0
 11 12  1  0  0  0
 12 19  1  0  0  0
 12 20  1  0  0  0
 24 27  1  0  0  0
 29 30  1  0  0  0
 29 31  1  0  0  0
 34 35  1  0  0  0
M  END
> <minimizedAffinity>
-13.61589

$$$$
4HWS_1B3_A_702


 35 37  0  0  0  0  0  0  0  0999 V2000
   16.6861  -37.5320  -17.8203 C   0  0  0  0  0  0  0  0  0  0  0  0
   15.5613  -37.3430  -17.0398 C   0  0  0  0  0  0  0  0  0  0  0  0
   16.6197  -37.3336  -19.2141 C   0  0  0  0  0  0  0  0  0  0  0  0
   15.3849  -37.0869  -19.8434 C   0  0  0  0  0  0  0  0  0  0  0  0
   14.2491  -36.9356  -19.0251 C   0  0  0  0  0  0  0  0  0  0  0  0
   14.3318  -37.0606  -17.6318 C   0  0  0  0  0  0  0  0  0  0  0  0
   24.2061  -37.5480  -18.3560 Cl  0  0  0  0  0  0  0  0  0  0  0  0
   22.7660  -37.7392  -17.3665 C   0  0  0  0  0  0  0  0  0  0  0  0
   21.5920  -37.5997  -18.0235 N   0  0  0  0  0  0  0  0  0  0  0  0
   22.9140  -37.9724  -16.0410 N   0  0  0  0  0  0  0  0  0  0  0  0
   21.8606  -38.0976  -15.2645 C   0  0  0  0  0  0  0  0  0  0  0  0
   22.0074  -38.3226  -13.9447 N   0  0  0  0  0  0  0  0  0  0  0  0
   20.5187  -37.9910  -15.9139 C   0  0  0  0  0  0  0  0  0  0  0  0
   20.4415  -37.7357  -17.3536 C   0  0  0  0  0  0  0  0  0  0  0  0
   19.1897  -37.6066  -17.9841 C   0  0  0  0  0  0  0  0  0  0  0  0
   19.3444  -38.1142  -15.1707 C   0  0  0  0  0  0  0  0  0  0  0  0
   18.1126  -38.0089  -15.8189 C   0  0  0  0  0  0  0  0  0  0  0  0
   18.0389  -37.7483  -17.2014 C   0  0  0  0  0  0  0  0  0  0  0  0
   22.9085  -38.3865  -13.5534 H   0  0  0  0  0  0  0  0  0  0  0  0
   21.2135  -38.4232  -13.3712 H   0  0  0  0  0  0  0  0  0  0  0  0
   12.9928  -36.8994  -16.7144 S   0  0  0  0  0  0  0  0  0  0  0  0
   13.0235  -35.5882  -16.0966 O   0  0  0  0  0  0  0  0  0  0  0  0
   11.8350  -37.0455  -17.5094 O   0  0  0  0  0  0  0  0  0  0  0  0
   12.9947  -37.9366  -15.5217 N   0  0  0  0  0  0  0  0  0  0  0  0
   11.8972  -38.1385  -14.7816 C   0  0  0  0  0  0  0  0  0  0  0  0
   10.8494  -37.5268  -14.9900 O   0  0  0  0  0  0  0  0  0  0  0  0
   13.8152  -38.4418  -15.3199 H   0  0  0  0  0  0  0  0  0  0  0  0
   12.0291  -39.1359  -13.6730 C   0  0  0  0  0  0  0  0  0  0  0  0
   11.0923  -40.2485  -13.8585 N   0  0  0  0  0  0  0  0  0  0  0  0
   11.3021  -40.7272  -14.7343 H   0  0  0  0  0  0  0  0  0  0  0  0
   10.1384  -39.8884  -13.8879 H   0  0  0  0  0  0  0  0  0  0  0  0
   13.4311  -39.7499  -13.6737 C   0  0  0  0  0  0  0  0  0  0  0  0
   13.6871  -40.4661  -12.3260 C   0  0  0  0  0  0  0  0  0  0  0  0
   13.5344  -40.6648  -14.7785 O   0  0  0  0  0  0  0  0  0  0  0  0
   12.8653  -41.3609  -14.6855 H   0  0  0  0  0  0  0  0  0  0  0  0
 33 32  1  0  0  0
  4  3  2  0  0  0
  4  5  1  0  0  0
  3  1  1  0  0  0
  5  6  2  0  0  0
 34 32  1  0  0  0
 32 28  1  0  0  0
  7  8  1  0  0  0
  9  8  2  0  0  0
  9 14  1  0  0  0
 15 14  2  0  0  0
 15 18  1  0  0  0
  1 18  1  0  0  0
  1  2  2  0  0  0
  6  2  1  0  0  0
  6 21  1  0  0  0
 28 25  1  0  0  0
 28 29  1  0  0  0
  8 10  1  0  0  0
 14 13  1  0  0  0
 24 25  1  0  0  0
 24 21  1  0  0  0
 22 21  2  0  0  0
 18 17  2  0  0  0
 25 26  2  0  0  0
 21 23  2  0  0  0
 10 11  2  0  0  0
 13 11  1  0  0  0
 13 16  2  0  0  0
 17 16  1  0  0  0
 11 12  1  0  0  0
 12 19  1  0  0  0
 12 20  1  0  0  0
 24 27  1  0  0  0
 29 30  1  0  0  0
 29 31  1  0  0  0
 34 35  1  0  0  0
M  END
> <minimizedAffinity>
-11.60795

$$$$
