4AV4_FVQ_A_201


 25 26  0  0  0  0  0  0  0  0999 V2000
  -15.0819    2.1767  -11.7534 C   0  0  0  0  0  0  0  0  0  0  0  0
  -13.6081    1.9193  -11.8154 O   0  0  0  0  0  0  0  0  0  0  0  0
  -15.7945    1.2705  -10.8022 C   0  0  0  0  0  0  0  0  0  0  0  0
  -17.2202    1.6312  -10.7592 O   0  0  0  0  0  0  0  0  0  0  0  0
  -15.5040   -0.1372  -11.0796 C   0  0  0  0  0  0  0  0  0  0  0  0
  -15.9669   -0.9564  -10.0496 O   0  0  0  0  0  0  0  0  0  0  0  0
  -14.0312   -0.3927  -11.2515 C   0  0  0  0  0  0  0  0  0  0  0  0
  -13.3982   -0.3184  -10.0196 O   0  0  0  0  0  0  0  0  0  0  0  0
  -13.3586    0.5792  -12.1670 C   0  0  0  0  0  0  0  0  0  0  0  0
  -17.6076    1.5243  -11.6420 H   0  0  0  0  0  0  0  0  0  0  0  0
  -15.5012   -0.7366   -9.2276 H   0  0  0  0  0  0  0  0  0  0  0  0
  -13.4943    0.5774   -9.6602 H   0  0  0  0  0  0  0  0  0  0  0  0
  -14.7808    3.9686  -10.0575 O   0  0  0  0  0  0  0  0  0  0  0  0
  -15.2250    3.5510  -11.3530 C   0  0  0  0  0  0  0  0  0  0  0  0
  -14.9491    4.9176   -9.9483 H   0  0  0  0  0  0  0  0  0  0  0  0
  -13.8359    0.3433  -13.4383 O   0  0  0  0  0  0  0  0  0  0  0  0
  -12.8472    0.2925  -14.4886 C   0  0  0  0  0  0  0  0  0  0  0  0
  -12.6501    1.6147  -15.0934 C   0  0  0  0  0  0  0  0  0  0  0  0
  -12.3942    2.6626  -15.6202 C   0  0  0  0  0  0  0  0  0  0  0  0
  -12.0366    3.9387  -16.3189 C   0  0  0  0  0  0  0  0  0  0  0  0
  -12.4395    4.0806  -17.6817 C   0  0  0  0  0  0  0  0  0  0  0  0
  -12.0915    5.2606  -18.3501 C   0  0  0  0  0  0  0  0  0  0  0  0
  -11.3840    6.2443  -17.6385 C   0  0  0  0  0  0  0  0  0  0  0  0
  -11.0132    6.0676  -16.3369 N   0  0  0  0  0  0  0  0  0  0  0  0
  -11.3316    4.9247  -15.6670 C   0  0  0  0  0  0  0  0  0  0  0  0
 13 14  1  0  0  0
 14  1  1  0  0  0
  1  2  1  0  0  0
  1  3  1  0  0  0
  2  9  1  0  0  0
  3  4  1  0  0  0
  3  5  1  0  0  0
  5  6  1  0  0  0
  5  7  1  0  0  0
  7  8  1  0  0  0
  7  9  1  0  0  0
  9 16  1  0  0  0
 16 17  1  0  0  0
 17 18  1  0  0  0
 18 19  3  0  0  0
 19 20  1  0  0  0
 20 21  1  0  0  0
 20 25  2  0  0  0
 21 22  2  0  0  0
 22 23  1  0  0  0
 23 24  2  0  0  0
 25 24  1  0  0  0
 13 15  1  0  0  0
  4 10  1  0  0  0
  6 11  1  0  0  0
  8 12  1  0  0  0
M  END
> <minimizedAffinity>
-8.27607

$$$$
4AV4_FVQ_A_201


 25 26  0  0  0  0  0  0  0  0999 V2000
  -14.8102    2.2831  -11.8842 C   0  0  0  0  0  0  0  0  0  0  0  0
  -13.3637    1.8993  -11.8342 O   0  0  0  0  0  0  0  0  0  0  0  0
  -15.6665    1.4554  -10.9812 C   0  0  0  0  0  0  0  0  0  0  0  0
  -17.0549    1.9376  -11.0474 O   0  0  0  0  0  0  0  0  0  0  0  0
  -15.4795    0.0240  -11.2246 C   0  0  0  0  0  0  0  0  0  0  0  0
  -16.0860   -0.7373  -10.2252 O   0  0  0  0  0  0  0  0  0  0  0  0
  -14.0257   -0.3594  -11.2843 C   0  0  0  0  0  0  0  0  0  0  0  0
  -13.4808   -0.3217  -10.0093 O   0  0  0  0  0  0  0  0  0  0  0  0
  -13.2060    0.5377  -12.1552 C   0  0  0  0  0  0  0  0  0  0  0  0
  -17.3842    1.8514  -11.9557 H   0  0  0  0  0  0  0  0  0  0  0  0
  -15.6646   -0.5463   -9.3727 H   0  0  0  0  0  0  0  0  0  0  0  0
  -13.5252    0.5843   -9.6655 H   0  0  0  0  0  0  0  0  0  0  0  0
  -14.9023    4.0341  -10.1227 O   0  0  0  0  0  0  0  0  0  0  0  0
  -14.8627    3.6703  -11.5068 C   0  0  0  0  0  0  0  0  0  0  0  0
  -14.9352    5.0003  -10.0431 H   0  0  0  0  0  0  0  0  0  0  0  0
  -13.6073    0.3250  -13.4565 O   0  0  0  0  0  0  0  0  0  0  0  0
  -12.6740    0.7250  -14.4823 C   0  0  0  0  0  0  0  0  0  0  0  0
  -13.3761    1.2225  -15.6708 C   0  0  0  0  0  0  0  0  0  0  0  0
  -13.8680    1.6934  -16.6593 C   0  0  0  0  0  0  0  0  0  0  0  0
  -14.4228    2.2930  -17.9152 C   0  0  0  0  0  0  0  0  0  0  0  0
  -13.5261    3.0314  -18.7462 C   0  0  0  0  0  0  0  0  0  0  0  0
  -14.0395    3.6140  -19.9113 C   0  0  0  0  0  0  0  0  0  0  0  0
  -15.4001    3.4236  -20.2064 C   0  0  0  0  0  0  0  0  0  0  0  0
  -16.2253    2.7142  -19.3826 N   0  0  0  0  0  0  0  0  0  0  0  0
  -15.7523    2.1453  -18.2385 C   0  0  0  0  0  0  0  0  0  0  0  0
 13 14  1  0  0  0
 14  1  1  0  0  0
  1  2  1  0  0  0
  1  3  1  0  0  0
  2  9  1  0  0  0
  3  4  1  0  0  0
  3  5  1  0  0  0
  5  6  1  0  0  0
  5  7  1  0  0  0
  7  8  1  0  0  0
  7  9  1  0  0  0
  9 16  1  0  0  0
 16 17  1  0  0  0
 17 18  1  0  0  0
 18 19  3  0  0  0
 19 20  1  0  0  0
 20 21  1  0  0  0
 20 25  2  0  0  0
 21 22  2  0  0  0
 22 23  1  0  0  0
 23 24  2  0  0  0
 25 24  1  0  0  0
 13 15  1  0  0  0
  4 10  1  0  0  0
  6 11  1  0  0  0
  8 12  1  0  0  0
M  END
> <minimizedAffinity>
-7.88455

$$$$
4AV4_FVQ_A_201


 25 26  0  0  0  0  0  0  0  0999 V2000
  -15.0493    2.1282  -11.7974 C   0  0  0  0  0  0  0  0  0  0  0  0
  -13.5787    1.8660  -11.9017 O   0  0  0  0  0  0  0  0  0  0  0  0
  -15.7310    1.2483  -10.8001 C   0  0  0  0  0  0  0  0  0  0  0  0
  -17.1540    1.6130  -10.7190 O   0  0  0  0  0  0  0  0  0  0  0  0
  -15.4517   -0.1668  -11.0507 C   0  0  0  0  0  0  0  0  0  0  0  0
  -15.8812   -0.9583   -9.9852 O   0  0  0  0  0  0  0  0  0  0  0  0
  -13.9858   -0.4298  -11.2649 C   0  0  0  0  0  0  0  0  0  0  0  0
  -13.3121   -0.3253  -10.0569 O   0  0  0  0  0  0  0  0  0  0  0  0
  -13.3428    0.5169  -12.2268 C   0  0  0  0  0  0  0  0  0  0  0  0
  -17.5707    1.4843  -11.5855 H   0  0  0  0  0  0  0  0  0  0  0  0
  -15.3881   -0.7185   -9.1851 H   0  0  0  0  0  0  0  0  0  0  0  0
  -13.3951    0.5796   -9.7177 H   0  0  0  0  0  0  0  0  0  0  0  0
  -14.9195    3.9198  -10.0797 O   0  0  0  0  0  0  0  0  0  0  0  0
  -15.1772    3.5126  -11.4279 C   0  0  0  0  0  0  0  0  0  0  0  0
  -15.0501    4.8778  -10.0007 H   0  0  0  0  0  0  0  0  0  0  0  0
  -13.8624    0.2495  -13.4751 O   0  0  0  0  0  0  0  0  0  0  0  0
  -13.3277    1.0290  -14.5659 C   0  0  0  0  0  0  0  0  0  0  0  0
  -14.1588    0.8959  -15.7678 C   0  0  0  0  0  0  0  0  0  0  0  0
  -14.8559    0.6870  -16.7224 C   0  0  0  0  0  0  0  0  0  0  0  0
  -15.7570    0.3814  -17.8797 C   0  0  0  0  0  0  0  0  0  0  0  0
  -16.5192   -0.8251  -17.8222 C   0  0  0  0  0  0  0  0  0  0  0  0
  -17.3481   -1.1306  -18.9084 C   0  0  0  0  0  0  0  0  0  0  0  0
  -17.3979   -0.2258  -19.9824 C   0  0  0  0  0  0  0  0  0  0  0  0
  -16.6491    0.9152  -20.0008 N   0  0  0  0  0  0  0  0  0  0  0  0
  -15.8278    1.2305  -18.9604 C   0  0  0  0  0  0  0  0  0  0  0  0
 13 14  1  0  0  0
 14  1  1  0  0  0
  1  2  1  0  0  0
  1  3  1  0  0  0
  2  9  1  0  0  0
  3  4  1  0  0  0
  3  5  1  0  0  0
  5  6  1  0  0  0
  5  7  1  0  0  0
  7  8  1  0  0  0
  7  9  1  0  0  0
  9 16  1  0  0  0
 16 17  1  0  0  0
 17 18  1  0  0  0
 18 19  3  0  0  0
 19 20  1  0  0  0
 20 21  1  0  0  0
 20 25  2  0  0  0
 21 22  2  0  0  0
 22 23  1  0  0  0
 23 24  2  0  0  0
 25 24  1  0  0  0
 13 15  1  0  0  0
  4 10  1  0  0  0
  6 11  1  0  0  0
  8 12  1  0  0  0
M  END
> <minimizedAffinity>
-7.57621

$$$$
4AV4_FVQ_A_201


 25 26  0  0  0  0  0  0  0  0999 V2000
  -15.2409    0.9329  -13.1237 C   0  0  0  0  0  0  0  0  0  0  0  0
  -14.7323    2.0802  -13.9405 O   0  0  0  0  0  0  0  0  0  0  0  0
  -15.8501    1.3620  -11.8281 C   0  0  0  0  0  0  0  0  0  0  0  0
  -16.3751    0.1833  -11.1211 O   0  0  0  0  0  0  0  0  0  0  0  0
  -14.9376    2.2095  -11.0585 C   0  0  0  0  0  0  0  0  0  0  0  0
  -15.5945    2.8021   -9.9799 O   0  0  0  0  0  0  0  0  0  0  0  0
  -14.3341    3.3049  -11.8951 C   0  0  0  0  0  0  0  0  0  0  0  0
  -15.2936    4.2704  -12.1616 O   0  0  0  0  0  0  0  0  0  0  0  0
  -13.7936    2.8281  -13.2049 C   0  0  0  0  0  0  0  0  0  0  0  0
  -15.6490   -0.4327  -10.9361 H   0  0  0  0  0  0  0  0  0  0  0  0
  -16.2974    3.3837  -10.3094 H   0  0  0  0  0  0  0  0  0  0  0  0
  -16.0132    3.8767  -12.6794 H   0  0  0  0  0  0  0  0  0  0  0  0
  -17.5925    0.2618  -13.5675 O   0  0  0  0  0  0  0  0  0  0  0  0
  -16.2121    0.2633  -13.9471 C   0  0  0  0  0  0  0  0  0  0  0  0
  -18.1084   -0.2293  -14.2259 H   0  0  0  0  0  0  0  0  0  0  0  0
  -12.6942    2.0423  -12.9335 O   0  0  0  0  0  0  0  0  0  0  0  0
  -11.7802    1.8285  -14.0300 C   0  0  0  0  0  0  0  0  0  0  0  0
  -11.7065    3.0114  -14.8951 C   0  0  0  0  0  0  0  0  0  0  0  0
  -11.5867    4.0242  -15.5282 C   0  0  0  0  0  0  0  0  0  0  0  0
  -11.3807    5.2983  -16.2890 C   0  0  0  0  0  0  0  0  0  0  0  0
  -11.8066    5.3297  -17.6518 C   0  0  0  0  0  0  0  0  0  0  0  0
  -11.5991    6.5087  -18.3778 C   0  0  0  0  0  0  0  0  0  0  0  0
  -11.0026    7.5983  -17.7208 C   0  0  0  0  0  0  0  0  0  0  0  0
  -10.6051    7.5259  -16.4171 N   0  0  0  0  0  0  0  0  0  0  0  0
  -10.7874    6.3870  -15.6917 C   0  0  0  0  0  0  0  0  0  0  0  0
 13 14  1  0  0  0
 14  1  1  0  0  0
  1  2  1  0  0  0
  1  3  1  0  0  0
  2  9  1  0  0  0
  3  4  1  0  0  0
  3  5  1  0  0  0
  5  6  1  0  0  0
  5  7  1  0  0  0
  7  8  1  0  0  0
  7  9  1  0  0  0
  9 16  1  0  0  0
 16 17  1  0  0  0
 17 18  1  0  0  0
 18 19  3  0  0  0
 19 20  1  0  0  0
 20 21  1  0  0  0
 20 25  2  0  0  0
 21 22  2  0  0  0
 22 23  1  0  0  0
 23 24  2  0  0  0
 25 24  1  0  0  0
 13 15  1  0  0  0
  4 10  1  0  0  0
  6 11  1  0  0  0
  8 12  1  0  0  0
M  END
> <minimizedAffinity>
-6.76208

$$$$
4AV4_FVQ_A_201


 25 26  0  0  0  0  0  0  0  0999 V2000
  -14.7573    2.2024  -11.8901 C   0  0  0  0  0  0  0  0  0  0  0  0
  -13.3180    1.8028  -11.7866 O   0  0  0  0  0  0  0  0  0  0  0  0
  -15.6520    1.4023  -10.9996 C   0  0  0  0  0  0  0  0  0  0  0  0
  -17.0316    1.8993  -11.1193 O   0  0  0  0  0  0  0  0  0  0  0  0
  -15.4749   -0.0356  -11.2098 C   0  0  0  0  0  0  0  0  0  0  0  0
  -16.1222   -0.7703  -10.2161 O   0  0  0  0  0  0  0  0  0  0  0  0
  -14.0248   -0.4370  -11.2156 C   0  0  0  0  0  0  0  0  0  0  0  0
  -13.5204   -0.3810   -9.9248 O   0  0  0  0  0  0  0  0  0  0  0  0
  -13.1669    0.4336  -12.0766 C   0  0  0  0  0  0  0  0  0  0  0  0
  -17.3329    1.7995  -12.0359 H   0  0  0  0  0  0  0  0  0  0  0  0
  -15.7259   -0.5678   -9.3543 H   0  0  0  0  0  0  0  0  0  0  0  0
  -13.5645    0.5318   -9.5997 H   0  0  0  0  0  0  0  0  0  0  0  0
  -14.9165    3.9875  -10.1680 O   0  0  0  0  0  0  0  0  0  0  0  0
  -14.8048    3.5972  -11.5410 C   0  0  0  0  0  0  0  0  0  0  0  0
  -14.9354    4.9554  -10.1075 H   0  0  0  0  0  0  0  0  0  0  0  0
  -13.5292    0.2006  -13.3858 O   0  0  0  0  0  0  0  0  0  0  0  0
  -12.4484    0.1189  -14.3389 C   0  0  0  0  0  0  0  0  0  0  0  0
  -12.7065   -0.9193  -15.3432 C   0  0  0  0  0  0  0  0  0  0  0  0
  -12.9905   -1.7042  -16.2059 C   0  0  0  0  0  0  0  0  0  0  0  0
  -13.3627   -2.6344  -17.3198 C   0  0  0  0  0  0  0  0  0  0  0  0
  -14.2471   -2.1390  -18.3259 C   0  0  0  0  0  0  0  0  0  0  0  0
  -14.6181   -3.0073  -19.3596 C   0  0  0  0  0  0  0  0  0  0  0  0
  -14.0855   -4.3077  -19.3595 C   0  0  0  0  0  0  0  0  0  0  0  0
  -13.2462   -4.7442  -18.3757 N   0  0  0  0  0  0  0  0  0  0  0  0
  -12.8775   -3.9218  -17.3539 C   0  0  0  0  0  0  0  0  0  0  0  0
 13 14  1  0  0  0
 14  1  1  0  0  0
  1  2  1  0  0  0
  1  3  1  0  0  0
  2  9  1  0  0  0
  3  4  1  0  0  0
  3  5  1  0  0  0
  5  6  1  0  0  0
  5  7  1  0  0  0
  7  8  1  0  0  0
  7  9  1  0  0  0
  9 16  1  0  0  0
 16 17  1  0  0  0
 17 18  1  0  0  0
 18 19  3  0  0  0
 19 20  1  0  0  0
 20 21  1  0  0  0
 20 25  2  0  0  0
 21 22  2  0  0  0
 22 23  1  0  0  0
 23 24  2  0  0  0
 25 24  1  0  0  0
 13 15  1  0  0  0
  4 10  1  0  0  0
  6 11  1  0  0  0
  8 12  1  0  0  0
M  END
> <minimizedAffinity>
-6.58871

$$$$
4AV4_FVQ_A_201


 25 26  0  0  0  0  0  0  0  0999 V2000
  -15.1761    1.4319  -12.1421 C   0  0  0  0  0  0  0  0  0  0  0  0
  -13.7691    1.0390  -11.8131 O   0  0  0  0  0  0  0  0  0  0  0  0
  -15.9317    0.3578  -12.8555 C   0  0  0  0  0  0  0  0  0  0  0  0
  -17.3150    0.8034  -13.0846 O   0  0  0  0  0  0  0  0  0  0  0  0
  -15.2114   -0.1111  -14.0406 C   0  0  0  0  0  0  0  0  0  0  0  0
  -15.7947   -1.2690  -14.5555 O   0  0  0  0  0  0  0  0  0  0  0  0
  -13.7655   -0.4082  -13.7490 C   0  0  0  0  0  0  0  0  0  0  0  0
  -13.6699   -1.5764  -13.0074 O   0  0  0  0  0  0  0  0  0  0  0  0
  -13.0754    0.6741  -12.9825 C   0  0  0  0  0  0  0  0  0  0  0  0
  -17.3105    1.6013  -13.6362 H   0  0  0  0  0  0  0  0  0  0  0  0
  -15.7356   -1.9804  -13.8988 H   0  0  0  0  0  0  0  0  0  0  0  0
  -14.1160   -1.4553  -12.1545 H   0  0  0  0  0  0  0  0  0  0  0  0
  -16.8976    0.9560  -10.4137 O   0  0  0  0  0  0  0  0  0  0  0  0
  -15.8010    1.7466  -10.8851 C   0  0  0  0  0  0  0  0  0  0  0  0
  -17.1999    1.2997   -9.5585 H   0  0  0  0  0  0  0  0  0  0  0  0
  -12.9761    1.7676  -13.8155 O   0  0  0  0  0  0  0  0  0  0  0  0
  -11.7058    2.4529  -13.8152 C   0  0  0  0  0  0  0  0  0  0  0  0
  -11.7063    3.5676  -14.7694 C   0  0  0  0  0  0  0  0  0  0  0  0
  -11.6176    4.4393  -15.5899 C   0  0  0  0  0  0  0  0  0  0  0  0
  -11.4749    5.4863  -16.6520 C   0  0  0  0  0  0  0  0  0  0  0  0
  -12.0232    5.1998  -17.9393 C   0  0  0  0  0  0  0  0  0  0  0  0
  -11.8763    6.1629  -18.9448 C   0  0  0  0  0  0  0  0  0  0  0  0
  -11.2164    7.3619  -18.6263 C   0  0  0  0  0  0  0  0  0  0  0  0
  -10.7021    7.5951  -17.3838 N   0  0  0  0  0  0  0  0  0  0  0  0
  -10.8236    6.6702  -16.3907 C   0  0  0  0  0  0  0  0  0  0  0  0
 13 14  1  0  0  0
 14  1  1  0  0  0
  1  2  1  0  0  0
  1  3  1  0  0  0
  2  9  1  0  0  0
  3  4  1  0  0  0
  3  5  1  0  0  0
  5  6  1  0  0  0
  5  7  1  0  0  0
  7  8  1  0  0  0
  7  9  1  0  0  0
  9 16  1  0  0  0
 16 17  1  0  0  0
 17 18  1  0  0  0
 18 19  3  0  0  0
 19 20  1  0  0  0
 20 21  1  0  0  0
 20 25  2  0  0  0
 21 22  2  0  0  0
 22 23  1  0  0  0
 23 24  2  0  0  0
 25 24  1  0  0  0
 13 15  1  0  0  0
  4 10  1  0  0  0
  6 11  1  0  0  0
  8 12  1  0  0  0
M  END
> <minimizedAffinity>
-6.53925

$$$$
4AV4_FVQ_A_201


 25 26  0  0  0  0  0  0  0  0999 V2000
  -14.3007   -0.7108  -11.9633 C   0  0  0  0  0  0  0  0  0  0  0  0
  -14.7507   -0.7102  -13.3915 O   0  0  0  0  0  0  0  0  0  0  0  0
  -15.3553   -0.2346  -11.0175 C   0  0  0  0  0  0  0  0  0  0  0  0
  -14.8513   -0.3248   -9.6382 O   0  0  0  0  0  0  0  0  0  0  0  0
  -15.8860    1.0705  -11.4153 C   0  0  0  0  0  0  0  0  0  0  0  0
  -17.0275    1.3919  -10.6807 O   0  0  0  0  0  0  0  0  0  0  0  0
  -16.2431    1.1200  -12.8761 C   0  0  0  0  0  0  0  0  0  0  0  0
  -17.3962    0.3820  -13.0994 O   0  0  0  0  0  0  0  0  0  0  0  0
  -15.1760    0.5769  -13.7713 C   0  0  0  0  0  0  0  0  0  0  0  0
  -14.0681    0.2395   -9.5426 H   0  0  0  0  0  0  0  0  0  0  0  0
  -17.7248    0.7437  -10.8665 H   0  0  0  0  0  0  0  0  0  0  0  0
  -17.2337   -0.5475  -12.8747 H   0  0  0  0  0  0  0  0  0  0  0  0
  -14.2408   -3.1138  -12.5955 O   0  0  0  0  0  0  0  0  0  0  0  0
  -13.9267   -2.0684  -11.6690 C   0  0  0  0  0  0  0  0  0  0  0  0
  -13.9216   -3.9610  -12.2474 H   0  0  0  0  0  0  0  0  0  0  0  0
  -14.1088    1.4472  -13.7123 O   0  0  0  0  0  0  0  0  0  0  0  0
  -12.9635    1.1032  -14.5206 C   0  0  0  0  0  0  0  0  0  0  0  0
  -12.4985    2.2581  -15.2971 C   0  0  0  0  0  0  0  0  0  0  0  0
  -12.1930    3.2596  -15.8842 C   0  0  0  0  0  0  0  0  0  0  0  0
  -11.8338    4.5438  -16.5672 C   0  0  0  0  0  0  0  0  0  0  0  0
  -12.2023    4.6872  -17.9396 C   0  0  0  0  0  0  0  0  0  0  0  0
  -11.8522    5.8749  -18.5929 C   0  0  0  0  0  0  0  0  0  0  0  0
  -11.1769    6.8643  -17.8582 C   0  0  0  0  0  0  0  0  0  0  0  0
  -10.8385    6.6860  -16.5480 N   0  0  0  0  0  0  0  0  0  0  0  0
  -11.1594    5.5357  -15.8922 C   0  0  0  0  0  0  0  0  0  0  0  0
 13 14  1  0  0  0
 14  1  1  0  0  0
  1  2  1  0  0  0
  1  3  1  0  0  0
  2  9  1  0  0  0
  3  4  1  0  0  0
  3  5  1  0  0  0
  5  6  1  0  0  0
  5  7  1  0  0  0
  7  8  1  0  0  0
  7  9  1  0  0  0
  9 16  1  0  0  0
 16 17  1  0  0  0
 17 18  1  0  0  0
 18 19  3  0  0  0
 19 20  1  0  0  0
 20 21  1  0  0  0
 20 25  2  0  0  0
 21 22  2  0  0  0
 22 23  1  0  0  0
 23 24  2  0  0  0
 25 24  1  0  0  0
 13 15  1  0  0  0
  4 10  1  0  0  0
  6 11  1  0  0  0
  8 12  1  0  0  0
M  END
> <minimizedAffinity>
-6.29956

$$$$
4AV4_FVQ_A_201


 25 26  0  0  0  0  0  0  0  0999 V2000
  -14.2088   -0.8660  -11.7482 C   0  0  0  0  0  0  0  0  0  0  0  0
  -14.5827   -0.6320  -13.1791 O   0  0  0  0  0  0  0  0  0  0  0  0
  -15.2877   -0.4761  -10.7904 C   0  0  0  0  0  0  0  0  0  0  0  0
  -14.8616   -0.7944   -9.4186 O   0  0  0  0  0  0  0  0  0  0  0  0
  -15.7341    0.9002  -11.0131 C   0  0  0  0  0  0  0  0  0  0  0  0
  -16.8960    1.1729  -10.2908 O   0  0  0  0  0  0  0  0  0  0  0  0
  -16.0113    1.1822  -12.4649 C   0  0  0  0  0  0  0  0  0  0  0  0
  -17.1848    0.5491  -12.8469 O   0  0  0  0  0  0  0  0  0  0  0  0
  -14.9256    0.7182  -13.3820 C   0  0  0  0  0  0  0  0  0  0  0  0
  -14.0586   -0.2939   -9.2051 H   0  0  0  0  0  0  0  0  0  0  0  0
  -17.6126    0.5980  -10.6021 H   0  0  0  0  0  0  0  0  0  0  0  0
  -17.0788   -0.4107  -12.7559 H   0  0  0  0  0  0  0  0  0  0  0  0
  -14.3141   -3.1649  -12.6871 O   0  0  0  0  0  0  0  0  0  0  0  0
  -13.9157   -2.2705  -11.6425 C   0  0  0  0  0  0  0  0  0  0  0  0
  -14.0423   -4.0680  -12.4606 H   0  0  0  0  0  0  0  0  0  0  0  0
  -13.8228    1.5107  -13.1465 O   0  0  0  0  0  0  0  0  0  0  0  0
  -13.7578    2.7457  -13.8906 C   0  0  0  0  0  0  0  0  0  0  0  0
  -14.0335    2.5204  -15.3140 C   0  0  0  0  0  0  0  0  0  0  0  0
  -14.3589    2.3157  -16.4512 C   0  0  0  0  0  0  0  0  0  0  0  0
  -14.8248    2.0787  -17.8552 C   0  0  0  0  0  0  0  0  0  0  0  0
  -14.0420    2.6337  -18.9131 C   0  0  0  0  0  0  0  0  0  0  0  0
  -14.4806    2.4362  -20.2280 C   0  0  0  0  0  0  0  0  0  0  0  0
  -15.6526    1.6885  -20.4331 C   0  0  0  0  0  0  0  0  0  0  0  0
  -16.3752    1.1787  -19.3935 N   0  0  0  0  0  0  0  0  0  0  0  0
  -15.9748    1.3649  -18.1045 C   0  0  0  0  0  0  0  0  0  0  0  0
 13 14  1  0  0  0
 14  1  1  0  0  0
  1  2  1  0  0  0
  1  3  1  0  0  0
  2  9  1  0  0  0
  3  4  1  0  0  0
  3  5  1  0  0  0
  5  6  1  0  0  0
  5  7  1  0  0  0
  7  8  1  0  0  0
  7  9  1  0  0  0
  9 16  1  0  0  0
 16 17  1  0  0  0
 17 18  1  0  0  0
 18 19  3  0  0  0
 19 20  1  0  0  0
 20 21  1  0  0  0
 20 25  2  0  0  0
 21 22  2  0  0  0
 22 23  1  0  0  0
 23 24  2  0  0  0
 25 24  1  0  0  0
 13 15  1  0  0  0
  4 10  1  0  0  0
  6 11  1  0  0  0
  8 12  1  0  0  0
M  END
> <minimizedAffinity>
-6.12990

$$$$
4AV4_FVQ_A_201


 25 26  0  0  0  0  0  0  0  0999 V2000
  -14.0456    2.4908  -13.1437 C   0  0  0  0  0  0  0  0  0  0  0  0
  -13.7243    1.0391  -13.3211 O   0  0  0  0  0  0  0  0  0  0  0  0
  -14.4437    2.8352  -11.7450 C   0  0  0  0  0  0  0  0  0  0  0  0
  -14.6816    4.2838  -11.6474 O   0  0  0  0  0  0  0  0  0  0  0  0
  -15.5321    1.9797  -11.2687 C   0  0  0  0  0  0  0  0  0  0  0  0
  -15.7290    2.1372   -9.8966 O   0  0  0  0  0  0  0  0  0  0  0  0
  -15.2716    0.5223  -11.5375 C   0  0  0  0  0  0  0  0  0  0  0  0
  -14.2885    0.0579  -10.6762 O   0  0  0  0  0  0  0  0  0  0  0  0
  -14.8196    0.2435  -12.9350 C   0  0  0  0  0  0  0  0  0  0  0  0
  -15.4012    4.5344  -12.2476 H   0  0  0  0  0  0  0  0  0  0  0  0
  -14.9312    1.8570   -9.4213 H   0  0  0  0  0  0  0  0  0  0  0  0
  -13.4601    0.5336  -10.8445 H   0  0  0  0  0  0  0  0  0  0  0  0
  -11.6777    2.4866  -13.8989 O   0  0  0  0  0  0  0  0  0  0  0  0
  -12.8581    3.2066  -13.5271 C   0  0  0  0  0  0  0  0  0  0  0  0
  -10.9745    3.1145  -14.1272 H   0  0  0  0  0  0  0  0  0  0  0  0
  -15.8865    0.4978  -13.7697 O   0  0  0  0  0  0  0  0  0  0  0  0
  -15.8495   -0.1450  -15.0615 C   0  0  0  0  0  0  0  0  0  0  0  0
  -15.5559    0.8222  -16.1251 C   0  0  0  0  0  0  0  0  0  0  0  0
  -15.2450    1.5446  -17.0320 C   0  0  0  0  0  0  0  0  0  0  0  0
  -14.8405    2.3940  -18.1980 C   0  0  0  0  0  0  0  0  0  0  0  0
  -15.8005    2.5886  -19.2374 C   0  0  0  0  0  0  0  0  0  0  0  0
  -15.4250    3.3631  -20.3417 C   0  0  0  0  0  0  0  0  0  0  0  0
  -14.1348    3.9197  -20.3560 C   0  0  0  0  0  0  0  0  0  0  0  0
  -13.2446    3.7055  -19.3437 N   0  0  0  0  0  0  0  0  0  0  0  0
  -13.5824    2.9481  -18.2627 C   0  0  0  0  0  0  0  0  0  0  0  0
 13 14  1  0  0  0
 14  1  1  0  0  0
  1  2  1  0  0  0
  1  3  1  0  0  0
  2  9  1  0  0  0
  3  4  1  0  0  0
  3  5  1  0  0  0
  5  6  1  0  0  0
  5  7  1  0  0  0
  7  8  1  0  0  0
  7  9  1  0  0  0
  9 16  1  0  0  0
 16 17  1  0  0  0
 17 18  1  0  0  0
 18 19  3  0  0  0
 19 20  1  0  0  0
 20 21  1  0  0  0
 20 25  2  0  0  0
 21 22  2  0  0  0
 22 23  1  0  0  0
 23 24  2  0  0  0
 25 24  1  0  0  0
 13 15  1  0  0  0
  4 10  1  0  0  0
  6 11  1  0  0  0
  8 12  1  0  0  0
M  END
> <minimizedAffinity>
-5.91406

$$$$
4AV4_FVQ_A_201


 25 26  0  0  0  0  0  0  0  0999 V2000
  -14.5923    0.3159  -14.2604 C   0  0  0  0  0  0  0  0  0  0  0  0
  -14.6831    1.8084  -14.3393 O   0  0  0  0  0  0  0  0  0  0  0  0
  -14.4749   -0.1897  -12.8589 C   0  0  0  0  0  0  0  0  0  0  0  0
  -14.4523   -1.6607  -12.8705 O   0  0  0  0  0  0  0  0  0  0  0  0
  -13.3729    0.4563  -12.1438 C   0  0  0  0  0  0  0  0  0  0  0  0
  -13.4228    0.1668  -10.7801 O   0  0  0  0  0  0  0  0  0  0  0  0
  -13.3887    1.9525  -12.3031 C   0  0  0  0  0  0  0  0  0  0  0  0
  -14.4266    2.4898  -11.5560 O   0  0  0  0  0  0  0  0  0  0  0  0
  -13.5678    2.4013  -13.7178 C   0  0  0  0  0  0  0  0  0  0  0  0
  -13.6855   -1.9683  -13.3788 H   0  0  0  0  0  0  0  0  0  0  0  0
  -14.2419    0.5247  -10.4033 H   0  0  0  0  0  0  0  0  0  0  0  0
  -15.2732    2.1562  -11.8919 H   0  0  0  0  0  0  0  0  0  0  0  0
  -15.9302   -1.5873  -15.1353 O   0  0  0  0  0  0  0  0  0  0  0  0
  -15.7876   -0.1848  -14.8849 C   0  0  0  0  0  0  0  0  0  0  0  0
  -16.7871   -1.7548  -15.5580 H   0  0  0  0  0  0  0  0  0  0  0  0
  -12.4241    2.0567  -14.4055 O   0  0  0  0  0  0  0  0  0  0  0  0
  -11.3160    2.9751  -14.2957 C   0  0  0  0  0  0  0  0  0  0  0  0
  -11.4046    4.0337  -15.3079 C   0  0  0  0  0  0  0  0  0  0  0  0
  -11.4498    4.8272  -16.2075 C   0  0  0  0  0  0  0  0  0  0  0  0
  -11.5201    5.7692  -17.3704 C   0  0  0  0  0  0  0  0  0  0  0  0
  -10.9351    7.0621  -17.2091 C   0  0  0  0  0  0  0  0  0  0  0  0
  -11.0145    7.9574  -18.2825 C   0  0  0  0  0  0  0  0  0  0  0  0
  -11.6465    7.5279  -19.4618 C   0  0  0  0  0  0  0  0  0  0  0  0
  -12.1977    6.2843  -19.5739 N   0  0  0  0  0  0  0  0  0  0  0  0
  -12.1420    5.3979  -18.5407 C   0  0  0  0  0  0  0  0  0  0  0  0
 13 14  1  0  0  0
 14  1  1  0  0  0
  1  2  1  0  0  0
  1  3  1  0  0  0
  2  9  1  0  0  0
  3  4  1  0  0  0
  3  5  1  0  0  0
  5  6  1  0  0  0
  5  7  1  0  0  0
  7  8  1  0  0  0
  7  9  1  0  0  0
  9 16  1  0  0  0
 16 17  1  0  0  0
 17 18  1  0  0  0
 18 19  3  0  0  0
 19 20  1  0  0  0
 20 21  1  0  0  0
 20 25  2  0  0  0
 21 22  2  0  0  0
 22 23  1  0  0  0
 23 24  2  0  0  0
 25 24  1  0  0  0
 13 15  1  0  0  0
  4 10  1  0  0  0
  6 11  1  0  0  0
  8 12  1  0  0  0
M  END
> <minimizedAffinity>
-5.82692

$$$$
