3QBC_B55_A_159


 17 18  0  0  0  0  0  0  0  0999 V2000
    0.7682   -1.3641   11.1890 O   0  0  0  0  0  0  0  0  0  0  0  0
    1.4326   -1.8917   12.0816 C   0  0  0  0  0  0  0  0  0  0  0  0
    1.7004   -1.3084   13.3930 C   0  0  0  0  0  0  0  0  0  0  0  0
    1.3385   -0.0834   13.9252 N   0  0  0  0  0  0  0  0  0  0  0  0
    2.0005   -3.1562   12.0347 N   0  0  0  0  0  0  0  0  0  0  0  0
    2.7414   -3.7879   13.0282 C   0  0  0  0  0  0  0  0  0  0  0  0
    3.2125   -5.0304   12.7643 N   0  0  0  0  0  0  0  0  0  0  0  0
    2.9575   -3.2759   14.2042 N   0  0  0  0  0  0  0  0  0  0  0  0
    2.4195   -2.0281   14.2687 C   0  0  0  0  0  0  0  0  0  0  0  0
    2.5162   -1.2271   15.4141 N   0  0  0  0  0  0  0  0  0  0  0  0
    1.8336   -0.1077   15.1409 C   0  0  0  0  0  0  0  0  0  0  0  0
    1.6808    1.1396   16.3672 S   0  0  0  0  0  0  0  0  0  0  0  0
    1.8636   -3.6650   11.2030 H   0  0  0  0  0  0  0  0  0  0  0  0
    3.0603   -5.4372   11.8808 H   0  0  0  0  0  0  0  0  0  0  0  0
    3.7071   -5.5265   13.4560 H   0  0  0  0  0  0  0  0  0  0  0  0
    2.9896   -1.4432   16.2499 H   0  0  0  0  0  0  0  0  0  0  0  0
    0.9527    2.1758   15.8716 H   0  0  0  0  0  0  0  0  0  0  0  0
  1  2  2  0  0  0
  2  3  1  0  0  0
  2  5  1  0  0  0
  3  4  1  0  0  0
  3  9  2  0  0  0
  4 11  2  0  0  0
  5  6  1  0  0  0
  6  7  1  0  0  0
  6  8  2  0  0  0
  8  9  1  0  0  0
  9 10  1  0  0  0
 10 11  1  0  0  0
 11 12  1  0  0  0
  5 13  1  0  0  0
  7 14  1  0  0  0
  7 15  1  0  0  0
 10 16  1  0  0  0
 12 17  1  0  0  0
M  END
> <minimizedAffinity>
-6.71080

$$$$
3QBC_B55_A_159


 17 18  0  0  0  0  0  0  0  0999 V2000
    2.8452   -3.0089   14.0148 O   0  0  0  0  0  0  0  0  0  0  0  0
    2.2494   -1.9850   14.3511 C   0  0  0  0  0  0  0  0  0  0  0  0
    1.5465   -1.0803   13.4460 C   0  0  0  0  0  0  0  0  0  0  0  0
    1.4078   -1.1110   12.0696 N   0  0  0  0  0  0  0  0  0  0  0  0
    2.0832   -1.5294   15.6505 N   0  0  0  0  0  0  0  0  0  0  0  0
    1.4041   -0.3887   16.0664 C   0  0  0  0  0  0  0  0  0  0  0  0
    1.3737   -0.1271   17.3953 N   0  0  0  0  0  0  0  0  0  0  0  0
    0.7583    0.4018   15.2603 N   0  0  0  0  0  0  0  0  0  0  0  0
    0.9183   -0.0192   13.9767 C   0  0  0  0  0  0  0  0  0  0  0  0
    0.3484    0.6549   12.8888 N   0  0  0  0  0  0  0  0  0  0  0  0
    0.6619   -0.0640   11.8031 C   0  0  0  0  0  0  0  0  0  0  0  0
    0.0760    0.4402   10.2266 S   0  0  0  0  0  0  0  0  0  0  0  0
    2.4928   -2.0757   16.3598 H   0  0  0  0  0  0  0  0  0  0  0  0
    1.8555   -0.7125   18.0234 H   0  0  0  0  0  0  0  0  0  0  0  0
    0.8699    0.6484   17.7329 H   0  0  0  0  0  0  0  0  0  0  0  0
   -0.1760    1.4877   12.9167 H   0  0  0  0  0  0  0  0  0  0  0  0
    0.5145   -0.4322    9.2799 H   0  0  0  0  0  0  0  0  0  0  0  0
  1  2  2  0  0  0
  2  3  1  0  0  0
  2  5  1  0  0  0
  3  4  1  0  0  0
  3  9  2  0  0  0
  4 11  2  0  0  0
  5  6  1  0  0  0
  6  7  1  0  0  0
  6  8  2  0  0  0
  8  9  1  0  0  0
  9 10  1  0  0  0
 10 11  1  0  0  0
 11 12  1  0  0  0
  5 13  1  0  0  0
  7 14  1  0  0  0
  7 15  1  0  0  0
 10 16  1  0  0  0
 12 17  1  0  0  0
M  END
> <minimizedAffinity>
-5.31218

$$$$
3QBC_B55_A_159


 17 18  0  0  0  0  0  0  0  0999 V2000
    0.4214   -1.1605   10.9162 O   0  0  0  0  0  0  0  0  0  0  0  0
    0.9554   -0.8075   11.9683 C   0  0  0  0  0  0  0  0  0  0  0  0
    1.0033    0.5613   12.4739 C   0  0  0  0  0  0  0  0  0  0  0  0
    0.5311    1.7411   11.9264 N   0  0  0  0  0  0  0  0  0  0  0  0
    1.5578   -1.6441   12.8962 N   0  0  0  0  0  0  0  0  0  0  0  0
    2.1546   -1.2818   14.0994 C   0  0  0  0  0  0  0  0  0  0  0  0
    2.6941   -2.2694   14.8537 N   0  0  0  0  0  0  0  0  0  0  0  0
    2.1741   -0.0650   14.5587 N   0  0  0  0  0  0  0  0  0  0  0  0
    1.5990    0.7762   13.6575 C   0  0  0  0  0  0  0  0  0  0  0  0
    1.4974    2.1562   13.8772 N   0  0  0  0  0  0  0  0  0  0  0  0
    0.8346    2.6503   12.8235 C   0  0  0  0  0  0  0  0  0  0  0  0
    0.4621    4.3648   12.7558 S   0  0  0  0  0  0  0  0  0  0  0  0
    1.5637   -2.6042   12.6784 H   0  0  0  0  0  0  0  0  0  0  0  0
    2.6901   -3.1976   14.5254 H   0  0  0  0  0  0  0  0  0  0  0  0
    3.0902   -2.0590   15.7301 H   0  0  0  0  0  0  0  0  0  0  0  0
    1.8429    2.6601   14.6492 H   0  0  0  0  0  0  0  0  0  0  0  0
   -0.2093    4.6377   11.6050 H   0  0  0  0  0  0  0  0  0  0  0  0
  1  2  2  0  0  0
  2  3  1  0  0  0
  2  5  1  0  0  0
  3  4  1  0  0  0
  3  9  2  0  0  0
  4 11  2  0  0  0
  5  6  1  0  0  0
  6  7  1  0  0  0
  6  8  2  0  0  0
  8  9  1  0  0  0
  9 10  1  0  0  0
 10 11  1  0  0  0
 11 12  1  0  0  0
  5 13  1  0  0  0
  7 14  1  0  0  0
  7 15  1  0  0  0
 10 16  1  0  0  0
 12 17  1  0  0  0
M  END
> <minimizedAffinity>
-5.10404

$$$$
3QBC_B55_A_159


 17 18  0  0  0  0  0  0  0  0999 V2000
    2.2725   -2.8480   12.9976 O   0  0  0  0  0  0  0  0  0  0  0  0
    1.6682   -1.7793   12.9026 C   0  0  0  0  0  0  0  0  0  0  0  0
    1.4945   -0.8080   13.9788 C   0  0  0  0  0  0  0  0  0  0  0  0
    1.8991   -0.8468   15.3015 N   0  0  0  0  0  0  0  0  0  0  0  0
    1.0913   -1.2700   11.7487 N   0  0  0  0  0  0  0  0  0  0  0  0
    0.4170   -0.0621   11.6024 C   0  0  0  0  0  0  0  0  0  0  0  0
   -0.0782    0.2348   10.3768 N   0  0  0  0  0  0  0  0  0  0  0  0
    0.2852    0.8120   12.5566 N   0  0  0  0  0  0  0  0  0  0  0  0
    0.8333    0.3274   13.7034 C   0  0  0  0  0  0  0  0  0  0  0  0
    0.8202    1.0481   14.9048 N   0  0  0  0  0  0  0  0  0  0  0  0
    1.4887    0.2998   15.7919 C   0  0  0  0  0  0  0  0  0  0  0  0
    1.7325    0.8963   17.4252 S   0  0  0  0  0  0  0  0  0  0  0  0
    1.1678   -1.8271   10.9406 H   0  0  0  0  0  0  0  0  0  0  0  0
    0.0105   -0.4123    9.6401 H   0  0  0  0  0  0  0  0  0  0  0  0
   -0.5269    1.0975   10.2229 H   0  0  0  0  0  0  0  0  0  0  0  0
    0.4043    1.9260   15.0644 H   0  0  0  0  0  0  0  0  0  0  0  0
    2.4307   -0.0231   18.1441 H   0  0  0  0  0  0  0  0  0  0  0  0
  1  2  2  0  0  0
  2  3  1  0  0  0
  2  5  1  0  0  0
  3  4  1  0  0  0
  3  9  2  0  0  0
  4 11  2  0  0  0
  5  6  1  0  0  0
  6  7  1  0  0  0
  6  8  2  0  0  0
  8  9  1  0  0  0
  9 10  1  0  0  0
 10 11  1  0  0  0
 11 12  1  0  0  0
  5 13  1  0  0  0
  7 14  1  0  0  0
  7 15  1  0  0  0
 10 16  1  0  0  0
 12 17  1  0  0  0
M  END
> <minimizedAffinity>
-4.98798

$$$$
3QBC_B55_A_159


 17 18  0  0  0  0  0  0  0  0999 V2000
    1.1004   -2.1646   11.5396 O   0  0  0  0  0  0  0  0  0  0  0  0
    0.9826   -0.9399   11.5912 C   0  0  0  0  0  0  0  0  0  0  0  0
    1.0874   -0.1310   12.8021 C   0  0  0  0  0  0  0  0  0  0  0  0
    1.2924   -0.5029   14.1191 N   0  0  0  0  0  0  0  0  0  0  0  0
    0.7875   -0.0945   10.5091 N   0  0  0  0  0  0  0  0  0  0  0  0
    0.6667    1.2912   10.5294 C   0  0  0  0  0  0  0  0  0  0  0  0
    0.4701    1.9205    9.3460 N   0  0  0  0  0  0  0  0  0  0  0  0
    0.7849    2.0110   11.6064 N   0  0  0  0  0  0  0  0  0  0  0  0
    0.9644    1.2005   12.6841 C   0  0  0  0  0  0  0  0  0  0  0  0
    1.1024    1.7012   13.9853 N   0  0  0  0  0  0  0  0  0  0  0  0
    1.3164    0.6371   14.7699 C   0  0  0  0  0  0  0  0  0  0  0  0
    1.5913    0.8647   16.4891 S   0  0  0  0  0  0  0  0  0  0  0  0
    0.7277   -0.5243    9.6254 H   0  0  0  0  0  0  0  0  0  0  0  0
    0.3780    1.3952    8.5184 H   0  0  0  0  0  0  0  0  0  0  0  0
    0.4195    2.9032    9.3135 H   0  0  0  0  0  0  0  0  0  0  0  0
    1.0524    2.6435   14.2658 H   0  0  0  0  0  0  0  0  0  0  0  0
    1.7836   -0.3443   17.0814 H   0  0  0  0  0  0  0  0  0  0  0  0
  1  2  2  0  0  0
  2  3  1  0  0  0
  2  5  1  0  0  0
  3  4  1  0  0  0
  3  9  2  0  0  0
  4 11  2  0  0  0
  5  6  1  0  0  0
  6  7  1  0  0  0
  6  8  2  0  0  0
  8  9  1  0  0  0
  9 10  1  0  0  0
 10 11  1  0  0  0
 11 12  1  0  0  0
  5 13  1  0  0  0
  7 14  1  0  0  0
  7 15  1  0  0  0
 10 16  1  0  0  0
 12 17  1  0  0  0
M  END
> <minimizedAffinity>
-4.69772

$$$$
3QBC_B55_A_159


 17 18  0  0  0  0  0  0  0  0999 V2000
    3.5729    2.7452   12.0717 O   0  0  0  0  0  0  0  0  0  0  0  0
    2.5593    2.0701   11.8894 C   0  0  0  0  0  0  0  0  0  0  0  0
    1.7868    1.4059   12.9352 C   0  0  0  0  0  0  0  0  0  0  0  0
    1.9962    1.3324   14.3010 N   0  0  0  0  0  0  0  0  0  0  0  0
    1.9284    1.8611   10.6720 N   0  0  0  0  0  0  0  0  0  0  0  0
    0.7759    1.1196   10.4330 C   0  0  0  0  0  0  0  0  0  0  0  0
    0.3357    1.0402    9.1543 N   0  0  0  0  0  0  0  0  0  0  0  0
    0.0764    0.5495   11.3698 N   0  0  0  0  0  0  0  0  0  0  0  0
    0.6844    0.7309   12.5731 C   0  0  0  0  0  0  0  0  0  0  0  0
    0.1641    0.2071   13.7638 N   0  0  0  0  0  0  0  0  0  0  0  0
    0.9805    0.6256   14.7395 C   0  0  0  0  0  0  0  0  0  0  0  0
    0.6273    0.2090   16.4082 S   0  0  0  0  0  0  0  0  0  0  0  0
    2.3437    2.2862    9.8871 H   0  0  0  0  0  0  0  0  0  0  0  0
    0.8495    1.4645    8.4296 H   0  0  0  0  0  0  0  0  0  0  0  0
   -0.4980    0.5582    8.9497 H   0  0  0  0  0  0  0  0  0  0  0  0
   -0.6385   -0.3544   13.8631 H   0  0  0  0  0  0  0  0  0  0  0  0
    1.5832    0.7364   17.2192 H   0  0  0  0  0  0  0  0  0  0  0  0
  1  2  2  0  0  0
  2  3  1  0  0  0
  2  5  1  0  0  0
  3  4  1  0  0  0
  3  9  2  0  0  0
  4 11  2  0  0  0
  5  6  1  0  0  0
  6  7  1  0  0  0
  6  8  2  0  0  0
  8  9  1  0  0  0
  9 10  1  0  0  0
 10 11  1  0  0  0
 11 12  1  0  0  0
  5 13  1  0  0  0
  7 14  1  0  0  0
  7 15  1  0  0  0
 10 16  1  0  0  0
 12 17  1  0  0  0
M  END
> <minimizedAffinity>
-4.65326

$$$$
3QBC_B55_A_159


 17 18  0  0  0  0  0  0  0  0999 V2000
    1.4055    3.2138   14.4145 O   0  0  0  0  0  0  0  0  0  0  0  0
    1.3773    2.0087   14.1629 C   0  0  0  0  0  0  0  0  0  0  0  0
    1.1479    1.4258   12.8440 C   0  0  0  0  0  0  0  0  0  0  0  0
    0.8826    2.0278   11.6267 N   0  0  0  0  0  0  0  0  0  0  0  0
    1.6141    0.9827   15.0657 N   0  0  0  0  0  0  0  0  0  0  0  0
    1.6063   -0.3851   14.8126 C   0  0  0  0  0  0  0  0  0  0  0  0
    1.8571   -1.2163   15.8526 N   0  0  0  0  0  0  0  0  0  0  0  0
    1.4259   -0.9004   13.6320 N   0  0  0  0  0  0  0  0  0  0  0  0
    1.1786    0.0885   12.7312 C   0  0  0  0  0  0  0  0  0  0  0  0
    0.9263   -0.1741   11.3783 N   0  0  0  0  0  0  0  0  0  0  0  0
    0.7863    1.0208   10.7898 C   0  0  0  0  0  0  0  0  0  0  0  0
    0.5046    1.1107    9.0591 S   0  0  0  0  0  0  0  0  0  0  0  0
    1.8102    1.2536   15.9917 H   0  0  0  0  0  0  0  0  0  0  0  0
    1.9967   -0.8477   16.7547 H   0  0  0  0  0  0  0  0  0  0  0  0
    1.8998   -2.1889   15.7062 H   0  0  0  0  0  0  0  0  0  0  0  0
    0.8645   -1.0573   10.9479 H   0  0  0  0  0  0  0  0  0  0  0  0
    0.3949    2.4136    8.6848 H   0  0  0  0  0  0  0  0  0  0  0  0
  1  2  2  0  0  0
  2  3  1  0  0  0
  2  5  1  0  0  0
  3  4  1  0  0  0
  3  9  2  0  0  0
  4 11  2  0  0  0
  5  6  1  0  0  0
  6  7  1  0  0  0
  6  8  2  0  0  0
  8  9  1  0  0  0
  9 10  1  0  0  0
 10 11  1  0  0  0
 11 12  1  0  0  0
  5 13  1  0  0  0
  7 14  1  0  0  0
  7 15  1  0  0  0
 10 16  1  0  0  0
 12 17  1  0  0  0
M  END
> <minimizedAffinity>
-4.51426

$$$$
3QBC_B55_A_159


 17 18  0  0  0  0  0  0  0  0999 V2000
   -0.2969    0.4078   14.6764 O   0  0  0  0  0  0  0  0  0  0  0  0
    0.7003    0.9601   14.2103 C   0  0  0  0  0  0  0  0  0  0  0  0
    0.9669    1.1640   12.7894 C   0  0  0  0  0  0  0  0  0  0  0  0
    0.2427    0.7840   11.6732 N   0  0  0  0  0  0  0  0  0  0  0  0
    1.7252    1.5419   14.9415 N   0  0  0  0  0  0  0  0  0  0  0  0
    2.8551    2.1867   14.4487 C   0  0  0  0  0  0  0  0  0  0  0  0
    3.7397    2.6774   15.3499 N   0  0  0  0  0  0  0  0  0  0  0  0
    3.0777    2.3883   13.1831 N   0  0  0  0  0  0  0  0  0  0  0  0
    2.0898    1.8139   12.4450 C   0  0  0  0  0  0  0  0  0  0  0  0
    2.0785    1.8548   11.0447 N   0  0  0  0  0  0  0  0  0  0  0  0
    0.9461    1.2479   10.6664 C   0  0  0  0  0  0  0  0  0  0  0  0
    0.5435    1.1420    8.9607 S   0  0  0  0  0  0  0  0  0  0  0  0
    1.6439    1.4930   15.9214 H   0  0  0  0  0  0  0  0  0  0  0  0
    3.5907    2.5365   16.3128 H   0  0  0  0  0  0  0  0  0  0  0  0
    4.5314    3.1750   15.0419 H   0  0  0  0  0  0  0  0  0  0  0  0
    2.7636    2.2494   10.4580 H   0  0  0  0  0  0  0  0  0  0  0  0
   -0.6409    0.4897    8.8141 H   0  0  0  0  0  0  0  0  0  0  0  0
  1  2  2  0  0  0
  2  3  1  0  0  0
  2  5  1  0  0  0
  3  4  1  0  0  0
  3  9  2  0  0  0
  4 11  2  0  0  0
  5  6  1  0  0  0
  6  7  1  0  0  0
  6  8  2  0  0  0
  8  9  1  0  0  0
  9 10  1  0  0  0
 10 11  1  0  0  0
 11 12  1  0  0  0
  5 13  1  0  0  0
  7 14  1  0  0  0
  7 15  1  0  0  0
 10 16  1  0  0  0
 12 17  1  0  0  0
M  END
> <minimizedAffinity>
-4.48749

$$$$
3QBC_B55_A_159


 17 18  0  0  0  0  0  0  0  0999 V2000
    4.1698    3.6618   11.6683 O   0  0  0  0  0  0  0  0  0  0  0  0
    3.5039    2.7835   12.2176 C   0  0  0  0  0  0  0  0  0  0  0  0
    3.8403    2.1337   13.4810 C   0  0  0  0  0  0  0  0  0  0  0  0
    4.9345    2.2932   14.3129 N   0  0  0  0  0  0  0  0  0  0  0  0
    2.2863    2.2883   11.7749 N   0  0  0  0  0  0  0  0  0  0  0  0
    1.5015    1.3106   12.3777 C   0  0  0  0  0  0  0  0  0  0  0  0
    0.3433    0.9698   11.7631 N   0  0  0  0  0  0  0  0  0  0  0  0
    1.7917    0.7512   13.5155 N   0  0  0  0  0  0  0  0  0  0  0  0
    2.9904    1.2132   13.9630 C   0  0  0  0  0  0  0  0  0  0  0  0
    3.5668    0.7689   15.1602 N   0  0  0  0  0  0  0  0  0  0  0  0
    4.6983    1.4701   15.3081 C   0  0  0  0  0  0  0  0  0  0  0  0
    5.6910    1.2291   16.7360 S   0  0  0  0  0  0  0  0  0  0  0  0
    1.9376    2.6727   10.9384 H   0  0  0  0  0  0  0  0  0  0  0  0
    0.1039    1.3810   10.9012 H   0  0  0  0  0  0  0  0  0  0  0  0
   -0.2590    0.3110   12.1783 H   0  0  0  0  0  0  0  0  0  0  0  0
    3.2122    0.0812   15.7689 H   0  0  0  0  0  0  0  0  0  0  0  0
    6.7808    2.0401   16.6727 H   0  0  0  0  0  0  0  0  0  0  0  0
  1  2  2  0  0  0
  2  3  1  0  0  0
  2  5  1  0  0  0
  3  4  1  0  0  0
  3  9  2  0  0  0
  4 11  2  0  0  0
  5  6  1  0  0  0
  6  7  1  0  0  0
  6  8  2  0  0  0
  8  9  1  0  0  0
  9 10  1  0  0  0
 10 11  1  0  0  0
 11 12  1  0  0  0
  5 13  1  0  0  0
  7 14  1  0  0  0
  7 15  1  0  0  0
 10 16  1  0  0  0
 12 17  1  0  0  0
M  END
> <minimizedAffinity>
-4.34685

$$$$
3QBC_B55_A_159


 17 18  0  0  0  0  0  0  0  0999 V2000
    0.0534    0.1770   11.1774 O   0  0  0  0  0  0  0  0  0  0  0  0
    0.8118    0.8697   11.8569 C   0  0  0  0  0  0  0  0  0  0  0  0
    0.8095    0.9444   13.3150 C   0  0  0  0  0  0  0  0  0  0  0  0
   -0.0098    0.3325   14.2473 N   0  0  0  0  0  0  0  0  0  0  0  0
    1.8438    1.6608   11.3743 N   0  0  0  0  0  0  0  0  0  0  0  0
    2.7275    2.4412   12.1126 C   0  0  0  0  0  0  0  0  0  0  0  0
    3.6611    3.1468   11.4301 N   0  0  0  0  0  0  0  0  0  0  0  0
    2.7386    2.4866   13.4125 N   0  0  0  0  0  0  0  0  0  0  0  0
    1.7249    1.7269   13.9082 C   0  0  0  0  0  0  0  0  0  0  0  0
    1.4813    1.6041   15.2824 N   0  0  0  0  0  0  0  0  0  0  0  0
    0.4591    0.7470   15.4014 C   0  0  0  0  0  0  0  0  0  0  0  0
   -0.1146    0.2930   16.9975 S   0  0  0  0  0  0  0  0  0  0  0  0
    1.9648    1.6711   10.3973 H   0  0  0  0  0  0  0  0  0  0  0  0
    3.6710    3.1267   10.4458 H   0  0  0  0  0  0  0  0  0  0  0  0
    4.3296    3.6796   11.9183 H   0  0  0  0  0  0  0  0  0  0  0  0
    1.9634    2.0560   16.0121 H   0  0  0  0  0  0  0  0  0  0  0  0
   -1.1504   -0.5798   16.8756 H   0  0  0  0  0  0  0  0  0  0  0  0
  1  2  2  0  0  0
  2  3  1  0  0  0
  2  5  1  0  0  0
  3  4  1  0  0  0
  3  9  2  0  0  0
  4 11  2  0  0  0
  5  6  1  0  0  0
  6  7  1  0  0  0
  6  8  2  0  0  0
  8  9  1  0  0  0
  9 10  1  0  0  0
 10 11  1  0  0  0
 11 12  1  0  0  0
  5 13  1  0  0  0
  7 14  1  0  0  0
  7 15  1  0  0  0
 10 16  1  0  0  0
 12 17  1  0  0  0
M  END
> <minimizedAffinity>
-4.08718

$$$$
