2Y5H_Y5H_A_1244


 31 35  0  0  0  0  0  0  0  0999 V2000
   -3.3374   12.8896   23.0637 C   0  0  0  0  0  0  0  0  0  0  0  0
   -4.7337   12.9081   23.5738 N   0  0  0  0  0  0  0  0  0  0  0  0
   -5.4858   13.5387   22.4754 C   0  0  0  0  0  0  0  0  0  0  0  0
   -5.2404   15.0494   22.6363 C   0  0  0  0  0  0  0  0  0  0  0  0
   -5.0462   15.2175   24.1526 C   0  0  0  0  0  0  0  0  0  0  0  0
   -4.9198   13.8012   24.7454 C   0  0  0  0  0  0  0  0  0  0  0  0
   -4.9396   12.9491   21.1793 C   0  0  0  0  0  0  0  0  0  0  0  0
   -3.5311   12.4335   21.5780 C   0  0  0  0  0  0  0  0  0  0  0  0
   -3.6446   10.9343   21.3392 C   0  0  0  0  0  0  0  0  0  0  0  0
   -2.7821   10.0825   21.4717 O   0  0  0  0  0  0  0  0  0  0  0  0
   -5.7280   11.7328   20.7659 C   0  0  0  0  0  0  0  0  0  0  0  0
   -6.8826   11.6563   20.3449 O   0  0  0  0  0  0  0  0  0  0  0  0
   -4.9424   10.5765   20.9386 N   0  0  0  0  0  0  0  0  0  0  0  0
   -1.8137   10.3783   25.1192 C   0  0  0  0  0  0  0  0  0  0  0  0
   -2.8939   11.0342   24.7460 N   0  0  0  0  0  0  0  0  0  0  0  0
   -0.6623   10.8461   24.5740 O   0  0  0  0  0  0  0  0  0  0  0  0
   -1.1136   11.8260   23.7042 C   0  0  0  0  0  0  0  0  0  0  0  0
   -2.4409   11.9313   23.8055 C   0  0  0  0  0  0  0  0  0  0  0  0
   -0.4518    5.9131   28.0975 Cl  0  0  0  0  0  0  0  0  0  0  0  0
   -1.1721    7.3976   27.5132 C   0  0  0  0  0  0  0  0  0  0  0  0
   -2.2228    8.0894   28.0582 C   0  0  0  0  0  0  0  0  0  0  0  0
   -2.5439    9.2200   27.2718 C   0  0  0  0  0  0  0  0  0  0  0  0
   -0.4863    8.1541   26.1037 S   0  0  0  0  0  0  0  0  0  0  0  0
   -1.6897    9.4008   26.1901 C   0  0  0  0  0  0  0  0  0  0  0  0
   -5.3553    9.1953   20.6425 C   0  0  0  0  0  0  0  0  0  0  0  0
   -5.1446    8.8792   19.1552 C   0  0  0  0  0  0  0  0  0  0  0  0
   -5.2643    7.3455   19.0645 C   0  0  0  0  0  0  0  0  0  0  0  0
   -6.3906    6.8709   18.1679 N   0  0  0  0  0  0  0  0  0  0  0  0
   -6.4907    5.3728   18.2215 C   0  0  0  0  0  0  0  0  0  0  0  0
   -5.9845    7.2360   16.7588 C   0  0  0  0  0  0  0  0  0  0  0  0
   -7.7102    7.4713   18.5160 C   0  0  0  0  0  0  0  0  0  0  0  0
  1  8  1  0  0  0
  1  2  1  0  0  0
  1 18  1  0  0  0
 23 24  1  0  0  0
 23 20  1  0  0  0
 19 20  1  0  0  0
  8  7  1  0  0  0
  8  9  1  0  0  0
  2  3  1  0  0  0
  2  6  1  0  0  0
 18 17  2  0  0  0
 18 15  1  0  0  0
  7  3  1  0  0  0
  7 11  1  0  0  0
  9 13  1  0  0  0
  9 10  2  0  0  0
  3  4  1  0  0  0
  6  5  1  0  0  0
 17 16  1  0  0  0
 16 14  1  0  0  0
 11 13  1  0  0  0
 11 12  2  0  0  0
 13 25  1  0  0  0
  4  5  1  0  0  0
 15 14  2  0  0  0
 14 24  1  0  0  0
 25 26  1  0  0  0
 24 22  2  0  0  0
 26 27  1  0  0  0
 22 21  1  0  0  0
 27 28  1  0  0  0
 21 20  2  0  0  0
 28 31  1  0  0  0
 28 30  1  0  0  0
 28 29  1  0  0  0
M  CHG 1  28   1
M  END
> <minimizedAffinity>
-8.51500

$$$$
2Y5H_Y5H_A_1244


 31 35  0  0  0  0  0  0  0  0999 V2000
   -1.6973   12.0195   22.0583 C   0  0  0  0  0  0  0  0  0  0  0  0
   -2.2621   13.3477   21.7013 N   0  0  0  0  0  0  0  0  0  0  0  0
   -2.2802   13.3218   20.2287 C   0  0  0  0  0  0  0  0  0  0  0  0
   -0.8371   13.6460   19.8036 C   0  0  0  0  0  0  0  0  0  0  0  0
   -0.3273   14.5487   20.9396 C   0  0  0  0  0  0  0  0  0  0  0  0
   -1.3752   14.4811   22.0668 C   0  0  0  0  0  0  0  0  0  0  0  0
   -2.7557   11.9305   19.8237 C   0  0  0  0  0  0  0  0  0  0  0  0
   -2.4485   11.0619   21.0727 C   0  0  0  0  0  0  0  0  0  0  0  0
   -3.8322   10.5961   21.5038 C   0  0  0  0  0  0  0  0  0  0  0  0
   -4.1240    9.8517   22.4246 O   0  0  0  0  0  0  0  0  0  0  0  0
   -4.2529   11.9009   19.6525 C   0  0  0  0  0  0  0  0  0  0  0  0
   -4.9499   12.4215   18.7810 O   0  0  0  0  0  0  0  0  0  0  0  0
   -4.8358   11.1584   20.6979 N   0  0  0  0  0  0  0  0  0  0  0  0
   -1.8984   10.5165   25.3070 C   0  0  0  0  0  0  0  0  0  0  0  0
   -1.4849   10.4610   24.0571 N   0  0  0  0  0  0  0  0  0  0  0  0
   -2.6975   11.5784   25.5822 O   0  0  0  0  0  0  0  0  0  0  0  0
   -2.6806   12.2885   24.3923 C   0  0  0  0  0  0  0  0  0  0  0  0
   -1.9548   11.6238   23.4899 C   0  0  0  0  0  0  0  0  0  0  0  0
   -0.5850    5.9045   28.0760 Cl  0  0  0  0  0  0  0  0  0  0  0  0
   -1.2993    7.4148   27.5537 C   0  0  0  0  0  0  0  0  0  0  0  0
   -2.3678    8.0713   28.1077 C   0  0  0  0  0  0  0  0  0  0  0  0
   -2.6759    9.2409   27.3750 C   0  0  0  0  0  0  0  0  0  0  0  0
   -0.5827    8.2492   26.2048 S   0  0  0  0  0  0  0  0  0  0  0  0
   -1.7956    9.4835   26.3268 C   0  0  0  0  0  0  0  0  0  0  0  0
   -6.2727   10.8974   20.8799 C   0  0  0  0  0  0  0  0  0  0  0  0
   -6.5985    9.4341   20.5500 C   0  0  0  0  0  0  0  0  0  0  0  0
   -6.9818    9.4496   19.0575 C   0  0  0  0  0  0  0  0  0  0  0  0
   -6.1313    8.5363   18.1971 N   0  0  0  0  0  0  0  0  0  0  0  0
   -5.4802    9.3281   17.0987 C   0  0  0  0  0  0  0  0  0  0  0  0
   -7.0898    7.5720   17.5376 C   0  0  0  0  0  0  0  0  0  0  0  0
   -5.0870    7.8060   18.9712 C   0  0  0  0  0  0  0  0  0  0  0  0
  1  8  1  0  0  0
  1  2  1  0  0  0
  1 18  1  0  0  0
 23 24  1  0  0  0
 23 20  1  0  0  0
 19 20  1  0  0  0
  8  7  1  0  0  0
  8  9  1  0  0  0
  2  3  1  0  0  0
  2  6  1  0  0  0
 18 17  2  0  0  0
 18 15  1  0  0  0
  7  3  1  0  0  0
  7 11  1  0  0  0
  9 13  1  0  0  0
  9 10  2  0  0  0
  3  4  1  0  0  0
  6  5  1  0  0  0
 17 16  1  0  0  0
 16 14  1  0  0  0
 11 13  1  0  0  0
 11 12  2  0  0  0
 13 25  1  0  0  0
  4  5  1  0  0  0
 15 14  2  0  0  0
 14 24  1  0  0  0
 25 26  1  0  0  0
 24 22  2  0  0  0
 26 27  1  0  0  0
 22 21  1  0  0  0
 27 28  1  0  0  0
 21 20  2  0  0  0
 28 31  1  0  0  0
 28 30  1  0  0  0
 28 29  1  0  0  0
M  CHG 1  28   1
M  END
> <minimizedAffinity>
-8.05030

$$$$
2Y5H_Y5H_A_1244


 31 35  0  0  0  0  0  0  0  0999 V2000
   -2.4006   12.9029   21.4644 C   0  0  0  0  0  0  0  0  0  0  0  0
   -3.5813   13.6531   21.9680 N   0  0  0  0  0  0  0  0  0  0  0  0
   -4.2311   14.1273   20.7341 C   0  0  0  0  0  0  0  0  0  0  0  0
   -3.4270   15.3685   20.3083 C   0  0  0  0  0  0  0  0  0  0  0  0
   -2.9225   15.9394   21.6442 C   0  0  0  0  0  0  0  0  0  0  0  0
   -3.2201   14.8800   22.7224 C   0  0  0  0  0  0  0  0  0  0  0  0
   -4.1740   12.9718   19.7404 C   0  0  0  0  0  0  0  0  0  0  0  0
   -3.0046   12.0967   20.2651 C   0  0  0  0  0  0  0  0  0  0  0  0
   -3.6975   10.7860   20.6108 C   0  0  0  0  0  0  0  0  0  0  0  0
   -3.1967    9.7563   21.0303 O   0  0  0  0  0  0  0  0  0  0  0  0
   -5.4113   12.1164   19.8364 C   0  0  0  0  0  0  0  0  0  0  0  0
   -6.5687   12.3772   19.5068 O   0  0  0  0  0  0  0  0  0  0  0  0
   -5.0850   10.8719   20.4098 N   0  0  0  0  0  0  0  0  0  0  0  0
   -1.6203   10.7190   24.1984 C   0  0  0  0  0  0  0  0  0  0  0  0
   -2.4772   11.5192   23.5972 N   0  0  0  0  0  0  0  0  0  0  0  0
   -0.3897   10.6909   23.6269 O   0  0  0  0  0  0  0  0  0  0  0  0
   -0.5574   11.4858   22.5042 C   0  0  0  0  0  0  0  0  0  0  0  0
   -1.8008   11.9722   22.4873 C   0  0  0  0  0  0  0  0  0  0  0  0
   -1.2326    7.1587   28.4219 Cl  0  0  0  0  0  0  0  0  0  0  0  0
   -1.6800    8.4761   27.3597 C   0  0  0  0  0  0  0  0  0  0  0  0
   -2.7034    9.3735   27.5241 C   0  0  0  0  0  0  0  0  0  0  0  0
   -2.7738   10.2641   26.4279 C   0  0  0  0  0  0  0  0  0  0  0  0
   -0.7208    8.7555   25.9345 S   0  0  0  0  0  0  0  0  0  0  0  0
   -1.7640   10.0694   25.4927 C   0  0  0  0  0  0  0  0  0  0  0  0
   -6.0186    9.7636   20.6661 C   0  0  0  0  0  0  0  0  0  0  0  0
   -5.5937    8.5122   19.8853 C   0  0  0  0  0  0  0  0  0  0  0  0
   -6.0873    8.7664   18.4477 C   0  0  0  0  0  0  0  0  0  0  0  0
   -6.3633    7.5000   17.6618 N   0  0  0  0  0  0  0  0  0  0  0  0
   -5.4736    6.3916   18.1486 C   0  0  0  0  0  0  0  0  0  0  0  0
   -5.9589    7.7969   16.2363 C   0  0  0  0  0  0  0  0  0  0  0  0
   -7.7872    7.0638   17.7333 C   0  0  0  0  0  0  0  0  0  0  0  0
  1  8  1  0  0  0
  1  2  1  0  0  0
  1 18  1  0  0  0
 23 24  1  0  0  0
 23 20  1  0  0  0
 19 20  1  0  0  0
  8  7  1  0  0  0
  8  9  1  0  0  0
  2  3  1  0  0  0
  2  6  1  0  0  0
 18 17  2  0  0  0
 18 15  1  0  0  0
  7  3  1  0  0  0
  7 11  1  0  0  0
  9 13  1  0  0  0
  9 10  2  0  0  0
  3  4  1  0  0  0
  6  5  1  0  0  0
 17 16  1  0  0  0
 16 14  1  0  0  0
 11 13  1  0  0  0
 11 12  2  0  0  0
 13 25  1  0  0  0
  4  5  1  0  0  0
 15 14  2  0  0  0
 14 24  1  0  0  0
 25 26  1  0  0  0
 24 22  2  0  0  0
 26 27  1  0  0  0
 22 21  1  0  0  0
 27 28  1  0  0  0
 21 20  2  0  0  0
 28 31  1  0  0  0
 28 30  1  0  0  0
 28 29  1  0  0  0
M  CHG 1  28   1
M  END
> <minimizedAffinity>
-7.42213

$$$$
2Y5H_Y5H_A_1244


 31 35  0  0  0  0  0  0  0  0999 V2000
   -2.7020   13.6630   21.8222 C   0  0  0  0  0  0  0  0  0  0  0  0
   -4.1465   13.8234   22.1351 N   0  0  0  0  0  0  0  0  0  0  0  0
   -4.6975   14.4022   20.8977 C   0  0  0  0  0  0  0  0  0  0  0  0
   -4.3547   15.9009   20.9682 C   0  0  0  0  0  0  0  0  0  0  0  0
   -4.3452   16.1917   22.4783 C   0  0  0  0  0  0  0  0  0  0  0  0
   -4.4103   14.8295   23.1948 C   0  0  0  0  0  0  0  0  0  0  0  0
   -4.0374   13.6617   19.7393 C   0  0  0  0  0  0  0  0  0  0  0  0
   -2.7380   13.0887   20.3655 C   0  0  0  0  0  0  0  0  0  0  0  0
   -2.9394   11.5854   20.2351 C   0  0  0  0  0  0  0  0  0  0  0  0
   -2.1723   10.6919   20.5515 O   0  0  0  0  0  0  0  0  0  0  0  0
   -4.8606   12.4700   19.3222 C   0  0  0  0  0  0  0  0  0  0  0  0
   -5.9536   12.4352   18.7561 O   0  0  0  0  0  0  0  0  0  0  0  0
   -4.1991   11.2828   19.6924 N   0  0  0  0  0  0  0  0  0  0  0  0
   -1.6610   11.2660   24.2766 C   0  0  0  0  0  0  0  0  0  0  0  0
   -2.6254   11.9687   23.7177 N   0  0  0  0  0  0  0  0  0  0  0  0
   -0.4176   11.5707   23.8264 O   0  0  0  0  0  0  0  0  0  0  0  0
   -0.6747   12.4863   22.8185 C   0  0  0  0  0  0  0  0  0  0  0  0
   -1.9884   12.7165   22.7534 C   0  0  0  0  0  0  0  0  0  0  0  0
   -0.9623    7.1113   27.8702 Cl  0  0  0  0  0  0  0  0  0  0  0  0
   -1.5253    8.5392   27.0286 C   0  0  0  0  0  0  0  0  0  0  0  0
   -2.6276    9.3013   27.3179 C   0  0  0  0  0  0  0  0  0  0  0  0
   -2.7758   10.3495   26.3803 C   0  0  0  0  0  0  0  0  0  0  0  0
   -0.5908    9.1338   25.6861 S   0  0  0  0  0  0  0  0  0  0  0  0
   -1.7489   10.4028   25.4449 C   0  0  0  0  0  0  0  0  0  0  0  0
   -4.6795    9.9121   19.4552 C   0  0  0  0  0  0  0  0  0  0  0  0
   -5.4787    9.4066   20.6644 C   0  0  0  0  0  0  0  0  0  0  0  0
   -6.9175    9.2437   20.1370 C   0  0  0  0  0  0  0  0  0  0  0  0
   -7.9314   10.1235   20.8411 N   0  0  0  0  0  0  0  0  0  0  0  0
   -8.8365    9.2800   21.6934 C   0  0  0  0  0  0  0  0  0  0  0  0
   -8.7872   10.7279   19.7521 C   0  0  0  0  0  0  0  0  0  0  0  0
   -7.3047   11.1855   21.6792 C   0  0  0  0  0  0  0  0  0  0  0  0
  1  8  1  0  0  0
  1  2  1  0  0  0
  1 18  1  0  0  0
 23 24  1  0  0  0
 23 20  1  0  0  0
 19 20  1  0  0  0
  8  7  1  0  0  0
  8  9  1  0  0  0
  2  3  1  0  0  0
  2  6  1  0  0  0
 18 17  2  0  0  0
 18 15  1  0  0  0
  7  3  1  0  0  0
  7 11  1  0  0  0
  9 13  1  0  0  0
  9 10  2  0  0  0
  3  4  1  0  0  0
  6  5  1  0  0  0
 17 16  1  0  0  0
 16 14  1  0  0  0
 11 13  1  0  0  0
 11 12  2  0  0  0
 13 25  1  0  0  0
  4  5  1  0  0  0
 15 14  2  0  0  0
 14 24  1  0  0  0
 25 26  1  0  0  0
 24 22  2  0  0  0
 26 27  1  0  0  0
 22 21  1  0  0  0
 27 28  1  0  0  0
 21 20  2  0  0  0
 28 31  1  0  0  0
 28 30  1  0  0  0
 28 29  1  0  0  0
M  CHG 1  28   1
M  END
> <minimizedAffinity>
-7.34530

$$$$
2Y5H_Y5H_A_1244


 31 35  0  0  0  0  0  0  0  0999 V2000
   -2.8726   10.5265   22.4365 C   0  0  0  0  0  0  0  0  0  0  0  0
   -2.8332   11.5823   23.4824 N   0  0  0  0  0  0  0  0  0  0  0  0
   -1.3922   11.7527   23.7356 C   0  0  0  0  0  0  0  0  0  0  0  0
   -1.0088   10.5918   24.6705 C   0  0  0  0  0  0  0  0  0  0  0  0
   -2.3011   10.3335   25.4632 C   0  0  0  0  0  0  0  0  0  0  0  0
   -3.4146   11.1483   24.7780 C   0  0  0  0  0  0  0  0  0  0  0  0
   -0.7039   11.7158   22.3752 C   0  0  0  0  0  0  0  0  0  0  0  0
   -1.7216   10.9700   21.4714 C   0  0  0  0  0  0  0  0  0  0  0  0
   -2.0780   12.0226   20.4309 C   0  0  0  0  0  0  0  0  0  0  0  0
   -2.8198   11.9112   19.4695 O   0  0  0  0  0  0  0  0  0  0  0  0
   -0.5724   13.1027   21.7997 C   0  0  0  0  0  0  0  0  0  0  0  0
    0.1430   14.0357   22.1657 O   0  0  0  0  0  0  0  0  0  0  0  0
   -1.4443   13.2463   20.7028 N   0  0  0  0  0  0  0  0  0  0  0  0
   -5.7544    9.7364   20.4554 C   0  0  0  0  0  0  0  0  0  0  0  0
   -4.5342    9.4342   20.8504 N   0  0  0  0  0  0  0  0  0  0  0  0
   -6.2021   10.9377   20.9006 O   0  0  0  0  0  0  0  0  0  0  0  0
   -5.1757   11.3557   21.7325 C   0  0  0  0  0  0  0  0  0  0  0  0
   -4.1884   10.4571   21.7042 C   0  0  0  0  0  0  0  0  0  0  0  0
   -9.1842    8.6904   16.2357 Cl  0  0  0  0  0  0  0  0  0  0  0  0
   -8.1314    8.5601   17.6280 C   0  0  0  0  0  0  0  0  0  0  0  0
   -7.8866    7.4479   18.3913 C   0  0  0  0  0  0  0  0  0  0  0  0
   -7.0102    7.7520   19.4587 C   0  0  0  0  0  0  0  0  0  0  0  0
   -7.2290    9.9646   18.1205 S   0  0  0  0  0  0  0  0  0  0  0  0
   -6.5554    9.0655   19.4424 C   0  0  0  0  0  0  0  0  0  0  0  0
   -1.6044   14.4519   19.8742 C   0  0  0  0  0  0  0  0  0  0  0  0
   -0.6676   14.3968   18.6595 C   0  0  0  0  0  0  0  0  0  0  0  0
   -1.5749   14.7168   17.4557 C   0  0  0  0  0  0  0  0  0  0  0  0
   -1.2197   13.9470   16.1991 N   0  0  0  0  0  0  0  0  0  0  0  0
   -1.0279   14.8990   15.0528 C   0  0  0  0  0  0  0  0  0  0  0  0
   -2.4281   13.1005   15.8725 C   0  0  0  0  0  0  0  0  0  0  0  0
   -0.0013   13.1016   16.3539 C   0  0  0  0  0  0  0  0  0  0  0  0
  1  8  1  0  0  0
  1  2  1  0  0  0
  1 18  1  0  0  0
 23 24  1  0  0  0
 23 20  1  0  0  0
 19 20  1  0  0  0
  8  7  1  0  0  0
  8  9  1  0  0  0
  2  3  1  0  0  0
  2  6  1  0  0  0
 18 17  2  0  0  0
 18 15  1  0  0  0
  7  3  1  0  0  0
  7 11  1  0  0  0
  9 13  1  0  0  0
  9 10  2  0  0  0
  3  4  1  0  0  0
  6  5  1  0  0  0
 17 16  1  0  0  0
 16 14  1  0  0  0
 11 13  1  0  0  0
 11 12  2  0  0  0
 13 25  1  0  0  0
  4  5  1  0  0  0
 15 14  2  0  0  0
 14 24  1  0  0  0
 25 26  1  0  0  0
 24 22  2  0  0  0
 26 27  1  0  0  0
 22 21  1  0  0  0
 27 28  1  0  0  0
 21 20  2  0  0  0
 28 31  1  0  0  0
 28 30  1  0  0  0
 28 29  1  0  0  0
M  CHG 1  28   1
M  END
> <minimizedAffinity>
-7.33793

$$$$
2Y5H_Y5H_A_1244


 31 35  0  0  0  0  0  0  0  0999 V2000
   -3.0069   10.4587   22.8067 C   0  0  0  0  0  0  0  0  0  0  0  0
   -2.8600   11.5736   23.7792 N   0  0  0  0  0  0  0  0  0  0  0  0
   -1.4371   11.5085   24.1546 C   0  0  0  0  0  0  0  0  0  0  0  0
   -1.3481   10.3792   25.1965 C   0  0  0  0  0  0  0  0  0  0  0  0
   -2.7252   10.4180   25.8798 C   0  0  0  0  0  0  0  0  0  0  0  0
   -3.6129   11.3565   25.0405 C   0  0  0  0  0  0  0  0  0  0  0  0
   -0.6600   11.2395   22.8703 C   0  0  0  0  0  0  0  0  0  0  0  0
   -1.7205   10.6122   21.9266 C   0  0  0  0  0  0  0  0  0  0  0  0
   -1.7944   11.6218   20.7896 C   0  0  0  0  0  0  0  0  0  0  0  0
   -2.4644   11.5637   19.7723 O   0  0  0  0  0  0  0  0  0  0  0  0
   -0.2323   12.5296   22.2187 C   0  0  0  0  0  0  0  0  0  0  0  0
    0.6094   13.3493   22.5874 O   0  0  0  0  0  0  0  0  0  0  0  0
   -0.9724   12.7333   21.0377 N   0  0  0  0  0  0  0  0  0  0  0  0
   -5.8180   10.0254   20.6242 C   0  0  0  0  0  0  0  0  0  0  0  0
   -4.7105    9.5460   21.1532 N   0  0  0  0  0  0  0  0  0  0  0  0
   -6.0692   11.3215   20.9383 O   0  0  0  0  0  0  0  0  0  0  0  0
   -5.0527   11.6208   21.8313 C   0  0  0  0  0  0  0  0  0  0  0  0
   -4.2501   10.5614   21.9605 C   0  0  0  0  0  0  0  0  0  0  0  0
   -9.4349    9.2463   16.5043 Cl  0  0  0  0  0  0  0  0  0  0  0  0
   -8.3001    9.0271   17.8188 C   0  0  0  0  0  0  0  0  0  0  0  0
   -7.9655    7.8568   18.4495 C   0  0  0  0  0  0  0  0  0  0  0  0
   -7.0435    8.0935   19.4954 C   0  0  0  0  0  0  0  0  0  0  0  0
   -7.4313   10.4165   18.4056 S   0  0  0  0  0  0  0  0  0  0  0  0
   -6.6462    9.4222   19.5908 C   0  0  0  0  0  0  0  0  0  0  0  0
   -0.8430   13.8760   20.1194 C   0  0  0  0  0  0  0  0  0  0  0  0
   -1.4882   15.1291   20.7275 C   0  0  0  0  0  0  0  0  0  0  0  0
   -2.9905   14.9805   20.4177 C   0  0  0  0  0  0  0  0  0  0  0  0
   -3.8963   15.5815   21.4741 N   0  0  0  0  0  0  0  0  0  0  0  0
   -3.5567   17.0312   21.6747 C   0  0  0  0  0  0  0  0  0  0  0  0
   -3.5641   14.8678   22.7640 C   0  0  0  0  0  0  0  0  0  0  0  0
   -5.3453   15.4496   21.1484 C   0  0  0  0  0  0  0  0  0  0  0  0
  1  8  1  0  0  0
  1  2  1  0  0  0
  1 18  1  0  0  0
 23 24  1  0  0  0
 23 20  1  0  0  0
 19 20  1  0  0  0
  8  7  1  0  0  0
  8  9  1  0  0  0
  2  3  1  0  0  0
  2  6  1  0  0  0
 18 17  2  0  0  0
 18 15  1  0  0  0
  7  3  1  0  0  0
  7 11  1  0  0  0
  9 13  1  0  0  0
  9 10  2  0  0  0
  3  4  1  0  0  0
  6  5  1  0  0  0
 17 16  1  0  0  0
 16 14  1  0  0  0
 11 13  1  0  0  0
 11 12  2  0  0  0
 13 25  1  0  0  0
  4  5  1  0  0  0
 15 14  2  0  0  0
 14 24  1  0  0  0
 25 26  1  0  0  0
 24 22  2  0  0  0
 26 27  1  0  0  0
 22 21  1  0  0  0
 27 28  1  0  0  0
 21 20  2  0  0  0
 28 31  1  0  0  0
 28 30  1  0  0  0
 28 29  1  0  0  0
M  CHG 1  28   1
M  END
> <minimizedAffinity>
-7.27912

$$$$
2Y5H_Y5H_A_1244


 31 35  0  0  0  0  0  0  0  0999 V2000
   -5.2497   14.6461   23.8834 C   0  0  0  0  0  0  0  0  0  0  0  0
   -6.0344   14.5082   25.1386 N   0  0  0  0  0  0  0  0  0  0  0  0
   -7.2924   15.2089   24.8286 C   0  0  0  0  0  0  0  0  0  0  0  0
   -6.9737   16.7040   25.0068 C   0  0  0  0  0  0  0  0  0  0  0  0
   -5.8835   16.7071   26.0915 C   0  0  0  0  0  0  0  0  0  0  0  0
   -5.4433   15.2436   26.2852 C   0  0  0  0  0  0  0  0  0  0  0  0
   -7.6715   14.8138   23.4053 C   0  0  0  0  0  0  0  0  0  0  0  0
   -6.3258   14.3541   22.7835 C   0  0  0  0  0  0  0  0  0  0  0  0
   -6.5884   12.8887   22.4654 C   0  0  0  0  0  0  0  0  0  0  0  0
   -5.8426   12.0891   21.9256 O   0  0  0  0  0  0  0  0  0  0  0  0
   -8.5682   13.6023   23.4026 C   0  0  0  0  0  0  0  0  0  0  0  0
   -9.7380   13.4956   23.7717 O   0  0  0  0  0  0  0  0  0  0  0  0
   -7.8634   12.4910   22.9004 N   0  0  0  0  0  0  0  0  0  0  0  0
   -2.8649   11.9842   24.1671 C   0  0  0  0  0  0  0  0  0  0  0  0
   -3.9590   12.5756   24.6022 N   0  0  0  0  0  0  0  0  0  0  0  0
   -2.2152   12.6654   23.1895 O   0  0  0  0  0  0  0  0  0  0  0  0
   -3.0656   13.7319   22.9450 C   0  0  0  0  0  0  0  0  0  0  0  0
   -4.1034   13.6724   23.7830 C   0  0  0  0  0  0  0  0  0  0  0  0
   -1.0212    8.1426   27.7034 Cl  0  0  0  0  0  0  0  0  0  0  0  0
   -1.2713    9.1772   26.3138 C   0  0  0  0  0  0  0  0  0  0  0  0
   -0.5106    9.2486   25.1755 C   0  0  0  0  0  0  0  0  0  0  0  0
   -1.0083   10.2395   24.2979 C   0  0  0  0  0  0  0  0  0  0  0  0
   -2.6587   10.2281   26.3005 S   0  0  0  0  0  0  0  0  0  0  0  0
   -2.1715   10.8480   24.7552 C   0  0  0  0  0  0  0  0  0  0  0  0
   -8.3951   11.1285   22.7368 C   0  0  0  0  0  0  0  0  0  0  0  0
   -8.5165   10.7747   21.2481 C   0  0  0  0  0  0  0  0  0  0  0  0
   -7.9639    9.3398   21.1446 C   0  0  0  0  0  0  0  0  0  0  0  0
   -7.1897    9.0720   19.8693 N   0  0  0  0  0  0  0  0  0  0  0  0
   -5.7705    8.7059   20.1995 C   0  0  0  0  0  0  0  0  0  0  0  0
   -7.1447   10.3861   19.1245 C   0  0  0  0  0  0  0  0  0  0  0  0
   -7.7975    8.0016   19.0279 C   0  0  0  0  0  0  0  0  0  0  0  0
  1  8  1  0  0  0
  1  2  1  0  0  0
  1 18  1  0  0  0
 23 24  1  0  0  0
 23 20  1  0  0  0
 19 20  1  0  0  0
  8  7  1  0  0  0
  8  9  1  0  0  0
  2  3  1  0  0  0
  2  6  1  0  0  0
 18 17  2  0  0  0
 18 15  1  0  0  0
  7  3  1  0  0  0
  7 11  1  0  0  0
  9 13  1  0  0  0
  9 10  2  0  0  0
  3  4  1  0  0  0
  6  5  1  0  0  0
 17 16  1  0  0  0
 16 14  1  0  0  0
 11 13  1  0  0  0
 11 12  2  0  0  0
 13 25  1  0  0  0
  4  5  1  0  0  0
 15 14  2  0  0  0
 14 24  1  0  0  0
 25 26  1  0  0  0
 24 22  2  0  0  0
 26 27  1  0  0  0
 22 21  1  0  0  0
 27 28  1  0  0  0
 21 20  2  0  0  0
 28 31  1  0  0  0
 28 30  1  0  0  0
 28 29  1  0  0  0
M  CHG 1  28   1
M  END
> <minimizedAffinity>
-7.18803

$$$$
2Y5H_Y5H_A_1244


 31 35  0  0  0  0  0  0  0  0999 V2000
   -6.6614    8.5039   18.7709 C   0  0  0  0  0  0  0  0  0  0  0  0
   -5.7844    7.7034   17.8762 N   0  0  0  0  0  0  0  0  0  0  0  0
   -6.7019    7.2603   16.8126 C   0  0  0  0  0  0  0  0  0  0  0  0
   -7.4566    6.0586   17.4082 C   0  0  0  0  0  0  0  0  0  0  0  0
   -6.4380    5.4499   18.3864 C   0  0  0  0  0  0  0  0  0  0  0  0
   -5.2797    6.4582   18.5083 C   0  0  0  0  0  0  0  0  0  0  0  0
   -7.5892    8.4546   16.4777 C   0  0  0  0  0  0  0  0  0  0  0  0
   -7.5053    9.3397   17.7499 C   0  0  0  0  0  0  0  0  0  0  0  0
   -6.8635   10.6170   17.2263 C   0  0  0  0  0  0  0  0  0  0  0  0
   -6.6173   11.6425   17.8382 O   0  0  0  0  0  0  0  0  0  0  0  0
   -6.9937    9.2723   15.3603 C   0  0  0  0  0  0  0  0  0  0  0  0
   -6.8735    8.9937   14.1669 O   0  0  0  0  0  0  0  0  0  0  0  0
   -6.5294   10.5018   15.8668 N   0  0  0  0  0  0  0  0  0  0  0  0
   -4.2855   10.4786   20.5898 C   0  0  0  0  0  0  0  0  0  0  0  0
   -4.5385    9.6068   19.6347 N   0  0  0  0  0  0  0  0  0  0  0  0
   -5.3608   10.7932   21.3555 O   0  0  0  0  0  0  0  0  0  0  0  0
   -6.3908   10.1097   20.7292 C   0  0  0  0  0  0  0  0  0  0  0  0
   -5.8991    9.4098   19.7038 C   0  0  0  0  0  0  0  0  0  0  0  0
    0.2689   13.5111   21.4414 Cl  0  0  0  0  0  0  0  0  0  0  0  0
   -0.9181   12.2258   21.3874 C   0  0  0  0  0  0  0  0  0  0  0  0
   -0.7519   10.9165   21.7584 C   0  0  0  0  0  0  0  0  0  0  0  0
   -1.9319   10.1728   21.5255 C   0  0  0  0  0  0  0  0  0  0  0  0
   -2.5294   12.6062   20.8503 S   0  0  0  0  0  0  0  0  0  0  0  0
   -2.9859   10.9445   21.0502 C   0  0  0  0  0  0  0  0  0  0  0  0
   -5.8886   11.5740   15.0886 C   0  0  0  0  0  0  0  0  0  0  0  0
   -4.3615   11.4957   15.2228 C   0  0  0  0  0  0  0  0  0  0  0  0
   -3.8631   12.8901   14.7961 C   0  0  0  0  0  0  0  0  0  0  0  0
   -2.9422   13.5468   15.8053 N   0  0  0  0  0  0  0  0  0  0  0  0
   -2.9205   15.0330   15.5870 C   0  0  0  0  0  0  0  0  0  0  0  0
   -1.5538   13.0351   15.4984 C   0  0  0  0  0  0  0  0  0  0  0  0
   -3.3183   13.2562   17.2186 C   0  0  0  0  0  0  0  0  0  0  0  0
  1  8  1  0  0  0
  1  2  1  0  0  0
  1 18  1  0  0  0
 23 24  1  0  0  0
 23 20  1  0  0  0
 19 20  1  0  0  0
  8  7  1  0  0  0
  8  9  1  0  0  0
  2  3  1  0  0  0
  2  6  1  0  0  0
 18 17  2  0  0  0
 18 15  1  0  0  0
  7  3  1  0  0  0
  7 11  1  0  0  0
  9 13  1  0  0  0
  9 10  2  0  0  0
  3  4  1  0  0  0
  6  5  1  0  0  0
 17 16  1  0  0  0
 16 14  1  0  0  0
 11 13  1  0  0  0
 11 12  2  0  0  0
 13 25  1  0  0  0
  4  5  1  0  0  0
 15 14  2  0  0  0
 14 24  1  0  0  0
 25 26  1  0  0  0
 24 22  2  0  0  0
 26 27  1  0  0  0
 22 21  1  0  0  0
 27 28  1  0  0  0
 21 20  2  0  0  0
 28 31  1  0  0  0
 28 30  1  0  0  0
 28 29  1  0  0  0
M  CHG 1  28   1
M  END
> <minimizedAffinity>
-6.97827

$$$$
2Y5H_Y5H_A_1244


 31 35  0  0  0  0  0  0  0  0999 V2000
   -3.0071   12.5992   20.8013 C   0  0  0  0  0  0  0  0  0  0  0  0
   -2.4138   11.9274   21.9875 N   0  0  0  0  0  0  0  0  0  0  0  0
   -1.9289   13.0527   22.8050 C   0  0  0  0  0  0  0  0  0  0  0  0
   -0.5881   13.4619   22.1699 C   0  0  0  0  0  0  0  0  0  0  0  0
   -0.0566   12.1433   21.5834 C   0  0  0  0  0  0  0  0  0  0  0  0
   -1.2079   11.1230   21.6655 C   0  0  0  0  0  0  0  0  0  0  0  0
   -3.0062   14.1304   22.7447 C   0  0  0  0  0  0  0  0  0  0  0  0
   -3.7910   13.7899   21.4498 C   0  0  0  0  0  0  0  0  0  0  0  0
   -5.1844   13.4763   21.9767 C   0  0  0  0  0  0  0  0  0  0  0  0
   -6.1833   13.1859   21.3403 O   0  0  0  0  0  0  0  0  0  0  0  0
   -3.9863   13.9772   23.8795 C   0  0  0  0  0  0  0  0  0  0  0  0
   -3.8227   14.1710   25.0845 O   0  0  0  0  0  0  0  0  0  0  0  0
   -5.2260   13.5329   23.3796 N   0  0  0  0  0  0  0  0  0  0  0  0
   -5.2215   10.0895   19.5164 C   0  0  0  0  0  0  0  0  0  0  0  0
   -4.4427   10.5232   20.4866 N   0  0  0  0  0  0  0  0  0  0  0  0
   -5.1863   10.8494   18.3925 O   0  0  0  0  0  0  0  0  0  0  0  0
   -4.3726   11.9072   18.7658 C   0  0  0  0  0  0  0  0  0  0  0  0
   -3.9366   11.7124   20.0128 C   0  0  0  0  0  0  0  0  0  0  0  0
   -6.6110    4.8935   18.1992 Cl  0  0  0  0  0  0  0  0  0  0  0  0
   -6.5971    6.5356   18.8052 C   0  0  0  0  0  0  0  0  0  0  0  0
   -7.6336    7.2247   19.3799 C   0  0  0  0  0  0  0  0  0  0  0  0
   -7.2443    8.5458   19.7007 C   0  0  0  0  0  0  0  0  0  0  0  0
   -5.1071    7.4327   18.7373 S   0  0  0  0  0  0  0  0  0  0  0  0
   -5.9067    8.8086   19.4282 C   0  0  0  0  0  0  0  0  0  0  0  0
   -6.4370   13.2692   24.1731 C   0  0  0  0  0  0  0  0  0  0  0  0
   -6.9335   14.5597   24.8398 C   0  0  0  0  0  0  0  0  0  0  0  0
   -7.5898   15.3583   23.6969 C   0  0  0  0  0  0  0  0  0  0  0  0
   -7.0954   16.7869   23.5852 N   0  0  0  0  0  0  0  0  0  0  0  0
   -6.3688   16.9766   22.2840 C   0  0  0  0  0  0  0  0  0  0  0  0
   -6.0783   16.9641   24.6887 C   0  0  0  0  0  0  0  0  0  0  0  0
   -8.1872   17.7960   23.6979 C   0  0  0  0  0  0  0  0  0  0  0  0
  1  8  1  0  0  0
  1  2  1  0  0  0
  1 18  1  0  0  0
 23 24  1  0  0  0
 23 20  1  0  0  0
 19 20  1  0  0  0
  8  7  1  0  0  0
  8  9  1  0  0  0
  2  3  1  0  0  0
  2  6  1  0  0  0
 18 17  2  0  0  0
 18 15  1  0  0  0
  7  3  1  0  0  0
  7 11  1  0  0  0
  9 13  1  0  0  0
  9 10  2  0  0  0
  3  4  1  0  0  0
  6  5  1  0  0  0
 17 16  1  0  0  0
 16 14  1  0  0  0
 11 13  1  0  0  0
 11 12  2  0  0  0
 13 25  1  0  0  0
  4  5  1  0  0  0
 15 14  2  0  0  0
 14 24  1  0  0  0
 25 26  1  0  0  0
 24 22  2  0  0  0
 26 27  1  0  0  0
 22 21  1  0  0  0
 27 28  1  0  0  0
 21 20  2  0  0  0
 28 31  1  0  0  0
 28 30  1  0  0  0
 28 29  1  0  0  0
M  CHG 1  28   1
M  END
> <minimizedAffinity>
-6.87510

$$$$
2Y5H_Y5H_A_1244


 31 35  0  0  0  0  0  0  0  0999 V2000
   -7.6894   12.7677   21.9501 C   0  0  0  0  0  0  0  0  0  0  0  0
   -7.5966   14.2276   21.6847 N   0  0  0  0  0  0  0  0  0  0  0  0
   -7.8238   14.8267   23.0110 C   0  0  0  0  0  0  0  0  0  0  0  0
   -9.3500   14.8001   23.2075 C   0  0  0  0  0  0  0  0  0  0  0  0
   -9.8940   14.9203   21.7741 C   0  0  0  0  0  0  0  0  0  0  0  0
   -8.6938   14.7398   20.8253 C   0  0  0  0  0  0  0  0  0  0  0  0
   -7.0478   13.9765   24.0113 C   0  0  0  0  0  0  0  0  0  0  0  0
   -6.8762   12.6183   23.2803 C   0  0  0  0  0  0  0  0  0  0  0  0
   -5.3647   12.5029   23.1406 C   0  0  0  0  0  0  0  0  0  0  0  0
   -4.7198   11.5854   22.6618 O   0  0  0  0  0  0  0  0  0  0  0  0
   -5.6566   14.5194   24.2156 C   0  0  0  0  0  0  0  0  0  0  0  0
   -5.2967   15.5548   24.7765 O   0  0  0  0  0  0  0  0  0  0  0  0
   -4.7163   13.6479   23.6320 N   0  0  0  0  0  0  0  0  0  0  0  0
   -6.5802   10.2130   19.6925 C   0  0  0  0  0  0  0  0  0  0  0  0
   -7.2094   10.5505   20.8000 N   0  0  0  0  0  0  0  0  0  0  0  0
   -5.9607   11.2461   19.0675 O   0  0  0  0  0  0  0  0  0  0  0  0
   -6.3427   12.3373   19.8316 C   0  0  0  0  0  0  0  0  0  0  0  0
   -7.0890   11.9205   20.8574 C   0  0  0  0  0  0  0  0  0  0  0  0
   -6.9608    4.8623   18.3182 Cl  0  0  0  0  0  0  0  0  0  0  0  0
   -6.3901    6.4817   18.6588 C   0  0  0  0  0  0  0  0  0  0  0  0
   -5.0922    6.9218   18.6938 C   0  0  0  0  0  0  0  0  0  0  0  0
   -5.0330    8.2893   19.0495 C   0  0  0  0  0  0  0  0  0  0  0  0
   -7.5655    7.7316   18.9509 S   0  0  0  0  0  0  0  0  0  0  0  0
   -6.2846    8.8730   19.2080 C   0  0  0  0  0  0  0  0  0  0  0  0
   -3.2557   13.8275   23.6238 C   0  0  0  0  0  0  0  0  0  0  0  0
   -2.8190   14.6184   22.3828 C   0  0  0  0  0  0  0  0  0  0  0  0
   -1.4940   13.9608   21.9508 C   0  0  0  0  0  0  0  0  0  0  0  0
   -1.5334   13.3598   20.5597 N   0  0  0  0  0  0  0  0  0  0  0  0
   -0.9852   11.9613   20.5908 C   0  0  0  0  0  0  0  0  0  0  0  0
   -0.5866   14.1865   19.7209 C   0  0  0  0  0  0  0  0  0  0  0  0
   -2.9007   13.3460   19.9652 C   0  0  0  0  0  0  0  0  0  0  0  0
  1  8  1  0  0  0
  1  2  1  0  0  0
  1 18  1  0  0  0
 23 24  1  0  0  0
 23 20  1  0  0  0
 19 20  1  0  0  0
  8  7  1  0  0  0
  8  9  1  0  0  0
  2  3  1  0  0  0
  2  6  1  0  0  0
 18 17  2  0  0  0
 18 15  1  0  0  0
  7  3  1  0  0  0
  7 11  1  0  0  0
  9 13  1  0  0  0
  9 10  2  0  0  0
  3  4  1  0  0  0
  6  5  1  0  0  0
 17 16  1  0  0  0
 16 14  1  0  0  0
 11 13  1  0  0  0
 11 12  2  0  0  0
 13 25  1  0  0  0
  4  5  1  0  0  0
 15 14  2  0  0  0
 14 24  1  0  0  0
 25 26  1  0  0  0
 24 22  2  0  0  0
 26 27  1  0  0  0
 22 21  1  0  0  0
 27 28  1  0  0  0
 21 20  2  0  0  0
 28 31  1  0  0  0
 28 30  1  0  0  0
 28 29  1  0  0  0
M  CHG 1  28   1
M  END
> <minimizedAffinity>
-6.57694

$$$$
