1WS1_BB2_A_400


 31 31  0  0  0  0  0  0  0  0999 V2000
   -7.9494   45.2196   56.4186 C   0  0  0  0  0  0  0  0  0  0  0  0
   -7.7795   44.9516   57.5834 O   0  0  0  0  0  0  0  0  0  0  0  0
   -8.8640   46.1243   55.9586 N   0  0  0  0  0  0  0  0  0  0  0  0
   -8.9222   46.2479   54.9837 H   0  0  0  0  0  0  0  0  0  0  0  0
   -7.1025   44.5483   55.3399 C   0  0  0  0  0  0  0  0  0  0  0  0
   -5.5278   44.6888   55.5818 C   0  0  0  0  0  0  0  0  0  0  0  0
   -4.8698   44.3166   54.2487 C   0  0  0  0  0  0  0  0  0  0  0  0
   -5.0814   45.0661   53.3226 O   0  0  0  0  0  0  0  0  0  0  0  0
   -4.1348   43.2149   54.1110 N   0  0  0  0  0  0  0  0  0  0  0  0
   -3.6190   42.9119   53.0197 O   0  0  0  0  0  0  0  0  0  0  0  0
   -3.9964   42.6277   54.8890 H   0  0  0  0  0  0  0  0  0  0  0  0
   -3.8452   43.5837   52.3576 H   0  0  0  0  0  0  0  0  0  0  0  0
   -7.4718   43.0272   55.3653 C   0  0  0  0  0  0  0  0  0  0  0  0
   -8.5910   42.8998   54.3043 C   0  0  0  0  0  0  0  0  0  0  0  0
   -9.2946   41.6416   54.3577 C   0  0  0  0  0  0  0  0  0  0  0  0
  -10.5134   41.7198   55.2672 C   0  0  0  0  0  0  0  0  0  0  0  0
  -11.5577   42.6575   54.7809 C   0  0  0  0  0  0  0  0  0  0  0  0
   -9.7546   46.9166   56.7788 C   0  0  0  0  0  0  0  0  0  0  0  0
  -11.1826   46.3471   56.5388 C   0  0  0  0  0  0  0  0  0  0  0  0
  -11.5512   46.1161   55.3668 O   0  0  0  0  0  0  0  0  0  0  0  0
  -11.9844   46.0937   57.5957 N   0  0  0  0  0  0  0  0  0  0  0  0
  -13.3362   45.5319   57.4220 C   0  0  0  0  0  0  0  0  0  0  0  0
  -11.6772   46.3095   59.0397 C   0  0  0  0  0  0  0  0  0  0  0  0
  -12.9316   45.8495   59.7429 C   0  0  0  0  0  0  0  0  0  0  0  0
  -13.6388   44.9501   58.7936 C   0  0  0  0  0  0  0  0  0  0  0  0
  -14.3557   46.5850   57.0541 C   0  0  0  0  0  0  0  0  0  0  0  0
  -14.5752   46.6762   55.8333 O   0  0  0  0  0  0  0  0  0  0  0  0
  -13.7606   46.9394   55.3771 H   0  0  0  0  0  0  0  0  0  0  0  0
   -9.6707   48.4319   56.5417 C   0  0  0  0  0  0  0  0  0  0  0  0
   -8.5611   48.7929   55.6318 C   0  0  0  0  0  0  0  0  0  0  0  0
   -9.4730   49.0961   57.8897 C   0  0  0  0  0  0  0  0  0  0  0  0
  6  7  1  0  0  0
  6  5  1  0  0  0
  7  8  2  0  0  0
  7  9  1  0  0  0
  9 10  1  0  0  0
  5  1  1  0  0  0
  5 13  1  0  0  0
  1  2  2  0  0  0
  1  3  1  0  0  0
 13 14  1  0  0  0
 14 15  1  0  0  0
 15 16  1  0  0  0
 16 17  1  0  0  0
  3 18  1  0  0  0
 18 29  1  0  0  0
 18 19  1  0  0  0
 29 30  1  0  0  0
 29 31  1  0  0  0
 19 20  2  0  0  0
 19 21  1  0  0  0
 21 22  1  0  0  0
 21 23  1  0  0  0
 22 25  1  0  0  0
 22 26  1  0  0  0
 23 24  1  0  0  0
 24 25  1  0  0  0
 26 27  1  0  0  0
  9 11  1  0  0  0
 10 12  1  0  0  0
  3  4  1  0  0  0
 27 28  1  0  0  0
M  END
> <minimizedAffinity>
-7.90650

$$$$
1WS1_BB2_A_400


 31 31  0  0  0  0  0  0  0  0999 V2000
   -7.5132   45.8516   55.3882 C   0  0  0  0  0  0  0  0  0  0  0  0
   -7.1440   46.9425   55.0264 O   0  0  0  0  0  0  0  0  0  0  0  0
   -8.6172   45.6255   56.1605 N   0  0  0  0  0  0  0  0  0  0  0  0
   -8.8103   44.6917   56.4056 H   0  0  0  0  0  0  0  0  0  0  0  0
   -6.7461   44.5989   54.9713 C   0  0  0  0  0  0  0  0  0  0  0  0
   -5.1829   44.6645   55.3034 C   0  0  0  0  0  0  0  0  0  0  0  0
   -4.4684   44.2426   54.0149 C   0  0  0  0  0  0  0  0  0  0  0  0
   -4.4393   45.0653   53.1280 O   0  0  0  0  0  0  0  0  0  0  0  0
   -3.9391   43.0295   53.8696 N   0  0  0  0  0  0  0  0  0  0  0  0
   -3.3763   42.6901   52.8128 O   0  0  0  0  0  0  0  0  0  0  0  0
   -3.9943   42.3874   54.6139 H   0  0  0  0  0  0  0  0  0  0  0  0
   -3.4035   43.4258   52.1813 H   0  0  0  0  0  0  0  0  0  0  0  0
   -7.3706   43.4066   55.7709 C   0  0  0  0  0  0  0  0  0  0  0  0
   -7.9005   42.4584   54.6687 C   0  0  0  0  0  0  0  0  0  0  0  0
   -9.0204   41.6533   55.0913 C   0  0  0  0  0  0  0  0  0  0  0  0
  -10.2454   41.8968   54.2201 C   0  0  0  0  0  0  0  0  0  0  0  0
  -10.2870   43.2552   53.6209 C   0  0  0  0  0  0  0  0  0  0  0  0
   -9.5276   46.6381   56.6498 C   0  0  0  0  0  0  0  0  0  0  0  0
   -8.8379   47.2742   57.8912 C   0  0  0  0  0  0  0  0  0  0  0  0
   -8.7374   46.5986   58.9381 O   0  0  0  0  0  0  0  0  0  0  0  0
   -8.3440   48.5285   57.8083 N   0  0  0  0  0  0  0  0  0  0  0  0
   -7.6612   49.1663   58.9485 C   0  0  0  0  0  0  0  0  0  0  0  0
   -8.3833   49.4430   56.6299 C   0  0  0  0  0  0  0  0  0  0  0  0
   -7.6853   50.6879   57.1223 C   0  0  0  0  0  0  0  0  0  0  0  0
   -6.8568   50.2724   58.2846 C   0  0  0  0  0  0  0  0  0  0  0  0
   -8.6318   49.7437   59.9527 C   0  0  0  0  0  0  0  0  0  0  0  0
   -8.8530   49.0056   60.9289 O   0  0  0  0  0  0  0  0  0  0  0  0
   -9.2619   48.1805   60.6243 H   0  0  0  0  0  0  0  0  0  0  0  0
  -10.9478   46.1360   56.9503 C   0  0  0  0  0  0  0  0  0  0  0  0
  -11.0238   44.6585   56.9702 C   0  0  0  0  0  0  0  0  0  0  0  0
  -11.8653   46.6881   55.8776 C   0  0  0  0  0  0  0  0  0  0  0  0
  6  7  1  0  0  0
  6  5  1  0  0  0
  7  8  2  0  0  0
  7  9  1  0  0  0
  9 10  1  0  0  0
  5  1  1  0  0  0
  5 13  1  0  0  0
  1  2  2  0  0  0
  1  3  1  0  0  0
 13 14  1  0  0  0
 14 15  1  0  0  0
 15 16  1  0  0  0
 16 17  1  0  0  0
  3 18  1  0  0  0
 18 29  1  0  0  0
 18 19  1  0  0  0
 29 30  1  0  0  0
 29 31  1  0  0  0
 19 20  2  0  0  0
 19 21  1  0  0  0
 21 22  1  0  0  0
 21 23  1  0  0  0
 22 25  1  0  0  0
 22 26  1  0  0  0
 23 24  1  0  0  0
 24 25  1  0  0  0
 26 27  1  0  0  0
  9 11  1  0  0  0
 10 12  1  0  0  0
  3  4  1  0  0  0
 27 28  1  0  0  0
M  END
> <minimizedAffinity>
-7.45261

$$$$
1WS1_BB2_A_400


 31 31  0  0  0  0  0  0  0  0999 V2000
   -8.1948   45.7628   55.7213 C   0  0  0  0  0  0  0  0  0  0  0  0
   -7.7273   46.8702   55.8330 O   0  0  0  0  0  0  0  0  0  0  0  0
   -9.4700   45.4225   56.0741 N   0  0  0  0  0  0  0  0  0  0  0  0
   -9.7344   44.4822   55.9508 H   0  0  0  0  0  0  0  0  0  0  0  0
   -7.3593   44.6270   55.1354 C   0  0  0  0  0  0  0  0  0  0  0  0
   -5.8139   44.6926   55.5422 C   0  0  0  0  0  0  0  0  0  0  0  0
   -5.0363   44.3265   54.2733 C   0  0  0  0  0  0  0  0  0  0  0  0
   -5.1885   45.0617   53.3244 O   0  0  0  0  0  0  0  0  0  0  0  0
   -4.2639   43.2437   54.2102 N   0  0  0  0  0  0  0  0  0  0  0  0
   -3.6503   42.9449   53.1695 O   0  0  0  0  0  0  0  0  0  0  0  0
   -4.1764   42.6673   55.0035 H   0  0  0  0  0  0  0  0  0  0  0  0
   -3.8372   43.6046   52.4833 H   0  0  0  0  0  0  0  0  0  0  0  0
   -7.9610   43.2952   55.6967 C   0  0  0  0  0  0  0  0  0  0  0  0
   -8.2647   42.4622   54.4283 C   0  0  0  0  0  0  0  0  0  0  0  0
   -9.5331   42.7812   53.8200 C   0  0  0  0  0  0  0  0  0  0  0  0
  -10.4452   41.5635   53.7554 C   0  0  0  0  0  0  0  0  0  0  0  0
  -10.9357   41.1182   55.0848 C   0  0  0  0  0  0  0  0  0  0  0  0
  -10.4662   46.3229   56.6131 C   0  0  0  0  0  0  0  0  0  0  0  0
  -10.1073   46.5135   58.1152 C   0  0  0  0  0  0  0  0  0  0  0  0
   -9.9717   45.5016   58.8364 O   0  0  0  0  0  0  0  0  0  0  0  0
   -9.9283   47.7599   58.6037 N   0  0  0  0  0  0  0  0  0  0  0  0
   -9.5642   47.9916   60.0132 C   0  0  0  0  0  0  0  0  0  0  0  0
  -10.0475   49.0501   57.8638 C   0  0  0  0  0  0  0  0  0  0  0  0
   -9.7390   50.0915   58.9126 C   0  0  0  0  0  0  0  0  0  0  0  0
   -8.9802   49.3950   59.9847 C   0  0  0  0  0  0  0  0  0  0  0  0
  -10.7599   47.9317   60.9353 C   0  0  0  0  0  0  0  0  0  0  0  0
  -10.9379   46.8211   61.4662 O   0  0  0  0  0  0  0  0  0  0  0  0
  -11.1119   46.1586   60.7794 H   0  0  0  0  0  0  0  0  0  0  0  0
  -11.9203   45.8757   56.4009 C   0  0  0  0  0  0  0  0  0  0  0  0
  -12.0158   44.6901   55.5208 C   0  0  0  0  0  0  0  0  0  0  0  0
  -12.6724   47.0395   55.7867 C   0  0  0  0  0  0  0  0  0  0  0  0
  6  7  1  0  0  0
  6  5  1  0  0  0
  7  8  2  0  0  0
  7  9  1  0  0  0
  9 10  1  0  0  0
  5  1  1  0  0  0
  5 13  1  0  0  0
  1  2  2  0  0  0
  1  3  1  0  0  0
 13 14  1  0  0  0
 14 15  1  0  0  0
 15 16  1  0  0  0
 16 17  1  0  0  0
  3 18  1  0  0  0
 18 29  1  0  0  0
 18 19  1  0  0  0
 29 30  1  0  0  0
 29 31  1  0  0  0
 19 20  2  0  0  0
 19 21  1  0  0  0
 21 22  1  0  0  0
 21 23  1  0  0  0
 22 25  1  0  0  0
 22 26  1  0  0  0
 23 24  1  0  0  0
 24 25  1  0  0  0
 26 27  1  0  0  0
  9 11  1  0  0  0
 10 12  1  0  0  0
  3  4  1  0  0  0
 27 28  1  0  0  0
M  END
> <minimizedAffinity>
-7.38412

$$$$
1WS1_BB2_A_400


 31 31  0  0  0  0  0  0  0  0999 V2000
   -7.5945   45.3964   56.1542 C   0  0  0  0  0  0  0  0  0  0  0  0
   -7.7581   45.2113   57.3359 O   0  0  0  0  0  0  0  0  0  0  0  0
   -8.1115   46.4520   55.4578 N   0  0  0  0  0  0  0  0  0  0  0  0
   -7.9227   46.4888   54.4923 H   0  0  0  0  0  0  0  0  0  0  0  0
   -6.7466   44.4296   55.3309 C   0  0  0  0  0  0  0  0  0  0  0  0
   -5.1731   44.6819   55.4669 C   0  0  0  0  0  0  0  0  0  0  0  0
   -4.5697   44.2662   54.1208 C   0  0  0  0  0  0  0  0  0  0  0  0
   -4.7172   45.0459   53.2074 O   0  0  0  0  0  0  0  0  0  0  0  0
   -3.9479   43.0999   53.9595 N   0  0  0  0  0  0  0  0  0  0  0  0
   -3.4766   42.7635   52.8579 O   0  0  0  0  0  0  0  0  0  0  0  0
   -3.8590   42.4909   54.7279 H   0  0  0  0  0  0  0  0  0  0  0  0
   -3.6432   43.4636   52.2076 H   0  0  0  0  0  0  0  0  0  0  0  0
   -7.0637   42.9925   55.8646 C   0  0  0  0  0  0  0  0  0  0  0  0
   -7.5828   42.2397   54.6162 C   0  0  0  0  0  0  0  0  0  0  0  0
   -8.8463   41.5765   54.8276 C   0  0  0  0  0  0  0  0  0  0  0  0
   -9.9100   42.5446   55.3279 C   0  0  0  0  0  0  0  0  0  0  0  0
  -10.6297   43.2509   54.2372 C   0  0  0  0  0  0  0  0  0  0  0  0
   -8.9123   47.5206   56.0149 C   0  0  0  0  0  0  0  0  0  0  0  0
   -7.9062   48.5494   56.6071 C   0  0  0  0  0  0  0  0  0  0  0  0
   -7.3778   48.3083   57.7141 O   0  0  0  0  0  0  0  0  0  0  0  0
   -7.6074   49.6660   55.9086 N   0  0  0  0  0  0  0  0  0  0  0  0
   -6.6430   50.6589   56.4157 C   0  0  0  0  0  0  0  0  0  0  0  0
   -8.1497   50.0778   54.5810 C   0  0  0  0  0  0  0  0  0  0  0  0
   -7.4601   51.3928   54.3073 C   0  0  0  0  0  0  0  0  0  0  0  0
   -6.2407   51.4119   55.1576 C   0  0  0  0  0  0  0  0  0  0  0  0
   -7.2601   51.5999   57.4244 C   0  0  0  0  0  0  0  0  0  0  0  0
   -7.1033   51.2512   58.6078 O   0  0  0  0  0  0  0  0  0  0  0  0
   -7.5406   50.3978   58.7541 H   0  0  0  0  0  0  0  0  0  0  0  0
   -9.9700   47.0690   57.0330 C   0  0  0  0  0  0  0  0  0  0  0  0
  -11.0278   46.2440   56.4087 C   0  0  0  0  0  0  0  0  0  0  0  0
  -10.5779   48.3152   57.6453 C   0  0  0  0  0  0  0  0  0  0  0  0
  6  7  1  0  0  0
  6  5  1  0  0  0
  7  8  2  0  0  0
  7  9  1  0  0  0
  9 10  1  0  0  0
  5  1  1  0  0  0
  5 13  1  0  0  0
  1  2  2  0  0  0
  1  3  1  0  0  0
 13 14  1  0  0  0
 14 15  1  0  0  0
 15 16  1  0  0  0
 16 17  1  0  0  0
  3 18  1  0  0  0
 18 29  1  0  0  0
 18 19  1  0  0  0
 29 30  1  0  0  0
 29 31  1  0  0  0
 19 20  2  0  0  0
 19 21  1  0  0  0
 21 22  1  0  0  0
 21 23  1  0  0  0
 22 25  1  0  0  0
 22 26  1  0  0  0
 23 24  1  0  0  0
 24 25  1  0  0  0
 26 27  1  0  0  0
  9 11  1  0  0  0
 10 12  1  0  0  0
  3  4  1  0  0  0
 27 28  1  0  0  0
M  END
> <minimizedAffinity>
-7.30610

$$$$
1WS1_BB2_A_400


 31 31  0  0  0  0  0  0  0  0999 V2000
   -9.2356   47.2042   55.7214 C   0  0  0  0  0  0  0  0  0  0  0  0
  -10.1363   47.9868   55.5384 O   0  0  0  0  0  0  0  0  0  0  0  0
   -9.3952   45.8511   55.8228 N   0  0  0  0  0  0  0  0  0  0  0  0
   -8.5865   45.3146   55.9879 H   0  0  0  0  0  0  0  0  0  0  0  0
   -7.7952   47.6975   55.8375 C   0  0  0  0  0  0  0  0  0  0  0  0
   -7.6740   49.2033   56.3628 C   0  0  0  0  0  0  0  0  0  0  0  0
   -7.3621   50.0497   55.1238 C   0  0  0  0  0  0  0  0  0  0  0  0
   -6.2273   50.4590   55.0301 O   0  0  0  0  0  0  0  0  0  0  0  0
   -8.2951   50.3436   54.2203 N   0  0  0  0  0  0  0  0  0  0  0  0
   -8.0364   51.0465   53.2265 O   0  0  0  0  0  0  0  0  0  0  0  0
   -9.2088   49.9975   54.3411 H   0  0  0  0  0  0  0  0  0  0  0  0
   -7.1025   51.3078   53.2495 H   0  0  0  0  0  0  0  0  0  0  0  0
   -7.0832   46.7570   56.8668 C   0  0  0  0  0  0  0  0  0  0  0  0
   -6.1540   45.8839   55.9900 C   0  0  0  0  0  0  0  0  0  0  0  0
   -6.2732   44.4709   56.2544 C   0  0  0  0  0  0  0  0  0  0  0  0
   -5.6297   43.6388   55.1533 C   0  0  0  0  0  0  0  0  0  0  0  0
   -5.0889   44.4520   54.0342 C   0  0  0  0  0  0  0  0  0  0  0  0
  -10.6488   45.1376   55.7087 C   0  0  0  0  0  0  0  0  0  0  0  0
  -11.4458   45.4563   57.0066 C   0  0  0  0  0  0  0  0  0  0  0  0
  -10.9703   45.1059   58.1083 O   0  0  0  0  0  0  0  0  0  0  0  0
  -12.6185   46.1208   56.9212 N   0  0  0  0  0  0  0  0  0  0  0  0
  -13.3989   46.4671   58.1230 C   0  0  0  0  0  0  0  0  0  0  0  0
  -13.2985   46.6057   55.6848 C   0  0  0  0  0  0  0  0  0  0  0  0
  -14.5521   47.2676   56.2045 C   0  0  0  0  0  0  0  0  0  0  0  0
  -14.2933   47.5940   57.6316 C   0  0  0  0  0  0  0  0  0  0  0  0
  -14.2297   45.3089   58.6249 C   0  0  0  0  0  0  0  0  0  0  0  0
  -13.6705   44.6224   59.4982 O   0  0  0  0  0  0  0  0  0  0  0  0
  -12.8688   44.2201   59.1291 H   0  0  0  0  0  0  0  0  0  0  0  0
  -10.5102   43.6298   55.4508 C   0  0  0  0  0  0  0  0  0  0  0  0
   -9.4074   43.3241   54.5128 C   0  0  0  0  0  0  0  0  0  0  0  0
  -11.8264   43.1396   54.8811 C   0  0  0  0  0  0  0  0  0  0  0  0
  6  7  1  0  0  0
  6  5  1  0  0  0
  7  8  2  0  0  0
  7  9  1  0  0  0
  9 10  1  0  0  0
  5  1  1  0  0  0
  5 13  1  0  0  0
  1  2  2  0  0  0
  1  3  1  0  0  0
 13 14  1  0  0  0
 14 15  1  0  0  0
 15 16  1  0  0  0
 16 17  1  0  0  0
  3 18  1  0  0  0
 18 29  1  0  0  0
 18 19  1  0  0  0
 29 30  1  0  0  0
 29 31  1  0  0  0
 19 20  2  0  0  0
 19 21  1  0  0  0
 21 22  1  0  0  0
 21 23  1  0  0  0
 22 25  1  0  0  0
 22 26  1  0  0  0
 23 24  1  0  0  0
 24 25  1  0  0  0
 26 27  1  0  0  0
  9 11  1  0  0  0
 10 12  1  0  0  0
  3  4  1  0  0  0
 27 28  1  0  0  0
M  END
> <minimizedAffinity>
-6.72447

$$$$
1WS1_BB2_A_400


 31 31  0  0  0  0  0  0  0  0999 V2000
  -10.2531   44.8771   56.0860 C   0  0  0  0  0  0  0  0  0  0  0  0
  -10.2257   44.5879   57.2578 O   0  0  0  0  0  0  0  0  0  0  0  0
   -9.2539   45.5376   55.4289 N   0  0  0  0  0  0  0  0  0  0  0  0
   -9.3962   45.7321   54.4744 H   0  0  0  0  0  0  0  0  0  0  0  0
  -11.4510   44.4892   55.2223 C   0  0  0  0  0  0  0  0  0  0  0  0
  -11.5823   42.9138   54.9791 C   0  0  0  0  0  0  0  0  0  0  0  0
  -10.2473   42.4774   54.3657 C   0  0  0  0  0  0  0  0  0  0  0  0
   -9.9827   42.9418   53.2802 O   0  0  0  0  0  0  0  0  0  0  0  0
   -9.4417   41.6123   54.9785 N   0  0  0  0  0  0  0  0  0  0  0  0
   -8.3678   41.2503   54.4642 O   0  0  0  0  0  0  0  0  0  0  0  0
   -9.7011   41.2513   55.8569 H   0  0  0  0  0  0  0  0  0  0  0  0
   -8.2555   41.6901   53.6069 H   0  0  0  0  0  0  0  0  0  0  0  0
  -12.7277   44.9788   55.9846 C   0  0  0  0  0  0  0  0  0  0  0  0
  -12.8060   46.4867   55.6462 C   0  0  0  0  0  0  0  0  0  0  0  0
  -14.1071   47.0631   55.8821 C   0  0  0  0  0  0  0  0  0  0  0  0
  -14.8975   46.2608   56.9071 C   0  0  0  0  0  0  0  0  0  0  0  0
  -15.8504   47.0821   57.6968 C   0  0  0  0  0  0  0  0  0  0  0  0
   -8.0049   45.9764   56.0129 C   0  0  0  0  0  0  0  0  0  0  0  0
   -8.0955   47.5268   56.1099 C   0  0  0  0  0  0  0  0  0  0  0  0
   -7.7862   48.2130   55.1118 O   0  0  0  0  0  0  0  0  0  0  0  0
   -8.5251   48.0980   57.2558 N   0  0  0  0  0  0  0  0  0  0  0  0
   -8.6509   49.5607   57.3894 C   0  0  0  0  0  0  0  0  0  0  0  0
   -8.9338   47.4097   58.5149 C   0  0  0  0  0  0  0  0  0  0  0  0
   -9.3135   48.5455   59.4343 C   0  0  0  0  0  0  0  0  0  0  0  0
   -9.6084   49.7116   58.5606 C   0  0  0  0  0  0  0  0  0  0  0  0
   -7.3296   50.2282   57.6931 C   0  0  0  0  0  0  0  0  0  0  0  0
   -6.7838   50.7494   56.7046 O   0  0  0  0  0  0  0  0  0  0  0  0
   -6.5787   50.0640   56.0496 H   0  0  0  0  0  0  0  0  0  0  0  0
   -6.7458   45.4991   55.2739 C   0  0  0  0  0  0  0  0  0  0  0  0
   -7.0482   44.4423   54.2834 C   0  0  0  0  0  0  0  0  0  0  0  0
   -5.7762   44.9733   56.3135 C   0  0  0  0  0  0  0  0  0  0  0  0
  6  7  1  0  0  0
  6  5  1  0  0  0
  7  8  2  0  0  0
  7  9  1  0  0  0
  9 10  1  0  0  0
  5  1  1  0  0  0
  5 13  1  0  0  0
  1  2  2  0  0  0
  1  3  1  0  0  0
 13 14  1  0  0  0
 14 15  1  0  0  0
 15 16  1  0  0  0
 16 17  1  0  0  0
  3 18  1  0  0  0
 18 29  1  0  0  0
 18 19  1  0  0  0
 29 30  1  0  0  0
 29 31  1  0  0  0
 19 20  2  0  0  0
 19 21  1  0  0  0
 21 22  1  0  0  0
 21 23  1  0  0  0
 22 25  1  0  0  0
 22 26  1  0  0  0
 23 24  1  0  0  0
 24 25  1  0  0  0
 26 27  1  0  0  0
  9 11  1  0  0  0
 10 12  1  0  0  0
  3  4  1  0  0  0
 27 28  1  0  0  0
M  END
> <minimizedAffinity>
-6.50165

$$$$
1WS1_BB2_A_400


 31 31  0  0  0  0  0  0  0  0999 V2000
   -8.8841   45.2595   55.6295 C   0  0  0  0  0  0  0  0  0  0  0  0
   -9.9871   45.3899   55.1564 O   0  0  0  0  0  0  0  0  0  0  0  0
   -8.3592   46.0640   56.6009 N   0  0  0  0  0  0  0  0  0  0  0  0
   -7.4410   45.8690   56.8980 H   0  0  0  0  0  0  0  0  0  0  0  0
   -7.9731   44.1258   55.1646 C   0  0  0  0  0  0  0  0  0  0  0  0
   -6.5461   44.1131   55.8868 C   0  0  0  0  0  0  0  0  0  0  0  0
   -5.5130   44.2564   54.7638 C   0  0  0  0  0  0  0  0  0  0  0  0
   -5.3855   45.3648   54.2955 O   0  0  0  0  0  0  0  0  0  0  0  0
   -4.8202   43.2142   54.3091 N   0  0  0  0  0  0  0  0  0  0  0  0
   -3.9961   43.3372   53.3847 O   0  0  0  0  0  0  0  0  0  0  0  0
   -4.9628   42.3276   54.7127 H   0  0  0  0  0  0  0  0  0  0  0  0
   -3.9700   44.2629   53.0959 H   0  0  0  0  0  0  0  0  0  0  0  0
   -8.7124   42.7896   55.5094 C   0  0  0  0  0  0  0  0  0  0  0  0
   -8.9189   42.1142   54.1325 C   0  0  0  0  0  0  0  0  0  0  0  0
  -10.2958   42.0906   53.7033 C   0  0  0  0  0  0  0  0  0  0  0  0
  -11.2487   41.9704   54.8850 C   0  0  0  0  0  0  0  0  0  0  0  0
  -12.3135   43.0060   54.8964 C   0  0  0  0  0  0  0  0  0  0  0  0
   -9.0343   47.1777   57.2315 C   0  0  0  0  0  0  0  0  0  0  0  0
   -8.0118   48.3507   57.2438 C   0  0  0  0  0  0  0  0  0  0  0  0
   -6.9540   48.2360   56.5877 O   0  0  0  0  0  0  0  0  0  0  0  0
   -8.2944   49.4726   57.9406 N   0  0  0  0  0  0  0  0  0  0  0  0
   -7.3694   50.6202   57.9641 C   0  0  0  0  0  0  0  0  0  0  0  0
   -9.5124   49.7515   58.7559 C   0  0  0  0  0  0  0  0  0  0  0  0
   -9.2731   51.1441   59.2879 C   0  0  0  0  0  0  0  0  0  0  0  0
   -8.2690   51.7701   58.3880 C   0  0  0  0  0  0  0  0  0  0  0  0
   -6.2430   50.4332   58.9540 C   0  0  0  0  0  0  0  0  0  0  0  0
   -5.6884   51.4914   59.2995 O   0  0  0  0  0  0  0  0  0  0  0  0
   -5.2808   51.9105   58.5255 H   0  0  0  0  0  0  0  0  0  0  0  0
   -9.6112   46.8767   58.6228 C   0  0  0  0  0  0  0  0  0  0  0  0
   -8.9100   45.7551   59.2859 C   0  0  0  0  0  0  0  0  0  0  0  0
  -11.0784   46.5397   58.4472 C   0  0  0  0  0  0  0  0  0  0  0  0
  6  7  1  0  0  0
  6  5  1  0  0  0
  7  8  2  0  0  0
  7  9  1  0  0  0
  9 10  1  0  0  0
  5  1  1  0  0  0
  5 13  1  0  0  0
  1  2  2  0  0  0
  1  3  1  0  0  0
 13 14  1  0  0  0
 14 15  1  0  0  0
 15 16  1  0  0  0
 16 17  1  0  0  0
  3 18  1  0  0  0
 18 29  1  0  0  0
 18 19  1  0  0  0
 29 30  1  0  0  0
 29 31  1  0  0  0
 19 20  2  0  0  0
 19 21  1  0  0  0
 21 22  1  0  0  0
 21 23  1  0  0  0
 22 25  1  0  0  0
 22 26  1  0  0  0
 23 24  1  0  0  0
 24 25  1  0  0  0
 26 27  1  0  0  0
  9 11  1  0  0  0
 10 12  1  0  0  0
  3  4  1  0  0  0
 27 28  1  0  0  0
M  END
> <minimizedAffinity>
-6.38359

$$$$
1WS1_BB2_A_400


 31 31  0  0  0  0  0  0  0  0999 V2000
   -9.1490   46.5799   56.1759 C   0  0  0  0  0  0  0  0  0  0  0  0
   -9.8296   47.4857   55.7590 O   0  0  0  0  0  0  0  0  0  0  0  0
   -9.5784   45.2904   56.3147 N   0  0  0  0  0  0  0  0  0  0  0  0
   -8.9361   44.6402   56.6807 H   0  0  0  0  0  0  0  0  0  0  0  0
   -7.6956   46.8257   56.5742 C   0  0  0  0  0  0  0  0  0  0  0  0
   -6.6413   46.3850   55.4551 C   0  0  0  0  0  0  0  0  0  0  0  0
   -6.4129   44.8849   55.6699 C   0  0  0  0  0  0  0  0  0  0  0  0
   -6.5745   44.4775   56.7977 O   0  0  0  0  0  0  0  0  0  0  0  0
   -6.0276   44.0836   54.6787 N   0  0  0  0  0  0  0  0  0  0  0  0
   -5.8276   42.8698   54.8669 O   0  0  0  0  0  0  0  0  0  0  0  0
   -5.8983   44.4593   53.7779 H   0  0  0  0  0  0  0  0  0  0  0  0
   -5.9959   42.6549   55.7977 H   0  0  0  0  0  0  0  0  0  0  0  0
   -7.5517   48.3669   56.8080 C   0  0  0  0  0  0  0  0  0  0  0  0
   -7.1313   48.9143   55.4230 C   0  0  0  0  0  0  0  0  0  0  0  0
   -6.9036   50.3386   55.4116 C   0  0  0  0  0  0  0  0  0  0  0  0
   -7.1502   50.9561   56.7815 C   0  0  0  0  0  0  0  0  0  0  0  0
   -6.0758   51.8854   57.2157 C   0  0  0  0  0  0  0  0  0  0  0  0
  -10.8943   44.7966   55.9711 C   0  0  0  0  0  0  0  0  0  0  0  0
  -11.8238   45.1852   57.1570 C   0  0  0  0  0  0  0  0  0  0  0  0
  -11.5682   44.7377   58.2959 O   0  0  0  0  0  0  0  0  0  0  0  0
  -12.8699   46.0113   56.9397 N   0  0  0  0  0  0  0  0  0  0  0  0
  -13.7652   46.4277   58.0343 C   0  0  0  0  0  0  0  0  0  0  0  0
  -13.2877   46.6248   55.6454 C   0  0  0  0  0  0  0  0  0  0  0  0
  -14.5030   47.4413   56.0146 C   0  0  0  0  0  0  0  0  0  0  0  0
  -14.4161   47.6842   57.4787 C   0  0  0  0  0  0  0  0  0  0  0  0
  -14.8103   45.3839   58.3537 C   0  0  0  0  0  0  0  0  0  0  0  0
  -14.4673   44.5724   59.2315 O   0  0  0  0  0  0  0  0  0  0  0  0
  -13.6935   44.0735   58.9260 H   0  0  0  0  0  0  0  0  0  0  0  0
  -10.9526   43.2989   55.6355 C   0  0  0  0  0  0  0  0  0  0  0  0
   -9.7597   42.8494   54.8843 C   0  0  0  0  0  0  0  0  0  0  0  0
  -12.2032   43.0621   54.8127 C   0  0  0  0  0  0  0  0  0  0  0  0
  6  7  1  0  0  0
  6  5  1  0  0  0
  7  8  2  0  0  0
  7  9  1  0  0  0
  9 10  1  0  0  0
  5  1  1  0  0  0
  5 13  1  0  0  0
  1  2  2  0  0  0
  1  3  1  0  0  0
 13 14  1  0  0  0
 14 15  1  0  0  0
 15 16  1  0  0  0
 16 17  1  0  0  0
  3 18  1  0  0  0
 18 29  1  0  0  0
 18 19  1  0  0  0
 29 30  1  0  0  0
 29 31  1  0  0  0
 19 20  2  0  0  0
 19 21  1  0  0  0
 21 22  1  0  0  0
 21 23  1  0  0  0
 22 25  1  0  0  0
 22 26  1  0  0  0
 23 24  1  0  0  0
 24 25  1  0  0  0
 26 27  1  0  0  0
  9 11  1  0  0  0
 10 12  1  0  0  0
  3  4  1  0  0  0
 27 28  1  0  0  0
M  END
> <minimizedAffinity>
-6.12430

$$$$
1WS1_BB2_A_400


 31 31  0  0  0  0  0  0  0  0999 V2000
   -8.6055   45.5216   57.4815 C   0  0  0  0  0  0  0  0  0  0  0  0
   -7.7608   45.2680   58.3058 O   0  0  0  0  0  0  0  0  0  0  0  0
   -9.8166   46.0872   57.7640 N   0  0  0  0  0  0  0  0  0  0  0  0
  -10.4312   46.2331   57.0089 H   0  0  0  0  0  0  0  0  0  0  0  0
   -8.3549   45.2305   56.0037 C   0  0  0  0  0  0  0  0  0  0  0  0
   -7.6140   43.8375   55.7417 C   0  0  0  0  0  0  0  0  0  0  0  0
   -6.2888   44.1957   55.0603 C   0  0  0  0  0  0  0  0  0  0  0  0
   -6.1733   45.3415   54.6892 O   0  0  0  0  0  0  0  0  0  0  0  0
   -5.3340   43.2895   54.8600 N   0  0  0  0  0  0  0  0  0  0  0  0
   -4.2683   43.5859   54.2898 O   0  0  0  0  0  0  0  0  0  0  0  0
   -5.4740   42.3655   55.1696 H   0  0  0  0  0  0  0  0  0  0  0  0
   -4.2818   44.5249   54.0471 H   0  0  0  0  0  0  0  0  0  0  0  0
   -9.7597   45.1793   55.3147 C   0  0  0  0  0  0  0  0  0  0  0  0
   -9.8999   43.7044   54.8679 C   0  0  0  0  0  0  0  0  0  0  0  0
  -11.1309   43.0871   55.2973 C   0  0  0  0  0  0  0  0  0  0  0  0
  -11.1873   41.6172   54.9037 C   0  0  0  0  0  0  0  0  0  0  0  0
  -10.4403   41.3073   53.6578 C   0  0  0  0  0  0  0  0  0  0  0  0
  -10.2752   46.4905   59.0757 C   0  0  0  0  0  0  0  0  0  0  0  0
  -11.3724   45.4649   59.4830 C   0  0  0  0  0  0  0  0  0  0  0  0
  -12.1246   45.0026   58.5981 O   0  0  0  0  0  0  0  0  0  0  0  0
  -11.4767   45.0790   60.7730 N   0  0  0  0  0  0  0  0  0  0  0  0
  -12.4837   44.0927   61.2046 C   0  0  0  0  0  0  0  0  0  0  0  0
  -10.6483   45.5362   61.9266 C   0  0  0  0  0  0  0  0  0  0  0  0
  -11.2160   44.7710   63.0978 C   0  0  0  0  0  0  0  0  0  0  0  0
  -11.9229   43.5944   62.5270 C   0  0  0  0  0  0  0  0  0  0  0  0
  -13.8481   44.7108   61.4046 C   0  0  0  0  0  0  0  0  0  0  0  0
  -14.6018   44.6094   60.4205 O   0  0  0  0  0  0  0  0  0  0  0  0
  -14.2152   45.0826   59.6671 H   0  0  0  0  0  0  0  0  0  0  0  0
  -10.7568   47.9460   59.1700 C   0  0  0  0  0  0  0  0  0  0  0  0
  -10.8331   48.5947   57.8423 C   0  0  0  0  0  0  0  0  0  0  0  0
   -9.7824   48.6943   60.0576 C   0  0  0  0  0  0  0  0  0  0  0  0
  6  7  1  0  0  0
  6  5  1  0  0  0
  7  8  2  0  0  0
  7  9  1  0  0  0
  9 10  1  0  0  0
  5  1  1  0  0  0
  5 13  1  0  0  0
  1  2  2  0  0  0
  1  3  1  0  0  0
 13 14  1  0  0  0
 14 15  1  0  0  0
 15 16  1  0  0  0
 16 17  1  0  0  0
  3 18  1  0  0  0
 18 29  1  0  0  0
 18 19  1  0  0  0
 29 30  1  0  0  0
 29 31  1  0  0  0
 19 20  2  0  0  0
 19 21  1  0  0  0
 21 22  1  0  0  0
 21 23  1  0  0  0
 22 25  1  0  0  0
 22 26  1  0  0  0
 23 24  1  0  0  0
 24 25  1  0  0  0
 26 27  1  0  0  0
  9 11  1  0  0  0
 10 12  1  0  0  0
  3  4  1  0  0  0
 27 28  1  0  0  0
M  END
> <minimizedAffinity>
-6.05222

$$$$
1WS1_BB2_A_400


 31 31  0  0  0  0  0  0  0  0999 V2000
   -7.2706   46.2485   56.6298 C   0  0  0  0  0  0  0  0  0  0  0  0
   -6.2851   46.5598   57.2538 O   0  0  0  0  0  0  0  0  0  0  0  0
   -8.5158   46.7698   56.8400 N   0  0  0  0  0  0  0  0  0  0  0  0
   -9.2472   46.4264   56.2776 H   0  0  0  0  0  0  0  0  0  0  0  0
   -7.1795   45.2210   55.5040 C   0  0  0  0  0  0  0  0  0  0  0  0
   -6.0570   44.1070   55.7425 C   0  0  0  0  0  0  0  0  0  0  0  0
   -5.1340   44.1818   54.5213 C   0  0  0  0  0  0  0  0  0  0  0  0
   -5.1509   45.2223   53.9038 O   0  0  0  0  0  0  0  0  0  0  0  0
   -4.3822   43.1496   54.1442 N   0  0  0  0  0  0  0  0  0  0  0  0
   -3.6491   43.2140   53.1406 O   0  0  0  0  0  0  0  0  0  0  0  0
   -4.4067   42.3179   54.6704 H   0  0  0  0  0  0  0  0  0  0  0  0
   -3.7348   44.0902   52.7333 H   0  0  0  0  0  0  0  0  0  0  0  0
   -8.5728   44.5106   55.4348 C   0  0  0  0  0  0  0  0  0  0  0  0
   -8.3423   43.3377   54.4520 C   0  0  0  0  0  0  0  0  0  0  0  0
   -9.5638   42.7762   53.9289 C   0  0  0  0  0  0  0  0  0  0  0  0
  -10.5792   42.5171   55.0338 C   0  0  0  0  0  0  0  0  0  0  0  0
  -11.0955   41.1245   55.0507 C   0  0  0  0  0  0  0  0  0  0  0  0
   -8.8539   47.7823   57.8168 C   0  0  0  0  0  0  0  0  0  0  0  0
  -10.1755   47.3092   58.4882 C   0  0  0  0  0  0  0  0  0  0  0  0
  -10.2029   47.1620   59.7293 O   0  0  0  0  0  0  0  0  0  0  0  0
  -11.2680   47.0892   57.7252 N   0  0  0  0  0  0  0  0  0  0  0  0
  -12.5495   46.6633   58.3164 C   0  0  0  0  0  0  0  0  0  0  0  0
  -11.3841   47.2318   56.2445 C   0  0  0  0  0  0  0  0  0  0  0  0
  -12.8199   46.8595   55.9627 C   0  0  0  0  0  0  0  0  0  0  0  0
  -13.5577   47.0361   57.2413 C   0  0  0  0  0  0  0  0  0  0  0  0
  -12.5919   45.1783   58.5934 C   0  0  0  0  0  0  0  0  0  0  0  0
  -13.6729   44.7786   59.0606 O   0  0  0  0  0  0  0  0  0  0  0  0
  -13.8309   45.2027   59.9185 H   0  0  0  0  0  0  0  0  0  0  0  0
   -8.9482   49.2099   57.2581 C   0  0  0  0  0  0  0  0  0  0  0  0
   -7.7079   49.6191   56.5626 C   0  0  0  0  0  0  0  0  0  0  0  0
   -9.2207   50.1406   58.4230 C   0  0  0  0  0  0  0  0  0  0  0  0
  6  7  1  0  0  0
  6  5  1  0  0  0
  7  8  2  0  0  0
  7  9  1  0  0  0
  9 10  1  0  0  0
  5  1  1  0  0  0
  5 13  1  0  0  0
  1  2  2  0  0  0
  1  3  1  0  0  0
 13 14  1  0  0  0
 14 15  1  0  0  0
 15 16  1  0  0  0
 16 17  1  0  0  0
  3 18  1  0  0  0
 18 29  1  0  0  0
 18 19  1  0  0  0
 29 30  1  0  0  0
 29 31  1  0  0  0
 19 20  2  0  0  0
 19 21  1  0  0  0
 21 22  1  0  0  0
 21 23  1  0  0  0
 22 25  1  0  0  0
 22 26  1  0  0  0
 23 24  1  0  0  0
 24 25  1  0  0  0
 26 27  1  0  0  0
  9 11  1  0  0  0
 10 12  1  0  0  0
  3  4  1  0  0  0
 27 28  1  0  0  0
M  END
> <minimizedAffinity>
-6.02000

$$$$
