3LK8_Z79_A_0


 20 20  0  0  0  0  0  0  0  0999 V2000
    3.2575   -6.2332    6.6420 S   0  0  0  0  0  0  0  0  0  0  0  0
    2.2007   -5.6017    7.4207 O   0  0  0  0  0  0  0  0  0  0  0  0
    2.7928   -7.5154    6.1793 O   0  0  0  0  0  0  0  0  0  0  0  0
    4.4859   -6.5287    7.6420 C   0  0  0  0  0  0  0  0  0  0  0  0
    4.2552   -6.5369    9.0277 C   0  0  0  0  0  0  0  0  0  0  0  0
    5.2799   -6.8534    9.9227 C   0  0  0  0  0  0  0  0  0  0  0  0
    6.5422   -7.1645    9.4461 C   0  0  0  0  0  0  0  0  0  0  0  0
    6.7828   -7.1775    8.0611 C   0  0  0  0  0  0  0  0  0  0  0  0
    5.7563   -6.8619    7.1670 C   0  0  0  0  0  0  0  0  0  0  0  0
    7.5280   -7.4762   10.3490 O   0  0  0  0  0  0  0  0  0  0  0  0
    7.9469   -8.8205   10.5682 C   0  0  0  0  0  0  0  0  0  0  0  0
    3.5568   -5.2603    5.4219 N   0  0  0  0  0  0  0  0  0  0  0  0
    3.9272   -4.3957    5.8164 H   0  0  0  0  0  0  0  0  0  0  0  0
    2.4850   -4.8876    4.5256 C   0  0  0  0  0  0  0  0  0  0  0  0
    2.3541   -2.7238    3.5432 O   0  0  0  0  0  0  0  0  0  0  0  0
    2.2500   -3.3881    4.5655 C   0  0  0  0  0  0  0  0  0  0  0  0
    1.9291   -2.8560    5.7554 N   0  0  0  0  0  0  0  0  0  0  0  0
    1.7708   -1.4840    5.8665 O   0  0  0  0  0  0  0  0  0  0  0  0
    1.8072   -3.4353    6.5419 H   0  0  0  0  0  0  0  0  0  0  0  0
    1.9260   -1.0696    5.0033 H   0  0  0  0  0  0  0  0  0  0  0  0
 15 16  2  0  0  0
 16 17  1  0  0  0
 16 14  1  0  0  0
 17 18  1  0  0  0
 14 12  1  0  0  0
 12  1  1  0  0  0
  1  2  2  0  0  0
  1  3  2  0  0  0
  1  4  1  0  0  0
  4  5  2  0  0  0
  4  9  1  0  0  0
  5  6  1  0  0  0
  6  7  2  0  0  0
  7 10  1  0  0  0
  7  8  1  0  0  0
 10 11  1  0  0  0
  8  9  2  0  0  0
 17 19  1  0  0  0
 18 20  1  0  0  0
 12 13  1  0  0  0
M  END
> <minimizedAffinity>
-7.96410

$$$$
3LK8_Z79_A_0


 20 20  0  0  0  0  0  0  0  0999 V2000
    3.9286   -6.3407    8.5871 S   0  0  0  0  0  0  0  0  0  0  0  0
    3.5851   -7.3770    9.5515 O   0  0  0  0  0  0  0  0  0  0  0  0
    3.7066   -5.0515    9.1894 O   0  0  0  0  0  0  0  0  0  0  0  0
    2.8888   -6.4551    7.3617 C   0  0  0  0  0  0  0  0  0  0  0  0
    1.8397   -5.5260    7.2636 C   0  0  0  0  0  0  0  0  0  0  0  0
    0.9580   -5.5527    6.1805 C   0  0  0  0  0  0  0  0  0  0  0  0
    1.1130   -6.5041    5.1864 C   0  0  0  0  0  0  0  0  0  0  0  0
    2.1691   -7.4289    5.2626 C   0  0  0  0  0  0  0  0  0  0  0  0
    3.0512   -7.3999    6.3460 C   0  0  0  0  0  0  0  0  0  0  0  0
    0.2343   -6.5029    4.1318 O   0  0  0  0  0  0  0  0  0  0  0  0
    0.5564   -7.1156    2.8862 C   0  0  0  0  0  0  0  0  0  0  0  0
    5.4639   -6.5489    8.2342 N   0  0  0  0  0  0  0  0  0  0  0  0
    5.4987   -7.1125    7.3847 H   0  0  0  0  0  0  0  0  0  0  0  0
    6.3384   -7.1834    9.1953 C   0  0  0  0  0  0  0  0  0  0  0  0
    7.8650   -8.9696    8.8167 O   0  0  0  0  0  0  0  0  0  0  0  0
    7.5148   -7.8417    8.4966 C   0  0  0  0  0  0  0  0  0  0  0  0
    8.1244   -7.1305    7.5351 N   0  0  0  0  0  0  0  0  0  0  0  0
    9.2460   -7.6520    6.9109 O   0  0  0  0  0  0  0  0  0  0  0  0
    7.7777   -6.2463    7.2759 H   0  0  0  0  0  0  0  0  0  0  0  0
    9.4482   -8.5238    7.2849 H   0  0  0  0  0  0  0  0  0  0  0  0
 15 16  2  0  0  0
 16 17  1  0  0  0
 16 14  1  0  0  0
 17 18  1  0  0  0
 14 12  1  0  0  0
 12  1  1  0  0  0
  1  2  2  0  0  0
  1  3  2  0  0  0
  1  4  1  0  0  0
  4  5  2  0  0  0
  4  9  1  0  0  0
  5  6  1  0  0  0
  6  7  2  0  0  0
  7 10  1  0  0  0
  7  8  1  0  0  0
 10 11  1  0  0  0
  8  9  2  0  0  0
 17 19  1  0  0  0
 18 20  1  0  0  0
 12 13  1  0  0  0
M  END
> <minimizedAffinity>
-7.83654

$$$$
3LK8_Z79_A_0


 20 20  0  0  0  0  0  0  0  0999 V2000
    3.9327   -6.5560    8.4745 S   0  0  0  0  0  0  0  0  0  0  0  0
    3.7468   -5.1932    8.9542 O   0  0  0  0  0  0  0  0  0  0  0  0
    3.0822   -7.4370    9.2324 O   0  0  0  0  0  0  0  0  0  0  0  0
    5.4485   -6.9860    8.8118 C   0  0  0  0  0  0  0  0  0  0  0  0
    5.7838   -7.3401   10.1292 C   0  0  0  0  0  0  0  0  0  0  0  0
    7.0705   -7.7811   10.4472 C   0  0  0  0  0  0  0  0  0  0  0  0
    8.0338   -7.8733    9.4568 C   0  0  0  0  0  0  0  0  0  0  0  0
    7.7074   -7.5391    8.1309 C   0  0  0  0  0  0  0  0  0  0  0  0
    6.4194   -7.0994    7.8142 C   0  0  0  0  0  0  0  0  0  0  0  0
    9.2881   -8.3145    9.7981 O   0  0  0  0  0  0  0  0  0  0  0  0
    9.5531   -8.9185   11.0612 C   0  0  0  0  0  0  0  0  0  0  0  0
    3.5241   -6.5497    6.9389 N   0  0  0  0  0  0  0  0  0  0  0  0
    3.7968   -5.6413    6.5636 H   0  0  0  0  0  0  0  0  0  0  0  0
    2.1430   -6.7607    6.5661 C   0  0  0  0  0  0  0  0  0  0  0  0
    0.2971   -5.4207    5.8869 O   0  0  0  0  0  0  0  0  0  0  0  0
    1.4799   -5.4449    6.1993 C   0  0  0  0  0  0  0  0  0  0  0  0
    2.2493   -4.3458    6.2408 N   0  0  0  0  0  0  0  0  0  0  0  0
    1.7170   -3.1278    5.8500 O   0  0  0  0  0  0  0  0  0  0  0  0
    3.1834   -4.4046    6.5462 H   0  0  0  0  0  0  0  0  0  0  0  0
    0.7931   -3.2500    5.5810 H   0  0  0  0  0  0  0  0  0  0  0  0
 15 16  2  0  0  0
 16 17  1  0  0  0
 16 14  1  0  0  0
 17 18  1  0  0  0
 14 12  1  0  0  0
 12  1  1  0  0  0
  1  2  2  0  0  0
  1  3  2  0  0  0
  1  4  1  0  0  0
  4  5  2  0  0  0
  4  9  1  0  0  0
  5  6  1  0  0  0
  6  7  2  0  0  0
  7 10  1  0  0  0
  7  8  1  0  0  0
 10 11  1  0  0  0
  8  9  2  0  0  0
 17 19  1  0  0  0
 18 20  1  0  0  0
 12 13  1  0  0  0
M  END
> <minimizedAffinity>
-7.81960

$$$$
3LK8_Z79_A_0


 20 20  0  0  0  0  0  0  0  0999 V2000
    1.9539   -6.3536    5.5888 S   0  0  0  0  0  0  0  0  0  0  0  0
    0.7595   -5.7792    6.1933 O   0  0  0  0  0  0  0  0  0  0  0  0
    1.6515   -7.6862    5.1344 O   0  0  0  0  0  0  0  0  0  0  0  0
    3.0585   -6.5094    6.7513 C   0  0  0  0  0  0  0  0  0  0  0  0
    2.6369   -6.6324    8.0857 C   0  0  0  0  0  0  0  0  0  0  0  0
    3.5612   -6.8350    9.1133 C   0  0  0  0  0  0  0  0  0  0  0  0
    4.9123   -6.9167    8.8214 C   0  0  0  0  0  0  0  0  0  0  0  0
    5.3469   -6.8130    7.4885 C   0  0  0  0  0  0  0  0  0  0  0  0
    4.4210   -6.6118    6.4615 C   0  0  0  0  0  0  0  0  0  0  0  0
    5.7967   -7.1210    9.8511 O   0  0  0  0  0  0  0  0  0  0  0  0
    7.1992   -6.9317    9.6843 C   0  0  0  0  0  0  0  0  0  0  0  0
    2.3376   -5.4085    4.3703 N   0  0  0  0  0  0  0  0  0  0  0  0
    3.1076   -4.8180    4.6846 H   0  0  0  0  0  0  0  0  0  0  0  0
    1.3379   -4.5296    3.8053 C   0  0  0  0  0  0  0  0  0  0  0  0
    1.8129   -2.2557    3.2876 O   0  0  0  0  0  0  0  0  0  0  0  0
    1.6280   -3.0842    4.1688 C   0  0  0  0  0  0  0  0  0  0  0  0
    1.6651   -2.7834    5.4765 N   0  0  0  0  0  0  0  0  0  0  0  0
    1.9933   -1.4960    5.8693 O   0  0  0  0  0  0  0  0  0  0  0  0
    1.4610   -3.4715    6.1504 H   0  0  0  0  0  0  0  0  0  0  0  0
    2.1630   -0.9518    5.0845 H   0  0  0  0  0  0  0  0  0  0  0  0
 15 16  2  0  0  0
 16 17  1  0  0  0
 16 14  1  0  0  0
 17 18  1  0  0  0
 14 12  1  0  0  0
 12  1  1  0  0  0
  1  2  2  0  0  0
  1  3  2  0  0  0
  1  4  1  0  0  0
  4  5  2  0  0  0
  4  9  1  0  0  0
  5  6  1  0  0  0
  6  7  2  0  0  0
  7 10  1  0  0  0
  7  8  1  0  0  0
 10 11  1  0  0  0
  8  9  2  0  0  0
 17 19  1  0  0  0
 18 20  1  0  0  0
 12 13  1  0  0  0
M  END
> <minimizedAffinity>
-7.71327

$$$$
3LK8_Z79_A_0


 20 20  0  0  0  0  0  0  0  0999 V2000
    2.0704   -5.4011    6.7596 S   0  0  0  0  0  0  0  0  0  0  0  0
    1.0491   -5.2861    7.7920 O   0  0  0  0  0  0  0  0  0  0  0  0
    1.6188   -6.3332    5.7590 O   0  0  0  0  0  0  0  0  0  0  0  0
    3.3744   -6.0599    7.4391 C   0  0  0  0  0  0  0  0  0  0  0  0
    4.5034   -6.3213    6.6450 C   0  0  0  0  0  0  0  0  0  0  0  0
    5.6747   -6.8305    7.2105 C   0  0  0  0  0  0  0  0  0  0  0  0
    5.7322   -7.0837    8.5706 C   0  0  0  0  0  0  0  0  0  0  0  0
    4.6159   -6.8103    9.3802 C   0  0  0  0  0  0  0  0  0  0  0  0
    3.4453   -6.2996    8.8132 C   0  0  0  0  0  0  0  0  0  0  0  0
    6.8981   -7.5794    9.0989 O   0  0  0  0  0  0  0  0  0  0  0  0
    8.0183   -7.8976    8.2776 C   0  0  0  0  0  0  0  0  0  0  0  0
    2.2512   -3.9471    6.1448 N   0  0  0  0  0  0  0  0  0  0  0  0
    1.4148   -3.4165    6.3883 H   0  0  0  0  0  0  0  0  0  0  0  0
    2.4464   -3.7927    4.7203 C   0  0  0  0  0  0  0  0  0  0  0  0
    2.0114   -1.5962    3.9140 O   0  0  0  0  0  0  0  0  0  0  0  0
    1.5477   -2.6988    4.1716 C   0  0  0  0  0  0  0  0  0  0  0  0
    0.2545   -3.0100    3.9912 N   0  0  0  0  0  0  0  0  0  0  0  0
   -0.6265   -2.0321    3.5585 O   0  0  0  0  0  0  0  0  0  0  0  0
   -0.0651   -3.9249    4.1647 H   0  0  0  0  0  0  0  0  0  0  0  0
   -0.1485   -1.1968    3.4377 H   0  0  0  0  0  0  0  0  0  0  0  0
 15 16  2  0  0  0
 16 17  1  0  0  0
 16 14  1  0  0  0
 17 18  1  0  0  0
 14 12  1  0  0  0
 12  1  1  0  0  0
  1  2  2  0  0  0
  1  3  2  0  0  0
  1  4  1  0  0  0
  4  5  2  0  0  0
  4  9  1  0  0  0
  5  6  1  0  0  0
  6  7  2  0  0  0
  7 10  1  0  0  0
  7  8  1  0  0  0
 10 11  1  0  0  0
  8  9  2  0  0  0
 17 19  1  0  0  0
 18 20  1  0  0  0
 12 13  1  0  0  0
M  END
> <minimizedAffinity>
-7.37576

$$$$
3LK8_Z79_A_0


 20 20  0  0  0  0  0  0  0  0999 V2000
    4.0410   -6.2572    8.3535 S   0  0  0  0  0  0  0  0  0  0  0  0
    3.7821   -5.1445    9.2573 O   0  0  0  0  0  0  0  0  0  0  0  0
    3.0770   -7.2968    8.6060 O   0  0  0  0  0  0  0  0  0  0  0  0
    5.4810   -6.8692    8.7382 C   0  0  0  0  0  0  0  0  0  0  0  0
    6.4208   -7.1030    7.7206 C   0  0  0  0  0  0  0  0  0  0  0  0
    7.7020   -7.5707    8.0223 C   0  0  0  0  0  0  0  0  0  0  0  0
    8.0583   -7.8095    9.3388 C   0  0  0  0  0  0  0  0  0  0  0  0
    7.1338   -7.5632   10.3688 C   0  0  0  0  0  0  0  0  0  0  0  0
    5.8530   -7.0940   10.0656 C   0  0  0  0  0  0  0  0  0  0  0  0
    9.3258   -8.2641    9.6053 O   0  0  0  0  0  0  0  0  0  0  0  0
   10.2563   -8.5458    8.5634 C   0  0  0  0  0  0  0  0  0  0  0  0
    3.8874   -5.6822    6.8802 N   0  0  0  0  0  0  0  0  0  0  0  0
    4.5521   -4.9136    6.7914 H   0  0  0  0  0  0  0  0  0  0  0  0
    2.6048   -5.1811    6.4388 C   0  0  0  0  0  0  0  0  0  0  0  0
    2.5948   -3.1953    5.1269 O   0  0  0  0  0  0  0  0  0  0  0  0
    2.7493   -4.4091    5.1393 C   0  0  0  0  0  0  0  0  0  0  0  0
    3.0499   -5.1206    4.0415 N   0  0  0  0  0  0  0  0  0  0  0  0
    3.1263   -4.4798    2.8154 O   0  0  0  0  0  0  0  0  0  0  0  0
    3.2146   -6.0890    4.1068 H   0  0  0  0  0  0  0  0  0  0  0  0
    2.9374   -3.5355    2.9318 H   0  0  0  0  0  0  0  0  0  0  0  0
 15 16  2  0  0  0
 16 17  1  0  0  0
 16 14  1  0  0  0
 17 18  1  0  0  0
 14 12  1  0  0  0
 12  1  1  0  0  0
  1  2  2  0  0  0
  1  3  2  0  0  0
  1  4  1  0  0  0
  4  5  2  0  0  0
  4  9  1  0  0  0
  5  6  1  0  0  0
  6  7  2  0  0  0
  7 10  1  0  0  0
  7  8  1  0  0  0
 10 11  1  0  0  0
  8  9  2  0  0  0
 17 19  1  0  0  0
 18 20  1  0  0  0
 12 13  1  0  0  0
M  END
> <minimizedAffinity>
-7.26961

$$$$
3LK8_Z79_A_0


 20 20  0  0  0  0  0  0  0  0999 V2000
    2.9916   -6.0252    6.7499 S   0  0  0  0  0  0  0  0  0  0  0  0
    3.1772   -4.6622    6.2706 O   0  0  0  0  0  0  0  0  0  0  0  0
    1.8616   -6.0557    7.6421 O   0  0  0  0  0  0  0  0  0  0  0  0
    4.2815   -6.4070    7.6368 C   0  0  0  0  0  0  0  0  0  0  0  0
    4.1606   -6.4604    9.0354 C   0  0  0  0  0  0  0  0  0  0  0  0
    5.2385   -6.8512    9.8332 C   0  0  0  0  0  0  0  0  0  0  0  0
    6.4453   -7.1920    9.2459 C   0  0  0  0  0  0  0  0  0  0  0  0
    6.5753   -7.1601    7.8465 C   0  0  0  0  0  0  0  0  0  0  0  0
    5.4956   -6.7702    7.0496 C   0  0  0  0  0  0  0  0  0  0  0  0
    7.4853   -7.5768   10.0549 O   0  0  0  0  0  0  0  0  0  0  0  0
    7.8604   -8.9443   10.1954 C   0  0  0  0  0  0  0  0  0  0  0  0
    2.7274   -6.9200    5.4636 N   0  0  0  0  0  0  0  0  0  0  0  0
    3.1035   -6.4089    4.6650 H   0  0  0  0  0  0  0  0  0  0  0  0
    1.3741   -7.2973    5.1213 C   0  0  0  0  0  0  0  0  0  0  0  0
    0.4872   -6.4539    3.0801 O   0  0  0  0  0  0  0  0  0  0  0  0
    0.7219   -6.2304    4.2601 C   0  0  0  0  0  0  0  0  0  0  0  0
    0.4270   -5.0652    4.8577 N   0  0  0  0  0  0  0  0  0  0  0  0
   -0.1058   -4.0307    4.1057 O   0  0  0  0  0  0  0  0  0  0  0  0
    0.5878   -4.9467    5.8218 H   0  0  0  0  0  0  0  0  0  0  0  0
   -0.1977   -4.3157    3.1831 H   0  0  0  0  0  0  0  0  0  0  0  0
 15 16  2  0  0  0
 16 17  1  0  0  0
 16 14  1  0  0  0
 17 18  1  0  0  0
 14 12  1  0  0  0
 12  1  1  0  0  0
  1  2  2  0  0  0
  1  3  2  0  0  0
  1  4  1  0  0  0
  4  5  2  0  0  0
  4  9  1  0  0  0
  5  6  1  0  0  0
  6  7  2  0  0  0
  7 10  1  0  0  0
  7  8  1  0  0  0
 10 11  1  0  0  0
  8  9  2  0  0  0
 17 19  1  0  0  0
 18 20  1  0  0  0
 12 13  1  0  0  0
M  END
> <minimizedAffinity>
-7.20185

$$$$
3LK8_Z79_A_0


 20 20  0  0  0  0  0  0  0  0999 V2000
    1.8317   -5.6046    6.6984 S   0  0  0  0  0  0  0  0  0  0  0  0
    2.1367   -4.4414    5.8762 O   0  0  0  0  0  0  0  0  0  0  0  0
    1.0572   -5.1808    7.8362 O   0  0  0  0  0  0  0  0  0  0  0  0
    3.2253   -6.1656    7.2805 C   0  0  0  0  0  0  0  0  0  0  0  0
    4.3213   -6.3117    6.4139 C   0  0  0  0  0  0  0  0  0  0  0  0
    5.5635   -6.7325    6.8944 C   0  0  0  0  0  0  0  0  0  0  0  0
    5.7253   -7.0112    8.2411 C   0  0  0  0  0  0  0  0  0  0  0  0
    4.6420   -6.8524    9.1228 C   0  0  0  0  0  0  0  0  0  0  0  0
    3.4002   -6.4300    8.6408 C   0  0  0  0  0  0  0  0  0  0  0  0
    6.9588   -7.4180    8.6852 O   0  0  0  0  0  0  0  0  0  0  0  0
    7.1029   -8.3075    9.7891 C   0  0  0  0  0  0  0  0  0  0  0  0
    0.9985   -6.5968    5.7786 N   0  0  0  0  0  0  0  0  0  0  0  0
    1.3456   -7.5373    5.9670 H   0  0  0  0  0  0  0  0  0  0  0  0
    1.0140   -6.4234    4.3430 C   0  0  0  0  0  0  0  0  0  0  0  0
    0.9153   -8.0627    2.6204 O   0  0  0  0  0  0  0  0  0  0  0  0
    1.4613   -7.7002    3.6537 C   0  0  0  0  0  0  0  0  0  0  0  0
    2.4632   -8.3820    4.2310 N   0  0  0  0  0  0  0  0  0  0  0  0
    2.8671   -9.5897    3.6851 O   0  0  0  0  0  0  0  0  0  0  0  0
    2.9070   -8.0271    5.0349 H   0  0  0  0  0  0  0  0  0  0  0  0
    2.3282   -9.7875    2.9033 H   0  0  0  0  0  0  0  0  0  0  0  0
 15 16  2  0  0  0
 16 17  1  0  0  0
 16 14  1  0  0  0
 17 18  1  0  0  0
 14 12  1  0  0  0
 12  1  1  0  0  0
  1  2  2  0  0  0
  1  3  2  0  0  0
  1  4  1  0  0  0
  4  5  2  0  0  0
  4  9  1  0  0  0
  5  6  1  0  0  0
  6  7  2  0  0  0
  7 10  1  0  0  0
  7  8  1  0  0  0
 10 11  1  0  0  0
  8  9  2  0  0  0
 17 19  1  0  0  0
 18 20  1  0  0  0
 12 13  1  0  0  0
M  END
> <minimizedAffinity>
-7.08694

$$$$
3LK8_Z79_A_0


 20 20  0  0  0  0  0  0  0  0999 V2000
    3.8032   -6.4261    8.2748 S   0  0  0  0  0  0  0  0  0  0  0  0
    3.5706   -5.1030    8.8382 O   0  0  0  0  0  0  0  0  0  0  0  0
    2.9471   -7.3734    8.9409 O   0  0  0  0  0  0  0  0  0  0  0  0
    5.3157   -6.8477    8.6363 C   0  0  0  0  0  0  0  0  0  0  0  0
    5.6497   -7.1246    9.9724 C   0  0  0  0  0  0  0  0  0  0  0  0
    6.9330   -7.5565   10.3154 C   0  0  0  0  0  0  0  0  0  0  0  0
    7.8944   -7.7163    9.3317 C   0  0  0  0  0  0  0  0  0  0  0  0
    7.5691   -7.4598    7.9883 C   0  0  0  0  0  0  0  0  0  0  0  0
    6.2844   -7.0292    7.6466 C   0  0  0  0  0  0  0  0  0  0  0  0
    9.1453   -8.1466    9.6980 O   0  0  0  0  0  0  0  0  0  0  0  0
    9.8144   -9.1915    8.9973 C   0  0  0  0  0  0  0  0  0  0  0  0
    3.4474   -6.3235    6.7296 N   0  0  0  0  0  0  0  0  0  0  0  0
    3.7901   -5.4188    6.4062 H   0  0  0  0  0  0  0  0  0  0  0  0
    2.0688   -6.4263    6.3054 C   0  0  0  0  0  0  0  0  0  0  0  0
    2.7331   -8.4446    5.2334 O   0  0  0  0  0  0  0  0  0  0  0  0
    1.9001   -7.5508    5.2992 C   0  0  0  0  0  0  0  0  0  0  0  0
    0.8125   -7.5037    4.5138 N   0  0  0  0  0  0  0  0  0  0  0  0
    0.6413   -8.4648    3.5307 O   0  0  0  0  0  0  0  0  0  0  0  0
    0.1425   -6.7927    4.6354 H   0  0  0  0  0  0  0  0  0  0  0  0
    1.3882   -9.0834    3.5497 H   0  0  0  0  0  0  0  0  0  0  0  0
 15 16  2  0  0  0
 16 17  1  0  0  0
 16 14  1  0  0  0
 17 18  1  0  0  0
 14 12  1  0  0  0
 12  1  1  0  0  0
  1  2  2  0  0  0
  1  3  2  0  0  0
  1  4  1  0  0  0
  4  5  2  0  0  0
  4  9  1  0  0  0
  5  6  1  0  0  0
  6  7  2  0  0  0
  7 10  1  0  0  0
  7  8  1  0  0  0
 10 11  1  0  0  0
  8  9  2  0  0  0
 17 19  1  0  0  0
 18 20  1  0  0  0
 12 13  1  0  0  0
M  END
> <minimizedAffinity>
-6.98867

$$$$
3LK8_Z79_A_0


 20 20  0  0  0  0  0  0  0  0999 V2000
    1.8565   -5.5403    6.5083 S   0  0  0  0  0  0  0  0  0  0  0  0
    0.9558   -5.1964    7.6003 O   0  0  0  0  0  0  0  0  0  0  0  0
    1.3218   -6.6767    5.8034 O   0  0  0  0  0  0  0  0  0  0  0  0
    3.2477   -6.0240    7.1615 C   0  0  0  0  0  0  0  0  0  0  0  0
    3.3033   -6.2857    8.5406 C   0  0  0  0  0  0  0  0  0  0  0  0
    4.4730   -6.7693    9.1315 C   0  0  0  0  0  0  0  0  0  0  0  0
    5.5967   -6.9964    8.3549 C   0  0  0  0  0  0  0  0  0  0  0  0
    5.5500   -6.7557    6.9706 C   0  0  0  0  0  0  0  0  0  0  0  0
    4.3787   -6.2732    6.3808 C   0  0  0  0  0  0  0  0  0  0  0  0
    6.7302   -7.4764    8.9623 O   0  0  0  0  0  0  0  0  0  0  0  0
    6.7556   -7.8089   10.3477 C   0  0  0  0  0  0  0  0  0  0  0  0
    1.9241   -4.2636    5.5648 N   0  0  0  0  0  0  0  0  0  0  0  0
    1.7211   -3.4525    6.1490 H   0  0  0  0  0  0  0  0  0  0  0  0
    1.0540   -4.1795    4.4128 C   0  0  0  0  0  0  0  0  0  0  0  0
    2.1970   -3.4704    2.4494 O   0  0  0  0  0  0  0  0  0  0  0  0
    1.8348   -4.4187    3.1328 C   0  0  0  0  0  0  0  0  0  0  0  0
    2.0956   -5.6955    2.8110 N   0  0  0  0  0  0  0  0  0  0  0  0
    2.7442   -5.9779    1.6197 O   0  0  0  0  0  0  0  0  0  0  0  0
    1.8283   -6.4247    3.4160 H   0  0  0  0  0  0  0  0  0  0  0  0
    2.9329   -5.1504    1.1502 H   0  0  0  0  0  0  0  0  0  0  0  0
 15 16  2  0  0  0
 16 17  1  0  0  0
 16 14  1  0  0  0
 17 18  1  0  0  0
 14 12  1  0  0  0
 12  1  1  0  0  0
  1  2  2  0  0  0
  1  3  2  0  0  0
  1  4  1  0  0  0
  4  5  2  0  0  0
  4  9  1  0  0  0
  5  6  1  0  0  0
  6  7  2  0  0  0
  7 10  1  0  0  0
  7  8  1  0  0  0
 10 11  1  0  0  0
  8  9  2  0  0  0
 17 19  1  0  0  0
 18 20  1  0  0  0
 12 13  1  0  0  0
M  END
> <minimizedAffinity>
-6.92950

$$$$
