6FNR_DYT_A_403


 13 13  0  0  0  0  0  0  0  0999 V2000
    8.4777   14.6957   16.5482 C   0  0  0  0  0  0  0  0  0  0  0  0
    8.4114   13.3122   15.9472 C   0  0  0  0  0  0  0  0  0  0  0  0
    9.1436   12.8389   14.8718 C   0  0  0  0  0  0  0  0  0  0  0  0
    8.7863   11.5213   14.6721 N   0  0  0  0  0  0  0  0  0  0  0  0
    7.8489   11.1815   15.6133 C   0  0  0  0  0  0  0  0  0  0  0  0
    7.6215   12.2909   16.4059 N   0  0  0  0  0  0  0  0  0  0  0  0
    6.9999   12.3389   17.1678 H   0  0  0  0  0  0  0  0  0  0  0  0
    8.3255   15.7877   15.5123 C   0  0  0  0  0  0  0  0  0  0  0  0
    9.0237   17.2486   16.1665 Cl  0  0  0  0  0  0  0  0  0  0  0  0
    6.5324   16.4260   14.0491 O   0  0  0  0  0  0  0  0  0  0  0  0
    6.8702   16.0609   15.1995 C   0  0  0  0  0  0  0  0  0  0  0  0
    6.0099   15.9499   16.1084 O   0  0  0  0  0  0  0  0  0  0  0  0
    6.2678   15.6765   16.9667 H   0  0  0  0  0  0  0  0  0  0  0  0
 10 11  2  0  0  0
 11 12  1  0  0  0
 11  8  1  0  0  0
  4  3  1  0  0  0
  4  5  2  0  0  0
  3  2  2  0  0  0
  5  6  1  0  0  0
  8  9  1  0  0  0
  8  1  1  0  0  0
  2  6  1  0  0  0
  2  1  1  0  0  0
 12 13  1  0  0  0
  6  7  1  0  0  0
M  END
> <minimizedAffinity>
-5.70464

$$$$
6FNR_DYT_A_403


 13 13  0  0  0  0  0  0  0  0999 V2000
    6.6986   15.8602   14.9317 C   0  0  0  0  0  0  0  0  0  0  0  0
    7.5225   14.9161   15.7742 C   0  0  0  0  0  0  0  0  0  0  0  0
    8.4619   15.2624   16.7304 C   0  0  0  0  0  0  0  0  0  0  0  0
    8.9580   14.0933   17.2695 N   0  0  0  0  0  0  0  0  0  0  0  0
    8.3317   13.0373   16.6590 C   0  0  0  0  0  0  0  0  0  0  0  0
    7.4388   13.5491   15.7363 N   0  0  0  0  0  0  0  0  0  0  0  0
    6.8456   13.0226   15.1530 H   0  0  0  0  0  0  0  0  0  0  0  0
    7.4399   17.1345   14.5924 C   0  0  0  0  0  0  0  0  0  0  0  0
    7.0575   18.3197   15.8166 Cl  0  0  0  0  0  0  0  0  0  0  0  0
    7.7145   17.4858   12.2334 O   0  0  0  0  0  0  0  0  0  0  0  0
    7.0114   17.6887   13.2508 C   0  0  0  0  0  0  0  0  0  0  0  0
    5.9647   18.3790   13.1717 O   0  0  0  0  0  0  0  0  0  0  0  0
    5.4426   18.5277   13.9354 H   0  0  0  0  0  0  0  0  0  0  0  0
 10 11  2  0  0  0
 11 12  1  0  0  0
 11  8  1  0  0  0
  4  3  1  0  0  0
  4  5  2  0  0  0
  3  2  2  0  0  0
  5  6  1  0  0  0
  8  9  1  0  0  0
  8  1  1  0  0  0
  2  6  1  0  0  0
  2  1  1  0  0  0
 12 13  1  0  0  0
  6  7  1  0  0  0
M  END
> <minimizedAffinity>
-5.53252

$$$$
6FNR_DYT_A_403


 13 13  0  0  0  0  0  0  0  0999 V2000
    8.6854   14.9536   15.3219 C   0  0  0  0  0  0  0  0  0  0  0  0
    8.4779   13.4583   15.3482 C   0  0  0  0  0  0  0  0  0  0  0  0
    9.1786   12.5105   14.6220 C   0  0  0  0  0  0  0  0  0  0  0  0
    8.6793   11.2707   14.9643 N   0  0  0  0  0  0  0  0  0  0  0  0
    7.6860   11.4473   15.8927 C   0  0  0  0  0  0  0  0  0  0  0  0
    7.5659   12.8032   16.1334 N   0  0  0  0  0  0  0  0  0  0  0  0
    6.9347   13.2249   16.7602 H   0  0  0  0  0  0  0  0  0  0  0  0
    7.4454   15.7201   15.7261 C   0  0  0  0  0  0  0  0  0  0  0  0
    6.9714   16.7231   14.3774 Cl  0  0  0  0  0  0  0  0  0  0  0  0
    7.8671   16.1278   18.0541 O   0  0  0  0  0  0  0  0  0  0  0  0
    7.7088   16.6214   16.9130 C   0  0  0  0  0  0  0  0  0  0  0  0
    7.7356   17.8670   16.7509 O   0  0  0  0  0  0  0  0  0  0  0  0
    7.6168   18.2308   15.8956 H   0  0  0  0  0  0  0  0  0  0  0  0
 10 11  2  0  0  0
 11 12  1  0  0  0
 11  8  1  0  0  0
  4  3  1  0  0  0
  4  5  2  0  0  0
  3  2  2  0  0  0
  5  6  1  0  0  0
  8  9  1  0  0  0
  8  1  1  0  0  0
  2  6  1  0  0  0
  2  1  1  0  0  0
 12 13  1  0  0  0
  6  7  1  0  0  0
M  END
> <minimizedAffinity>
-5.31378

$$$$
6FNR_DYT_A_403


 13 13  0  0  0  0  0  0  0  0999 V2000
    7.8158   16.0192   16.3086 C   0  0  0  0  0  0  0  0  0  0  0  0
    8.3530   14.6483   15.9740 C   0  0  0  0  0  0  0  0  0  0  0  0
    8.6980   13.6510   16.8700 C   0  0  0  0  0  0  0  0  0  0  0  0
    9.1212   12.5611   16.1376 N   0  0  0  0  0  0  0  0  0  0  0  0
    9.0358   12.8770   14.8061 C   0  0  0  0  0  0  0  0  0  0  0  0
    8.5546   14.1690   14.7063 N   0  0  0  0  0  0  0  0  0  0  0  0
    8.3861   14.6597   13.8696 H   0  0  0  0  0  0  0  0  0  0  0  0
    8.0539   17.0231   15.2023 C   0  0  0  0  0  0  0  0  0  0  0  0
    8.8426   18.4153   15.9020 Cl  0  0  0  0  0  0  0  0  0  0  0  0
    6.5703   17.3548   13.3442 O   0  0  0  0  0  0  0  0  0  0  0  0
    6.7547   17.4831   14.5772 C   0  0  0  0  0  0  0  0  0  0  0  0
    5.8777   18.0223   15.2974 O   0  0  0  0  0  0  0  0  0  0  0  0
    6.0206   18.1158   16.2187 H   0  0  0  0  0  0  0  0  0  0  0  0
 10 11  2  0  0  0
 11 12  1  0  0  0
 11  8  1  0  0  0
  4  3  1  0  0  0
  4  5  2  0  0  0
  3  2  2  0  0  0
  5  6  1  0  0  0
  8  9  1  0  0  0
  8  1  1  0  0  0
  2  6  1  0  0  0
  2  1  1  0  0  0
 12 13  1  0  0  0
  6  7  1  0  0  0
M  END
> <minimizedAffinity>
-5.28540

$$$$
6FNR_DYT_A_403


 13 13  0  0  0  0  0  0  0  0999 V2000
    7.0900   18.1410   15.8614 C   0  0  0  0  0  0  0  0  0  0  0  0
    8.5475   18.2070   16.2501 C   0  0  0  0  0  0  0  0  0  0  0  0
    9.1080   17.7840   17.4432 C   0  0  0  0  0  0  0  0  0  0  0  0
   10.4670   18.0101   17.3684 N   0  0  0  0  0  0  0  0  0  0  0  0
   10.7454   18.5616   16.1443 C   0  0  0  0  0  0  0  0  0  0  0  0
    9.5555   18.6782   15.4506 N   0  0  0  0  0  0  0  0  0  0  0  0
    9.4506   19.0374   14.5400 H   0  0  0  0  0  0  0  0  0  0  0  0
    6.8194   17.1052   14.7926 C   0  0  0  0  0  0  0  0  0  0  0  0
    7.9367   15.7843   15.0307 Cl  0  0  0  0  0  0  0  0  0  0  0  0
    6.0647   18.0346   12.7117 O   0  0  0  0  0  0  0  0  0  0  0  0
    7.0417   17.6650   13.4042 C   0  0  0  0  0  0  0  0  0  0  0  0
    8.2078   17.7264   12.9406 O   0  0  0  0  0  0  0  0  0  0  0  0
    8.9347   17.4488   13.4626 H   0  0  0  0  0  0  0  0  0  0  0  0
 10 11  2  0  0  0
 11 12  1  0  0  0
 11  8  1  0  0  0
  4  3  1  0  0  0
  4  5  2  0  0  0
  3  2  2  0  0  0
  5  6  1  0  0  0
  8  9  1  0  0  0
  8  1  1  0  0  0
  2  6  1  0  0  0
  2  1  1  0  0  0
 12 13  1  0  0  0
  6  7  1  0  0  0
M  END
> <minimizedAffinity>
-5.05318

$$$$
6FNR_DYT_A_403


 13 13  0  0  0  0  0  0  0  0999 V2000
    8.3938   14.4607   14.7947 C   0  0  0  0  0  0  0  0  0  0  0  0
    7.5582   15.7149   14.7028 C   0  0  0  0  0  0  0  0  0  0  0  0
    6.5649   16.1162   15.5798 C   0  0  0  0  0  0  0  0  0  0  0  0
    6.0775   17.3266   15.1315 N   0  0  0  0  0  0  0  0  0  0  0  0
    6.7621   17.6727   13.9950 C   0  0  0  0  0  0  0  0  0  0  0  0
    7.6828   16.6754   13.7337 N   0  0  0  0  0  0  0  0  0  0  0  0
    8.3179   16.6582   12.9816 H   0  0  0  0  0  0  0  0  0  0  0  0
    7.9292   13.5316   15.8946 C   0  0  0  0  0  0  0  0  0  0  0  0
    8.9541   13.7914   17.2846 Cl  0  0  0  0  0  0  0  0  0  0  0  0
    8.7572   11.7598   14.5022 O   0  0  0  0  0  0  0  0  0  0  0  0
    8.0496   12.0794   15.4860 C   0  0  0  0  0  0  0  0  0  0  0  0
    7.4107   11.2027   16.1199 O   0  0  0  0  0  0  0  0  0  0  0  0
    6.8832   11.4470   16.8547 H   0  0  0  0  0  0  0  0  0  0  0  0
 10 11  2  0  0  0
 11 12  1  0  0  0
 11  8  1  0  0  0
  4  3  1  0  0  0
  4  5  2  0  0  0
  3  2  2  0  0  0
  5  6  1  0  0  0
  8  9  1  0  0  0
  8  1  1  0  0  0
  2  6  1  0  0  0
  2  1  1  0  0  0
 12 13  1  0  0  0
  6  7  1  0  0  0
M  END
> <minimizedAffinity>
-5.04221

$$$$
6FNR_DYT_A_403


 13 13  0  0  0  0  0  0  0  0999 V2000
    8.2149   16.2994   16.9389 C   0  0  0  0  0  0  0  0  0  0  0  0
    8.3577   14.8900   16.4162 C   0  0  0  0  0  0  0  0  0  0  0  0
    8.3127   14.4877   15.0923 C   0  0  0  0  0  0  0  0  0  0  0  0
    8.5073   13.1220   15.0651 N   0  0  0  0  0  0  0  0  0  0  0  0
    8.6748   12.6847   16.3538 C   0  0  0  0  0  0  0  0  0  0  0  0
    8.5869   13.7824   17.1894 N   0  0  0  0  0  0  0  0  0  0  0  0
    8.6739   13.7703   18.1700 H   0  0  0  0  0  0  0  0  0  0  0  0
    9.5145   17.0722   16.8902 C   0  0  0  0  0  0  0  0  0  0  0  0
    9.5728   18.1124   18.2916 Cl  0  0  0  0  0  0  0  0  0  0  0  0
   10.3348   17.6033   14.6973 O   0  0  0  0  0  0  0  0  0  0  0  0
    9.6003   17.9420   15.6547 C   0  0  0  0  0  0  0  0  0  0  0  0
    8.9557   19.0195   15.6099 O   0  0  0  0  0  0  0  0  0  0  0  0
    8.4080   19.2680   16.3284 H   0  0  0  0  0  0  0  0  0  0  0  0
 10 11  2  0  0  0
 11 12  1  0  0  0
 11  8  1  0  0  0
  4  3  1  0  0  0
  4  5  2  0  0  0
  3  2  2  0  0  0
  5  6  1  0  0  0
  8  9  1  0  0  0
  8  1  1  0  0  0
  2  6  1  0  0  0
  2  1  1  0  0  0
 12 13  1  0  0  0
  6  7  1  0  0  0
M  END
> <minimizedAffinity>
-5.03908

$$$$
6FNR_DYT_A_403


 13 13  0  0  0  0  0  0  0  0999 V2000
    8.5916   17.8336   17.1508 C   0  0  0  0  0  0  0  0  0  0  0  0
    7.6361   17.0819   16.2554 C   0  0  0  0  0  0  0  0  0  0  0  0
    7.0071   17.5661   15.1212 C   0  0  0  0  0  0  0  0  0  0  0  0
    6.2417   16.5431   14.6005 N   0  0  0  0  0  0  0  0  0  0  0  0
    6.3975   15.4390   15.3985 C   0  0  0  0  0  0  0  0  0  0  0  0
    7.2660   15.7731   16.4206 N   0  0  0  0  0  0  0  0  0  0  0  0
    7.5664   15.1745   17.1422 H   0  0  0  0  0  0  0  0  0  0  0  0
   10.0401   17.5119   16.8559 C   0  0  0  0  0  0  0  0  0  0  0  0
   10.9994   18.0739   18.2026 Cl  0  0  0  0  0  0  0  0  0  0  0  0
   10.5141   17.6191   14.5048 O   0  0  0  0  0  0  0  0  0  0  0  0
   10.5247   18.2158   15.6068 C   0  0  0  0  0  0  0  0  0  0  0  0
   10.9665   19.3891   15.6891 O   0  0  0  0  0  0  0  0  0  0  0  0
   10.9722   19.8307   16.5155 H   0  0  0  0  0  0  0  0  0  0  0  0
 10 11  2  0  0  0
 11 12  1  0  0  0
 11  8  1  0  0  0
  4  3  1  0  0  0
  4  5  2  0  0  0
  3  2  2  0  0  0
  5  6  1  0  0  0
  8  9  1  0  0  0
  8  1  1  0  0  0
  2  6  1  0  0  0
  2  1  1  0  0  0
 12 13  1  0  0  0
  6  7  1  0  0  0
M  END
> <minimizedAffinity>
-4.76502

$$$$
6FNR_DYT_A_403


 13 13  0  0  0  0  0  0  0  0999 V2000
    7.3368   16.0363   14.6096 C   0  0  0  0  0  0  0  0  0  0  0  0
    7.9689   14.9113   15.3936 C   0  0  0  0  0  0  0  0  0  0  0  0
    8.5561   13.7685   14.8781 C   0  0  0  0  0  0  0  0  0  0  0  0
    9.0215   13.0232   15.9419 N   0  0  0  0  0  0  0  0  0  0  0  0
    8.7306   13.6967   17.1002 C   0  0  0  0  0  0  0  0  0  0  0  0
    8.0829   14.8690   16.7584 N   0  0  0  0  0  0  0  0  0  0  0  0
    7.7596   15.5546   17.3866 H   0  0  0  0  0  0  0  0  0  0  0  0
    7.9782   17.3763   14.8954 C   0  0  0  0  0  0  0  0  0  0  0  0
    9.6605   17.0965   15.2715 Cl  0  0  0  0  0  0  0  0  0  0  0  0
    7.9280   18.0818   17.1896 O   0  0  0  0  0  0  0  0  0  0  0  0
    7.3375   18.0592   16.0843 C   0  0  0  0  0  0  0  0  0  0  0  0
    6.1979   18.5739   15.9629 O   0  0  0  0  0  0  0  0  0  0  0  0
    5.7608   18.5543   15.1344 H   0  0  0  0  0  0  0  0  0  0  0  0
 10 11  2  0  0  0
 11 12  1  0  0  0
 11  8  1  0  0  0
  4  3  1  0  0  0
  4  5  2  0  0  0
  3  2  2  0  0  0
  5  6  1  0  0  0
  8  9  1  0  0  0
  8  1  1  0  0  0
  2  6  1  0  0  0
  2  1  1  0  0  0
 12 13  1  0  0  0
  6  7  1  0  0  0
M  END
> <minimizedAffinity>
-4.72340

$$$$
6FNR_DYT_A_403


 13 13  0  0  0  0  0  0  0  0999 V2000
    7.5757   17.1075   16.4203 C   0  0  0  0  0  0  0  0  0  0  0  0
    7.9665   15.6610   16.2345 C   0  0  0  0  0  0  0  0  0  0  0  0
    7.8890   14.9243   15.0649 C   0  0  0  0  0  0  0  0  0  0  0  0
    8.3656   13.6586   15.3375 N   0  0  0  0  0  0  0  0  0  0  0  0
    8.7372   13.6127   16.6565 C   0  0  0  0  0  0  0  0  0  0  0  0
    8.4940   14.8559   17.2096 N   0  0  0  0  0  0  0  0  0  0  0  0
    8.6694   15.1175   18.1424 H   0  0  0  0  0  0  0  0  0  0  0  0
    8.7710   18.0103   16.6320 C   0  0  0  0  0  0  0  0  0  0  0  0
    9.9225   17.6826   15.3606 Cl  0  0  0  0  0  0  0  0  0  0  0  0
   10.5706   17.1879   17.9917 O   0  0  0  0  0  0  0  0  0  0  0  0
    9.4460   17.7401   17.9593 C   0  0  0  0  0  0  0  0  0  0  0  0
    8.8572   18.0440   19.0268 O   0  0  0  0  0  0  0  0  0  0  0  0
    8.0165   18.4568   18.9970 H   0  0  0  0  0  0  0  0  0  0  0  0
 10 11  2  0  0  0
 11 12  1  0  0  0
 11  8  1  0  0  0
  4  3  1  0  0  0
  4  5  2  0  0  0
  3  2  2  0  0  0
  5  6  1  0  0  0
  8  9  1  0  0  0
  8  1  1  0  0  0
  2  6  1  0  0  0
  2  1  1  0  0  0
 12 13  1  0  0  0
  6  7  1  0  0  0
M  END
> <minimizedAffinity>
-4.66208

$$$$
