2R5A_MLZ_A_436


 15 14  0  0  0  0  0  0  0  0999 V2000
  -22.4175  -17.3466  -20.8949 N   0  0  0  0  0  0  0  0  0  0  0  0
  -22.2156  -17.1914  -19.4229 C   0  0  0  0  0  0  0  0  0  0  0  0
  -23.3795  -17.1056  -21.1333 H   0  0  0  0  0  0  0  0  0  0  0  0
  -22.2326  -18.3131  -21.1634 H   0  0  0  0  0  0  0  0  0  0  0  0
  -20.8106  -17.5332  -19.0043 C   0  0  0  0  0  0  0  0  0  0  0  0
  -19.8832  -17.4598  -19.8170 O   0  0  0  0  0  0  0  0  0  0  0  0
  -20.5673  -17.9143  -17.8490 O   0  0  0  0  0  0  0  0  0  0  0  0
  -21.2593  -17.9756  -17.2204 H   0  0  0  0  0  0  0  0  0  0  0  0
  -23.1944  -18.0709  -18.6416 C   0  0  0  0  0  0  0  0  0  0  0  0
  -24.2536  -18.6173  -19.5871 C   0  0  0  0  0  0  0  0  0  0  0  0
  -25.2952  -19.4760  -18.8823 C   0  0  0  0  0  0  0  0  0  0  0  0
  -25.1219  -19.3089  -17.3802 C   0  0  0  0  0  0  0  0  0  0  0  0
  -26.3007  -18.8567  -16.6734 N   0  0  0  0  0  0  0  0  0  0  0  0
  -27.5133  -19.6527  -16.7659 C   0  0  0  0  0  0  0  0  0  0  0  0
  -26.5242  -17.9258  -17.0254 H   0  0  0  0  0  0  0  0  0  0  0  0
  1  2  1  0  0  0
  2  9  1  0  0  0
  2  5  1  0  0  0
  9 10  1  0  0  0
 10 11  1  0  0  0
 11 12  1  0  0  0
 12 13  1  0  0  0
 13 14  1  0  0  0
  5  6  2  0  0  0
  5  7  1  0  0  0
  1  3  1  0  0  0
  1  4  1  0  0  0
 13 15  1  0  0  0
  7  8  1  0  0  0
M  END
> <minimizedAffinity>
-4.12541

$$$$
2R5A_MLZ_A_436


 15 14  0  0  0  0  0  0  0  0999 V2000
  -23.2559  -18.2448  -18.7636 N   0  0  0  0  0  0  0  0  0  0  0  0
  -22.3398  -17.2212  -19.3506 C   0  0  0  0  0  0  0  0  0  0  0  0
  -23.1263  -18.2770  -17.7524 H   0  0  0  0  0  0  0  0  0  0  0  0
  -23.0443  -19.1593  -19.1628 H   0  0  0  0  0  0  0  0  0  0  0  0
  -22.4823  -17.1239  -20.8460 C   0  0  0  0  0  0  0  0  0  0  0  0
  -23.5551  -17.4067  -21.3893 O   0  0  0  0  0  0  0  0  0  0  0  0
  -21.5227  -16.7826  -21.5544 O   0  0  0  0  0  0  0  0  0  0  0  0
  -20.7020  -16.5648  -21.1582 H   0  0  0  0  0  0  0  0  0  0  0  0
  -20.8810  -17.5345  -19.0101 C   0  0  0  0  0  0  0  0  0  0  0  0
  -20.7668  -17.8834  -17.5337 C   0  0  0  0  0  0  0  0  0  0  0  0
  -19.8756  -19.0906  -17.2743 C   0  0  0  0  0  0  0  0  0  0  0  0
  -20.6575  -20.0982  -16.4451 C   0  0  0  0  0  0  0  0  0  0  0  0
  -22.0871  -19.8790  -16.4018 N   0  0  0  0  0  0  0  0  0  0  0  0
  -22.7223  -19.6960  -15.1074 C   0  0  0  0  0  0  0  0  0  0  0  0
  -22.5288  -20.6859  -16.8425 H   0  0  0  0  0  0  0  0  0  0  0  0
  1  2  1  0  0  0
  2  9  1  0  0  0
  2  5  1  0  0  0
  9 10  1  0  0  0
 10 11  1  0  0  0
 11 12  1  0  0  0
 12 13  1  0  0  0
 13 14  1  0  0  0
  5  6  2  0  0  0
  5  7  1  0  0  0
  1  3  1  0  0  0
  1  4  1  0  0  0
 13 15  1  0  0  0
  7  8  1  0  0  0
M  END
> <minimizedAffinity>
-3.89982

$$$$
2R5A_MLZ_A_436


 15 14  0  0  0  0  0  0  0  0999 V2000
  -28.3323  -19.0191  -17.0575 N   0  0  0  0  0  0  0  0  0  0  0  0
  -27.4050  -19.9226  -17.8027 C   0  0  0  0  0  0  0  0  0  0  0  0
  -28.1697  -18.0538  -17.3440 H   0  0  0  0  0  0  0  0  0  0  0  0
  -28.1632  -19.1096  -16.0558 H   0  0  0  0  0  0  0  0  0  0  0  0
  -27.5949  -21.3671  -17.4241 C   0  0  0  0  0  0  0  0  0  0  0  0
  -28.5348  -22.0160  -17.8947 O   0  0  0  0  0  0  0  0  0  0  0  0
  -26.8282  -21.9188  -16.6198 O   0  0  0  0  0  0  0  0  0  0  0  0
  -26.1103  -21.4407  -16.2536 H   0  0  0  0  0  0  0  0  0  0  0  0
  -25.9460  -19.5321  -17.5555 C   0  0  0  0  0  0  0  0  0  0  0  0
  -25.1830  -19.5558  -18.8714 C   0  0  0  0  0  0  0  0  0  0  0  0
  -24.1552  -18.4379  -18.9842 C   0  0  0  0  0  0  0  0  0  0  0  0
  -23.8350  -18.2236  -20.4558 C   0  0  0  0  0  0  0  0  0  0  0  0
  -22.9187  -17.1382  -20.7323 N   0  0  0  0  0  0  0  0  0  0  0  0
  -22.7497  -16.7067  -22.1098 C   0  0  0  0  0  0  0  0  0  0  0  0
  -22.0010  -17.4250  -20.3919 H   0  0  0  0  0  0  0  0  0  0  0  0
  1  2  1  0  0  0
  2  9  1  0  0  0
  2  5  1  0  0  0
  9 10  1  0  0  0
 10 11  1  0  0  0
 11 12  1  0  0  0
 12 13  1  0  0  0
 13 14  1  0  0  0
  5  6  2  0  0  0
  5  7  1  0  0  0
  1  3  1  0  0  0
  1  4  1  0  0  0
 13 15  1  0  0  0
  7  8  1  0  0  0
M  END
> <minimizedAffinity>
-3.65661

$$$$
2R5A_MLZ_A_436


 15 14  0  0  0  0  0  0  0  0999 V2000
  -26.4518  -20.6939  -15.9123 N   0  0  0  0  0  0  0  0  0  0  0  0
  -26.4410  -19.7943  -17.1048 C   0  0  0  0  0  0  0  0  0  0  0  0
  -25.5478  -20.6463  -15.4423 H   0  0  0  0  0  0  0  0  0  0  0  0
  -26.6294  -21.6528  -16.2115 H   0  0  0  0  0  0  0  0  0  0  0  0
  -27.7514  -19.8188  -17.8454 C   0  0  0  0  0  0  0  0  0  0  0  0
  -28.0197  -20.7546  -18.6058 O   0  0  0  0  0  0  0  0  0  0  0  0
  -28.5678  -18.8928  -17.7221 O   0  0  0  0  0  0  0  0  0  0  0  0
  -28.3797  -18.1755  -17.1494 H   0  0  0  0  0  0  0  0  0  0  0  0
  -25.3178  -20.1801  -18.0700 C   0  0  0  0  0  0  0  0  0  0  0  0
  -24.4741  -18.9539  -18.3850 C   0  0  0  0  0  0  0  0  0  0  0  0
  -24.3157  -18.7079  -19.8794 C   0  0  0  0  0  0  0  0  0  0  0  0
  -23.1698  -17.7295  -20.0885 C   0  0  0  0  0  0  0  0  0  0  0  0
  -23.2792  -16.9003  -21.2693 N   0  0  0  0  0  0  0  0  0  0  0  0
  -22.0624  -16.5315  -21.9735 C   0  0  0  0  0  0  0  0  0  0  0  0
  -23.7382  -16.0341  -20.9874 H   0  0  0  0  0  0  0  0  0  0  0  0
  1  2  1  0  0  0
  2  9  1  0  0  0
  2  5  1  0  0  0
  9 10  1  0  0  0
 10 11  1  0  0  0
 11 12  1  0  0  0
 12 13  1  0  0  0
 13 14  1  0  0  0
  5  6  2  0  0  0
  5  7  1  0  0  0
  1  3  1  0  0  0
  1  4  1  0  0  0
 13 15  1  0  0  0
  7  8  1  0  0  0
M  END
> <minimizedAffinity>
-3.64940

$$$$
2R5A_MLZ_A_436


 15 14  0  0  0  0  0  0  0  0999 V2000
  -24.4899  -18.0773  -19.6267 N   0  0  0  0  0  0  0  0  0  0  0  0
  -23.2782  -17.6646  -18.8567 C   0  0  0  0  0  0  0  0  0  0  0  0
  -25.2681  -18.2229  -18.9836 H   0  0  0  0  0  0  0  0  0  0  0  0
  -24.2956  -18.9446  -20.1271 H   0  0  0  0  0  0  0  0  0  0  0  0
  -22.0897  -17.4332  -19.7512 C   0  0  0  0  0  0  0  0  0  0  0  0
  -20.9442  -17.4925  -19.2928 O   0  0  0  0  0  0  0  0  0  0  0  0
  -22.2423  -17.1578  -20.9512 O   0  0  0  0  0  0  0  0  0  0  0  0
  -23.1045  -17.1088  -21.3147 H   0  0  0  0  0  0  0  0  0  0  0  0
  -22.9127  -18.7174  -17.8078 C   0  0  0  0  0  0  0  0  0  0  0  0
  -24.1411  -19.5506  -17.4739 C   0  0  0  0  0  0  0  0  0  0  0  0
  -24.8374  -19.0998  -16.1969 C   0  0  0  0  0  0  0  0  0  0  0  0
  -26.3397  -19.2377  -16.3921 C   0  0  0  0  0  0  0  0  0  0  0  0
  -26.7785  -19.2705  -17.7706 N   0  0  0  0  0  0  0  0  0  0  0  0
  -27.8831  -20.1455  -18.1266 C   0  0  0  0  0  0  0  0  0  0  0  0
  -25.9771  -19.5525  -18.3350 H   0  0  0  0  0  0  0  0  0  0  0  0
  1  2  1  0  0  0
  2  9  1  0  0  0
  2  5  1  0  0  0
  9 10  1  0  0  0
 10 11  1  0  0  0
 11 12  1  0  0  0
 12 13  1  0  0  0
 13 14  1  0  0  0
  5  6  2  0  0  0
  5  7  1  0  0  0
  1  3  1  0  0  0
  1  4  1  0  0  0
 13 15  1  0  0  0
  7  8  1  0  0  0
M  END
> <minimizedAffinity>
-3.51811

$$$$
2R5A_MLZ_A_436


 15 14  0  0  0  0  0  0  0  0999 V2000
  -26.7122  -18.9889  -16.5690 N   0  0  0  0  0  0  0  0  0  0  0  0
  -25.8638  -20.2020  -16.3689 C   0  0  0  0  0  0  0  0  0  0  0  0
  -27.2438  -19.0847  -17.4342 H   0  0  0  0  0  0  0  0  0  0  0  0
  -26.1164  -18.1629  -16.6258 H   0  0  0  0  0  0  0  0  0  0  0  0
  -25.0510  -20.1230  -15.1043 C   0  0  0  0  0  0  0  0  0  0  0  0
  -25.3753  -20.7848  -14.1130 O   0  0  0  0  0  0  0  0  0  0  0  0
  -24.0615  -19.3782  -15.0311 O   0  0  0  0  0  0  0  0  0  0  0  0
  -23.8020  -18.8694  -15.7739 H   0  0  0  0  0  0  0  0  0  0  0  0
  -24.9187  -20.4093  -17.5546 C   0  0  0  0  0  0  0  0  0  0  0  0
  -25.1887  -19.3490  -18.6118 C   0  0  0  0  0  0  0  0  0  0  0  0
  -23.9883  -18.4490  -18.8727 C   0  0  0  0  0  0  0  0  0  0  0  0
  -23.8539  -18.2476  -20.3745 C   0  0  0  0  0  0  0  0  0  0  0  0
  -22.8868  -17.2484  -20.7751 N   0  0  0  0  0  0  0  0  0  0  0  0
  -22.8842  -16.8002  -22.1577 C   0  0  0  0  0  0  0  0  0  0  0  0
  -21.9612  -17.6304  -20.5806 H   0  0  0  0  0  0  0  0  0  0  0  0
  1  2  1  0  0  0
  2  9  1  0  0  0
  2  5  1  0  0  0
  9 10  1  0  0  0
 10 11  1  0  0  0
 11 12  1  0  0  0
 12 13  1  0  0  0
 13 14  1  0  0  0
  5  6  2  0  0  0
  5  7  1  0  0  0
  1  3  1  0  0  0
  1  4  1  0  0  0
 13 15  1  0  0  0
  7  8  1  0  0  0
M  END
> <minimizedAffinity>
-3.51421

$$$$
2R5A_MLZ_A_436


 15 14  0  0  0  0  0  0  0  0999 V2000
  -27.2581  -22.3536  -16.8606 N   0  0  0  0  0  0  0  0  0  0  0  0
  -27.1151  -21.3359  -17.9447 C   0  0  0  0  0  0  0  0  0  0  0  0
  -26.9384  -21.9564  -15.9771 H   0  0  0  0  0  0  0  0  0  0  0  0
  -26.6959  -23.1738  -17.0878 H   0  0  0  0  0  0  0  0  0  0  0  0
  -27.5716  -21.8616  -19.2794 C   0  0  0  0  0  0  0  0  0  0  0  0
  -28.7278  -21.6615  -19.6653 O   0  0  0  0  0  0  0  0  0  0  0  0
  -26.8046  -22.5204  -19.9984 O   0  0  0  0  0  0  0  0  0  0  0  0
  -25.9244  -22.6813  -19.7204 H   0  0  0  0  0  0  0  0  0  0  0  0
  -25.6633  -20.8671  -18.0658 C   0  0  0  0  0  0  0  0  0  0  0  0
  -25.6277  -19.4745  -18.6773 C   0  0  0  0  0  0  0  0  0  0  0  0
  -24.2200  -18.9019  -18.7731 C   0  0  0  0  0  0  0  0  0  0  0  0
  -24.0093  -18.3726  -20.1836 C   0  0  0  0  0  0  0  0  0  0  0  0
  -22.9799  -17.3640  -20.3128 N   0  0  0  0  0  0  0  0  0  0  0  0
  -21.9000  -17.3460  -19.3402 C   0  0  0  0  0  0  0  0  0  0  0  0
  -23.4413  -16.4554  -20.2671 H   0  0  0  0  0  0  0  0  0  0  0  0
  1  2  1  0  0  0
  2  9  1  0  0  0
  2  5  1  0  0  0
  9 10  1  0  0  0
 10 11  1  0  0  0
 11 12  1  0  0  0
 12 13  1  0  0  0
 13 14  1  0  0  0
  5  6  2  0  0  0
  5  7  1  0  0  0
  1  3  1  0  0  0
  1  4  1  0  0  0
 13 15  1  0  0  0
  7  8  1  0  0  0
M  END
> <minimizedAffinity>
-3.44853

$$$$
2R5A_MLZ_A_436


 15 14  0  0  0  0  0  0  0  0999 V2000
  -22.6106  -19.7250  -15.1428 N   0  0  0  0  0  0  0  0  0  0  0  0
  -21.9297  -19.8311  -16.4681 C   0  0  0  0  0  0  0  0  0  0  0  0
  -23.6207  -19.6938  -15.2811 H   0  0  0  0  0  0  0  0  0  0  0  0
  -22.3056  -18.8736  -14.6710 H   0  0  0  0  0  0  0  0  0  0  0  0
  -20.4312  -19.8817  -16.3331 C   0  0  0  0  0  0  0  0  0  0  0  0
  -19.7359  -18.9530  -16.7573 O   0  0  0  0  0  0  0  0  0  0  0  0
  -19.8729  -20.8622  -15.8175 O   0  0  0  0  0  0  0  0  0  0  0  0
  -20.3857  -21.5752  -15.4907 H   0  0  0  0  0  0  0  0  0  0  0  0
  -22.3075  -18.6554  -17.3721 C   0  0  0  0  0  0  0  0  0  0  0  0
  -23.6539  -18.9284  -18.0256 C   0  0  0  0  0  0  0  0  0  0  0  0
  -23.8283  -18.2057  -19.3546 C   0  0  0  0  0  0  0  0  0  0  0  0
  -22.5303  -17.4846  -19.6855 C   0  0  0  0  0  0  0  0  0  0  0  0
  -22.6264  -16.5046  -20.7458 N   0  0  0  0  0  0  0  0  0  0  0  0
  -22.9384  -16.9638  -22.0890 C   0  0  0  0  0  0  0  0  0  0  0  0
  -21.7283  -16.0234  -20.7932 H   0  0  0  0  0  0  0  0  0  0  0  0
  1  2  1  0  0  0
  2  9  1  0  0  0
  2  5  1  0  0  0
  9 10  1  0  0  0
 10 11  1  0  0  0
 11 12  1  0  0  0
 12 13  1  0  0  0
 13 14  1  0  0  0
  5  6  2  0  0  0
  5  7  1  0  0  0
  1  3  1  0  0  0
  1  4  1  0  0  0
 13 15  1  0  0  0
  7  8  1  0  0  0
M  END
> <minimizedAffinity>
-3.38791

$$$$
2R5A_MLZ_A_436


 15 14  0  0  0  0  0  0  0  0999 V2000
  -20.8667  -21.1222  -15.6780 N   0  0  0  0  0  0  0  0  0  0  0  0
  -21.7206  -20.1725  -16.4530 C   0  0  0  0  0  0  0  0  0  0  0  0
  -21.3366  -22.0250  -15.6112 H   0  0  0  0  0  0  0  0  0  0  0  0
  -20.7092  -20.7508  -14.7412 H   0  0  0  0  0  0  0  0  0  0  0  0
  -21.0814  -18.8164  -16.5882 C   0  0  0  0  0  0  0  0  0  0  0  0
  -20.5657  -18.2703  -15.6075 O   0  0  0  0  0  0  0  0  0  0  0  0
  -21.0832  -18.2191  -17.6756 O   0  0  0  0  0  0  0  0  0  0  0  0
  -21.4703  -18.6193  -18.4292 H   0  0  0  0  0  0  0  0  0  0  0  0
  -23.0933  -20.0113  -15.7959 C   0  0  0  0  0  0  0  0  0  0  0  0
  -24.1802  -20.1208  -16.8548 C   0  0  0  0  0  0  0  0  0  0  0  0
  -24.6266  -18.7678  -17.3922 C   0  0  0  0  0  0  0  0  0  0  0  0
  -24.5207  -18.7925  -18.9095 C   0  0  0  0  0  0  0  0  0  0  0  0
  -23.6296  -17.8044  -19.4782 N   0  0  0  0  0  0  0  0  0  0  0  0
  -23.4638  -17.7685  -20.9217 C   0  0  0  0  0  0  0  0  0  0  0  0
  -22.7070  -17.9624  -19.0730 H   0  0  0  0  0  0  0  0  0  0  0  0
  1  2  1  0  0  0
  2  9  1  0  0  0
  2  5  1  0  0  0
  9 10  1  0  0  0
 10 11  1  0  0  0
 11 12  1  0  0  0
 12 13  1  0  0  0
 13 14  1  0  0  0
  5  6  2  0  0  0
  5  7  1  0  0  0
  1  3  1  0  0  0
  1  4  1  0  0  0
 13 15  1  0  0  0
  7  8  1  0  0  0
M  END
> <minimizedAffinity>
-3.21804

$$$$
2R5A_MLZ_A_436


 15 14  0  0  0  0  0  0  0  0999 V2000
  -28.8216  -15.6389  -13.4657 N   0  0  0  0  0  0  0  0  0  0  0  0
  -28.9990  -14.1643  -13.3058 C   0  0  0  0  0  0  0  0  0  0  0  0
  -28.2039  -15.9884  -12.7331 H   0  0  0  0  0  0  0  0  0  0  0  0
  -28.4112  -15.8350  -14.3787 H   0  0  0  0  0  0  0  0  0  0  0  0
  -29.9035  -13.5846  -14.3603 C   0  0  0  0  0  0  0  0  0  0  0  0
  -30.2328  -12.3949  -14.3130 O   0  0  0  0  0  0  0  0  0  0  0  0
  -30.3488  -14.2945  -15.2751 O   0  0  0  0  0  0  0  0  0  0  0  0
  -30.1089  -15.1988  -15.3254 H   0  0  0  0  0  0  0  0  0  0  0  0
  -27.6502  -13.4431  -13.3573 C   0  0  0  0  0  0  0  0  0  0  0  0
  -26.6510  -14.1689  -12.4689 C   0  0  0  0  0  0  0  0  0  0  0  0
  -25.3376  -14.4750  -13.1762 C   0  0  0  0  0  0  0  0  0  0  0  0
  -25.1622  -15.9849  -13.2357 C   0  0  0  0  0  0  0  0  0  0  0  0
  -26.1153  -16.6805  -14.0734 N   0  0  0  0  0  0  0  0  0  0  0  0
  -25.7279  -17.9553  -14.6543 C   0  0  0  0  0  0  0  0  0  0  0  0
  -26.3490  -16.0565  -14.8456 H   0  0  0  0  0  0  0  0  0  0  0  0
  1  2  1  0  0  0
  2  9  1  0  0  0
  2  5  1  0  0  0
  9 10  1  0  0  0
 10 11  1  0  0  0
 11 12  1  0  0  0
 12 13  1  0  0  0
 13 14  1  0  0  0
  5  6  2  0  0  0
  5  7  1  0  0  0
  1  3  1  0  0  0
  1  4  1  0  0  0
 13 15  1  0  0  0
  7  8  1  0  0  0
M  END
> <minimizedAffinity>
-3.10480

$$$$
