3DC3_AZM_A_263


 16 16  0  0  0  0  0  0  0  0999 V2000
   -4.6636    1.8603   12.6367 C   0  0  0  0  0  0  0  0  0  0  0  0
   -4.6654    1.9236   14.9703 C   0  0  0  0  0  0  0  0  0  0  0  0
   -4.3102    0.7069   14.4801 N   0  0  0  0  0  0  0  0  0  0  0  0
   -4.2980    0.6544   13.0436 N   0  0  0  0  0  0  0  0  0  0  0  0
   -5.2136    2.9304   13.8671 S   0  0  0  0  0  0  0  0  0  0  0  0
   -6.1899    1.8058   10.4363 N   0  0  0  0  0  0  0  0  0  0  0  0
   -4.7122    3.7462   10.8855 O   0  0  0  0  0  0  0  0  0  0  0  0
   -3.6962    1.5929   10.3057 O   0  0  0  0  0  0  0  0  0  0  0  0
   -4.7649    2.2918   10.9670 S   0  0  0  0  0  0  0  0  0  0  0  0
   -6.9263    2.3177   10.9222 H   0  0  0  0  0  0  0  0  0  0  0  0
   -6.2962    0.8070   10.6136 H   0  0  0  0  0  0  0  0  0  0  0  0
   -5.7030    1.2167   17.0658 C   0  0  0  0  0  0  0  0  0  0  0  0
   -6.2293    1.6001   18.1442 C   0  0  0  0  0  0  0  0  0  0  0  0
   -5.0113    2.0310   16.3100 N   0  0  0  0  0  0  0  0  0  0  0  0
   -5.6416   -0.2520   16.8301 O   0  0  0  0  0  0  0  0  0  0  0  0
   -4.6868    2.8439   16.7606 H   0  0  0  0  0  0  0  0  0  0  0  0
  1  4  2  0  0  0
  1  9  1  0  0  0
  1  5  1  0  0  0
  2  3  2  0  0  0
  2 14  1  0  0  0
  2  5  1  0  0  0
 12 13  1  0  0  0
 12 14  1  0  0  0
 12 15  2  0  0  0
  6  9  1  0  0  0
  3  4  1  0  0  0
  7  9  2  0  0  0
  8  9  2  0  0  0
  6 10  1  0  0  0
  6 11  1  0  0  0
 14 16  1  0  0  0
M  END
> <minimizedAffinity>
-6.79882

$$$$
3DC3_AZM_A_263


 16 16  0  0  0  0  0  0  0  0999 V2000
   -3.2584    1.7201   12.0668 C   0  0  0  0  0  0  0  0  0  0  0  0
   -4.6230    1.9907   13.9415 C   0  0  0  0  0  0  0  0  0  0  0  0
   -3.7445    3.0151   13.7815 N   0  0  0  0  0  0  0  0  0  0  0  0
   -2.9014    2.8657   12.6268 N   0  0  0  0  0  0  0  0  0  0  0  0
   -4.3627    0.7578   12.9701 S   0  0  0  0  0  0  0  0  0  0  0  0
   -3.4839   -0.0289   10.0507 N   0  0  0  0  0  0  0  0  0  0  0  0
   -2.5177    2.2203    9.6529 O   0  0  0  0  0  0  0  0  0  0  0  0
   -1.2486    0.6056   10.9899 O   0  0  0  0  0  0  0  0  0  0  0  0
   -2.5361    1.1252   10.6147 S   0  0  0  0  0  0  0  0  0  0  0  0
   -4.3874    0.3686    9.7935 H   0  0  0  0  0  0  0  0  0  0  0  0
   -3.6176   -0.7405   10.7691 H   0  0  0  0  0  0  0  0  0  0  0  0
   -5.0258    1.0414   16.1560 C   0  0  0  0  0  0  0  0  0  0  0  0
   -5.8933    0.7830   17.0321 C   0  0  0  0  0  0  0  0  0  0  0  0
   -5.2750    1.8513   15.1587 N   0  0  0  0  0  0  0  0  0  0  0  0
   -3.6250    0.6342   16.4532 O   0  0  0  0  0  0  0  0  0  0  0  0
   -6.0421    2.4537   15.2923 H   0  0  0  0  0  0  0  0  0  0  0  0
  1  4  2  0  0  0
  1  9  1  0  0  0
  1  5  1  0  0  0
  2  3  2  0  0  0
  2 14  1  0  0  0
  2  5  1  0  0  0
 12 13  1  0  0  0
 12 14  1  0  0  0
 12 15  2  0  0  0
  6  9  1  0  0  0
  3  4  1  0  0  0
  7  9  2  0  0  0
  8  9  2  0  0  0
  6 10  1  0  0  0
  6 11  1  0  0  0
 14 16  1  0  0  0
M  END
> <minimizedAffinity>
-6.78879

$$$$
3DC3_AZM_A_263


 16 16  0  0  0  0  0  0  0  0999 V2000
   -4.7966    1.8740   14.5804 C   0  0  0  0  0  0  0  0  0  0  0  0
   -5.5797    3.4452   13.0416 C   0  0  0  0  0  0  0  0  0  0  0  0
   -4.6480    2.6111   12.5096 N   0  0  0  0  0  0  0  0  0  0  0  0
   -4.1609    1.6332   13.4439 N   0  0  0  0  0  0  0  0  0  0  0  0
   -5.7430    3.3108   14.6185 S   0  0  0  0  0  0  0  0  0  0  0  0
   -5.7919    1.2093   16.9766 N   0  0  0  0  0  0  0  0  0  0  0  0
   -4.6013   -0.4792   15.6049 O   0  0  0  0  0  0  0  0  0  0  0  0
   -3.3219    1.3678   16.5829 O   0  0  0  0  0  0  0  0  0  0  0  0
   -4.5601    0.9225   16.0026 S   0  0  0  0  0  0  0  0  0  0  0  0
   -6.6540    0.8836   16.5394 H   0  0  0  0  0  0  0  0  0  0  0  0
   -5.8585    2.2115   17.1545 H   0  0  0  0  0  0  0  0  0  0  0  0
   -5.4799    5.8334   12.5376 C   0  0  0  0  0  0  0  0  0  0  0  0
   -6.1112    6.8262   12.0873 C   0  0  0  0  0  0  0  0  0  0  0  0
   -5.9050    4.6087   12.3586 N   0  0  0  0  0  0  0  0  0  0  0  0
   -4.0918    6.0778   13.0170 O   0  0  0  0  0  0  0  0  0  0  0  0
   -6.5549    4.4955   11.6278 H   0  0  0  0  0  0  0  0  0  0  0  0
  1  4  2  0  0  0
  1  9  1  0  0  0
  1  5  1  0  0  0
  2  3  2  0  0  0
  2 14  1  0  0  0
  2  5  1  0  0  0
 12 13  1  0  0  0
 12 14  1  0  0  0
 12 15  2  0  0  0
  6  9  1  0  0  0
  3  4  1  0  0  0
  7  9  2  0  0  0
  8  9  2  0  0  0
  6 10  1  0  0  0
  6 11  1  0  0  0
 14 16  1  0  0  0
M  END
> <minimizedAffinity>
-6.20970

$$$$
3DC3_AZM_A_263


 16 16  0  0  0  0  0  0  0  0999 V2000
   -4.5766    1.0253   14.2598 C   0  0  0  0  0  0  0  0  0  0  0  0
   -4.5699    1.7936   12.0554 C   0  0  0  0  0  0  0  0  0  0  0  0
   -4.3507    0.4554   12.1438 N   0  0  0  0  0  0  0  0  0  0  0  0
   -4.3587   -0.0338   13.4955 N   0  0  0  0  0  0  0  0  0  0  0  0
   -4.5453    2.5469   13.4566 S   0  0  0  0  0  0  0  0  0  0  0  0
   -5.8395    1.9510   16.4330 N   0  0  0  0  0  0  0  0  0  0  0  0
   -5.1390   -0.4249   16.3107 O   0  0  0  0  0  0  0  0  0  0  0  0
   -3.4178    1.3090   16.4998 O   0  0  0  0  0  0  0  0  0  0  0  0
   -4.7027    0.9259   15.9798 S   0  0  0  0  0  0  0  0  0  0  0  0
   -6.7371    1.6542   16.0502 H   0  0  0  0  0  0  0  0  0  0  0  0
   -5.6139    2.8836   16.0870 H   0  0  0  0  0  0  0  0  0  0  0  0
   -3.1930    3.0370   10.4662 C   0  0  0  0  0  0  0  0  0  0  0  0
   -3.1950    3.8700    9.5212 C   0  0  0  0  0  0  0  0  0  0  0  0
   -4.2894    2.4408   10.8602 N   0  0  0  0  0  0  0  0  0  0  0  0
   -1.8671    2.5337   10.9188 O   0  0  0  0  0  0  0  0  0  0  0  0
   -5.0279    2.4533   10.2094 H   0  0  0  0  0  0  0  0  0  0  0  0
  1  4  2  0  0  0
  1  9  1  0  0  0
  1  5  1  0  0  0
  2  3  2  0  0  0
  2 14  1  0  0  0
  2  5  1  0  0  0
 12 13  1  0  0  0
 12 14  1  0  0  0
 12 15  2  0  0  0
  6  9  1  0  0  0
  3  4  1  0  0  0
  7  9  2  0  0  0
  8  9  2  0  0  0
  6 10  1  0  0  0
  6 11  1  0  0  0
 14 16  1  0  0  0
M  END
> <minimizedAffinity>
-6.15887

$$$$
3DC3_AZM_A_263


 16 16  0  0  0  0  0  0  0  0999 V2000
   -3.5535    1.3844   11.5482 C   0  0  0  0  0  0  0  0  0  0  0  0
   -3.3194    3.5495   12.3894 C   0  0  0  0  0  0  0  0  0  0  0  0
   -2.1306    2.9012   12.2752 N   0  0  0  0  0  0  0  0  0  0  0  0
   -2.2580    1.5683   11.7518 N   0  0  0  0  0  0  0  0  0  0  0  0
   -4.5885    2.6199   12.1513 S   0  0  0  0  0  0  0  0  0  0  0  0
   -3.1291   -0.6365    9.8423 N   0  0  0  0  0  0  0  0  0  0  0  0
   -4.3212   -1.0341   11.9803 O   0  0  0  0  0  0  0  0  0  0  0  0
   -5.4265    0.2846   10.2355 O   0  0  0  0  0  0  0  0  0  0  0  0
   -4.1971   -0.0766   10.8884 S   0  0  0  0  0  0  0  0  0  0  0  0
   -2.2698   -0.8837   10.3331 H   0  0  0  0  0  0  0  0  0  0  0  0
   -2.9282    0.0802    9.1449 H   0  0  0  0  0  0  0  0  0  0  0  0
   -3.6157    4.8576   14.4311 C   0  0  0  0  0  0  0  0  0  0  0  0
   -3.9835    5.9626   14.9113 C   0  0  0  0  0  0  0  0  0  0  0  0
   -3.3805    4.7070   13.1526 N   0  0  0  0  0  0  0  0  0  0  0  0
   -3.1724    3.8161   15.3981 O   0  0  0  0  0  0  0  0  0  0  0  0
   -3.2228    5.5425   12.6563 H   0  0  0  0  0  0  0  0  0  0  0  0
  1  4  2  0  0  0
  1  9  1  0  0  0
  1  5  1  0  0  0
  2  3  2  0  0  0
  2 14  1  0  0  0
  2  5  1  0  0  0
 12 13  1  0  0  0
 12 14  1  0  0  0
 12 15  2  0  0  0
  6  9  1  0  0  0
  3  4  1  0  0  0
  7  9  2  0  0  0
  8  9  2  0  0  0
  6 10  1  0  0  0
  6 11  1  0  0  0
 14 16  1  0  0  0
M  END
> <minimizedAffinity>
-6.14372

$$$$
3DC3_AZM_A_263


 16 16  0  0  0  0  0  0  0  0999 V2000
   -4.6640    1.5164   13.9739 C   0  0  0  0  0  0  0  0  0  0  0  0
   -5.0138    2.6489   11.9627 C   0  0  0  0  0  0  0  0  0  0  0  0
   -4.2236    1.5531   11.8156 N   0  0  0  0  0  0  0  0  0  0  0  0
   -4.0046    0.8412   13.0451 N   0  0  0  0  0  0  0  0  0  0  0  0
   -5.3159    3.0298   13.4776 S   0  0  0  0  0  0  0  0  0  0  0  0
   -3.4492    1.6490   16.3574 N   0  0  0  0  0  0  0  0  0  0  0  0
   -5.9246    1.5914   16.2169 O   0  0  0  0  0  0  0  0  0  0  0  0
   -4.6572   -0.4182   15.6165 O   0  0  0  0  0  0  0  0  0  0  0  0
   -4.7210    1.0185   15.6271 S   0  0  0  0  0  0  0  0  0  0  0  0
   -3.5222    2.6663   16.3494 H   0  0  0  0  0  0  0  0  0  0  0  0
   -2.6006    1.3651   15.8679 H   0  0  0  0  0  0  0  0  0  0  0  0
   -4.2894    4.6215   10.7171 C   0  0  0  0  0  0  0  0  0  0  0  0
   -4.6526    5.5664    9.9673 C   0  0  0  0  0  0  0  0  0  0  0  0
   -5.0574    3.5854   10.9395 N   0  0  0  0  0  0  0  0  0  0  0  0
   -2.8516    4.5795   11.1008 O   0  0  0  0  0  0  0  0  0  0  0  0
   -5.7757    3.4496   10.2801 H   0  0  0  0  0  0  0  0  0  0  0  0
  1  4  2  0  0  0
  1  9  1  0  0  0
  1  5  1  0  0  0
  2  3  2  0  0  0
  2 14  1  0  0  0
  2  5  1  0  0  0
 12 13  1  0  0  0
 12 14  1  0  0  0
 12 15  2  0  0  0
  6  9  1  0  0  0
  3  4  1  0  0  0
  7  9  2  0  0  0
  8  9  2  0  0  0
  6 10  1  0  0  0
  6 11  1  0  0  0
 14 16  1  0  0  0
M  END
> <minimizedAffinity>
-6.07757

$$$$
3DC3_AZM_A_263


 16 16  0  0  0  0  0  0  0  0999 V2000
   -3.0269    1.4806   11.5121 C   0  0  0  0  0  0  0  0  0  0  0  0
   -2.1194    3.5572   12.0728 C   0  0  0  0  0  0  0  0  0  0  0  0
   -1.1727    2.5916   11.9381 N   0  0  0  0  0  0  0  0  0  0  0  0
   -1.7161    1.3080   11.5862 N   0  0  0  0  0  0  0  0  0  0  0  0
   -3.6122    3.0071   12.0494 S   0  0  0  0  0  0  0  0  0  0  0  0
   -5.4796    0.8887   10.6131 N   0  0  0  0  0  0  0  0  0  0  0  0
   -3.5348   -0.4984    9.9466 O   0  0  0  0  0  0  0  0  0  0  0  0
   -4.3040   -0.5767   12.2720 O   0  0  0  0  0  0  0  0  0  0  0  0
   -4.1137    0.2085   11.0823 S   0  0  0  0  0  0  0  0  0  0  0  0
   -5.3139    1.4375    9.7695 H   0  0  0  0  0  0  0  0  0  0  0  0
   -5.8272    1.4988   11.3529 H   0  0  0  0  0  0  0  0  0  0  0  0
   -1.9025    5.1038   13.9511 C   0  0  0  0  0  0  0  0  0  0  0  0
   -1.8786    6.3136   14.3017 C   0  0  0  0  0  0  0  0  0  0  0  0
   -1.7773    4.7480   12.6979 N   0  0  0  0  0  0  0  0  0  0  0  0
   -1.7789    4.0862   15.0306 O   0  0  0  0  0  0  0  0  0  0  0  0
   -1.3798    5.4292   12.1087 H   0  0  0  0  0  0  0  0  0  0  0  0
  1  4  2  0  0  0
  1  9  1  0  0  0
  1  5  1  0  0  0
  2  3  2  0  0  0
  2 14  1  0  0  0
  2  5  1  0  0  0
 12 13  1  0  0  0
 12 14  1  0  0  0
 12 15  2  0  0  0
  6  9  1  0  0  0
  3  4  1  0  0  0
  7  9  2  0  0  0
  8  9  2  0  0  0
  6 10  1  0  0  0
  6 11  1  0  0  0
 14 16  1  0  0  0
M  END
> <minimizedAffinity>
-5.89624

$$$$
3DC3_AZM_A_263


 16 16  0  0  0  0  0  0  0  0999 V2000
   -3.7248    1.3209   11.7993 C   0  0  0  0  0  0  0  0  0  0  0  0
   -3.6837    3.2813   13.0663 C   0  0  0  0  0  0  0  0  0  0  0  0
   -2.4598    2.9476   12.5788 N   0  0  0  0  0  0  0  0  0  0  0  0
   -2.4705    1.7455   11.7905 N   0  0  0  0  0  0  0  0  0  0  0  0
   -4.7901    2.1563   12.8618 S   0  0  0  0  0  0  0  0  0  0  0  0
   -3.0776   -0.4780    9.9233 N   0  0  0  0  0  0  0  0  0  0  0  0
   -4.3709   -1.1675   11.9238 O   0  0  0  0  0  0  0  0  0  0  0  0
   -5.4456    0.2718   10.2570 O   0  0  0  0  0  0  0  0  0  0  0  0
   -4.2386   -0.0922   10.9488 S   0  0  0  0  0  0  0  0  0  0  0  0
   -2.2363   -0.7309   10.4417 H   0  0  0  0  0  0  0  0  0  0  0  0
   -2.8781    0.3197    9.3197 H   0  0  0  0  0  0  0  0  0  0  0  0
   -4.2534    5.4423   14.0526 C   0  0  0  0  0  0  0  0  0  0  0  0
   -3.9492    6.2962   14.9274 C   0  0  0  0  0  0  0  0  0  0  0  0
   -3.7664    4.2279   14.0778 N   0  0  0  0  0  0  0  0  0  0  0  0
   -5.4063    5.7647   13.1676 O   0  0  0  0  0  0  0  0  0  0  0  0
   -3.4032    3.9421   14.9471 H   0  0  0  0  0  0  0  0  0  0  0  0
  1  4  2  0  0  0
  1  9  1  0  0  0
  1  5  1  0  0  0
  2  3  2  0  0  0
  2 14  1  0  0  0
  2  5  1  0  0  0
 12 13  1  0  0  0
 12 14  1  0  0  0
 12 15  2  0  0  0
  6  9  1  0  0  0
  3  4  1  0  0  0
  7  9  2  0  0  0
  8  9  2  0  0  0
  6 10  1  0  0  0
  6 11  1  0  0  0
 14 16  1  0  0  0
M  END
> <minimizedAffinity>
-5.81667

$$$$
3DC3_AZM_A_263


 16 16  0  0  0  0  0  0  0  0999 V2000
   -4.8440    1.8791   14.4993 C   0  0  0  0  0  0  0  0  0  0  0  0
   -5.4691    3.4697   12.9090 C   0  0  0  0  0  0  0  0  0  0  0  0
   -4.8716    2.3823   12.3546 N   0  0  0  0  0  0  0  0  0  0  0  0
   -4.4868    1.3905   13.3215 N   0  0  0  0  0  0  0  0  0  0  0  0
   -5.3922    3.5104   14.4976 S   0  0  0  0  0  0  0  0  0  0  0  0
   -4.4723   -0.5300   15.6094 N   0  0  0  0  0  0  0  0  0  0  0  0
   -3.3501    1.4693   16.5550 O   0  0  0  0  0  0  0  0  0  0  0  0
   -5.7818    1.2609   16.7751 O   0  0  0  0  0  0  0  0  0  0  0  0
   -4.6099    1.0171   15.9779 S   0  0  0  0  0  0  0  0  0  0  0  0
   -3.6344   -0.6719   15.0453 H   0  0  0  0  0  0  0  0  0  0  0  0
   -5.2923   -0.8279   15.0811 H   0  0  0  0  0  0  0  0  0  0  0  0
   -4.8417    5.6733   12.0618 C   0  0  0  0  0  0  0  0  0  0  0  0
   -5.2648    6.7687   11.6056 C   0  0  0  0  0  0  0  0  0  0  0  0
   -5.6120    4.6185   12.1436 N   0  0  0  0  0  0  0  0  0  0  0  0
   -3.3685    5.5348   12.2253 O   0  0  0  0  0  0  0  0  0  0  0  0
   -6.4155    4.6438   11.5753 H   0  0  0  0  0  0  0  0  0  0  0  0
  1  4  2  0  0  0
  1  9  1  0  0  0
  1  5  1  0  0  0
  2  3  2  0  0  0
  2 14  1  0  0  0
  2  5  1  0  0  0
 12 13  1  0  0  0
 12 14  1  0  0  0
 12 15  2  0  0  0
  6  9  1  0  0  0
  3  4  1  0  0  0
  7  9  2  0  0  0
  8  9  2  0  0  0
  6 10  1  0  0  0
  6 11  1  0  0  0
 14 16  1  0  0  0
M  END
> <minimizedAffinity>
-5.78501

$$$$
3DC3_AZM_A_263


 16 16  0  0  0  0  0  0  0  0999 V2000
   -4.3771    1.0779   12.1895 C   0  0  0  0  0  0  0  0  0  0  0  0
   -5.0739    2.9598   13.3824 C   0  0  0  0  0  0  0  0  0  0  0  0
   -4.5229    2.0083   14.1811 N   0  0  0  0  0  0  0  0  0  0  0  0
   -4.0827    0.8456   13.4594 N   0  0  0  0  0  0  0  0  0  0  0  0
   -5.3252    2.4817   11.8859 S   0  0  0  0  0  0  0  0  0  0  0  0
   -5.2625   -0.0858    9.9453 N   0  0  0  0  0  0  0  0  0  0  0  0
   -2.8647    0.4989   10.1888 O   0  0  0  0  0  0  0  0  0  0  0  0
   -3.7881   -1.3093   11.5609 O   0  0  0  0  0  0  0  0  0  0  0  0
   -4.0028   -0.0376   10.9247 S   0  0  0  0  0  0  0  0  0  0  0  0
   -5.3896    0.8277    9.5097 H   0  0  0  0  0  0  0  0  0  0  0  0
   -6.0981   -0.3278   10.4778 H   0  0  0  0  0  0  0  0  0  0  0  0
   -5.4365    4.8900   14.8350 C   0  0  0  0  0  0  0  0  0  0  0  0
   -6.2750    5.5216   15.5313 C   0  0  0  0  0  0  0  0  0  0  0  0
   -5.8066    3.9830   13.9672 N   0  0  0  0  0  0  0  0  0  0  0  0
   -4.0435    5.4148   14.8163 O   0  0  0  0  0  0  0  0  0  0  0  0
   -6.7488    4.0345   13.6863 H   0  0  0  0  0  0  0  0  0  0  0  0
  1  4  2  0  0  0
  1  9  1  0  0  0
  1  5  1  0  0  0
  2  3  2  0  0  0
  2 14  1  0  0  0
  2  5  1  0  0  0
 12 13  1  0  0  0
 12 14  1  0  0  0
 12 15  2  0  0  0
  6  9  1  0  0  0
  3  4  1  0  0  0
  7  9  2  0  0  0
  8  9  2  0  0  0
  6 10  1  0  0  0
  6 11  1  0  0  0
 14 16  1  0  0  0
M  END
> <minimizedAffinity>
-5.74691

$$$$
