3D8Z_TXS_A_125


 23 25  0  0  0  0  0  0  0  0999 V2000
   35.3909   -6.3988   11.6747 C   0  0  0  0  0  0  0  0  0  0  0  0
   36.4257   -5.5832   12.2793 O   0  0  0  0  0  0  0  0  0  0  0  0
   34.1796   -6.1872   12.6165 C   0  0  0  0  0  0  0  0  0  0  0  0
   33.0243   -6.0192   11.7878 O   0  0  0  0  0  0  0  0  0  0  0  0
   34.5231   -4.8569   13.3115 C   0  0  0  0  0  0  0  0  0  0  0  0
   35.5789   -4.4251   12.2981 C   0  0  0  0  0  0  0  0  0  0  0  0
   33.1816   -5.3005   11.1556 H   0  0  0  0  0  0  0  0  0  0  0  0
   36.1817   -3.0756   12.1562 N   0  0  0  0  0  0  0  0  0  0  0  0
   37.3929   -2.9330   12.8467 C   0  0  0  0  0  0  0  0  0  0  0  0
   38.1071   -1.7484   12.7882 C   0  0  0  0  0  0  0  0  0  0  0  0
   39.4053   -1.6570   13.5788 C   0  0  0  0  0  0  0  0  0  0  0  0
   37.6240   -0.6888   12.0203 C   0  0  0  0  0  0  0  0  0  0  0  0
   38.2478    0.3686   11.9606 O   0  0  0  0  0  0  0  0  0  0  0  0
   36.4166   -0.8210   11.3073 N   0  0  0  0  0  0  0  0  0  0  0  0
   35.6821   -2.0226   11.3606 C   0  0  0  0  0  0  0  0  0  0  0  0
   34.6328   -2.1260   10.7317 O   0  0  0  0  0  0  0  0  0  0  0  0
   36.0832   -0.0683   10.7675 H   0  0  0  0  0  0  0  0  0  0  0  0
   35.7430   -7.8656   11.4294 C   0  0  0  0  0  0  0  0  0  0  0  0
   36.7765   -8.9210    9.5436 C   0  0  0  0  0  0  0  0  0  0  0  0
   36.9830   -8.5673    8.0589 C   0  0  0  0  0  0  0  0  0  0  0  0
   36.2265   -7.2471    7.8544 C   0  0  0  0  0  0  0  0  0  0  0  0
   35.8208   -6.8146    9.2637 C   0  0  0  0  0  0  0  0  0  0  0  0
   35.6404   -8.0894    9.9819 N   0  0  0  0  0  0  0  0  0  0  0  0
 19 20  1  0  0  0
 19 23  1  0  0  0
 20 21  1  0  0  0
 21 22  1  0  0  0
 22 23  1  0  0  0
 23 18  1  0  0  0
 18  1  1  0  0  0
  1  2  1  0  0  0
  1  3  1  0  0  0
  2  6  1  0  0  0
  3  4  1  0  0  0
  3  5  1  0  0  0
  5  6  1  0  0  0
  6  8  1  0  0  0
  8  9  1  0  0  0
  8 15  1  0  0  0
  9 10  2  0  0  0
 10 11  1  0  0  0
 10 12  1  0  0  0
 12 13  2  0  0  0
 12 14  1  0  0  0
 14 15  1  0  0  0
 15 16  2  0  0  0
  4  7  1  0  0  0
 14 17  1  0  0  0
M  END
> <minimizedAffinity>
-7.15487

$$$$
3D8Z_TXS_A_125


 23 25  0  0  0  0  0  0  0  0999 V2000
   36.0256   -2.9232   11.8490 C   0  0  0  0  0  0  0  0  0  0  0  0
   34.9424   -3.6830   11.2567 O   0  0  0  0  0  0  0  0  0  0  0  0
   35.8003   -3.1140   13.3695 C   0  0  0  0  0  0  0  0  0  0  0  0
   37.0827   -3.3505   13.9603 O   0  0  0  0  0  0  0  0  0  0  0  0
   34.9537   -4.3990   13.4247 C   0  0  0  0  0  0  0  0  0  0  0  0
   35.2825   -4.8577   12.0071 C   0  0  0  0  0  0  0  0  0  0  0  0
   37.5120   -4.0968   13.5134 H   0  0  0  0  0  0  0  0  0  0  0  0
   35.0308   -6.1986   11.4213 N   0  0  0  0  0  0  0  0  0  0  0  0
   36.0659   -6.6437   10.5879 C   0  0  0  0  0  0  0  0  0  0  0  0
   36.0085   -7.8915    9.9908 C   0  0  0  0  0  0  0  0  0  0  0  0
   37.1593   -8.3023    9.0820 C   0  0  0  0  0  0  0  0  0  0  0  0
   34.9151   -8.7228   10.2337 C   0  0  0  0  0  0  0  0  0  0  0  0
   34.8513   -9.8327    9.7091 O   0  0  0  0  0  0  0  0  0  0  0  0
   33.8739   -8.2975   11.0814 N   0  0  0  0  0  0  0  0  0  0  0  0
   33.9228   -7.0290   11.6936 C   0  0  0  0  0  0  0  0  0  0  0  0
   33.0103   -6.6717   12.4331 O   0  0  0  0  0  0  0  0  0  0  0  0
   33.1061   -8.8908   11.2476 H   0  0  0  0  0  0  0  0  0  0  0  0
   36.1447   -1.4632   11.4133 C   0  0  0  0  0  0  0  0  0  0  0  0
   36.5318    0.5951   12.5759 C   0  0  0  0  0  0  0  0  0  0  0  0
   37.7713    1.3772   13.0492 C   0  0  0  0  0  0  0  0  0  0  0  0
   38.9659    0.4741   12.7109 C   0  0  0  0  0  0  0  0  0  0  0  0
   38.3670   -0.6588   11.8770 C   0  0  0  0  0  0  0  0  0  0  0  0
   36.9968   -0.7937   12.4040 N   0  0  0  0  0  0  0  0  0  0  0  0
 19 20  1  0  0  0
 19 23  1  0  0  0
 20 21  1  0  0  0
 21 22  1  0  0  0
 22 23  1  0  0  0
 23 18  1  0  0  0
 18  1  1  0  0  0
  1  2  1  0  0  0
  1  3  1  0  0  0
  2  6  1  0  0  0
  3  4  1  0  0  0
  3  5  1  0  0  0
  5  6  1  0  0  0
  6  8  1  0  0  0
  8  9  1  0  0  0
  8 15  1  0  0  0
  9 10  2  0  0  0
 10 11  1  0  0  0
 10 12  1  0  0  0
 12 13  2  0  0  0
 12 14  1  0  0  0
 14 15  1  0  0  0
 15 16  2  0  0  0
  4  7  1  0  0  0
 14 17  1  0  0  0
M  END
> <minimizedAffinity>
-7.01067

$$$$
3D8Z_TXS_A_125


 23 25  0  0  0  0  0  0  0  0999 V2000
   35.9842   -1.5932   12.3079 C   0  0  0  0  0  0  0  0  0  0  0  0
   36.7322   -0.5588   11.6208 O   0  0  0  0  0  0  0  0  0  0  0  0
   37.0685   -2.3152   13.1457 C   0  0  0  0  0  0  0  0  0  0  0  0
   36.5094   -2.5580   14.4412 O   0  0  0  0  0  0  0  0  0  0  0  0
   38.1784   -1.2526   13.2455 C   0  0  0  0  0  0  0  0  0  0  0  0
   37.2952   -0.0736   12.8480 C   0  0  0  0  0  0  0  0  0  0  0  0
   36.1903   -1.7228   14.8173 H   0  0  0  0  0  0  0  0  0  0  0  0
   37.6166    1.3694   12.9855 N   0  0  0  0  0  0  0  0  0  0  0  0
   38.9454    1.6756   12.6625 C   0  0  0  0  0  0  0  0  0  0  0  0
   39.4013    2.9824   12.7005 C   0  0  0  0  0  0  0  0  0  0  0  0
   40.8621    3.2398   12.3561 C   0  0  0  0  0  0  0  0  0  0  0  0
   38.5238    4.0092   13.0489 C   0  0  0  0  0  0  0  0  0  0  0  0
   38.9159    5.1736   13.0874 O   0  0  0  0  0  0  0  0  0  0  0  0
   37.1810    3.7207   13.3608 N   0  0  0  0  0  0  0  0  0  0  0  0
   36.7074    2.3938   13.3255 C   0  0  0  0  0  0  0  0  0  0  0  0
   35.5338    2.1563   13.5962 O   0  0  0  0  0  0  0  0  0  0  0  0
   36.5684    4.4516   13.6053 H   0  0  0  0  0  0  0  0  0  0  0  0
   35.1522   -2.5244   11.4269 C   0  0  0  0  0  0  0  0  0  0  0  0
   35.7991   -4.5541   10.3314 C   0  0  0  0  0  0  0  0  0  0  0  0
   35.6857   -6.0584   10.6418 C   0  0  0  0  0  0  0  0  0  0  0  0
   35.0755   -6.1305   12.0488 C   0  0  0  0  0  0  0  0  0  0  0  0
   34.6773   -4.6895   12.3691 C   0  0  0  0  0  0  0  0  0  0  0  0
   35.6704   -3.8819   11.6376 N   0  0  0  0  0  0  0  0  0  0  0  0
 19 20  1  0  0  0
 19 23  1  0  0  0
 20 21  1  0  0  0
 21 22  1  0  0  0
 22 23  1  0  0  0
 23 18  1  0  0  0
 18  1  1  0  0  0
  1  2  1  0  0  0
  1  3  1  0  0  0
  2  6  1  0  0  0
  3  4  1  0  0  0
  3  5  1  0  0  0
  5  6  1  0  0  0
  6  8  1  0  0  0
  8  9  1  0  0  0
  8 15  1  0  0  0
  9 10  2  0  0  0
 10 11  1  0  0  0
 10 12  1  0  0  0
 12 13  2  0  0  0
 12 14  1  0  0  0
 14 15  1  0  0  0
 15 16  2  0  0  0
  4  7  1  0  0  0
 14 17  1  0  0  0
M  END
> <minimizedAffinity>
-6.62430

$$$$
3D8Z_TXS_A_125


 23 25  0  0  0  0  0  0  0  0999 V2000
   36.1090   -3.5415   12.4729 C   0  0  0  0  0  0  0  0  0  0  0  0
   36.2275   -2.3729   13.3225 O   0  0  0  0  0  0  0  0  0  0  0  0
   35.0912   -3.0925   11.3952 C   0  0  0  0  0  0  0  0  0  0  0  0
   35.5795   -3.5586   10.1326 O   0  0  0  0  0  0  0  0  0  0  0  0
   35.1894   -1.5572   11.4597 C   0  0  0  0  0  0  0  0  0  0  0  0
   36.5204   -1.5220   12.2049 C   0  0  0  0  0  0  0  0  0  0  0  0
   36.4855   -3.2391    9.9984 H   0  0  0  0  0  0  0  0  0  0  0  0
   37.4079   -0.3467   12.3930 N   0  0  0  0  0  0  0  0  0  0  0  0
   36.7211    0.8110   12.7831 C   0  0  0  0  0  0  0  0  0  0  0  0
   37.4038    1.9882   13.0387 C   0  0  0  0  0  0  0  0  0  0  0  0
   36.5917    3.2124   13.4395 C   0  0  0  0  0  0  0  0  0  0  0  0
   38.7935    2.0189   12.9222 C   0  0  0  0  0  0  0  0  0  0  0  0
   39.4116    3.0577   13.1454 O   0  0  0  0  0  0  0  0  0  0  0  0
   39.5005    0.8601   12.5469 N   0  0  0  0  0  0  0  0  0  0  0  0
   38.8149   -0.3428   12.2842 C   0  0  0  0  0  0  0  0  0  0  0  0
   39.4434   -1.3466   11.9611 O   0  0  0  0  0  0  0  0  0  0  0  0
   40.4814    0.8906   12.4674 H   0  0  0  0  0  0  0  0  0  0  0  0
   35.7430   -4.8507   13.1712 C   0  0  0  0  0  0  0  0  0  0  0  0
   33.9275   -6.3688   12.8001 C   0  0  0  0  0  0  0  0  0  0  0  0
   33.7147   -7.6514   11.9744 C   0  0  0  0  0  0  0  0  0  0  0  0
   35.0190   -7.8398   11.1867 C   0  0  0  0  0  0  0  0  0  0  0  0
   35.9712   -6.7923   11.7644 C   0  0  0  0  0  0  0  0  0  0  0  0
   35.0766   -5.6929   12.1699 N   0  0  0  0  0  0  0  0  0  0  0  0
 19 20  1  0  0  0
 19 23  1  0  0  0
 20 21  1  0  0  0
 21 22  1  0  0  0
 22 23  1  0  0  0
 23 18  1  0  0  0
 18  1  1  0  0  0
  1  2  1  0  0  0
  1  3  1  0  0  0
  2  6  1  0  0  0
  3  4  1  0  0  0
  3  5  1  0  0  0
  5  6  1  0  0  0
  6  8  1  0  0  0
  8  9  1  0  0  0
  8 15  1  0  0  0
  9 10  2  0  0  0
 10 11  1  0  0  0
 10 12  1  0  0  0
 12 13  2  0  0  0
 12 14  1  0  0  0
 14 15  1  0  0  0
 15 16  2  0  0  0
  4  7  1  0  0  0
 14 17  1  0  0  0
M  END
> <minimizedAffinity>
-6.49666

$$$$
3D8Z_TXS_A_125


 23 25  0  0  0  0  0  0  0  0999 V2000
   35.9512   -3.5255   12.4760 C   0  0  0  0  0  0  0  0  0  0  0  0
   36.1047   -2.3258   13.2751 O   0  0  0  0  0  0  0  0  0  0  0  0
   35.0859   -3.0471   11.2838 C   0  0  0  0  0  0  0  0  0  0  0  0
   35.6405   -3.6287   10.0989 O   0  0  0  0  0  0  0  0  0  0  0  0
   35.3274   -1.5264   11.2828 C   0  0  0  0  0  0  0  0  0  0  0  0
   36.5811   -1.5717   12.1512 C   0  0  0  0  0  0  0  0  0  0  0  0
   36.5818   -3.4028   10.0380 H   0  0  0  0  0  0  0  0  0  0  0  0
   37.5582   -0.4749   12.3672 N   0  0  0  0  0  0  0  0  0  0  0  0
   38.8745   -0.8324   12.0455 C   0  0  0  0  0  0  0  0  0  0  0  0
   39.9050    0.0860   12.1525 C   0  0  0  0  0  0  0  0  0  0  0  0
   41.3135   -0.3768   11.8049 C   0  0  0  0  0  0  0  0  0  0  0  0
   39.6282    1.3877   12.5704 C   0  0  0  0  0  0  0  0  0  0  0  0
   40.5341    2.2126   12.6706 O   0  0  0  0  0  0  0  0  0  0  0  0
   38.3085    1.7681   12.8822 N   0  0  0  0  0  0  0  0  0  0  0  0
   37.2527    0.8406   12.7768 C   0  0  0  0  0  0  0  0  0  0  0  0
   36.1064    1.1859   13.0484 O   0  0  0  0  0  0  0  0  0  0  0  0
   38.1221    2.6890   13.1760 H   0  0  0  0  0  0  0  0  0  0  0  0
   35.3962   -4.7527   13.1983 C   0  0  0  0  0  0  0  0  0  0  0  0
   33.6874   -6.3539   12.6941 C   0  0  0  0  0  0  0  0  0  0  0  0
   33.6101   -7.6689   11.8959 C   0  0  0  0  0  0  0  0  0  0  0  0
   34.9960   -7.8281   11.2547 C   0  0  0  0  0  0  0  0  0  0  0  0
   35.8428   -6.7256   11.8911 C   0  0  0  0  0  0  0  0  0  0  0  0
   34.8703   -5.6515   12.1633 N   0  0  0  0  0  0  0  0  0  0  0  0
 19 20  1  0  0  0
 19 23  1  0  0  0
 20 21  1  0  0  0
 21 22  1  0  0  0
 22 23  1  0  0  0
 23 18  1  0  0  0
 18  1  1  0  0  0
  1  2  1  0  0  0
  1  3  1  0  0  0
  2  6  1  0  0  0
  3  4  1  0  0  0
  3  5  1  0  0  0
  5  6  1  0  0  0
  6  8  1  0  0  0
  8  9  1  0  0  0
  8 15  1  0  0  0
  9 10  2  0  0  0
 10 11  1  0  0  0
 10 12  1  0  0  0
 12 13  2  0  0  0
 12 14  1  0  0  0
 14 15  1  0  0  0
 15 16  2  0  0  0
  4  7  1  0  0  0
 14 17  1  0  0  0
M  END
> <minimizedAffinity>
-6.46453

$$$$
3D8Z_TXS_A_125


 23 25  0  0  0  0  0  0  0  0999 V2000
   35.2498   -6.9945   11.6938 C   0  0  0  0  0  0  0  0  0  0  0  0
   36.2837   -6.5669   12.6155 O   0  0  0  0  0  0  0  0  0  0  0  0
   33.9450   -6.7659   12.4963 C   0  0  0  0  0  0  0  0  0  0  0  0
   32.9943   -6.1813   11.5996 O   0  0  0  0  0  0  0  0  0  0  0  0
   34.3763   -5.7295   13.5502 C   0  0  0  0  0  0  0  0  0  0  0  0
   35.6481   -5.2978   12.8261 C   0  0  0  0  0  0  0  0  0  0  0  0
   33.3746   -5.3831   11.2006 H   0  0  0  0  0  0  0  0  0  0  0  0
   36.4794   -4.1025   13.1166 N   0  0  0  0  0  0  0  0  0  0  0  0
   36.2065   -3.0178   12.2722 C   0  0  0  0  0  0  0  0  0  0  0  0
   36.8664   -1.8111   12.4321 C   0  0  0  0  0  0  0  0  0  0  0  0
   36.5340   -0.6815   11.4665 C   0  0  0  0  0  0  0  0  0  0  0  0
   37.8028   -1.6675   13.4559 C   0  0  0  0  0  0  0  0  0  0  0  0
   38.3964   -0.6019   13.6082 O   0  0  0  0  0  0  0  0  0  0  0  0
   38.0773   -2.7425   14.3235 N   0  0  0  0  0  0  0  0  0  0  0  0
   37.4112   -3.9748   14.1687 C   0  0  0  0  0  0  0  0  0  0  0  0
   37.6572   -4.9028   14.9337 O   0  0  0  0  0  0  0  0  0  0  0  0
   38.7394   -2.6322   15.0436 H   0  0  0  0  0  0  0  0  0  0  0  0
   35.3937   -8.4051   11.1235 C   0  0  0  0  0  0  0  0  0  0  0  0
   35.9139   -9.4594    9.0363 C   0  0  0  0  0  0  0  0  0  0  0  0
   36.3456   -8.9810    7.6374 C   0  0  0  0  0  0  0  0  0  0  0  0
   36.3112   -7.4479    7.7120 C   0  0  0  0  0  0  0  0  0  0  0  0
   36.0779   -7.1403    9.1914 C   0  0  0  0  0  0  0  0  0  0  0  0
   35.2794   -8.2858    9.6645 N   0  0  0  0  0  0  0  0  0  0  0  0
 19 20  1  0  0  0
 19 23  1  0  0  0
 20 21  1  0  0  0
 21 22  1  0  0  0
 22 23  1  0  0  0
 23 18  1  0  0  0
 18  1  1  0  0  0
  1  2  1  0  0  0
  1  3  1  0  0  0
  2  6  1  0  0  0
  3  4  1  0  0  0
  3  5  1  0  0  0
  5  6  1  0  0  0
  6  8  1  0  0  0
  8  9  1  0  0  0
  8 15  1  0  0  0
  9 10  2  0  0  0
 10 11  1  0  0  0
 10 12  1  0  0  0
 12 13  2  0  0  0
 12 14  1  0  0  0
 14 15  1  0  0  0
 15 16  2  0  0  0
  4  7  1  0  0  0
 14 17  1  0  0  0
M  END
> <minimizedAffinity>
-6.25771

$$$$
3D8Z_TXS_A_125


 23 25  0  0  0  0  0  0  0  0999 V2000
   37.0667   -1.6178   12.3002 C   0  0  0  0  0  0  0  0  0  0  0  0
   35.7842   -2.2923   12.3408 O   0  0  0  0  0  0  0  0  0  0  0  0
   37.7095   -1.9999   13.6566 C   0  0  0  0  0  0  0  0  0  0  0  0
   39.0825   -2.3141   13.4000 O   0  0  0  0  0  0  0  0  0  0  0  0
   36.9434   -3.2786   14.0427 C   0  0  0  0  0  0  0  0  0  0  0  0
   36.3953   -3.5542   12.6456 C   0  0  0  0  0  0  0  0  0  0  0  0
   39.1349   -2.9988   12.7149 H   0  0  0  0  0  0  0  0  0  0  0  0
   35.7624   -4.8086   12.1659 N   0  0  0  0  0  0  0  0  0  0  0  0
   35.4420   -5.6994   13.1993 C   0  0  0  0  0  0  0  0  0  0  0  0
   34.8104   -6.9015   12.9289 C   0  0  0  0  0  0  0  0  0  0  0  0
   34.5097   -7.8295   14.0982 C   0  0  0  0  0  0  0  0  0  0  0  0
   34.4743   -7.2235   11.6140 C   0  0  0  0  0  0  0  0  0  0  0  0
   33.9142   -8.2879   11.3601 O   0  0  0  0  0  0  0  0  0  0  0  0
   34.7746   -6.3324   10.5655 N   0  0  0  0  0  0  0  0  0  0  0  0
   35.4176   -5.1067   10.8303 C   0  0  0  0  0  0  0  0  0  0  0  0
   35.6707   -4.3374    9.9077 O   0  0  0  0  0  0  0  0  0  0  0  0
   34.5335   -6.5676    9.6404 H   0  0  0  0  0  0  0  0  0  0  0  0
   37.0318   -0.1147   12.0266 C   0  0  0  0  0  0  0  0  0  0  0  0
   37.1823    1.7347   13.5417 C   0  0  0  0  0  0  0  0  0  0  0  0
   38.3092    2.6515   14.0530 C   0  0  0  0  0  0  0  0  0  0  0  0
   39.5958    2.0837   13.4371 C   0  0  0  0  0  0  0  0  0  0  0  0
   39.1124    1.0232   12.4474 C   0  0  0  0  0  0  0  0  0  0  0  0
   37.8654    0.5224   13.0538 N   0  0  0  0  0  0  0  0  0  0  0  0
 19 20  1  0  0  0
 19 23  1  0  0  0
 20 21  1  0  0  0
 21 22  1  0  0  0
 22 23  1  0  0  0
 23 18  1  0  0  0
 18  1  1  0  0  0
  1  2  1  0  0  0
  1  3  1  0  0  0
  2  6  1  0  0  0
  3  4  1  0  0  0
  3  5  1  0  0  0
  5  6  1  0  0  0
  6  8  1  0  0  0
  8  9  1  0  0  0
  8 15  1  0  0  0
  9 10  2  0  0  0
 10 11  1  0  0  0
 10 12  1  0  0  0
 12 13  2  0  0  0
 12 14  1  0  0  0
 14 15  1  0  0  0
 15 16  2  0  0  0
  4  7  1  0  0  0
 14 17  1  0  0  0
M  END
> <minimizedAffinity>
-6.24092

$$$$
3D8Z_TXS_A_125


 23 25  0  0  0  0  0  0  0  0999 V2000
   36.0250   -1.7978   12.3075 C   0  0  0  0  0  0  0  0  0  0  0  0
   36.8666   -0.8615   11.5888 O   0  0  0  0  0  0  0  0  0  0  0  0
   37.0249   -2.5292   13.2372 C   0  0  0  0  0  0  0  0  0  0  0  0
   36.3998   -2.6484   14.5197 O   0  0  0  0  0  0  0  0  0  0  0  0
   38.1978   -1.5348   13.3171 C   0  0  0  0  0  0  0  0  0  0  0  0
   37.4111   -0.3315   12.8058 C   0  0  0  0  0  0  0  0  0  0  0  0
   36.1219   -1.7712   14.8267 H   0  0  0  0  0  0  0  0  0  0  0  0
   37.8215    1.0941   12.8640 N   0  0  0  0  0  0  0  0  0  0  0  0
   36.7957    1.9505   13.2862 C   0  0  0  0  0  0  0  0  0  0  0  0
   37.0211    3.3087   13.4326 C   0  0  0  0  0  0  0  0  0  0  0  0
   35.8557    4.1827   13.8763 C   0  0  0  0  0  0  0  0  0  0  0  0
   38.2887    3.8295   13.1723 C   0  0  0  0  0  0  0  0  0  0  0  0
   38.5020    5.0336   13.2975 O   0  0  0  0  0  0  0  0  0  0  0  0
   39.3351    2.9804   12.7627 N   0  0  0  0  0  0  0  0  0  0  0  0
   39.1156    1.5967   12.6103 C   0  0  0  0  0  0  0  0  0  0  0  0
   40.0371    0.8671   12.2560 O   0  0  0  0  0  0  0  0  0  0  0  0
   40.2267    3.3564   12.5814 H   0  0  0  0  0  0  0  0  0  0  0  0
   35.1690   -2.7315   11.4526 C   0  0  0  0  0  0  0  0  0  0  0  0
   35.8153   -4.8047   10.4414 C   0  0  0  0  0  0  0  0  0  0  0  0
   35.6393   -6.2973   10.7782 C   0  0  0  0  0  0  0  0  0  0  0  0
   34.9488   -6.3180   12.1493 C   0  0  0  0  0  0  0  0  0  0  0  0
   34.5767   -4.8589   12.4142 C   0  0  0  0  0  0  0  0  0  0  0  0
   35.6334   -4.0980   11.7227 N   0  0  0  0  0  0  0  0  0  0  0  0
 19 20  1  0  0  0
 19 23  1  0  0  0
 20 21  1  0  0  0
 21 22  1  0  0  0
 22 23  1  0  0  0
 23 18  1  0  0  0
 18  1  1  0  0  0
  1  2  1  0  0  0
  1  3  1  0  0  0
  2  6  1  0  0  0
  3  4  1  0  0  0
  3  5  1  0  0  0
  5  6  1  0  0  0
  6  8  1  0  0  0
  8  9  1  0  0  0
  8 15  1  0  0  0
  9 10  2  0  0  0
 10 11  1  0  0  0
 10 12  1  0  0  0
 12 13  2  0  0  0
 12 14  1  0  0  0
 14 15  1  0  0  0
 15 16  2  0  0  0
  4  7  1  0  0  0
 14 17  1  0  0  0
M  END
> <minimizedAffinity>
-6.11623

$$$$
3D8Z_TXS_A_125


 23 25  0  0  0  0  0  0  0  0999 V2000
   36.0382   -6.4234   11.9732 C   0  0  0  0  0  0  0  0  0  0  0  0
   36.8164   -5.4395   12.6996 O   0  0  0  0  0  0  0  0  0  0  0  0
   34.6185   -6.2619   12.5710 C   0  0  0  0  0  0  0  0  0  0  0  0
   33.6927   -6.3091   11.4799 O   0  0  0  0  0  0  0  0  0  0  0  0
   34.6619   -4.8396   13.1593 C   0  0  0  0  0  0  0  0  0  0  0  0
   35.8926   -4.3900   12.3773 C   0  0  0  0  0  0  0  0  0  0  0  0
   33.9370   -5.6420   10.8195 H   0  0  0  0  0  0  0  0  0  0  0  0
   36.3905   -3.0005   12.2172 N   0  0  0  0  0  0  0  0  0  0  0  0
   37.5644   -2.7446   12.9386 C   0  0  0  0  0  0  0  0  0  0  0  0
   38.1840   -1.5084   12.8695 C   0  0  0  0  0  0  0  0  0  0  0  0
   39.4456   -1.2943   13.6950 C   0  0  0  0  0  0  0  0  0  0  0  0
   37.6426   -0.5099   12.0598 C   0  0  0  0  0  0  0  0  0  0  0  0
   38.1822    0.5924   11.9902 O   0  0  0  0  0  0  0  0  0  0  0  0
   36.4724   -0.7555   11.3156 N   0  0  0  0  0  0  0  0  0  0  0  0
   35.8342   -2.0104   11.3795 C   0  0  0  0  0  0  0  0  0  0  0  0
   34.8166   -2.2127   10.7232 O   0  0  0  0  0  0  0  0  0  0  0  0
   36.0974   -0.0452   10.7464 H   0  0  0  0  0  0  0  0  0  0  0  0
   36.5675   -7.8569   11.9985 C   0  0  0  0  0  0  0  0  0  0  0  0
   38.8559   -8.0511   11.3173 C   0  0  0  0  0  0  0  0  0  0  0  0
   40.1487   -8.6072   11.9431 C   0  0  0  0  0  0  0  0  0  0  0  0
   39.7554   -9.0227   13.3679 C   0  0  0  0  0  0  0  0  0  0  0  0
   38.2329   -8.8860   13.4015 C   0  0  0  0  0  0  0  0  0  0  0  0
   37.9602   -7.7861   12.4583 N   0  0  0  0  0  0  0  0  0  0  0  0
 19 20  1  0  0  0
 19 23  1  0  0  0
 20 21  1  0  0  0
 21 22  1  0  0  0
 22 23  1  0  0  0
 23 18  1  0  0  0
 18  1  1  0  0  0
  1  2  1  0  0  0
  1  3  1  0  0  0
  2  6  1  0  0  0
  3  4  1  0  0  0
  3  5  1  0  0  0
  5  6  1  0  0  0
  6  8  1  0  0  0
  8  9  1  0  0  0
  8 15  1  0  0  0
  9 10  2  0  0  0
 10 11  1  0  0  0
 10 12  1  0  0  0
 12 13  2  0  0  0
 12 14  1  0  0  0
 14 15  1  0  0  0
 15 16  2  0  0  0
  4  7  1  0  0  0
 14 17  1  0  0  0
M  END
> <minimizedAffinity>
-5.88762

$$$$
3D8Z_TXS_A_125


 23 25  0  0  0  0  0  0  0  0999 V2000
   38.1714   -3.9071   15.0558 C   0  0  0  0  0  0  0  0  0  0  0  0
   38.0467   -4.7082   13.8541 O   0  0  0  0  0  0  0  0  0  0  0  0
   37.7719   -2.4891   14.5777 C   0  0  0  0  0  0  0  0  0  0  0  0
   36.9276   -1.9250   15.5870 O   0  0  0  0  0  0  0  0  0  0  0  0
   36.9483   -2.7819   13.3101 C   0  0  0  0  0  0  0  0  0  0  0  0
   36.7048   -4.2549   13.6249 C   0  0  0  0  0  0  0  0  0  0  0  0
   36.1840   -2.5238   15.7582 H   0  0  0  0  0  0  0  0  0  0  0  0
   35.7294   -5.1597   12.9660 N   0  0  0  0  0  0  0  0  0  0  0  0
   35.3745   -6.2626   13.7545 C   0  0  0  0  0  0  0  0  0  0  0  0
   34.4452   -7.1856   13.3055 C   0  0  0  0  0  0  0  0  0  0  0  0
   34.1217   -8.3699   14.2064 C   0  0  0  0  0  0  0  0  0  0  0  0
   33.8427   -7.0078   12.0601 C   0  0  0  0  0  0  0  0  0  0  0  0
   33.0168   -7.8203   11.6492 O   0  0  0  0  0  0  0  0  0  0  0  0
   34.1760   -5.8963   11.2619 N   0  0  0  0  0  0  0  0  0  0  0  0
   35.1209   -4.9515   11.7098 C   0  0  0  0  0  0  0  0  0  0  0  0
   35.4000   -3.9853   11.0058 O   0  0  0  0  0  0  0  0  0  0  0  0
   33.7456   -5.7784   10.3844 H   0  0  0  0  0  0  0  0  0  0  0  0
   39.5200   -3.9681   15.7722 C   0  0  0  0  0  0  0  0  0  0  0  0
   41.0792   -2.2697   16.4221 C   0  0  0  0  0  0  0  0  0  0  0  0
   41.2991   -1.3948   17.6705 C   0  0  0  0  0  0  0  0  0  0  0  0
   40.1253   -1.7276   18.6025 C   0  0  0  0  0  0  0  0  0  0  0  0
   39.4322   -2.9172   17.9376 C   0  0  0  0  0  0  0  0  0  0  0  0
   39.6713   -2.7013   16.4989 N   0  0  0  0  0  0  0  0  0  0  0  0
 19 20  1  0  0  0
 19 23  1  0  0  0
 20 21  1  0  0  0
 21 22  1  0  0  0
 22 23  1  0  0  0
 23 18  1  0  0  0
 18  1  1  0  0  0
  1  2  1  0  0  0
  1  3  1  0  0  0
  2  6  1  0  0  0
  3  4  1  0  0  0
  3  5  1  0  0  0
  5  6  1  0  0  0
  6  8  1  0  0  0
  8  9  1  0  0  0
  8 15  1  0  0  0
  9 10  2  0  0  0
 10 11  1  0  0  0
 10 12  1  0  0  0
 12 13  2  0  0  0
 12 14  1  0  0  0
 14 15  1  0  0  0
 15 16  2  0  0  0
  4  7  1  0  0  0
 14 17  1  0  0  0
M  END
> <minimizedAffinity>
-5.79766

$$$$
