6EUW_BYB_A_501


 32 36  0  0  0  0  0  0  0  0999 V2000
   17.8790  -33.7070  -11.7150 C   0  0  0  0  0  0  0  0  0  0  0  0
   17.8389  -34.2338  -10.4840 N   0  0  0  0  0  0  0  0  0  0  0  0
   17.1976  -35.3866  -10.3122 C   0  0  0  0  0  0  0  0  0  0  0  0
   16.5825  -35.9928  -11.4123 C   0  0  0  0  0  0  0  0  0  0  0  0
   16.6368  -35.3885  -12.6471 C   0  0  0  0  0  0  0  0  0  0  0  0
   17.3022  -34.2449  -12.8091 N   0  0  0  0  0  0  0  0  0  0  0  0
   15.9144  -37.1354  -11.2581 F   0  0  0  0  0  0  0  0  0  0  0  0
   20.8866  -31.2254   -9.1382 C   0  0  0  0  0  0  0  0  0  0  0  0
   21.1067  -30.0026   -9.7671 C   0  0  0  0  0  0  0  0  0  0  0  0
   20.0431  -32.1800   -9.6630 C   0  0  0  0  0  0  0  0  0  0  0  0
   19.4669  -31.8247  -10.8840 C   0  0  0  0  0  0  0  0  0  0  0  0
   19.7719  -30.5862  -11.4699 C   0  0  0  0  0  0  0  0  0  0  0  0
   20.5858  -29.6873  -10.9357 N   0  0  0  0  0  0  0  0  0  0  0  0
   19.1133  -30.4637  -12.6458 N   0  0  0  0  0  0  0  0  0  0  0  0
   18.3673  -31.5915  -12.8587 N   0  0  0  0  0  0  0  0  0  0  0  0
   18.5609  -32.4183  -11.8334 C   0  0  0  0  0  0  0  0  0  0  0  0
   21.4722  -31.4334   -7.9528 F   0  0  0  0  0  0  0  0  0  0  0  0
   19.1627  -29.6884  -13.2505 H   0  0  0  0  0  0  0  0  0  0  0  0
   17.1597  -35.9682   -9.0844 N   0  0  0  0  0  0  0  0  0  0  0  0
   16.5243  -36.7021   -8.9202 H   0  0  0  0  0  0  0  0  0  0  0  0
   18.0394  -35.5310   -8.0010 C   0  0  0  0  0  0  0  0  0  0  0  0
   17.2850  -34.5925   -7.0286 C   0  0  0  0  0  0  0  0  0  0  0  0
   16.2486  -35.3820   -6.2174 C   0  0  0  0  0  0  0  0  0  0  0  0
   16.9610  -36.4021   -5.3151 C   0  0  0  0  0  0  0  0  0  0  0  0
   18.4508  -36.4788   -5.7011 C   0  0  0  0  0  0  0  0  0  0  0  0
   18.5583  -36.7701   -7.2160 C   0  0  0  0  0  0  0  0  0  0  0  0
   18.3384  -33.9965   -6.0774 C   0  0  0  0  0  0  0  0  0  0  0  0
   19.1262  -35.1334   -5.4006 C   0  0  0  0  0  0  0  0  0  0  0  0
   19.9783  -37.1689   -7.5560 C   0  0  0  0  0  0  0  0  0  0  0  0
   20.6386  -37.9310   -6.8763 O   0  0  0  0  0  0  0  0  0  0  0  0
   20.4861  -36.6448   -8.6658 O   0  0  0  0  0  0  0  0  0  0  0  0
   19.9717  -36.0583   -9.1848 H   0  0  0  0  0  0  0  0  0  0  0  0
 15 14  1  0  0  0
 15 16  2  0  0  0
  6  5  2  0  0  0
  6  1  1  0  0  0
  5  4  1  0  0  0
 14 12  1  0  0  0
 16  1  1  0  0  0
 16 11  1  0  0  0
  1  2  2  0  0  0
  4  7  1  0  0  0
  4  3  2  0  0  0
 12 11  2  0  0  0
 12 13  1  0  0  0
 11 10  1  0  0  0
 13  9  2  0  0  0
  2  3  1  0  0  0
  3 19  1  0  0  0
  9  8  1  0  0  0
 10  8  2  0  0  0
 19 21  1  0  0  0
  8 17  1  0  0  0
 21 22  1  0  0  0
 21 26  1  0  0  0
 30 29  2  0  0  0
 29 26  1  0  0  0
 29 31  1  0  0  0
 22 23  1  0  0  0
 22 27  1  0  0  0
 26 25  1  0  0  0
 23 24  1  0  0  0
 27 28  1  0  0  0
 25 24  1  0  0  0
 25 28  1  0  0  0
 14 18  1  0  0  0
 19 20  1  0  0  0
 31 32  1  0  0  0
M  END
> <minimizedAffinity>
-11.00544

$$$$
6EUW_BYB_A_501


 32 36  0  0  0  0  0  0  0  0999 V2000
   17.8787  -33.7967  -11.5194 C   0  0  0  0  0  0  0  0  0  0  0  0
   17.8203  -34.1947  -10.2416 N   0  0  0  0  0  0  0  0  0  0  0  0
   17.2147  -35.3468   -9.9672 C   0  0  0  0  0  0  0  0  0  0  0  0
   16.6542  -36.0864  -11.0137 C   0  0  0  0  0  0  0  0  0  0  0  0
   16.7242  -35.6113  -12.3030 C   0  0  0  0  0  0  0  0  0  0  0  0
   17.3539  -34.4663  -12.5661 N   0  0  0  0  0  0  0  0  0  0  0  0
   16.0220  -37.2313  -10.7585 F   0  0  0  0  0  0  0  0  0  0  0  0
   20.8874  -31.0496   -9.2294 C   0  0  0  0  0  0  0  0  0  0  0  0
   21.0525  -29.8714   -9.9531 C   0  0  0  0  0  0  0  0  0  0  0  0
   20.0571  -32.0631   -9.6553 C   0  0  0  0  0  0  0  0  0  0  0  0
   19.4345  -31.8154  -10.8801 C   0  0  0  0  0  0  0  0  0  0  0  0
   19.6853  -30.6161  -11.5649 C   0  0  0  0  0  0  0  0  0  0  0  0
   20.4880  -29.6581  -11.1245 N   0  0  0  0  0  0  0  0  0  0  0  0
   18.9886  -30.5993  -12.7250 N   0  0  0  0  0  0  0  0  0  0  0  0
   18.2701  -31.7596  -12.8305 N   0  0  0  0  0  0  0  0  0  0  0  0
   18.5185  -32.5023  -11.7539 C   0  0  0  0  0  0  0  0  0  0  0  0
   21.5140  -31.1529   -8.0512 F   0  0  0  0  0  0  0  0  0  0  0  0
   18.9971  -29.8700  -13.3863 H   0  0  0  0  0  0  0  0  0  0  0  0
   17.1605  -35.7994   -8.6867 N   0  0  0  0  0  0  0  0  0  0  0  0
   16.2911  -35.8336   -8.2261 H   0  0  0  0  0  0  0  0  0  0  0  0
   18.3616  -36.2370   -7.9763 C   0  0  0  0  0  0  0  0  0  0  0  0
   19.3825  -35.0793   -7.8630 C   0  0  0  0  0  0  0  0  0  0  0  0
   18.8765  -34.0124   -6.8827 C   0  0  0  0  0  0  0  0  0  0  0  0
   18.7878  -34.6058   -5.4677 C   0  0  0  0  0  0  0  0  0  0  0  0
   18.9872  -36.1322   -5.5362 C   0  0  0  0  0  0  0  0  0  0  0  0
   17.9776  -36.7214   -6.5485 C   0  0  0  0  0  0  0  0  0  0  0  0
   20.6911  -35.6898   -7.3298 C   0  0  0  0  0  0  0  0  0  0  0  0
   20.4132  -36.4400   -6.0140 C   0  0  0  0  0  0  0  0  0  0  0  0
   17.9280  -38.2266   -6.3972 C   0  0  0  0  0  0  0  0  0  0  0  0
   16.9910  -38.8165   -5.8944 O   0  0  0  0  0  0  0  0  0  0  0  0
   18.9767  -38.8984   -6.8588 O   0  0  0  0  0  0  0  0  0  0  0  0
   19.6953  -38.4375   -7.2451 H   0  0  0  0  0  0  0  0  0  0  0  0
 15 14  1  0  0  0
 15 16  2  0  0  0
  6  5  2  0  0  0
  6  1  1  0  0  0
  5  4  1  0  0  0
 14 12  1  0  0  0
 16  1  1  0  0  0
 16 11  1  0  0  0
  1  2  2  0  0  0
  4  7  1  0  0  0
  4  3  2  0  0  0
 12 11  2  0  0  0
 12 13  1  0  0  0
 11 10  1  0  0  0
 13  9  2  0  0  0
  2  3  1  0  0  0
  3 19  1  0  0  0
  9  8  1  0  0  0
 10  8  2  0  0  0
 19 21  1  0  0  0
  8 17  1  0  0  0
 21 22  1  0  0  0
 21 26  1  0  0  0
 30 29  2  0  0  0
 29 26  1  0  0  0
 29 31  1  0  0  0
 22 23  1  0  0  0
 22 27  1  0  0  0
 26 25  1  0  0  0
 23 24  1  0  0  0
 27 28  1  0  0  0
 25 24  1  0  0  0
 25 28  1  0  0  0
 14 18  1  0  0  0
 19 20  1  0  0  0
 31 32  1  0  0  0
M  END
> <minimizedAffinity>
-9.64186

$$$$
6EUW_BYB_A_501


 32 36  0  0  0  0  0  0  0  0999 V2000
   17.8719  -33.9055  -11.4875 C   0  0  0  0  0  0  0  0  0  0  0  0
   17.7218  -34.2859  -10.2118 N   0  0  0  0  0  0  0  0  0  0  0  0
   17.1137  -35.4432   -9.9665 C   0  0  0  0  0  0  0  0  0  0  0  0
   16.6453  -36.2063  -11.0409 C   0  0  0  0  0  0  0  0  0  0  0  0
   16.8067  -35.7488  -12.3284 C   0  0  0  0  0  0  0  0  0  0  0  0
   17.4381  -34.5981  -12.5605 N   0  0  0  0  0  0  0  0  0  0  0  0
   16.0120  -37.3572  -10.8168 F   0  0  0  0  0  0  0  0  0  0  0  0
   20.8998  -31.2193   -9.1511 C   0  0  0  0  0  0  0  0  0  0  0  0
   21.0580  -30.0218   -9.8443 C   0  0  0  0  0  0  0  0  0  0  0  0
   20.0662  -32.2214   -9.5969 C   0  0  0  0  0  0  0  0  0  0  0  0
   19.4325  -31.9412  -10.8089 C   0  0  0  0  0  0  0  0  0  0  0  0
   19.6766  -30.7236  -11.4632 C   0  0  0  0  0  0  0  0  0  0  0  0
   20.4829  -29.7774  -11.0043 N   0  0  0  0  0  0  0  0  0  0  0  0
   18.9696  -30.6759  -12.6161 N   0  0  0  0  0  0  0  0  0  0  0  0
   18.2506  -31.8335  -12.7466 N   0  0  0  0  0  0  0  0  0  0  0  0
   18.5090  -32.6048  -11.6927 C   0  0  0  0  0  0  0  0  0  0  0  0
   21.5370  -31.3539   -7.9818 F   0  0  0  0  0  0  0  0  0  0  0  0
   18.9718  -29.9291  -13.2576 H   0  0  0  0  0  0  0  0  0  0  0  0
   16.9684  -35.8782   -8.6869 N   0  0  0  0  0  0  0  0  0  0  0  0
   16.0633  -35.9664   -8.3098 H   0  0  0  0  0  0  0  0  0  0  0  0
   18.1232  -36.2184   -7.8566 C   0  0  0  0  0  0  0  0  0  0  0  0
   18.8350  -37.4807   -8.4000 C   0  0  0  0  0  0  0  0  0  0  0  0
   19.5501  -37.1661   -9.7210 C   0  0  0  0  0  0  0  0  0  0  0  0
   20.6754  -36.1487   -9.4744 C   0  0  0  0  0  0  0  0  0  0  0  0
   20.5568  -35.5864   -8.0447 C   0  0  0  0  0  0  0  0  0  0  0  0
   19.1277  -35.0302   -7.8454 C   0  0  0  0  0  0  0  0  0  0  0  0
   19.8704  -37.8993   -7.3407 C   0  0  0  0  0  0  0  0  0  0  0  0
   20.8018  -36.7127   -7.0309 C   0  0  0  0  0  0  0  0  0  0  0  0
   19.0812  -34.1914   -6.5863 C   0  0  0  0  0  0  0  0  0  0  0  0
   19.9466  -33.3922   -6.2843 O   0  0  0  0  0  0  0  0  0  0  0  0
   18.0201  -34.3614   -5.8058 O   0  0  0  0  0  0  0  0  0  0  0  0
   17.3570  -34.9790   -6.0446 H   0  0  0  0  0  0  0  0  0  0  0  0
 15 14  1  0  0  0
 15 16  2  0  0  0
  6  5  2  0  0  0
  6  1  1  0  0  0
  5  4  1  0  0  0
 14 12  1  0  0  0
 16  1  1  0  0  0
 16 11  1  0  0  0
  1  2  2  0  0  0
  4  7  1  0  0  0
  4  3  2  0  0  0
 12 11  2  0  0  0
 12 13  1  0  0  0
 11 10  1  0  0  0
 13  9  2  0  0  0
  2  3  1  0  0  0
  3 19  1  0  0  0
  9  8  1  0  0  0
 10  8  2  0  0  0
 19 21  1  0  0  0
  8 17  1  0  0  0
 21 22  1  0  0  0
 21 26  1  0  0  0
 30 29  2  0  0  0
 29 26  1  0  0  0
 29 31  1  0  0  0
 22 23  1  0  0  0
 22 27  1  0  0  0
 26 25  1  0  0  0
 23 24  1  0  0  0
 27 28  1  0  0  0
 25 24  1  0  0  0
 25 28  1  0  0  0
 14 18  1  0  0  0
 19 20  1  0  0  0
 31 32  1  0  0  0
M  END
> <minimizedAffinity>
-9.10666

$$$$
6EUW_BYB_A_501


 32 36  0  0  0  0  0  0  0  0999 V2000
   17.8472  -33.7908  -11.6139 C   0  0  0  0  0  0  0  0  0  0  0  0
   17.7624  -34.2661  -10.3644 N   0  0  0  0  0  0  0  0  0  0  0  0
   17.1249  -35.4173  -10.1697 C   0  0  0  0  0  0  0  0  0  0  0  0
   16.5598  -36.0755  -11.2667 C   0  0  0  0  0  0  0  0  0  0  0  0
   16.6583  -35.5228  -12.5228 C   0  0  0  0  0  0  0  0  0  0  0  0
   17.3196  -34.3801  -12.7064 N   0  0  0  0  0  0  0  0  0  0  0  0
   15.8961  -37.2176  -11.0910 F   0  0  0  0  0  0  0  0  0  0  0  0
   20.9014  -31.2747   -9.1271 C   0  0  0  0  0  0  0  0  0  0  0  0
   21.1035  -30.0573   -9.7723 C   0  0  0  0  0  0  0  0  0  0  0  0
   20.0500  -32.2370   -9.6242 C   0  0  0  0  0  0  0  0  0  0  0  0
   19.4462  -31.8955  -10.8357 C   0  0  0  0  0  0  0  0  0  0  0  0
   19.7341  -30.6617  -11.4400 C   0  0  0  0  0  0  0  0  0  0  0  0
   20.5564  -29.7550  -10.9323 N   0  0  0  0  0  0  0  0  0  0  0  0
   19.0498  -30.5527  -12.6024 N   0  0  0  0  0  0  0  0  0  0  0  0
   18.3033  -31.6849  -12.7883 N   0  0  0  0  0  0  0  0  0  0  0  0
   18.5219  -32.5011  -11.7595 C   0  0  0  0  0  0  0  0  0  0  0  0
   21.5133  -31.4693   -7.9527 F   0  0  0  0  0  0  0  0  0  0  0  0
   19.0834  -29.7831  -13.2155 H   0  0  0  0  0  0  0  0  0  0  0  0
   17.0429  -35.9474   -8.9208 N   0  0  0  0  0  0  0  0  0  0  0  0
   16.2551  -35.7473   -8.3652 H   0  0  0  0  0  0  0  0  0  0  0  0
   18.0957  -36.8074   -8.3818 C   0  0  0  0  0  0  0  0  0  0  0  0
   17.4910  -38.0922   -7.7661 C   0  0  0  0  0  0  0  0  0  0  0  0
   16.9465  -39.0102   -8.8690 C   0  0  0  0  0  0  0  0  0  0  0  0
   18.1019  -39.4990   -9.7570 C   0  0  0  0  0  0  0  0  0  0  0  0
   19.3827  -38.7143   -9.4134 C   0  0  0  0  0  0  0  0  0  0  0  0
   19.0827  -37.2009   -9.5184 C   0  0  0  0  0  0  0  0  0  0  0  0
   18.6305  -38.8065   -7.0173 C   0  0  0  0  0  0  0  0  0  0  0  0
   19.8121  -39.0414   -7.9764 C   0  0  0  0  0  0  0  0  0  0  0  0
   20.3821  -36.4247   -9.5070 C   0  0  0  0  0  0  0  0  0  0  0  0
   20.6728  -35.6222   -8.6408 O   0  0  0  0  0  0  0  0  0  0  0  0
   21.2218  -36.6701  -10.5064 O   0  0  0  0  0  0  0  0  0  0  0  0
   20.9914  -37.2896  -11.1705 H   0  0  0  0  0  0  0  0  0  0  0  0
 15 14  1  0  0  0
 15 16  2  0  0  0
  6  5  2  0  0  0
  6  1  1  0  0  0
  5  4  1  0  0  0
 14 12  1  0  0  0
 16  1  1  0  0  0
 16 11  1  0  0  0
  1  2  2  0  0  0
  4  7  1  0  0  0
  4  3  2  0  0  0
 12 11  2  0  0  0
 12 13  1  0  0  0
 11 10  1  0  0  0
 13  9  2  0  0  0
  2  3  1  0  0  0
  3 19  1  0  0  0
  9  8  1  0  0  0
 10  8  2  0  0  0
 19 21  1  0  0  0
  8 17  1  0  0  0
 21 22  1  0  0  0
 21 26  1  0  0  0
 30 29  2  0  0  0
 29 26  1  0  0  0
 29 31  1  0  0  0
 22 23  1  0  0  0
 22 27  1  0  0  0
 26 25  1  0  0  0
 23 24  1  0  0  0
 27 28  1  0  0  0
 25 24  1  0  0  0
 25 28  1  0  0  0
 14 18  1  0  0  0
 19 20  1  0  0  0
 31 32  1  0  0  0
M  END
> <minimizedAffinity>
-8.99427

$$$$
6EUW_BYB_A_501


 32 36  0  0  0  0  0  0  0  0999 V2000
   22.6797  -37.9617   -8.3173 C   0  0  0  0  0  0  0  0  0  0  0  0
   21.6645  -37.3823   -8.9717 N   0  0  0  0  0  0  0  0  0  0  0  0
   21.5814  -36.0548   -8.9579 C   0  0  0  0  0  0  0  0  0  0  0  0
   22.5418  -35.3207   -8.2544 C   0  0  0  0  0  0  0  0  0  0  0  0
   23.5463  -35.9756   -7.5798 C   0  0  0  0  0  0  0  0  0  0  0  0
   23.6303  -37.3052   -7.6211 N   0  0  0  0  0  0  0  0  0  0  0  0
   22.4638  -33.9913   -8.2075 F   0  0  0  0  0  0  0  0  0  0  0  0
   23.8590  -41.2989  -11.3693 C   0  0  0  0  0  0  0  0  0  0  0  0
   23.5597  -42.5385  -10.8098 C   0  0  0  0  0  0  0  0  0  0  0  0
   23.6247  -40.1162  -10.7027 C   0  0  0  0  0  0  0  0  0  0  0  0
   23.1000  -40.2777   -9.4191 C   0  0  0  0  0  0  0  0  0  0  0  0
   22.8627  -41.5660   -8.9150 C   0  0  0  0  0  0  0  0  0  0  0  0
   23.0959  -42.6852   -9.5852 N   0  0  0  0  0  0  0  0  0  0  0  0
   22.3684  -41.4799   -7.6581 N   0  0  0  0  0  0  0  0  0  0  0  0
   22.2628  -40.1602   -7.3100 N   0  0  0  0  0  0  0  0  0  0  0  0
   22.6940  -39.4243   -8.3322 C   0  0  0  0  0  0  0  0  0  0  0  0
   24.3278  -41.2753  -12.6228 F   0  0  0  0  0  0  0  0  0  0  0  0
   22.1242  -42.2432   -7.0864 H   0  0  0  0  0  0  0  0  0  0  0  0
   20.5830  -35.4280   -9.6345 N   0  0  0  0  0  0  0  0  0  0  0  0
   20.7153  -34.4996   -9.9341 H   0  0  0  0  0  0  0  0  0  0  0  0
   19.3171  -36.0986   -9.9286 C   0  0  0  0  0  0  0  0  0  0  0  0
   18.1208  -35.2510   -9.4328 C   0  0  0  0  0  0  0  0  0  0  0  0
   17.9565  -33.9962  -10.3011 C   0  0  0  0  0  0  0  0  0  0  0  0
   17.5899  -34.4015  -11.7377 C   0  0  0  0  0  0  0  0  0  0  0  0
   17.7563  -35.9246  -11.9011 C   0  0  0  0  0  0  0  0  0  0  0  0
   19.1860  -36.3192  -11.4632 C   0  0  0  0  0  0  0  0  0  0  0  0
   16.8661  -36.1335   -9.5602 C   0  0  0  0  0  0  0  0  0  0  0  0
   16.7407  -36.6483  -11.0061 C   0  0  0  0  0  0  0  0  0  0  0  0
   19.4818  -37.7337  -11.9134 C   0  0  0  0  0  0  0  0  0  0  0  0
   19.5053  -38.0714  -13.0814 O   0  0  0  0  0  0  0  0  0  0  0  0
   19.7319  -38.6159  -10.9525 O   0  0  0  0  0  0  0  0  0  0  0  0
   19.7121  -38.3489  -10.0546 H   0  0  0  0  0  0  0  0  0  0  0  0
 15 14  1  0  0  0
 15 16  2  0  0  0
  6  5  2  0  0  0
  6  1  1  0  0  0
  5  4  1  0  0  0
 14 12  1  0  0  0
 16  1  1  0  0  0
 16 11  1  0  0  0
  1  2  2  0  0  0
  4  7  1  0  0  0
  4  3  2  0  0  0
 12 11  2  0  0  0
 12 13  1  0  0  0
 11 10  1  0  0  0
 13  9  2  0  0  0
  2  3  1  0  0  0
  3 19  1  0  0  0
  9  8  1  0  0  0
 10  8  2  0  0  0
 19 21  1  0  0  0
  8 17  1  0  0  0
 21 22  1  0  0  0
 21 26  1  0  0  0
 30 29  2  0  0  0
 29 26  1  0  0  0
 29 31  1  0  0  0
 22 23  1  0  0  0
 22 27  1  0  0  0
 26 25  1  0  0  0
 23 24  1  0  0  0
 27 28  1  0  0  0
 25 24  1  0  0  0
 25 28  1  0  0  0
 14 18  1  0  0  0
 19 20  1  0  0  0
 31 32  1  0  0  0
M  END
> <minimizedAffinity>
-8.51144

$$$$
6EUW_BYB_A_501


 32 36  0  0  0  0  0  0  0  0999 V2000
   21.2548  -33.5020   -8.3586 C   0  0  0  0  0  0  0  0  0  0  0  0
   20.2486  -33.9245   -7.5817 N   0  0  0  0  0  0  0  0  0  0  0  0
   20.4059  -35.0613   -6.9091 C   0  0  0  0  0  0  0  0  0  0  0  0
   21.6013  -35.7738   -7.0485 C   0  0  0  0  0  0  0  0  0  0  0  0
   22.5879  -35.3008   -7.8827 C   0  0  0  0  0  0  0  0  0  0  0  0
   22.4256  -34.1486   -8.5329 N   0  0  0  0  0  0  0  0  0  0  0  0
   21.7706  -36.9271   -6.4028 F   0  0  0  0  0  0  0  0  0  0  0  0
   18.4204  -32.1632  -11.8251 C   0  0  0  0  0  0  0  0  0  0  0  0
   18.7250  -30.8475  -12.1650 C   0  0  0  0  0  0  0  0  0  0  0  0
   19.0895  -32.8380  -10.8277 C   0  0  0  0  0  0  0  0  0  0  0  0
   20.0625  -32.0776  -10.1764 C   0  0  0  0  0  0  0  0  0  0  0  0
   20.2811  -30.7440  -10.5557 C   0  0  0  0  0  0  0  0  0  0  0  0
   19.6214  -30.1250  -11.5241 N   0  0  0  0  0  0  0  0  0  0  0  0
   21.2545  -30.2047   -9.7857 N   0  0  0  0  0  0  0  0  0  0  0  0
   21.6988  -31.1503   -8.9013 N   0  0  0  0  0  0  0  0  0  0  0  0
   21.0070  -32.2692   -9.1059 C   0  0  0  0  0  0  0  0  0  0  0  0
   17.4884  -32.7961  -12.5478 F   0  0  0  0  0  0  0  0  0  0  0  0
   21.5892  -29.2811   -9.8510 H   0  0  0  0  0  0  0  0  0  0  0  0
   19.4198  -35.5083   -6.0874 N   0  0  0  0  0  0  0  0  0  0  0  0
   19.4410  -35.2627   -5.1343 H   0  0  0  0  0  0  0  0  0  0  0  0
   18.3281  -36.3452   -6.5840 C   0  0  0  0  0  0  0  0  0  0  0  0
   17.0289  -35.5174   -6.7341 C   0  0  0  0  0  0  0  0  0  0  0  0
   17.1530  -34.5328   -7.9048 C   0  0  0  0  0  0  0  0  0  0  0  0
   17.2868  -35.3081   -9.2252 C   0  0  0  0  0  0  0  0  0  0  0  0
   17.5090  -36.8028   -8.9241 C   0  0  0  0  0  0  0  0  0  0  0  0
   18.7152  -36.9441   -7.9668 C   0  0  0  0  0  0  0  0  0  0  0  0
   15.8940  -36.5173   -7.0199 C   0  0  0  0  0  0  0  0  0  0  0  0
   16.2592  -37.3781   -8.2434 C   0  0  0  0  0  0  0  0  0  0  0  0
   19.1539  -38.3918   -7.9142 C   0  0  0  0  0  0  0  0  0  0  0  0
   19.3441  -39.0682   -8.9067 O   0  0  0  0  0  0  0  0  0  0  0  0
   19.3378  -38.9064   -6.7036 O   0  0  0  0  0  0  0  0  0  0  0  0
   19.1894  -38.3795   -5.9431 H   0  0  0  0  0  0  0  0  0  0  0  0
 15 14  1  0  0  0
 15 16  2  0  0  0
  6  5  2  0  0  0
  6  1  1  0  0  0
  5  4  1  0  0  0
 14 12  1  0  0  0
 16  1  1  0  0  0
 16 11  1  0  0  0
  1  2  2  0  0  0
  4  7  1  0  0  0
  4  3  2  0  0  0
 12 11  2  0  0  0
 12 13  1  0  0  0
 11 10  1  0  0  0
 13  9  2  0  0  0
  2  3  1  0  0  0
  3 19  1  0  0  0
  9  8  1  0  0  0
 10  8  2  0  0  0
 19 21  1  0  0  0
  8 17  1  0  0  0
 21 22  1  0  0  0
 21 26  1  0  0  0
 30 29  2  0  0  0
 29 26  1  0  0  0
 29 31  1  0  0  0
 22 23  1  0  0  0
 22 27  1  0  0  0
 26 25  1  0  0  0
 23 24  1  0  0  0
 27 28  1  0  0  0
 25 24  1  0  0  0
 25 28  1  0  0  0
 14 18  1  0  0  0
 19 20  1  0  0  0
 31 32  1  0  0  0
M  END
> <minimizedAffinity>
-8.47793

$$$$
6EUW_BYB_A_501


 32 36  0  0  0  0  0  0  0  0999 V2000
   20.2374  -33.9742   -8.3605 C   0  0  0  0  0  0  0  0  0  0  0  0
   20.3643  -34.9051   -9.3154 N   0  0  0  0  0  0  0  0  0  0  0  0
   20.1474  -36.1764   -8.9894 C   0  0  0  0  0  0  0  0  0  0  0  0
   19.8113  -36.4917   -7.6689 C   0  0  0  0  0  0  0  0  0  0  0  0
   19.7220  -35.4927   -6.7271 C   0  0  0  0  0  0  0  0  0  0  0  0
   19.9197  -34.2207   -7.0730 N   0  0  0  0  0  0  0  0  0  0  0  0
   19.6134  -37.7611   -7.3151 F   0  0  0  0  0  0  0  0  0  0  0  0
   19.0393  -31.1735  -11.9049 C   0  0  0  0  0  0  0  0  0  0  0  0
   19.7296  -29.9712  -11.7740 C   0  0  0  0  0  0  0  0  0  0  0  0
   19.1829  -32.2050  -11.0031 C   0  0  0  0  0  0  0  0  0  0  0  0
   20.0455  -31.9213   -9.9426 C   0  0  0  0  0  0  0  0  0  0  0  0
   20.6732  -30.6683   -9.8647 C   0  0  0  0  0  0  0  0  0  0  0  0
   20.5163  -29.6975  -10.7530 N   0  0  0  0  0  0  0  0  0  0  0  0
   21.4477  -30.6145   -8.7562 N   0  0  0  0  0  0  0  0  0  0  0  0
   21.3582  -31.8078   -8.0914 N   0  0  0  0  0  0  0  0  0  0  0  0
   20.5300  -32.6003   -8.7685 C   0  0  0  0  0  0  0  0  0  0  0  0
   18.2664  -31.3365  -12.9855 F   0  0  0  0  0  0  0  0  0  0  0  0
   21.9884  -29.8419   -8.4736 H   0  0  0  0  0  0  0  0  0  0  0  0
   20.2372  -37.1470   -9.9366 N   0  0  0  0  0  0  0  0  0  0  0  0
   20.8919  -37.8729   -9.8195 H   0  0  0  0  0  0  0  0  0  0  0  0
   19.3854  -37.1399  -11.1253 C   0  0  0  0  0  0  0  0  0  0  0  0
   19.5450  -38.4580  -11.9207 C   0  0  0  0  0  0  0  0  0  0  0  0
   18.9102  -39.6266  -11.1546 C   0  0  0  0  0  0  0  0  0  0  0  0
   17.3927  -39.4110  -11.0404 C   0  0  0  0  0  0  0  0  0  0  0  0
   17.0394  -37.9837  -11.5012 C   0  0  0  0  0  0  0  0  0  0  0  0
   17.8973  -36.9756  -10.7017 C   0  0  0  0  0  0  0  0  0  0  0  0
   18.8126  -38.2617  -13.2603 C   0  0  0  0  0  0  0  0  0  0  0  0
   17.3564  -37.8364  -12.9959 C   0  0  0  0  0  0  0  0  0  0  0  0
   17.3488  -35.5782  -10.8947 C   0  0  0  0  0  0  0  0  0  0  0  0
   17.1317  -35.0912  -11.9876 O   0  0  0  0  0  0  0  0  0  0  0  0
   17.0971  -34.8879   -9.7882 O   0  0  0  0  0  0  0  0  0  0  0  0
   17.2667  -35.2692   -8.9493 H   0  0  0  0  0  0  0  0  0  0  0  0
 15 14  1  0  0  0
 15 16  2  0  0  0
  6  5  2  0  0  0
  6  1  1  0  0  0
  5  4  1  0  0  0
 14 12  1  0  0  0
 16  1  1  0  0  0
 16 11  1  0  0  0
  1  2  2  0  0  0
  4  7  1  0  0  0
  4  3  2  0  0  0
 12 11  2  0  0  0
 12 13  1  0  0  0
 11 10  1  0  0  0
 13  9  2  0  0  0
  2  3  1  0  0  0
  3 19  1  0  0  0
  9  8  1  0  0  0
 10  8  2  0  0  0
 19 21  1  0  0  0
  8 17  1  0  0  0
 21 22  1  0  0  0
 21 26  1  0  0  0
 30 29  2  0  0  0
 29 26  1  0  0  0
 29 31  1  0  0  0
 22 23  1  0  0  0
 22 27  1  0  0  0
 26 25  1  0  0  0
 23 24  1  0  0  0
 27 28  1  0  0  0
 25 24  1  0  0  0
 25 28  1  0  0  0
 14 18  1  0  0  0
 19 20  1  0  0  0
 31 32  1  0  0  0
M  END
> <minimizedAffinity>
-8.21815

$$$$
6EUW_BYB_A_501


 32 36  0  0  0  0  0  0  0  0999 V2000
   21.0761  -37.9727  -10.0007 C   0  0  0  0  0  0  0  0  0  0  0  0
   20.9550  -36.7494   -9.4684 N   0  0  0  0  0  0  0  0  0  0  0  0
   21.8035  -36.3930   -8.5079 C   0  0  0  0  0  0  0  0  0  0  0  0
   22.7735  -37.3071   -8.0841 C   0  0  0  0  0  0  0  0  0  0  0  0
   22.8304  -38.5589   -8.6523 C   0  0  0  0  0  0  0  0  0  0  0  0
   21.9883  -38.8943   -9.6295 N   0  0  0  0  0  0  0  0  0  0  0  0
   23.6181  -36.9796   -7.1068 F   0  0  0  0  0  0  0  0  0  0  0  0
   17.4116  -35.8851  -12.0148 C   0  0  0  0  0  0  0  0  0  0  0  0
   16.8044  -36.7914  -12.8803 C   0  0  0  0  0  0  0  0  0  0  0  0
   18.5266  -36.2108  -11.2740 C   0  0  0  0  0  0  0  0  0  0  0  0
   19.0034  -37.5038  -11.4970 C   0  0  0  0  0  0  0  0  0  0  0  0
   18.3541  -38.3423  -12.4165 C   0  0  0  0  0  0  0  0  0  0  0  0
   17.2791  -37.9987  -13.1111 N   0  0  0  0  0  0  0  0  0  0  0  0
   18.9931  -39.5337  -12.4773 N   0  0  0  0  0  0  0  0  0  0  0  0
   20.0544  -39.5151  -11.6129 N   0  0  0  0  0  0  0  0  0  0  0  0
   20.0886  -38.3228  -11.0216 C   0  0  0  0  0  0  0  0  0  0  0  0
   16.8383  -34.6852  -11.8628 F   0  0  0  0  0  0  0  0  0  0  0  0
   18.7361  -40.2916  -13.0507 H   0  0  0  0  0  0  0  0  0  0  0  0
   21.7320  -35.1498   -7.9631 N   0  0  0  0  0  0  0  0  0  0  0  0
   22.4372  -34.4944   -8.1687 H   0  0  0  0  0  0  0  0  0  0  0  0
   20.6336  -34.7617   -7.0791 C   0  0  0  0  0  0  0  0  0  0  0  0
   20.1496  -33.3281   -7.4047 C   0  0  0  0  0  0  0  0  0  0  0  0
   19.4174  -33.3030   -8.7533 C   0  0  0  0  0  0  0  0  0  0  0  0
   18.1355  -34.1464   -8.6655 C   0  0  0  0  0  0  0  0  0  0  0  0
   18.1332  -34.9437   -7.3469 C   0  0  0  0  0  0  0  0  0  0  0  0
   19.4473  -35.7534   -7.2523 C   0  0  0  0  0  0  0  0  0  0  0  0
   19.1775  -32.9204   -6.2830 C   0  0  0  0  0  0  0  0  0  0  0  0
   18.0579  -33.9708   -6.1620 C   0  0  0  0  0  0  0  0  0  0  0  0
   19.3314  -36.7802   -6.1463 C   0  0  0  0  0  0  0  0  0  0  0  0
   18.6938  -37.8099   -6.2554 O   0  0  0  0  0  0  0  0  0  0  0  0
   19.9822  -36.5076   -5.0209 O   0  0  0  0  0  0  0  0  0  0  0  0
   20.4716  -35.7123   -4.9437 H   0  0  0  0  0  0  0  0  0  0  0  0
 15 14  1  0  0  0
 15 16  2  0  0  0
  6  5  2  0  0  0
  6  1  1  0  0  0
  5  4  1  0  0  0
 14 12  1  0  0  0
 16  1  1  0  0  0
 16 11  1  0  0  0
  1  2  2  0  0  0
  4  7  1  0  0  0
  4  3  2  0  0  0
 12 11  2  0  0  0
 12 13  1  0  0  0
 11 10  1  0  0  0
 13  9  2  0  0  0
  2  3  1  0  0  0
  3 19  1  0  0  0
  9  8  1  0  0  0
 10  8  2  0  0  0
 19 21  1  0  0  0
  8 17  1  0  0  0
 21 22  1  0  0  0
 21 26  1  0  0  0
 30 29  2  0  0  0
 29 26  1  0  0  0
 29 31  1  0  0  0
 22 23  1  0  0  0
 22 27  1  0  0  0
 26 25  1  0  0  0
 23 24  1  0  0  0
 27 28  1  0  0  0
 25 24  1  0  0  0
 25 28  1  0  0  0
 14 18  1  0  0  0
 19 20  1  0  0  0
 31 32  1  0  0  0
M  END
> <minimizedAffinity>
-8.20574

$$$$
6EUW_BYB_A_501


 32 36  0  0  0  0  0  0  0  0999 V2000
   17.7127  -36.5098  -11.9721 C   0  0  0  0  0  0  0  0  0  0  0  0
   18.4915  -36.5303  -10.8824 N   0  0  0  0  0  0  0  0  0  0  0  0
   18.7867  -35.3731  -10.2966 C   0  0  0  0  0  0  0  0  0  0  0  0
   18.2879  -34.1869  -10.8446 C   0  0  0  0  0  0  0  0  0  0  0  0
   17.5142  -34.2294  -11.9815 C   0  0  0  0  0  0  0  0  0  0  0  0
   17.2076  -35.3979  -12.5448 N   0  0  0  0  0  0  0  0  0  0  0  0
   18.5910  -33.0148  -10.2879 F   0  0  0  0  0  0  0  0  0  0  0  0
   15.0524  -40.2402  -11.0506 C   0  0  0  0  0  0  0  0  0  0  0  0
   15.3183  -41.2215  -12.0023 C   0  0  0  0  0  0  0  0  0  0  0  0
   15.6851  -39.0165  -11.0606 C   0  0  0  0  0  0  0  0  0  0  0  0
   16.5779  -38.8432  -12.1199 C   0  0  0  0  0  0  0  0  0  0  0  0
   16.7597  -39.8701  -13.0595 C   0  0  0  0  0  0  0  0  0  0  0  0
   16.1371  -41.0391  -13.0184 N   0  0  0  0  0  0  0  0  0  0  0  0
   17.6553  -39.4783  -13.9953 N   0  0  0  0  0  0  0  0  0  0  0  0
   18.0836  -38.2121  -13.7003 N   0  0  0  0  0  0  0  0  0  0  0  0
   17.4583  -37.8078  -12.5967 C   0  0  0  0  0  0  0  0  0  0  0  0
   14.1993  -40.5407  -10.0639 F   0  0  0  0  0  0  0  0  0  0  0  0
   17.9511  -40.0171  -14.7644 H   0  0  0  0  0  0  0  0  0  0  0  0
   19.5496  -35.3544   -9.1718 N   0  0  0  0  0  0  0  0  0  0  0  0
   20.4845  -35.0515   -9.2309 H   0  0  0  0  0  0  0  0  0  0  0  0
   19.0162  -35.7732   -7.8761 C   0  0  0  0  0  0  0  0  0  0  0  0
   19.5391  -34.8539   -6.7461 C   0  0  0  0  0  0  0  0  0  0  0  0
   18.9022  -33.4614   -6.8501 C   0  0  0  0  0  0  0  0  0  0  0  0
   17.3870  -33.5629   -6.6127 C   0  0  0  0  0  0  0  0  0  0  0  0
   16.9659  -35.0451   -6.6023 C   0  0  0  0  0  0  0  0  0  0  0  0
   17.4618  -35.7128   -7.9059 C   0  0  0  0  0  0  0  0  0  0  0  0
   19.1313  -35.5088   -5.4142 C   0  0  0  0  0  0  0  0  0  0  0  0
   17.6106  -35.7509   -5.4013 C   0  0  0  0  0  0  0  0  0  0  0  0
   16.7924  -37.0602   -8.0717 C   0  0  0  0  0  0  0  0  0  0  0  0
   15.5941  -37.2295   -7.9528 O   0  0  0  0  0  0  0  0  0  0  0  0
   17.5897  -38.0795   -8.3712 O   0  0  0  0  0  0  0  0  0  0  0  0
   18.5121  -37.9420   -8.4613 H   0  0  0  0  0  0  0  0  0  0  0  0
 15 14  1  0  0  0
 15 16  2  0  0  0
  6  5  2  0  0  0
  6  1  1  0  0  0
  5  4  1  0  0  0
 14 12  1  0  0  0
 16  1  1  0  0  0
 16 11  1  0  0  0
  1  2  2  0  0  0
  4  7  1  0  0  0
  4  3  2  0  0  0
 12 11  2  0  0  0
 12 13  1  0  0  0
 11 10  1  0  0  0
 13  9  2  0  0  0
  2  3  1  0  0  0
  3 19  1  0  0  0
  9  8  1  0  0  0
 10  8  2  0  0  0
 19 21  1  0  0  0
  8 17  1  0  0  0
 21 22  1  0  0  0
 21 26  1  0  0  0
 30 29  2  0  0  0
 29 26  1  0  0  0
 29 31  1  0  0  0
 22 23  1  0  0  0
 22 27  1  0  0  0
 26 25  1  0  0  0
 23 24  1  0  0  0
 27 28  1  0  0  0
 25 24  1  0  0  0
 25 28  1  0  0  0
 14 18  1  0  0  0
 19 20  1  0  0  0
 31 32  1  0  0  0
M  END
> <minimizedAffinity>
-8.01178

$$$$
