4OAG_ADP_A_501


 34 36  0  0  0  0  0  0  0  0999 V2000
   78.9962  -14.0572    6.9660 C   0  0  0  0  0  0  0  0  0  0  0  0
   79.2793  -13.2250    5.8392 O   0  0  0  0  0  0  0  0  0  0  0  0
   77.4901  -14.0292    7.1732 C   0  0  0  0  0  0  0  0  0  0  0  0
   77.1960  -13.2326    8.3351 O   0  0  0  0  0  0  0  0  0  0  0  0
   76.9420  -13.3750    5.9175 C   0  0  0  0  0  0  0  0  0  0  0  0
   75.7805  -12.5868    6.1884 O   0  0  0  0  0  0  0  0  0  0  0  0
   78.1052  -12.4862    5.5092 C   0  0  0  0  0  0  0  0  0  0  0  0
   77.5713  -12.3453    8.2222 H   0  0  0  0  0  0  0  0  0  0  0  0
   75.9912  -11.9214    6.8620 H   0  0  0  0  0  0  0  0  0  0  0  0
   78.2214  -12.0825    4.0903 N   0  0  0  0  0  0  0  0  0  0  0  0
   79.0685  -12.5215    3.1348 C   0  0  0  0  0  0  0  0  0  0  0  0
   78.8577  -11.8366    1.9758 N   0  0  0  0  0  0  0  0  0  0  0  0
   77.8759  -10.9408    2.2103 C   0  0  0  0  0  0  0  0  0  0  0  0
   77.1653   -9.9052    1.4394 C   0  0  0  0  0  0  0  0  0  0  0  0
   77.4659   -9.6802    0.1407 N   0  0  0  0  0  0  0  0  0  0  0  0
   76.2088   -9.2023    2.0749 N   0  0  0  0  0  0  0  0  0  0  0  0
   75.8988   -9.4094    3.3773 C   0  0  0  0  0  0  0  0  0  0  0  0
   76.4960  -10.3400    4.1333 N   0  0  0  0  0  0  0  0  0  0  0  0
   77.4711  -11.1111    3.6018 C   0  0  0  0  0  0  0  0  0  0  0  0
   78.1700  -10.2085   -0.3003 H   0  0  0  0  0  0  0  0  0  0  0  0
   76.9808   -8.9880   -0.3641 H   0  0  0  0  0  0  0  0  0  0  0  0
   79.5332  -15.4462    6.6829 C   0  0  0  0  0  0  0  0  0  0  0  0
   80.3254  -15.8008    7.8025 O   0  0  0  0  0  0  0  0  0  0  0  0
   81.9101  -15.5896    7.7796 P   0  0  0  0  0  0  0  0  0  0  0  0
   82.2219  -14.1372    8.0712 O   0  0  0  0  0  0  0  0  0  0  0  0
   82.4936  -16.2930    6.5784 O   0  0  0  0  0  0  0  0  0  0  0  0
   83.4551  -16.1650    6.5643 H   0  0  0  0  0  0  0  0  0  0  0  0
   82.2722  -16.4074    9.1194 O   0  0  0  0  0  0  0  0  0  0  0  0
   83.7453  -16.6054    9.7370 P   0  0  0  0  0  0  0  0  0  0  0  0
   84.4511  -17.3806    8.6379 O   0  0  0  0  0  0  0  0  0  0  0  0
   83.4882  -17.4108   11.0019 O   0  0  0  0  0  0  0  0  0  0  0  0
   84.2900  -15.2308    9.9923 O   0  0  0  0  0  0  0  0  0  0  0  0
   84.3300  -17.5833   11.4519 H   0  0  0  0  0  0  0  0  0  0  0  0
   85.1819  -15.3010   10.3671 H   0  0  0  0  0  0  0  0  0  0  0  0
 29 30  2  0  0  0
 29 31  1  0  0  0
 29 32  1  0  0  0
 29 28  1  0  0  0
 24 25  2  0  0  0
 24 26  1  0  0  0
 24 28  1  0  0  0
 24 23  1  0  0  0
 23 22  1  0  0  0
 22  1  1  0  0  0
  1  2  1  0  0  0
  1  3  1  0  0  0
  2  7  1  0  0  0
  3  4  1  0  0  0
  3  5  1  0  0  0
  5  6  1  0  0  0
  5  7  1  0  0  0
  7 10  1  0  0  0
 10 11  1  0  0  0
 10 19  1  0  0  0
 11 12  2  0  0  0
 12 13  1  0  0  0
 13 14  1  0  0  0
 13 19  2  0  0  0
 14 15  1  0  0  0
 14 16  2  0  0  0
 16 17  1  0  0  0
 17 18  2  0  0  0
 18 19  1  0  0  0
 31 33  1  0  0  0
 32 34  1  0  0  0
 26 27  1  0  0  0
  4  8  1  0  0  0
  6  9  1  0  0  0
 15 20  1  0  0  0
 15 21  1  0  0  0
M  END
> <minimizedAffinity>
-8.73132

$$$$
4OAG_ADP_A_501


 34 36  0  0  0  0  0  0  0  0999 V2000
   81.5087  -13.2438    7.2188 C   0  0  0  0  0  0  0  0  0  0  0  0
   81.9967  -13.9494    8.3617 O   0  0  0  0  0  0  0  0  0  0  0  0
   81.5226  -14.2201    6.0531 C   0  0  0  0  0  0  0  0  0  0  0  0
   82.6030  -13.8718    5.1686 O   0  0  0  0  0  0  0  0  0  0  0  0
   81.7635  -15.5765    6.6913 C   0  0  0  0  0  0  0  0  0  0  0  0
   82.5397  -16.4331    5.8502 O   0  0  0  0  0  0  0  0  0  0  0  0
   82.5532  -15.1896    7.9309 C   0  0  0  0  0  0  0  0  0  0  0  0
   83.4380  -13.8720    5.6624 H   0  0  0  0  0  0  0  0  0  0  0  0
   83.3792  -15.9985    5.6327 H   0  0  0  0  0  0  0  0  0  0  0  0
   82.5396  -16.1070    9.0918 N   0  0  0  0  0  0  0  0  0  0  0  0
   83.5644  -16.5615    9.8446 C   0  0  0  0  0  0  0  0  0  0  0  0
   83.1006  -17.4319   10.7850 N   0  0  0  0  0  0  0  0  0  0  0  0
   81.7669  -17.5409   10.6099 C   0  0  0  0  0  0  0  0  0  0  0  0
   80.6612  -18.2817   11.2426 C   0  0  0  0  0  0  0  0  0  0  0  0
   80.8899  -19.1073   12.2884 N   0  0  0  0  0  0  0  0  0  0  0  0
   79.4239  -18.0997   10.7439 N   0  0  0  0  0  0  0  0  0  0  0  0
   79.1770  -17.2818    9.6926 C   0  0  0  0  0  0  0  0  0  0  0  0
   80.1314  -16.5709    9.0778 N   0  0  0  0  0  0  0  0  0  0  0  0
   81.4140  -16.6695    9.4940 C   0  0  0  0  0  0  0  0  0  0  0  0
   81.8046  -19.2225   12.6338 H   0  0  0  0  0  0  0  0  0  0  0  0
   80.1418  -19.5934   12.7047 H   0  0  0  0  0  0  0  0  0  0  0  0
   80.1242  -12.7152    7.5370 C   0  0  0  0  0  0  0  0  0  0  0  0
   79.3226  -12.9948    6.4030 O   0  0  0  0  0  0  0  0  0  0  0  0
   77.7793  -12.5784    6.3728 P   0  0  0  0  0  0  0  0  0  0  0  0
   77.6262  -11.2957    5.5836 O   0  0  0  0  0  0  0  0  0  0  0  0
   77.1918  -12.7255    7.7553 O   0  0  0  0  0  0  0  0  0  0  0  0
   76.2554  -12.4729    7.7372 H   0  0  0  0  0  0  0  0  0  0  0  0
   77.2387  -13.7612    5.4221 O   0  0  0  0  0  0  0  0  0  0  0  0
   77.6470  -15.3149    5.5212 P   0  0  0  0  0  0  0  0  0  0  0  0
   76.3618  -16.0102    5.1064 O   0  0  0  0  0  0  0  0  0  0  0  0
   78.0044  -15.4890    6.9898 O   0  0  0  0  0  0  0  0  0  0  0  0
   78.8041  -15.5133    4.5868 O   0  0  0  0  0  0  0  0  0  0  0  0
   78.2680  -16.4084    7.1516 H   0  0  0  0  0  0  0  0  0  0  0  0
   79.0858  -16.4411    4.6135 H   0  0  0  0  0  0  0  0  0  0  0  0
 29 30  2  0  0  0
 29 31  1  0  0  0
 29 32  1  0  0  0
 29 28  1  0  0  0
 24 25  2  0  0  0
 24 26  1  0  0  0
 24 28  1  0  0  0
 24 23  1  0  0  0
 23 22  1  0  0  0
 22  1  1  0  0  0
  1  2  1  0  0  0
  1  3  1  0  0  0
  2  7  1  0  0  0
  3  4  1  0  0  0
  3  5  1  0  0  0
  5  6  1  0  0  0
  5  7  1  0  0  0
  7 10  1  0  0  0
 10 11  1  0  0  0
 10 19  1  0  0  0
 11 12  2  0  0  0
 12 13  1  0  0  0
 13 14  1  0  0  0
 13 19  2  0  0  0
 14 15  1  0  0  0
 14 16  2  0  0  0
 16 17  1  0  0  0
 17 18  2  0  0  0
 18 19  1  0  0  0
 31 33  1  0  0  0
 32 34  1  0  0  0
 26 27  1  0  0  0
  4  8  1  0  0  0
  6  9  1  0  0  0
 15 20  1  0  0  0
 15 21  1  0  0  0
M  END
> <minimizedAffinity>
-8.37025

$$$$
4OAG_ADP_A_501


 34 36  0  0  0  0  0  0  0  0999 V2000
   80.6421  -13.9800    5.5851 C   0  0  0  0  0  0  0  0  0  0  0  0
   80.3243  -14.4191    6.9074 O   0  0  0  0  0  0  0  0  0  0  0  0
   81.8649  -14.7650    5.1368 C   0  0  0  0  0  0  0  0  0  0  0  0
   83.0082  -13.8911    5.1501 O   0  0  0  0  0  0  0  0  0  0  0  0
   82.0148  -15.8658    6.1718 C   0  0  0  0  0  0  0  0  0  0  0  0
   83.3860  -16.1937    6.4090 O   0  0  0  0  0  0  0  0  0  0  0  0
   81.4043  -15.2097    7.3992 C   0  0  0  0  0  0  0  0  0  0  0  0
   83.1153  -13.5123    6.0366 H   0  0  0  0  0  0  0  0  0  0  0  0
   83.8671  -15.3960    6.6794 H   0  0  0  0  0  0  0  0  0  0  0  0
   80.8649  -16.0777    8.4693 N   0  0  0  0  0  0  0  0  0  0  0  0
   79.5842  -16.3076    8.8306 C   0  0  0  0  0  0  0  0  0  0  0  0
   79.5472  -17.1426    9.9068 N   0  0  0  0  0  0  0  0  0  0  0  0
   80.8237  -17.4280   10.2392 C   0  0  0  0  0  0  0  0  0  0  0  0
   81.5078  -18.2355   11.2647 C   0  0  0  0  0  0  0  0  0  0  0  0
   80.8010  -18.9330   12.1821 N   0  0  0  0  0  0  0  0  0  0  0  0
   82.8540  -18.2540   11.2470 N   0  0  0  0  0  0  0  0  0  0  0  0
   83.5786  -17.5562   10.3397 C   0  0  0  0  0  0  0  0  0  0  0  0
   83.0227  -16.8118    9.3747 N   0  0  0  0  0  0  0  0  0  0  0  0
   81.6765  -16.7200    9.2903 C   0  0  0  0  0  0  0  0  0  0  0  0
   79.8171  -18.9022   12.1729 H   0  0  0  0  0  0  0  0  0  0  0  0
   81.2703  -19.4718   12.8594 H   0  0  0  0  0  0  0  0  0  0  0  0
   79.4317  -14.2061    4.7011 C   0  0  0  0  0  0  0  0  0  0  0  0
   78.5984  -15.1174    5.3952 O   0  0  0  0  0  0  0  0  0  0  0  0
   77.1143  -15.4184    4.8822 P   0  0  0  0  0  0  0  0  0  0  0  0
   76.9003  -16.9162    4.8319 O   0  0  0  0  0  0  0  0  0  0  0  0
   76.8052  -14.5400    3.6943 O   0  0  0  0  0  0  0  0  0  0  0  0
   75.9049  -14.7224    3.3829 H   0  0  0  0  0  0  0  0  0  0  0  0
   76.3108  -14.8902    6.1746 O   0  0  0  0  0  0  0  0  0  0  0  0
   76.2891  -13.3764    6.7207 P   0  0  0  0  0  0  0  0  0  0  0  0
   77.1953  -13.4621    7.9367 O   0  0  0  0  0  0  0  0  0  0  0  0
   74.8221  -13.1453    7.0511 O   0  0  0  0  0  0  0  0  0  0  0  0
   76.8042  -12.5128    5.6069 O   0  0  0  0  0  0  0  0  0  0  0  0
   74.7056  -12.2452    7.3933 H   0  0  0  0  0  0  0  0  0  0  0  0
   76.8090  -11.5857    5.8924 H   0  0  0  0  0  0  0  0  0  0  0  0
 29 30  2  0  0  0
 29 31  1  0  0  0
 29 32  1  0  0  0
 29 28  1  0  0  0
 24 25  2  0  0  0
 24 26  1  0  0  0
 24 28  1  0  0  0
 24 23  1  0  0  0
 23 22  1  0  0  0
 22  1  1  0  0  0
  1  2  1  0  0  0
  1  3  1  0  0  0
  2  7  1  0  0  0
  3  4  1  0  0  0
  3  5  1  0  0  0
  5  6  1  0  0  0
  5  7  1  0  0  0
  7 10  1  0  0  0
 10 11  1  0  0  0
 10 19  1  0  0  0
 11 12  2  0  0  0
 12 13  1  0  0  0
 13 14  1  0  0  0
 13 19  2  0  0  0
 14 15  1  0  0  0
 14 16  2  0  0  0
 16 17  1  0  0  0
 17 18  2  0  0  0
 18 19  1  0  0  0
 31 33  1  0  0  0
 32 34  1  0  0  0
 26 27  1  0  0  0
  4  8  1  0  0  0
  6  9  1  0  0  0
 15 20  1  0  0  0
 15 21  1  0  0  0
M  END
> <minimizedAffinity>
-8.31435

$$$$
4OAG_ADP_A_501


 34 36  0  0  0  0  0  0  0  0999 V2000
   79.0301  -15.8175    6.1571 C   0  0  0  0  0  0  0  0  0  0  0  0
   79.1022  -15.7601    7.5832 O   0  0  0  0  0  0  0  0  0  0  0  0
   78.7962  -17.2721    5.7810 C   0  0  0  0  0  0  0  0  0  0  0  0
   80.0116  -17.8104    5.2297 O   0  0  0  0  0  0  0  0  0  0  0  0
   78.4486  -17.9561    7.0912 C   0  0  0  0  0  0  0  0  0  0  0  0
   78.9299  -19.3016    7.1363 O   0  0  0  0  0  0  0  0  0  0  0  0
   79.1966  -17.0894    8.0907 C   0  0  0  0  0  0  0  0  0  0  0  0
   80.7321  -17.7043    5.8705 H   0  0  0  0  0  0  0  0  0  0  0  0
   79.8881  -19.3074    6.9860 H   0  0  0  0  0  0  0  0  0  0  0  0
   78.7253  -17.0614    9.4931 N   0  0  0  0  0  0  0  0  0  0  0  0
   77.7099  -16.3659   10.0485 C   0  0  0  0  0  0  0  0  0  0  0  0
   77.6618  -16.6037   11.3894 N   0  0  0  0  0  0  0  0  0  0  0  0
   78.6729  -17.4471   11.6853 C   0  0  0  0  0  0  0  0  0  0  0  0
   79.2019  -18.1012   12.8953 C   0  0  0  0  0  0  0  0  0  0  0  0
   78.6229  -17.9005   14.1003 N   0  0  0  0  0  0  0  0  0  0  0  0
   80.2730  -18.9043   12.7514 N   0  0  0  0  0  0  0  0  0  0  0  0
   80.8701  -19.1118   11.5532 C   0  0  0  0  0  0  0  0  0  0  0  0
   80.4359  -18.5589   10.4130 N   0  0  0  0  0  0  0  0  0  0  0  0
   79.3637  -17.7356   10.4328 C   0  0  0  0  0  0  0  0  0  0  0  0
   77.8404  -17.3081   14.1779 H   0  0  0  0  0  0  0  0  0  0  0  0
   78.9837  -18.3467   14.9003 H   0  0  0  0  0  0  0  0  0  0  0  0
   77.9180  -14.8965    5.6960 C   0  0  0  0  0  0  0  0  0  0  0  0
   78.4779  -13.5965    5.6388 O   0  0  0  0  0  0  0  0  0  0  0  0
   77.7143  -12.3507    6.2878 P   0  0  0  0  0  0  0  0  0  0  0  0
   78.4074  -11.9592    7.5754 O   0  0  0  0  0  0  0  0  0  0  0  0
   76.2253  -12.5926    6.2388 O   0  0  0  0  0  0  0  0  0  0  0  0
   75.7618  -11.8369    6.6325 H   0  0  0  0  0  0  0  0  0  0  0  0
   78.1216  -11.2361    5.1984 O   0  0  0  0  0  0  0  0  0  0  0  0
   77.4217  -11.0140    3.7661 P   0  0  0  0  0  0  0  0  0  0  0  0
   76.2099  -10.1734    4.1294 O   0  0  0  0  0  0  0  0  0  0  0  0
   77.0876  -12.4289    3.3176 O   0  0  0  0  0  0  0  0  0  0  0  0
   78.4333  -10.3247    2.8983 O   0  0  0  0  0  0  0  0  0  0  0  0
   76.6554  -12.3994    2.4497 H   0  0  0  0  0  0  0  0  0  0  0  0
   78.0532  -10.1694    2.0195 H   0  0  0  0  0  0  0  0  0  0  0  0
 29 30  2  0  0  0
 29 31  1  0  0  0
 29 32  1  0  0  0
 29 28  1  0  0  0
 24 25  2  0  0  0
 24 26  1  0  0  0
 24 28  1  0  0  0
 24 23  1  0  0  0
 23 22  1  0  0  0
 22  1  1  0  0  0
  1  2  1  0  0  0
  1  3  1  0  0  0
  2  7  1  0  0  0
  3  4  1  0  0  0
  3  5  1  0  0  0
  5  6  1  0  0  0
  5  7  1  0  0  0
  7 10  1  0  0  0
 10 11  1  0  0  0
 10 19  1  0  0  0
 11 12  2  0  0  0
 12 13  1  0  0  0
 13 14  1  0  0  0
 13 19  2  0  0  0
 14 15  1  0  0  0
 14 16  2  0  0  0
 16 17  1  0  0  0
 17 18  2  0  0  0
 18 19  1  0  0  0
 31 33  1  0  0  0
 32 34  1  0  0  0
 26 27  1  0  0  0
  4  8  1  0  0  0
  6  9  1  0  0  0
 15 20  1  0  0  0
 15 21  1  0  0  0
M  END
> <minimizedAffinity>
-8.27156

$$$$
4OAG_ADP_A_501


 34 36  0  0  0  0  0  0  0  0999 V2000
   80.9556  -16.2219    7.6522 C   0  0  0  0  0  0  0  0  0  0  0  0
   79.7912  -15.5946    7.1110 O   0  0  0  0  0  0  0  0  0  0  0  0
   82.1583  -15.4423    7.1446 C   0  0  0  0  0  0  0  0  0  0  0  0
   82.8294  -16.2255    6.1409 O   0  0  0  0  0  0  0  0  0  0  0  0
   81.5701  -14.1799    6.5401 C   0  0  0  0  0  0  0  0  0  0  0  0
   82.3199  -13.7286    5.4096 O   0  0  0  0  0  0  0  0  0  0  0  0
   80.1961  -14.6652    6.1082 C   0  0  0  0  0  0  0  0  0  0  0  0
   82.2049  -16.4467    5.4324 H   0  0  0  0  0  0  0  0  0  0  0  0
   82.3692  -14.4382    4.7501 H   0  0  0  0  0  0  0  0  0  0  0  0
   79.1097  -13.6713    5.9623 N   0  0  0  0  0  0  0  0  0  0  0  0
   78.1114  -13.3528    6.8139 C   0  0  0  0  0  0  0  0  0  0  0  0
   77.3021  -12.4121    6.2511 N   0  0  0  0  0  0  0  0  0  0  0  0
   77.7876  -12.1477    5.0199 C   0  0  0  0  0  0  0  0  0  0  0  0
   77.4269  -11.2694    3.8929 C   0  0  0  0  0  0  0  0  0  0  0  0
   76.3515  -10.4535    3.9674 N   0  0  0  0  0  0  0  0  0  0  0  0
   78.2089  -11.3088    2.7976 N   0  0  0  0  0  0  0  0  0  0  0  0
   79.2862  -12.1247    2.7027 C   0  0  0  0  0  0  0  0  0  0  0  0
   79.6772  -12.9395    3.6913 N   0  0  0  0  0  0  0  0  0  0  0  0
   78.9706  -12.9833    4.8431 C   0  0  0  0  0  0  0  0  0  0  0  0
   75.7961  -10.4441    4.7802 H   0  0  0  0  0  0  0  0  0  0  0  0
   76.1238   -9.8687    3.2088 H   0  0  0  0  0  0  0  0  0  0  0  0
   80.8407  -16.2230    9.1637 C   0  0  0  0  0  0  0  0  0  0  0  0
   81.6593  -17.2841    9.6228 O   0  0  0  0  0  0  0  0  0  0  0  0
   81.2983  -18.0689   10.9682 P   0  0  0  0  0  0  0  0  0  0  0  0
   82.2411  -17.6291   12.0680 O   0  0  0  0  0  0  0  0  0  0  0  0
   81.0824  -19.5296   10.6556 O   0  0  0  0  0  0  0  0  0  0  0  0
   80.8634  -20.0060   11.4717 H   0  0  0  0  0  0  0  0  0  0  0  0
   79.8838  -17.3623   11.2762 O   0  0  0  0  0  0  0  0  0  0  0  0
   78.8239  -17.8183   12.3983 P   0  0  0  0  0  0  0  0  0  0  0  0
   79.3342  -19.1976   12.7785 O   0  0  0  0  0  0  0  0  0  0  0  0
   77.5015  -17.8281   11.6460 O   0  0  0  0  0  0  0  0  0  0  0  0
   78.8926  -16.7940   13.4926 O   0  0  0  0  0  0  0  0  0  0  0  0
   76.7891  -18.0950   12.2479 H   0  0  0  0  0  0  0  0  0  0  0  0
   78.2666  -17.0292   14.1953 H   0  0  0  0  0  0  0  0  0  0  0  0
 29 30  2  0  0  0
 29 31  1  0  0  0
 29 32  1  0  0  0
 29 28  1  0  0  0
 24 25  2  0  0  0
 24 26  1  0  0  0
 24 28  1  0  0  0
 24 23  1  0  0  0
 23 22  1  0  0  0
 22  1  1  0  0  0
  1  2  1  0  0  0
  1  3  1  0  0  0
  2  7  1  0  0  0
  3  4  1  0  0  0
  3  5  1  0  0  0
  5  6  1  0  0  0
  5  7  1  0  0  0
  7 10  1  0  0  0
 10 11  1  0  0  0
 10 19  1  0  0  0
 11 12  2  0  0  0
 12 13  1  0  0  0
 13 14  1  0  0  0
 13 19  2  0  0  0
 14 15  1  0  0  0
 14 16  2  0  0  0
 16 17  1  0  0  0
 17 18  2  0  0  0
 18 19  1  0  0  0
 31 33  1  0  0  0
 32 34  1  0  0  0
 26 27  1  0  0  0
  4  8  1  0  0  0
  6  9  1  0  0  0
 15 20  1  0  0  0
 15 21  1  0  0  0
M  END
> <minimizedAffinity>
-8.25068

$$$$
4OAG_ADP_A_501


 34 36  0  0  0  0  0  0  0  0999 V2000
   80.6644  -13.8842    5.7211 C   0  0  0  0  0  0  0  0  0  0  0  0
   80.3983  -14.3588    7.0426 O   0  0  0  0  0  0  0  0  0  0  0  0
   81.8017  -14.7269    5.1657 C   0  0  0  0  0  0  0  0  0  0  0  0
   83.0003  -13.9307    5.1410 O   0  0  0  0  0  0  0  0  0  0  0  0
   81.9393  -15.8791    6.1449 C   0  0  0  0  0  0  0  0  0  0  0  0
   83.2970  -16.3056    6.2817 O   0  0  0  0  0  0  0  0  0  0  0  0
   81.4501  -15.2387    7.4335 C   0  0  0  0  0  0  0  0  0  0  0  0
   83.1863  -13.5986    6.0332 H   0  0  0  0  0  0  0  0  0  0  0  0
   83.8465  -15.5534    6.5523 H   0  0  0  0  0  0  0  0  0  0  0  0
   80.9190  -16.1156    8.5006 N   0  0  0  0  0  0  0  0  0  0  0  0
   79.6418  -16.3402    8.8769 C   0  0  0  0  0  0  0  0  0  0  0  0
   79.6133  -17.1878    9.9435 N   0  0  0  0  0  0  0  0  0  0  0  0
   80.8921  -17.4867   10.2546 C   0  0  0  0  0  0  0  0  0  0  0  0
   81.5842  -18.3116   11.2607 C   0  0  0  0  0  0  0  0  0  0  0  0
   80.8850  -19.0149   12.1795 N   0  0  0  0  0  0  0  0  0  0  0  0
   82.9298  -18.3399   11.2240 N   0  0  0  0  0  0  0  0  0  0  0  0
   83.6471  -17.6366   10.3150 C   0  0  0  0  0  0  0  0  0  0  0  0
   83.0835  -16.8765    9.3669 N   0  0  0  0  0  0  0  0  0  0  0  0
   81.7370  -16.7737    9.3023 C   0  0  0  0  0  0  0  0  0  0  0  0
   79.9012  -18.9766   12.1844 H   0  0  0  0  0  0  0  0  0  0  0  0
   81.3595  -19.5652   12.8437 H   0  0  0  0  0  0  0  0  0  0  0  0
   79.3901  -13.9923    4.9073 C   0  0  0  0  0  0  0  0  0  0  0  0
   78.3205  -13.8337    5.8225 O   0  0  0  0  0  0  0  0  0  0  0  0
   77.6505  -12.4005    6.0531 P   0  0  0  0  0  0  0  0  0  0  0  0
   78.2443  -11.7684    7.2939 O   0  0  0  0  0  0  0  0  0  0  0  0
   76.1570  -12.5073    5.8633 O   0  0  0  0  0  0  0  0  0  0  0  0
   75.7503  -11.6379    6.0032 H   0  0  0  0  0  0  0  0  0  0  0  0
   78.3061  -11.6335    4.7973 O   0  0  0  0  0  0  0  0  0  0  0  0
   77.5120  -11.0613    3.5196 P   0  0  0  0  0  0  0  0  0  0  0  0
   76.4334  -10.2109    4.1681 O   0  0  0  0  0  0  0  0  0  0  0  0
   76.9905  -12.3190    2.8406 O   0  0  0  0  0  0  0  0  0  0  0  0
   78.5122  -10.2993    2.7008 O   0  0  0  0  0  0  0  0  0  0  0  0
   76.4901  -12.0740    2.0466 H   0  0  0  0  0  0  0  0  0  0  0  0
   78.0758   -9.9339    1.9153 H   0  0  0  0  0  0  0  0  0  0  0  0
 29 30  2  0  0  0
 29 31  1  0  0  0
 29 32  1  0  0  0
 29 28  1  0  0  0
 24 25  2  0  0  0
 24 26  1  0  0  0
 24 28  1  0  0  0
 24 23  1  0  0  0
 23 22  1  0  0  0
 22  1  1  0  0  0
  1  2  1  0  0  0
  1  3  1  0  0  0
  2  7  1  0  0  0
  3  4  1  0  0  0
  3  5  1  0  0  0
  5  6  1  0  0  0
  5  7  1  0  0  0
  7 10  1  0  0  0
 10 11  1  0  0  0
 10 19  1  0  0  0
 11 12  2  0  0  0
 12 13  1  0  0  0
 13 14  1  0  0  0
 13 19  2  0  0  0
 14 15  1  0  0  0
 14 16  2  0  0  0
 16 17  1  0  0  0
 17 18  2  0  0  0
 18 19  1  0  0  0
 31 33  1  0  0  0
 32 34  1  0  0  0
 26 27  1  0  0  0
  4  8  1  0  0  0
  6  9  1  0  0  0
 15 20  1  0  0  0
 15 21  1  0  0  0
M  END
> <minimizedAffinity>
-8.15439

$$$$
4OAG_ADP_A_501


 34 36  0  0  0  0  0  0  0  0999 V2000
   80.8751  -13.9734    6.4856 C   0  0  0  0  0  0  0  0  0  0  0  0
   81.2156  -14.4009    7.8060 O   0  0  0  0  0  0  0  0  0  0  0  0
   81.7806  -14.7285    5.5254 C   0  0  0  0  0  0  0  0  0  0  0  0
   82.7719  -13.8209    5.0112 O   0  0  0  0  0  0  0  0  0  0  0  0
   82.4264  -15.8079    6.3756 C   0  0  0  0  0  0  0  0  0  0  0  0
   83.7634  -16.0911    5.9557 O   0  0  0  0  0  0  0  0  0  0  0  0
   82.4268  -15.1513    7.7462 C   0  0  0  0  0  0  0  0  0  0  0  0
   83.2617  -13.4251    5.7491 H   0  0  0  0  0  0  0  0  0  0  0  0
   84.2878  -15.2753    5.9744 H   0  0  0  0  0  0  0  0  0  0  0  0
   82.4691  -16.0181    8.9447 N   0  0  0  0  0  0  0  0  0  0  0  0
   83.5129  -16.3460    9.7362 C   0  0  0  0  0  0  0  0  0  0  0  0
   83.1080  -17.2161   10.7034 N   0  0  0  0  0  0  0  0  0  0  0  0
   81.7941  -17.4536   10.5071 C   0  0  0  0  0  0  0  0  0  0  0  0
   80.7455  -18.2661   11.1491 C   0  0  0  0  0  0  0  0  0  0  0  0
   81.0235  -19.0242   12.2334 N   0  0  0  0  0  0  0  0  0  0  0  0
   79.5088  -18.2184   10.6189 N   0  0  0  0  0  0  0  0  0  0  0  0
   79.2135  -17.4699    9.5291 C   0  0  0  0  0  0  0  0  0  0  0  0
   80.1138  -16.7004    8.9033 N   0  0  0  0  0  0  0  0  0  0  0  0
   81.3899  -16.6642    9.3483 C   0  0  0  0  0  0  0  0  0  0  0  0
   81.9365  -19.0411   12.6012 H   0  0  0  0  0  0  0  0  0  0  0  0
   80.3129  -19.5592   12.6552 H   0  0  0  0  0  0  0  0  0  0  0  0
   79.4021  -14.2493    6.2574 C   0  0  0  0  0  0  0  0  0  0  0  0
   78.9003  -13.1443    5.5268 O   0  0  0  0  0  0  0  0  0  0  0  0
   77.8632  -12.1278    6.1957 P   0  0  0  0  0  0  0  0  0  0  0  0
   78.4493  -11.5983    7.4871 O   0  0  0  0  0  0  0  0  0  0  0  0
   76.4759  -12.7205    6.1470 O   0  0  0  0  0  0  0  0  0  0  0  0
   75.8465  -12.1040    6.5527 H   0  0  0  0  0  0  0  0  0  0  0  0
   77.9837  -10.9334    5.1215 O   0  0  0  0  0  0  0  0  0  0  0  0
   77.5422  -11.0045    3.5753 P   0  0  0  0  0  0  0  0  0  0  0  0
   78.8181  -10.5960    2.8595 O   0  0  0  0  0  0  0  0  0  0  0  0
   76.4210   -9.9800    3.4849 O   0  0  0  0  0  0  0  0  0  0  0  0
   77.0980  -12.4151    3.3220 O   0  0  0  0  0  0  0  0  0  0  0  0
   76.0839   -9.9490    2.5759 H   0  0  0  0  0  0  0  0  0  0  0  0
   76.8210  -12.5057    2.3968 H   0  0  0  0  0  0  0  0  0  0  0  0
 29 30  2  0  0  0
 29 31  1  0  0  0
 29 32  1  0  0  0
 29 28  1  0  0  0
 24 25  2  0  0  0
 24 26  1  0  0  0
 24 28  1  0  0  0
 24 23  1  0  0  0
 23 22  1  0  0  0
 22  1  1  0  0  0
  1  2  1  0  0  0
  1  3  1  0  0  0
  2  7  1  0  0  0
  3  4  1  0  0  0
  3  5  1  0  0  0
  5  6  1  0  0  0
  5  7  1  0  0  0
  7 10  1  0  0  0
 10 11  1  0  0  0
 10 19  1  0  0  0
 11 12  2  0  0  0
 12 13  1  0  0  0
 13 14  1  0  0  0
 13 19  2  0  0  0
 14 15  1  0  0  0
 14 16  2  0  0  0
 16 17  1  0  0  0
 17 18  2  0  0  0
 18 19  1  0  0  0
 31 33  1  0  0  0
 32 34  1  0  0  0
 26 27  1  0  0  0
  4  8  1  0  0  0
  6  9  1  0  0  0
 15 20  1  0  0  0
 15 21  1  0  0  0
M  END
> <minimizedAffinity>
-8.13911

$$$$
4OAG_ADP_A_501


 34 36  0  0  0  0  0  0  0  0999 V2000
   79.0144  -14.0159    7.0027 C   0  0  0  0  0  0  0  0  0  0  0  0
   79.2964  -13.1900    5.8711 O   0  0  0  0  0  0  0  0  0  0  0  0
   77.5057  -14.0129    7.1916 C   0  0  0  0  0  0  0  0  0  0  0  0
   77.1833  -13.2102    8.3417 O   0  0  0  0  0  0  0  0  0  0  0  0
   76.9613  -13.3812    5.9228 C   0  0  0  0  0  0  0  0  0  0  0  0
   75.7827  -12.6112    6.1717 O   0  0  0  0  0  0  0  0  0  0  0  0
   78.1134  -12.4757    5.5195 C   0  0  0  0  0  0  0  0  0  0  0  0
   77.5441  -12.3175    8.2243 H   0  0  0  0  0  0  0  0  0  0  0  0
   75.9733  -11.9355    6.8410 H   0  0  0  0  0  0  0  0  0  0  0  0
   78.2397  -12.0840    4.0981 N   0  0  0  0  0  0  0  0  0  0  0  0
   79.0947  -12.5299    3.1528 C   0  0  0  0  0  0  0  0  0  0  0  0
   78.8915  -11.8554    1.9864 N   0  0  0  0  0  0  0  0  0  0  0  0
   77.9066  -10.9592    2.2057 C   0  0  0  0  0  0  0  0  0  0  0  0
   77.2002   -9.9314    1.4205 C   0  0  0  0  0  0  0  0  0  0  0  0
   77.5103   -9.7172    0.1223 N   0  0  0  0  0  0  0  0  0  0  0  0
   76.2378   -9.2246    2.0427 N   0  0  0  0  0  0  0  0  0  0  0  0
   75.9183   -9.4210    3.3445 C   0  0  0  0  0  0  0  0  0  0  0  0
   76.5113  -10.3441    4.1130 N   0  0  0  0  0  0  0  0  0  0  0  0
   77.4916  -11.1182    3.5955 C   0  0  0  0  0  0  0  0  0  0  0  0
   78.2185  -10.2481   -0.3088 H   0  0  0  0  0  0  0  0  0  0  0  0
   77.0279   -9.0302   -0.3922 H   0  0  0  0  0  0  0  0  0  0  0  0
   79.5795  -15.3978    6.7402 C   0  0  0  0  0  0  0  0  0  0  0  0
   80.2775  -15.7705    7.9152 O   0  0  0  0  0  0  0  0  0  0  0  0
   81.8707  -15.9045    7.9091 P   0  0  0  0  0  0  0  0  0  0  0  0
   82.2724  -17.0943    8.7545 O   0  0  0  0  0  0  0  0  0  0  0  0
   82.4904  -14.5447    8.1212 O   0  0  0  0  0  0  0  0  0  0  0  0
   83.4570  -14.6257    8.1175 H   0  0  0  0  0  0  0  0  0  0  0  0
   82.0594  -16.3562    6.3744 O   0  0  0  0  0  0  0  0  0  0  0  0
   83.2738  -15.9327    5.4068 P   0  0  0  0  0  0  0  0  0  0  0  0
   82.9907  -14.4602    5.1643 O   0  0  0  0  0  0  0  0  0  0  0  0
   83.0713  -16.8163    4.1849 O   0  0  0  0  0  0  0  0  0  0  0  0
   84.5399  -16.2183    6.1597 O   0  0  0  0  0  0  0  0  0  0  0  0
   83.7659  -16.6315    3.5336 H   0  0  0  0  0  0  0  0  0  0  0  0
   85.3033  -15.9770    5.6120 H   0  0  0  0  0  0  0  0  0  0  0  0
 29 30  2  0  0  0
 29 31  1  0  0  0
 29 32  1  0  0  0
 29 28  1  0  0  0
 24 25  2  0  0  0
 24 26  1  0  0  0
 24 28  1  0  0  0
 24 23  1  0  0  0
 23 22  1  0  0  0
 22  1  1  0  0  0
  1  2  1  0  0  0
  1  3  1  0  0  0
  2  7  1  0  0  0
  3  4  1  0  0  0
  3  5  1  0  0  0
  5  6  1  0  0  0
  5  7  1  0  0  0
  7 10  1  0  0  0
 10 11  1  0  0  0
 10 19  1  0  0  0
 11 12  2  0  0  0
 12 13  1  0  0  0
 13 14  1  0  0  0
 13 19  2  0  0  0
 14 15  1  0  0  0
 14 16  2  0  0  0
 16 17  1  0  0  0
 17 18  2  0  0  0
 18 19  1  0  0  0
 31 33  1  0  0  0
 32 34  1  0  0  0
 26 27  1  0  0  0
  4  8  1  0  0  0
  6  9  1  0  0  0
 15 20  1  0  0  0
 15 21  1  0  0  0
M  END
> <minimizedAffinity>
-7.84589

$$$$
4OAG_ADP_A_501


 34 36  0  0  0  0  0  0  0  0999 V2000
   78.6584  -14.3558    7.3461 C   0  0  0  0  0  0  0  0  0  0  0  0
   79.4735  -14.2200    6.1801 O   0  0  0  0  0  0  0  0  0  0  0  0
   77.3471  -13.6417    7.0587 C   0  0  0  0  0  0  0  0  0  0  0  0
   77.3149  -12.4118    7.8051 O   0  0  0  0  0  0  0  0  0  0  0  0
   77.3792  -13.3664    5.5659 C   0  0  0  0  0  0  0  0  0  0  0  0
   76.7271  -12.1382    5.2344 O   0  0  0  0  0  0  0  0  0  0  0  0
   78.8739  -13.2611    5.3116 C   0  0  0  0  0  0  0  0  0  0  0  0
   78.0884  -11.8736    7.5750 H   0  0  0  0  0  0  0  0  0  0  0  0
   77.1358  -11.4111    5.7296 H   0  0  0  0  0  0  0  0  0  0  0  0
   79.3783  -13.5257    3.9459 N   0  0  0  0  0  0  0  0  0  0  0  0
   80.0273  -14.6054    3.4597 C   0  0  0  0  0  0  0  0  0  0  0  0
   80.3520  -14.4032    2.1519 N   0  0  0  0  0  0  0  0  0  0  0  0
   79.9171  -13.1709    1.8148 C   0  0  0  0  0  0  0  0  0  0  0  0
   79.9295  -12.3241    0.6088 C   0  0  0  0  0  0  0  0  0  0  0  0
   80.4866  -12.7651   -0.5413 N   0  0  0  0  0  0  0  0  0  0  0  0
   79.3631  -11.1058    0.6974 N   0  0  0  0  0  0  0  0  0  0  0  0
   78.8062  -10.6448    1.8431 C   0  0  0  0  0  0  0  0  0  0  0  0
   78.7504  -11.3643    2.9716 N   0  0  0  0  0  0  0  0  0  0  0  0
   79.2841  -12.6062    3.0021 C   0  0  0  0  0  0  0  0  0  0  0  0
   80.8943  -13.6605   -0.5791 H   0  0  0  0  0  0  0  0  0  0  0  0
   80.4847  -12.1909   -1.3410 H   0  0  0  0  0  0  0  0  0  0  0  0
   78.4814  -15.8328    7.6377 C   0  0  0  0  0  0  0  0  0  0  0  0
   78.9673  -16.0385    8.9523 O   0  0  0  0  0  0  0  0  0  0  0  0
   78.8938  -17.4838    9.6319 P   0  0  0  0  0  0  0  0  0  0  0  0
   79.4710  -18.5100    8.6803 O   0  0  0  0  0  0  0  0  0  0  0  0
   77.5363  -17.6738   10.2637 O   0  0  0  0  0  0  0  0  0  0  0  0
   77.4915  -18.5507   10.6760 H   0  0  0  0  0  0  0  0  0  0  0  0
   80.0021  -17.2573   10.7788 O   0  0  0  0  0  0  0  0  0  0  0  0
   80.7385  -18.4129   11.6231 P   0  0  0  0  0  0  0  0  0  0  0  0
   79.8196  -18.5671   12.8228 O   0  0  0  0  0  0  0  0  0  0  0  0
   82.0918  -17.7988   11.9489 O   0  0  0  0  0  0  0  0  0  0  0  0
   80.8163  -19.6137   10.7268 O   0  0  0  0  0  0  0  0  0  0  0  0
   82.6174  -18.4299   12.4649 H   0  0  0  0  0  0  0  0  0  0  0  0
   81.2554  -20.3399   11.1965 H   0  0  0  0  0  0  0  0  0  0  0  0
 29 30  2  0  0  0
 29 31  1  0  0  0
 29 32  1  0  0  0
 29 28  1  0  0  0
 24 25  2  0  0  0
 24 26  1  0  0  0
 24 28  1  0  0  0
 24 23  1  0  0  0
 23 22  1  0  0  0
 22  1  1  0  0  0
  1  2  1  0  0  0
  1  3  1  0  0  0
  2  7  1  0  0  0
  3  4  1  0  0  0
  3  5  1  0  0  0
  5  6  1  0  0  0
  5  7  1  0  0  0
  7 10  1  0  0  0
 10 11  1  0  0  0
 10 19  1  0  0  0
 11 12  2  0  0  0
 12 13  1  0  0  0
 13 14  1  0  0  0
 13 19  2  0  0  0
 14 15  1  0  0  0
 14 16  2  0  0  0
 16 17  1  0  0  0
 17 18  2  0  0  0
 18 19  1  0  0  0
 31 33  1  0  0  0
 32 34  1  0  0  0
 26 27  1  0  0  0
  4  8  1  0  0  0
  6  9  1  0  0  0
 15 20  1  0  0  0
 15 21  1  0  0  0
M  END
> <minimizedAffinity>
-7.67109

$$$$
4OAG_ADP_A_501


 34 36  0  0  0  0  0  0  0  0999 V2000
   78.0883  -13.6393    4.5032 C   0  0  0  0  0  0  0  0  0  0  0  0
   78.9335  -14.4195    5.3512 O   0  0  0  0  0  0  0  0  0  0  0  0
   77.7606  -12.3596    5.2563 C   0  0  0  0  0  0  0  0  0  0  0  0
   76.3938  -12.4205    5.7024 O   0  0  0  0  0  0  0  0  0  0  0  0
   78.7142  -12.3547    6.4377 C   0  0  0  0  0  0  0  0  0  0  0  0
   78.1265  -11.7593    7.5970 O   0  0  0  0  0  0  0  0  0  0  0  0
   78.9309  -13.8431    6.6555 C   0  0  0  0  0  0  0  0  0  0  0  0
   76.2661  -13.2137    6.2460 H   0  0  0  0  0  0  0  0  0  0  0  0
   77.3041  -12.2240    7.8175 H   0  0  0  0  0  0  0  0  0  0  0  0
   80.1685  -14.2845    7.3361 N   0  0  0  0  0  0  0  0  0  0  0  0
   81.4172  -13.7746    7.2723 C   0  0  0  0  0  0  0  0  0  0  0  0
   82.2664  -14.5278    8.0263 N   0  0  0  0  0  0  0  0  0  0  0  0
   81.5453  -15.5372    8.5579 C   0  0  0  0  0  0  0  0  0  0  0  0
   81.8044  -16.6891    9.4397 C   0  0  0  0  0  0  0  0  0  0  0  0
   83.0437  -16.9239    9.9261 N   0  0  0  0  0  0  0  0  0  0  0  0
   80.7638  -17.4879    9.7427 N   0  0  0  0  0  0  0  0  0  0  0  0
   79.5168  -17.2719    9.2594 C   0  0  0  0  0  0  0  0  0  0  0  0
   79.2085  -16.2397    8.4631 N   0  0  0  0  0  0  0  0  0  0  0  0
   80.1725  -15.3667    8.0936 C   0  0  0  0  0  0  0  0  0  0  0  0
   83.7874  -16.3240    9.6888 H   0  0  0  0  0  0  0  0  0  0  0  0
   83.2025  -17.6948   10.5175 H   0  0  0  0  0  0  0  0  0  0  0  0
   78.8165  -13.3922    3.1969 C   0  0  0  0  0  0  0  0  0  0  0  0
   78.9791  -11.9889    3.0928 O   0  0  0  0  0  0  0  0  0  0  0  0
   79.3228  -11.3100    1.6866 P   0  0  0  0  0  0  0  0  0  0  0  0
   79.8760  -12.3621    0.7492 O   0  0  0  0  0  0  0  0  0  0  0  0
   80.0475  -10.0070    1.9212 O   0  0  0  0  0  0  0  0  0  0  0  0
   80.2561   -9.5950    1.0682 H   0  0  0  0  0  0  0  0  0  0  0  0
   77.8166  -11.0157    1.1971 O   0  0  0  0  0  0  0  0  0  0  0  0
   76.9425   -9.7135    1.5588 P   0  0  0  0  0  0  0  0  0  0  0  0
   77.6325   -8.6300    0.7481 O   0  0  0  0  0  0  0  0  0  0  0  0
   77.1242   -9.5778    3.0632 O   0  0  0  0  0  0  0  0  0  0  0  0
   75.5331  -10.0153    1.1420 O   0  0  0  0  0  0  0  0  0  0  0  0
   76.6268   -8.8080    3.3809 H   0  0  0  0  0  0  0  0  0  0  0  0
   74.9666   -9.2538    1.3421 H   0  0  0  0  0  0  0  0  0  0  0  0
 29 30  2  0  0  0
 29 31  1  0  0  0
 29 32  1  0  0  0
 29 28  1  0  0  0
 24 25  2  0  0  0
 24 26  1  0  0  0
 24 28  1  0  0  0
 24 23  1  0  0  0
 23 22  1  0  0  0
 22  1  1  0  0  0
  1  2  1  0  0  0
  1  3  1  0  0  0
  2  7  1  0  0  0
  3  4  1  0  0  0
  3  5  1  0  0  0
  5  6  1  0  0  0
  5  7  1  0  0  0
  7 10  1  0  0  0
 10 11  1  0  0  0
 10 19  1  0  0  0
 11 12  2  0  0  0
 12 13  1  0  0  0
 13 14  1  0  0  0
 13 19  2  0  0  0
 14 15  1  0  0  0
 14 16  2  0  0  0
 16 17  1  0  0  0
 17 18  2  0  0  0
 18 19  1  0  0  0
 31 33  1  0  0  0
 32 34  1  0  0  0
 26 27  1  0  0  0
  4  8  1  0  0  0
  6  9  1  0  0  0
 15 20  1  0  0  0
 15 21  1  0  0  0
M  END
> <minimizedAffinity>
-7.60079

$$$$
