4OG3_2S6_A_602


 32 35  0  0  0  0  0  0  0  0999 V2000
  -18.3786   10.2186   -8.2447 N   0  0  0  0  0  0  0  0  0  0  0  0
  -17.3062   11.2017   -8.1380 C   0  0  0  0  0  0  0  0  0  0  0  0
  -15.9374   10.5759   -7.9615 C   0  0  0  0  0  0  0  0  0  0  0  0
  -18.3915    9.6053   -6.8416 C   0  0  0  0  0  0  0  0  0  0  0  0
  -17.0927    8.7788   -6.5433 C   0  0  0  0  0  0  0  0  0  0  0  0
  -15.9054    9.8234   -6.6408 C   0  0  0  0  0  0  0  0  0  0  0  0
  -14.4869    9.2595   -6.2919 C   0  0  0  0  0  0  0  0  0  0  0  0
  -14.6844    8.1929   -5.3858 O   0  0  0  0  0  0  0  0  0  0  0  0
  -15.1947    7.4909   -5.8190 H   0  0  0  0  0  0  0  0  0  0  0  0
  -13.7693    8.7939   -7.4452 C   0  0  0  0  0  0  0  0  0  0  0  0
  -12.7746    9.5738   -8.0314 C   0  0  0  0  0  0  0  0  0  0  0  0
  -12.0855    9.1424   -9.1670 C   0  0  0  0  0  0  0  0  0  0  0  0
  -12.3692    7.8715   -9.6922 C   0  0  0  0  0  0  0  0  0  0  0  0
  -13.3424    7.0787   -9.1379 C   0  0  0  0  0  0  0  0  0  0  0  0
  -13.9987    7.5229   -8.0047 C   0  0  0  0  0  0  0  0  0  0  0  0
  -13.6706   10.3722   -5.5850 C   0  0  0  0  0  0  0  0  0  0  0  0
  -12.5709    9.9286   -4.5728 C   0  0  0  0  0  0  0  0  0  0  0  0
  -12.1470   11.3251   -4.0533 C   0  0  0  0  0  0  0  0  0  0  0  0
  -13.4599   12.2072   -4.0809 C   0  0  0  0  0  0  0  0  0  0  0  0
  -14.5422   11.3940   -4.7082 C   0  0  0  0  0  0  0  0  0  0  0  0
  -19.7191   10.8830   -8.4477 C   0  0  0  0  0  0  0  0  0  0  0  0
  -20.2492   10.7156   -9.8445 C   0  0  0  0  0  0  0  0  0  0  0  0
  -19.6786    9.3414  -10.3014 C   0  0  0  0  0  0  0  0  0  0  0  0
  -19.0298    9.5621  -11.5633 O   0  0  0  0  0  0  0  0  0  0  0  0
  -17.8161    7.8994  -12.7378 C   0  0  0  0  0  0  0  0  0  0  0  0
  -16.6411    7.2358  -13.0471 C   0  0  0  0  0  0  0  0  0  0  0  0
  -15.4407    7.6588  -12.5148 C   0  0  0  0  0  0  0  0  0  0  0  0
  -15.4441    8.7633  -11.6699 C   0  0  0  0  0  0  0  0  0  0  0  0
  -16.6263    9.4302  -11.3261 C   0  0  0  0  0  0  0  0  0  0  0  0
  -17.8253    8.9814  -11.8536 C   0  0  0  0  0  0  0  0  0  0  0  0
  -14.2393    6.9704  -12.8279 C   0  0  0  0  0  0  0  0  0  0  0  0
  -13.2520    6.4466  -13.0699 N   0  0  0  0  0  0  0  0  0  0  0  0
 32 31  3  0  0  0
 31 27  1  0  0  0
 27 26  2  0  0  0
 27 28  1  0  0  0
 26 25  1  0  0  0
 28 29  2  0  0  0
 14 13  2  0  0  0
 14 15  1  0  0  0
 13 12  1  0  0  0
 25 30  2  0  0  0
 29 30  1  0  0  0
 30 24  1  0  0  0
  2  3  1  0  0  0
  2  1  1  0  0  0
 24 23  1  0  0  0
 15 10  2  0  0  0
 12 11  2  0  0  0
 21  1  1  0  0  0
 21 22  1  0  0  0
 23 22  1  0  0  0
  3  6  1  0  0  0
  1  4  1  0  0  0
 10 11  1  0  0  0
 10  7  1  0  0  0
  6  7  1  0  0  0
  6  5  1  0  0  0
  4  5  1  0  0  0
  7  8  1  0  0  0
  7 16  1  0  0  0
 17 16  1  0  0  0
 17 18  1  0  0  0
 16 20  1  0  0  0
 20 19  1  0  0  0
 18 19  1  0  0  0
  8  9  1  0  0  0
M  END
> <minimizedAffinity>
-6.61781

$$$$
4OG3_2S6_A_602


 32 35  0  0  0  0  0  0  0  0999 V2000
   -6.8606   16.8027   -8.6969 N   0  0  0  0  0  0  0  0  0  0  0  0
   -8.3183   16.8041   -8.6425 C   0  0  0  0  0  0  0  0  0  0  0  0
   -8.9664   16.5100   -9.9803 C   0  0  0  0  0  0  0  0  0  0  0  0
   -6.5715   18.0302   -9.5656 C   0  0  0  0  0  0  0  0  0  0  0  0
   -7.0470   17.8341  -11.0469 C   0  0  0  0  0  0  0  0  0  0  0  0
   -8.6145   17.6229  -10.9544 C   0  0  0  0  0  0  0  0  0  0  0  0
   -9.3548   17.4910  -12.3279 C   0  0  0  0  0  0  0  0  0  0  0  0
   -8.3859   17.0903  -13.2758 O   0  0  0  0  0  0  0  0  0  0  0  0
   -8.0358   16.2192  -13.0318 H   0  0  0  0  0  0  0  0  0  0  0  0
  -10.4297   16.5394  -12.2964 C   0  0  0  0  0  0  0  0  0  0  0  0
  -11.6851   16.8948  -11.8078 C   0  0  0  0  0  0  0  0  0  0  0  0
  -12.7321   15.9723  -11.7503 C   0  0  0  0  0  0  0  0  0  0  0  0
  -12.5234   14.6755  -12.2466 C   0  0  0  0  0  0  0  0  0  0  0  0
  -11.2990   14.2942  -12.7351 C   0  0  0  0  0  0  0  0  0  0  0  0
  -10.2841   15.2314  -12.7953 C   0  0  0  0  0  0  0  0  0  0  0  0
   -9.9040   18.8836  -12.7315 C   0  0  0  0  0  0  0  0  0  0  0  0
   -9.2225   19.6086  -13.9317 C   0  0  0  0  0  0  0  0  0  0  0  0
   -9.9913   20.9518  -13.8674 C   0  0  0  0  0  0  0  0  0  0  0  0
  -10.2881   21.2006  -12.3336 C   0  0  0  0  0  0  0  0  0  0  0  0
   -9.8295   19.9974  -11.5798 C   0  0  0  0  0  0  0  0  0  0  0  0
   -6.2566   17.0712   -7.3394 C   0  0  0  0  0  0  0  0  0  0  0  0
   -6.8986   16.2660   -6.2442 C   0  0  0  0  0  0  0  0  0  0  0  0
   -5.8199   15.2065   -5.8742 C   0  0  0  0  0  0  0  0  0  0  0  0
   -5.8394   14.2163   -6.9140 O   0  0  0  0  0  0  0  0  0  0  0  0
   -7.4079   13.1719   -8.3514 C   0  0  0  0  0  0  0  0  0  0  0  0
   -8.5048   12.3573   -8.5751 C   0  0  0  0  0  0  0  0  0  0  0  0
   -9.0979   11.6834   -7.5275 C   0  0  0  0  0  0  0  0  0  0  0  0
   -8.5646   11.8407   -6.2529 C   0  0  0  0  0  0  0  0  0  0  0  0
   -7.4721   12.6806   -6.0048 C   0  0  0  0  0  0  0  0  0  0  0  0
   -6.9001   13.3649   -7.0639 C   0  0  0  0  0  0  0  0  0  0  0  0
  -10.2275   10.8557   -7.7600 C   0  0  0  0  0  0  0  0  0  0  0  0
  -11.1152   10.1647   -7.9657 N   0  0  0  0  0  0  0  0  0  0  0  0
 32 31  3  0  0  0
 31 27  1  0  0  0
 27 26  2  0  0  0
 27 28  1  0  0  0
 26 25  1  0  0  0
 28 29  2  0  0  0
 14 13  2  0  0  0
 14 15  1  0  0  0
 13 12  1  0  0  0
 25 30  2  0  0  0
 29 30  1  0  0  0
 30 24  1  0  0  0
  2  3  1  0  0  0
  2  1  1  0  0  0
 24 23  1  0  0  0
 15 10  2  0  0  0
 12 11  2  0  0  0
 21  1  1  0  0  0
 21 22  1  0  0  0
 23 22  1  0  0  0
  3  6  1  0  0  0
  1  4  1  0  0  0
 10 11  1  0  0  0
 10  7  1  0  0  0
  6  7  1  0  0  0
  6  5  1  0  0  0
  4  5  1  0  0  0
  7  8  1  0  0  0
  7 16  1  0  0  0
 17 16  1  0  0  0
 17 18  1  0  0  0
 16 20  1  0  0  0
 20 19  1  0  0  0
 18 19  1  0  0  0
  8  9  1  0  0  0
M  END
> <minimizedAffinity>
-6.49138

$$$$
4OG3_2S6_A_602


 32 35  0  0  0  0  0  0  0  0999 V2000
  -14.0083   13.5121  -11.1652 N   0  0  0  0  0  0  0  0  0  0  0  0
  -14.0222   13.0175   -9.7929 C   0  0  0  0  0  0  0  0  0  0  0  0
  -13.7555   11.5293   -9.6915 C   0  0  0  0  0  0  0  0  0  0  0  0
  -15.2469   12.8371  -11.7613 C   0  0  0  0  0  0  0  0  0  0  0  0
  -15.0788   11.2821  -11.8739 C   0  0  0  0  0  0  0  0  0  0  0  0
  -14.8805   10.7779  -10.3851 C   0  0  0  0  0  0  0  0  0  0  0  0
  -14.7773    9.2251  -10.2119 C   0  0  0  0  0  0  0  0  0  0  0  0
  -13.4017    8.9022  -10.2457 O   0  0  0  0  0  0  0  0  0  0  0  0
  -12.9520    9.3242   -9.4970 H   0  0  0  0  0  0  0  0  0  0  0  0
  -15.3585    8.7579   -8.9847 C   0  0  0  0  0  0  0  0  0  0  0  0
  -14.9102    7.5842   -8.3827 C   0  0  0  0  0  0  0  0  0  0  0  0
  -15.4826    7.1069   -7.2016 C   0  0  0  0  0  0  0  0  0  0  0  0
  -16.4950    7.8591   -6.5846 C   0  0  0  0  0  0  0  0  0  0  0  0
  -16.9584    9.0197   -7.1514 C   0  0  0  0  0  0  0  0  0  0  0  0
  -16.3637    9.4782   -8.3126 C   0  0  0  0  0  0  0  0  0  0  0  0
  -15.4811    8.5437  -11.4138 C   0  0  0  0  0  0  0  0  0  0  0  0
  -16.7603    7.7025  -11.1194 C   0  0  0  0  0  0  0  0  0  0  0  0
  -17.0091    7.1404  -12.5413 C   0  0  0  0  0  0  0  0  0  0  0  0
  -15.5752    6.9504  -13.1820 C   0  0  0  0  0  0  0  0  0  0  0  0
  -14.5718    7.5005  -12.2245 C   0  0  0  0  0  0  0  0  0  0  0  0
  -14.2497   15.0016  -11.2182 C   0  0  0  0  0  0  0  0  0  0  0  0
  -13.1130   15.7560  -11.8499 C   0  0  0  0  0  0  0  0  0  0  0  0
  -11.8759   14.8419  -11.6113 C   0  0  0  0  0  0  0  0  0  0  0  0
  -10.9202   15.1647  -12.6333 O   0  0  0  0  0  0  0  0  0  0  0  0
   -9.2824   16.6583  -13.4723 C   0  0  0  0  0  0  0  0  0  0  0  0
   -8.1931   17.4958  -13.3029 C   0  0  0  0  0  0  0  0  0  0  0  0
   -7.6905   17.7392  -12.0414 C   0  0  0  0  0  0  0  0  0  0  0  0
   -8.3063   17.1285  -10.9545 C   0  0  0  0  0  0  0  0  0  0  0  0
   -9.3924   16.2585  -11.1102 C   0  0  0  0  0  0  0  0  0  0  0  0
   -9.8729   16.0096  -12.3846 C   0  0  0  0  0  0  0  0  0  0  0  0
   -6.5681   18.5920  -11.8730 C   0  0  0  0  0  0  0  0  0  0  0  0
   -5.6451   19.2579  -11.7623 N   0  0  0  0  0  0  0  0  0  0  0  0
 32 31  3  0  0  0
 31 27  1  0  0  0
 27 26  2  0  0  0
 27 28  1  0  0  0
 26 25  1  0  0  0
 28 29  2  0  0  0
 14 13  2  0  0  0
 14 15  1  0  0  0
 13 12  1  0  0  0
 25 30  2  0  0  0
 29 30  1  0  0  0
 30 24  1  0  0  0
  2  3  1  0  0  0
  2  1  1  0  0  0
 24 23  1  0  0  0
 15 10  2  0  0  0
 12 11  2  0  0  0
 21  1  1  0  0  0
 21 22  1  0  0  0
 23 22  1  0  0  0
  3  6  1  0  0  0
  1  4  1  0  0  0
 10 11  1  0  0  0
 10  7  1  0  0  0
  6  7  1  0  0  0
  6  5  1  0  0  0
  4  5  1  0  0  0
  7  8  1  0  0  0
  7 16  1  0  0  0
 17 16  1  0  0  0
 17 18  1  0  0  0
 16 20  1  0  0  0
 20 19  1  0  0  0
 18 19  1  0  0  0
  8  9  1  0  0  0
M  END
> <minimizedAffinity>
-6.33362

$$$$
4OG3_2S6_A_602


 32 35  0  0  0  0  0  0  0  0999 V2000
   -5.4466   19.3151   -7.9239 N   0  0  0  0  0  0  0  0  0  0  0  0
   -5.6564   18.0346   -8.5906 C   0  0  0  0  0  0  0  0  0  0  0  0
   -5.8932   18.1689  -10.0812 C   0  0  0  0  0  0  0  0  0  0  0  0
   -6.8221   19.9748   -8.0577 C   0  0  0  0  0  0  0  0  0  0  0  0
   -7.1685   20.3281   -9.5457 C   0  0  0  0  0  0  0  0  0  0  0  0
   -7.1839   18.9395  -10.3085 C   0  0  0  0  0  0  0  0  0  0  0  0
   -7.5982   19.0084  -11.8169 C   0  0  0  0  0  0  0  0  0  0  0  0
   -6.4007   19.0547  -12.5663 O   0  0  0  0  0  0  0  0  0  0  0  0
   -5.8984   18.2372  -12.4239 H   0  0  0  0  0  0  0  0  0  0  0  0
   -8.3911   17.8857  -12.2325 C   0  0  0  0  0  0  0  0  0  0  0  0
   -9.1687   17.1812  -11.3159 C   0  0  0  0  0  0  0  0  0  0  0  0
   -9.9261   16.0734  -11.7029 C   0  0  0  0  0  0  0  0  0  0  0  0
   -9.9414   15.6999  -13.0563 C   0  0  0  0  0  0  0  0  0  0  0  0
   -9.1874   16.3734  -13.9841 C   0  0  0  0  0  0  0  0  0  0  0  0
   -8.4588   17.4761  -13.5774 C   0  0  0  0  0  0  0  0  0  0  0  0
   -8.3888   20.3208  -12.0551 C   0  0  0  0  0  0  0  0  0  0  0  0
   -9.9449   20.2311  -12.0846 C   0  0  0  0  0  0  0  0  0  0  0  0
  -10.2616   21.6982  -12.4680 C   0  0  0  0  0  0  0  0  0  0  0  0
   -9.0734   22.1605  -13.4045 C   0  0  0  0  0  0  0  0  0  0  0  0
   -8.0682   21.0585  -13.4427 C   0  0  0  0  0  0  0  0  0  0  0  0
   -5.1866   19.1336   -6.4478 C   0  0  0  0  0  0  0  0  0  0  0  0
   -4.1267   18.1062   -6.1628 C   0  0  0  0  0  0  0  0  0  0  0  0
   -4.7128   17.2783   -4.9820 C   0  0  0  0  0  0  0  0  0  0  0  0
   -4.1241   15.9710   -5.0614 O   0  0  0  0  0  0  0  0  0  0  0  0
   -5.9710   14.7855   -5.9563 C   0  0  0  0  0  0  0  0  0  0  0  0
   -6.8219   13.6939   -5.9865 C   0  0  0  0  0  0  0  0  0  0  0  0
   -6.6015   12.6150   -5.1554 C   0  0  0  0  0  0  0  0  0  0  0  0
   -5.5077   12.6530   -4.2977 C   0  0  0  0  0  0  0  0  0  0  0  0
   -4.6521   13.7597   -4.2358 C   0  0  0  0  0  0  0  0  0  0  0  0
   -4.8981   14.8426   -5.0627 C   0  0  0  0  0  0  0  0  0  0  0  0
   -7.4814   11.5013   -5.1837 C   0  0  0  0  0  0  0  0  0  0  0  0
   -8.1601   10.5812   -5.2052 N   0  0  0  0  0  0  0  0  0  0  0  0
 32 31  3  0  0  0
 31 27  1  0  0  0
 27 26  2  0  0  0
 27 28  1  0  0  0
 26 25  1  0  0  0
 28 29  2  0  0  0
 14 13  2  0  0  0
 14 15  1  0  0  0
 13 12  1  0  0  0
 25 30  2  0  0  0
 29 30  1  0  0  0
 30 24  1  0  0  0
  2  3  1  0  0  0
  2  1  1  0  0  0
 24 23  1  0  0  0
 15 10  2  0  0  0
 12 11  2  0  0  0
 21  1  1  0  0  0
 21 22  1  0  0  0
 23 22  1  0  0  0
  3  6  1  0  0  0
  1  4  1  0  0  0
 10 11  1  0  0  0
 10  7  1  0  0  0
  6  7  1  0  0  0
  6  5  1  0  0  0
  4  5  1  0  0  0
  7  8  1  0  0  0
  7 16  1  0  0  0
 17 16  1  0  0  0
 17 18  1  0  0  0
 16 20  1  0  0  0
 20 19  1  0  0  0
 18 19  1  0  0  0
  8  9  1  0  0  0
M  END
> <minimizedAffinity>
-6.30319

$$$$
4OG3_2S6_A_602


 32 35  0  0  0  0  0  0  0  0999 V2000
  -13.6372   12.8755  -10.4137 N   0  0  0  0  0  0  0  0  0  0  0  0
  -14.2408   12.1986  -11.5563 C   0  0  0  0  0  0  0  0  0  0  0  0
  -14.9917   10.9386  -11.1759 C   0  0  0  0  0  0  0  0  0  0  0  0
  -12.5598   11.8765   -9.9823 C   0  0  0  0  0  0  0  0  0  0  0  0
  -13.1738   10.5523   -9.4092 C   0  0  0  0  0  0  0  0  0  0  0  0
  -14.0072    9.9307  -10.6048 C   0  0  0  0  0  0  0  0  0  0  0  0
  -14.6579    8.5365  -10.3140 C   0  0  0  0  0  0  0  0  0  0  0  0
  -13.6088    7.5894  -10.3147 O   0  0  0  0  0  0  0  0  0  0  0  0
  -12.9886    7.7934   -9.5973 H   0  0  0  0  0  0  0  0  0  0  0  0
  -15.3537    8.4934   -9.0586 C   0  0  0  0  0  0  0  0  0  0  0  0
  -15.0260    7.5453   -8.0917 C   0  0  0  0  0  0  0  0  0  0  0  0
  -15.7106    7.4780   -6.8763 C   0  0  0  0  0  0  0  0  0  0  0  0
  -16.7135    8.4234   -6.6079 C   0  0  0  0  0  0  0  0  0  0  0  0
  -17.0595    9.3704   -7.5386 C   0  0  0  0  0  0  0  0  0  0  0  0
  -16.3555    9.4250   -8.7275 C   0  0  0  0  0  0  0  0  0  0  0  0
  -15.6395    8.1970  -11.4652 C   0  0  0  0  0  0  0  0  0  0  0  0
  -16.8936    7.3393  -11.1155 C   0  0  0  0  0  0  0  0  0  0  0  0
  -17.4662    7.1599  -12.5437 C   0  0  0  0  0  0  0  0  0  0  0  0
  -16.2097    7.1035  -13.5032 C   0  0  0  0  0  0  0  0  0  0  0  0
  -14.9948    7.3705  -12.6792 C   0  0  0  0  0  0  0  0  0  0  0  0
  -12.9245   14.1388  -10.8331 C   0  0  0  0  0  0  0  0  0  0  0  0
  -12.9066   14.3327  -12.3237 C   0  0  0  0  0  0  0  0  0  0  0  0
  -11.4045   14.1858  -12.7045 C   0  0  0  0  0  0  0  0  0  0  0  0
  -10.6809   15.1348  -11.9059 O   0  0  0  0  0  0  0  0  0  0  0  0
   -9.1951   16.4863  -13.1640 C   0  0  0  0  0  0  0  0  0  0  0  0
   -8.7802   17.7117  -13.6570 C   0  0  0  0  0  0  0  0  0  0  0  0
   -9.5320   18.8457  -13.4286 C   0  0  0  0  0  0  0  0  0  0  0  0
  -10.7098   18.7232  -12.6996 C   0  0  0  0  0  0  0  0  0  0  0  0
  -11.1308   17.4965  -12.1718 C   0  0  0  0  0  0  0  0  0  0  0  0
  -10.3552   16.3712  -12.3936 C   0  0  0  0  0  0  0  0  0  0  0  0
   -9.0986   20.1016  -13.9287 C   0  0  0  0  0  0  0  0  0  0  0  0
   -8.7199   21.0960  -14.3477 N   0  0  0  0  0  0  0  0  0  0  0  0
 32 31  3  0  0  0
 31 27  1  0  0  0
 27 26  2  0  0  0
 27 28  1  0  0  0
 26 25  1  0  0  0
 28 29  2  0  0  0
 14 13  2  0  0  0
 14 15  1  0  0  0
 13 12  1  0  0  0
 25 30  2  0  0  0
 29 30  1  0  0  0
 30 24  1  0  0  0
  2  3  1  0  0  0
  2  1  1  0  0  0
 24 23  1  0  0  0
 15 10  2  0  0  0
 12 11  2  0  0  0
 21  1  1  0  0  0
 21 22  1  0  0  0
 23 22  1  0  0  0
  3  6  1  0  0  0
  1  4  1  0  0  0
 10 11  1  0  0  0
 10  7  1  0  0  0
  6  7  1  0  0  0
  6  5  1  0  0  0
  4  5  1  0  0  0
  7  8  1  0  0  0
  7 16  1  0  0  0
 17 16  1  0  0  0
 17 18  1  0  0  0
 16 20  1  0  0  0
 20 19  1  0  0  0
 18 19  1  0  0  0
  8  9  1  0  0  0
M  END
> <minimizedAffinity>
-6.17803

$$$$
4OG3_2S6_A_602


 32 35  0  0  0  0  0  0  0  0999 V2000
  -10.0701   22.0138  -13.0948 N   0  0  0  0  0  0  0  0  0  0  0  0
  -10.4568   21.2680  -11.9022 C   0  0  0  0  0  0  0  0  0  0  0  0
   -9.5816   20.0582  -11.6443 C   0  0  0  0  0  0  0  0  0  0  0  0
  -10.4066   21.0245  -14.2141 C   0  0  0  0  0  0  0  0  0  0  0  0
   -9.4772   19.7617  -14.1892 C   0  0  0  0  0  0  0  0  0  0  0  0
   -9.7521   19.0726  -12.7892 C   0  0  0  0  0  0  0  0  0  0  0  0
   -9.0008   17.7199  -12.5495 C   0  0  0  0  0  0  0  0  0  0  0  0
   -8.4324   17.3448  -13.7881 O   0  0  0  0  0  0  0  0  0  0  0  0
   -7.7829   18.0116  -14.0609 H   0  0  0  0  0  0  0  0  0  0  0  0
   -7.9736   17.8184  -11.5509 C   0  0  0  0  0  0  0  0  0  0  0  0
   -8.2523   17.5591  -10.2106 C   0  0  0  0  0  0  0  0  0  0  0  0
   -7.2679   17.6739   -9.2267 C   0  0  0  0  0  0  0  0  0  0  0  0
   -5.9588   18.0061   -9.6105 C   0  0  0  0  0  0  0  0  0  0  0  0
   -5.6514   18.2668  -10.9222 C   0  0  0  0  0  0  0  0  0  0  0  0
   -6.6409   18.1308  -11.8784 C   0  0  0  0  0  0  0  0  0  0  0  0
  -10.0357   16.6452  -12.1277 C   0  0  0  0  0  0  0  0  0  0  0  0
  -10.1677   15.3779  -13.0261 C   0  0  0  0  0  0  0  0  0  0  0  0
  -11.3610   14.6993  -12.3083 C   0  0  0  0  0  0  0  0  0  0  0  0
  -12.2636   15.8818  -11.7701 C   0  0  0  0  0  0  0  0  0  0  0  0
  -11.5519   17.1626  -12.0514 C   0  0  0  0  0  0  0  0  0  0  0  0
  -10.9486   23.2249  -13.2982 C   0  0  0  0  0  0  0  0  0  0  0  0
  -10.2629   24.5123  -12.9342 C   0  0  0  0  0  0  0  0  0  0  0  0
   -8.8529   24.3838  -13.5810 C   0  0  0  0  0  0  0  0  0  0  0  0
   -7.9015   24.7765  -12.5797 O   0  0  0  0  0  0  0  0  0  0  0  0
   -6.9973   22.7926  -11.6503 C   0  0  0  0  0  0  0  0  0  0  0  0
   -6.7667   21.9384  -10.5855 C   0  0  0  0  0  0  0  0  0  0  0  0
   -7.1685   22.2869   -9.3126 C   0  0  0  0  0  0  0  0  0  0  0  0
   -7.8020   23.5113   -9.1306 C   0  0  0  0  0  0  0  0  0  0  0  0
   -8.0662   24.3756  -10.2001 C   0  0  0  0  0  0  0  0  0  0  0  0
   -7.6737   24.0026  -11.4744 C   0  0  0  0  0  0  0  0  0  0  0  0
   -6.9376   21.4043   -8.2249 C   0  0  0  0  0  0  0  0  0  0  0  0
   -6.7323   20.7209   -7.3313 N   0  0  0  0  0  0  0  0  0  0  0  0
 32 31  3  0  0  0
 31 27  1  0  0  0
 27 26  2  0  0  0
 27 28  1  0  0  0
 26 25  1  0  0  0
 28 29  2  0  0  0
 14 13  2  0  0  0
 14 15  1  0  0  0
 13 12  1  0  0  0
 25 30  2  0  0  0
 29 30  1  0  0  0
 30 24  1  0  0  0
  2  3  1  0  0  0
  2  1  1  0  0  0
 24 23  1  0  0  0
 15 10  2  0  0  0
 12 11  2  0  0  0
 21  1  1  0  0  0
 21 22  1  0  0  0
 23 22  1  0  0  0
  3  6  1  0  0  0
  1  4  1  0  0  0
 10 11  1  0  0  0
 10  7  1  0  0  0
  6  7  1  0  0  0
  6  5  1  0  0  0
  4  5  1  0  0  0
  7  8  1  0  0  0
  7 16  1  0  0  0
 17 16  1  0  0  0
 17 18  1  0  0  0
 16 20  1  0  0  0
 20 19  1  0  0  0
 18 19  1  0  0  0
  8  9  1  0  0  0
M  END
> <minimizedAffinity>
-6.17721

$$$$
4OG3_2S6_A_602


 32 35  0  0  0  0  0  0  0  0999 V2000
  -19.1976   12.7364  -10.3486 N   0  0  0  0  0  0  0  0  0  0  0  0
  -18.2303   12.4674   -9.2903 C   0  0  0  0  0  0  0  0  0  0  0  0
  -16.9170   11.9162   -9.8074 C   0  0  0  0  0  0  0  0  0  0  0  0
  -19.5204   11.3270  -10.8530 C   0  0  0  0  0  0  0  0  0  0  0  0
  -18.2948   10.6564  -11.5652 C   0  0  0  0  0  0  0  0  0  0  0  0
  -17.1697   10.5634  -10.4535 C   0  0  0  0  0  0  0  0  0  0  0  0
  -15.8527    9.8391  -10.8925 C   0  0  0  0  0  0  0  0  0  0  0  0
  -15.0282   10.8197  -11.4894 O   0  0  0  0  0  0  0  0  0  0  0  0
  -14.8013   11.4954  -10.8315 H   0  0  0  0  0  0  0  0  0  0  0  0
  -15.1608    9.2208   -9.7965 C   0  0  0  0  0  0  0  0  0  0  0  0
  -13.8324    9.5371   -9.5200 C   0  0  0  0  0  0  0  0  0  0  0  0
  -13.1414    8.9258   -8.4715 C   0  0  0  0  0  0  0  0  0  0  0  0
  -13.8220    8.0134   -7.6495 C   0  0  0  0  0  0  0  0  0  0  0  0
  -15.1306    7.6810   -7.8946 C   0  0  0  0  0  0  0  0  0  0  0  0
  -15.7962    8.3124   -8.9293 C   0  0  0  0  0  0  0  0  0  0  0  0
  -16.2063    8.7676  -11.9559 C   0  0  0  0  0  0  0  0  0  0  0  0
  -17.2089    7.6464  -11.5457 C   0  0  0  0  0  0  0  0  0  0  0  0
  -17.1422    6.7843  -12.8311 C   0  0  0  0  0  0  0  0  0  0  0  0
  -15.6589    6.9248  -13.3627 C   0  0  0  0  0  0  0  0  0  0  0  0
  -14.9579    7.9198  -12.4997 C   0  0  0  0  0  0  0  0  0  0  0  0
  -20.4791   13.3100   -9.7932 C   0  0  0  0  0  0  0  0  0  0  0  0
  -21.5963   12.3054   -9.7438 C   0  0  0  0  0  0  0  0  0  0  0  0
  -22.0626   12.3337   -8.2589 C   0  0  0  0  0  0  0  0  0  0  0  0
  -21.7886   11.0333   -7.7148 O   0  0  0  0  0  0  0  0  0  0  0  0
  -20.0731   11.5595   -6.1665 C   0  0  0  0  0  0  0  0  0  0  0  0
  -18.8271   11.3404   -5.6043 C   0  0  0  0  0  0  0  0  0  0  0  0
  -18.0593   10.2675   -6.0075 C   0  0  0  0  0  0  0  0  0  0  0  0
  -18.5699    9.4176   -6.9825 C   0  0  0  0  0  0  0  0  0  0  0  0
  -19.8167    9.6391   -7.5800 C   0  0  0  0  0  0  0  0  0  0  0  0
  -20.5667   10.7313   -7.1780 C   0  0  0  0  0  0  0  0  0  0  0  0
  -16.7786   10.0513   -5.4344 C   0  0  0  0  0  0  0  0  0  0  0  0
  -15.7587    9.8432   -4.9609 N   0  0  0  0  0  0  0  0  0  0  0  0
 32 31  3  0  0  0
 31 27  1  0  0  0
 27 26  2  0  0  0
 27 28  1  0  0  0
 26 25  1  0  0  0
 28 29  2  0  0  0
 14 13  2  0  0  0
 14 15  1  0  0  0
 13 12  1  0  0  0
 25 30  2  0  0  0
 29 30  1  0  0  0
 30 24  1  0  0  0
  2  3  1  0  0  0
  2  1  1  0  0  0
 24 23  1  0  0  0
 15 10  2  0  0  0
 12 11  2  0  0  0
 21  1  1  0  0  0
 21 22  1  0  0  0
 23 22  1  0  0  0
  3  6  1  0  0  0
  1  4  1  0  0  0
 10 11  1  0  0  0
 10  7  1  0  0  0
  6  7  1  0  0  0
  6  5  1  0  0  0
  4  5  1  0  0  0
  7  8  1  0  0  0
  7 16  1  0  0  0
 17 16  1  0  0  0
 17 18  1  0  0  0
 16 20  1  0  0  0
 20 19  1  0  0  0
 18 19  1  0  0  0
  8  9  1  0  0  0
M  END
> <minimizedAffinity>
-6.16331

$$$$
4OG3_2S6_A_602


 32 35  0  0  0  0  0  0  0  0999 V2000
  -14.4209   13.8650  -10.2597 N   0  0  0  0  0  0  0  0  0  0  0  0
  -14.8865   13.1630  -11.4508 C   0  0  0  0  0  0  0  0  0  0  0  0
  -15.9400   12.1153  -11.1532 C   0  0  0  0  0  0  0  0  0  0  0  0
  -13.6863   12.7559   -9.5013 C   0  0  0  0  0  0  0  0  0  0  0  0
  -14.6635   11.6462   -8.9793 C   0  0  0  0  0  0  0  0  0  0  0  0
  -15.3261   11.0320  -10.2809 C   0  0  0  0  0  0  0  0  0  0  0  0
  -16.2915    9.8240  -10.0347 C   0  0  0  0  0  0  0  0  0  0  0  0
  -17.6028   10.3506  -10.0034 O   0  0  0  0  0  0  0  0  0  0  0  0
  -17.8150   10.7412  -10.8656 H   0  0  0  0  0  0  0  0  0  0  0  0
  -16.1953    8.8134  -11.0503 C   0  0  0  0  0  0  0  0  0  0  0  0
  -14.9745    8.5212  -11.6548 C   0  0  0  0  0  0  0  0  0  0  0  0
  -14.8718    7.5570  -12.6599 C   0  0  0  0  0  0  0  0  0  0  0  0
  -16.0176    6.8329  -13.0267 C   0  0  0  0  0  0  0  0  0  0  0  0
  -17.2347    7.0959  -12.4501 C   0  0  0  0  0  0  0  0  0  0  0  0
  -17.3057    8.0445  -11.4464 C   0  0  0  0  0  0  0  0  0  0  0  0
  -15.9679    9.2039   -8.6509 C   0  0  0  0  0  0  0  0  0  0  0  0
  -15.5923    7.6915   -8.6074 C   0  0  0  0  0  0  0  0  0  0  0  0
  -15.4945    7.5137   -7.0716 C   0  0  0  0  0  0  0  0  0  0  0  0
  -16.5733    8.4950   -6.4589 C   0  0  0  0  0  0  0  0  0  0  0  0
  -17.1596    9.2854   -7.5805 C   0  0  0  0  0  0  0  0  0  0  0  0
  -13.3949   14.9176  -10.6043 C   0  0  0  0  0  0  0  0  0  0  0  0
  -12.8739   14.7887  -12.0086 C   0  0  0  0  0  0  0  0  0  0  0  0
  -11.3884   14.3630  -11.8214 C   0  0  0  0  0  0  0  0  0  0  0  0
  -10.6450   14.9780  -12.8850 O   0  0  0  0  0  0  0  0  0  0  0  0
   -9.4519   16.2778  -11.3026 C   0  0  0  0  0  0  0  0  0  0  0  0
   -8.5796   17.3010  -10.9727 C   0  0  0  0  0  0  0  0  0  0  0  0
   -7.9439   18.0215  -11.9627 C   0  0  0  0  0  0  0  0  0  0  0  0
   -8.1987   17.6907  -13.2891 C   0  0  0  0  0  0  0  0  0  0  0  0
   -9.0975   16.6763  -13.6408 C   0  0  0  0  0  0  0  0  0  0  0  0
   -9.7419   15.9753  -12.6356 C   0  0  0  0  0  0  0  0  0  0  0  0
   -7.0566   19.0754  -11.6202 C   0  0  0  0  0  0  0  0  0  0  0  0
   -6.3512   19.9195  -11.3080 N   0  0  0  0  0  0  0  0  0  0  0  0
 32 31  3  0  0  0
 31 27  1  0  0  0
 27 26  2  0  0  0
 27 28  1  0  0  0
 26 25  1  0  0  0
 28 29  2  0  0  0
 14 13  2  0  0  0
 14 15  1  0  0  0
 13 12  1  0  0  0
 25 30  2  0  0  0
 29 30  1  0  0  0
 30 24  1  0  0  0
  2  3  1  0  0  0
  2  1  1  0  0  0
 24 23  1  0  0  0
 15 10  2  0  0  0
 12 11  2  0  0  0
 21  1  1  0  0  0
 21 22  1  0  0  0
 23 22  1  0  0  0
  3  6  1  0  0  0
  1  4  1  0  0  0
 10 11  1  0  0  0
 10  7  1  0  0  0
  6  7  1  0  0  0
  6  5  1  0  0  0
  4  5  1  0  0  0
  7  8  1  0  0  0
  7 16  1  0  0  0
 17 16  1  0  0  0
 17 18  1  0  0  0
 16 20  1  0  0  0
 20 19  1  0  0  0
 18 19  1  0  0  0
  8  9  1  0  0  0
M  END
> <minimizedAffinity>
-6.12645

$$$$
4OG3_2S6_A_602


 32 35  0  0  0  0  0  0  0  0999 V2000
  -11.0114   21.5482   -9.6335 N   0  0  0  0  0  0  0  0  0  0  0  0
  -11.2546   20.1577   -9.2656 C   0  0  0  0  0  0  0  0  0  0  0  0
  -10.3407   19.1822   -9.9793 C   0  0  0  0  0  0  0  0  0  0  0  0
  -11.4562   21.5741  -11.0986 C   0  0  0  0  0  0  0  0  0  0  0  0
  -10.5134   20.7251  -12.0201 C   0  0  0  0  0  0  0  0  0  0  0  0
  -10.6235   19.2426  -11.4719 C   0  0  0  0  0  0  0  0  0  0  0  0
   -9.8328   18.1659  -12.2888 C   0  0  0  0  0  0  0  0  0  0  0  0
  -10.0040   18.4848  -13.6551 O   0  0  0  0  0  0  0  0  0  0  0  0
   -9.6131   19.3540  -13.8357 H   0  0  0  0  0  0  0  0  0  0  0  0
   -8.4338   18.1335  -11.9666 C   0  0  0  0  0  0  0  0  0  0  0  0
   -7.9693   17.4106  -10.8699 C   0  0  0  0  0  0  0  0  0  0  0  0
   -6.6143   17.3898  -10.5323 C   0  0  0  0  0  0  0  0  0  0  0  0
   -5.6993   18.0707  -11.3513 C   0  0  0  0  0  0  0  0  0  0  0  0
   -6.1244   18.7912  -12.4390 C   0  0  0  0  0  0  0  0  0  0  0  0
   -7.4694   18.7824  -12.7601 C   0  0  0  0  0  0  0  0  0  0  0  0
  -10.4621   16.7753  -12.0166 C   0  0  0  0  0  0  0  0  0  0  0  0
  -10.1104   15.6184  -13.0006 C   0  0  0  0  0  0  0  0  0  0  0  0
  -11.0380   14.5214  -12.4210 C   0  0  0  0  0  0  0  0  0  0  0  0
  -12.3144   15.2838  -11.8805 C   0  0  0  0  0  0  0  0  0  0  0  0
  -12.0658   16.7478  -12.0249 C   0  0  0  0  0  0  0  0  0  0  0  0
  -11.9225   22.4868   -8.8796 C   0  0  0  0  0  0  0  0  0  0  0  0
  -11.1950   23.6678   -8.2998 C   0  0  0  0  0  0  0  0  0  0  0  0
  -11.3867   24.7875   -9.3639 C   0  0  0  0  0  0  0  0  0  0  0  0
  -10.0730   25.1949   -9.7766 O   0  0  0  0  0  0  0  0  0  0  0  0
  -10.0339   24.7756  -12.1089 C   0  0  0  0  0  0  0  0  0  0  0  0
   -9.4861   24.1819  -13.2332 C   0  0  0  0  0  0  0  0  0  0  0  0
   -8.3241   23.4446  -13.1362 C   0  0  0  0  0  0  0  0  0  0  0  0
   -7.7219   23.3197  -11.8891 C   0  0  0  0  0  0  0  0  0  0  0  0
   -8.2761   23.8917  -10.7374 C   0  0  0  0  0  0  0  0  0  0  0  0
   -9.4530   24.6126  -10.8484 C   0  0  0  0  0  0  0  0  0  0  0  0
   -7.7704   22.8306  -14.2901 C   0  0  0  0  0  0  0  0  0  0  0  0
   -7.2898   22.3410  -15.2051 N   0  0  0  0  0  0  0  0  0  0  0  0
 32 31  3  0  0  0
 31 27  1  0  0  0
 27 26  2  0  0  0
 27 28  1  0  0  0
 26 25  1  0  0  0
 28 29  2  0  0  0
 14 13  2  0  0  0
 14 15  1  0  0  0
 13 12  1  0  0  0
 25 30  2  0  0  0
 29 30  1  0  0  0
 30 24  1  0  0  0
  2  3  1  0  0  0
  2  1  1  0  0  0
 24 23  1  0  0  0
 15 10  2  0  0  0
 12 11  2  0  0  0
 21  1  1  0  0  0
 21 22  1  0  0  0
 23 22  1  0  0  0
  3  6  1  0  0  0
  1  4  1  0  0  0
 10 11  1  0  0  0
 10  7  1  0  0  0
  6  7  1  0  0  0
  6  5  1  0  0  0
  4  5  1  0  0  0
  7  8  1  0  0  0
  7 16  1  0  0  0
 17 16  1  0  0  0
 17 18  1  0  0  0
 16 20  1  0  0  0
 20 19  1  0  0  0
 18 19  1  0  0  0
  8  9  1  0  0  0
M  END
> <minimizedAffinity>
-5.97415

$$$$
4OG3_2S6_A_602


 32 35  0  0  0  0  0  0  0  0999 V2000
  -11.6969   12.5699  -10.7407 N   0  0  0  0  0  0  0  0  0  0  0  0
  -11.3033   11.8025   -9.5641 C   0  0  0  0  0  0  0  0  0  0  0  0
  -11.7109   10.3449   -9.6378 C   0  0  0  0  0  0  0  0  0  0  0  0
  -13.2240   12.5700  -10.6267 C   0  0  0  0  0  0  0  0  0  0  0  0
  -13.8346   11.1406  -10.8344 C   0  0  0  0  0  0  0  0  0  0  0  0
  -13.2284   10.2575   -9.6669 C   0  0  0  0  0  0  0  0  0  0  0  0
  -13.7583    8.7858   -9.5961 C   0  0  0  0  0  0  0  0  0  0  0  0
  -12.6320    7.9570   -9.3904 O   0  0  0  0  0  0  0  0  0  0  0  0
  -12.2208    8.1756   -8.5395 H   0  0  0  0  0  0  0  0  0  0  0  0
  -14.7123    8.5835   -8.5420 C   0  0  0  0  0  0  0  0  0  0  0  0
  -15.5309    9.6245   -8.1091 C   0  0  0  0  0  0  0  0  0  0  0  0
  -16.4463    9.4470   -7.0694 C   0  0  0  0  0  0  0  0  0  0  0  0
  -16.5769    8.1754   -6.4885 C   0  0  0  0  0  0  0  0  0  0  0  0
  -15.7864    7.1291   -6.8926 C   0  0  0  0  0  0  0  0  0  0  0  0
  -14.8991    7.3277   -7.9346 C   0  0  0  0  0  0  0  0  0  0  0  0
  -14.4037    8.4244  -10.9588 C   0  0  0  0  0  0  0  0  0  0  0  0
  -15.8897    7.9530  -10.9516 C   0  0  0  0  0  0  0  0  0  0  0  0
  -16.0343    7.5961  -12.4521 C   0  0  0  0  0  0  0  0  0  0  0  0
  -14.6143    7.0645  -12.9031 C   0  0  0  0  0  0  0  0  0  0  0  0
  -13.6777    7.2358  -11.7543 C   0  0  0  0  0  0  0  0  0  0  0  0
  -11.2472   14.0076  -10.6386 C   0  0  0  0  0  0  0  0  0  0  0  0
  -11.0889   14.6674  -11.9801 C   0  0  0  0  0  0  0  0  0  0  0  0
   -9.9422   15.6969  -11.7602 C   0  0  0  0  0  0  0  0  0  0  0  0
   -9.6515   16.2721  -13.0434 O   0  0  0  0  0  0  0  0  0  0  0  0
  -10.1033   18.5290  -13.6085 C   0  0  0  0  0  0  0  0  0  0  0  0
   -9.7103   19.8441  -13.7892 C   0  0  0  0  0  0  0  0  0  0  0  0
   -8.4217   20.2343  -13.4885 C   0  0  0  0  0  0  0  0  0  0  0  0
   -7.5381   19.2785  -12.9990 C   0  0  0  0  0  0  0  0  0  0  0  0
   -7.9113   17.9390  -12.8346 C   0  0  0  0  0  0  0  0  0  0  0  0
   -9.2027   17.5596  -13.1591 C   0  0  0  0  0  0  0  0  0  0  0  0
   -8.0205   21.5820  -13.6832 C   0  0  0  0  0  0  0  0  0  0  0  0
   -7.7255   22.6718  -13.8650 N   0  0  0  0  0  0  0  0  0  0  0  0
 32 31  3  0  0  0
 31 27  1  0  0  0
 27 26  2  0  0  0
 27 28  1  0  0  0
 26 25  1  0  0  0
 28 29  2  0  0  0
 14 13  2  0  0  0
 14 15  1  0  0  0
 13 12  1  0  0  0
 25 30  2  0  0  0
 29 30  1  0  0  0
 30 24  1  0  0  0
  2  3  1  0  0  0
  2  1  1  0  0  0
 24 23  1  0  0  0
 15 10  2  0  0  0
 12 11  2  0  0  0
 21  1  1  0  0  0
 21 22  1  0  0  0
 23 22  1  0  0  0
  3  6  1  0  0  0
  1  4  1  0  0  0
 10 11  1  0  0  0
 10  7  1  0  0  0
  6  7  1  0  0  0
  6  5  1  0  0  0
  4  5  1  0  0  0
  7  8  1  0  0  0
  7 16  1  0  0  0
 17 16  1  0  0  0
 17 18  1  0  0  0
 16 20  1  0  0  0
 20 19  1  0  0  0
 18 19  1  0  0  0
  8  9  1  0  0  0
M  END
> <minimizedAffinity>
-5.96122

$$$$
