2VW1_DAN_A_1000


 26 26  0  0  0  0  0  0  0  0999 V2000
   -3.3572   76.3233   24.5149 C   0  0  0  0  0  0  0  0  0  0  0  0
   -3.1328   75.1295   23.9359 C   0  0  0  0  0  0  0  0  0  0  0  0
   -3.9008   74.6453   22.7011 C   0  0  0  0  0  0  0  0  0  0  0  0
   -4.5978   75.7798   21.9367 C   0  0  0  0  0  0  0  0  0  0  0  0
   -5.2676   76.6665   22.9997 C   0  0  0  0  0  0  0  0  0  0  0  0
   -3.1577   73.6629   21.9240 O   0  0  0  0  0  0  0  0  0  0  0  0
   -4.3350   77.2254   23.9339 O   0  0  0  0  0  0  0  0  0  0  0  0
   -2.3598   74.0761   21.5587 H   0  0  0  0  0  0  0  0  0  0  0  0
   -5.7923   75.5477   19.7243 C   0  0  0  0  0  0  0  0  0  0  0  0
   -6.8814   74.8052   19.0117 C   0  0  0  0  0  0  0  0  0  0  0  0
   -5.6304   75.2557   21.0350 N   0  0  0  0  0  0  0  0  0  0  0  0
   -5.1091   76.3336   19.0829 O   0  0  0  0  0  0  0  0  0  0  0  0
   -6.2751   74.6230   21.4266 H   0  0  0  0  0  0  0  0  0  0  0  0
   -2.6830   76.7982   25.7355 C   0  0  0  0  0  0  0  0  0  0  0  0
   -1.4425   76.8041   25.9241 O   0  0  0  0  0  0  0  0  0  0  0  0
   -3.4133   77.2010   26.6607 O   0  0  0  0  0  0  0  0  0  0  0  0
   -4.3440   77.2099   26.5530 H   0  0  0  0  0  0  0  0  0  0  0  0
   -6.0114   77.8264   22.3601 C   0  0  0  0  0  0  0  0  0  0  0  0
   -5.1583   78.4594   21.4010 O   0  0  0  0  0  0  0  0  0  0  0  0
   -4.3894   78.8400   21.8536 H   0  0  0  0  0  0  0  0  0  0  0  0
   -6.5813   78.8596   23.3224 C   0  0  0  0  0  0  0  0  0  0  0  0
   -7.9474   79.0361   22.9109 O   0  0  0  0  0  0  0  0  0  0  0  0
   -7.9704   79.3625   21.9978 H   0  0  0  0  0  0  0  0  0  0  0  0
   -5.8867   80.2263   23.3000 C   0  0  0  0  0  0  0  0  0  0  0  0
   -4.5301   80.1819   23.7638 O   0  0  0  0  0  0  0  0  0  0  0  0
   -4.5139   79.8889   24.6884 H   0  0  0  0  0  0  0  0  0  0  0  0
 14  1  1  0  0  0
 14 15  2  0  0  0
 14 16  1  0  0  0
  1  2  2  0  0  0
  1  7  1  0  0  0
  2  3  1  0  0  0
  3  4  1  0  0  0
  3  6  1  0  0  0
  4  5  1  0  0  0
  4 11  1  0  0  0
  5 18  1  0  0  0
  5  7  1  0  0  0
 18 21  1  0  0  0
 18 19  1  0  0  0
 21 24  1  0  0  0
 21 22  1  0  0  0
 24 25  1  0  0  0
  9 10  1  0  0  0
  9 11  1  0  0  0
  9 12  2  0  0  0
 11 13  1  0  0  0
 16 17  1  0  0  0
  6  8  1  0  0  0
 19 20  1  0  0  0
 22 23  1  0  0  0
 25 26  1  0  0  0
M  END
> <minimizedAffinity>
-8.20881

$$$$
2VW1_DAN_A_1000


 26 26  0  0  0  0  0  0  0  0999 V2000
   -4.7303   75.6391   23.3304 C   0  0  0  0  0  0  0  0  0  0  0  0
   -5.9674   76.1215   23.1124 C   0  0  0  0  0  0  0  0  0  0  0  0
   -6.3374   77.5932   23.3276 C   0  0  0  0  0  0  0  0  0  0  0  0
   -5.1180   78.5252   23.3706 C   0  0  0  0  0  0  0  0  0  0  0  0
   -4.0723   77.8248   24.2540 C   0  0  0  0  0  0  0  0  0  0  0  0
   -7.4798   78.0106   22.5267 O   0  0  0  0  0  0  0  0  0  0  0  0
   -3.6745   76.5446   23.7463 O   0  0  0  0  0  0  0  0  0  0  0  0
   -7.2506   77.9599   21.5855 H   0  0  0  0  0  0  0  0  0  0  0  0
   -6.0533   80.8705   23.3635 C   0  0  0  0  0  0  0  0  0  0  0  0
   -6.3684   82.0479   24.2351 C   0  0  0  0  0  0  0  0  0  0  0  0
   -5.4603   79.8189   23.9733 N   0  0  0  0  0  0  0  0  0  0  0  0
   -6.3735   80.9185   22.1841 O   0  0  0  0  0  0  0  0  0  0  0  0
   -5.2337   79.9337   24.9245 H   0  0  0  0  0  0  0  0  0  0  0  0
   -4.3512   74.2223   23.1926 C   0  0  0  0  0  0  0  0  0  0  0  0
   -3.4068   73.7887   22.4893 O   0  0  0  0  0  0  0  0  0  0  0  0
   -5.0466   73.3917   23.8076 O   0  0  0  0  0  0  0  0  0  0  0  0
   -5.7596   73.6816   24.3418 H   0  0  0  0  0  0  0  0  0  0  0  0
   -2.8136   78.6646   24.3886 C   0  0  0  0  0  0  0  0  0  0  0  0
   -2.7314   79.5679   23.2814 O   0  0  0  0  0  0  0  0  0  0  0  0
   -2.6402   79.0629   22.4583 H   0  0  0  0  0  0  0  0  0  0  0  0
   -1.5115   77.8889   24.5343 C   0  0  0  0  0  0  0  0  0  0  0  0
   -1.5868   77.2784   25.8337 O   0  0  0  0  0  0  0  0  0  0  0  0
   -1.6572   77.9687   26.5116 H   0  0  0  0  0  0  0  0  0  0  0  0
   -0.2354   78.7361   24.4688 C   0  0  0  0  0  0  0  0  0  0  0  0
    0.9395   77.9712   24.1653 O   0  0  0  0  0  0  0  0  0  0  0  0
    1.0889   77.3165   24.8653 H   0  0  0  0  0  0  0  0  0  0  0  0
 14  1  1  0  0  0
 14 15  2  0  0  0
 14 16  1  0  0  0
  1  2  2  0  0  0
  1  7  1  0  0  0
  2  3  1  0  0  0
  3  4  1  0  0  0
  3  6  1  0  0  0
  4  5  1  0  0  0
  4 11  1  0  0  0
  5 18  1  0  0  0
  5  7  1  0  0  0
 18 21  1  0  0  0
 18 19  1  0  0  0
 21 24  1  0  0  0
 21 22  1  0  0  0
 24 25  1  0  0  0
  9 10  1  0  0  0
  9 11  1  0  0  0
  9 12  2  0  0  0
 11 13  1  0  0  0
 16 17  1  0  0  0
  6  8  1  0  0  0
 19 20  1  0  0  0
 22 23  1  0  0  0
 25 26  1  0  0  0
M  END
> <minimizedAffinity>
-7.42336

$$$$
2VW1_DAN_A_1000


 26 26  0  0  0  0  0  0  0  0999 V2000
   -6.4421   75.9558   21.1749 C   0  0  0  0  0  0  0  0  0  0  0  0
   -5.5346   75.0333   21.5442 C   0  0  0  0  0  0  0  0  0  0  0  0
   -4.3978   75.3307   22.5282 C   0  0  0  0  0  0  0  0  0  0  0  0
   -4.6420   76.5877   23.3753 C   0  0  0  0  0  0  0  0  0  0  0  0
   -5.1662   77.6626   22.4087 C   0  0  0  0  0  0  0  0  0  0  0  0
   -3.9164   74.1379   23.2110 O   0  0  0  0  0  0  0  0  0  0  0  0
   -6.3853   77.2850   21.7560 O   0  0  0  0  0  0  0  0  0  0  0  0
   -4.6232   73.7772   23.7689 H   0  0  0  0  0  0  0  0  0  0  0  0
   -3.1951   77.3780   25.2878 C   0  0  0  0  0  0  0  0  0  0  0  0
   -1.7970   77.7617   25.6662 C   0  0  0  0  0  0  0  0  0  0  0  0
   -3.3963   77.0650   23.9874 N   0  0  0  0  0  0  0  0  0  0  0  0
   -4.0455   77.3414   26.1660 O   0  0  0  0  0  0  0  0  0  0  0  0
   -2.6235   77.1685   23.3864 H   0  0  0  0  0  0  0  0  0  0  0  0
   -7.5113   75.7257   20.1881 C   0  0  0  0  0  0  0  0  0  0  0  0
   -7.5215   74.8115   19.3286 O   0  0  0  0  0  0  0  0  0  0  0  0
   -8.4671   76.5245   20.1981 O   0  0  0  0  0  0  0  0  0  0  0  0
   -8.4909   77.2189   20.8268 H   0  0  0  0  0  0  0  0  0  0  0  0
   -5.4319   78.9717   23.1323 C   0  0  0  0  0  0  0  0  0  0  0  0
   -6.8385   79.1044   23.3611 O   0  0  0  0  0  0  0  0  0  0  0  0
   -7.3006   79.1602   22.5101 H   0  0  0  0  0  0  0  0  0  0  0  0
   -4.8864   80.2237   22.4592 C   0  0  0  0  0  0  0  0  0  0  0  0
   -4.5926   79.8218   21.1106 O   0  0  0  0  0  0  0  0  0  0  0  0
   -3.9275   79.1158   21.1212 H   0  0  0  0  0  0  0  0  0  0  0  0
   -3.6095   80.7979   23.0842 C   0  0  0  0  0  0  0  0  0  0  0  0
   -2.4805   79.9194   22.9787 O   0  0  0  0  0  0  0  0  0  0  0  0
   -2.6656   79.0962   23.4573 H   0  0  0  0  0  0  0  0  0  0  0  0
 14  1  1  0  0  0
 14 15  2  0  0  0
 14 16  1  0  0  0
  1  2  2  0  0  0
  1  7  1  0  0  0
  2  3  1  0  0  0
  3  4  1  0  0  0
  3  6  1  0  0  0
  4  5  1  0  0  0
  4 11  1  0  0  0
  5 18  1  0  0  0
  5  7  1  0  0  0
 18 21  1  0  0  0
 18 19  1  0  0  0
 21 24  1  0  0  0
 21 22  1  0  0  0
 24 25  1  0  0  0
  9 10  1  0  0  0
  9 11  1  0  0  0
  9 12  2  0  0  0
 11 13  1  0  0  0
 16 17  1  0  0  0
  6  8  1  0  0  0
 19 20  1  0  0  0
 22 23  1  0  0  0
 25 26  1  0  0  0
M  END
> <minimizedAffinity>
-7.37623

$$$$
2VW1_DAN_A_1000


 26 26  0  0  0  0  0  0  0  0999 V2000
   -5.9622   79.7886   24.7563 C   0  0  0  0  0  0  0  0  0  0  0  0
   -6.6027   79.3430   23.6600 C   0  0  0  0  0  0  0  0  0  0  0  0
   -6.1401   78.1163   22.8662 C   0  0  0  0  0  0  0  0  0  0  0  0
   -5.1916   77.2041   23.6572 C   0  0  0  0  0  0  0  0  0  0  0  0
   -4.1842   78.1330   24.3550 C   0  0  0  0  0  0  0  0  0  0  0  0
   -7.2215   77.4852   22.1223 O   0  0  0  0  0  0  0  0  0  0  0  0
   -4.8054   79.0640   25.2507 O   0  0  0  0  0  0  0  0  0  0  0  0
   -7.8774   77.1312   22.7431 H   0  0  0  0  0  0  0  0  0  0  0  0
   -4.3375   74.9550   22.8908 C   0  0  0  0  0  0  0  0  0  0  0  0
   -3.6055   74.2527   21.7879 C   0  0  0  0  0  0  0  0  0  0  0  0
   -4.4620   76.2959   22.7644 N   0  0  0  0  0  0  0  0  0  0  0  0
   -4.7959   74.2828   23.8038 O   0  0  0  0  0  0  0  0  0  0  0  0
   -4.0149   76.7072   21.9898 H   0  0  0  0  0  0  0  0  0  0  0  0
   -6.3402   80.9964   25.5101 C   0  0  0  0  0  0  0  0  0  0  0  0
   -6.7047   81.0185   26.7106 O   0  0  0  0  0  0  0  0  0  0  0  0
   -6.3183   82.0764   24.8896 O   0  0  0  0  0  0  0  0  0  0  0  0
   -6.0512   82.0955   23.9917 H   0  0  0  0  0  0  0  0  0  0  0  0
   -3.1723   77.3395   25.1639 C   0  0  0  0  0  0  0  0  0  0  0  0
   -3.4263   77.5385   26.5583 O   0  0  0  0  0  0  0  0  0  0  0  0
   -3.2882   78.4721   26.7821 H   0  0  0  0  0  0  0  0  0  0  0  0
   -1.7085   77.6167   24.8495 C   0  0  0  0  0  0  0  0  0  0  0  0
   -1.0353   77.5373   26.1173 O   0  0  0  0  0  0  0  0  0  0  0  0
   -1.3948   78.2097   26.7169 H   0  0  0  0  0  0  0  0  0  0  0  0
   -1.4216   78.9905   24.2323 C   0  0  0  0  0  0  0  0  0  0  0  0
   -0.4469   78.9485   23.1806 O   0  0  0  0  0  0  0  0  0  0  0  0
    0.3988   78.6332   23.5360 H   0  0  0  0  0  0  0  0  0  0  0  0
 14  1  1  0  0  0
 14 15  2  0  0  0
 14 16  1  0  0  0
  1  2  2  0  0  0
  1  7  1  0  0  0
  2  3  1  0  0  0
  3  4  1  0  0  0
  3  6  1  0  0  0
  4  5  1  0  0  0
  4 11  1  0  0  0
  5 18  1  0  0  0
  5  7  1  0  0  0
 18 21  1  0  0  0
 18 19  1  0  0  0
 21 24  1  0  0  0
 21 22  1  0  0  0
 24 25  1  0  0  0
  9 10  1  0  0  0
  9 11  1  0  0  0
  9 12  2  0  0  0
 11 13  1  0  0  0
 16 17  1  0  0  0
  6  8  1  0  0  0
 19 20  1  0  0  0
 22 23  1  0  0  0
 25 26  1  0  0  0
M  END
> <minimizedAffinity>
-7.03340

$$$$
2VW1_DAN_A_1000


 26 26  0  0  0  0  0  0  0  0999 V2000
   -2.3783   78.2762   24.8697 C   0  0  0  0  0  0  0  0  0  0  0  0
   -3.1865   79.0670   24.1403 C   0  0  0  0  0  0  0  0  0  0  0  0
   -2.6634   80.2108   23.2644 C   0  0  0  0  0  0  0  0  0  0  0  0
   -1.1667   80.0931   22.9429 C   0  0  0  0  0  0  0  0  0  0  0  0
   -0.4724   79.7116   24.2608 C   0  0  0  0  0  0  0  0  0  0  0  0
   -3.5662   80.5420   22.1707 O   0  0  0  0  0  0  0  0  0  0  0  0
   -0.9410   78.4706   24.8041 O   0  0  0  0  0  0  0  0  0  0  0  0
   -3.6279   79.7885   21.5630 H   0  0  0  0  0  0  0  0  0  0  0  0
   -0.3685   81.7276   21.1917 C   0  0  0  0  0  0  0  0  0  0  0  0
    0.1077   83.1322   20.9782 C   0  0  0  0  0  0  0  0  0  0  0  0
   -0.6232   81.3724   22.4717 N   0  0  0  0  0  0  0  0  0  0  0  0
   -0.5250   81.0120   20.2124 O   0  0  0  0  0  0  0  0  0  0  0  0
   -0.4222   82.0449   23.1621 H   0  0  0  0  0  0  0  0  0  0  0  0
   -2.8466   77.2071   25.7684 C   0  0  0  0  0  0  0  0  0  0  0  0
   -2.2365   76.1357   26.0018 O   0  0  0  0  0  0  0  0  0  0  0  0
   -3.9519   77.3777   26.3170 O   0  0  0  0  0  0  0  0  0  0  0  0
   -4.4340   78.1665   26.1643 H   0  0  0  0  0  0  0  0  0  0  0  0
    1.0295   79.5807   24.0743 C   0  0  0  0  0  0  0  0  0  0  0  0
    1.5866   80.8760   23.8285 O   0  0  0  0  0  0  0  0  0  0  0  0
    1.2341   81.2269   22.9957 H   0  0  0  0  0  0  0  0  0  0  0  0
    1.4812   78.5999   23.0009 C   0  0  0  0  0  0  0  0  0  0  0  0
    1.9095   77.4322   23.7219 O   0  0  0  0  0  0  0  0  0  0  0  0
    2.6449   77.6666   24.3094 H   0  0  0  0  0  0  0  0  0  0  0  0
    2.6420   79.0814   22.1226 C   0  0  0  0  0  0  0  0  0  0  0  0
    2.2765   80.1429   21.2297 O   0  0  0  0  0  0  0  0  0  0  0  0
    1.5910   79.8301   20.6189 H   0  0  0  0  0  0  0  0  0  0  0  0
 14  1  1  0  0  0
 14 15  2  0  0  0
 14 16  1  0  0  0
  1  2  2  0  0  0
  1  7  1  0  0  0
  2  3  1  0  0  0
  3  4  1  0  0  0
  3  6  1  0  0  0
  4  5  1  0  0  0
  4 11  1  0  0  0
  5 18  1  0  0  0
  5  7  1  0  0  0
 18 21  1  0  0  0
 18 19  1  0  0  0
 21 24  1  0  0  0
 21 22  1  0  0  0
 24 25  1  0  0  0
  9 10  1  0  0  0
  9 11  1  0  0  0
  9 12  2  0  0  0
 11 13  1  0  0  0
 16 17  1  0  0  0
  6  8  1  0  0  0
 19 20  1  0  0  0
 22 23  1  0  0  0
 25 26  1  0  0  0
M  END
> <minimizedAffinity>
-7.02817

$$$$
2VW1_DAN_A_1000


 26 26  0  0  0  0  0  0  0  0999 V2000
   -5.7018   75.5890   20.4400 C   0  0  0  0  0  0  0  0  0  0  0  0
   -4.7157   74.8522   20.9835 C   0  0  0  0  0  0  0  0  0  0  0  0
   -4.1942   75.0789   22.4067 C   0  0  0  0  0  0  0  0  0  0  0  0
   -5.1627   75.8818   23.2870 C   0  0  0  0  0  0  0  0  0  0  0  0
   -5.6622   77.0504   22.4214 C   0  0  0  0  0  0  0  0  0  0  0  0
   -3.5879   73.8862   22.9819 O   0  0  0  0  0  0  0  0  0  0  0  0
   -6.3430   76.6205   21.2355 O   0  0  0  0  0  0  0  0  0  0  0  0
   -4.2633   73.1977   23.0848 H   0  0  0  0  0  0  0  0  0  0  0  0
   -3.1565   76.6587   24.6088 C   0  0  0  0  0  0  0  0  0  0  0  0
   -2.7316   77.2968   25.8962 C   0  0  0  0  0  0  0  0  0  0  0  0
   -4.4809   76.4225   24.4689 N   0  0  0  0  0  0  0  0  0  0  0  0
   -2.3012   76.4238   23.7667 O   0  0  0  0  0  0  0  0  0  0  0  0
   -5.0492   76.6365   25.2438 H   0  0  0  0  0  0  0  0  0  0  0  0
   -6.1887   75.4412   19.0576 C   0  0  0  0  0  0  0  0  0  0  0  0
   -7.1295   74.6941   18.6952 O   0  0  0  0  0  0  0  0  0  0  0  0
   -5.5951   76.0955   18.1794 O   0  0  0  0  0  0  0  0  0  0  0  0
   -4.8879   76.6631   18.4156 H   0  0  0  0  0  0  0  0  0  0  0  0
   -6.6243   77.9363   23.1944 C   0  0  0  0  0  0  0  0  0  0  0  0
   -7.7779   78.1929   22.3870 O   0  0  0  0  0  0  0  0  0  0  0  0
   -7.5156   78.6922   21.5978 H   0  0  0  0  0  0  0  0  0  0  0  0
   -6.0460   79.2436   23.7187 C   0  0  0  0  0  0  0  0  0  0  0  0
   -6.0527   79.1048   25.1496 O   0  0  0  0  0  0  0  0  0  0  0  0
   -6.9638   78.9800   25.4581 H   0  0  0  0  0  0  0  0  0  0  0  0
   -6.8380   80.5033   23.3491 C   0  0  0  0  0  0  0  0  0  0  0  0
   -6.5741   80.9704   22.0188 O   0  0  0  0  0  0  0  0  0  0  0  0
   -5.6377   81.2108   21.9403 H   0  0  0  0  0  0  0  0  0  0  0  0
 14  1  1  0  0  0
 14 15  2  0  0  0
 14 16  1  0  0  0
  1  2  2  0  0  0
  1  7  1  0  0  0
  2  3  1  0  0  0
  3  4  1  0  0  0
  3  6  1  0  0  0
  4  5  1  0  0  0
  4 11  1  0  0  0
  5 18  1  0  0  0
  5  7  1  0  0  0
 18 21  1  0  0  0
 18 19  1  0  0  0
 21 24  1  0  0  0
 21 22  1  0  0  0
 24 25  1  0  0  0
  9 10  1  0  0  0
  9 11  1  0  0  0
  9 12  2  0  0  0
 11 13  1  0  0  0
 16 17  1  0  0  0
  6  8  1  0  0  0
 19 20  1  0  0  0
 22 23  1  0  0  0
 25 26  1  0  0  0
M  END
> <minimizedAffinity>
-6.99541

$$$$
2VW1_DAN_A_1000


 26 26  0  0  0  0  0  0  0  0999 V2000
   -0.3542   78.8368   23.9037 C   0  0  0  0  0  0  0  0  0  0  0  0
   -1.0520   79.8927   23.4465 C   0  0  0  0  0  0  0  0  0  0  0  0
   -2.5820   79.9048   23.3580 C   0  0  0  0  0  0  0  0  0  0  0  0
   -3.2485   78.8292   24.2278 C   0  0  0  0  0  0  0  0  0  0  0  0
   -2.4435   77.5378   24.0068 C   0  0  0  0  0  0  0  0  0  0  0  0
   -3.1389   81.2497   23.4004 O   0  0  0  0  0  0  0  0  0  0  0  0
   -1.0652   77.6640   24.3797 O   0  0  0  0  0  0  0  0  0  0  0  0
   -2.9491   81.6512   24.2628 H   0  0  0  0  0  0  0  0  0  0  0  0
   -5.7095   79.3778   24.0937 C   0  0  0  0  0  0  0  0  0  0  0  0
   -7.0088   78.9576   23.4768 C   0  0  0  0  0  0  0  0  0  0  0  0
   -4.6383   78.6001   23.8157 N   0  0  0  0  0  0  0  0  0  0  0  0
   -5.6904   80.3955   24.7716 O   0  0  0  0  0  0  0  0  0  0  0  0
   -4.8095   77.7928   23.2788 H   0  0  0  0  0  0  0  0  0  0  0  0
    1.1164   78.7647   23.9480 C   0  0  0  0  0  0  0  0  0  0  0  0
    1.8933   79.7488   23.8968 O   0  0  0  0  0  0  0  0  0  0  0  0
    1.6219   77.6283   24.0156 O   0  0  0  0  0  0  0  0  0  0  0  0
    1.0704   76.8718   24.0552 H   0  0  0  0  0  0  0  0  0  0  0  0
   -3.0214   76.3846   24.8092 C   0  0  0  0  0  0  0  0  0  0  0  0
   -2.2125   76.1686   25.9700 O   0  0  0  0  0  0  0  0  0  0  0  0
   -1.3220   75.8971   25.6976 H   0  0  0  0  0  0  0  0  0  0  0  0
   -3.2133   75.0790   24.0497 C   0  0  0  0  0  0  0  0  0  0  0  0
   -2.0123   74.9201   23.2758 O   0  0  0  0  0  0  0  0  0  0  0  0
   -1.9206   75.6672   22.6640 H   0  0  0  0  0  0  0  0  0  0  0  0
   -4.4134   75.0483   23.0959 C   0  0  0  0  0  0  0  0  0  0  0  0
   -5.3511   74.0050   23.3960 O   0  0  0  0  0  0  0  0  0  0  0  0
   -4.9156   73.1430   23.3056 H   0  0  0  0  0  0  0  0  0  0  0  0
 14  1  1  0  0  0
 14 15  2  0  0  0
 14 16  1  0  0  0
  1  2  2  0  0  0
  1  7  1  0  0  0
  2  3  1  0  0  0
  3  4  1  0  0  0
  3  6  1  0  0  0
  4  5  1  0  0  0
  4 11  1  0  0  0
  5 18  1  0  0  0
  5  7  1  0  0  0
 18 21  1  0  0  0
 18 19  1  0  0  0
 21 24  1  0  0  0
 21 22  1  0  0  0
 24 25  1  0  0  0
  9 10  1  0  0  0
  9 11  1  0  0  0
  9 12  2  0  0  0
 11 13  1  0  0  0
 16 17  1  0  0  0
  6  8  1  0  0  0
 19 20  1  0  0  0
 22 23  1  0  0  0
 25 26  1  0  0  0
M  END
> <minimizedAffinity>
-6.77978

$$$$
2VW1_DAN_A_1000


 26 26  0  0  0  0  0  0  0  0999 V2000
   -1.9525   78.7480   24.2003 C   0  0  0  0  0  0  0  0  0  0  0  0
   -2.1101   80.0196   23.7890 C   0  0  0  0  0  0  0  0  0  0  0  0
   -3.4664   80.5974   23.3701 C   0  0  0  0  0  0  0  0  0  0  0  0
   -4.6592   79.7727   23.8748 C   0  0  0  0  0  0  0  0  0  0  0  0
   -4.3025   78.2991   23.6179 C   0  0  0  0  0  0  0  0  0  0  0  0
   -3.5333   82.0445   23.5190 O   0  0  0  0  0  0  0  0  0  0  0  0
   -3.1131   77.8816   24.3004 O   0  0  0  0  0  0  0  0  0  0  0  0
   -3.4575   82.2768   24.4577 H   0  0  0  0  0  0  0  0  0  0  0  0
   -6.9276   80.8401   23.5743 C   0  0  0  0  0  0  0  0  0  0  0  0
   -8.0198   81.0966   22.5811 C   0  0  0  0  0  0  0  0  0  0  0  0
   -5.8829   80.1021   23.1345 N   0  0  0  0  0  0  0  0  0  0  0  0
   -7.0301   81.3301   24.6901 O   0  0  0  0  0  0  0  0  0  0  0  0
   -5.9507   79.7475   22.2186 H   0  0  0  0  0  0  0  0  0  0  0  0
   -0.6582   78.1399   24.5534 C   0  0  0  0  0  0  0  0  0  0  0  0
    0.2598   77.8649   23.7433 O   0  0  0  0  0  0  0  0  0  0  0  0
   -0.4793   77.8549   25.7528 O   0  0  0  0  0  0  0  0  0  0  0  0
   -1.1445   78.0467   26.3842 H   0  0  0  0  0  0  0  0  0  0  0  0
   -5.4231   77.3754   24.0641 C   0  0  0  0  0  0  0  0  0  0  0  0
   -5.1802   76.9598   25.4119 O   0  0  0  0  0  0  0  0  0  0  0  0
   -4.3623   76.4395   25.4474 H   0  0  0  0  0  0  0  0  0  0  0  0
   -5.6773   76.1648   23.1764 C   0  0  0  0  0  0  0  0  0  0  0  0
   -6.9681   75.6752   23.5775 O   0  0  0  0  0  0  0  0  0  0  0  0
   -6.9407   75.4199   24.5129 H   0  0  0  0  0  0  0  0  0  0  0  0
   -4.6604   75.0261   23.3175 C   0  0  0  0  0  0  0  0  0  0  0  0
   -5.2558   73.7758   23.6916 O   0  0  0  0  0  0  0  0  0  0  0  0
   -5.6784   73.8659   24.5600 H   0  0  0  0  0  0  0  0  0  0  0  0
 14  1  1  0  0  0
 14 15  2  0  0  0
 14 16  1  0  0  0
  1  2  2  0  0  0
  1  7  1  0  0  0
  2  3  1  0  0  0
  3  4  1  0  0  0
  3  6  1  0  0  0
  4  5  1  0  0  0
  4 11  1  0  0  0
  5 18  1  0  0  0
  5  7  1  0  0  0
 18 21  1  0  0  0
 18 19  1  0  0  0
 21 24  1  0  0  0
 21 22  1  0  0  0
 24 25  1  0  0  0
  9 10  1  0  0  0
  9 11  1  0  0  0
  9 12  2  0  0  0
 11 13  1  0  0  0
 16 17  1  0  0  0
  6  8  1  0  0  0
 19 20  1  0  0  0
 22 23  1  0  0  0
 25 26  1  0  0  0
M  END
> <minimizedAffinity>
-6.66086

$$$$
2VW1_DAN_A_1000


 26 26  0  0  0  0  0  0  0  0999 V2000
   -2.3203   78.3131   24.8777 C   0  0  0  0  0  0  0  0  0  0  0  0
   -1.0335   78.5120   24.5380 C   0  0  0  0  0  0  0  0  0  0  0  0
   -0.5941   79.5762   23.5263 C   0  0  0  0  0  0  0  0  0  0  0  0
   -1.6552   80.6597   23.2861 C   0  0  0  0  0  0  0  0  0  0  0  0
   -2.9971   79.9228   23.1416 C   0  0  0  0  0  0  0  0  0  0  0  0
    0.7819   80.0095   23.7251 O   0  0  0  0  0  0  0  0  0  0  0  0
   -3.3489   79.1625   24.3048 O   0  0  0  0  0  0  0  0  0  0  0  0
    0.8602   80.4536   24.5840 H   0  0  0  0  0  0  0  0  0  0  0  0
   -0.4993   82.4111   21.8819 C   0  0  0  0  0  0  0  0  0  0  0  0
   -0.3587   82.9418   20.4876 C   0  0  0  0  0  0  0  0  0  0  0  0
   -1.3845   81.4022   22.0494 N   0  0  0  0  0  0  0  0  0  0  0  0
    0.2035   82.8913   22.7600 O   0  0  0  0  0  0  0  0  0  0  0  0
   -1.9035   81.1373   21.2558 H   0  0  0  0  0  0  0  0  0  0  0  0
   -2.7869   77.2628   25.7990 C   0  0  0  0  0  0  0  0  0  0  0  0
   -2.1900   76.1840   26.0323 O   0  0  0  0  0  0  0  0  0  0  0  0
   -3.8771   77.4586   26.3691 O   0  0  0  0  0  0  0  0  0  0  0  0
   -4.3491   78.2536   26.2172 H   0  0  0  0  0  0  0  0  0  0  0  0
   -4.1344   80.8957   22.8811 C   0  0  0  0  0  0  0  0  0  0  0  0
   -3.8814   82.1138   23.5887 O   0  0  0  0  0  0  0  0  0  0  0  0
   -3.8801   81.9392   24.5428 H   0  0  0  0  0  0  0  0  0  0  0  0
   -5.5321   80.3819   23.1983 C   0  0  0  0  0  0  0  0  0  0  0  0
   -6.3820   80.9818   22.2060 O   0  0  0  0  0  0  0  0  0  0  0  0
   -6.3408   81.9476   22.2862 H   0  0  0  0  0  0  0  0  0  0  0  0
   -6.0664   80.7559   24.5859 C   0  0  0  0  0  0  0  0  0  0  0  0
   -6.0102   79.6745   25.5267 O   0  0  0  0  0  0  0  0  0  0  0  0
   -6.5668   78.9444   25.2138 H   0  0  0  0  0  0  0  0  0  0  0  0
 14  1  1  0  0  0
 14 15  2  0  0  0
 14 16  1  0  0  0
  1  2  2  0  0  0
  1  7  1  0  0  0
  2  3  1  0  0  0
  3  4  1  0  0  0
  3  6  1  0  0  0
  4  5  1  0  0  0
  4 11  1  0  0  0
  5 18  1  0  0  0
  5  7  1  0  0  0
 18 21  1  0  0  0
 18 19  1  0  0  0
 21 24  1  0  0  0
 21 22  1  0  0  0
 24 25  1  0  0  0
  9 10  1  0  0  0
  9 11  1  0  0  0
  9 12  2  0  0  0
 11 13  1  0  0  0
 16 17  1  0  0  0
  6  8  1  0  0  0
 19 20  1  0  0  0
 22 23  1  0  0  0
 25 26  1  0  0  0
M  END
> <minimizedAffinity>
-6.44096

$$$$
2VW1_DAN_A_1000


 26 26  0  0  0  0  0  0  0  0999 V2000
   -2.3896   78.3197   24.8648 C   0  0  0  0  0  0  0  0  0  0  0  0
   -1.1188   78.4532   24.4430 C   0  0  0  0  0  0  0  0  0  0  0  0
   -0.6885   79.5058   23.4154 C   0  0  0  0  0  0  0  0  0  0  0  0
   -1.7019   80.6483   23.2565 C   0  0  0  0  0  0  0  0  0  0  0  0
   -3.0888   79.9872   23.1933 C   0  0  0  0  0  0  0  0  0  0  0  0
    0.7193   79.8611   23.5275 O   0  0  0  0  0  0  0  0  0  0  0  0
   -3.4052   79.2313   24.3695 O   0  0  0  0  0  0  0  0  0  0  0  0
    0.8777   80.2885   24.3837 H   0  0  0  0  0  0  0  0  0  0  0  0
   -0.5529   82.3612   21.8002 C   0  0  0  0  0  0  0  0  0  0  0  0
   -0.4720   82.9009   20.4046 C   0  0  0  0  0  0  0  0  0  0  0  0
   -1.4721   81.3918   22.0122 N   0  0  0  0  0  0  0  0  0  0  0  0
    0.2228   82.7989   22.6382 O   0  0  0  0  0  0  0  0  0  0  0  0
   -2.0494   81.1599   21.2492 H   0  0  0  0  0  0  0  0  0  0  0  0
   -2.8522   77.2837   25.8042 C   0  0  0  0  0  0  0  0  0  0  0  0
   -3.8963   77.3464   26.4975 O   0  0  0  0  0  0  0  0  0  0  0  0
   -2.1282   76.2784   25.9339 O   0  0  0  0  0  0  0  0  0  0  0  0
   -1.3414   76.1997   25.4313 H   0  0  0  0  0  0  0  0  0  0  0  0
   -4.1855   81.0238   23.0181 C   0  0  0  0  0  0  0  0  0  0  0  0
   -5.0498   80.9899   24.1583 O   0  0  0  0  0  0  0  0  0  0  0  0
   -5.4901   80.1269   24.2048 H   0  0  0  0  0  0  0  0  0  0  0  0
   -4.9994   80.9174   21.7358 C   0  0  0  0  0  0  0  0  0  0  0  0
   -4.2572   80.0142   20.8991 O   0  0  0  0  0  0  0  0  0  0  0  0
   -3.3785   80.3852   20.7225 H   0  0  0  0  0  0  0  0  0  0  0  0
   -5.1956   82.2341   20.9751 C   0  0  0  0  0  0  0  0  0  0  0  0
   -3.9796   82.9741   20.7974 O   0  0  0  0  0  0  0  0  0  0  0  0
   -3.6195   83.2174   21.6645 H   0  0  0  0  0  0  0  0  0  0  0  0
 14  1  1  0  0  0
 14 15  2  0  0  0
 14 16  1  0  0  0
  1  2  2  0  0  0
  1  7  1  0  0  0
  2  3  1  0  0  0
  3  4  1  0  0  0
  3  6  1  0  0  0
  4  5  1  0  0  0
  4 11  1  0  0  0
  5 18  1  0  0  0
  5  7  1  0  0  0
 18 21  1  0  0  0
 18 19  1  0  0  0
 21 24  1  0  0  0
 21 22  1  0  0  0
 24 25  1  0  0  0
  9 10  1  0  0  0
  9 11  1  0  0  0
  9 12  2  0  0  0
 11 13  1  0  0  0
 16 17  1  0  0  0
  6  8  1  0  0  0
 19 20  1  0  0  0
 22 23  1  0  0  0
 25 26  1  0  0  0
M  END
> <minimizedAffinity>
-6.41919

$$$$
