5KMA_777_A_201


 33 35  0  0  0  0  0  0  0  0999 V2000
  -29.4865    4.9152  -27.1020 C   0  0  0  0  0  0  0  0  0  0  0  0
  -29.3852    4.5114  -28.4660 O   0  0  0  0  0  0  0  0  0  0  0  0
  -30.0034    6.3545  -27.0982 C   0  0  0  0  0  0  0  0  0  0  0  0
  -29.1132    7.2164  -26.3564 O   0  0  0  0  0  0  0  0  0  0  0  0
  -30.1237    6.7217  -28.5795 C   0  0  0  0  0  0  0  0  0  0  0  0
  -29.7427    8.0661  -28.9041 O   0  0  0  0  0  0  0  0  0  0  0  0
  -29.2219    5.6905  -29.2395 C   0  0  0  0  0  0  0  0  0  0  0  0
  -28.2244    7.1723  -26.7423 H   0  0  0  0  0  0  0  0  0  0  0  0
  -28.8197    8.2123  -28.6442 H   0  0  0  0  0  0  0  0  0  0  0  0
  -29.6348    5.3865  -30.6155 N   0  0  0  0  0  0  0  0  0  0  0  0
  -28.7664    5.2011  -31.6020 C   0  0  0  0  0  0  0  0  0  0  0  0
  -27.4160    5.2579  -31.6877 N   0  0  0  0  0  0  0  0  0  0  0  0
  -26.8217    5.0192  -32.8835 C   0  0  0  0  0  0  0  0  0  0  0  0
  -25.4689    5.0740  -32.9541 N   0  0  0  0  0  0  0  0  0  0  0  0
  -27.5279    4.7617  -34.0048 N   0  0  0  0  0  0  0  0  0  0  0  0
  -30.8925    5.2213  -31.0670 C   0  0  0  0  0  0  0  0  0  0  0  0
  -30.8777    4.9351  -32.3907 N   0  0  0  0  0  0  0  0  0  0  0  0
  -29.5840    4.9193  -32.7774 C   0  0  0  0  0  0  0  0  0  0  0  0
  -28.8702    4.6852  -34.0357 C   0  0  0  0  0  0  0  0  0  0  0  0
  -29.5289    4.4493  -35.0783 O   0  0  0  0  0  0  0  0  0  0  0  0
  -26.8735    5.4693  -30.8938 H   0  0  0  0  0  0  0  0  0  0  0  0
  -25.0134    4.9046  -33.8103 H   0  0  0  0  0  0  0  0  0  0  0  0
  -24.9420    5.2832  -32.1492 H   0  0  0  0  0  0  0  0  0  0  0  0
  -30.4374    3.9534  -26.4155 C   0  0  0  0  0  0  0  0  0  0  0  0
  -30.1475    4.0031  -25.0194 O   0  0  0  0  0  0  0  0  0  0  0  0
  -31.2937    3.6332  -23.9463 P   0  0  0  0  0  0  0  0  0  0  0  0
  -32.2290    2.5995  -24.5333 O   0  0  0  0  0  0  0  0  0  0  0  0
  -30.5504    3.2955  -22.6829 O   0  0  0  0  0  0  0  0  0  0  0  0
  -30.0684    2.4625  -22.8042 H   0  0  0  0  0  0  0  0  0  0  0  0
  -32.1479    5.1101  -23.7302 N   0  0  0  0  0  0  0  0  0  0  0  0
  -32.7166    5.2531  -24.5648 H   0  0  0  0  0  0  0  0  0  0  0  0
  -31.3847    6.3347  -23.5153 C   0  0  0  0  0  0  0  0  0  0  0  0
  -32.1876    7.5417  -23.9687 C   0  0  0  0  0  0  0  0  0  0  0  0
 20 19  2  0  0  0
 15 19  1  0  0  0
 15 13  2  0  0  0
 19 18  1  0  0  0
 14 13  1  0  0  0
 13 12  1  0  0  0
 18 17  1  0  0  0
 18 11  2  0  0  0
 17 16  2  0  0  0
 12 11  1  0  0  0
 11 10  1  0  0  0
 16 10  1  0  0  0
 10  7  1  0  0  0
  7  5  1  0  0  0
  7  2  1  0  0  0
  6  5  1  0  0  0
  5  3  1  0  0  0
  2  1  1  0  0  0
  3  1  1  0  0  0
  3  4  1  0  0  0
  1 24  1  0  0  0
 24 25  1  0  0  0
 25 26  1  0  0  0
 27 26  2  0  0  0
 32 30  1  0  0  0
 32 33  1  0  0  0
 30 26  1  0  0  0
 26 28  1  0  0  0
 30 31  1  0  0  0
 28 29  1  0  0  0
  4  8  1  0  0  0
  6  9  1  0  0  0
 12 21  1  0  0  0
 14 22  1  0  0  0
 14 23  1  0  0  0
M  END
> <minimizedAffinity>
-9.20281

$$$$
5KMA_777_A_201


 33 35  0  0  0  0  0  0  0  0999 V2000
  -30.1400    8.6592  -27.6304 C   0  0  0  0  0  0  0  0  0  0  0  0
  -29.8127    7.4888  -26.8844 O   0  0  0  0  0  0  0  0  0  0  0  0
  -31.1863    8.2508  -28.6684 C   0  0  0  0  0  0  0  0  0  0  0  0
  -30.7543    8.6082  -29.9991 O   0  0  0  0  0  0  0  0  0  0  0  0
  -31.3623    6.7442  -28.4617 C   0  0  0  0  0  0  0  0  0  0  0  0
  -31.5307    5.9824  -29.6656 O   0  0  0  0  0  0  0  0  0  0  0  0
  -30.0903    6.3723  -27.7161 C   0  0  0  0  0  0  0  0  0  0  0  0
  -29.9018    8.1852  -30.1869 H   0  0  0  0  0  0  0  0  0  0  0  0
  -30.7577    6.1071  -30.2380 H   0  0  0  0  0  0  0  0  0  0  0  0
  -30.2729    5.2006  -26.8500 N   0  0  0  0  0  0  0  0  0  0  0  0
  -30.7427    5.2884  -25.6119 C   0  0  0  0  0  0  0  0  0  0  0  0
  -31.1192    6.3215  -24.8211 N   0  0  0  0  0  0  0  0  0  0  0  0
  -31.5564    6.0624  -23.5634 C   0  0  0  0  0  0  0  0  0  0  0  0
  -31.9352    7.1053  -22.7843 N   0  0  0  0  0  0  0  0  0  0  0  0
  -31.5971    4.8131  -23.0535 N   0  0  0  0  0  0  0  0  0  0  0  0
  -30.0386    3.9132  -27.1674 C   0  0  0  0  0  0  0  0  0  0  0  0
  -30.3392    3.1130  -26.1169 N   0  0  0  0  0  0  0  0  0  0  0  0
  -30.7721    3.9147  -25.1202 C   0  0  0  0  0  0  0  0  0  0  0  0
  -31.2440    3.7163  -23.7471 C   0  0  0  0  0  0  0  0  0  0  0  0
  -31.2778    2.5540  -23.2735 O   0  0  0  0  0  0  0  0  0  0  0  0
  -31.0762    7.2469  -25.1542 H   0  0  0  0  0  0  0  0  0  0  0  0
  -32.2563    6.9439  -21.8677 H   0  0  0  0  0  0  0  0  0  0  0  0
  -31.8893    8.0240  -23.1351 H   0  0  0  0  0  0  0  0  0  0  0  0
  -30.6654    9.6887  -26.6482 C   0  0  0  0  0  0  0  0  0  0  0  0
  -31.4736    8.9906  -25.7023 O   0  0  0  0  0  0  0  0  0  0  0  0
  -33.0642    9.2546  -25.6533 P   0  0  0  0  0  0  0  0  0  0  0  0
  -33.3827   10.5802  -26.3086 O   0  0  0  0  0  0  0  0  0  0  0  0
  -33.6843    8.0059  -26.2179 O   0  0  0  0  0  0  0  0  0  0  0  0
  -33.4877    7.9475  -27.1660 H   0  0  0  0  0  0  0  0  0  0  0  0
  -33.4133    9.3572  -23.9724 N   0  0  0  0  0  0  0  0  0  0  0  0
  -32.8750    8.6253  -23.5086 H   0  0  0  0  0  0  0  0  0  0  0  0
  -34.7979    9.2146  -23.5354 C   0  0  0  0  0  0  0  0  0  0  0  0
  -34.8861    9.3211  -22.0228 C   0  0  0  0  0  0  0  0  0  0  0  0
 20 19  2  0  0  0
 15 19  1  0  0  0
 15 13  2  0  0  0
 19 18  1  0  0  0
 14 13  1  0  0  0
 13 12  1  0  0  0
 18 17  1  0  0  0
 18 11  2  0  0  0
 17 16  2  0  0  0
 12 11  1  0  0  0
 11 10  1  0  0  0
 16 10  1  0  0  0
 10  7  1  0  0  0
  7  5  1  0  0  0
  7  2  1  0  0  0
  6  5  1  0  0  0
  5  3  1  0  0  0
  2  1  1  0  0  0
  3  1  1  0  0  0
  3  4  1  0  0  0
  1 24  1  0  0  0
 24 25  1  0  0  0
 25 26  1  0  0  0
 27 26  2  0  0  0
 32 30  1  0  0  0
 32 33  1  0  0  0
 30 26  1  0  0  0
 26 28  1  0  0  0
 30 31  1  0  0  0
 28 29  1  0  0  0
  4  8  1  0  0  0
  6  9  1  0  0  0
 12 21  1  0  0  0
 14 22  1  0  0  0
 14 23  1  0  0  0
M  END
> <minimizedAffinity>
-8.50160

$$$$
5KMA_777_A_201


 33 35  0  0  0  0  0  0  0  0999 V2000
  -29.6637    5.0091  -27.2072 C   0  0  0  0  0  0  0  0  0  0  0  0
  -29.6290    4.5168  -28.5452 O   0  0  0  0  0  0  0  0  0  0  0  0
  -30.0167    6.4950  -27.2857 C   0  0  0  0  0  0  0  0  0  0  0  0
  -29.0248    7.2937  -26.6049 O   0  0  0  0  0  0  0  0  0  0  0  0
  -30.1180    6.7855  -28.7854 C   0  0  0  0  0  0  0  0  0  0  0  0
  -29.5944    8.0572  -29.1937 O   0  0  0  0  0  0  0  0  0  0  0  0
  -29.3470    5.6225  -29.3898 C   0  0  0  0  0  0  0  0  0  0  0  0
  -28.1524    7.1275  -26.9951 H   0  0  0  0  0  0  0  0  0  0  0  0
  -28.6570    8.1139  -28.9510 H   0  0  0  0  0  0  0  0  0  0  0  0
  -29.8123    5.2863  -30.7414 N   0  0  0  0  0  0  0  0  0  0  0  0
  -31.0973    5.1596  -31.0483 C   0  0  0  0  0  0  0  0  0  0  0  0
  -32.2458    5.2401  -30.3349 N   0  0  0  0  0  0  0  0  0  0  0  0
  -33.4291    5.0426  -30.9681 C   0  0  0  0  0  0  0  0  0  0  0  0
  -34.5714    5.1312  -30.2432 N   0  0  0  0  0  0  0  0  0  0  0  0
  -33.5060    4.7318  -32.2795 N   0  0  0  0  0  0  0  0  0  0  0  0
  -29.0525    5.0967  -31.8367 C   0  0  0  0  0  0  0  0  0  0  0  0
  -29.8375    4.8185  -32.9048 N   0  0  0  0  0  0  0  0  0  0  0  0
  -31.1161    4.8351  -32.4709 C   0  0  0  0  0  0  0  0  0  0  0  0
  -32.4316    4.6228  -33.0809 C   0  0  0  0  0  0  0  0  0  0  0  0
  -32.5008    4.3304  -34.3000 O   0  0  0  0  0  0  0  0  0  0  0  0
  -32.2222    5.4389  -29.3710 H   0  0  0  0  0  0  0  0  0  0  0  0
  -35.4431    4.9921  -30.6792 H   0  0  0  0  0  0  0  0  0  0  0  0
  -34.5293    5.3347  -29.2809 H   0  0  0  0  0  0  0  0  0  0  0  0
  -30.7054    4.2022  -26.4559 C   0  0  0  0  0  0  0  0  0  0  0  0
  -30.2121    4.0125  -25.1307 O   0  0  0  0  0  0  0  0  0  0  0  0
  -31.2317    3.6332  -23.9395 P   0  0  0  0  0  0  0  0  0  0  0  0
  -32.1449    2.5129  -24.3857 O   0  0  0  0  0  0  0  0  0  0  0  0
  -30.3586    3.4126  -22.7346 O   0  0  0  0  0  0  0  0  0  0  0  0
  -29.8352    2.6054  -22.8581 H   0  0  0  0  0  0  0  0  0  0  0  0
  -32.1593    5.0646  -23.7197 N   0  0  0  0  0  0  0  0  0  0  0  0
  -32.7273    5.1861  -24.5581 H   0  0  0  0  0  0  0  0  0  0  0  0
  -31.4590    6.3235  -23.4889 C   0  0  0  0  0  0  0  0  0  0  0  0
  -32.1442    7.4522  -24.2397 C   0  0  0  0  0  0  0  0  0  0  0  0
 20 19  2  0  0  0
 15 19  1  0  0  0
 15 13  2  0  0  0
 19 18  1  0  0  0
 14 13  1  0  0  0
 13 12  1  0  0  0
 18 17  1  0  0  0
 18 11  2  0  0  0
 17 16  2  0  0  0
 12 11  1  0  0  0
 11 10  1  0  0  0
 16 10  1  0  0  0
 10  7  1  0  0  0
  7  5  1  0  0  0
  7  2  1  0  0  0
  6  5  1  0  0  0
  5  3  1  0  0  0
  2  1  1  0  0  0
  3  1  1  0  0  0
  3  4  1  0  0  0
  1 24  1  0  0  0
 24 25  1  0  0  0
 25 26  1  0  0  0
 27 26  2  0  0  0
 32 30  1  0  0  0
 32 33  1  0  0  0
 30 26  1  0  0  0
 26 28  1  0  0  0
 30 31  1  0  0  0
 28 29  1  0  0  0
  4  8  1  0  0  0
  6  9  1  0  0  0
 12 21  1  0  0  0
 14 22  1  0  0  0
 14 23  1  0  0  0
M  END
> <minimizedAffinity>
-8.23732

$$$$
5KMA_777_A_201


 33 35  0  0  0  0  0  0  0  0999 V2000
  -32.3524    7.1060  -29.1424 C   0  0  0  0  0  0  0  0  0  0  0  0
  -33.2413    7.3780  -28.0609 O   0  0  0  0  0  0  0  0  0  0  0  0
  -31.4191    8.3109  -29.2690 C   0  0  0  0  0  0  0  0  0  0  0  0
  -31.4560    8.8489  -30.6086 O   0  0  0  0  0  0  0  0  0  0  0  0
  -31.9100    9.2891  -28.1986 C   0  0  0  0  0  0  0  0  0  0  0  0
  -31.8851   10.6711  -28.5826 O   0  0  0  0  0  0  0  0  0  0  0  0
  -33.3209    8.7894  -27.9307 C   0  0  0  0  0  0  0  0  0  0  0  0
  -32.3668    9.0958  -30.8328 H   0  0  0  0  0  0  0  0  0  0  0  0
  -32.4408   10.7987  -29.3673 H   0  0  0  0  0  0  0  0  0  0  0  0
  -33.7702    9.0905  -26.5655 N   0  0  0  0  0  0  0  0  0  0  0  0
  -33.2006    8.5634  -25.4888 C   0  0  0  0  0  0  0  0  0  0  0  0
  -32.1965    7.6750  -25.2970 N   0  0  0  0  0  0  0  0  0  0  0  0
  -31.8564    7.3295  -24.0301 C   0  0  0  0  0  0  0  0  0  0  0  0
  -30.8459    6.4432  -23.8522 N   0  0  0  0  0  0  0  0  0  0  0  0
  -32.5060    7.8103  -22.9489 N   0  0  0  0  0  0  0  0  0  0  0  0
  -34.7571    9.9319  -26.2037 C   0  0  0  0  0  0  0  0  0  0  0  0
  -34.8708    9.9628  -24.8544 N   0  0  0  0  0  0  0  0  0  0  0  0
  -33.9351    9.1244  -24.3595 C   0  0  0  0  0  0  0  0  0  0  0  0
  -33.5180    8.6930  -23.0225 C   0  0  0  0  0  0  0  0  0  0  0  0
  -34.1257    9.1387  -22.0182 O   0  0  0  0  0  0  0  0  0  0  0  0
  -31.7203    7.2858  -26.0657 H   0  0  0  0  0  0  0  0  0  0  0  0
  -30.5798    6.1761  -22.9428 H   0  0  0  0  0  0  0  0  0  0  0  0
  -30.3781    6.0669  -24.6325 H   0  0  0  0  0  0  0  0  0  0  0  0
  -31.6096    5.8271  -28.8061 C   0  0  0  0  0  0  0  0  0  0  0  0
  -31.2028    5.9256  -27.4422 O   0  0  0  0  0  0  0  0  0  0  0  0
  -29.6538    5.7097  -27.0472 P   0  0  0  0  0  0  0  0  0  0  0  0
  -28.8741    5.2605  -28.2631 O   0  0  0  0  0  0  0  0  0  0  0  0
  -29.2450    6.9845  -26.3614 O   0  0  0  0  0  0  0  0  0  0  0  0
  -29.2211    7.7065  -27.0087 H   0  0  0  0  0  0  0  0  0  0  0  0
  -29.6959    4.4302  -25.8988 N   0  0  0  0  0  0  0  0  0  0  0  0
  -28.8025    3.9419  -25.9602 H   0  0  0  0  0  0  0  0  0  0  0  0
  -30.7449    3.4227  -26.0120 C   0  0  0  0  0  0  0  0  0  0  0  0
  -31.3796    3.1688  -24.6557 C   0  0  0  0  0  0  0  0  0  0  0  0
 20 19  2  0  0  0
 15 19  1  0  0  0
 15 13  2  0  0  0
 19 18  1  0  0  0
 14 13  1  0  0  0
 13 12  1  0  0  0
 18 17  1  0  0  0
 18 11  2  0  0  0
 17 16  2  0  0  0
 12 11  1  0  0  0
 11 10  1  0  0  0
 16 10  1  0  0  0
 10  7  1  0  0  0
  7  5  1  0  0  0
  7  2  1  0  0  0
  6  5  1  0  0  0
  5  3  1  0  0  0
  2  1  1  0  0  0
  3  1  1  0  0  0
  3  4  1  0  0  0
  1 24  1  0  0  0
 24 25  1  0  0  0
 25 26  1  0  0  0
 27 26  2  0  0  0
 32 30  1  0  0  0
 32 33  1  0  0  0
 30 26  1  0  0  0
 26 28  1  0  0  0
 30 31  1  0  0  0
 28 29  1  0  0  0
  4  8  1  0  0  0
  6  9  1  0  0  0
 12 21  1  0  0  0
 14 22  1  0  0  0
 14 23  1  0  0  0
M  END
> <minimizedAffinity>
-7.65373

$$$$
5KMA_777_A_201


 33 35  0  0  0  0  0  0  0  0999 V2000
  -32.9029    7.8013  -28.8859 C   0  0  0  0  0  0  0  0  0  0  0  0
  -33.3941    7.7547  -27.5479 O   0  0  0  0  0  0  0  0  0  0  0  0
  -31.9038    8.9571  -28.9563 C   0  0  0  0  0  0  0  0  0  0  0  0
  -32.2639    9.8821  -30.0052 O   0  0  0  0  0  0  0  0  0  0  0  0
  -31.9323    9.5732  -27.5551 C   0  0  0  0  0  0  0  0  0  0  0  0
  -31.8475   11.0048  -27.5201 O   0  0  0  0  0  0  0  0  0  0  0  0
  -33.2539    9.0593  -27.0059 C   0  0  0  0  0  0  0  0  0  0  0  0
  -33.1618   10.2141  -29.8493 H   0  0  0  0  0  0  0  0  0  0  0  0
  -32.5882   11.3849  -28.0180 H   0  0  0  0  0  0  0  0  0  0  0  0
  -33.2417    8.9395  -25.5424 N   0  0  0  0  0  0  0  0  0  0  0  0
  -32.5519    8.0025  -24.9038 C   0  0  0  0  0  0  0  0  0  0  0  0
  -31.7760    6.9683  -25.3071 N   0  0  0  0  0  0  0  0  0  0  0  0
  -31.2071    6.1682  -24.3711 C   0  0  0  0  0  0  0  0  0  0  0  0
  -30.4283    5.1398  -24.7884 N   0  0  0  0  0  0  0  0  0  0  0  0
  -31.4138    6.3405  -23.0483 N   0  0  0  0  0  0  0  0  0  0  0  0
  -33.8669    9.7395  -24.6581 C   0  0  0  0  0  0  0  0  0  0  0  0
  -33.6100    9.3261  -23.3942 N   0  0  0  0  0  0  0  0  0  0  0  0
  -32.8061    8.2450  -23.4875 C   0  0  0  0  0  0  0  0  0  0  0  0
  -32.1673    7.3303  -22.5373 C   0  0  0  0  0  0  0  0  0  0  0  0
  -32.3636    7.4901  -21.3075 O   0  0  0  0  0  0  0  0  0  0  0  0
  -31.6270    6.7997  -26.2656 H   0  0  0  0  0  0  0  0  0  0  0  0
  -30.0040    4.5445  -24.1289 H   0  0  0  0  0  0  0  0  0  0  0  0
  -30.2871    4.9883  -25.7509 H   0  0  0  0  0  0  0  0  0  0  0  0
  -32.2611    6.4585  -29.1786 C   0  0  0  0  0  0  0  0  0  0  0  0
  -31.5627    6.0624  -27.9993 O   0  0  0  0  0  0  0  0  0  0  0  0
  -29.9654    5.8421  -28.0463 P   0  0  0  0  0  0  0  0  0  0  0  0
  -29.2814    6.8739  -27.1770 O   0  0  0  0  0  0  0  0  0  0  0  0
  -29.7632    4.3859  -27.7282 O   0  0  0  0  0  0  0  0  0  0  0  0
  -29.9929    4.2228  -26.8000 H   0  0  0  0  0  0  0  0  0  0  0  0
  -29.5579    6.1303  -29.6920 N   0  0  0  0  0  0  0  0  0  0  0  0
  -30.4093    6.4357  -30.1633 H   0  0  0  0  0  0  0  0  0  0  0  0
  -29.0018    5.0337  -30.4774 C   0  0  0  0  0  0  0  0  0  0  0  0
  -27.5379    5.2966  -30.7857 C   0  0  0  0  0  0  0  0  0  0  0  0
 20 19  2  0  0  0
 15 19  1  0  0  0
 15 13  2  0  0  0
 19 18  1  0  0  0
 14 13  1  0  0  0
 13 12  1  0  0  0
 18 17  1  0  0  0
 18 11  2  0  0  0
 17 16  2  0  0  0
 12 11  1  0  0  0
 11 10  1  0  0  0
 16 10  1  0  0  0
 10  7  1  0  0  0
  7  5  1  0  0  0
  7  2  1  0  0  0
  6  5  1  0  0  0
  5  3  1  0  0  0
  2  1  1  0  0  0
  3  1  1  0  0  0
  3  4  1  0  0  0
  1 24  1  0  0  0
 24 25  1  0  0  0
 25 26  1  0  0  0
 27 26  2  0  0  0
 32 30  1  0  0  0
 32 33  1  0  0  0
 30 26  1  0  0  0
 26 28  1  0  0  0
 30 31  1  0  0  0
 28 29  1  0  0  0
  4  8  1  0  0  0
  6  9  1  0  0  0
 12 21  1  0  0  0
 14 22  1  0  0  0
 14 23  1  0  0  0
M  END
> <minimizedAffinity>
-7.51189

$$$$
5KMA_777_A_201


 33 35  0  0  0  0  0  0  0  0999 V2000
  -31.4370    8.1885  -28.1250 C   0  0  0  0  0  0  0  0  0  0  0  0
  -31.9788    7.5958  -26.9465 O   0  0  0  0  0  0  0  0  0  0  0  0
  -29.9665    8.4946  -27.8369 C   0  0  0  0  0  0  0  0  0  0  0  0
  -29.6764    9.8882  -28.0800 O   0  0  0  0  0  0  0  0  0  0  0  0
  -29.7653    8.0684  -26.3804 C   0  0  0  0  0  0  0  0  0  0  0  0
  -28.9140    8.9277  -25.6090 O   0  0  0  0  0  0  0  0  0  0  0  0
  -31.1915    8.0442  -25.8536 C   0  0  0  0  0  0  0  0  0  0  0  0
  -30.2553   10.4396  -27.5307 H   0  0  0  0  0  0  0  0  0  0  0  0
  -29.2833    9.8246  -25.5992 H   0  0  0  0  0  0  0  0  0  0  0  0
  -31.3641    7.0880  -24.7526 N   0  0  0  0  0  0  0  0  0  0  0  0
  -31.1364    5.7875  -24.8880 C   0  0  0  0  0  0  0  0  0  0  0  0
  -30.7660    5.0019  -25.9272 N   0  0  0  0  0  0  0  0  0  0  0  0
  -30.6272    3.6675  -25.7268 C   0  0  0  0  0  0  0  0  0  0  0  0
  -30.2508    2.8934  -26.7743 N   0  0  0  0  0  0  0  0  0  0  0  0
  -30.8799    3.0836  -24.5362 N   0  0  0  0  0  0  0  0  0  0  0  0
  -31.7281    7.3663  -23.4865 C   0  0  0  0  0  0  0  0  0  0  0  0
  -31.7649    6.2287  -22.7524 N   0  0  0  0  0  0  0  0  0  0  0  0
  -31.4157    5.2160  -23.5746 C   0  0  0  0  0  0  0  0  0  0  0  0
  -31.2563    3.7655  -23.4399 C   0  0  0  0  0  0  0  0  0  0  0  0
  -31.4952    3.2238  -22.3326 O   0  0  0  0  0  0  0  0  0  0  0  0
  -30.5999    5.3935  -26.8150 H   0  0  0  0  0  0  0  0  0  0  0  0
  -30.1430    1.9221  -26.6549 H   0  0  0  0  0  0  0  0  0  0  0  0
  -30.0852    3.3025  -27.6543 H   0  0  0  0  0  0  0  0  0  0  0  0
  -31.6136    7.1916  -29.2543 C   0  0  0  0  0  0  0  0  0  0  0  0
  -30.3098    6.8667  -29.7338 O   0  0  0  0  0  0  0  0  0  0  0  0
  -29.7436    5.3651  -29.5703 P   0  0  0  0  0  0  0  0  0  0  0  0
  -28.7819    5.3056  -28.4043 O   0  0  0  0  0  0  0  0  0  0  0  0
  -30.9659    4.4888  -29.5398 O   0  0  0  0  0  0  0  0  0  0  0  0
  -31.4543    4.6438  -28.7162 H   0  0  0  0  0  0  0  0  0  0  0  0
  -28.8784    5.0896  -31.0308 N   0  0  0  0  0  0  0  0  0  0  0  0
  -29.1180    4.1507  -31.3494 H   0  0  0  0  0  0  0  0  0  0  0  0
  -27.4223    5.1774  -31.0085 C   0  0  0  0  0  0  0  0  0  0  0  0
  -26.8543    4.8520  -32.3791 C   0  0  0  0  0  0  0  0  0  0  0  0
 20 19  2  0  0  0
 15 19  1  0  0  0
 15 13  2  0  0  0
 19 18  1  0  0  0
 14 13  1  0  0  0
 13 12  1  0  0  0
 18 17  1  0  0  0
 18 11  2  0  0  0
 17 16  2  0  0  0
 12 11  1  0  0  0
 11 10  1  0  0  0
 16 10  1  0  0  0
 10  7  1  0  0  0
  7  5  1  0  0  0
  7  2  1  0  0  0
  6  5  1  0  0  0
  5  3  1  0  0  0
  2  1  1  0  0  0
  3  1  1  0  0  0
  3  4  1  0  0  0
  1 24  1  0  0  0
 24 25  1  0  0  0
 25 26  1  0  0  0
 27 26  2  0  0  0
 32 30  1  0  0  0
 32 33  1  0  0  0
 30 26  1  0  0  0
 26 28  1  0  0  0
 30 31  1  0  0  0
 28 29  1  0  0  0
  4  8  1  0  0  0
  6  9  1  0  0  0
 12 21  1  0  0  0
 14 22  1  0  0  0
 14 23  1  0  0  0
M  END
> <minimizedAffinity>
-7.33530

$$$$
5KMA_777_A_201


 33 35  0  0  0  0  0  0  0  0999 V2000
  -29.8256    4.9397  -26.0617 C   0  0  0  0  0  0  0  0  0  0  0  0
  -30.2525    6.2969  -26.1599 O   0  0  0  0  0  0  0  0  0  0  0  0
  -30.8579    4.2064  -25.2041 C   0  0  0  0  0  0  0  0  0  0  0  0
  -30.2219    3.5519  -24.0849 O   0  0  0  0  0  0  0  0  0  0  0  0
  -31.8570    5.2923  -24.7961 C   0  0  0  0  0  0  0  0  0  0  0  0
  -32.3504    5.1889  -23.4530 O   0  0  0  0  0  0  0  0  0  0  0  0
  -31.0563    6.5653  -25.0210 C   0  0  0  0  0  0  0  0  0  0  0  0
  -29.7416    4.2085  -23.5566 H   0  0  0  0  0  0  0  0  0  0  0  0
  -31.6071    5.2319  -22.8313 H   0  0  0  0  0  0  0  0  0  0  0  0
  -31.9130    7.7156  -25.3359 N   0  0  0  0  0  0  0  0  0  0  0  0
  -32.6547    8.3305  -24.4231 C   0  0  0  0  0  0  0  0  0  0  0  0
  -32.8818    8.1254  -23.1037 N   0  0  0  0  0  0  0  0  0  0  0  0
  -33.7300    8.9542  -22.4453 C   0  0  0  0  0  0  0  0  0  0  0  0
  -33.9443    8.7410  -21.1236 N   0  0  0  0  0  0  0  0  0  0  0  0
  -34.3879    9.9578  -23.0635 N   0  0  0  0  0  0  0  0  0  0  0  0
  -32.0500    8.3216  -26.5305 C   0  0  0  0  0  0  0  0  0  0  0  0
  -32.9161    9.3580  -26.4296 N   0  0  0  0  0  0  0  0  0  0  0  0
  -33.3299    9.4040  -25.1451 C   0  0  0  0  0  0  0  0  0  0  0  0
  -34.2411   10.2489  -24.3683 C   0  0  0  0  0  0  0  0  0  0  0  0
  -34.8547   11.1797  -24.9459 O   0  0  0  0  0  0  0  0  0  0  0  0
  -32.4378    7.3857  -22.6295 H   0  0  0  0  0  0  0  0  0  0  0  0
  -34.5553    9.3285  -20.6229 H   0  0  0  0  0  0  0  0  0  0  0  0
  -33.4888    7.9987  -20.6646 H   0  0  0  0  0  0  0  0  0  0  0  0
  -29.7438    4.3886  -27.4724 C   0  0  0  0  0  0  0  0  0  0  0  0
  -28.7657    5.1606  -28.1673 O   0  0  0  0  0  0  0  0  0  0  0  0
  -29.1130    5.7855  -29.6133 P   0  0  0  0  0  0  0  0  0  0  0  0
  -30.1127    6.9100  -29.4574 O   0  0  0  0  0  0  0  0  0  0  0  0
  -27.7786    6.0910  -30.2367 O   0  0  0  0  0  0  0  0  0  0  0  0
  -27.3600    6.8253  -29.7608 H   0  0  0  0  0  0  0  0  0  0  0  0
  -29.8544    4.4836  -30.4576 N   0  0  0  0  0  0  0  0  0  0  0  0
  -29.4682    3.6198  -30.0766 H   0  0  0  0  0  0  0  0  0  0  0  0
  -29.7083    4.4167  -31.9077 C   0  0  0  0  0  0  0  0  0  0  0  0
  -30.9726    4.9132  -32.5875 C   0  0  0  0  0  0  0  0  0  0  0  0
 20 19  2  0  0  0
 15 19  1  0  0  0
 15 13  2  0  0  0
 19 18  1  0  0  0
 14 13  1  0  0  0
 13 12  1  0  0  0
 18 17  1  0  0  0
 18 11  2  0  0  0
 17 16  2  0  0  0
 12 11  1  0  0  0
 11 10  1  0  0  0
 16 10  1  0  0  0
 10  7  1  0  0  0
  7  5  1  0  0  0
  7  2  1  0  0  0
  6  5  1  0  0  0
  5  3  1  0  0  0
  2  1  1  0  0  0
  3  1  1  0  0  0
  3  4  1  0  0  0
  1 24  1  0  0  0
 24 25  1  0  0  0
 25 26  1  0  0  0
 27 26  2  0  0  0
 32 30  1  0  0  0
 32 33  1  0  0  0
 30 26  1  0  0  0
 26 28  1  0  0  0
 30 31  1  0  0  0
 28 29  1  0  0  0
  4  8  1  0  0  0
  6  9  1  0  0  0
 12 21  1  0  0  0
 14 22  1  0  0  0
 14 23  1  0  0  0
M  END
> <minimizedAffinity>
-7.21851

$$$$
5KMA_777_A_201


 33 35  0  0  0  0  0  0  0  0999 V2000
  -27.4836    4.5024  -31.4746 C   0  0  0  0  0  0  0  0  0  0  0  0
  -27.8392    5.1507  -30.2552 O   0  0  0  0  0  0  0  0  0  0  0  0
  -28.7253    4.5152  -32.3673 C   0  0  0  0  0  0  0  0  0  0  0  0
  -29.0619    3.1778  -32.7957 O   0  0  0  0  0  0  0  0  0  0  0  0
  -29.8064    5.1776  -31.5093 C   0  0  0  0  0  0  0  0  0  0  0  0
  -31.1172    4.6094  -31.6400 O   0  0  0  0  0  0  0  0  0  0  0  0
  -29.2445    5.0170  -30.1055 C   0  0  0  0  0  0  0  0  0  0  0  0
  -29.2044    2.6155  -32.0182 H   0  0  0  0  0  0  0  0  0  0  0  0
  -31.0887    3.6712  -31.3953 H   0  0  0  0  0  0  0  0  0  0  0  0
  -29.7028    6.0749  -29.1961 N   0  0  0  0  0  0  0  0  0  0  0  0
  -29.9737    5.8543  -27.9157 C   0  0  0  0  0  0  0  0  0  0  0  0
  -29.9665    4.7507  -27.1306 N   0  0  0  0  0  0  0  0  0  0  0  0
  -30.3167    4.8691  -25.8255 C   0  0  0  0  0  0  0  0  0  0  0  0
  -30.3001    3.7574  -25.0495 N   0  0  0  0  0  0  0  0  0  0  0  0
  -30.7088    6.0419  -25.2841 N   0  0  0  0  0  0  0  0  0  0  0  0
  -29.8790    7.3770  -29.4903 C   0  0  0  0  0  0  0  0  0  0  0  0
  -30.2949    8.0500  -28.3910 N   0  0  0  0  0  0  0  0  0  0  0  0
  -30.3802    7.1520  -27.3862 C   0  0  0  0  0  0  0  0  0  0  0  0
  -30.7569    7.1973  -25.9707 C   0  0  0  0  0  0  0  0  0  0  0  0
  -31.1247    8.2884  -25.4699 O   0  0  0  0  0  0  0  0  0  0  0  0
  -29.7109    3.8754  -27.5017 H   0  0  0  0  0  0  0  0  0  0  0  0
  -30.5499    3.8167  -24.0991 H   0  0  0  0  0  0  0  0  0  0  0  0
  -30.0381    2.8909  -25.4365 H   0  0  0  0  0  0  0  0  0  0  0  0
  -26.3259    5.2758  -32.0766 C   0  0  0  0  0  0  0  0  0  0  0  0
  -26.6496    5.5162  -33.4451 O   0  0  0  0  0  0  0  0  0  0  0  0
  -25.5324    5.2928  -34.5871 P   0  0  0  0  0  0  0  0  0  0  0  0
  -25.1528    6.6236  -35.1979 O   0  0  0  0  0  0  0  0  0  0  0  0
  -24.4585    4.4723  -33.9267 O   0  0  0  0  0  0  0  0  0  0  0  0
  -24.0044    5.0106  -33.2598 H   0  0  0  0  0  0  0  0  0  0  0  0
  -26.3369    4.3375  -35.7693 N   0  0  0  0  0  0  0  0  0  0  0  0
  -25.6210    3.9679  -36.3948 H   0  0  0  0  0  0  0  0  0  0  0  0
  -27.3534    4.9679  -36.6046 C   0  0  0  0  0  0  0  0  0  0  0  0
  -28.7422    4.5978  -36.1133 C   0  0  0  0  0  0  0  0  0  0  0  0
 20 19  2  0  0  0
 15 19  1  0  0  0
 15 13  2  0  0  0
 19 18  1  0  0  0
 14 13  1  0  0  0
 13 12  1  0  0  0
 18 17  1  0  0  0
 18 11  2  0  0  0
 17 16  2  0  0  0
 12 11  1  0  0  0
 11 10  1  0  0  0
 16 10  1  0  0  0
 10  7  1  0  0  0
  7  5  1  0  0  0
  7  2  1  0  0  0
  6  5  1  0  0  0
  5  3  1  0  0  0
  2  1  1  0  0  0
  3  1  1  0  0  0
  3  4  1  0  0  0
  1 24  1  0  0  0
 24 25  1  0  0  0
 25 26  1  0  0  0
 27 26  2  0  0  0
 32 30  1  0  0  0
 32 33  1  0  0  0
 30 26  1  0  0  0
 26 28  1  0  0  0
 30 31  1  0  0  0
 28 29  1  0  0  0
  4  8  1  0  0  0
  6  9  1  0  0  0
 12 21  1  0  0  0
 14 22  1  0  0  0
 14 23  1  0  0  0
M  END
> <minimizedAffinity>
-6.98138

$$$$
5KMA_777_A_201


 33 35  0  0  0  0  0  0  0  0999 V2000
  -30.6213    5.0862  -29.3536 C   0  0  0  0  0  0  0  0  0  0  0  0
  -30.6767    4.6735  -30.7176 O   0  0  0  0  0  0  0  0  0  0  0  0
  -29.3567    5.9309  -29.1922 C   0  0  0  0  0  0  0  0  0  0  0  0
  -28.5220    5.4069  -28.1367 O   0  0  0  0  0  0  0  0  0  0  0  0
  -28.6964    5.8988  -30.5730 C   0  0  0  0  0  0  0  0  0  0  0  0
  -27.2647    5.8090  -30.5588 O   0  0  0  0  0  0  0  0  0  0  0  0
  -29.3453    4.6802  -31.2102 C   0  0  0  0  0  0  0  0  0  0  0  0
  -28.2953    4.4841  -28.3317 H   0  0  0  0  0  0  0  0  0  0  0  0
  -26.9959    5.0028  -30.0912 H   0  0  0  0  0  0  0  0  0  0  0  0
  -29.4078    4.7819  -32.6738 N   0  0  0  0  0  0  0  0  0  0  0  0
  -28.3258    4.7625  -33.4423 C   0  0  0  0  0  0  0  0  0  0  0  0
  -26.9965    4.6957  -33.1915 N   0  0  0  0  0  0  0  0  0  0  0  0
  -26.1287    4.7074  -34.2339 C   0  0  0  0  0  0  0  0  0  0  0  0
  -24.8010    4.6346  -33.9690 N   0  0  0  0  0  0  0  0  0  0  0  0
  -26.5372    4.8201  -35.5155 N   0  0  0  0  0  0  0  0  0  0  0  0
  -30.5155    4.8712  -33.4339 C   0  0  0  0  0  0  0  0  0  0  0  0
  -30.1771    4.9313  -34.7440 N   0  0  0  0  0  0  0  0  0  0  0  0
  -28.8293    4.8774  -34.8072 C   0  0  0  0  0  0  0  0  0  0  0  0
  -27.8298    4.8967  -35.8787 C   0  0  0  0  0  0  0  0  0  0  0  0
  -28.2117    5.0051  -37.0699 O   0  0  0  0  0  0  0  0  0  0  0  0
  -26.6650    4.6394  -32.2662 H   0  0  0  0  0  0  0  0  0  0  0  0
  -24.1505    4.6413  -34.7079 H   0  0  0  0  0  0  0  0  0  0  0  0
  -24.4874    4.5751  -33.0376 H   0  0  0  0  0  0  0  0  0  0  0  0
  -31.8867    5.8720  -29.0676 C   0  0  0  0  0  0  0  0  0  0  0  0
  -31.4892    7.2057  -28.7535 O   0  0  0  0  0  0  0  0  0  0  0  0
  -31.9009    7.8549  -27.3353 P   0  0  0  0  0  0  0  0  0  0  0  0
  -31.1734    9.1672  -27.1435 O   0  0  0  0  0  0  0  0  0  0  0  0
  -33.4050    7.8591  -27.3304 O   0  0  0  0  0  0  0  0  0  0  0  0
  -33.7287    8.5006  -27.9821 H   0  0  0  0  0  0  0  0  0  0  0  0
  -31.3281    6.7173  -26.1797 N   0  0  0  0  0  0  0  0  0  0  0  0
  -32.1000    6.0831  -25.9744 H   0  0  0  0  0  0  0  0  0  0  0  0
  -30.8259    7.2107  -24.9019 C   0  0  0  0  0  0  0  0  0  0  0  0
  -31.9303    7.1913  -23.8593 C   0  0  0  0  0  0  0  0  0  0  0  0
 20 19  2  0  0  0
 15 19  1  0  0  0
 15 13  2  0  0  0
 19 18  1  0  0  0
 14 13  1  0  0  0
 13 12  1  0  0  0
 18 17  1  0  0  0
 18 11  2  0  0  0
 17 16  2  0  0  0
 12 11  1  0  0  0
 11 10  1  0  0  0
 16 10  1  0  0  0
 10  7  1  0  0  0
  7  5  1  0  0  0
  7  2  1  0  0  0
  6  5  1  0  0  0
  5  3  1  0  0  0
  2  1  1  0  0  0
  3  1  1  0  0  0
  3  4  1  0  0  0
  1 24  1  0  0  0
 24 25  1  0  0  0
 25 26  1  0  0  0
 27 26  2  0  0  0
 32 30  1  0  0  0
 32 33  1  0  0  0
 30 26  1  0  0  0
 26 28  1  0  0  0
 30 31  1  0  0  0
 28 29  1  0  0  0
  4  8  1  0  0  0
  6  9  1  0  0  0
 12 21  1  0  0  0
 14 22  1  0  0  0
 14 23  1  0  0  0
M  END
> <minimizedAffinity>
-6.97920

$$$$
5KMA_777_A_201


 33 35  0  0  0  0  0  0  0  0999 V2000
  -29.8191    5.3726  -27.3548 C   0  0  0  0  0  0  0  0  0  0  0  0
  -30.3391    6.4660  -26.6013 O   0  0  0  0  0  0  0  0  0  0  0  0
  -30.0908    4.1026  -26.5471 C   0  0  0  0  0  0  0  0  0  0  0  0
  -28.8683    3.3676  -26.3219 O   0  0  0  0  0  0  0  0  0  0  0  0
  -30.7552    4.6018  -25.2615 C   0  0  0  0  0  0  0  0  0  0  0  0
  -30.3632    3.9094  -24.0677 O   0  0  0  0  0  0  0  0  0  0  0  0
  -30.3492    6.0670  -25.2390 C   0  0  0  0  0  0  0  0  0  0  0  0
  -28.2295    3.9354  -25.8633 H   0  0  0  0  0  0  0  0  0  0  0  0
  -29.4041    3.9899  -23.9474 H   0  0  0  0  0  0  0  0  0  0  0  0
  -31.3249    6.9062  -24.5317 N   0  0  0  0  0  0  0  0  0  0  0  0
  -32.1793    7.7019  -25.1627 C   0  0  0  0  0  0  0  0  0  0  0  0
  -32.3934    8.0062  -26.4650 N   0  0  0  0  0  0  0  0  0  0  0  0
  -33.3691    8.8937  -26.7818 C   0  0  0  0  0  0  0  0  0  0  0  0
  -33.5764    9.1852  -28.0896 N   0  0  0  0  0  0  0  0  0  0  0  0
  -34.1146    9.5161  -25.8442 N   0  0  0  0  0  0  0  0  0  0  0  0
  -31.5230    6.9738  -23.2017 C   0  0  0  0  0  0  0  0  0  0  0  0
  -32.5207    7.8466  -22.9238 N   0  0  0  0  0  0  0  0  0  0  0  0
  -32.9583    8.3357  -24.1039 C   0  0  0  0  0  0  0  0  0  0  0  0
  -33.9851    9.2931  -24.5243 C   0  0  0  0  0  0  0  0  0  0  0  0
  -34.6751    9.8736  -23.6505 O   0  0  0  0  0  0  0  0  0  0  0  0
  -31.8489    7.5893  -27.1713 H   0  0  0  0  0  0  0  0  0  0  0  0
  -34.2784    9.8261  -28.3458 H   0  0  0  0  0  0  0  0  0  0  0  0
  -33.0249    8.7560  -28.7830 H   0  0  0  0  0  0  0  0  0  0  0  0
  -30.5264    5.3716  -28.6966 C   0  0  0  0  0  0  0  0  0  0  0  0
  -31.8822    5.7444  -28.4554 O   0  0  0  0  0  0  0  0  0  0  0  0
  -32.8318    6.1673  -29.6889 P   0  0  0  0  0  0  0  0  0  0  0  0
  -34.2702    6.2370  -29.2261 O   0  0  0  0  0  0  0  0  0  0  0  0
  -32.1994    7.4065  -30.2607 O   0  0  0  0  0  0  0  0  0  0  0  0
  -32.2962    8.1386  -29.6316 H   0  0  0  0  0  0  0  0  0  0  0  0
  -32.6597    4.8701  -30.8049 N   0  0  0  0  0  0  0  0  0  0  0  0
  -31.8872    4.2911  -30.4757 H   0  0  0  0  0  0  0  0  0  0  0  0
  -32.3961    5.1824  -32.2054 C   0  0  0  0  0  0  0  0  0  0  0  0
  -30.9702    4.8062  -32.5692 C   0  0  0  0  0  0  0  0  0  0  0  0
 20 19  2  0  0  0
 15 19  1  0  0  0
 15 13  2  0  0  0
 19 18  1  0  0  0
 14 13  1  0  0  0
 13 12  1  0  0  0
 18 17  1  0  0  0
 18 11  2  0  0  0
 17 16  2  0  0  0
 12 11  1  0  0  0
 11 10  1  0  0  0
 16 10  1  0  0  0
 10  7  1  0  0  0
  7  5  1  0  0  0
  7  2  1  0  0  0
  6  5  1  0  0  0
  5  3  1  0  0  0
  2  1  1  0  0  0
  3  1  1  0  0  0
  3  4  1  0  0  0
  1 24  1  0  0  0
 24 25  1  0  0  0
 25 26  1  0  0  0
 27 26  2  0  0  0
 32 30  1  0  0  0
 32 33  1  0  0  0
 30 26  1  0  0  0
 26 28  1  0  0  0
 30 31  1  0  0  0
 28 29  1  0  0  0
  4  8  1  0  0  0
  6  9  1  0  0  0
 12 21  1  0  0  0
 14 22  1  0  0  0
 14 23  1  0  0  0
M  END
> <minimizedAffinity>
-6.91171

$$$$
