5WCM_4NZ_A_307


 15 15  0  0  0  0  0  0  0  0999 V2000
   44.3466   24.2438   53.6509 C   0  0  0  0  0  0  0  0  0  0  0  0
   44.5125   25.5890   53.9195 C   0  0  0  0  0  0  0  0  0  0  0  0
   43.5456   26.2435   54.6656 C   0  0  0  0  0  0  0  0  0  0  0  0
   42.4369   25.5425   55.1023 C   0  0  0  0  0  0  0  0  0  0  0  0
   42.2948   24.1894   54.8416 C   0  0  0  0  0  0  0  0  0  0  0  0
   43.2669   23.5288   54.1217 C   0  0  0  0  0  0  0  0  0  0  0  0
   41.1908   26.3298   56.0608 S   0  0  0  0  0  0  0  0  0  0  0  0
   41.0674   27.8262   55.7296 N   0  0  0  0  0  0  0  0  0  0  0  0
   39.9539   25.7091   55.7219 O   0  0  0  0  0  0  0  0  0  0  0  0
   41.6075   26.2329   57.4209 O   0  0  0  0  0  0  0  0  0  0  0  0
   40.3361   28.2428   56.3058 H   0  0  0  0  0  0  0  0  0  0  0  0
   40.8288   27.9377   54.7442 H   0  0  0  0  0  0  0  0  0  0  0  0
   45.2804   23.5819   52.7337 N   0  0  0  0  0  0  0  0  0  0  0  0
   45.6182   24.1727   51.7248 O   0  0  0  0  0  0  0  0  0  0  0  0
   45.6875   22.4674   53.0292 O   0  0  0  0  0  0  0  0  0  0  0  0
  7  8  1  0  0  0
  7  9  2  0  0  0
  7 10  2  0  0  0
  7  4  1  0  0  0
  1  2  2  0  0  0
  1  6  1  0  0  0
  1 13  1  0  0  0
  2  3  1  0  0  0
  3  4  2  0  0  0
  4  5  1  0  0  0
  5  6  2  0  0  0
 13 14  2  0  0  0
 13 15  1  0  0  0
  8 11  1  0  0  0
  8 12  1  0  0  0
M  CHG 1  13   1
M  CHG 1  15  -1
M  END
> <minimizedAffinity>
-5.74787

$$$$
5WCM_4NZ_A_307


 15 15  0  0  0  0  0  0  0  0999 V2000
   44.2097   24.1957   53.6967 C   0  0  0  0  0  0  0  0  0  0  0  0
   43.1038   23.5031   54.1513 C   0  0  0  0  0  0  0  0  0  0  0  0
   42.1832   24.1663   54.9466 C   0  0  0  0  0  0  0  0  0  0  0  0
   42.4038   25.4900   55.2790 C   0  0  0  0  0  0  0  0  0  0  0  0
   43.5073   26.1762   54.7990 C   0  0  0  0  0  0  0  0  0  0  0  0
   44.4122   25.5276   53.9865 C   0  0  0  0  0  0  0  0  0  0  0  0
   41.2568   26.3737   56.2764 S   0  0  0  0  0  0  0  0  0  0  0  0
   39.8225   25.8445   56.1129 N   0  0  0  0  0  0  0  0  0  0  0  0
   41.6417   26.1661   57.6325 O   0  0  0  0  0  0  0  0  0  0  0  0
   41.2653   27.7191   55.8043 O   0  0  0  0  0  0  0  0  0  0  0  0
   39.1917   26.3829   56.7068 H   0  0  0  0  0  0  0  0  0  0  0  0
   39.7895   24.8619   56.3847 H   0  0  0  0  0  0  0  0  0  0  0  0
   45.2649   23.4636   52.9884 N   0  0  0  0  0  0  0  0  0  0  0  0
   45.7143   22.4552   53.5004 O   0  0  0  0  0  0  0  0  0  0  0  0
   45.6400   23.8938   51.9070 O   0  0  0  0  0  0  0  0  0  0  0  0
  7  8  1  0  0  0
  7  9  2  0  0  0
  7 10  2  0  0  0
  7  4  1  0  0  0
  1  2  2  0  0  0
  1  6  1  0  0  0
  1 13  1  0  0  0
  2  3  1  0  0  0
  3  4  2  0  0  0
  4  5  1  0  0  0
  5  6  2  0  0  0
 13 14  2  0  0  0
 13 15  1  0  0  0
  8 11  1  0  0  0
  8 12  1  0  0  0
M  CHG 1  13   1
M  CHG 1  15  -1
M  END
> <minimizedAffinity>
-5.42180

$$$$
5WCM_4NZ_A_307


 15 15  0  0  0  0  0  0  0  0999 V2000
   41.9065   25.6810   55.3622 C   0  0  0  0  0  0  0  0  0  0  0  0
   41.2185   24.5333   55.0177 C   0  0  0  0  0  0  0  0  0  0  0  0
   39.8380   24.5235   55.1359 C   0  0  0  0  0  0  0  0  0  0  0  0
   39.1905   25.6487   55.6114 C   0  0  0  0  0  0  0  0  0  0  0  0
   39.8928   26.7984   55.9338 C   0  0  0  0  0  0  0  0  0  0  0  0
   41.2637   26.8210   55.7933 C   0  0  0  0  0  0  0  0  0  0  0  0
   37.4396   25.6846   55.7674 S   0  0  0  0  0  0  0  0  0  0  0  0
   36.9523   26.9383   56.5122 N   0  0  0  0  0  0  0  0  0  0  0  0
   36.9072   25.7327   54.4466 O   0  0  0  0  0  0  0  0  0  0  0  0
   37.0831   24.5569   56.5638 O   0  0  0  0  0  0  0  0  0  0  0  0
   35.9347   26.9193   56.5804 H   0  0  0  0  0  0  0  0  0  0  0  0
   37.2433   27.7719   56.0014 H   0  0  0  0  0  0  0  0  0  0  0  0
   43.3727   25.6491   55.3901 N   0  0  0  0  0  0  0  0  0  0  0  0
   43.9572   25.0809   54.4866 O   0  0  0  0  0  0  0  0  0  0  0  0
   43.9447   26.2054   56.3167 O   0  0  0  0  0  0  0  0  0  0  0  0
  7  8  1  0  0  0
  7  9  2  0  0  0
  7 10  2  0  0  0
  7  4  1  0  0  0
  1  2  2  0  0  0
  1  6  1  0  0  0
  1 13  1  0  0  0
  2  3  1  0  0  0
  3  4  2  0  0  0
  4  5  1  0  0  0
  5  6  2  0  0  0
 13 14  2  0  0  0
 13 15  1  0  0  0
  8 11  1  0  0  0
  8 12  1  0  0  0
M  CHG 1  13   1
M  CHG 1  15  -1
M  END
> <minimizedAffinity>
-5.36752

$$$$
5WCM_4NZ_A_307


 15 15  0  0  0  0  0  0  0  0999 V2000
   42.0590   25.5743   55.3802 C   0  0  0  0  0  0  0  0  0  0  0  0
   41.4861   26.7383   55.8558 C   0  0  0  0  0  0  0  0  0  0  0  0
   40.1072   26.8013   55.9758 C   0  0  0  0  0  0  0  0  0  0  0  0
   39.3437   25.7117   55.6001 C   0  0  0  0  0  0  0  0  0  0  0  0
   39.9342   24.5447   55.1437 C   0  0  0  0  0  0  0  0  0  0  0  0
   41.3070   24.4687   55.0471 C   0  0  0  0  0  0  0  0  0  0  0  0
   37.5918   25.7435   55.7456 S   0  0  0  0  0  0  0  0  0  0  0  0
   37.0506   24.5019   56.4735 N   0  0  0  0  0  0  0  0  0  0  0  0
   37.2625   26.8838   56.5338 O   0  0  0  0  0  0  0  0  0  0  0  0
   37.0766   25.7099   54.4165 O   0  0  0  0  0  0  0  0  0  0  0  0
   36.0342   24.5605   56.5359 H   0  0  0  0  0  0  0  0  0  0  0  0
   37.4471   24.4584   57.4123 H   0  0  0  0  0  0  0  0  0  0  0  0
   43.4990   25.5531   55.1022 N   0  0  0  0  0  0  0  0  0  0  0  0
   44.2315   26.2421   55.7874 O   0  0  0  0  0  0  0  0  0  0  0  0
   43.9021   24.8342   54.1989 O   0  0  0  0  0  0  0  0  0  0  0  0
  7  8  1  0  0  0
  7  9  2  0  0  0
  7 10  2  0  0  0
  7  4  1  0  0  0
  1  2  2  0  0  0
  1  6  1  0  0  0
  1 13  1  0  0  0
  2  3  1  0  0  0
  3  4  2  0  0  0
  4  5  1  0  0  0
  5  6  2  0  0  0
 13 14  2  0  0  0
 13 15  1  0  0  0
  8 11  1  0  0  0
  8 12  1  0  0  0
M  CHG 1  13   1
M  CHG 1  15  -1
M  END
> <minimizedAffinity>
-5.29502

$$$$
5WCM_4NZ_A_307


 15 15  0  0  0  0  0  0  0  0999 V2000
   42.5914   25.7721   55.5359 C   0  0  0  0  0  0  0  0  0  0  0  0
   42.2513   24.4691   55.2266 C   0  0  0  0  0  0  0  0  0  0  0  0
   43.0395   23.7709   54.3259 C   0  0  0  0  0  0  0  0  0  0  0  0
   44.1275   24.3988   53.7486 C   0  0  0  0  0  0  0  0  0  0  0  0
   44.4669   25.6992   54.0841 C   0  0  0  0  0  0  0  0  0  0  0  0
   43.7006   26.3887   54.9989 C   0  0  0  0  0  0  0  0  0  0  0  0
   45.1612   23.5477   52.6091 S   0  0  0  0  0  0  0  0  0  0  0  0
   44.3571   22.9172   51.4603 N   0  0  0  0  0  0  0  0  0  0  0  0
   46.0376   24.5171   52.0415 O   0  0  0  0  0  0  0  0  0  0  0  0
   45.7667   22.4799   53.3345 O   0  0  0  0  0  0  0  0  0  0  0  0
   44.9928   22.4352   50.8247 H   0  0  0  0  0  0  0  0  0  0  0  0
   43.8586   23.6483   50.9529 H   0  0  0  0  0  0  0  0  0  0  0  0
   41.6782   26.5675   56.3634 N   0  0  0  0  0  0  0  0  0  0  0  0
   41.5372   26.2583   57.5319 O   0  0  0  0  0  0  0  0  0  0  0  0
   41.1056   27.5151   55.8442 O   0  0  0  0  0  0  0  0  0  0  0  0
  7  8  1  0  0  0
  7  9  2  0  0  0
  7 10  2  0  0  0
  7  4  1  0  0  0
  1  2  2  0  0  0
  1  6  1  0  0  0
  1 13  1  0  0  0
  2  3  1  0  0  0
  3  4  2  0  0  0
  4  5  1  0  0  0
  5  6  2  0  0  0
 13 14  2  0  0  0
 13 15  1  0  0  0
  8 11  1  0  0  0
  8 12  1  0  0  0
M  CHG 1  13   1
M  CHG 1  15  -1
M  END
> <minimizedAffinity>
-5.28515

$$$$
5WCM_4NZ_A_307


 15 15  0  0  0  0  0  0  0  0999 V2000
   39.3425   25.6509   55.7389 C   0  0  0  0  0  0  0  0  0  0  0  0
   40.0320   26.8334   55.9276 C   0  0  0  0  0  0  0  0  0  0  0  0
   41.3831   26.8724   55.6232 C   0  0  0  0  0  0  0  0  0  0  0  0
   42.0068   25.7287   55.1602 C   0  0  0  0  0  0  0  0  0  0  0  0
   41.2974   24.5563   54.9576 C   0  0  0  0  0  0  0  0  0  0  0  0
   39.9478   24.5204   55.2348 C   0  0  0  0  0  0  0  0  0  0  0  0
   43.7168   25.7354   54.7513 S   0  0  0  0  0  0  0  0  0  0  0  0
   44.5961   26.1170   55.9536 N   0  0  0  0  0  0  0  0  0  0  0  0
   44.0571   24.4046   54.3728 O   0  0  0  0  0  0  0  0  0  0  0  0
   43.8909   26.7493   53.7640 O   0  0  0  0  0  0  0  0  0  0  0  0
   45.5769   26.1087   55.6738 H   0  0  0  0  0  0  0  0  0  0  0  0
   44.4518   25.4450   56.7073 H   0  0  0  0  0  0  0  0  0  0  0  0
   37.9548   25.5556   56.2043 N   0  0  0  0  0  0  0  0  0  0  0  0
   37.4622   24.4505   56.3350 O   0  0  0  0  0  0  0  0  0  0  0  0
   37.3560   26.5928   56.4512 O   0  0  0  0  0  0  0  0  0  0  0  0
  7  8  1  0  0  0
  7  9  2  0  0  0
  7 10  2  0  0  0
  7  4  1  0  0  0
  1  2  2  0  0  0
  1  6  1  0  0  0
  1 13  1  0  0  0
  2  3  1  0  0  0
  3  4  2  0  0  0
  4  5  1  0  0  0
  5  6  2  0  0  0
 13 14  2  0  0  0
 13 15  1  0  0  0
  8 11  1  0  0  0
  8 12  1  0  0  0
M  CHG 1  13   1
M  CHG 1  15  -1
M  END
> <minimizedAffinity>
-4.98384

$$$$
5WCM_4NZ_A_307


 15 15  0  0  0  0  0  0  0  0999 V2000
   42.9027   22.7235   53.6554 C   0  0  0  0  0  0  0  0  0  0  0  0
   41.7487   22.8957   54.3956 C   0  0  0  0  0  0  0  0  0  0  0  0
   41.6091   24.0474   55.1533 C   0  0  0  0  0  0  0  0  0  0  0  0
   42.6304   24.9791   55.1647 C   0  0  0  0  0  0  0  0  0  0  0  0
   43.7728   24.8011   54.4016 C   0  0  0  0  0  0  0  0  0  0  0  0
   43.9045   23.6692   53.6264 C   0  0  0  0  0  0  0  0  0  0  0  0
   42.4916   26.4595   56.1030 S   0  0  0  0  0  0  0  0  0  0  0  0
   41.4548   27.4256   55.5065 N   0  0  0  0  0  0  0  0  0  0  0  0
   42.0371   26.0859   57.4007 O   0  0  0  0  0  0  0  0  0  0  0  0
   43.7607   27.1049   56.0272 O   0  0  0  0  0  0  0  0  0  0  0  0
   41.4061   28.2682   56.0793 H   0  0  0  0  0  0  0  0  0  0  0  0
   40.5405   26.9740   55.4877 H   0  0  0  0  0  0  0  0  0  0  0  0
   43.1275   21.4423   52.9776 N   0  0  0  0  0  0  0  0  0  0  0  0
   42.7703   21.3289   51.8198 O   0  0  0  0  0  0  0  0  0  0  0  0
   43.6748   20.5460   53.6039 O   0  0  0  0  0  0  0  0  0  0  0  0
  7  8  1  0  0  0
  7  9  2  0  0  0
  7 10  2  0  0  0
  7  4  1  0  0  0
  1  2  2  0  0  0
  1  6  1  0  0  0
  1 13  1  0  0  0
  2  3  1  0  0  0
  3  4  2  0  0  0
  4  5  1  0  0  0
  5  6  2  0  0  0
 13 14  2  0  0  0
 13 15  1  0  0  0
  8 11  1  0  0  0
  8 12  1  0  0  0
M  CHG 1  13   1
M  CHG 1  15  -1
M  END
> <minimizedAffinity>
-4.88574

$$$$
5WCM_4NZ_A_307


 15 15  0  0  0  0  0  0  0  0999 V2000
   41.5209   25.5111   56.3211 C   0  0  0  0  0  0  0  0  0  0  0  0
   40.4872   26.4113   56.1465 C   0  0  0  0  0  0  0  0  0  0  0  0
   39.3763   26.0167   55.4184 C   0  0  0  0  0  0  0  0  0  0  0  0
   39.3398   24.7472   54.8722 C   0  0  0  0  0  0  0  0  0  0  0  0
   40.3756   23.8496   55.0730 C   0  0  0  0  0  0  0  0  0  0  0  0
   41.4711   24.2292   55.8181 C   0  0  0  0  0  0  0  0  0  0  0  0
   37.9459   24.2006   53.9505 S   0  0  0  0  0  0  0  0  0  0  0  0
   37.3086   25.3399   53.1381 N   0  0  0  0  0  0  0  0  0  0  0  0
   38.4175   23.2233   53.0272 O   0  0  0  0  0  0  0  0  0  0  0  0
   36.9766   23.7701   54.9035 O   0  0  0  0  0  0  0  0  0  0  0  0
   36.5065   24.9808   52.6203 H   0  0  0  0  0  0  0  0  0  0  0  0
   37.9948   25.7161   52.4840 H   0  0  0  0  0  0  0  0  0  0  0  0
   42.7628   25.9691   56.9530 N   0  0  0  0  0  0  0  0  0  0  0  0
   42.9796   25.6460   58.1060 O   0  0  0  0  0  0  0  0  0  0  0  0
   43.5324   26.6482   56.2884 O   0  0  0  0  0  0  0  0  0  0  0  0
  7  8  1  0  0  0
  7  9  2  0  0  0
  7 10  2  0  0  0
  7  4  1  0  0  0
  1  2  2  0  0  0
  1  6  1  0  0  0
  1 13  1  0  0  0
  2  3  1  0  0  0
  3  4  2  0  0  0
  4  5  1  0  0  0
  5  6  2  0  0  0
 13 14  2  0  0  0
 13 15  1  0  0  0
  8 11  1  0  0  0
  8 12  1  0  0  0
M  CHG 1  13   1
M  CHG 1  15  -1
M  END
> <minimizedAffinity>
-4.85972

$$$$
5WCM_4NZ_A_307


 15 15  0  0  0  0  0  0  0  0999 V2000
   39.7865   23.0076   54.5566 C   0  0  0  0  0  0  0  0  0  0  0  0
   41.1433   22.7818   54.6884 C   0  0  0  0  0  0  0  0  0  0  0  0
   41.9663   23.8457   55.0211 C   0  0  0  0  0  0  0  0  0  0  0  0
   41.4146   25.1017   55.1921 C   0  0  0  0  0  0  0  0  0  0  0  0
   40.0497   25.3079   55.0759 C   0  0  0  0  0  0  0  0  0  0  0  0
   39.2243   24.2473   54.7703 C   0  0  0  0  0  0  0  0  0  0  0  0
   42.4195   26.4779   55.6253 S   0  0  0  0  0  0  0  0  0  0  0  0
   41.6129   27.7857   55.6832 N   0  0  0  0  0  0  0  0  0  0  0  0
   42.9265   26.2250   56.9326 O   0  0  0  0  0  0  0  0  0  0  0  0
   43.3786   26.6211   54.5800 O   0  0  0  0  0  0  0  0  0  0  0  0
   42.2317   28.5558   55.9370 H   0  0  0  0  0  0  0  0  0  0  0  0
   40.8742   27.6990   56.3812 H   0  0  0  0  0  0  0  0  0  0  0  0
   38.9320   21.9270   54.0531 N   0  0  0  0  0  0  0  0  0  0  0  0
   38.4396   22.0456   52.9465 O   0  0  0  0  0  0  0  0  0  0  0  0
   38.7601   20.9476   54.7647 O   0  0  0  0  0  0  0  0  0  0  0  0
  7  8  1  0  0  0
  7  9  2  0  0  0
  7 10  2  0  0  0
  7  4  1  0  0  0
  1  2  2  0  0  0
  1  6  1  0  0  0
  1 13  1  0  0  0
  2  3  1  0  0  0
  3  4  2  0  0  0
  4  5  1  0  0  0
  5  6  2  0  0  0
 13 14  2  0  0  0
 13 15  1  0  0  0
  8 11  1  0  0  0
  8 12  1  0  0  0
M  CHG 1  13   1
M  CHG 1  15  -1
M  END
> <minimizedAffinity>
-4.69485

$$$$
5WCM_4NZ_A_307


 15 15  0  0  0  0  0  0  0  0999 V2000
   42.8106   24.9487   55.1424 C   0  0  0  0  0  0  0  0  0  0  0  0
   43.7550   25.8747   54.7425 C   0  0  0  0  0  0  0  0  0  0  0  0
   44.6510   25.5242   53.7454 C   0  0  0  0  0  0  0  0  0  0  0  0
   44.5900   24.2580   53.1938 C   0  0  0  0  0  0  0  0  0  0  0  0
   43.6247   23.3477   53.5917 C   0  0  0  0  0  0  0  0  0  0  0  0
   42.7152   23.7011   54.5651 C   0  0  0  0  0  0  0  0  0  0  0  0
   45.6999   23.7741   51.9190 S   0  0  0  0  0  0  0  0  0  0  0  0
   46.6804   24.8994   51.5498 N   0  0  0  0  0  0  0  0  0  0  0  0
   46.4646   22.6846   52.4273 O   0  0  0  0  0  0  0  0  0  0  0  0
   44.9013   23.5167   50.7660 O   0  0  0  0  0  0  0  0  0  0  0  0
   47.3039   24.5778   50.8093 H   0  0  0  0  0  0  0  0  0  0  0  0
   47.2301   25.1542   52.3703 H   0  0  0  0  0  0  0  0  0  0  0  0
   41.9633   25.2526   56.3003 N   0  0  0  0  0  0  0  0  0  0  0  0
   42.4979   25.4288   57.3792 O   0  0  0  0  0  0  0  0  0  0  0  0
   40.7549   25.3262   56.1281 O   0  0  0  0  0  0  0  0  0  0  0  0
  7  8  1  0  0  0
  7  9  2  0  0  0
  7 10  2  0  0  0
  7  4  1  0  0  0
  1  2  2  0  0  0
  1  6  1  0  0  0
  1 13  1  0  0  0
  2  3  1  0  0  0
  3  4  2  0  0  0
  4  5  1  0  0  0
  5  6  2  0  0  0
 13 14  2  0  0  0
 13 15  1  0  0  0
  8 11  1  0  0  0
  8 12  1  0  0  0
M  CHG 1  13   1
M  CHG 1  15  -1
M  END
> <minimizedAffinity>
-4.57831

$$$$
