5W44_GY6_A_302


 37 40  0  0  0  0  0  0  0  0999 V2000
  -10.6811   81.4238   16.4926 C   0  0  0  0  0  0  0  0  0  0  0  0
   -9.9304   79.2968   15.9998 C   0  0  0  0  0  0  0  0  0  0  0  0
   -9.7205   79.0273   17.3224 C   0  0  0  0  0  0  0  0  0  0  0  0
  -10.0173   79.9961   18.2866 C   0  0  0  0  0  0  0  0  0  0  0  0
  -10.4099   80.4815   15.5853 N   0  0  0  0  0  0  0  0  0  0  0  0
  -10.5021   81.1982   17.8247 N   0  0  0  0  0  0  0  0  0  0  0  0
   -9.2557   77.8578   17.7847 O   0  0  0  0  0  0  0  0  0  0  0  0
   -9.8593   79.8356   19.5041 O   0  0  0  0  0  0  0  0  0  0  0  0
  -10.7239   81.9090   18.4688 H   0  0  0  0  0  0  0  0  0  0  0  0
   -9.1327   77.7335   18.7053 H   0  0  0  0  0  0  0  0  0  0  0  0
  -12.3181   82.1560   13.9898 C   0  0  0  0  0  0  0  0  0  0  0  0
  -12.6323   82.6316   15.3979 C   0  0  0  0  0  0  0  0  0  0  0  0
  -11.2253   82.7452   16.0012 C   0  0  0  0  0  0  0  0  0  0  0  0
  -11.1720   83.0666   13.5912 C   0  0  0  0  0  0  0  0  0  0  0  0
   -9.2837   83.9154   14.9691 C   0  0  0  0  0  0  0  0  0  0  0  0
  -10.4721   83.3050   14.8648 N   0  0  0  0  0  0  0  0  0  0  0  0
   -8.6633   83.9370   16.0306 O   0  0  0  0  0  0  0  0  0  0  0  0
   -7.7088   85.8236   11.4565 C   0  0  0  0  0  0  0  0  0  0  0  0
   -7.4415   84.4938   11.6800 C   0  0  0  0  0  0  0  0  0  0  0  0
   -7.9472   83.8772   12.8095 C   0  0  0  0  0  0  0  0  0  0  0  0
   -8.7226   84.5692   13.7395 C   0  0  0  0  0  0  0  0  0  0  0  0
   -8.9743   85.9145   13.4743 C   0  0  0  0  0  0  0  0  0  0  0  0
   -8.4728   86.5414   12.3475 C   0  0  0  0  0  0  0  0  0  0  0  0
   -7.5836   82.1962   13.0467 Cl  0  0  0  0  0  0  0  0  0  0  0  0
   -9.9310   86.8553   14.5771 Cl  0  0  0  0  0  0  0  0  0  0  0  0
   -9.6437   78.2518   14.9506 C   0  0  0  0  0  0  0  0  0  0  0  0
   -9.4723   78.6963   13.7053 N   0  0  0  0  0  0  0  0  0  0  0  0
   -9.6496   77.0564   15.2373 O   0  0  0  0  0  0  0  0  0  0  0  0
   -9.2685   79.6469   13.5502 H   0  0  0  0  0  0  0  0  0  0  0  0
   -9.5840   77.7860   12.5700 C   0  0  0  0  0  0  0  0  0  0  0  0
  -10.0346   78.4786   11.3106 C   0  0  0  0  0  0  0  0  0  0  0  0
   -7.0716   81.1315    9.6860 C   0  0  0  0  0  0  0  0  0  0  0  0
   -6.6849   79.9435   10.2624 C   0  0  0  0  0  0  0  0  0  0  0  0
   -7.6355   79.0828   10.7881 C   0  0  0  0  0  0  0  0  0  0  0  0
   -8.9836   79.4070   10.7486 C   0  0  0  0  0  0  0  0  0  0  0  0
   -9.3562   80.6049   10.1606 C   0  0  0  0  0  0  0  0  0  0  0  0
   -8.4036   81.4631    9.6347 C   0  0  0  0  0  0  0  0  0  0  0  0
 25 22  1  0  0  0
 23 22  2  0  0  0
 23 18  1  0  0  0
 22 21  1  0  0  0
 17 15  2  0  0  0
 18 19  2  0  0  0
 21 15  1  0  0  0
 21 20  2  0  0  0
 15 16  1  0  0  0
 19 20  1  0  0  0
 16 13  1  0  0  0
 16 14  1  0  0  0
 20 24  1  0  0  0
 13 12  1  0  0  0
 13  1  1  0  0  0
 12 11  1  0  0  0
 14 11  1  0  0  0
  6  1  1  0  0  0
  6  4  1  0  0  0
  1  5  2  0  0  0
  8  4  2  0  0  0
  4  3  1  0  0  0
  5  2  1  0  0  0
  3  2  2  0  0  0
  3  7  1  0  0  0
  2 26  1  0  0  0
 37 32  2  0  0  0
 37 36  1  0  0  0
 32 33  1  0  0  0
 36 35  2  0  0  0
 27 26  1  0  0  0
 27 30  1  0  0  0
 26 28  2  0  0  0
 33 34  2  0  0  0
 35 34  1  0  0  0
 35 31  1  0  0  0
 30 31  1  0  0  0
  6  9  1  0  0  0
 27 29  1  0  0  0
  7 10  1  0  0  0
M  END
> <minimizedAffinity>
-8.84025

$$$$
5W44_GY6_A_302


 37 40  0  0  0  0  0  0  0  0999 V2000
  -10.6498   81.4091   16.5014 C   0  0  0  0  0  0  0  0  0  0  0  0
   -9.9164   79.2747   16.0149 C   0  0  0  0  0  0  0  0  0  0  0  0
   -9.7105   79.0067   17.3384 C   0  0  0  0  0  0  0  0  0  0  0  0
  -10.0004   79.9803   18.2998 C   0  0  0  0  0  0  0  0  0  0  0  0
  -10.3854   80.4623   15.5968 N   0  0  0  0  0  0  0  0  0  0  0  0
  -10.4744   81.1854   17.8343 N   0  0  0  0  0  0  0  0  0  0  0  0
   -9.2561   77.8344   17.8043 O   0  0  0  0  0  0  0  0  0  0  0  0
   -9.8452   79.8216   19.5179 O   0  0  0  0  0  0  0  0  0  0  0  0
  -10.6911   81.8995   18.4764 H   0  0  0  0  0  0  0  0  0  0  0  0
   -9.1353   77.7114   18.7253 H   0  0  0  0  0  0  0  0  0  0  0  0
  -12.2897   82.1466   14.0022 C   0  0  0  0  0  0  0  0  0  0  0  0
  -12.5929   82.6322   15.4093 C   0  0  0  0  0  0  0  0  0  0  0  0
  -11.1822   82.7338   16.0061 C   0  0  0  0  0  0  0  0  0  0  0  0
  -11.1359   83.0433   13.5943 C   0  0  0  0  0  0  0  0  0  0  0  0
   -9.2329   83.8787   14.9602 C   0  0  0  0  0  0  0  0  0  0  0  0
  -10.4280   83.2803   14.8638 N   0  0  0  0  0  0  0  0  0  0  0  0
   -8.6077   83.8987   16.0189 O   0  0  0  0  0  0  0  0  0  0  0  0
   -7.5918   85.6790   11.4210 C   0  0  0  0  0  0  0  0  0  0  0  0
   -8.3738   86.4342   12.2624 C   0  0  0  0  0  0  0  0  0  0  0  0
   -8.9030   85.8574   13.4022 C   0  0  0  0  0  0  0  0  0  0  0  0
   -8.6703   84.5207   13.7251 C   0  0  0  0  0  0  0  0  0  0  0  0
   -7.8690   83.7905   12.8486 C   0  0  0  0  0  0  0  0  0  0  0  0
   -7.3349   84.3577   11.7052 C   0  0  0  0  0  0  0  0  0  0  0  0
   -9.8827   86.8523   14.4340 Cl  0  0  0  0  0  0  0  0  0  0  0  0
   -7.5252   82.1188   13.1707 Cl  0  0  0  0  0  0  0  0  0  0  0  0
   -9.6372   78.2246   14.9687 C   0  0  0  0  0  0  0  0  0  0  0  0
   -9.4642   78.6643   13.7218 N   0  0  0  0  0  0  0  0  0  0  0  0
   -9.6501   77.0303   15.2590 O   0  0  0  0  0  0  0  0  0  0  0  0
   -9.2548   79.6131   13.5636 H   0  0  0  0  0  0  0  0  0  0  0  0
   -9.5828   77.7512   12.5894 C   0  0  0  0  0  0  0  0  0  0  0  0
  -10.0271   78.4432   11.3275 C   0  0  0  0  0  0  0  0  0  0  0  0
   -7.0692   81.1211    9.7350 C   0  0  0  0  0  0  0  0  0  0  0  0
   -6.6802   79.9273   10.2977 C   0  0  0  0  0  0  0  0  0  0  0  0
   -7.6292   79.0585   10.8130 C   0  0  0  0  0  0  0  0  0  0  0  0
   -8.9779   79.3803   10.7767 C   0  0  0  0  0  0  0  0  0  0  0  0
   -9.3528   80.5841   10.2026 C   0  0  0  0  0  0  0  0  0  0  0  0
   -8.4019   81.4505    9.6870 C   0  0  0  0  0  0  0  0  0  0  0  0
 25 22  1  0  0  0
 23 22  2  0  0  0
 23 18  1  0  0  0
 22 21  1  0  0  0
 17 15  2  0  0  0
 18 19  2  0  0  0
 21 15  1  0  0  0
 21 20  2  0  0  0
 15 16  1  0  0  0
 19 20  1  0  0  0
 16 13  1  0  0  0
 16 14  1  0  0  0
 20 24  1  0  0  0
 13 12  1  0  0  0
 13  1  1  0  0  0
 12 11  1  0  0  0
 14 11  1  0  0  0
  6  1  1  0  0  0
  6  4  1  0  0  0
  1  5  2  0  0  0
  8  4  2  0  0  0
  4  3  1  0  0  0
  5  2  1  0  0  0
  3  2  2  0  0  0
  3  7  1  0  0  0
  2 26  1  0  0  0
 37 32  2  0  0  0
 37 36  1  0  0  0
 32 33  1  0  0  0
 36 35  2  0  0  0
 27 26  1  0  0  0
 27 30  1  0  0  0
 26 28  2  0  0  0
 33 34  2  0  0  0
 35 34  1  0  0  0
 35 31  1  0  0  0
 30 31  1  0  0  0
  6  9  1  0  0  0
 27 29  1  0  0  0
  7 10  1  0  0  0
M  END
> <minimizedAffinity>
-8.78532

$$$$
5W44_GY6_A_302


 37 40  0  0  0  0  0  0  0  0999 V2000
   -9.8558   80.1539   13.5749 C   0  0  0  0  0  0  0  0  0  0  0  0
  -10.3101   80.7919   15.7467 C   0  0  0  0  0  0  0  0  0  0  0  0
  -10.1713   79.5072   16.1896 C   0  0  0  0  0  0  0  0  0  0  0  0
   -9.8440   78.4904   15.2867 C   0  0  0  0  0  0  0  0  0  0  0  0
  -10.1507   81.1167   14.4528 N   0  0  0  0  0  0  0  0  0  0  0  0
   -9.6930   78.8596   13.9697 N   0  0  0  0  0  0  0  0  0  0  0  0
  -10.3087   79.1367   17.4708 O   0  0  0  0  0  0  0  0  0  0  0  0
   -9.6979   77.3020   15.6018 O   0  0  0  0  0  0  0  0  0  0  0  0
   -9.4629   78.1758   13.2998 H   0  0  0  0  0  0  0  0  0  0  0  0
  -10.2012   78.2379   17.7127 H   0  0  0  0  0  0  0  0  0  0  0  0
  -10.0482   78.5159   10.9749 C   0  0  0  0  0  0  0  0  0  0  0  0
  -10.6897   79.8763   11.1891 C   0  0  0  0  0  0  0  0  0  0  0  0
   -9.6754   80.5461   12.1267 C   0  0  0  0  0  0  0  0  0  0  0  0
   -8.5981   78.8811   10.7189 C   0  0  0  0  0  0  0  0  0  0  0  0
   -7.2119   80.6556   11.7748 C   0  0  0  0  0  0  0  0  0  0  0  0
   -8.4020   80.0834   11.5466 N   0  0  0  0  0  0  0  0  0  0  0  0
   -7.0783   81.5505   12.6075 O   0  0  0  0  0  0  0  0  0  0  0  0
   -3.8254   79.2209    9.5538 C   0  0  0  0  0  0  0  0  0  0  0  0
   -4.6313   80.1902    9.0053 C   0  0  0  0  0  0  0  0  0  0  0  0
   -5.7217   80.6538    9.7180 C   0  0  0  0  0  0  0  0  0  0  0  0
   -6.0349   80.1613   10.9846 C   0  0  0  0  0  0  0  0  0  0  0  0
   -5.1908   79.1825   11.5071 C   0  0  0  0  0  0  0  0  0  0  0  0
   -4.0975   78.7111   10.8023 C   0  0  0  0  0  0  0  0  0  0  0  0
   -6.7081   81.8793    8.9837 Cl  0  0  0  0  0  0  0  0  0  0  0  0
   -5.5034   78.5113   13.0783 Cl  0  0  0  0  0  0  0  0  0  0  0  0
  -10.6331   81.9041   16.7130 C   0  0  0  0  0  0  0  0  0  0  0  0
   -9.8604   81.9886   17.7964 N   0  0  0  0  0  0  0  0  0  0  0  0
  -11.6071   82.6315   16.5301 O   0  0  0  0  0  0  0  0  0  0  0  0
   -8.9846   81.5390   17.8073 H   0  0  0  0  0  0  0  0  0  0  0  0
  -10.3015   82.7415   18.9662 C   0  0  0  0  0  0  0  0  0  0  0  0
  -10.9057   81.8631   20.0301 C   0  0  0  0  0  0  0  0  0  0  0  0
  -14.7426   83.2858   21.3382 C   0  0  0  0  0  0  0  0  0  0  0  0
  -14.3879   81.9743   21.5556 C   0  0  0  0  0  0  0  0  0  0  0  0
  -13.1515   81.5088   21.1366 C   0  0  0  0  0  0  0  0  0  0  0  0
  -12.2602   82.3508   20.4883 C   0  0  0  0  0  0  0  0  0  0  0  0
  -12.6313   83.6695   20.2813 C   0  0  0  0  0  0  0  0  0  0  0  0
  -13.8678   84.1326   20.7024 C   0  0  0  0  0  0  0  0  0  0  0  0
 25 22  1  0  0  0
 23 22  2  0  0  0
 23 18  1  0  0  0
 22 21  1  0  0  0
 17 15  2  0  0  0
 18 19  2  0  0  0
 21 15  1  0  0  0
 21 20  2  0  0  0
 15 16  1  0  0  0
 19 20  1  0  0  0
 16 13  1  0  0  0
 16 14  1  0  0  0
 20 24  1  0  0  0
 13 12  1  0  0  0
 13  1  1  0  0  0
 12 11  1  0  0  0
 14 11  1  0  0  0
  6  1  1  0  0  0
  6  4  1  0  0  0
  1  5  2  0  0  0
  8  4  2  0  0  0
  4  3  1  0  0  0
  5  2  1  0  0  0
  3  2  2  0  0  0
  3  7  1  0  0  0
  2 26  1  0  0  0
 37 32  2  0  0  0
 37 36  1  0  0  0
 32 33  1  0  0  0
 36 35  2  0  0  0
 27 26  1  0  0  0
 27 30  1  0  0  0
 26 28  2  0  0  0
 33 34  2  0  0  0
 35 34  1  0  0  0
 35 31  1  0  0  0
 30 31  1  0  0  0
  6  9  1  0  0  0
 27 29  1  0  0  0
  7 10  1  0  0  0
M  END
> <minimizedAffinity>
-8.55581

$$$$
5W44_GY6_A_302


 37 40  0  0  0  0  0  0  0  0999 V2000
   -9.6731   79.7993   13.5700 C   0  0  0  0  0  0  0  0  0  0  0  0
   -9.9603   80.0122   15.8509 C   0  0  0  0  0  0  0  0  0  0  0  0
   -9.8625   78.6608   16.0240 C   0  0  0  0  0  0  0  0  0  0  0  0
   -9.6445   77.8307   14.9196 C   0  0  0  0  0  0  0  0  0  0  0  0
   -9.8630   80.5802   14.6372 N   0  0  0  0  0  0  0  0  0  0  0  0
   -9.5547   78.4472   13.6925 N   0  0  0  0  0  0  0  0  0  0  0  0
   -9.9411   78.0497   17.2148 O   0  0  0  0  0  0  0  0  0  0  0  0
   -9.5422   76.5987   14.9860 O   0  0  0  0  0  0  0  0  0  0  0  0
   -9.4021   77.9010   12.8878 H   0  0  0  0  0  0  0  0  0  0  0  0
   -9.8663   77.1172   17.2688 H   0  0  0  0  0  0  0  0  0  0  0  0
  -10.0889   78.7121   10.7196 C   0  0  0  0  0  0  0  0  0  0  0  0
  -10.6565   80.0232   11.2361 C   0  0  0  0  0  0  0  0  0  0  0  0
   -9.5607   80.4631   12.2171 C   0  0  0  0  0  0  0  0  0  0  0  0
   -8.6417   79.0746   10.4444 C   0  0  0  0  0  0  0  0  0  0  0  0
   -7.1196   80.5619   11.7314 C   0  0  0  0  0  0  0  0  0  0  0  0
   -8.3449   80.0837   11.4753 N   0  0  0  0  0  0  0  0  0  0  0  0
   -6.8984   81.2708   12.7116 O   0  0  0  0  0  0  0  0  0  0  0  0
   -3.9334   79.4889    9.0562 C   0  0  0  0  0  0  0  0  0  0  0  0
   -4.7743   80.5245    8.7240 C   0  0  0  0  0  0  0  0  0  0  0  0
   -5.8004   80.8720    9.5832 C   0  0  0  0  0  0  0  0  0  0  0  0
   -6.0137   80.1960   10.7843 C   0  0  0  0  0  0  0  0  0  0  0  0
   -5.1368   79.1551   11.0864 C   0  0  0  0  0  0  0  0  0  0  0  0
   -4.1073   78.7988   10.2336 C   0  0  0  0  0  0  0  0  0  0  0  0
   -6.8346   82.1874    9.1203 Cl  0  0  0  0  0  0  0  0  0  0  0  0
   -5.3261   78.2575   12.5612 Cl  0  0  0  0  0  0  0  0  0  0  0  0
  -10.1652   80.9230   17.0357 C   0  0  0  0  0  0  0  0  0  0  0  0
  -11.2139   81.7442   16.9753 N   0  0  0  0  0  0  0  0  0  0  0  0
   -9.3538   80.9441   17.9588 O   0  0  0  0  0  0  0  0  0  0  0  0
  -11.9426   81.5591   16.3397 H   0  0  0  0  0  0  0  0  0  0  0  0
  -11.2910   82.9150   17.8431 C   0  0  0  0  0  0  0  0  0  0  0  0
  -12.0119   84.0704   17.1995 C   0  0  0  0  0  0  0  0  0  0  0  0
   -9.9985   85.5693   13.7130 C   0  0  0  0  0  0  0  0  0  0  0  0
  -10.8929   84.5307   13.5938 C   0  0  0  0  0  0  0  0  0  0  0  0
  -11.5463   84.0425   14.7143 C   0  0  0  0  0  0  0  0  0  0  0  0
  -11.3045   84.5850   15.9678 C   0  0  0  0  0  0  0  0  0  0  0  0
  -10.4044   85.6332   16.0695 C   0  0  0  0  0  0  0  0  0  0  0  0
   -9.7533   86.1202   14.9472 C   0  0  0  0  0  0  0  0  0  0  0  0
 25 22  1  0  0  0
 23 22  2  0  0  0
 23 18  1  0  0  0
 22 21  1  0  0  0
 17 15  2  0  0  0
 18 19  2  0  0  0
 21 15  1  0  0  0
 21 20  2  0  0  0
 15 16  1  0  0  0
 19 20  1  0  0  0
 16 13  1  0  0  0
 16 14  1  0  0  0
 20 24  1  0  0  0
 13 12  1  0  0  0
 13  1  1  0  0  0
 12 11  1  0  0  0
 14 11  1  0  0  0
  6  1  1  0  0  0
  6  4  1  0  0  0
  1  5  2  0  0  0
  8  4  2  0  0  0
  4  3  1  0  0  0
  5  2  1  0  0  0
  3  2  2  0  0  0
  3  7  1  0  0  0
  2 26  1  0  0  0
 37 32  2  0  0  0
 37 36  1  0  0  0
 32 33  1  0  0  0
 36 35  2  0  0  0
 27 26  1  0  0  0
 27 30  1  0  0  0
 26 28  2  0  0  0
 33 34  2  0  0  0
 35 34  1  0  0  0
 35 31  1  0  0  0
 30 31  1  0  0  0
  6  9  1  0  0  0
 27 29  1  0  0  0
  7 10  1  0  0  0
M  END
> <minimizedAffinity>
-8.18949

$$$$
5W44_GY6_A_302


 37 40  0  0  0  0  0  0  0  0999 V2000
  -10.0161   79.7970   13.0122 C   0  0  0  0  0  0  0  0  0  0  0  0
  -10.7112   81.0559   14.8184 C   0  0  0  0  0  0  0  0  0  0  0  0
  -10.5019   80.0099   15.6717 C   0  0  0  0  0  0  0  0  0  0  0  0
  -10.0111   78.7963   15.1792 C   0  0  0  0  0  0  0  0  0  0  0  0
  -10.4679   80.9554   13.5009 N   0  0  0  0  0  0  0  0  0  0  0  0
   -9.7780   78.7291   13.8247 N   0  0  0  0  0  0  0  0  0  0  0  0
  -10.7184   80.0658   16.9937 O   0  0  0  0  0  0  0  0  0  0  0  0
   -9.7918   77.7998   15.8805 O   0  0  0  0  0  0  0  0  0  0  0  0
   -9.4327   77.8935   13.4351 H   0  0  0  0  0  0  0  0  0  0  0  0
  -10.5557   79.3130   17.5273 H   0  0  0  0  0  0  0  0  0  0  0  0
   -9.2785   77.4172   11.2033 C   0  0  0  0  0  0  0  0  0  0  0  0
  -10.3388   78.4551   10.8769 C   0  0  0  0  0  0  0  0  0  0  0  0
   -9.7444   79.7117   11.5281 C   0  0  0  0  0  0  0  0  0  0  0  0
   -7.9945   78.1548   10.8734 C   0  0  0  0  0  0  0  0  0  0  0  0
   -7.4159   80.5465   11.2348 C   0  0  0  0  0  0  0  0  0  0  0  0
   -8.3161   79.5544   11.2002 N   0  0  0  0  0  0  0  0  0  0  0  0
   -7.7006   81.6574   11.6785 O   0  0  0  0  0  0  0  0  0  0  0  0
   -3.4809   79.7241    9.7183 C   0  0  0  0  0  0  0  0  0  0  0  0
   -3.7901   79.3841   11.0139 C   0  0  0  0  0  0  0  0  0  0  0  0
   -5.0557   79.6474   11.5044 C   0  0  0  0  0  0  0  0  0  0  0  0
   -6.0353   80.2567   10.7207 C   0  0  0  0  0  0  0  0  0  0  0  0
   -5.6835   80.5819    9.4115 C   0  0  0  0  0  0  0  0  0  0  0  0
   -4.4199   80.3234    8.9108 C   0  0  0  0  0  0  0  0  0  0  0  0
   -5.3983   79.1981   13.1460 Cl  0  0  0  0  0  0  0  0  0  0  0  0
   -6.8398   81.3432    8.3627 Cl  0  0  0  0  0  0  0  0  0  0  0  0
  -11.2114   82.3803   15.3389 C   0  0  0  0  0  0  0  0  0  0  0  0
  -10.9577   83.4471   14.5804 N   0  0  0  0  0  0  0  0  0  0  0  0
  -11.7517   82.4582   16.4403 O   0  0  0  0  0  0  0  0  0  0  0  0
  -10.7189   83.3265   13.6329 H   0  0  0  0  0  0  0  0  0  0  0  0
  -11.0310   84.7920   15.1423 C   0  0  0  0  0  0  0  0  0  0  0  0
   -9.7162   85.2582   15.7103 C   0  0  0  0  0  0  0  0  0  0  0  0
   -7.2165   87.0780   12.7277 C   0  0  0  0  0  0  0  0  0  0  0  0
   -6.6499   86.5363   13.8585 C   0  0  0  0  0  0  0  0  0  0  0  0
   -7.4504   85.9473   14.8245 C   0  0  0  0  0  0  0  0  0  0  0  0
   -8.8282   85.9017   14.6712 C   0  0  0  0  0  0  0  0  0  0  0  0
   -9.3820   86.4477   13.5247 C   0  0  0  0  0  0  0  0  0  0  0  0
   -8.5790   87.0350   12.5598 C   0  0  0  0  0  0  0  0  0  0  0  0
 25 22  1  0  0  0
 23 22  2  0  0  0
 23 18  1  0  0  0
 22 21  1  0  0  0
 17 15  2  0  0  0
 18 19  2  0  0  0
 21 15  1  0  0  0
 21 20  2  0  0  0
 15 16  1  0  0  0
 19 20  1  0  0  0
 16 13  1  0  0  0
 16 14  1  0  0  0
 20 24  1  0  0  0
 13 12  1  0  0  0
 13  1  1  0  0  0
 12 11  1  0  0  0
 14 11  1  0  0  0
  6  1  1  0  0  0
  6  4  1  0  0  0
  1  5  2  0  0  0
  8  4  2  0  0  0
  4  3  1  0  0  0
  5  2  1  0  0  0
  3  2  2  0  0  0
  3  7  1  0  0  0
  2 26  1  0  0  0
 37 32  2  0  0  0
 37 36  1  0  0  0
 32 33  1  0  0  0
 36 35  2  0  0  0
 27 26  1  0  0  0
 27 30  1  0  0  0
 26 28  2  0  0  0
 33 34  2  0  0  0
 35 34  1  0  0  0
 35 31  1  0  0  0
 30 31  1  0  0  0
  6  9  1  0  0  0
 27 29  1  0  0  0
  7 10  1  0  0  0
M  END
> <minimizedAffinity>
-8.13241

$$$$
5W44_GY6_A_302


 37 40  0  0  0  0  0  0  0  0999 V2000
  -10.8223   82.9467   14.9439 C   0  0  0  0  0  0  0  0  0  0  0  0
  -12.6085   84.0994   15.8444 C   0  0  0  0  0  0  0  0  0  0  0  0
  -13.4996   83.3159   15.1678 C   0  0  0  0  0  0  0  0  0  0  0  0
  -13.0359   82.2834   14.3460 C   0  0  0  0  0  0  0  0  0  0  0  0
  -11.2815   83.9170   15.7391 N   0  0  0  0  0  0  0  0  0  0  0  0
  -11.6712   82.1294   14.2593 N   0  0  0  0  0  0  0  0  0  0  0  0
  -14.8309   83.4517   15.2501 O   0  0  0  0  0  0  0  0  0  0  0  0
  -13.7720   81.5265   13.6993 O   0  0  0  0  0  0  0  0  0  0  0  0
  -11.3011   81.4152   13.6917 H   0  0  0  0  0  0  0  0  0  0  0  0
  -15.3911   82.8822   14.7603 H   0  0  0  0  0  0  0  0  0  0  0  0
   -8.7615   83.9667   12.8964 C   0  0  0  0  0  0  0  0  0  0  0  0
   -8.5849   84.0269   14.4041 C   0  0  0  0  0  0  0  0  0  0  0  0
   -9.3261   82.7579   14.8476 C   0  0  0  0  0  0  0  0  0  0  0  0
   -8.4460   82.5141   12.5936 C   0  0  0  0  0  0  0  0  0  0  0  0
   -9.0086   80.4754   13.9021 C   0  0  0  0  0  0  0  0  0  0  0  0
   -8.9199   81.8082   13.7962 N   0  0  0  0  0  0  0  0  0  0  0  0
   -9.5695   79.9426   14.8580 O   0  0  0  0  0  0  0  0  0  0  0  0
   -7.3310   78.0897   10.7470 C   0  0  0  0  0  0  0  0  0  0  0  0
   -6.5565   78.4093   11.8370 C   0  0  0  0  0  0  0  0  0  0  0  0
   -7.0940   79.1767   12.8538 C   0  0  0  0  0  0  0  0  0  0  0  0
   -8.4069   79.6448   12.8057 C   0  0  0  0  0  0  0  0  0  0  0  0
   -9.1603   79.2954   11.6859 C   0  0  0  0  0  0  0  0  0  0  0  0
   -8.6322   78.5285   10.6626 C   0  0  0  0  0  0  0  0  0  0  0  0
   -6.0769   79.5523   14.2098 Cl  0  0  0  0  0  0  0  0  0  0  0  0
  -10.8053   79.8336   11.5408 Cl  0  0  0  0  0  0  0  0  0  0  0  0
  -13.0939   85.1973   16.7578 C   0  0  0  0  0  0  0  0  0  0  0  0
  -12.2677   85.5564   17.7409 N   0  0  0  0  0  0  0  0  0  0  0  0
  -14.2232   85.6658   16.6311 O   0  0  0  0  0  0  0  0  0  0  0  0
  -11.3138   85.3187   17.6879 H   0  0  0  0  0  0  0  0  0  0  0  0
  -12.7651   86.2987   18.8948 C   0  0  0  0  0  0  0  0  0  0  0  0
  -12.2457   85.7596   20.2018 C   0  0  0  0  0  0  0  0  0  0  0  0
  -14.0202   81.9909   21.2528 C   0  0  0  0  0  0  0  0  0  0  0  0
  -14.7677   83.1438   21.3253 C   0  0  0  0  0  0  0  0  0  0  0  0
  -14.2016   84.3629   20.9873 C   0  0  0  0  0  0  0  0  0  0  0  0
  -12.8779   84.4408   20.5803 C   0  0  0  0  0  0  0  0  0  0  0  0
  -12.1408   83.2699   20.5086 C   0  0  0  0  0  0  0  0  0  0  0  0
  -12.7096   82.0521   20.8460 C   0  0  0  0  0  0  0  0  0  0  0  0
 25 22  1  0  0  0
 23 22  2  0  0  0
 23 18  1  0  0  0
 22 21  1  0  0  0
 17 15  2  0  0  0
 18 19  2  0  0  0
 21 15  1  0  0  0
 21 20  2  0  0  0
 15 16  1  0  0  0
 19 20  1  0  0  0
 16 13  1  0  0  0
 16 14  1  0  0  0
 20 24  1  0  0  0
 13 12  1  0  0  0
 13  1  1  0  0  0
 12 11  1  0  0  0
 14 11  1  0  0  0
  6  1  1  0  0  0
  6  4  1  0  0  0
  1  5  2  0  0  0
  8  4  2  0  0  0
  4  3  1  0  0  0
  5  2  1  0  0  0
  3  2  2  0  0  0
  3  7  1  0  0  0
  2 26  1  0  0  0
 37 32  2  0  0  0
 37 36  1  0  0  0
 32 33  1  0  0  0
 36 35  2  0  0  0
 27 26  1  0  0  0
 27 30  1  0  0  0
 26 28  2  0  0  0
 33 34  2  0  0  0
 35 34  1  0  0  0
 35 31  1  0  0  0
 30 31  1  0  0  0
  6  9  1  0  0  0
 27 29  1  0  0  0
  7 10  1  0  0  0
M  END
> <minimizedAffinity>
-8.11779

$$$$
5W44_GY6_A_302


 37 40  0  0  0  0  0  0  0  0999 V2000
  -12.1696   84.0277   16.6517 C   0  0  0  0  0  0  0  0  0  0  0  0
  -11.8345   82.0297   15.5444 C   0  0  0  0  0  0  0  0  0  0  0  0
  -12.9725   82.2063   14.8099 C   0  0  0  0  0  0  0  0  0  0  0  0
  -13.7465   83.3573   14.9900 C   0  0  0  0  0  0  0  0  0  0  0  0
  -11.4314   82.9317   16.4550 N   0  0  0  0  0  0  0  0  0  0  0  0
  -13.3053   84.2562   15.9339 N   0  0  0  0  0  0  0  0  0  0  0  0
  -13.4083   81.3414   13.8827 O   0  0  0  0  0  0  0  0  0  0  0  0
  -14.7891   83.5977   14.3670 O   0  0  0  0  0  0  0  0  0  0  0  0
  -13.8199   85.0802   16.0936 H   0  0  0  0  0  0  0  0  0  0  0  0
  -14.1981   81.5189   13.4109 H   0  0  0  0  0  0  0  0  0  0  0  0
   -9.4434   85.4024   17.0487 C   0  0  0  0  0  0  0  0  0  0  0  0
  -10.7843   86.1157   17.0819 C   0  0  0  0  0  0  0  0  0  0  0  0
  -11.6915   85.0297   17.6769 C   0  0  0  0  0  0  0  0  0  0  0  0
   -9.3919   84.7510   18.4179 C   0  0  0  0  0  0  0  0  0  0  0  0
  -11.2242   83.7003   19.7309 C   0  0  0  0  0  0  0  0  0  0  0  0
  -10.8050   84.4466   18.6999 N   0  0  0  0  0  0  0  0  0  0  0  0
  -12.3941   83.3334   19.8249 O   0  0  0  0  0  0  0  0  0  0  0  0
   -8.3276   82.6408   22.7221 C   0  0  0  0  0  0  0  0  0  0  0  0
   -8.6305   81.7419   21.7269 C   0  0  0  0  0  0  0  0  0  0  0  0
   -9.5622   82.0804   20.7630 C   0  0  0  0  0  0  0  0  0  0  0  0
  -10.2132   83.3138   20.7714 C   0  0  0  0  0  0  0  0  0  0  0  0
   -9.8750   84.1984   21.7944 C   0  0  0  0  0  0  0  0  0  0  0  0
   -8.9446   83.8696   22.7643 C   0  0  0  0  0  0  0  0  0  0  0  0
   -9.9096   80.9125   19.5262 Cl  0  0  0  0  0  0  0  0  0  0  0  0
  -10.6351   85.7575   21.8841 Cl  0  0  0  0  0  0  0  0  0  0  0  0
  -10.9732   80.8084   15.3402 C   0  0  0  0  0  0  0  0  0  0  0  0
  -10.5705   80.5715   14.0913 N   0  0  0  0  0  0  0  0  0  0  0  0
  -10.7335   80.0460   16.2742 O   0  0  0  0  0  0  0  0  0  0  0  0
  -10.6006   81.2943   13.4236 H   0  0  0  0  0  0  0  0  0  0  0  0
  -10.0854   79.2502   13.7056 C   0  0  0  0  0  0  0  0  0  0  0  0
  -10.2087   78.9937   12.2265 C   0  0  0  0  0  0  0  0  0  0  0  0
   -7.1651   80.9539    9.9134 C   0  0  0  0  0  0  0  0  0  0  0  0
   -6.8081   80.0874   10.9207 C   0  0  0  0  0  0  0  0  0  0  0  0
   -7.7849   79.4513   11.6706 C   0  0  0  0  0  0  0  0  0  0  0  0
   -9.1300   79.6827   11.4239 C   0  0  0  0  0  0  0  0  0  0  0  0
   -9.4722   80.5545   10.4031 C   0  0  0  0  0  0  0  0  0  0  0  0
   -8.4935   81.1884    9.6541 C   0  0  0  0  0  0  0  0  0  0  0  0
 25 22  1  0  0  0
 23 22  2  0  0  0
 23 18  1  0  0  0
 22 21  1  0  0  0
 17 15  2  0  0  0
 18 19  2  0  0  0
 21 15  1  0  0  0
 21 20  2  0  0  0
 15 16  1  0  0  0
 19 20  1  0  0  0
 16 13  1  0  0  0
 16 14  1  0  0  0
 20 24  1  0  0  0
 13 12  1  0  0  0
 13  1  1  0  0  0
 12 11  1  0  0  0
 14 11  1  0  0  0
  6  1  1  0  0  0
  6  4  1  0  0  0
  1  5  2  0  0  0
  8  4  2  0  0  0
  4  3  1  0  0  0
  5  2  1  0  0  0
  3  2  2  0  0  0
  3  7  1  0  0  0
  2 26  1  0  0  0
 37 32  2  0  0  0
 37 36  1  0  0  0
 32 33  1  0  0  0
 36 35  2  0  0  0
 27 26  1  0  0  0
 27 30  1  0  0  0
 26 28  2  0  0  0
 33 34  2  0  0  0
 35 34  1  0  0  0
 35 31  1  0  0  0
 30 31  1  0  0  0
  6  9  1  0  0  0
 27 29  1  0  0  0
  7 10  1  0  0  0
M  END
> <minimizedAffinity>
-7.95823

$$$$
5W44_GY6_A_302


 37 40  0  0  0  0  0  0  0  0999 V2000
   -6.9030   80.0967   11.7671 C   0  0  0  0  0  0  0  0  0  0  0  0
   -8.8168   79.2302   12.7245 C   0  0  0  0  0  0  0  0  0  0  0  0
   -8.7040   78.0818   11.9934 C   0  0  0  0  0  0  0  0  0  0  0  0
   -7.6300   77.9195   11.1122 C   0  0  0  0  0  0  0  0  0  0  0  0
   -7.9243   80.2288   12.6180 N   0  0  0  0  0  0  0  0  0  0  0  0
   -6.7389   78.9646   11.0262 N   0  0  0  0  0  0  0  0  0  0  0  0
   -9.5615   77.0543   12.0740 O   0  0  0  0  0  0  0  0  0  0  0  0
   -7.4505   76.9130   10.4138 O   0  0  0  0  0  0  0  0  0  0  0  0
   -5.9682   78.8931   10.4179 H   0  0  0  0  0  0  0  0  0  0  0  0
   -9.4301   76.2919   11.5453 H   0  0  0  0  0  0  0  0  0  0  0  0
   -5.1596   81.4735   13.8989 C   0  0  0  0  0  0  0  0  0  0  0  0
   -4.6617   81.0166   12.5383 C   0  0  0  0  0  0  0  0  0  0  0  0
   -5.9096   81.2314   11.6704 C   0  0  0  0  0  0  0  0  0  0  0  0
   -5.8842   82.7625   13.5597 C   0  0  0  0  0  0  0  0  0  0  0  0
   -7.2849   83.3061   11.5779 C   0  0  0  0  0  0  0  0  0  0  0  0
   -6.4174   82.5049   12.2113 N   0  0  0  0  0  0  0  0  0  0  0  0
   -7.8305   82.9624   10.5308 O   0  0  0  0  0  0  0  0  0  0  0  0
   -8.0863   87.1441   13.3352 C   0  0  0  0  0  0  0  0  0  0  0  0
   -8.9920   86.1232   13.5005 C   0  0  0  0  0  0  0  0  0  0  0  0
   -8.7365   84.8870   12.9362 C   0  0  0  0  0  0  0  0  0  0  0  0
   -7.5812   84.6427   12.1942 C   0  0  0  0  0  0  0  0  0  0  0  0
   -6.6863   85.7024   12.0534 C   0  0  0  0  0  0  0  0  0  0  0  0
   -6.9324   86.9434   12.6134 C   0  0  0  0  0  0  0  0  0  0  0  0
   -9.9095   83.6294   13.1743 Cl  0  0  0  0  0  0  0  0  0  0  0  0
   -5.2206   85.4896   11.1461 Cl  0  0  0  0  0  0  0  0  0  0  0  0
   -9.9525   79.4074   13.7012 C   0  0  0  0  0  0  0  0  0  0  0  0
  -10.7718   80.4348   13.4745 N   0  0  0  0  0  0  0  0  0  0  0  0
  -10.0519   78.6801   14.6871 O   0  0  0  0  0  0  0  0  0  0  0  0
  -10.7905   80.8570   12.5853 H   0  0  0  0  0  0  0  0  0  0  0  0
  -11.6411   80.9387   14.5329 C   0  0  0  0  0  0  0  0  0  0  0  0
  -12.8573   81.6489   13.9987 C   0  0  0  0  0  0  0  0  0  0  0  0
  -13.8981   85.0835   16.3601 C   0  0  0  0  0  0  0  0  0  0  0  0
  -14.7760   84.6138   15.4105 C   0  0  0  0  0  0  0  0  0  0  0  0
  -14.4468   83.5059   14.6454 C   0  0  0  0  0  0  0  0  0  0  0  0
  -13.2308   82.8615   14.8187 C   0  0  0  0  0  0  0  0  0  0  0  0
  -12.3604   83.3447   15.7822 C   0  0  0  0  0  0  0  0  0  0  0  0
  -12.6927   84.4520   16.5466 C   0  0  0  0  0  0  0  0  0  0  0  0
 25 22  1  0  0  0
 23 22  2  0  0  0
 23 18  1  0  0  0
 22 21  1  0  0  0
 17 15  2  0  0  0
 18 19  2  0  0  0
 21 15  1  0  0  0
 21 20  2  0  0  0
 15 16  1  0  0  0
 19 20  1  0  0  0
 16 13  1  0  0  0
 16 14  1  0  0  0
 20 24  1  0  0  0
 13 12  1  0  0  0
 13  1  1  0  0  0
 12 11  1  0  0  0
 14 11  1  0  0  0
  6  1  1  0  0  0
  6  4  1  0  0  0
  1  5  2  0  0  0
  8  4  2  0  0  0
  4  3  1  0  0  0
  5  2  1  0  0  0
  3  2  2  0  0  0
  3  7  1  0  0  0
  2 26  1  0  0  0
 37 32  2  0  0  0
 37 36  1  0  0  0
 32 33  1  0  0  0
 36 35  2  0  0  0
 27 26  1  0  0  0
 27 30  1  0  0  0
 26 28  2  0  0  0
 33 34  2  0  0  0
 35 34  1  0  0  0
 35 31  1  0  0  0
 30 31  1  0  0  0
  6  9  1  0  0  0
 27 29  1  0  0  0
  7 10  1  0  0  0
M  END
> <minimizedAffinity>
-7.95060

$$$$
5W44_GY6_A_302


 37 40  0  0  0  0  0  0  0  0999 V2000
  -12.2015   84.0718   16.6612 C   0  0  0  0  0  0  0  0  0  0  0  0
  -11.9055   82.0910   15.5127 C   0  0  0  0  0  0  0  0  0  0  0  0
  -13.0586   82.2877   14.8073 C   0  0  0  0  0  0  0  0  0  0  0  0
  -13.8203   83.4405   15.0246 C   0  0  0  0  0  0  0  0  0  0  0  0
  -11.4756   82.9746   16.4290 N   0  0  0  0  0  0  0  0  0  0  0  0
  -13.3515   84.3201   15.9734 N   0  0  0  0  0  0  0  0  0  0  0  0
  -13.5214   81.4418   13.8757 O   0  0  0  0  0  0  0  0  0  0  0  0
  -14.8751   83.6985   14.4298 O   0  0  0  0  0  0  0  0  0  0  0  0
  -13.8566   85.1446   16.1588 H   0  0  0  0  0  0  0  0  0  0  0  0
  -14.3204   81.6326   13.4252 H   0  0  0  0  0  0  0  0  0  0  0  0
   -9.4562   85.4184   17.0216 C   0  0  0  0  0  0  0  0  0  0  0  0
  -10.7902   86.1415   17.0955 C   0  0  0  0  0  0  0  0  0  0  0  0
  -11.6932   85.0529   17.6921 C   0  0  0  0  0  0  0  0  0  0  0  0
   -9.3806   84.7440   18.3784 C   0  0  0  0  0  0  0  0  0  0  0  0
  -11.1926   83.6859   19.7133 C   0  0  0  0  0  0  0  0  0  0  0  0
  -10.7897   84.4460   18.6859 N   0  0  0  0  0  0  0  0  0  0  0  0
  -12.3632   83.3266   19.8266 O   0  0  0  0  0  0  0  0  0  0  0  0
   -8.2494   82.4618   22.5942 C   0  0  0  0  0  0  0  0  0  0  0  0
   -8.8377   83.6986   22.7134 C   0  0  0  0  0  0  0  0  0  0  0  0
   -9.7852   84.0950   21.7877 C   0  0  0  0  0  0  0  0  0  0  0  0
  -10.1627   83.2742   20.7252 C   0  0  0  0  0  0  0  0  0  0  0  0
   -9.5461   82.0266   20.6421 C   0  0  0  0  0  0  0  0  0  0  0  0
   -8.5964   81.6203   21.5626 C   0  0  0  0  0  0  0  0  0  0  0  0
  -10.5006   85.6649   21.9818 Cl  0  0  0  0  0  0  0  0  0  0  0  0
   -9.9544   80.9378   19.3520 Cl  0  0  0  0  0  0  0  0  0  0  0  0
  -11.0577   80.8677   15.2681 C   0  0  0  0  0  0  0  0  0  0  0  0
  -10.7013   80.6389   14.0037 N   0  0  0  0  0  0  0  0  0  0  0  0
  -10.7878   80.0970   16.1869 O   0  0  0  0  0  0  0  0  0  0  0  0
  -10.7523   81.3671   13.3430 H   0  0  0  0  0  0  0  0  0  0  0  0
  -10.2364   79.3187   13.5906 C   0  0  0  0  0  0  0  0  0  0  0  0
  -10.1322   79.1800   12.0943 C   0  0  0  0  0  0  0  0  0  0  0  0
   -6.2861   77.7442   10.8284 C   0  0  0  0  0  0  0  0  0  0  0  0
   -7.4216   77.0385   10.5032 C   0  0  0  0  0  0  0  0  0  0  0  0
   -8.6656   77.4962   10.9081 C   0  0  0  0  0  0  0  0  0  0  0  0
   -8.7844   78.6622   11.6498 C   0  0  0  0  0  0  0  0  0  0  0  0
   -7.6316   79.3631   11.9646 C   0  0  0  0  0  0  0  0  0  0  0  0
   -6.3890   78.9037   11.5576 C   0  0  0  0  0  0  0  0  0  0  0  0
 25 22  1  0  0  0
 23 22  2  0  0  0
 23 18  1  0  0  0
 22 21  1  0  0  0
 17 15  2  0  0  0
 18 19  2  0  0  0
 21 15  1  0  0  0
 21 20  2  0  0  0
 15 16  1  0  0  0
 19 20  1  0  0  0
 16 13  1  0  0  0
 16 14  1  0  0  0
 20 24  1  0  0  0
 13 12  1  0  0  0
 13  1  1  0  0  0
 12 11  1  0  0  0
 14 11  1  0  0  0
  6  1  1  0  0  0
  6  4  1  0  0  0
  1  5  2  0  0  0
  8  4  2  0  0  0
  4  3  1  0  0  0
  5  2  1  0  0  0
  3  2  2  0  0  0
  3  7  1  0  0  0
  2 26  1  0  0  0
 37 32  2  0  0  0
 37 36  1  0  0  0
 32 33  1  0  0  0
 36 35  2  0  0  0
 27 26  1  0  0  0
 27 30  1  0  0  0
 26 28  2  0  0  0
 33 34  2  0  0  0
 35 34  1  0  0  0
 35 31  1  0  0  0
 30 31  1  0  0  0
  6  9  1  0  0  0
 27 29  1  0  0  0
  7 10  1  0  0  0
M  END
> <minimizedAffinity>
-7.83224

$$$$
5W44_GY6_A_302


 37 40  0  0  0  0  0  0  0  0999 V2000
  -10.0901   84.4530   14.3786 C   0  0  0  0  0  0  0  0  0  0  0  0
  -12.1409   84.4164   15.4384 C   0  0  0  0  0  0  0  0  0  0  0  0
  -12.5015   83.2775   14.7760 C   0  0  0  0  0  0  0  0  0  0  0  0
  -11.6101   82.6821   13.8776 C   0  0  0  0  0  0  0  0  0  0  0  0
  -10.9456   84.9994   15.2471 N   0  0  0  0  0  0  0  0  0  0  0  0
  -10.3977   83.3095   13.7040 N   0  0  0  0  0  0  0  0  0  0  0  0
  -13.6765   82.6535   14.9423 O   0  0  0  0  0  0  0  0  0  0  0  0
  -11.8543   81.6509   13.2373 O   0  0  0  0  0  0  0  0  0  0  0  0
   -9.7399   82.9249   13.0805 H   0  0  0  0  0  0  0  0  0  0  0  0
  -13.8657   81.8741   14.4578 H   0  0  0  0  0  0  0  0  0  0  0  0
   -9.1346   86.5645   12.3516 C   0  0  0  0  0  0  0  0  0  0  0  0
   -8.8658   86.6167   13.8459 C   0  0  0  0  0  0  0  0  0  0  0  0
   -8.7500   85.1243   14.1860 C   0  0  0  0  0  0  0  0  0  0  0  0
   -8.1144   85.5470   11.8769 C   0  0  0  0  0  0  0  0  0  0  0  0
   -7.3438   83.4570   12.9830 C   0  0  0  0  0  0  0  0  0  0  0  0
   -8.0037   84.6228   13.0182 N   0  0  0  0  0  0  0  0  0  0  0  0
   -7.4247   82.6447   13.9026 O   0  0  0  0  0  0  0  0  0  0  0  0
   -4.9087   82.6567    9.5348 C   0  0  0  0  0  0  0  0  0  0  0  0
   -6.1850   82.1491    9.5928 C   0  0  0  0  0  0  0  0  0  0  0  0
   -6.9708   82.4053   10.7013 C   0  0  0  0  0  0  0  0  0  0  0  0
   -6.5036   83.1650   11.7735 C   0  0  0  0  0  0  0  0  0  0  0  0
   -5.2060   83.6649   11.6740 C   0  0  0  0  0  0  0  0  0  0  0  0
   -4.4110   83.4141   10.5698 C   0  0  0  0  0  0  0  0  0  0  0  0
   -8.5759   81.7440   10.7271 Cl  0  0  0  0  0  0  0  0  0  0  0  0
   -4.5405   84.6219   12.9617 Cl  0  0  0  0  0  0  0  0  0  0  0  0
  -13.0793   85.0534   16.4328 C   0  0  0  0  0  0  0  0  0  0  0  0
  -12.5171   85.5873   17.5176 N   0  0  0  0  0  0  0  0  0  0  0  0
  -14.2965   85.0026   16.2688 O   0  0  0  0  0  0  0  0  0  0  0  0
  -11.5545   85.7942   17.5168 H   0  0  0  0  0  0  0  0  0  0  0  0
  -13.3161   85.8677   18.7063 C   0  0  0  0  0  0  0  0  0  0  0  0
  -12.6268   85.4574   19.9812 C   0  0  0  0  0  0  0  0  0  0  0  0
  -13.8178   81.5594   21.3387 C   0  0  0  0  0  0  0  0  0  0  0  0
  -12.5829   81.7346   20.7578 C   0  0  0  0  0  0  0  0  0  0  0  0
  -12.1921   82.9895   20.3181 C   0  0  0  0  0  0  0  0  0  0  0  0
  -13.0379   84.0809   20.4487 C   0  0  0  0  0  0  0  0  0  0  0  0
  -14.2759   83.8880   21.0399 C   0  0  0  0  0  0  0  0  0  0  0  0
  -14.6637   82.6323   21.4798 C   0  0  0  0  0  0  0  0  0  0  0  0
 25 22  1  0  0  0
 23 22  2  0  0  0
 23 18  1  0  0  0
 22 21  1  0  0  0
 17 15  2  0  0  0
 18 19  2  0  0  0
 21 15  1  0  0  0
 21 20  2  0  0  0
 15 16  1  0  0  0
 19 20  1  0  0  0
 16 13  1  0  0  0
 16 14  1  0  0  0
 20 24  1  0  0  0
 13 12  1  0  0  0
 13  1  1  0  0  0
 12 11  1  0  0  0
 14 11  1  0  0  0
  6  1  1  0  0  0
  6  4  1  0  0  0
  1  5  2  0  0  0
  8  4  2  0  0  0
  4  3  1  0  0  0
  5  2  1  0  0  0
  3  2  2  0  0  0
  3  7  1  0  0  0
  2 26  1  0  0  0
 37 32  2  0  0  0
 37 36  1  0  0  0
 32 33  1  0  0  0
 36 35  2  0  0  0
 27 26  1  0  0  0
 27 30  1  0  0  0
 26 28  2  0  0  0
 33 34  2  0  0  0
 35 34  1  0  0  0
 35 31  1  0  0  0
 30 31  1  0  0  0
  6  9  1  0  0  0
 27 29  1  0  0  0
  7 10  1  0  0  0
M  END
> <minimizedAffinity>
-7.81137

$$$$
