10GS_VWW_A_210


 39 40  0  0  0  0  0  0  0  0999 V2000
   11.4423    7.1745   25.8155 C   0  0  0  0  0  0  0  0  0  0  0  0
   10.8245    5.3778   24.2741 C   0  0  0  0  0  0  0  0  0  0  0  0
   10.9894    6.0773   23.2760 O   0  0  0  0  0  0  0  0  0  0  0  0
   11.0442    5.8063   25.5135 N   0  0  0  0  0  0  0  0  0  0  0  0
   10.9331    5.1721   26.2584 H   0  0  0  0  0  0  0  0  0  0  0  0
   10.3994    3.9355   24.1554 C   0  0  0  0  0  0  0  0  0  0  0  0
   11.4851    3.0267   23.6129 C   0  0  0  0  0  0  0  0  0  0  0  0
   10.3312    0.8584   23.9197 N   0  0  0  0  0  0  0  0  0  0  0  0
   10.9252    1.7845   22.9180 C   0  0  0  0  0  0  0  0  0  0  0  0
    9.9618    0.0350   23.4444 H   0  0  0  0  0  0  0  0  0  0  0  0
    9.5761    1.3324   24.4151 H   0  0  0  0  0  0  0  0  0  0  0  0
   12.0244    1.0891   22.1050 C   0  0  0  0  0  0  0  0  0  0  0  0
   13.1013    1.6929   21.9074 O   0  0  0  0  0  0  0  0  0  0  0  0
   11.7875   -0.0499   21.6574 O   0  0  0  0  0  0  0  0  0  0  0  0
   10.9639   -0.4605   21.8335 H   0  0  0  0  0  0  0  0  0  0  0  0
   12.9499    7.2852   25.9354 C   0  0  0  0  0  0  0  0  0  0  0  0
   13.6257    6.3408   26.3424 O   0  0  0  0  0  0  0  0  0  0  0  0
   13.4568    8.4673   25.6153 N   0  0  0  0  0  0  0  0  0  0  0  0
   12.8474    9.1719   25.2968 H   0  0  0  0  0  0  0  0  0  0  0  0
   14.8732    8.7652   25.7154 C   0  0  0  0  0  0  0  0  0  0  0  0
   15.1488    9.8544   26.7012 C   0  0  0  0  0  0  0  0  0  0  0  0
   14.6973   11.1503   26.4806 C   0  0  0  0  0  0  0  0  0  0  0  0
   14.8914   12.1440   27.4351 C   0  0  0  0  0  0  0  0  0  0  0  0
   15.5439   11.8432   28.6224 C   0  0  0  0  0  0  0  0  0  0  0  0
   16.0023   10.5522   28.8493 C   0  0  0  0  0  0  0  0  0  0  0  0
   15.8035    9.5673   27.8907 C   0  0  0  0  0  0  0  0  0  0  0  0
   15.5760    8.9180   24.3678 C   0  0  0  0  0  0  0  0  0  0  0  0
   16.8128    8.7702   24.3506 O   0  0  0  0  0  0  0  0  0  0  0  0
   14.8961    9.1735   23.3508 O   0  0  0  0  0  0  0  0  0  0  0  0
   13.9673    9.2746   23.4215 H   0  0  0  0  0  0  0  0  0  0  0  0
   10.8475    7.6118   27.1544 C   0  0  0  0  0  0  0  0  0  0  0  0
    9.1208    7.2272   27.3998 S   0  0  0  0  0  0  0  0  0  0  0  0
    9.2197    6.2632   28.9228 C   0  0  0  0  0  0  0  0  0  0  0  0
    9.0231    4.7844   28.7196 C   0  0  0  0  0  0  0  0  0  0  0  0
   10.0188    4.0172   28.1207 C   0  0  0  0  0  0  0  0  0  0  0  0
    7.8463    4.1586   29.1247 C   0  0  0  0  0  0  0  0  0  0  0  0
    9.8470    2.6496   27.9266 C   0  0  0  0  0  0  0  0  0  0  0  0
    7.6645    2.7879   28.9344 C   0  0  0  0  0  0  0  0  0  0  0  0
    8.6657    2.0337   28.3359 C   0  0  0  0  0  0  0  0  0  0  0  0
  8  9  1  0  0  0
  9 12  1  0  0  0
  9  7  1  0  0  0
 12 13  2  0  0  0
 12 14  1  0  0  0
  7  6  1  0  0  0
  6  2  1  0  0  0
  2  3  2  0  0  0
  4  1  1  0  0  0
  1 31  1  0  0  0
  1 16  1  0  0  0
 31 32  1  0  0  0
 32 33  1  0  0  0
 33 34  1  0  0  0
 34 35  2  0  0  0
 34 36  1  0  0  0
 35 37  1  0  0  0
 36 38  2  0  0  0
 37 39  2  0  0  0
 38 39  1  0  0  0
 16 17  2  0  0  0
 18 20  1  0  0  0
 20 21  1  0  0  0
 20 27  1  0  0  0
 21 22  1  0  0  0
 21 26  2  0  0  0
 22 23  2  0  0  0
 23 24  1  0  0  0
 24 25  2  0  0  0
 25 26  1  0  0  0
 27 28  2  0  0  0
 27 29  1  0  0  0
  2  4  1  0  0  0
 16 18  1  0  0  0
  8 10  1  0  0  0
  8 11  1  0  0  0
 14 15  1  0  0  0
  4  5  1  0  0  0
 18 19  1  0  0  0
 29 30  1  0  0  0
M  END
> <minimizedAffinity>
-8.52043

$$$$
10GS_VWW_A_210


 39 40  0  0  0  0  0  0  0  0999 V2000
   10.6315    6.6277   27.4983 C   0  0  0  0  0  0  0  0  0  0  0  0
   12.1390    7.7569   25.9370 C   0  0  0  0  0  0  0  0  0  0  0  0
   11.7237    7.1273   24.9655 O   0  0  0  0  0  0  0  0  0  0  0  0
   11.6588    7.6060   27.1677 N   0  0  0  0  0  0  0  0  0  0  0  0
   12.0123    8.1796   27.8856 H   0  0  0  0  0  0  0  0  0  0  0  0
   13.2136    8.8048   25.7874 C   0  0  0  0  0  0  0  0  0  0  0  0
   13.5843    9.0904   24.3451 C   0  0  0  0  0  0  0  0  0  0  0  0
   14.8354   10.7627   23.0165 N   0  0  0  0  0  0  0  0  0  0  0  0
   14.8871    9.8810   24.2139 C   0  0  0  0  0  0  0  0  0  0  0  0
   15.7089   11.2840   22.9402 H   0  0  0  0  0  0  0  0  0  0  0  0
   14.0569   11.4154   23.1082 H   0  0  0  0  0  0  0  0  0  0  0  0
   16.0847    8.9252   24.1459 C   0  0  0  0  0  0  0  0  0  0  0  0
   16.4456    8.3360   25.1880 O   0  0  0  0  0  0  0  0  0  0  0  0
   16.6624    8.7901   23.0496 O   0  0  0  0  0  0  0  0  0  0  0  0
   16.3530    9.2541   22.2967 H   0  0  0  0  0  0  0  0  0  0  0  0
    9.9457    6.9835   28.8031 C   0  0  0  0  0  0  0  0  0  0  0  0
   10.5724    7.4920   29.7321 O   0  0  0  0  0  0  0  0  0  0  0  0
    8.6601    6.6677   28.8702 N   0  0  0  0  0  0  0  0  0  0  0  0
    8.2314    6.2635   28.0814 H   0  0  0  0  0  0  0  0  0  0  0  0
    7.8591    6.8934   30.0586 C   0  0  0  0  0  0  0  0  0  0  0  0
    7.1852    5.6438   30.5261 C   0  0  0  0  0  0  0  0  0  0  0  0
    7.4184    4.4267   29.8968 C   0  0  0  0  0  0  0  0  0  0  0  0
    6.8473    3.2538   30.3811 C   0  0  0  0  0  0  0  0  0  0  0  0
    6.0336    3.2946   31.5045 C   0  0  0  0  0  0  0  0  0  0  0  0
    5.7915    4.5069   32.1369 C   0  0  0  0  0  0  0  0  0  0  0  0
    6.3663    5.6719   31.6461 C   0  0  0  0  0  0  0  0  0  0  0  0
    6.9586    8.1247   29.9802 C   0  0  0  0  0  0  0  0  0  0  0  0
    7.0999    8.9907   30.8644 O   0  0  0  0  0  0  0  0  0  0  0  0
    6.1343    8.2190   29.0457 O   0  0  0  0  0  0  0  0  0  0  0  0
    6.0701    7.5365   28.4069 H   0  0  0  0  0  0  0  0  0  0  0  0
   11.2602    5.2457   27.6786 C   0  0  0  0  0  0  0  0  0  0  0  0
   10.1644    3.8563   27.4365 S   0  0  0  0  0  0  0  0  0  0  0  0
    9.8546    3.9966   25.6637 C   0  0  0  0  0  0  0  0  0  0  0  0
    8.5280    4.6237   25.3266 C   0  0  0  0  0  0  0  0  0  0  0  0
    8.3466    5.2775   24.1107 C   0  0  0  0  0  0  0  0  0  0  0  0
    7.4617    4.5623   26.2210 C   0  0  0  0  0  0  0  0  0  0  0  0
    7.1249    5.8620   23.7894 C   0  0  0  0  0  0  0  0  0  0  0  0
    6.2328    5.1454   25.9081 C   0  0  0  0  0  0  0  0  0  0  0  0
    6.0648    5.7945   24.6916 C   0  0  0  0  0  0  0  0  0  0  0  0
  8  9  1  0  0  0
  9 12  1  0  0  0
  9  7  1  0  0  0
 12 13  2  0  0  0
 12 14  1  0  0  0
  7  6  1  0  0  0
  6  2  1  0  0  0
  2  3  2  0  0  0
  4  1  1  0  0  0
  1 31  1  0  0  0
  1 16  1  0  0  0
 31 32  1  0  0  0
 32 33  1  0  0  0
 33 34  1  0  0  0
 34 35  2  0  0  0
 34 36  1  0  0  0
 35 37  1  0  0  0
 36 38  2  0  0  0
 37 39  2  0  0  0
 38 39  1  0  0  0
 16 17  2  0  0  0
 18 20  1  0  0  0
 20 21  1  0  0  0
 20 27  1  0  0  0
 21 22  1  0  0  0
 21 26  2  0  0  0
 22 23  2  0  0  0
 23 24  1  0  0  0
 24 25  2  0  0  0
 25 26  1  0  0  0
 27 28  2  0  0  0
 27 29  1  0  0  0
  2  4  1  0  0  0
 16 18  1  0  0  0
  8 10  1  0  0  0
  8 11  1  0  0  0
 14 15  1  0  0  0
  4  5  1  0  0  0
 18 19  1  0  0  0
 29 30  1  0  0  0
M  END
> <minimizedAffinity>
-8.22840

$$$$
10GS_VWW_A_210


 39 40  0  0  0  0  0  0  0  0999 V2000
   10.9890    7.0330   26.9648 C   0  0  0  0  0  0  0  0  0  0  0  0
   12.7829    8.1849   25.7646 C   0  0  0  0  0  0  0  0  0  0  0  0
   12.3022    7.9384   24.6597 O   0  0  0  0  0  0  0  0  0  0  0  0
   12.2131    7.8206   26.9094 N   0  0  0  0  0  0  0  0  0  0  0  0
   12.6363    8.0947   27.7550 H   0  0  0  0  0  0  0  0  0  0  0  0
   14.0573    8.9800   25.9021 C   0  0  0  0  0  0  0  0  0  0  0  0
   14.3259    9.4535   27.3173 C   0  0  0  0  0  0  0  0  0  0  0  0
   16.5017    9.6438   28.4823 N   0  0  0  0  0  0  0  0  0  0  0  0
   15.6282   10.2465   27.4394 C   0  0  0  0  0  0  0  0  0  0  0  0
   17.3658   10.1809   28.5540 H   0  0  0  0  0  0  0  0  0  0  0  0
   16.7202    8.6805   28.2277 H   0  0  0  0  0  0  0  0  0  0  0  0
   15.3277   11.7177   27.7519 C   0  0  0  0  0  0  0  0  0  0  0  0
   14.6945   12.3949   26.9130 O   0  0  0  0  0  0  0  0  0  0  0  0
   15.7473   12.1832   28.8294 O   0  0  0  0  0  0  0  0  0  0  0  0
   16.2173   11.6341   29.4256 H   0  0  0  0  0  0  0  0  0  0  0  0
   10.1924    7.3586   28.2134 C   0  0  0  0  0  0  0  0  0  0  0  0
   10.7359    7.8441   29.2050 O   0  0  0  0  0  0  0  0  0  0  0  0
    8.9062    7.0430   28.1612 N   0  0  0  0  0  0  0  0  0  0  0  0
    8.5477    6.6582   27.3289 H   0  0  0  0  0  0  0  0  0  0  0  0
    8.0049    7.2416   29.2807 C   0  0  0  0  0  0  0  0  0  0  0  0
    7.5792    5.9467   29.8942 C   0  0  0  0  0  0  0  0  0  0  0  0
    6.7563    5.9219   31.0140 C   0  0  0  0  0  0  0  0  0  0  0  0
    6.3021    4.7150   31.5371 C   0  0  0  0  0  0  0  0  0  0  0  0
    6.6733    3.5194   30.9383 C   0  0  0  0  0  0  0  0  0  0  0  0
    7.4990    3.5347   29.8219 C   0  0  0  0  0  0  0  0  0  0  0  0
    7.9467    4.7442   29.3071 C   0  0  0  0  0  0  0  0  0  0  0  0
    6.8739    8.2303   29.0043 C   0  0  0  0  0  0  0  0  0  0  0  0
    6.8044    9.2353   29.7371 O   0  0  0  0  0  0  0  0  0  0  0  0
    6.0799    8.0022   28.0666 O   0  0  0  0  0  0  0  0  0  0  0  0
    6.1789    7.2292   27.5464 H   0  0  0  0  0  0  0  0  0  0  0  0
   11.3250    5.5423   27.0172 C   0  0  0  0  0  0  0  0  0  0  0  0
   10.9393    4.6071   25.5453 S   0  0  0  0  0  0  0  0  0  0  0  0
    9.3124    3.9641   25.9903 C   0  0  0  0  0  0  0  0  0  0  0  0
    8.1686    4.7335   25.3850 C   0  0  0  0  0  0  0  0  0  0  0  0
    8.3295    5.3956   24.1707 C   0  0  0  0  0  0  0  0  0  0  0  0
    6.9333    4.7978   26.0258 C   0  0  0  0  0  0  0  0  0  0  0  0
    7.2793    6.1112   23.6028 C   0  0  0  0  0  0  0  0  0  0  0  0
    5.8741    5.5128   25.4645 C   0  0  0  0  0  0  0  0  0  0  0  0
    6.0476    6.1687   24.2524 C   0  0  0  0  0  0  0  0  0  0  0  0
  8  9  1  0  0  0
  9 12  1  0  0  0
  9  7  1  0  0  0
 12 13  2  0  0  0
 12 14  1  0  0  0
  7  6  1  0  0  0
  6  2  1  0  0  0
  2  3  2  0  0  0
  4  1  1  0  0  0
  1 31  1  0  0  0
  1 16  1  0  0  0
 31 32  1  0  0  0
 32 33  1  0  0  0
 33 34  1  0  0  0
 34 35  2  0  0  0
 34 36  1  0  0  0
 35 37  1  0  0  0
 36 38  2  0  0  0
 37 39  2  0  0  0
 38 39  1  0  0  0
 16 17  2  0  0  0
 18 20  1  0  0  0
 20 21  1  0  0  0
 20 27  1  0  0  0
 21 22  1  0  0  0
 21 26  2  0  0  0
 22 23  2  0  0  0
 23 24  1  0  0  0
 24 25  2  0  0  0
 25 26  1  0  0  0
 27 28  2  0  0  0
 27 29  1  0  0  0
  2  4  1  0  0  0
 16 18  1  0  0  0
  8 10  1  0  0  0
  8 11  1  0  0  0
 14 15  1  0  0  0
  4  5  1  0  0  0
 18 19  1  0  0  0
 29 30  1  0  0  0
M  END
> <minimizedAffinity>
-8.11276

$$$$
10GS_VWW_A_210


 39 40  0  0  0  0  0  0  0  0999 V2000
   11.1468    7.7059   26.0182 C   0  0  0  0  0  0  0  0  0  0  0  0
   10.4836    8.6598   23.8651 C   0  0  0  0  0  0  0  0  0  0  0  0
   10.7780    9.8064   24.1989 O   0  0  0  0  0  0  0  0  0  0  0  0
   10.6529    7.6014   24.6519 N   0  0  0  0  0  0  0  0  0  0  0  0
   10.4353    6.7096   24.2960 H   0  0  0  0  0  0  0  0  0  0  0  0
    9.9436    8.3614   22.4887 C   0  0  0  0  0  0  0  0  0  0  0  0
    9.8860    9.5768   21.5841 C   0  0  0  0  0  0  0  0  0  0  0  0
   11.1811    8.1230   20.0555 N   0  0  0  0  0  0  0  0  0  0  0  0
   10.9263    9.5310   20.4636 C   0  0  0  0  0  0  0  0  0  0  0  0
   11.8756    8.1059   19.3087 H   0  0  0  0  0  0  0  0  0  0  0  0
   10.3132    7.7032   19.7224 H   0  0  0  0  0  0  0  0  0  0  0  0
   12.2212   10.2201   20.9116 C   0  0  0  0  0  0  0  0  0  0  0  0
   13.3056    9.8489   20.4119 O   0  0  0  0  0  0  0  0  0  0  0  0
   12.1376   11.1152   21.7751 O   0  0  0  0  0  0  0  0  0  0  0  0
   11.3004   11.3578   22.1189 H   0  0  0  0  0  0  0  0  0  0  0  0
   12.6620    7.6552   26.0510 C   0  0  0  0  0  0  0  0  0  0  0  0
   13.2570    6.6098   26.3106 O   0  0  0  0  0  0  0  0  0  0  0  0
   13.2709    8.8107   25.8261 N   0  0  0  0  0  0  0  0  0  0  0  0
   12.7218    9.6026   25.6245 H   0  0  0  0  0  0  0  0  0  0  0  0
   14.7140    8.9562   25.8649 C   0  0  0  0  0  0  0  0  0  0  0  0
   15.1469    9.9885   26.8554 C   0  0  0  0  0  0  0  0  0  0  0  0
   14.7953   11.3239   26.6971 C   0  0  0  0  0  0  0  0  0  0  0  0
   15.1369   12.2689   27.6597 C   0  0  0  0  0  0  0  0  0  0  0  0
   15.8380   11.8790   28.7921 C   0  0  0  0  0  0  0  0  0  0  0  0
   16.1974   10.5478   28.9562 C   0  0  0  0  0  0  0  0  0  0  0  0
   15.8516    9.6121   27.9902 C   0  0  0  0  0  0  0  0  0  0  0  0
   15.3681    9.0641   24.4888 C   0  0  0  0  0  0  0  0  0  0  0  0
   14.6128    9.2118   23.5093 O   0  0  0  0  0  0  0  0  0  0  0  0
   16.6134    9.0085   24.3994 O   0  0  0  0  0  0  0  0  0  0  0  0
   17.1339    8.8961   25.1704 H   0  0  0  0  0  0  0  0  0  0  0  0
   10.6354    6.5317   26.8534 C   0  0  0  0  0  0  0  0  0  0  0  0
    9.1584    5.7319   26.2464 S   0  0  0  0  0  0  0  0  0  0  0  0
    9.6254    3.9998   26.4472 C   0  0  0  0  0  0  0  0  0  0  0  0
    9.0027    3.3380   27.6477 C   0  0  0  0  0  0  0  0  0  0  0  0
    8.1124    4.0397   28.4562 C   0  0  0  0  0  0  0  0  0  0  0  0
    9.3046    2.0171   27.9711 C   0  0  0  0  0  0  0  0  0  0  0  0
    7.5322    3.4382   29.5693 C   0  0  0  0  0  0  0  0  0  0  0  0
    8.7281    1.4051   29.0852 C   0  0  0  0  0  0  0  0  0  0  0  0
    7.8411    2.1161   29.8835 C   0  0  0  0  0  0  0  0  0  0  0  0
  8  9  1  0  0  0
  9 12  1  0  0  0
  9  7  1  0  0  0
 12 13  2  0  0  0
 12 14  1  0  0  0
  7  6  1  0  0  0
  6  2  1  0  0  0
  2  3  2  0  0  0
  4  1  1  0  0  0
  1 31  1  0  0  0
  1 16  1  0  0  0
 31 32  1  0  0  0
 32 33  1  0  0  0
 33 34  1  0  0  0
 34 35  2  0  0  0
 34 36  1  0  0  0
 35 37  1  0  0  0
 36 38  2  0  0  0
 37 39  2  0  0  0
 38 39  1  0  0  0
 16 17  2  0  0  0
 18 20  1  0  0  0
 20 21  1  0  0  0
 20 27  1  0  0  0
 21 22  1  0  0  0
 21 26  2  0  0  0
 22 23  2  0  0  0
 23 24  1  0  0  0
 24 25  2  0  0  0
 25 26  1  0  0  0
 27 28  2  0  0  0
 27 29  1  0  0  0
  2  4  1  0  0  0
 16 18  1  0  0  0
  8 10  1  0  0  0
  8 11  1  0  0  0
 14 15  1  0  0  0
  4  5  1  0  0  0
 18 19  1  0  0  0
 29 30  1  0  0  0
M  END
> <minimizedAffinity>
-8.10657

$$$$
10GS_VWW_A_210


 39 40  0  0  0  0  0  0  0  0999 V2000
   10.4964    8.3367   24.7916 C   0  0  0  0  0  0  0  0  0  0  0  0
   12.0662    9.7315   23.5364 C   0  0  0  0  0  0  0  0  0  0  0  0
   11.5716   10.7821   23.9418 O   0  0  0  0  0  0  0  0  0  0  0  0
   11.6399    8.5287   23.9100 N   0  0  0  0  0  0  0  0  0  0  0  0
   12.1171    7.7347   23.5768 H   0  0  0  0  0  0  0  0  0  0  0  0
   13.2516    9.7353   22.6035 C   0  0  0  0  0  0  0  0  0  0  0  0
   14.5299   10.2314   23.2506 C   0  0  0  0  0  0  0  0  0  0  0  0
   14.7386   10.8449   25.6396 N   0  0  0  0  0  0  0  0  0  0  0  0
   14.7124    9.7105   24.6772 C   0  0  0  0  0  0  0  0  0  0  0  0
   14.8606   10.4850   26.5862 H   0  0  0  0  0  0  0  0  0  0  0  0
   13.8600   11.3598   25.5823 H   0  0  0  0  0  0  0  0  0  0  0  0
   15.9918    8.8705   24.7771 C   0  0  0  0  0  0  0  0  0  0  0  0
   16.6441    8.6397   23.7356 O   0  0  0  0  0  0  0  0  0  0  0  0
   16.3186    8.4355   25.8985 O   0  0  0  0  0  0  0  0  0  0  0  0
   15.7958    8.6367   26.6497 H   0  0  0  0  0  0  0  0  0  0  0  0
   10.9311    7.7534   26.1221 C   0  0  0  0  0  0  0  0  0  0  0  0
   12.1151    7.5091   26.3520 O   0  0  0  0  0  0  0  0  0  0  0  0
    9.9490    7.4959   26.9740 N   0  0  0  0  0  0  0  0  0  0  0  0
    9.0268    7.7222   26.7140 H   0  0  0  0  0  0  0  0  0  0  0  0
   10.1776    6.8942   28.2743 C   0  0  0  0  0  0  0  0  0  0  0  0
    9.6360    5.5032   28.3513 C   0  0  0  0  0  0  0  0  0  0  0  0
   10.3784    4.4201   27.8956 C   0  0  0  0  0  0  0  0  0  0  0  0
    9.9019    3.1204   28.0372 C   0  0  0  0  0  0  0  0  0  0  0  0
    8.6712    2.8976   28.6384 C   0  0  0  0  0  0  0  0  0  0  0  0
    7.9208    3.9741   29.0926 C   0  0  0  0  0  0  0  0  0  0  0  0
    8.4050    5.2675   28.9471 C   0  0  0  0  0  0  0  0  0  0  0  0
    9.8157    7.7965   29.4524 C   0  0  0  0  0  0  0  0  0  0  0  0
   10.5096    7.6946   30.4819 O   0  0  0  0  0  0  0  0  0  0  0  0
    8.8597    8.5934   29.3392 O   0  0  0  0  0  0  0  0  0  0  0  0
    8.3709    8.6283   28.5406 H   0  0  0  0  0  0  0  0  0  0  0  0
    9.5093    7.3512   24.1652 C   0  0  0  0  0  0  0  0  0  0  0  0
   10.1947    5.7817   23.6588 S   0  0  0  0  0  0  0  0  0  0  0  0
    9.0444    4.6520   24.4707 C   0  0  0  0  0  0  0  0  0  0  0  0
    7.6398    5.1844   24.5723 C   0  0  0  0  0  0  0  0  0  0  0  0
    7.0457    5.8168   23.4834 C   0  0  0  0  0  0  0  0  0  0  0  0
    6.9114    5.0555   25.7527 C   0  0  0  0  0  0  0  0  0  0  0  0
    5.7483    6.3142   23.5668 C   0  0  0  0  0  0  0  0  0  0  0  0
    5.6099    5.5509   25.8464 C   0  0  0  0  0  0  0  0  0  0  0  0
    5.0285    6.1795   24.7526 C   0  0  0  0  0  0  0  0  0  0  0  0
  8  9  1  0  0  0
  9 12  1  0  0  0
  9  7  1  0  0  0
 12 13  2  0  0  0
 12 14  1  0  0  0
  7  6  1  0  0  0
  6  2  1  0  0  0
  2  3  2  0  0  0
  4  1  1  0  0  0
  1 31  1  0  0  0
  1 16  1  0  0  0
 31 32  1  0  0  0
 32 33  1  0  0  0
 33 34  1  0  0  0
 34 35  2  0  0  0
 34 36  1  0  0  0
 35 37  1  0  0  0
 36 38  2  0  0  0
 37 39  2  0  0  0
 38 39  1  0  0  0
 16 17  2  0  0  0
 18 20  1  0  0  0
 20 21  1  0  0  0
 20 27  1  0  0  0
 21 22  1  0  0  0
 21 26  2  0  0  0
 22 23  2  0  0  0
 23 24  1  0  0  0
 24 25  2  0  0  0
 25 26  1  0  0  0
 27 28  2  0  0  0
 27 29  1  0  0  0
  2  4  1  0  0  0
 16 18  1  0  0  0
  8 10  1  0  0  0
  8 11  1  0  0  0
 14 15  1  0  0  0
  4  5  1  0  0  0
 18 19  1  0  0  0
 29 30  1  0  0  0
M  END
> <minimizedAffinity>
-8.10037

$$$$
10GS_VWW_A_210


 39 40  0  0  0  0  0  0  0  0999 V2000
   11.0931    7.9383   25.4358 C   0  0  0  0  0  0  0  0  0  0  0  0
    9.5787    8.5179   23.6039 C   0  0  0  0  0  0  0  0  0  0  0  0
    8.7651    9.0603   24.3499 O   0  0  0  0  0  0  0  0  0  0  0  0
   10.7214    7.9868   24.0283 N   0  0  0  0  0  0  0  0  0  0  0  0
   11.3423    7.6105   23.3633 H   0  0  0  0  0  0  0  0  0  0  0  0
    9.3545    8.4606   22.1133 C   0  0  0  0  0  0  0  0  0  0  0  0
    9.7829    9.7210   21.3875 C   0  0  0  0  0  0  0  0  0  0  0  0
   10.9276    8.0356   19.9816 N   0  0  0  0  0  0  0  0  0  0  0  0
   10.9020    9.4702   20.3754 C   0  0  0  0  0  0  0  0  0  0  0  0
   11.6771    7.8814   19.3073 H   0  0  0  0  0  0  0  0  0  0  0  0
   10.0338    7.7827   19.5602 H   0  0  0  0  0  0  0  0  0  0  0  0
   12.2522    9.9087   20.9560 C   0  0  0  0  0  0  0  0  0  0  0  0
   12.6056    9.4575   22.0672 O   0  0  0  0  0  0  0  0  0  0  0  0
   12.9360   10.7168   20.2978 O   0  0  0  0  0  0  0  0  0  0  0  0
   12.6270   11.0259   19.4690 H   0  0  0  0  0  0  0  0  0  0  0  0
   12.6008    7.9153   25.5966 C   0  0  0  0  0  0  0  0  0  0  0  0
   13.1619    6.9977   26.1944 O   0  0  0  0  0  0  0  0  0  0  0  0
   13.2389    8.9612   25.0908 N   0  0  0  0  0  0  0  0  0  0  0  0
   12.7160    9.6537   24.6258 H   0  0  0  0  0  0  0  0  0  0  0  0
   14.6765    9.1269   25.1946 C   0  0  0  0  0  0  0  0  0  0  0  0
   15.0602    9.9739   26.3648 C   0  0  0  0  0  0  0  0  0  0  0  0
   14.6891   11.3117   26.4321 C   0  0  0  0  0  0  0  0  0  0  0  0
   14.9840   12.0766   27.5565 C   0  0  0  0  0  0  0  0  0  0  0  0
   15.6574   11.5023   28.6253 C   0  0  0  0  0  0  0  0  0  0  0  0
   16.0360   10.1676   28.5648 C   0  0  0  0  0  0  0  0  0  0  0  0
   15.7369    9.4124   27.4384 C   0  0  0  0  0  0  0  0  0  0  0  0
   15.3597    9.4926   23.8783 C   0  0  0  0  0  0  0  0  0  0  0  0
   16.2647    8.7365   23.4771 O   0  0  0  0  0  0  0  0  0  0  0  0
   14.9874   10.5134   23.2609 O   0  0  0  0  0  0  0  0  0  0  0  0
   14.3006   11.0472   23.6093 H   0  0  0  0  0  0  0  0  0  0  0  0
   10.5489    6.6627   26.0796 C   0  0  0  0  0  0  0  0  0  0  0  0
   10.3172    5.2752   24.9792 S   0  0  0  0  0  0  0  0  0  0  0  0
    8.8199    4.5534   25.6832 C   0  0  0  0  0  0  0  0  0  0  0  0
    7.5469    5.1590   25.1544 C   0  0  0  0  0  0  0  0  0  0  0  0
    7.5084    5.7150   23.8784 C   0  0  0  0  0  0  0  0  0  0  0  0
    6.3888    5.1747   25.9284 C   0  0  0  0  0  0  0  0  0  0  0  0
    6.3374    6.2788   23.3801 C   0  0  0  0  0  0  0  0  0  0  0  0
    5.2096    5.7378   25.4377 C   0  0  0  0  0  0  0  0  0  0  0  0
    5.1844    6.2891   24.1629 C   0  0  0  0  0  0  0  0  0  0  0  0
  8  9  1  0  0  0
  9 12  1  0  0  0
  9  7  1  0  0  0
 12 13  2  0  0  0
 12 14  1  0  0  0
  7  6  1  0  0  0
  6  2  1  0  0  0
  2  3  2  0  0  0
  4  1  1  0  0  0
  1 31  1  0  0  0
  1 16  1  0  0  0
 31 32  1  0  0  0
 32 33  1  0  0  0
 33 34  1  0  0  0
 34 35  2  0  0  0
 34 36  1  0  0  0
 35 37  1  0  0  0
 36 38  2  0  0  0
 37 39  2  0  0  0
 38 39  1  0  0  0
 16 17  2  0  0  0
 18 20  1  0  0  0
 20 21  1  0  0  0
 20 27  1  0  0  0
 21 22  1  0  0  0
 21 26  2  0  0  0
 22 23  2  0  0  0
 23 24  1  0  0  0
 24 25  2  0  0  0
 25 26  1  0  0  0
 27 28  2  0  0  0
 27 29  1  0  0  0
  2  4  1  0  0  0
 16 18  1  0  0  0
  8 10  1  0  0  0
  8 11  1  0  0  0
 14 15  1  0  0  0
  4  5  1  0  0  0
 18 19  1  0  0  0
 29 30  1  0  0  0
M  END
> <minimizedAffinity>
-7.97019

$$$$
10GS_VWW_A_210


 39 40  0  0  0  0  0  0  0  0999 V2000
    8.0202    6.3331   28.0839 C   0  0  0  0  0  0  0  0  0  0  0  0
   10.2899    7.1931   27.7766 C   0  0  0  0  0  0  0  0  0  0  0  0
   10.5952    7.0176   28.9550 O   0  0  0  0  0  0  0  0  0  0  0  0
    9.1032    6.8702   27.2712 N   0  0  0  0  0  0  0  0  0  0  0  0
    8.9501    6.9996   26.3073 H   0  0  0  0  0  0  0  0  0  0  0  0
   11.2815    7.7543   26.7881 C   0  0  0  0  0  0  0  0  0  0  0  0
   11.6837    6.7690   25.7082 C   0  0  0  0  0  0  0  0  0  0  0  0
   13.1063    5.0956   26.8498 N   0  0  0  0  0  0  0  0  0  0  0  0
   11.7777    5.3317   26.2230 C   0  0  0  0  0  0  0  0  0  0  0  0
   13.1565    4.1348   27.1887 H   0  0  0  0  0  0  0  0  0  0  0  0
   13.2327    5.7388   27.6313 H   0  0  0  0  0  0  0  0  0  0  0  0
   11.5205    4.3401   25.0815 C   0  0  0  0  0  0  0  0  0  0  0  0
   11.3417    4.7839   23.9263 O   0  0  0  0  0  0  0  0  0  0  0  0
   11.4822    3.1258   25.3604 O   0  0  0  0  0  0  0  0  0  0  0  0
   11.6228    2.8431   26.2426 H   0  0  0  0  0  0  0  0  0  0  0  0
    7.8466    4.8467   27.8396 C   0  0  0  0  0  0  0  0  0  0  0  0
    7.4082    4.4257   26.7696 O   0  0  0  0  0  0  0  0  0  0  0  0
    8.1572    4.0656   28.8645 N   0  0  0  0  0  0  0  0  0  0  0  0
    8.5030    4.4814   29.6872 H   0  0  0  0  0  0  0  0  0  0  0  0
    8.0083    2.6230   28.8232 C   0  0  0  0  0  0  0  0  0  0  0  0
    7.4925    2.0755   30.1149 C   0  0  0  0  0  0  0  0  0  0  0  0
    7.6188    0.7256   30.4211 C   0  0  0  0  0  0  0  0  0  0  0  0
    7.2045    0.2338   31.6551 C   0  0  0  0  0  0  0  0  0  0  0  0
    6.6571    1.0967   32.5941 C   0  0  0  0  0  0  0  0  0  0  0  0
    6.5231    2.4460   32.2949 C   0  0  0  0  0  0  0  0  0  0  0  0
    6.9397    2.9274   31.0608 C   0  0  0  0  0  0  0  0  0  0  0  0
    9.2144    1.8870   28.2431 C   0  0  0  0  0  0  0  0  0  0  0  0
   10.3371    2.1960   28.6857 O   0  0  0  0  0  0  0  0  0  0  0  0
    9.0328    1.0136   27.3678 O   0  0  0  0  0  0  0  0  0  0  0  0
    8.1652    0.8212   27.0709 H   0  0  0  0  0  0  0  0  0  0  0  0
    6.7001    7.0106   27.7147 C   0  0  0  0  0  0  0  0  0  0  0  0
    5.3765    6.8301   28.9001 S   0  0  0  0  0  0  0  0  0  0  0  0
    4.2765    5.7273   27.9878 C   0  0  0  0  0  0  0  0  0  0  0  0
    4.0550    4.3982   28.6595 C   0  0  0  0  0  0  0  0  0  0  0  0
    3.5250    4.3386   29.9456 C   0  0  0  0  0  0  0  0  0  0  0  0
    4.3752    3.2081   28.0099 C   0  0  0  0  0  0  0  0  0  0  0  0
    3.3175    3.1153   30.5766 C   0  0  0  0  0  0  0  0  0  0  0  0
    4.1710    1.9766   28.6342 C   0  0  0  0  0  0  0  0  0  0  0  0
    3.6413    1.9308   29.9175 C   0  0  0  0  0  0  0  0  0  0  0  0
  8  9  1  0  0  0
  9 12  1  0  0  0
  9  7  1  0  0  0
 12 13  2  0  0  0
 12 14  1  0  0  0
  7  6  1  0  0  0
  6  2  1  0  0  0
  2  3  2  0  0  0
  4  1  1  0  0  0
  1 31  1  0  0  0
  1 16  1  0  0  0
 31 32  1  0  0  0
 32 33  1  0  0  0
 33 34  1  0  0  0
 34 35  2  0  0  0
 34 36  1  0  0  0
 35 37  1  0  0  0
 36 38  2  0  0  0
 37 39  2  0  0  0
 38 39  1  0  0  0
 16 17  2  0  0  0
 18 20  1  0  0  0
 20 21  1  0  0  0
 20 27  1  0  0  0
 21 22  1  0  0  0
 21 26  2  0  0  0
 22 23  2  0  0  0
 23 24  1  0  0  0
 24 25  2  0  0  0
 25 26  1  0  0  0
 27 28  2  0  0  0
 27 29  1  0  0  0
  2  4  1  0  0  0
 16 18  1  0  0  0
  8 10  1  0  0  0
  8 11  1  0  0  0
 14 15  1  0  0  0
  4  5  1  0  0  0
 18 19  1  0  0  0
 29 30  1  0  0  0
M  END
> <minimizedAffinity>
-7.94773

$$$$
10GS_VWW_A_210


 39 40  0  0  0  0  0  0  0  0999 V2000
   10.6406    6.8214   27.3774 C   0  0  0  0  0  0  0  0  0  0  0  0
   12.2095    7.6980   25.7174 C   0  0  0  0  0  0  0  0  0  0  0  0
   11.6763    7.0955   24.7870 O   0  0  0  0  0  0  0  0  0  0  0  0
   11.7678    7.6495   26.9706 N   0  0  0  0  0  0  0  0  0  0  0  0
   12.2216    8.1961   27.6521 H   0  0  0  0  0  0  0  0  0  0  0  0
   13.4001    8.5949   25.4868 C   0  0  0  0  0  0  0  0  0  0  0  0
   13.9789    9.1731   26.7633 C   0  0  0  0  0  0  0  0  0  0  0  0
   16.3444    8.6820   26.2244 N   0  0  0  0  0  0  0  0  0  0  0  0
   15.3777    9.7600   26.5667 C   0  0  0  0  0  0  0  0  0  0  0  0
   17.2723    9.0856   26.0960 H   0  0  0  0  0  0  0  0  0  0  0  0
   16.0509    8.2233   25.3619 H   0  0  0  0  0  0  0  0  0  0  0  0
   15.8178   10.5187   27.8250 C   0  0  0  0  0  0  0  0  0  0  0  0
   15.6728   11.7601   27.8619 O   0  0  0  0  0  0  0  0  0  0  0  0
   16.3218    9.8616   28.7566 O   0  0  0  0  0  0  0  0  0  0  0  0
   16.4087    8.9318   28.6806 H   0  0  0  0  0  0  0  0  0  0  0  0
   10.0498    7.3159   28.6835 C   0  0  0  0  0  0  0  0  0  0  0  0
   10.7701    7.5917   29.6424 O   0  0  0  0  0  0  0  0  0  0  0  0
    8.7264    7.3810   28.7162 N   0  0  0  0  0  0  0  0  0  0  0  0
    8.2217    7.1435   27.9049 H   0  0  0  0  0  0  0  0  0  0  0  0
    7.9911    7.7880   29.8988 C   0  0  0  0  0  0  0  0  0  0  0  0
    6.8284    6.8897   30.1729 C   0  0  0  0  0  0  0  0  0  0  0  0
    6.7988    6.0825   31.3040 C   0  0  0  0  0  0  0  0  0  0  0  0
    5.6826    5.3037   31.5939 C   0  0  0  0  0  0  0  0  0  0  0  0
    4.5840    5.3287   30.7464 C   0  0  0  0  0  0  0  0  0  0  0  0
    4.6067    6.1288   29.6116 C   0  0  0  0  0  0  0  0  0  0  0  0
    5.7251    6.9026   29.3311 C   0  0  0  0  0  0  0  0  0  0  0  0
    7.6833    9.2829   29.9592 C   0  0  0  0  0  0  0  0  0  0  0  0
    7.6090    9.8039   31.0883 O   0  0  0  0  0  0  0  0  0  0  0  0
    7.5275    9.9171   28.8937 O   0  0  0  0  0  0  0  0  0  0  0  0
    7.5943    9.4740   28.0707 H   0  0  0  0  0  0  0  0  0  0  0  0
   11.1012    5.3812   27.6045 C   0  0  0  0  0  0  0  0  0  0  0  0
   10.2888    4.1401   26.6099 S   0  0  0  0  0  0  0  0  0  0  0  0
    8.5708    4.6683   26.7773 C   0  0  0  0  0  0  0  0  0  0  0  0
    7.7751    3.8466   27.7563 C   0  0  0  0  0  0  0  0  0  0  0  0
    8.3549    3.4108   28.9449 C   0  0  0  0  0  0  0  0  0  0  0  0
    6.4499    3.5079   27.4926 C   0  0  0  0  0  0  0  0  0  0  0  0
    7.6291    2.6494   29.8564 C   0  0  0  0  0  0  0  0  0  0  0  0
    5.7137    2.7447   28.4002 C   0  0  0  0  0  0  0  0  0  0  0  0
    6.3038    2.3164   29.5825 C   0  0  0  0  0  0  0  0  0  0  0  0
  8  9  1  0  0  0
  9 12  1  0  0  0
  9  7  1  0  0  0
 12 13  2  0  0  0
 12 14  1  0  0  0
  7  6  1  0  0  0
  6  2  1  0  0  0
  2  3  2  0  0  0
  4  1  1  0  0  0
  1 31  1  0  0  0
  1 16  1  0  0  0
 31 32  1  0  0  0
 32 33  1  0  0  0
 33 34  1  0  0  0
 34 35  2  0  0  0
 34 36  1  0  0  0
 35 37  1  0  0  0
 36 38  2  0  0  0
 37 39  2  0  0  0
 38 39  1  0  0  0
 16 17  2  0  0  0
 18 20  1  0  0  0
 20 21  1  0  0  0
 20 27  1  0  0  0
 21 22  1  0  0  0
 21 26  2  0  0  0
 22 23  2  0  0  0
 23 24  1  0  0  0
 24 25  2  0  0  0
 25 26  1  0  0  0
 27 28  2  0  0  0
 27 29  1  0  0  0
  2  4  1  0  0  0
 16 18  1  0  0  0
  8 10  1  0  0  0
  8 11  1  0  0  0
 14 15  1  0  0  0
  4  5  1  0  0  0
 18 19  1  0  0  0
 29 30  1  0  0  0
M  END
> <minimizedAffinity>
-7.89613

$$$$
10GS_VWW_A_210


 39 40  0  0  0  0  0  0  0  0999 V2000
   10.5375    4.4587   27.7063 C   0  0  0  0  0  0  0  0  0  0  0  0
   10.2043    3.1954   25.6378 C   0  0  0  0  0  0  0  0  0  0  0  0
   10.2251    2.1078   26.2118 O   0  0  0  0  0  0  0  0  0  0  0  0
   10.3148    4.3599   26.2702 N   0  0  0  0  0  0  0  0  0  0  0  0
   10.2432    5.1900   25.7458 H   0  0  0  0  0  0  0  0  0  0  0  0
    9.9968    3.2877   24.1466 C   0  0  0  0  0  0  0  0  0  0  0  0
   11.1578    2.7417   23.3387 C   0  0  0  0  0  0  0  0  0  0  0  0
   10.3824    0.4313   23.7725 N   0  0  0  0  0  0  0  0  0  0  0  0
   10.8599    1.3730   22.7242 C   0  0  0  0  0  0  0  0  0  0  0  0
   10.1874   -0.4767   23.3506 H   0  0  0  0  0  0  0  0  0  0  0  0
    9.5310    0.7987   24.1973 H   0  0  0  0  0  0  0  0  0  0  0  0
   12.1051    0.8262   22.0149 C   0  0  0  0  0  0  0  0  0  0  0  0
   13.0467    1.6087   21.7612 O   0  0  0  0  0  0  0  0  0  0  0  0
   12.1167   -0.3807   21.7032 O   0  0  0  0  0  0  0  0  0  0  0  0
   11.3855   -0.9266   21.9159 H   0  0  0  0  0  0  0  0  0  0  0  0
    9.2387    4.7395   28.4369 C   0  0  0  0  0  0  0  0  0  0  0  0
    8.8953    5.8910   28.7023 O   0  0  0  0  0  0  0  0  0  0  0  0
    8.5476    3.6661   28.7934 N   0  0  0  0  0  0  0  0  0  0  0  0
    8.8908    2.7784   28.5417 H   0  0  0  0  0  0  0  0  0  0  0  0
    7.3058    3.7462   29.5394 C   0  0  0  0  0  0  0  0  0  0  0  0
    7.1458    2.6009   30.4864 C   0  0  0  0  0  0  0  0  0  0  0  0
    7.6857    1.3530   30.1976 C   0  0  0  0  0  0  0  0  0  0  0  0
    7.5987    0.3102   31.1149 C   0  0  0  0  0  0  0  0  0  0  0  0
    6.9655    0.5129   32.3330 C   0  0  0  0  0  0  0  0  0  0  0  0
    6.4194    1.7550   32.6280 C   0  0  0  0  0  0  0  0  0  0  0  0
    6.5115    2.7896   31.7062 C   0  0  0  0  0  0  0  0  0  0  0  0
    6.0802    4.0534   28.6812 C   0  0  0  0  0  0  0  0  0  0  0  0
    5.4050    3.0843   28.2851 O   0  0  0  0  0  0  0  0  0  0  0  0
    5.8016    5.2432   28.4193 O   0  0  0  0  0  0  0  0  0  0  0  0
    6.3452    5.9340   28.7437 H   0  0  0  0  0  0  0  0  0  0  0  0
   11.4892    5.6156   28.0123 C   0  0  0  0  0  0  0  0  0  0  0  0
   12.5838    6.0929   26.6842 S   0  0  0  0  0  0  0  0  0  0  0  0
   11.9014    7.7124   26.2719 C   0  0  0  0  0  0  0  0  0  0  0  0
   12.7117    8.4723   25.2557 C   0  0  0  0  0  0  0  0  0  0  0  0
   12.1403    8.8605   24.0468 C   0  0  0  0  0  0  0  0  0  0  0  0
   14.0428    8.7994   25.5043 C   0  0  0  0  0  0  0  0  0  0  0  0
   12.8807    9.5620   23.0995 C   0  0  0  0  0  0  0  0  0  0  0  0
   14.7936    9.5024   24.5608 C   0  0  0  0  0  0  0  0  0  0  0  0
   14.2115    9.8842   23.3587 C   0  0  0  0  0  0  0  0  0  0  0  0
  8  9  1  0  0  0
  9 12  1  0  0  0
  9  7  1  0  0  0
 12 13  2  0  0  0
 12 14  1  0  0  0
  7  6  1  0  0  0
  6  2  1  0  0  0
  2  3  2  0  0  0
  4  1  1  0  0  0
  1 31  1  0  0  0
  1 16  1  0  0  0
 31 32  1  0  0  0
 32 33  1  0  0  0
 33 34  1  0  0  0
 34 35  2  0  0  0
 34 36  1  0  0  0
 35 37  1  0  0  0
 36 38  2  0  0  0
 37 39  2  0  0  0
 38 39  1  0  0  0
 16 17  2  0  0  0
 18 20  1  0  0  0
 20 21  1  0  0  0
 20 27  1  0  0  0
 21 22  1  0  0  0
 21 26  2  0  0  0
 22 23  2  0  0  0
 23 24  1  0  0  0
 24 25  2  0  0  0
 25 26  1  0  0  0
 27 28  2  0  0  0
 27 29  1  0  0  0
  2  4  1  0  0  0
 16 18  1  0  0  0
  8 10  1  0  0  0
  8 11  1  0  0  0
 14 15  1  0  0  0
  4  5  1  0  0  0
 18 19  1  0  0  0
 29 30  1  0  0  0
M  END
> <minimizedAffinity>
-7.88434

$$$$
10GS_VWW_A_210


 39 40  0  0  0  0  0  0  0  0999 V2000
   10.4134    4.4407   27.7619 C   0  0  0  0  0  0  0  0  0  0  0  0
   10.1992    3.2202   25.6524 C   0  0  0  0  0  0  0  0  0  0  0  0
   10.3133    2.1207   26.1917 O   0  0  0  0  0  0  0  0  0  0  0  0
   10.2052    4.3690   26.3220 N   0  0  0  0  0  0  0  0  0  0  0  0
   10.0630    5.2061   25.8238 H   0  0  0  0  0  0  0  0  0  0  0  0
    9.9896    3.3419   24.1636 C   0  0  0  0  0  0  0  0  0  0  0  0
   11.1422    2.7965   23.3432 C   0  0  0  0  0  0  0  0  0  0  0  0
   10.3375    0.4954   23.7734 N   0  0  0  0  0  0  0  0  0  0  0  0
   10.8368    1.4295   22.7284 C   0  0  0  0  0  0  0  0  0  0  0  0
   10.1377   -0.4114   23.3514 H   0  0  0  0  0  0  0  0  0  0  0  0
    9.4852    0.8728   24.1876 H   0  0  0  0  0  0  0  0  0  0  0  0
   12.0841    0.8679   22.0346 C   0  0  0  0  0  0  0  0  0  0  0  0
   13.0480    1.6335   21.8153 O   0  0  0  0  0  0  0  0  0  0  0  0
   12.0753   -0.3328   21.7001 O   0  0  0  0  0  0  0  0  0  0  0  0
   11.3278   -0.8659   21.8872 H   0  0  0  0  0  0  0  0  0  0  0  0
    9.1022    4.6743   28.4870 C   0  0  0  0  0  0  0  0  0  0  0  0
    8.7022    5.8134   28.7252 O   0  0  0  0  0  0  0  0  0  0  0  0
    8.4650    3.5769   28.8697 N   0  0  0  0  0  0  0  0  0  0  0  0
    8.8518    2.7015   28.6389 H   0  0  0  0  0  0  0  0  0  0  0  0
    7.2207    3.6133   29.6150 C   0  0  0  0  0  0  0  0  0  0  0  0
    7.1018    2.4646   30.5639 C   0  0  0  0  0  0  0  0  0  0  0  0
    7.6600    1.2276   30.2635 C   0  0  0  0  0  0  0  0  0  0  0  0
    7.6114    0.1829   31.1814 C   0  0  0  0  0  0  0  0  0  0  0  0
    6.9986    0.3725   32.4119 C   0  0  0  0  0  0  0  0  0  0  0  0
    6.4343    1.6037   32.7186 C   0  0  0  0  0  0  0  0  0  0  0  0
    6.4881    2.6403   31.7962 C   0  0  0  0  0  0  0  0  0  0  0  0
    5.9853    3.8743   28.7555 C   0  0  0  0  0  0  0  0  0  0  0  0
    5.3598    2.8801   28.3407 O   0  0  0  0  0  0  0  0  0  0  0  0
    5.6502    5.0532   28.5112 O   0  0  0  0  0  0  0  0  0  0  0  0
    6.1581    5.7643   28.8493 H   0  0  0  0  0  0  0  0  0  0  0  0
   11.3348    5.6125   28.1021 C   0  0  0  0  0  0  0  0  0  0  0  0
   12.4061    6.1660   26.7847 S   0  0  0  0  0  0  0  0  0  0  0  0
   11.5726    7.6967   26.3146 C   0  0  0  0  0  0  0  0  0  0  0  0
   10.5195    7.5140   25.2542 C   0  0  0  0  0  0  0  0  0  0  0  0
    9.1691    7.6175   25.5773 C   0  0  0  0  0  0  0  0  0  0  0  0
   10.8747    7.2389   23.9356 C   0  0  0  0  0  0  0  0  0  0  0  0
    8.1872    7.4489   24.6053 C   0  0  0  0  0  0  0  0  0  0  0  0
    9.8976    7.0681   22.9537 C   0  0  0  0  0  0  0  0  0  0  0  0
    8.5538    7.1741   23.2891 C   0  0  0  0  0  0  0  0  0  0  0  0
  8  9  1  0  0  0
  9 12  1  0  0  0
  9  7  1  0  0  0
 12 13  2  0  0  0
 12 14  1  0  0  0
  7  6  1  0  0  0
  6  2  1  0  0  0
  2  3  2  0  0  0
  4  1  1  0  0  0
  1 31  1  0  0  0
  1 16  1  0  0  0
 31 32  1  0  0  0
 32 33  1  0  0  0
 33 34  1  0  0  0
 34 35  2  0  0  0
 34 36  1  0  0  0
 35 37  1  0  0  0
 36 38  2  0  0  0
 37 39  2  0  0  0
 38 39  1  0  0  0
 16 17  2  0  0  0
 18 20  1  0  0  0
 20 21  1  0  0  0
 20 27  1  0  0  0
 21 22  1  0  0  0
 21 26  2  0  0  0
 22 23  2  0  0  0
 23 24  1  0  0  0
 24 25  2  0  0  0
 25 26  1  0  0  0
 27 28  2  0  0  0
 27 29  1  0  0  0
  2  4  1  0  0  0
 16 18  1  0  0  0
  8 10  1  0  0  0
  8 11  1  0  0  0
 14 15  1  0  0  0
  4  5  1  0  0  0
 18 19  1  0  0  0
 29 30  1  0  0  0
M  END
> <minimizedAffinity>
-7.84832

$$$$
