3QLM_PLM_A_127


 19 18  0  0  0  0  0  0  0  0999 V2000
  -38.4049   17.6146   -6.7633 C   0  0  0  0  0  0  0  0  0  0  0  0
  -37.6832   17.8285   -5.4191 C   0  0  0  0  0  0  0  0  0  0  0  0
  -36.3712   18.6344   -5.5669 C   0  0  0  0  0  0  0  0  0  0  0  0
  -35.6385   18.7440   -4.2097 C   0  0  0  0  0  0  0  0  0  0  0  0
  -34.7064   17.5673   -4.0073 C   0  0  0  0  0  0  0  0  0  0  0  0
  -33.4407   18.0758   -3.3650 C   0  0  0  0  0  0  0  0  0  0  0  0
  -32.4052   18.3691   -4.4410 C   0  0  0  0  0  0  0  0  0  0  0  0
  -32.1254   19.5853   -4.6357 O   0  0  0  0  0  0  0  0  0  0  0  0
  -31.9132   17.3707   -5.0364 O   0  0  0  0  0  0  0  0  0  0  0  0
  -32.5537   20.2507   -4.1339 H   0  0  0  0  0  0  0  0  0  0  0  0
  -38.6432   18.9278   -7.5748 C   0  0  0  0  0  0  0  0  0  0  0  0
  -37.9674   19.0732   -8.9929 C   0  0  0  0  0  0  0  0  0  0  0  0
  -37.4014   17.7918   -9.6350 C   0  0  0  0  0  0  0  0  0  0  0  0
  -36.4076   18.1579  -10.7232 C   0  0  0  0  0  0  0  0  0  0  0  0
  -34.9703   18.1409  -10.2136 C   0  0  0  0  0  0  0  0  0  0  0  0
  -34.7992   17.5939   -8.7791 C   0  0  0  0  0  0  0  0  0  0  0  0
  -33.5656   18.1286   -8.0260 C   0  0  0  0  0  0  0  0  0  0  0  0
  -32.2709   17.8923   -8.7767 C   0  0  0  0  0  0  0  0  0  0  0  0
  -31.1243   18.6829   -8.1833 C   0  0  0  0  0  0  0  0  0  0  0  0
  7  8  1  0  0  0
  7  9  2  0  0  0
  7  6  1  0  0  0
  6  5  1  0  0  0
  5  4  1  0  0  0
  4  3  1  0  0  0
  3  2  1  0  0  0
  2  1  1  0  0  0
  1 11  1  0  0  0
 11 12  1  0  0  0
 12 13  1  0  0  0
 13 14  1  0  0  0
 14 15  1  0  0  0
 15 16  1  0  0  0
 16 17  1  0  0  0
 17 18  1  0  0  0
 18 19  1  0  0  0
  8 10  1  0  0  0
M  END
> <minimizedAffinity>
-5.69556

$$$$
3QLM_PLM_A_127


 19 18  0  0  0  0  0  0  0  0999 V2000
  -36.3843   18.0606   -5.5080 C   0  0  0  0  0  0  0  0  0  0  0  0
  -35.3210   17.7617   -6.5821 C   0  0  0  0  0  0  0  0  0  0  0  0
  -34.3880   18.9659   -6.8507 C   0  0  0  0  0  0  0  0  0  0  0  0
  -32.9186   18.5031   -6.9830 C   0  0  0  0  0  0  0  0  0  0  0  0
  -32.1106   18.9328   -5.7761 C   0  0  0  0  0  0  0  0  0  0  0  0
  -32.0983   17.7931   -4.7891 C   0  0  0  0  0  0  0  0  0  0  0  0
  -32.8231   18.2116   -3.5180 C   0  0  0  0  0  0  0  0  0  0  0  0
  -32.6770   17.4596   -2.5138 O   0  0  0  0  0  0  0  0  0  0  0  0
  -33.4983   19.2764   -3.5791 O   0  0  0  0  0  0  0  0  0  0  0  0
  -32.1498   16.6878   -2.5792 H   0  0  0  0  0  0  0  0  0  0  0  0
  -37.8545   17.8448   -5.9892 C   0  0  0  0  0  0  0  0  0  0  0  0
  -38.0985   17.2276   -7.4205 C   0  0  0  0  0  0  0  0  0  0  0  0
  -38.9678   18.0432   -8.3972 C   0  0  0  0  0  0  0  0  0  0  0  0
  -38.0788   18.7895   -9.3762 C   0  0  0  0  0  0  0  0  0  0  0  0
  -37.4718   17.8588  -10.4207 C   0  0  0  0  0  0  0  0  0  0  0  0
  -36.1333   18.3443  -11.0198 C   0  0  0  0  0  0  0  0  0  0  0  0
  -34.8803   17.9278  -10.2251 C   0  0  0  0  0  0  0  0  0  0  0  0
  -33.6159   17.9665  -11.0591 C   0  0  0  0  0  0  0  0  0  0  0  0
  -32.5785   16.9866  -10.5534 C   0  0  0  0  0  0  0  0  0  0  0  0
  7  8  1  0  0  0
  7  9  2  0  0  0
  7  6  1  0  0  0
  6  5  1  0  0  0
  5  4  1  0  0  0
  4  3  1  0  0  0
  3  2  1  0  0  0
  2  1  1  0  0  0
  1 11  1  0  0  0
 11 12  1  0  0  0
 12 13  1  0  0  0
 13 14  1  0  0  0
 14 15  1  0  0  0
 15 16  1  0  0  0
 16 17  1  0  0  0
 17 18  1  0  0  0
 18 19  1  0  0  0
  8 10  1  0  0  0
M  END
> <minimizedAffinity>
-5.55282

$$$$
3QLM_PLM_A_127


 19 18  0  0  0  0  0  0  0  0999 V2000
  -35.2624   18.1873  -10.9495 C   0  0  0  0  0  0  0  0  0  0  0  0
  -34.3717   17.8581   -9.7362 C   0  0  0  0  0  0  0  0  0  0  0  0
  -32.8963   17.6086  -10.1282 C   0  0  0  0  0  0  0  0  0  0  0  0
  -31.9385   18.2794   -9.1166 C   0  0  0  0  0  0  0  0  0  0  0  0
  -32.4953   18.1898   -7.7108 C   0  0  0  0  0  0  0  0  0  0  0  0
  -31.3376   18.2060   -6.7452 C   0  0  0  0  0  0  0  0  0  0  0  0
  -31.8595   18.3798   -5.3262 C   0  0  0  0  0  0  0  0  0  0  0  0
  -31.8552   19.5558   -4.8654 O   0  0  0  0  0  0  0  0  0  0  0  0
  -32.2573   17.3348   -4.7404 O   0  0  0  0  0  0  0  0  0  0  0  0
  -31.5352   20.2633   -5.3898 H   0  0  0  0  0  0  0  0  0  0  0  0
  -36.7586   18.4525  -10.5884 C   0  0  0  0  0  0  0  0  0  0  0  0
  -37.2678   18.0677   -9.1456 C   0  0  0  0  0  0  0  0  0  0  0  0
  -38.6939   18.5095   -8.7641 C   0  0  0  0  0  0  0  0  0  0  0  0
  -38.7786   18.7344   -7.2647 C   0  0  0  0  0  0  0  0  0  0  0  0
  -38.2148   17.5561   -6.4776 C   0  0  0  0  0  0  0  0  0  0  0  0
  -37.5956   17.9276   -5.1119 C   0  0  0  0  0  0  0  0  0  0  0  0
  -36.0580   17.8424   -5.0545 C   0  0  0  0  0  0  0  0  0  0  0  0
  -35.3951   19.2043   -5.0147 C   0  0  0  0  0  0  0  0  0  0  0  0
  -35.3093   19.8285   -6.3914 C   0  0  0  0  0  0  0  0  0  0  0  0
  7  8  1  0  0  0
  7  9  2  0  0  0
  7  6  1  0  0  0
  6  5  1  0  0  0
  5  4  1  0  0  0
  4  3  1  0  0  0
  3  2  1  0  0  0
  2  1  1  0  0  0
  1 11  1  0  0  0
 11 12  1  0  0  0
 12 13  1  0  0  0
 13 14  1  0  0  0
 14 15  1  0  0  0
 15 16  1  0  0  0
 16 17  1  0  0  0
 17 18  1  0  0  0
 18 19  1  0  0  0
  8 10  1  0  0  0
M  END
> <minimizedAffinity>
-5.51361

$$$$
3QLM_PLM_A_127


 19 18  0  0  0  0  0  0  0  0999 V2000
  -38.3958   17.1643   -7.6661 C   0  0  0  0  0  0  0  0  0  0  0  0
  -38.2429   18.1885   -6.5254 C   0  0  0  0  0  0  0  0  0  0  0  0
  -37.5066   17.6075   -5.2954 C   0  0  0  0  0  0  0  0  0  0  0  0
  -36.4505   18.6051   -4.7660 C   0  0  0  0  0  0  0  0  0  0  0  0
  -35.1726   17.8837   -4.3905 C   0  0  0  0  0  0  0  0  0  0  0  0
  -34.1918   18.9048   -3.8722 C   0  0  0  0  0  0  0  0  0  0  0  0
  -32.8113   18.6237   -4.4478 C   0  0  0  0  0  0  0  0  0  0  0  0
  -32.0625   19.6248   -4.6278 O   0  0  0  0  0  0  0  0  0  0  0  0
  -32.5357   17.4151   -4.6860 O   0  0  0  0  0  0  0  0  0  0  0  0
  -32.3700   20.4841   -4.4154 H   0  0  0  0  0  0  0  0  0  0  0  0
  -37.6923   17.5823   -8.9965 C   0  0  0  0  0  0  0  0  0  0  0  0
  -36.2596   18.2385   -8.9203 C   0  0  0  0  0  0  0  0  0  0  0  0
  -35.1423   17.4086   -8.2588 C   0  0  0  0  0  0  0  0  0  0  0  0
  -34.0245   18.3269   -7.7972 C   0  0  0  0  0  0  0  0  0  0  0  0
  -32.6491   17.7885   -8.1768 C   0  0  0  0  0  0  0  0  0  0  0  0
  -32.2448   18.0271   -9.6485 C   0  0  0  0  0  0  0  0  0  0  0  0
  -32.3957   16.7994  -10.5677 C   0  0  0  0  0  0  0  0  0  0  0  0
  -31.1751   16.5595  -11.4327 C   0  0  0  0  0  0  0  0  0  0  0  0
  -31.3003   15.2856  -12.2412 C   0  0  0  0  0  0  0  0  0  0  0  0
  7  8  1  0  0  0
  7  9  2  0  0  0
  7  6  1  0  0  0
  6  5  1  0  0  0
  5  4  1  0  0  0
  4  3  1  0  0  0
  3  2  1  0  0  0
  2  1  1  0  0  0
  1 11  1  0  0  0
 11 12  1  0  0  0
 12 13  1  0  0  0
 13 14  1  0  0  0
 14 15  1  0  0  0
 15 16  1  0  0  0
 16 17  1  0  0  0
 17 18  1  0  0  0
 18 19  1  0  0  0
  8 10  1  0  0  0
M  END
> <minimizedAffinity>
-5.38926

$$$$
3QLM_PLM_A_127


 19 18  0  0  0  0  0  0  0  0999 V2000
  -34.8963   17.5339   -5.2232 C   0  0  0  0  0  0  0  0  0  0  0  0
  -35.0300   17.2954   -6.7393 C   0  0  0  0  0  0  0  0  0  0  0  0
  -34.3917   18.4257   -7.5806 C   0  0  0  0  0  0  0  0  0  0  0  0
  -33.0368   17.9720   -8.1716 C   0  0  0  0  0  0  0  0  0  0  0  0
  -31.9534   18.9863   -7.8687 C   0  0  0  0  0  0  0  0  0  0  0  0
  -30.9012   18.3119   -7.0253 C   0  0  0  0  0  0  0  0  0  0  0  0
  -31.3737   18.2418   -5.5804 C   0  0  0  0  0  0  0  0  0  0  0  0
  -31.2441   17.1277   -4.9996 O   0  0  0  0  0  0  0  0  0  0  0  0
  -31.8450   19.3051   -5.0896 O   0  0  0  0  0  0  0  0  0  0  0  0
  -30.8793   16.3984   -5.4612 H   0  0  0  0  0  0  0  0  0  0  0  0
  -36.1913   18.0880   -4.5484 C   0  0  0  0  0  0  0  0  0  0  0  0
  -37.3411   18.6528   -5.4693 C   0  0  0  0  0  0  0  0  0  0  0  0
  -38.5134   17.7049   -5.7887 C   0  0  0  0  0  0  0  0  0  0  0  0
  -38.5887   17.4670   -7.2865 C   0  0  0  0  0  0  0  0  0  0  0  0
  -38.8325   18.7592   -8.0588 C   0  0  0  0  0  0  0  0  0  0  0  0
  -37.8234   19.0334   -9.1958 C   0  0  0  0  0  0  0  0  0  0  0  0
  -37.2954   17.7737   -9.9095 C   0  0  0  0  0  0  0  0  0  0  0  0
  -36.7249   18.0711  -11.2812 C   0  0  0  0  0  0  0  0  0  0  0  0
  -35.2258   18.2781  -11.2340 C   0  0  0  0  0  0  0  0  0  0  0  0
  7  8  1  0  0  0
  7  9  2  0  0  0
  7  6  1  0  0  0
  6  5  1  0  0  0
  5  4  1  0  0  0
  4  3  1  0  0  0
  3  2  1  0  0  0
  2  1  1  0  0  0
  1 11  1  0  0  0
 11 12  1  0  0  0
 12 13  1  0  0  0
 13 14  1  0  0  0
 14 15  1  0  0  0
 15 16  1  0  0  0
 16 17  1  0  0  0
 17 18  1  0  0  0
 18 19  1  0  0  0
  8 10  1  0  0  0
M  END
> <minimizedAffinity>
-5.37427

$$$$
3QLM_PLM_A_127


 19 18  0  0  0  0  0  0  0  0999 V2000
  -34.9524   18.0038  -10.1362 C   0  0  0  0  0  0  0  0  0  0  0  0
  -34.5231   17.6071   -8.7107 C   0  0  0  0  0  0  0  0  0  0  0  0
  -33.0581   17.9931   -8.3987 C   0  0  0  0  0  0  0  0  0  0  0  0
  -33.0010   19.1340   -7.3566 C   0  0  0  0  0  0  0  0  0  0  0  0
  -32.0511   18.7837   -6.2299 C   0  0  0  0  0  0  0  0  0  0  0  0
  -30.9688   17.8943   -6.7875 C   0  0  0  0  0  0  0  0  0  0  0  0
  -30.1199   17.3487   -5.6482 C   0  0  0  0  0  0  0  0  0  0  0  0
  -29.1919   18.0966   -5.2303 O   0  0  0  0  0  0  0  0  0  0  0  0
  -30.4245   16.2017   -5.2181 O   0  0  0  0  0  0  0  0  0  0  0  0
  -29.0525   18.9351   -5.6245 H   0  0  0  0  0  0  0  0  0  0  0  0
  -36.4903   17.9038  -10.3898 C   0  0  0  0  0  0  0  0  0  0  0  0
  -37.4443   18.9301   -9.6647 C   0  0  0  0  0  0  0  0  0  0  0  0
  -38.7529   18.3729   -9.0716 C   0  0  0  0  0  0  0  0  0  0  0  0
  -38.8757   18.7888   -7.6163 C   0  0  0  0  0  0  0  0  0  0  0  0
  -37.5151   18.8946   -6.9356 C   0  0  0  0  0  0  0  0  0  0  0  0
  -37.1772   17.7282   -5.9808 C   0  0  0  0  0  0  0  0  0  0  0  0
  -36.6463   18.1566   -4.5990 C   0  0  0  0  0  0  0  0  0  0  0  0
  -35.1646   17.8893   -4.4301 C   0  0  0  0  0  0  0  0  0  0  0  0
  -34.8508   17.2985   -3.0719 C   0  0  0  0  0  0  0  0  0  0  0  0
  7  8  1  0  0  0
  7  9  2  0  0  0
  7  6  1  0  0  0
  6  5  1  0  0  0
  5  4  1  0  0  0
  4  3  1  0  0  0
  3  2  1  0  0  0
  2  1  1  0  0  0
  1 11  1  0  0  0
 11 12  1  0  0  0
 12 13  1  0  0  0
 13 14  1  0  0  0
 14 15  1  0  0  0
 15 16  1  0  0  0
 16 17  1  0  0  0
 17 18  1  0  0  0
 18 19  1  0  0  0
  8 10  1  0  0  0
M  END
> <minimizedAffinity>
-5.34456

$$$$
3QLM_PLM_A_127


 19 18  0  0  0  0  0  0  0  0999 V2000
  -37.6500   17.7438   -5.4945 C   0  0  0  0  0  0  0  0  0  0  0  0
  -36.1343   17.9098   -5.7153 C   0  0  0  0  0  0  0  0  0  0  0  0
  -35.6014   17.0415   -6.8792 C   0  0  0  0  0  0  0  0  0  0  0  0
  -34.6114   17.8444   -7.7545 C   0  0  0  0  0  0  0  0  0  0  0  0
  -33.9931   18.9778   -6.9623 C   0  0  0  0  0  0  0  0  0  0  0  0
  -32.5161   18.7062   -6.8287 C   0  0  0  0  0  0  0  0  0  0  0  0
  -32.1548   18.5647   -5.3571 C   0  0  0  0  0  0  0  0  0  0  0  0
  -32.0256   19.6379   -4.7039 O   0  0  0  0  0  0  0  0  0  0  0  0
  -32.0249   17.3877   -4.9197 O   0  0  0  0  0  0  0  0  0  0  0  0
  -32.1450   20.4635   -5.1308 H   0  0  0  0  0  0  0  0  0  0  0  0
  -38.5306   18.6572   -6.4055 C   0  0  0  0  0  0  0  0  0  0  0  0
  -39.0339   18.0863   -7.7875 C   0  0  0  0  0  0  0  0  0  0  0  0
  -38.4394   18.7128   -9.0636 C   0  0  0  0  0  0  0  0  0  0  0  0
  -37.6684   17.6610   -9.8415 C   0  0  0  0  0  0  0  0  0  0  0  0
  -37.2551   18.1601  -11.2220 C   0  0  0  0  0  0  0  0  0  0  0  0
  -35.7295   18.2240  -11.4567 C   0  0  0  0  0  0  0  0  0  0  0  0
  -35.2625   19.3797  -12.3627 C   0  0  0  0  0  0  0  0  0  0  0  0
  -34.8866   18.9188  -13.7562 C   0  0  0  0  0  0  0  0  0  0  0  0
  -33.4250   18.5345  -13.8464 C   0  0  0  0  0  0  0  0  0  0  0  0
  7  8  1  0  0  0
  7  9  2  0  0  0
  7  6  1  0  0  0
  6  5  1  0  0  0
  5  4  1  0  0  0
  4  3  1  0  0  0
  3  2  1  0  0  0
  2  1  1  0  0  0
  1 11  1  0  0  0
 11 12  1  0  0  0
 12 13  1  0  0  0
 13 14  1  0  0  0
 14 15  1  0  0  0
 15 16  1  0  0  0
 16 17  1  0  0  0
 17 18  1  0  0  0
 18 19  1  0  0  0
  8 10  1  0  0  0
M  END
> <minimizedAffinity>
-5.30302

$$$$
3QLM_PLM_A_127


 19 18  0  0  0  0  0  0  0  0999 V2000
  -37.0987   16.6706   -7.6549 C   0  0  0  0  0  0  0  0  0  0  0  0
  -37.9190   17.2186   -6.4716 C   0  0  0  0  0  0  0  0  0  0  0  0
  -37.4244   18.6036   -5.9921 C   0  0  0  0  0  0  0  0  0  0  0  0
  -36.6994   18.4868   -4.6314 C   0  0  0  0  0  0  0  0  0  0  0  0
  -35.2393   18.8660   -4.7678 C   0  0  0  0  0  0  0  0  0  0  0  0
  -34.4181   17.6032   -4.7029 C   0  0  0  0  0  0  0  0  0  0  0  0
  -32.9597   17.9559   -4.4487 C   0  0  0  0  0  0  0  0  0  0  0  0
  -32.2079   17.0096   -4.0818 O   0  0  0  0  0  0  0  0  0  0  0  0
  -32.6307   19.1602   -4.6352 O   0  0  0  0  0  0  0  0  0  0  0  0
  -32.5587   16.1476   -3.9734 H   0  0  0  0  0  0  0  0  0  0  0  0
  -36.2599   17.7538   -8.4049 C   0  0  0  0  0  0  0  0  0  0  0  0
  -34.6879   17.6197   -8.4148 C   0  0  0  0  0  0  0  0  0  0  0  0
  -33.9654   17.9349   -9.7389 C   0  0  0  0  0  0  0  0  0  0  0  0
  -32.8330   16.9464   -9.9545 C   0  0  0  0  0  0  0  0  0  0  0  0
  -31.4769   17.6395  -10.0337 C   0  0  0  0  0  0  0  0  0  0  0  0
  -31.3456   18.9057   -9.1585 C   0  0  0  0  0  0  0  0  0  0  0  0
  -30.8938   18.6453   -7.7083 C   0  0  0  0  0  0  0  0  0  0  0  0
  -29.6081   17.8477   -7.6277 C   0  0  0  0  0  0  0  0  0  0  0  0
  -29.5151   17.0595   -6.3385 C   0  0  0  0  0  0  0  0  0  0  0  0
  7  8  1  0  0  0
  7  9  2  0  0  0
  7  6  1  0  0  0
  6  5  1  0  0  0
  5  4  1  0  0  0
  4  3  1  0  0  0
  3  2  1  0  0  0
  2  1  1  0  0  0
  1 11  1  0  0  0
 11 12  1  0  0  0
 12 13  1  0  0  0
 13 14  1  0  0  0
 14 15  1  0  0  0
 15 16  1  0  0  0
 16 17  1  0  0  0
 17 18  1  0  0  0
 18 19  1  0  0  0
  8 10  1  0  0  0
M  END
> <minimizedAffinity>
-5.28568

$$$$
3QLM_PLM_A_127


 19 18  0  0  0  0  0  0  0  0999 V2000
  -37.8210   19.0535   -9.6317 C   0  0  0  0  0  0  0  0  0  0  0  0
  -36.7894   18.3672  -10.5473 C   0  0  0  0  0  0  0  0  0  0  0  0
  -35.4095   18.1958   -9.8697 C   0  0  0  0  0  0  0  0  0  0  0  0
  -34.2828   18.1325  -10.9268 C   0  0  0  0  0  0  0  0  0  0  0  0
  -32.9415   17.8892  -10.2665 C   0  0  0  0  0  0  0  0  0  0  0  0
  -33.1877   17.5131   -8.8274 C   0  0  0  0  0  0  0  0  0  0  0  0
  -32.2595   18.3135   -7.9252 C   0  0  0  0  0  0  0  0  0  0  0  0
  -31.9698   19.4810   -8.3103 O   0  0  0  0  0  0  0  0  0  0  0  0
  -31.8691   17.7419   -6.8696 O   0  0  0  0  0  0  0  0  0  0  0  0
  -32.3173   19.8081   -9.1166 H   0  0  0  0  0  0  0  0  0  0  0  0
  -39.0178   18.1378   -9.2213 C   0  0  0  0  0  0  0  0  0  0  0  0
  -38.9864   17.4416   -7.8059 C   0  0  0  0  0  0  0  0  0  0  0  0
  -37.7804   16.5331   -7.4978 C   0  0  0  0  0  0  0  0  0  0  0  0
  -36.8014   17.2661   -6.5977 C   0  0  0  0  0  0  0  0  0  0  0  0
  -37.5135   18.1455   -5.5754 C   0  0  0  0  0  0  0  0  0  0  0  0
  -36.5960   18.7434   -4.4858 C   0  0  0  0  0  0  0  0  0  0  0  0
  -35.1261   18.9300   -4.9092 C   0  0  0  0  0  0  0  0  0  0  0  0
  -34.1650   18.1108   -4.0721 C   0  0  0  0  0  0  0  0  0  0  0  0
  -34.8923   17.2531   -3.0584 C   0  0  0  0  0  0  0  0  0  0  0  0
  7  8  1  0  0  0
  7  9  2  0  0  0
  7  6  1  0  0  0
  6  5  1  0  0  0
  5  4  1  0  0  0
  4  3  1  0  0  0
  3  2  1  0  0  0
  2  1  1  0  0  0
  1 11  1  0  0  0
 11 12  1  0  0  0
 12 13  1  0  0  0
 13 14  1  0  0  0
 14 15  1  0  0  0
 15 16  1  0  0  0
 16 17  1  0  0  0
 17 18  1  0  0  0
 18 19  1  0  0  0
  8 10  1  0  0  0
M  END
> <minimizedAffinity>
-5.23059

$$$$
3QLM_PLM_A_127


 19 18  0  0  0  0  0  0  0  0999 V2000
  -33.2906   18.1934   -3.4692 C   0  0  0  0  0  0  0  0  0  0  0  0
  -34.6718   17.5694   -3.7457 C   0  0  0  0  0  0  0  0  0  0  0  0
  -35.6827   18.5878   -4.3231 C   0  0  0  0  0  0  0  0  0  0  0  0
  -36.9517   17.8700   -4.8381 C   0  0  0  0  0  0  0  0  0  0  0  0
  -37.5705   18.6353   -5.9895 C   0  0  0  0  0  0  0  0  0  0  0  0
  -37.1809   17.9479   -7.2736 C   0  0  0  0  0  0  0  0  0  0  0  0
  -38.3525   17.1227   -7.7859 C   0  0  0  0  0  0  0  0  0  0  0  0
  -38.2083   15.8681   -7.7655 O   0  0  0  0  0  0  0  0  0  0  0  0
  -39.3659   17.7656   -8.1774 O   0  0  0  0  0  0  0  0  0  0  0  0
  -37.4086   15.4934   -7.4525 H   0  0  0  0  0  0  0  0  0  0  0  0
  -32.2164   17.8711   -4.5563 C   0  0  0  0  0  0  0  0  0  0  0  0
  -32.3512   18.5462   -5.9758 C   0  0  0  0  0  0  0  0  0  0  0  0
  -31.2670   18.2104   -7.0181 C   0  0  0  0  0  0  0  0  0  0  0  0
  -29.8915   18.4795   -6.4338 C   0  0  0  0  0  0  0  0  0  0  0  0
  -28.7784   17.9099   -7.3069 C   0  0  0  0  0  0  0  0  0  0  0  0
  -27.8213   16.9377   -6.5823 C   0  0  0  0  0  0  0  0  0  0  0  0
  -28.4395   15.5743   -6.2164 C   0  0  0  0  0  0  0  0  0  0  0  0
  -28.6084   15.3877   -4.7223 C   0  0  0  0  0  0  0  0  0  0  0  0
  -30.0132   14.9500   -4.3655 C   0  0  0  0  0  0  0  0  0  0  0  0
  7  8  1  0  0  0
  7  9  2  0  0  0
  7  6  1  0  0  0
  6  5  1  0  0  0
  5  4  1  0  0  0
  4  3  1  0  0  0
  3  2  1  0  0  0
  2  1  1  0  0  0
  1 11  1  0  0  0
 11 12  1  0  0  0
 12 13  1  0  0  0
 13 14  1  0  0  0
 14 15  1  0  0  0
 15 16  1  0  0  0
 16 17  1  0  0  0
 17 18  1  0  0  0
 18 19  1  0  0  0
  8 10  1  0  0  0
M  END
> <minimizedAffinity>
-5.13217

$$$$
