3N76_CA2_A_147


 26 27  0  0  0  0  0  0  0  0999 V2000
  -38.7661  -60.7662  -51.5441 C   0  0  0  0  0  0  0  0  0  0  0  0
  -38.7999  -59.6298  -52.4700 O   0  0  0  0  0  0  0  0  0  0  0  0
  -38.7406  -60.4044  -50.1795 C   0  0  0  0  0  0  0  0  0  0  0  0
  -39.9204  -60.1770  -49.4424 C   0  0  0  0  0  0  0  0  0  0  0  0
  -41.3542  -60.4937  -49.9673 C   0  0  0  0  0  0  0  0  0  0  0  0
  -42.4037  -59.5202  -49.5816 O   0  0  0  0  0  0  0  0  0  0  0  0
  -41.3028  -60.7162  -51.4922 C   0  0  0  0  0  0  0  0  0  0  0  0
  -42.4482  -61.4395  -51.9425 O   0  0  0  0  0  0  0  0  0  0  0  0
  -40.0561  -61.5539  -51.8148 C   0  0  0  0  0  0  0  0  0  0  0  0
  -38.0043  -59.0887  -52.3469 H   0  0  0  0  0  0  0  0  0  0  0  0
  -42.2107  -58.6598  -49.9858 H   0  0  0  0  0  0  0  0  0  0  0  0
  -42.4769  -62.3046  -51.5048 H   0  0  0  0  0  0  0  0  0  0  0  0
  -36.3708  -61.1302  -51.2386 O   0  0  0  0  0  0  0  0  0  0  0  0
  -37.4682  -61.5858  -51.7296 C   0  0  0  0  0  0  0  0  0  0  0  0
  -37.5956  -62.6813  -52.3662 O   0  0  0  0  0  0  0  0  0  0  0  0
  -38.4357  -62.9392  -52.6915 H   0  0  0  0  0  0  0  0  0  0  0  0
  -39.6049  -59.9604  -48.1141 C   0  0  0  0  0  0  0  0  0  0  0  0
  -40.4276  -59.8104  -47.0257 C   0  0  0  0  0  0  0  0  0  0  0  0
  -39.7539  -60.3202  -45.9271 C   0  0  0  0  0  0  0  0  0  0  0  0
  -38.4358  -59.9872  -45.8254 O   0  0  0  0  0  0  0  0  0  0  0  0
  -37.6134  -60.6536  -44.9780 C   0  0  0  0  0  0  0  0  0  0  0  0
  -38.0471  -61.2189  -43.7898 C   0  0  0  0  0  0  0  0  0  0  0  0
  -37.1455  -61.8652  -42.9200 C   0  0  0  0  0  0  0  0  0  0  0  0
  -35.7978  -61.8950  -43.2601 C   0  0  0  0  0  0  0  0  0  0  0  0
  -35.3545  -61.3079  -44.4702 C   0  0  0  0  0  0  0  0  0  0  0  0
  -36.2594  -60.6845  -45.3268 C   0  0  0  0  0  0  0  0  0  0  0  0
 13 14  2  0  0  0
 14 15  1  0  0  0
 14  1  1  0  0  0
  1  2  1  0  0  0
  1  3  1  0  0  0
  1  9  1  0  0  0
  3  4  1  0  0  0
  4  5  1  0  0  0
  4 17  1  0  0  0
  5  6  1  0  0  0
  5  7  1  0  0  0
  7  8  1  0  0  0
  7  9  1  0  0  0
 17 18  1  0  0  0
 18 19  1  0  0  0
 19 20  1  0  0  0
 20 21  1  0  0  0
 21 22  2  0  0  0
 21 26  1  0  0  0
 22 23  1  0  0  0
 23 24  2  0  0  0
 24 25  1  0  0  0
 25 26  2  0  0  0
 15 16  1  0  0  0
  2 10  1  0  0  0
  6 11  1  0  0  0
  8 12  1  0  0  0
M  END
> <minimizedAffinity>
-11.82791

$$$$
3N76_CA2_A_147


 26 27  0  0  0  0  0  0  0  0999 V2000
  -40.2788  -61.1268  -51.1564 C   0  0  0  0  0  0  0  0  0  0  0  0
  -40.3325  -62.5829  -50.9931 O   0  0  0  0  0  0  0  0  0  0  0  0
  -40.3392  -60.4028  -49.9457 C   0  0  0  0  0  0  0  0  0  0  0  0
  -39.1846  -60.0976  -49.1968 C   0  0  0  0  0  0  0  0  0  0  0  0
  -37.7278  -60.3278  -49.7029 C   0  0  0  0  0  0  0  0  0  0  0  0
  -36.7616  -60.7872  -48.6766 O   0  0  0  0  0  0  0  0  0  0  0  0
  -37.7546  -61.2594  -50.9313 C   0  0  0  0  0  0  0  0  0  0  0  0
  -36.5529  -61.1375  -51.6921 O   0  0  0  0  0  0  0  0  0  0  0  0
  -38.9286  -60.8392  -51.8287 C   0  0  0  0  0  0  0  0  0  0  0  0
  -41.1695  -62.8301  -50.5698 H   0  0  0  0  0  0  0  0  0  0  0  0
  -37.0214  -61.6660  -48.3585 H   0  0  0  0  0  0  0  0  0  0  0  0
  -36.4566  -60.2228  -52.0001 H   0  0  0  0  0  0  0  0  0  0  0  0
  -42.6667  -61.0943  -51.6668 O   0  0  0  0  0  0  0  0  0  0  0  0
  -41.5059  -60.6185  -51.9481 C   0  0  0  0  0  0  0  0  0  0  0  0
  -41.2619  -59.7389  -52.8361 O   0  0  0  0  0  0  0  0  0  0  0  0
  -40.3828  -59.4467  -52.9769 H   0  0  0  0  0  0  0  0  0  0  0  0
  -39.5222  -59.2828  -48.1324 C   0  0  0  0  0  0  0  0  0  0  0  0
  -40.3709  -59.5150  -47.0789 C   0  0  0  0  0  0  0  0  0  0  0  0
  -39.6849  -60.2956  -46.1619 C   0  0  0  0  0  0  0  0  0  0  0  0
  -38.3543  -60.0310  -46.0269 O   0  0  0  0  0  0  0  0  0  0  0  0
  -37.6171  -60.6436  -45.0680 C   0  0  0  0  0  0  0  0  0  0  0  0
  -38.1661  -61.1625  -43.9066 C   0  0  0  0  0  0  0  0  0  0  0  0
  -37.3528  -61.7526  -42.9179 C   0  0  0  0  0  0  0  0  0  0  0  0
  -35.9764  -61.7735  -43.1134 C   0  0  0  0  0  0  0  0  0  0  0  0
  -35.4159  -61.2338  -44.2965 C   0  0  0  0  0  0  0  0  0  0  0  0
  -36.2336  -60.6660  -45.2714 C   0  0  0  0  0  0  0  0  0  0  0  0
 13 14  2  0  0  0
 14 15  1  0  0  0
 14  1  1  0  0  0
  1  2  1  0  0  0
  1  3  1  0  0  0
  1  9  1  0  0  0
  3  4  1  0  0  0
  4  5  1  0  0  0
  4 17  1  0  0  0
  5  6  1  0  0  0
  5  7  1  0  0  0
  7  8  1  0  0  0
  7  9  1  0  0  0
 17 18  1  0  0  0
 18 19  1  0  0  0
 19 20  1  0  0  0
 20 21  1  0  0  0
 21 22  2  0  0  0
 21 26  1  0  0  0
 22 23  1  0  0  0
 23 24  2  0  0  0
 24 25  1  0  0  0
 25 26  2  0  0  0
 15 16  1  0  0  0
  2 10  1  0  0  0
  6 11  1  0  0  0
  8 12  1  0  0  0
M  END
> <minimizedAffinity>
-10.85595

$$$$
3N76_CA2_A_147


 26 27  0  0  0  0  0  0  0  0999 V2000
  -38.5381  -61.0865  -43.0705 C   0  0  0  0  0  0  0  0  0  0  0  0
  -38.3136  -60.0496  -42.0584 O   0  0  0  0  0  0  0  0  0  0  0  0
  -38.5567  -60.6086  -44.3989 C   0  0  0  0  0  0  0  0  0  0  0  0
  -37.3812  -60.4841  -45.1669 C   0  0  0  0  0  0  0  0  0  0  0  0
  -35.9903  -61.0402  -44.7334 C   0  0  0  0  0  0  0  0  0  0  0  0
  -34.8268  -60.1918  -45.0855 O   0  0  0  0  0  0  0  0  0  0  0  0
  -36.0230  -61.3838  -43.2306 C   0  0  0  0  0  0  0  0  0  0  0  0
  -34.9776  -62.2946  -42.8913 O   0  0  0  0  0  0  0  0  0  0  0  0
  -37.3646  -62.0655  -42.9217 C   0  0  0  0  0  0  0  0  0  0  0  0
  -39.0281  -59.3950  -42.1020 H   0  0  0  0  0  0  0  0  0  0  0  0
  -34.8826  -59.3509  -44.6051 H   0  0  0  0  0  0  0  0  0  0  0  0
  -35.0860  -63.1146  -43.3981 H   0  0  0  0  0  0  0  0  0  0  0  0
  -40.5518  -62.1648  -43.9342 O   0  0  0  0  0  0  0  0  0  0  0  0
  -39.9323  -61.7314  -42.8942 C   0  0  0  0  0  0  0  0  0  0  0  0
  -40.3642  -61.7897  -41.6977 O   0  0  0  0  0  0  0  0  0  0  0  0
  -39.8461  -61.4485  -40.9955 H   0  0  0  0  0  0  0  0  0  0  0  0
  -37.7060  -60.1124  -46.4581 C   0  0  0  0  0  0  0  0  0  0  0  0
  -38.6813  -59.2595  -46.9112 C   0  0  0  0  0  0  0  0  0  0  0  0
  -39.5312  -59.9980  -47.7191 C   0  0  0  0  0  0  0  0  0  0  0  0
  -39.6044  -59.6100  -49.0240 O   0  0  0  0  0  0  0  0  0  0  0  0
  -39.0767  -60.3783  -50.0087 C   0  0  0  0  0  0  0  0  0  0  0  0
  -37.7194  -60.4328  -50.2816 C   0  0  0  0  0  0  0  0  0  0  0  0
  -37.2218  -61.2138  -51.3445 C   0  0  0  0  0  0  0  0  0  0  0  0
  -38.1261  -61.9057  -52.1423 C   0  0  0  0  0  0  0  0  0  0  0  0
  -39.5139  -61.8411  -51.8682 C   0  0  0  0  0  0  0  0  0  0  0  0
  -39.9900  -61.0759  -50.8057 C   0  0  0  0  0  0  0  0  0  0  0  0
 13 14  2  0  0  0
 14 15  1  0  0  0
 14  1  1  0  0  0
  1  2  1  0  0  0
  1  3  1  0  0  0
  1  9  1  0  0  0
  3  4  1  0  0  0
  4  5  1  0  0  0
  4 17  1  0  0  0
  5  6  1  0  0  0
  5  7  1  0  0  0
  7  8  1  0  0  0
  7  9  1  0  0  0
 17 18  1  0  0  0
 18 19  1  0  0  0
 19 20  1  0  0  0
 20 21  1  0  0  0
 21 22  2  0  0  0
 21 26  1  0  0  0
 22 23  1  0  0  0
 23 24  2  0  0  0
 24 25  1  0  0  0
 25 26  2  0  0  0
 15 16  1  0  0  0
  2 10  1  0  0  0
  6 11  1  0  0  0
  8 12  1  0  0  0
M  END
> <minimizedAffinity>
-10.44328

$$$$
