2QG0_A94_A_2001


 31 33  0  0  0  0  0  0  0  0999 V2000
   19.4173   25.5268   12.0420 S   0  0  0  0  0  0  0  0  0  0  0  0
   20.7367   25.7636   12.5572 O   0  0  0  0  0  0  0  0  0  0  0  0
   19.1906   25.6339   10.6347 O   0  0  0  0  0  0  0  0  0  0  0  0
   18.0064   22.7522   14.6112 C   0  0  0  0  0  0  0  0  0  0  0  0
   17.7404   21.6216   13.7245 C   0  0  0  0  0  0  0  0  0  0  0  0
   17.9937   21.7282   12.3109 C   0  0  0  0  0  0  0  0  0  0  0  0
   18.5166   22.9602   11.7786 C   0  0  0  0  0  0  0  0  0  0  0  0
   18.7759   24.0687   12.6581 C   0  0  0  0  0  0  0  0  0  0  0  0
   18.5220   23.9615   14.0569 C   0  0  0  0  0  0  0  0  0  0  0  0
   17.7800   22.6757   15.9669 N   0  0  0  0  0  0  0  0  0  0  0  0
   17.0965   22.0530   16.3050 H   0  0  0  0  0  0  0  0  0  0  0  0
   22.1374   22.7822   17.5288 C   0  0  0  0  0  0  0  0  0  0  0  0
   20.9099   22.5588   16.6824 C   0  0  0  0  0  0  0  0  0  0  0  0
   19.8312   23.4140   17.1855 C   0  0  0  0  0  0  0  0  0  0  0  0
   20.4769   24.3044   18.1634 C   0  0  0  0  0  0  0  0  0  0  0  0
   21.7613   23.9276   18.3411 O   0  0  0  0  0  0  0  0  0  0  0  0
   19.9417   25.2248   18.7108 O   0  0  0  0  0  0  0  0  0  0  0  0
   18.5350   23.5023   16.9243 C   0  0  0  0  0  0  0  0  0  0  0  0
   18.3950   26.7941   12.6774 N   0  0  0  0  0  0  0  0  0  0  0  0
   18.3364   27.5117   11.9549 H   0  0  0  0  0  0  0  0  0  0  0  0
   18.7505   27.4868   13.9345 C   0  0  0  0  0  0  0  0  0  0  0  0
   15.4257   27.9410   15.6879 C   0  0  0  0  0  0  0  0  0  0  0  0
   15.7010   27.4586   16.9278 N   0  0  0  0  0  0  0  0  0  0  0  0
   16.9599   27.0169   17.1217 C   0  0  0  0  0  0  0  0  0  0  0  0
   17.9300   27.0167   16.2043 N   0  0  0  0  0  0  0  0  0  0  0  0
   17.6402   27.5013   14.9658 C   0  0  0  0  0  0  0  0  0  0  0  0
   16.3574   27.9906   14.6581 C   0  0  0  0  0  0  0  0  0  0  0  0
   14.1657   28.3916   15.4616 C   0  0  0  0  0  0  0  0  0  0  0  0
   17.2726   26.5368   18.3296 N   0  0  0  0  0  0  0  0  0  0  0  0
   16.5931   26.5148   19.0416 H   0  0  0  0  0  0  0  0  0  0  0  0
   18.1825   26.2052   18.5070 H   0  0  0  0  0  0  0  0  0  0  0  0
 22 23  2  0  0  0
 22 27  1  0  0  0
 22 28  1  0  0  0
 23 24  1  0  0  0
 24 29  1  0  0  0
 24 25  2  0  0  0
 25 26  1  0  0  0
 26 21  1  0  0  0
 26 27  2  0  0  0
 21 19  1  0  0  0
 19  1  1  0  0  0
  1  2  2  0  0  0
  1  8  1  0  0  0
  1  3  2  0  0  0
 12 16  1  0  0  0
 12 13  1  0  0  0
 13 14  1  0  0  0
 14 18  2  0  0  0
 14 15  1  0  0  0
 15 17  2  0  0  0
 15 16  1  0  0  0
 18 10  1  0  0  0
 10  4  1  0  0  0
  4  5  2  0  0  0
  4  9  1  0  0  0
  5  6  1  0  0  0
  6  7  2  0  0  0
  7  8  1  0  0  0
  8  9  2  0  0  0
 29 30  1  0  0  0
 29 31  1  0  0  0
 19 20  1  0  0  0
 10 11  1  0  0  0
M  END
> <minimizedAffinity>
-8.38050

$$$$
2QG0_A94_A_2001


 31 33  0  0  0  0  0  0  0  0999 V2000
   20.9859   23.9902   16.7821 S   0  0  0  0  0  0  0  0  0  0  0  0
   21.3755   23.3612   18.0129 O   0  0  0  0  0  0  0  0  0  0  0  0
   21.9991   24.4302   15.8749 O   0  0  0  0  0  0  0  0  0  0  0  0
   18.9175   22.1389   13.8523 C   0  0  0  0  0  0  0  0  0  0  0  0
   17.7996   21.5542   14.5897 C   0  0  0  0  0  0  0  0  0  0  0  0
   17.6947   21.7302   16.0151 C   0  0  0  0  0  0  0  0  0  0  0  0
   18.7012   22.4927   16.7081 C   0  0  0  0  0  0  0  0  0  0  0  0
   19.7987   23.0651   15.9749 C   0  0  0  0  0  0  0  0  0  0  0  0
   19.9017   22.8874   14.5640 C   0  0  0  0  0  0  0  0  0  0  0  0
   19.0389   21.9922   12.4889 N   0  0  0  0  0  0  0  0  0  0  0  0
   19.6359   21.2953   12.1324 H   0  0  0  0  0  0  0  0  0  0  0  0
   20.1307   25.4243    9.5793 C   0  0  0  0  0  0  0  0  0  0  0  0
   20.1892   24.2035   10.4619 C   0  0  0  0  0  0  0  0  0  0  0  0
   18.8207   23.7538   10.7321 C   0  0  0  0  0  0  0  0  0  0  0  0
   17.9737   24.5519    9.8312 C   0  0  0  0  0  0  0  0  0  0  0  0
   18.7274   25.4802    9.2038 O   0  0  0  0  0  0  0  0  0  0  0  0
   16.7969   24.3942    9.6775 O   0  0  0  0  0  0  0  0  0  0  0  0
   18.2977   22.8521   11.5502 C   0  0  0  0  0  0  0  0  0  0  0  0
   20.1992   25.4906   17.2117 N   0  0  0  0  0  0  0  0  0  0  0  0
   20.7580   25.9111   17.9542 H   0  0  0  0  0  0  0  0  0  0  0  0
   18.7973   25.4960   17.6820 C   0  0  0  0  0  0  0  0  0  0  0  0
   17.3167   27.6513   14.9438 C   0  0  0  0  0  0  0  0  0  0  0  0
   16.0994   27.9579   15.4636 N   0  0  0  0  0  0  0  0  0  0  0  0
   15.8339   27.4465   16.6825 C   0  0  0  0  0  0  0  0  0  0  0  0
   16.6597   26.6772   17.3957 N   0  0  0  0  0  0  0  0  0  0  0  0
   17.8754   26.3764   16.8625 C   0  0  0  0  0  0  0  0  0  0  0  0
   18.2549   26.8619   15.5976 C   0  0  0  0  0  0  0  0  0  0  0  0
   17.6124   28.1504   13.7169 C   0  0  0  0  0  0  0  0  0  0  0  0
   14.6473   27.7271   17.2308 N   0  0  0  0  0  0  0  0  0  0  0  0
   14.0018   28.2905   16.7459 H   0  0  0  0  0  0  0  0  0  0  0  0
   14.4191   27.3704   18.1196 H   0  0  0  0  0  0  0  0  0  0  0  0
 22 23  2  0  0  0
 22 27  1  0  0  0
 22 28  1  0  0  0
 23 24  1  0  0  0
 24 29  1  0  0  0
 24 25  2  0  0  0
 25 26  1  0  0  0
 26 21  1  0  0  0
 26 27  2  0  0  0
 21 19  1  0  0  0
 19  1  1  0  0  0
  1  2  2  0  0  0
  1  8  1  0  0  0
  1  3  2  0  0  0
 12 16  1  0  0  0
 12 13  1  0  0  0
 13 14  1  0  0  0
 14 18  2  0  0  0
 14 15  1  0  0  0
 15 17  2  0  0  0
 15 16  1  0  0  0
 18 10  1  0  0  0
 10  4  1  0  0  0
  4  5  2  0  0  0
  4  9  1  0  0  0
  5  6  1  0  0  0
  6  7  2  0  0  0
  7  8  1  0  0  0
  8  9  2  0  0  0
 29 30  1  0  0  0
 29 31  1  0  0  0
 19 20  1  0  0  0
 10 11  1  0  0  0
M  END
> <minimizedAffinity>
-8.21514

$$$$
2QG0_A94_A_2001


 31 33  0  0  0  0  0  0  0  0999 V2000
   18.4400   22.4712   14.7090 S   0  0  0  0  0  0  0  0  0  0  0  0
   19.3787   21.4944   14.2322 O   0  0  0  0  0  0  0  0  0  0  0  0
   17.0911   22.0729   14.9641 O   0  0  0  0  0  0  0  0  0  0  0  0
   19.0302   25.3593   17.4657 C   0  0  0  0  0  0  0  0  0  0  0  0
   20.1707   24.8378   18.2157 C   0  0  0  0  0  0  0  0  0  0  0  0
   20.7552   23.5692   17.8653 C   0  0  0  0  0  0  0  0  0  0  0  0
   20.2071   22.8197   16.7642 C   0  0  0  0  0  0  0  0  0  0  0  0
   19.0842   23.3399   16.0307 C   0  0  0  0  0  0  0  0  0  0  0  0
   18.5057   24.5951   16.3812 C   0  0  0  0  0  0  0  0  0  0  0  0
   18.4563   26.5719   17.7745 N   0  0  0  0  0  0  0  0  0  0  0  0
   18.9966   27.2559   18.2323 H   0  0  0  0  0  0  0  0  0  0  0  0
   16.2563   28.4951   14.1831 C   0  0  0  0  0  0  0  0  0  0  0  0
   17.2670   27.7857   15.0480 C   0  0  0  0  0  0  0  0  0  0  0  0
   16.6127   27.3749   16.2935 C   0  0  0  0  0  0  0  0  0  0  0  0
   15.1798   27.6259   16.0705 C   0  0  0  0  0  0  0  0  0  0  0  0
   15.0080   28.2564   14.8889 O   0  0  0  0  0  0  0  0  0  0  0  0
   14.3033   27.3116   16.8231 O   0  0  0  0  0  0  0  0  0  0  0  0
   17.0541   26.8715   17.4370 C   0  0  0  0  0  0  0  0  0  0  0  0
   18.2419   23.6442   13.4286 N   0  0  0  0  0  0  0  0  0  0  0  0
   18.1442   23.1163   12.5614 H   0  0  0  0  0  0  0  0  0  0  0  0
   19.2768   24.6718   13.1844 C   0  0  0  0  0  0  0  0  0  0  0  0
   22.1568   23.1738   11.2359 C   0  0  0  0  0  0  0  0  0  0  0  0
   21.9682   23.7179   10.0053 N   0  0  0  0  0  0  0  0  0  0  0  0
   20.9128   24.5479    9.8839 C   0  0  0  0  0  0  0  0  0  0  0  0
   20.0594   24.8629   10.8611 N   0  0  0  0  0  0  0  0  0  0  0  0
   20.2590   24.3096   12.0886 C   0  0  0  0  0  0  0  0  0  0  0  0
   21.3333   23.4322   12.3249 C   0  0  0  0  0  0  0  0  0  0  0  0
   23.2106   22.3324   11.3889 C   0  0  0  0  0  0  0  0  0  0  0  0
   20.6938   25.1066    8.6892 N   0  0  0  0  0  0  0  0  0  0  0  0
   21.2942   24.9071    7.9350 H   0  0  0  0  0  0  0  0  0  0  0  0
   19.9322   25.7177    8.5638 H   0  0  0  0  0  0  0  0  0  0  0  0
 22 23  2  0  0  0
 22 27  1  0  0  0
 22 28  1  0  0  0
 23 24  1  0  0  0
 24 29  1  0  0  0
 24 25  2  0  0  0
 25 26  1  0  0  0
 26 21  1  0  0  0
 26 27  2  0  0  0
 21 19  1  0  0  0
 19  1  1  0  0  0
  1  2  2  0  0  0
  1  8  1  0  0  0
  1  3  2  0  0  0
 12 16  1  0  0  0
 12 13  1  0  0  0
 13 14  1  0  0  0
 14 18  2  0  0  0
 14 15  1  0  0  0
 15 17  2  0  0  0
 15 16  1  0  0  0
 18 10  1  0  0  0
 10  4  1  0  0  0
  4  5  2  0  0  0
  4  9  1  0  0  0
  5  6  1  0  0  0
  6  7  2  0  0  0
  7  8  1  0  0  0
  8  9  2  0  0  0
 29 30  1  0  0  0
 29 31  1  0  0  0
 19 20  1  0  0  0
 10 11  1  0  0  0
M  END
> <minimizedAffinity>
-8.04303

$$$$
2QG0_A94_A_2001


 31 33  0  0  0  0  0  0  0  0999 V2000
   18.5131   27.6297   13.9623 S   0  0  0  0  0  0  0  0  0  0  0  0
   17.5306   27.3785   12.9453 O   0  0  0  0  0  0  0  0  0  0  0  0
   19.1611   28.9031   14.0037 O   0  0  0  0  0  0  0  0  0  0  0  0
   18.3666   26.2791   17.7627 C   0  0  0  0  0  0  0  0  0  0  0  0
   16.9464   26.4111   18.0797 C   0  0  0  0  0  0  0  0  0  0  0  0
   16.0270   26.9355   17.1032 C   0  0  0  0  0  0  0  0  0  0  0  0
   16.5203   27.3253   15.8073 C   0  0  0  0  0  0  0  0  0  0  0  0
   17.9201   27.1922   15.5029 C   0  0  0  0  0  0  0  0  0  0  0  0
   18.8287   26.6751   16.4723 C   0  0  0  0  0  0  0  0  0  0  0  0
   19.2662   25.7747   18.6745 N   0  0  0  0  0  0  0  0  0  0  0  0
   19.0842   25.8789   19.6364 H   0  0  0  0  0  0  0  0  0  0  0  0
   20.3116   21.5317   17.1444 C   0  0  0  0  0  0  0  0  0  0  0  0
   19.5838   22.8075   17.4843 C   0  0  0  0  0  0  0  0  0  0  0  0
   20.5734   23.8526   17.7613 C   0  0  0  0  0  0  0  0  0  0  0  0
   21.8640   23.2697   17.3603 C   0  0  0  0  0  0  0  0  0  0  0  0
   21.6917   21.9729   17.0259 O   0  0  0  0  0  0  0  0  0  0  0  0
   22.9043   23.8615   17.3314 O   0  0  0  0  0  0  0  0  0  0  0  0
   20.4945   25.0831   18.2468 C   0  0  0  0  0  0  0  0  0  0  0  0
   19.8486   26.5467   13.6490 N   0  0  0  0  0  0  0  0  0  0  0  0
   20.3936   26.9655   12.8954 H   0  0  0  0  0  0  0  0  0  0  0  0
   19.6012   25.1411   13.2620 C   0  0  0  0  0  0  0  0  0  0  0  0
   22.0319   23.4812   10.8804 C   0  0  0  0  0  0  0  0  0  0  0  0
   21.6193   23.9703    9.6819 N   0  0  0  0  0  0  0  0  0  0  0  0
   20.5728   24.8193    9.7211 C   0  0  0  0  0  0  0  0  0  0  0  0
   19.9272   25.2015   10.8255 N   0  0  0  0  0  0  0  0  0  0  0  0
   20.3498   24.7028   12.0194 C   0  0  0  0  0  0  0  0  0  0  0  0
   21.4362   23.8116   12.0916 C   0  0  0  0  0  0  0  0  0  0  0  0
   23.0827   22.6224   10.8731 C   0  0  0  0  0  0  0  0  0  0  0  0
   20.1374   25.3255    8.5629 N   0  0  0  0  0  0  0  0  0  0  0  0
   20.5792   25.0754    7.7193 H   0  0  0  0  0  0  0  0  0  0  0  0
   19.3751   25.9484    8.5535 H   0  0  0  0  0  0  0  0  0  0  0  0
 22 23  2  0  0  0
 22 27  1  0  0  0
 22 28  1  0  0  0
 23 24  1  0  0  0
 24 29  1  0  0  0
 24 25  2  0  0  0
 25 26  1  0  0  0
 26 21  1  0  0  0
 26 27  2  0  0  0
 21 19  1  0  0  0
 19  1  1  0  0  0
  1  2  2  0  0  0
  1  8  1  0  0  0
  1  3  2  0  0  0
 12 16  1  0  0  0
 12 13  1  0  0  0
 13 14  1  0  0  0
 14 18  2  0  0  0
 14 15  1  0  0  0
 15 17  2  0  0  0
 15 16  1  0  0  0
 18 10  1  0  0  0
 10  4  1  0  0  0
  4  5  2  0  0  0
  4  9  1  0  0  0
  5  6  1  0  0  0
  6  7  2  0  0  0
  7  8  1  0  0  0
  8  9  2  0  0  0
 29 30  1  0  0  0
 29 31  1  0  0  0
 19 20  1  0  0  0
 10 11  1  0  0  0
M  END
> <minimizedAffinity>
-8.03695

$$$$
2QG0_A94_A_2001


 31 33  0  0  0  0  0  0  0  0999 V2000
   20.7091   23.7697   16.8389 S   0  0  0  0  0  0  0  0  0  0  0  0
   20.5397   22.9802   18.0265 O   0  0  0  0  0  0  0  0  0  0  0  0
   22.0301   24.0250   16.3561 O   0  0  0  0  0  0  0  0  0  0  0  0
   19.1767   23.1113   13.1636 C   0  0  0  0  0  0  0  0  0  0  0  0
   17.9887   22.3160   13.4656 C   0  0  0  0  0  0  0  0  0  0  0  0
   17.6674   21.9731   14.8269 C   0  0  0  0  0  0  0  0  0  0  0  0
   18.5270   22.4256   15.8903 C   0  0  0  0  0  0  0  0  0  0  0  0
   19.6948   23.2083   15.5848 C   0  0  0  0  0  0  0  0  0  0  0  0
   20.0121   23.5444   14.2360 C   0  0  0  0  0  0  0  0  0  0  0  0
   19.5038   23.4593   11.8725 N   0  0  0  0  0  0  0  0  0  0  0  0
   19.3324   24.3787   11.5651 H   0  0  0  0  0  0  0  0  0  0  0  0
   23.5047   23.1292    9.5657 C   0  0  0  0  0  0  0  0  0  0  0  0
   22.4440   23.4811   10.5777 C   0  0  0  0  0  0  0  0  0  0  0  0
   21.3264   22.5444   10.4308 C   0  0  0  0  0  0  0  0  0  0  0  0
   21.8179   21.5080    9.5086 C   0  0  0  0  0  0  0  0  0  0  0  0
   23.0326   21.8605    9.0358 O   0  0  0  0  0  0  0  0  0  0  0  0
   21.2287   20.5042    9.2282 O   0  0  0  0  0  0  0  0  0  0  0  0
   20.1040   22.4902   10.9395 C   0  0  0  0  0  0  0  0  0  0  0  0
   20.1387   25.3775   17.2190 N   0  0  0  0  0  0  0  0  0  0  0  0
   20.7930   25.7666   17.8979 H   0  0  0  0  0  0  0  0  0  0  0  0
   18.7828   25.5824   17.7722 C   0  0  0  0  0  0  0  0  0  0  0  0
   17.3731   27.6330   14.9185 C   0  0  0  0  0  0  0  0  0  0  0  0
   16.1332   27.9357   15.3843 N   0  0  0  0  0  0  0  0  0  0  0  0
   15.8303   27.4564   16.6073 C   0  0  0  0  0  0  0  0  0  0  0  0
   16.6403   26.7213   17.3729 N   0  0  0  0  0  0  0  0  0  0  0  0
   17.8791   26.4239   16.8936 C   0  0  0  0  0  0  0  0  0  0  0  0
   18.2979   26.8778   15.6294 C   0  0  0  0  0  0  0  0  0  0  0  0
   17.7067   28.1003   13.6888 C   0  0  0  0  0  0  0  0  0  0  0  0
   14.6204   27.7344   17.1035 N   0  0  0  0  0  0  0  0  0  0  0  0
   13.9851   28.2732   16.5787 H   0  0  0  0  0  0  0  0  0  0  0  0
   14.3648   27.4004   17.9936 H   0  0  0  0  0  0  0  0  0  0  0  0
 22 23  2  0  0  0
 22 27  1  0  0  0
 22 28  1  0  0  0
 23 24  1  0  0  0
 24 29  1  0  0  0
 24 25  2  0  0  0
 25 26  1  0  0  0
 26 21  1  0  0  0
 26 27  2  0  0  0
 21 19  1  0  0  0
 19  1  1  0  0  0
  1  2  2  0  0  0
  1  8  1  0  0  0
  1  3  2  0  0  0
 12 16  1  0  0  0
 12 13  1  0  0  0
 13 14  1  0  0  0
 14 18  2  0  0  0
 14 15  1  0  0  0
 15 17  2  0  0  0
 15 16  1  0  0  0
 18 10  1  0  0  0
 10  4  1  0  0  0
  4  5  2  0  0  0
  4  9  1  0  0  0
  5  6  1  0  0  0
  6  7  2  0  0  0
  7  8  1  0  0  0
  8  9  2  0  0  0
 29 30  1  0  0  0
 29 31  1  0  0  0
 19 20  1  0  0  0
 10 11  1  0  0  0
M  END
> <minimizedAffinity>
-8.02121

$$$$
2QG0_A94_A_2001


 31 33  0  0  0  0  0  0  0  0999 V2000
   19.1824   24.8135   11.4516 S   0  0  0  0  0  0  0  0  0  0  0  0
   19.4566   26.1003   10.8760 O   0  0  0  0  0  0  0  0  0  0  0  0
   18.0867   24.0457   10.9483 O   0  0  0  0  0  0  0  0  0  0  0  0
   22.0867   22.3945   12.8669 C   0  0  0  0  0  0  0  0  0  0  0  0
   23.0009   22.3165   11.7296 C   0  0  0  0  0  0  0  0  0  0  0  0
   22.7045   23.0163   10.5064 C   0  0  0  0  0  0  0  0  0  0  0  0
   21.4987   23.7988   10.4155 C   0  0  0  0  0  0  0  0  0  0  0  0
   20.6037   23.8707   11.5396 C   0  0  0  0  0  0  0  0  0  0  0  0
   20.8982   23.1748   12.7487 C   0  0  0  0  0  0  0  0  0  0  0  0
   22.3485   21.7414   14.0501 N   0  0  0  0  0  0  0  0  0  0  0  0
   22.6944   20.8200   14.0234 H   0  0  0  0  0  0  0  0  0  0  0  0
   18.9364   21.7776   17.1795 C   0  0  0  0  0  0  0  0  0  0  0  0
   19.8682   21.3859   16.0608 C   0  0  0  0  0  0  0  0  0  0  0  0
   21.0791   22.2069   16.1498 C   0  0  0  0  0  0  0  0  0  0  0  0
   20.9695   22.9070   17.4397 C   0  0  0  0  0  0  0  0  0  0  0  0
   19.7630   22.6555   17.9914 O   0  0  0  0  0  0  0  0  0  0  0  0
   21.8252   23.5899   17.9242 O   0  0  0  0  0  0  0  0  0  0  0  0
   22.1240   22.3868   15.3550 C   0  0  0  0  0  0  0  0  0  0  0  0
   18.7038   25.0960   13.1087 N   0  0  0  0  0  0  0  0  0  0  0  0
   17.7128   25.3364   13.0895 H   0  0  0  0  0  0  0  0  0  0  0  0
   19.3760   26.1350   13.9181 C   0  0  0  0  0  0  0  0  0  0  0  0
   16.9755   27.0583   16.6967 C   0  0  0  0  0  0  0  0  0  0  0  0
   17.6927   26.7245   17.8013 N   0  0  0  0  0  0  0  0  0  0  0  0
   18.9226   26.2211   17.5749 C   0  0  0  0  0  0  0  0  0  0  0  0
   19.4712   26.0292   16.3729 N   0  0  0  0  0  0  0  0  0  0  0  0
   18.7413   26.3664   15.2746 C   0  0  0  0  0  0  0  0  0  0  0  0
   17.4468   26.9036   15.3987 C   0  0  0  0  0  0  0  0  0  0  0  0
   15.7323   27.5663   16.8925 C   0  0  0  0  0  0  0  0  0  0  0  0
   19.6622   25.8825   18.6359 N   0  0  0  0  0  0  0  0  0  0  0  0
   19.3039   26.0042   19.5448 H   0  0  0  0  0  0  0  0  0  0  0  0
   20.5651   25.5114   18.5083 H   0  0  0  0  0  0  0  0  0  0  0  0
 22 23  2  0  0  0
 22 27  1  0  0  0
 22 28  1  0  0  0
 23 24  1  0  0  0
 24 29  1  0  0  0
 24 25  2  0  0  0
 25 26  1  0  0  0
 26 21  1  0  0  0
 26 27  2  0  0  0
 21 19  1  0  0  0
 19  1  1  0  0  0
  1  2  2  0  0  0
  1  8  1  0  0  0
  1  3  2  0  0  0
 12 16  1  0  0  0
 12 13  1  0  0  0
 13 14  1  0  0  0
 14 18  2  0  0  0
 14 15  1  0  0  0
 15 17  2  0  0  0
 15 16  1  0  0  0
 18 10  1  0  0  0
 10  4  1  0  0  0
  4  5  2  0  0  0
  4  9  1  0  0  0
  5  6  1  0  0  0
  6  7  2  0  0  0
  7  8  1  0  0  0
  8  9  2  0  0  0
 29 30  1  0  0  0
 29 31  1  0  0  0
 19 20  1  0  0  0
 10 11  1  0  0  0
M  END
> <minimizedAffinity>
-8.01425

$$$$
2QG0_A94_A_2001


 31 33  0  0  0  0  0  0  0  0999 V2000
   19.7121   25.4547   12.9707 S   0  0  0  0  0  0  0  0  0  0  0  0
   20.8112   26.2562   13.4314 O   0  0  0  0  0  0  0  0  0  0  0  0
   19.8220   24.7794   11.7157 O   0  0  0  0  0  0  0  0  0  0  0  0
   19.3376   23.6166   16.5443 C   0  0  0  0  0  0  0  0  0  0  0  0
   18.3342   22.5935   16.2583 C   0  0  0  0  0  0  0  0  0  0  0  0
   17.7615   22.4818   14.9417 C   0  0  0  0  0  0  0  0  0  0  0  0
   18.1905   23.3866   13.9063 C   0  0  0  0  0  0  0  0  0  0  0  0
   19.1789   24.3911   14.1958 C   0  0  0  0  0  0  0  0  0  0  0  0
   19.7426   24.5013   15.5008 C   0  0  0  0  0  0  0  0  0  0  0  0
   19.9065   23.7415   17.7916 N   0  0  0  0  0  0  0  0  0  0  0  0
   19.3237   23.7669   18.5846 H   0  0  0  0  0  0  0  0  0  0  0  0
   23.5052   20.8861   17.2143 C   0  0  0  0  0  0  0  0  0  0  0  0
   22.1569   21.5525   17.1093 C   0  0  0  0  0  0  0  0  0  0  0  0
   22.2557   22.9022   17.6720 C   0  0  0  0  0  0  0  0  0  0  0  0
   23.6950   23.1188   17.8896 C   0  0  0  0  0  0  0  0  0  0  0  0
   24.3695   21.9776   17.6326 O   0  0  0  0  0  0  0  0  0  0  0  0
   24.1882   24.1531   18.2364 O   0  0  0  0  0  0  0  0  0  0  0  0
   21.3656   23.8379   17.9692 C   0  0  0  0  0  0  0  0  0  0  0  0
   18.3784   26.5476   12.6854 N   0  0  0  0  0  0  0  0  0  0  0  0
   18.4567   26.8575   11.7168 H   0  0  0  0  0  0  0  0  0  0  0  0
   18.2161   27.7658   13.5078 C   0  0  0  0  0  0  0  0  0  0  0  0
   16.7641   26.9354   16.9045 C   0  0  0  0  0  0  0  0  0  0  0  0
   15.4782   27.3500   16.7622 N   0  0  0  0  0  0  0  0  0  0  0  0
   15.1575   27.8729   15.5617 C   0  0  0  0  0  0  0  0  0  0  0  0
   15.9932   28.0119   14.5298 N   0  0  0  0  0  0  0  0  0  0  0  0
   17.2791   27.5939   14.6863 C   0  0  0  0  0  0  0  0  0  0  0  0
   17.7179   27.0297   15.8983 C   0  0  0  0  0  0  0  0  0  0  0  0
   17.1177   26.4057   18.1030 C   0  0  0  0  0  0  0  0  0  0  0  0
   13.9006   28.2905   15.3797 N   0  0  0  0  0  0  0  0  0  0  0  0
   13.2447   28.2103   16.1095 H   0  0  0  0  0  0  0  0  0  0  0  0
   13.6309   28.6781   14.5159 H   0  0  0  0  0  0  0  0  0  0  0  0
 22 23  2  0  0  0
 22 27  1  0  0  0
 22 28  1  0  0  0
 23 24  1  0  0  0
 24 29  1  0  0  0
 24 25  2  0  0  0
 25 26  1  0  0  0
 26 21  1  0  0  0
 26 27  2  0  0  0
 21 19  1  0  0  0
 19  1  1  0  0  0
  1  2  2  0  0  0
  1  8  1  0  0  0
  1  3  2  0  0  0
 12 16  1  0  0  0
 12 13  1  0  0  0
 13 14  1  0  0  0
 14 18  2  0  0  0
 14 15  1  0  0  0
 15 17  2  0  0  0
 15 16  1  0  0  0
 18 10  1  0  0  0
 10  4  1  0  0  0
  4  5  2  0  0  0
  4  9  1  0  0  0
  5  6  1  0  0  0
  6  7  2  0  0  0
  7  8  1  0  0  0
  8  9  2  0  0  0
 29 30  1  0  0  0
 29 31  1  0  0  0
 19 20  1  0  0  0
 10 11  1  0  0  0
M  END
> <minimizedAffinity>
-7.99342

$$$$
2QG0_A94_A_2001


 31 33  0  0  0  0  0  0  0  0999 V2000
   19.1315   24.8759   11.5648 S   0  0  0  0  0  0  0  0  0  0  0  0
   19.4043   26.1850   11.0412 O   0  0  0  0  0  0  0  0  0  0  0  0
   18.0344   24.1292   11.0335 O   0  0  0  0  0  0  0  0  0  0  0  0
   22.1021   22.4978   12.9100 C   0  0  0  0  0  0  0  0  0  0  0  0
   22.9527   22.3729   11.7284 C   0  0  0  0  0  0  0  0  0  0  0  0
   22.5919   23.0279   10.4977 C   0  0  0  0  0  0  0  0  0  0  0  0
   21.3850   23.8122   10.4431 C   0  0  0  0  0  0  0  0  0  0  0  0
   20.5529   23.9303   11.6107 C   0  0  0  0  0  0  0  0  0  0  0  0
   20.9110   23.2788   12.8273 C   0  0  0  0  0  0  0  0  0  0  0  0
   22.4263   21.8882   14.1009 N   0  0  0  0  0  0  0  0  0  0  0  0
   23.2994   22.0770   14.5147 H   0  0  0  0  0  0  0  0  0  0  0  0
   19.7489   22.0386   17.8753 C   0  0  0  0  0  0  0  0  0  0  0  0
   20.5700   22.4177   16.6690 C   0  0  0  0  0  0  0  0  0  0  0  0
   20.7532   21.2276   15.8335 C   0  0  0  0  0  0  0  0  0  0  0  0
   19.8559   20.2149   16.4126 C   0  0  0  0  0  0  0  0  0  0  0  0
   19.3122   20.6899   17.5537 O   0  0  0  0  0  0  0  0  0  0  0  0
   19.6401   19.1376   15.9371 O   0  0  0  0  0  0  0  0  0  0  0  0
   21.4993   20.9603   14.7715 C   0  0  0  0  0  0  0  0  0  0  0  0
   18.6572   25.0909   13.2332 N   0  0  0  0  0  0  0  0  0  0  0  0
   17.6673   24.8512   13.2886 H   0  0  0  0  0  0  0  0  0  0  0  0
   18.8127   26.4039   13.8952 C   0  0  0  0  0  0  0  0  0  0  0  0
   18.9744   26.0234   17.6588 C   0  0  0  0  0  0  0  0  0  0  0  0
   17.7348   26.4375   18.0301 N   0  0  0  0  0  0  0  0  0  0  0  0
   16.9146   26.8128   17.0282 C   0  0  0  0  0  0  0  0  0  0  0  0
   17.2268   26.8097   15.7301 N   0  0  0  0  0  0  0  0  0  0  0  0
   18.4724   26.3941   15.3719 C   0  0  0  0  0  0  0  0  0  0  0  0
   19.4059   25.9773   16.3388 C   0  0  0  0  0  0  0  0  0  0  0  0
   19.8237   25.6407   18.6457 C   0  0  0  0  0  0  0  0  0  0  0  0
   15.6843   27.2245   17.3511 N   0  0  0  0  0  0  0  0  0  0  0  0
   15.4042   27.2457   18.2947 H   0  0  0  0  0  0  0  0  0  0  0  0
   15.0585   27.5064   16.6454 H   0  0  0  0  0  0  0  0  0  0  0  0
 22 23  2  0  0  0
 22 27  1  0  0  0
 22 28  1  0  0  0
 23 24  1  0  0  0
 24 29  1  0  0  0
 24 25  2  0  0  0
 25 26  1  0  0  0
 26 21  1  0  0  0
 26 27  2  0  0  0
 21 19  1  0  0  0
 19  1  1  0  0  0
  1  2  2  0  0  0
  1  8  1  0  0  0
  1  3  2  0  0  0
 12 16  1  0  0  0
 12 13  1  0  0  0
 13 14  1  0  0  0
 14 18  2  0  0  0
 14 15  1  0  0  0
 15 17  2  0  0  0
 15 16  1  0  0  0
 18 10  1  0  0  0
 10  4  1  0  0  0
  4  5  2  0  0  0
  4  9  1  0  0  0
  5  6  1  0  0  0
  6  7  2  0  0  0
  7  8  1  0  0  0
  8  9  2  0  0  0
 29 30  1  0  0  0
 29 31  1  0  0  0
 19 20  1  0  0  0
 10 11  1  0  0  0
M  END
> <minimizedAffinity>
-7.98640

$$$$
2QG0_A94_A_2001


 31 33  0  0  0  0  0  0  0  0999 V2000
   18.5936   27.6985   13.8943 S   0  0  0  0  0  0  0  0  0  0  0  0
   17.8098   27.1463   12.8251 O   0  0  0  0  0  0  0  0  0  0  0  0
   18.9313   29.0871   13.8637 O   0  0  0  0  0  0  0  0  0  0  0  0
   18.3131   26.3096   17.6734 C   0  0  0  0  0  0  0  0  0  0  0  0
   16.8876   26.4681   17.9525 C   0  0  0  0  0  0  0  0  0  0  0  0
   16.0069   27.0225   16.9570 C   0  0  0  0  0  0  0  0  0  0  0  0
   16.5443   27.4160   15.6799 C   0  0  0  0  0  0  0  0  0  0  0  0
   17.9489   27.2567   15.4128 C   0  0  0  0  0  0  0  0  0  0  0  0
   18.8192   26.7099   16.4010 C   0  0  0  0  0  0  0  0  0  0  0  0
   19.1763   25.7765   18.6039 N   0  0  0  0  0  0  0  0  0  0  0  0
   18.9377   25.8165   19.5582 H   0  0  0  0  0  0  0  0  0  0  0  0
   20.5625   21.4808   17.5732 C   0  0  0  0  0  0  0  0  0  0  0  0
   19.7299   22.7198   17.7844 C   0  0  0  0  0  0  0  0  0  0  0  0
   20.6253   23.8763   17.8779 C   0  0  0  0  0  0  0  0  0  0  0  0
   21.9495   23.3639   17.4909 C   0  0  0  0  0  0  0  0  0  0  0  0
   21.8890   22.0243   17.3321 O   0  0  0  0  0  0  0  0  0  0  0  0
   22.9271   24.0375   17.3363 O   0  0  0  0  0  0  0  0  0  0  0  0
   20.4479   25.1476   18.2072 C   0  0  0  0  0  0  0  0  0  0  0  0
   20.1639   26.9355   13.8118 N   0  0  0  0  0  0  0  0  0  0  0  0
   20.8432   27.6810   13.6591 H   0  0  0  0  0  0  0  0  0  0  0  0
   20.4416   25.8956   12.7978 C   0  0  0  0  0  0  0  0  0  0  0  0
   19.0142   22.6001   13.9968 C   0  0  0  0  0  0  0  0  0  0  0  0
   20.1429   21.8809   14.2308 N   0  0  0  0  0  0  0  0  0  0  0  0
   21.3069   22.5163   13.9881 C   0  0  0  0  0  0  0  0  0  0  0  0
   21.4266   23.7691   13.5424 N   0  0  0  0  0  0  0  0  0  0  0  0
   20.2879   24.4779   13.3106 C   0  0  0  0  0  0  0  0  0  0  0  0
   19.0199   23.9106   13.5347 C   0  0  0  0  0  0  0  0  0  0  0  0
   17.8264   21.9866   14.2304 C   0  0  0  0  0  0  0  0  0  0  0  0
   22.4414   21.8442   14.2086 N   0  0  0  0  0  0  0  0  0  0  0  0
   22.4082   20.9169   14.5376 H   0  0  0  0  0  0  0  0  0  0  0  0
   23.3100   22.2765   14.0418 H   0  0  0  0  0  0  0  0  0  0  0  0
 22 23  2  0  0  0
 22 27  1  0  0  0
 22 28  1  0  0  0
 23 24  1  0  0  0
 24 29  1  0  0  0
 24 25  2  0  0  0
 25 26  1  0  0  0
 26 21  1  0  0  0
 26 27  2  0  0  0
 21 19  1  0  0  0
 19  1  1  0  0  0
  1  2  2  0  0  0
  1  8  1  0  0  0
  1  3  2  0  0  0
 12 16  1  0  0  0
 12 13  1  0  0  0
 13 14  1  0  0  0
 14 18  2  0  0  0
 14 15  1  0  0  0
 15 17  2  0  0  0
 15 16  1  0  0  0
 18 10  1  0  0  0
 10  4  1  0  0  0
  4  5  2  0  0  0
  4  9  1  0  0  0
  5  6  1  0  0  0
  6  7  2  0  0  0
  7  8  1  0  0  0
  8  9  2  0  0  0
 29 30  1  0  0  0
 29 31  1  0  0  0
 19 20  1  0  0  0
 10 11  1  0  0  0
M  END
> <minimizedAffinity>
-7.94020

$$$$
2QG0_A94_A_2001


 31 33  0  0  0  0  0  0  0  0999 V2000
   18.9459   21.7584   16.1199 S   0  0  0  0  0  0  0  0  0  0  0  0
   20.0591   21.1855   15.4164 O   0  0  0  0  0  0  0  0  0  0  0  0
   18.1196   20.9113   16.9217 O   0  0  0  0  0  0  0  0  0  0  0  0
   19.0048   25.5140   17.5968 C   0  0  0  0  0  0  0  0  0  0  0  0
   20.2263   25.5081   18.3988 C   0  0  0  0  0  0  0  0  0  0  0  0
   21.0341   24.3193   18.4883 C   0  0  0  0  0  0  0  0  0  0  0  0
   20.6287   23.1352   17.7753 C   0  0  0  0  0  0  0  0  0  0  0  0
   19.4248   23.1491   16.9878 C   0  0  0  0  0  0  0  0  0  0  0  0
   18.6254   24.3266   16.9028 C   0  0  0  0  0  0  0  0  0  0  0  0
   18.2177   26.6381   17.4881 N   0  0  0  0  0  0  0  0  0  0  0  0
   18.0210   27.1662   18.2953 H   0  0  0  0  0  0  0  0  0  0  0  0
   14.1208   28.2028   16.0032 C   0  0  0  0  0  0  0  0  0  0  0  0
   15.3103   27.8529   16.8609 C   0  0  0  0  0  0  0  0  0  0  0  0
   16.4511   27.5661   15.9864 C   0  0  0  0  0  0  0  0  0  0  0  0
   16.0102   27.9707   14.6418 C   0  0  0  0  0  0  0  0  0  0  0  0
   14.7053   28.3162   14.6770 O   0  0  0  0  0  0  0  0  0  0  0  0
   16.7080   27.9936   13.6693 O   0  0  0  0  0  0  0  0  0  0  0  0
   17.6623   27.0704   16.1940 C   0  0  0  0  0  0  0  0  0  0  0  0
   17.8234   22.3264   14.9065 N   0  0  0  0  0  0  0  0  0  0  0  0
   16.9450   21.8338   15.0679 H   0  0  0  0  0  0  0  0  0  0  0  0
   18.1336   22.1788   13.4683 C   0  0  0  0  0  0  0  0  0  0  0  0
   19.4204   25.6666   12.7505 C   0  0  0  0  0  0  0  0  0  0  0  0
   19.1799   25.7791   11.4180 N   0  0  0  0  0  0  0  0  0  0  0  0
   18.6058   24.7100   10.8309 C   0  0  0  0  0  0  0  0  0  0  0  0
   18.2682   23.5758   11.4491 N   0  0  0  0  0  0  0  0  0  0  0  0
   18.5161   23.4756   12.7838 C   0  0  0  0  0  0  0  0  0  0  0  0
   19.1091   24.5352   13.4948 C   0  0  0  0  0  0  0  0  0  0  0  0
   19.9994   26.7264   13.3695 C   0  0  0  0  0  0  0  0  0  0  0  0
   18.3497   24.7814    9.5207 N   0  0  0  0  0  0  0  0  0  0  0  0
   18.5794   25.5960    9.0179 H   0  0  0  0  0  0  0  0  0  0  0  0
   17.9314   24.0193    9.0586 H   0  0  0  0  0  0  0  0  0  0  0  0
 22 23  2  0  0  0
 22 27  1  0  0  0
 22 28  1  0  0  0
 23 24  1  0  0  0
 24 29  1  0  0  0
 24 25  2  0  0  0
 25 26  1  0  0  0
 26 21  1  0  0  0
 26 27  2  0  0  0
 21 19  1  0  0  0
 19  1  1  0  0  0
  1  2  2  0  0  0
  1  8  1  0  0  0
  1  3  2  0  0  0
 12 16  1  0  0  0
 12 13  1  0  0  0
 13 14  1  0  0  0
 14 18  2  0  0  0
 14 15  1  0  0  0
 15 17  2  0  0  0
 15 16  1  0  0  0
 18 10  1  0  0  0
 10  4  1  0  0  0
  4  5  2  0  0  0
  4  9  1  0  0  0
  5  6  1  0  0  0
  6  7  2  0  0  0
  7  8  1  0  0  0
  8  9  2  0  0  0
 29 30  1  0  0  0
 29 31  1  0  0  0
 19 20  1  0  0  0
 10 11  1  0  0  0
M  END
> <minimizedAffinity>
-7.89480

$$$$
