2CC7_LUM_A_1068


 20 22  0  0  0  0  0  0  0  0999 V2000
    3.6386   20.8610    2.7211 N   0  0  0  0  0  0  0  0  0  0  0  0
    4.0220   19.7502    3.3611 C   0  0  0  0  0  0  0  0  0  0  0  0
    2.8526   20.7518    1.5982 C   0  0  0  0  0  0  0  0  0  0  0  0
    4.7569   19.8333    4.3882 O   0  0  0  0  0  0  0  0  0  0  0  0
    3.6497   18.5063    2.9192 N   0  0  0  0  0  0  0  0  0  0  0  0
    2.8957   18.3137    1.8106 C   0  0  0  0  0  0  0  0  0  0  0  0
    2.5752   17.1498    1.4574 O   0  0  0  0  0  0  0  0  0  0  0  0
    2.4525   19.4243    1.0973 C   0  0  0  0  0  0  0  0  0  0  0  0
    1.6827   19.3110   -0.0227 N   0  0  0  0  0  0  0  0  0  0  0  0
    1.2899   20.4438   -0.6489 C   0  0  0  0  0  0  0  0  0  0  0  0
    0.4972   20.3456   -1.8017 C   0  0  0  0  0  0  0  0  0  0  0  0
    1.6651   21.7117   -0.1758 C   0  0  0  0  0  0  0  0  0  0  0  0
    0.0788   21.5005   -2.4539 C   0  0  0  0  0  0  0  0  0  0  0  0
   -0.8027   21.3528   -3.6915 C   0  0  0  0  0  0  0  0  0  0  0  0
    0.4446   22.7434   -1.9879 C   0  0  0  0  0  0  0  0  0  0  0  0
   -0.0195   23.9884   -2.7318 C   0  0  0  0  0  0  0  0  0  0  0  0
    1.2574   22.8688   -0.8495 C   0  0  0  0  0  0  0  0  0  0  0  0
    2.4223   21.8360    0.9330 N   0  0  0  0  0  0  0  0  0  0  0  0
    3.9162   21.7463    3.0505 H   0  0  0  0  0  0  0  0  0  0  0  0
    3.9437   17.7182    3.4307 H   0  0  0  0  0  0  0  0  0  0  0  0
  1  2  1  0  0  0
  1  3  1  0  0  0
  2  4  2  0  0  0
  2  5  1  0  0  0
  3  8  2  0  0  0
  3 18  1  0  0  0
  5  6  1  0  0  0
  6  7  2  0  0  0
  6  8  1  0  0  0
  8  9  1  0  0  0
  9 10  2  0  0  0
 10 11  1  0  0  0
 10 12  1  0  0  0
 11 13  2  0  0  0
 12 17  1  0  0  0
 12 18  2  0  0  0
 13 14  1  0  0  0
 13 15  1  0  0  0
 15 16  1  0  0  0
 15 17  2  0  0  0
  1 19  1  0  0  0
  5 20  1  0  0  0
M  END
> <minimizedAffinity>
-8.70694

$$$$
2CC7_LUM_A_1068


 20 22  0  0  0  0  0  0  0  0999 V2000
    0.0520   22.4699    2.2736 N   0  0  0  0  0  0  0  0  0  0  0  0
    0.8000   22.2188    3.3543 C   0  0  0  0  0  0  0  0  0  0  0  0
   -0.5053   21.4191    1.5836 C   0  0  0  0  0  0  0  0  0  0  0  0
    1.3311   23.1743    3.9922 O   0  0  0  0  0  0  0  0  0  0  0  0
    1.0243   20.9365    3.7860 N   0  0  0  0  0  0  0  0  0  0  0  0
    0.5293   19.8480    3.1497 C   0  0  0  0  0  0  0  0  0  0  0  0
    0.7585   18.6948    3.5966 O   0  0  0  0  0  0  0  0  0  0  0  0
   -0.2657   20.0320    2.0215 C   0  0  0  0  0  0  0  0  0  0  0  0
   -0.8068   18.9864    1.3333 N   0  0  0  0  0  0  0  0  0  0  0  0
   -1.5739   19.2574    0.2526 C   0  0  0  0  0  0  0  0  0  0  0  0
   -2.1389   18.1939   -0.4662 C   0  0  0  0  0  0  0  0  0  0  0  0
   -1.8086   20.5763   -0.1685 C   0  0  0  0  0  0  0  0  0  0  0  0
   -2.9358   18.4551   -1.5757 C   0  0  0  0  0  0  0  0  0  0  0  0
   -3.5523   17.2718   -2.3176 C   0  0  0  0  0  0  0  0  0  0  0  0
   -3.1678   19.7486   -1.9865 C   0  0  0  0  0  0  0  0  0  0  0  0
   -4.0348   20.0008   -3.2126 C   0  0  0  0  0  0  0  0  0  0  0  0
   -2.5946   20.8304   -1.2983 C   0  0  0  0  0  0  0  0  0  0  0  0
   -1.2822   21.6181    0.5067 N   0  0  0  0  0  0  0  0  0  0  0  0
   -0.0977   23.3963    1.9759 H   0  0  0  0  0  0  0  0  0  0  0  0
    1.5694   20.8011    4.5945 H   0  0  0  0  0  0  0  0  0  0  0  0
  1  2  1  0  0  0
  1  3  1  0  0  0
  2  4  2  0  0  0
  2  5  1  0  0  0
  3  8  2  0  0  0
  3 18  1  0  0  0
  5  6  1  0  0  0
  6  7  2  0  0  0
  6  8  1  0  0  0
  8  9  1  0  0  0
  9 10  2  0  0  0
 10 11  1  0  0  0
 10 12  1  0  0  0
 11 13  2  0  0  0
 12 17  1  0  0  0
 12 18  2  0  0  0
 13 14  1  0  0  0
 13 15  1  0  0  0
 15 16  1  0  0  0
 15 17  2  0  0  0
  1 19  1  0  0  0
  5 20  1  0  0  0
M  END
> <minimizedAffinity>
-8.61809

$$$$
2CC7_LUM_A_1068


 20 22  0  0  0  0  0  0  0  0999 V2000
    2.7319   17.4700    1.4395 N   0  0  0  0  0  0  0  0  0  0  0  0
    3.4961   17.4106    2.5363 C   0  0  0  0  0  0  0  0  0  0  0  0
    2.3854   18.6984    0.9281 C   0  0  0  0  0  0  0  0  0  0  0  0
    3.8124   16.2877    3.0272 O   0  0  0  0  0  0  0  0  0  0  0  0
    3.9383   18.5484    3.1616 N   0  0  0  0  0  0  0  0  0  0  0  0
    3.6231   19.7941    2.7332 C   0  0  0  0  0  0  0  0  0  0  0  0
    4.0657   20.8031    3.3402 O   0  0  0  0  0  0  0  0  0  0  0  0
    2.8376   19.9343    1.5923 C   0  0  0  0  0  0  0  0  0  0  0  0
    2.4865   21.1547    1.0951 N   0  0  0  0  0  0  0  0  0  0  0  0
    1.7271   21.1979   -0.0235 C   0  0  0  0  0  0  0  0  0  0  0  0
    1.3576   22.4448   -0.5488 C   0  0  0  0  0  0  0  0  0  0  0  0
    1.2950   20.0247   -0.6628 C   0  0  0  0  0  0  0  0  0  0  0  0
    0.5829   22.5073   -1.7021 C   0  0  0  0  0  0  0  0  0  0  0  0
    0.2214   23.8830   -2.2564 C   0  0  0  0  0  0  0  0  0  0  0  0
    0.1619   21.3565   -2.3301 C   0  0  0  0  0  0  0  0  0  0  0  0
   -0.6957   21.4587   -3.5842 C   0  0  0  0  0  0  0  0  0  0  0  0
    0.4983   20.0955   -1.8113 C   0  0  0  0  0  0  0  0  0  0  0  0
    1.6397   18.8126   -0.1827 N   0  0  0  0  0  0  0  0  0  0  0  0
    2.4213   16.6436    1.0038 H   0  0  0  0  0  0  0  0  0  0  0  0
    4.5103   18.4555    3.9575 H   0  0  0  0  0  0  0  0  0  0  0  0
  1  2  1  0  0  0
  1  3  1  0  0  0
  2  4  2  0  0  0
  2  5  1  0  0  0
  3  8  2  0  0  0
  3 18  1  0  0  0
  5  6  1  0  0  0
  6  7  2  0  0  0
  6  8  1  0  0  0
  8  9  1  0  0  0
  9 10  2  0  0  0
 10 11  1  0  0  0
 10 12  1  0  0  0
 11 13  2  0  0  0
 12 17  1  0  0  0
 12 18  2  0  0  0
 13 14  1  0  0  0
 13 15  1  0  0  0
 15 16  1  0  0  0
 15 17  2  0  0  0
  1 19  1  0  0  0
  5 20  1  0  0  0
M  END
> <minimizedAffinity>
-8.60139

$$$$
2CC7_LUM_A_1068


 20 22  0  0  0  0  0  0  0  0999 V2000
    1.5424   17.1851    5.4390 N   0  0  0  0  0  0  0  0  0  0  0  0
    2.3423   16.1566    5.7439 C   0  0  0  0  0  0  0  0  0  0  0  0
    1.4907   17.6336    4.1402 C   0  0  0  0  0  0  0  0  0  0  0  0
    2.4114   15.7409    6.9374 O   0  0  0  0  0  0  0  0  0  0  0  0
    3.1125   15.5429    4.7894 N   0  0  0  0  0  0  0  0  0  0  0  0
    3.1342   15.9387    3.4942 C   0  0  0  0  0  0  0  0  0  0  0  0
    3.8525   15.3318    2.6588 O   0  0  0  0  0  0  0  0  0  0  0  0
    2.3208   16.9980    3.1009 C   0  0  0  0  0  0  0  0  0  0  0  0
    2.2813   17.4472    1.8139 N   0  0  0  0  0  0  0  0  0  0  0  0
    1.4556   18.4772    1.5185 C   0  0  0  0  0  0  0  0  0  0  0  0
    1.4020   18.9512    0.1995 C   0  0  0  0  0  0  0  0  0  0  0  0
    0.6601   19.0856    2.5029 C   0  0  0  0  0  0  0  0  0  0  0  0
    0.5534   20.0048   -0.1227 C   0  0  0  0  0  0  0  0  0  0  0  0
    0.5055   20.4765   -1.5739 C   0  0  0  0  0  0  0  0  0  0  0  0
   -0.2285   20.5990    0.8424 C   0  0  0  0  0  0  0  0  0  0  0  0
   -1.1380   21.7588    0.4598 C   0  0  0  0  0  0  0  0  0  0  0  0
   -0.1760   20.1590    2.1750 C   0  0  0  0  0  0  0  0  0  0  0  0
    0.6878   18.6470    3.7778 N   0  0  0  0  0  0  0  0  0  0  0  0
    0.9973   17.6158    6.1366 H   0  0  0  0  0  0  0  0  0  0  0  0
    3.6749   14.7807    5.0577 H   0  0  0  0  0  0  0  0  0  0  0  0
  1  2  1  0  0  0
  1  3  1  0  0  0
  2  4  2  0  0  0
  2  5  1  0  0  0
  3  8  2  0  0  0
  3 18  1  0  0  0
  5  6  1  0  0  0
  6  7  2  0  0  0
  6  8  1  0  0  0
  8  9  1  0  0  0
  9 10  2  0  0  0
 10 11  1  0  0  0
 10 12  1  0  0  0
 11 13  2  0  0  0
 12 17  1  0  0  0
 12 18  2  0  0  0
 13 14  1  0  0  0
 13 15  1  0  0  0
 15 16  1  0  0  0
 15 17  2  0  0  0
  1 19  1  0  0  0
  5 20  1  0  0  0
M  END
> <minimizedAffinity>
-8.39168

$$$$
2CC7_LUM_A_1068


 20 22  0  0  0  0  0  0  0  0999 V2000
   -1.5101   17.1446   -5.4136 N   0  0  0  0  0  0  0  0  0  0  0  0
   -2.3107   16.1163   -5.7170 C   0  0  0  0  0  0  0  0  0  0  0  0
   -1.4824   17.6160   -4.1222 C   0  0  0  0  0  0  0  0  0  0  0  0
   -2.3577   15.6797   -6.9041 O   0  0  0  0  0  0  0  0  0  0  0  0
   -3.1054   15.5252   -4.7682 N   0  0  0  0  0  0  0  0  0  0  0  0
   -3.1514   15.9444   -3.4810 C   0  0  0  0  0  0  0  0  0  0  0  0
   -3.8917   15.3576   -2.6503 O   0  0  0  0  0  0  0  0  0  0  0  0
   -2.3388   17.0050   -3.0895 C   0  0  0  0  0  0  0  0  0  0  0  0
   -2.3232   17.4770   -1.8102 N   0  0  0  0  0  0  0  0  0  0  0  0
   -1.4964   18.5064   -1.5158 C   0  0  0  0  0  0  0  0  0  0  0  0
   -1.4672   19.0036   -0.2047 C   0  0  0  0  0  0  0  0  0  0  0  0
   -0.6760   19.0914   -2.4938 C   0  0  0  0  0  0  0  0  0  0  0  0
   -0.6179   20.0570    0.1167 C   0  0  0  0  0  0  0  0  0  0  0  0
   -0.5972   20.5544    1.5598 C   0  0  0  0  0  0  0  0  0  0  0  0
    0.1884   20.6284   -0.8421 C   0  0  0  0  0  0  0  0  0  0  0  0
    1.0981   21.7885   -0.4610 C   0  0  0  0  0  0  0  0  0  0  0  0
    0.1608   20.1648   -2.1675 C   0  0  0  0  0  0  0  0  0  0  0  0
   -0.6800   18.6301   -3.7610 N   0  0  0  0  0  0  0  0  0  0  0  0
   -0.9472   17.5588   -6.1070 H   0  0  0  0  0  0  0  0  0  0  0  0
   -3.6675   14.7622   -5.0347 H   0  0  0  0  0  0  0  0  0  0  0  0
  1  2  1  0  0  0
  1  3  1  0  0  0
  2  4  2  0  0  0
  2  5  1  0  0  0
  3  8  2  0  0  0
  3 18  1  0  0  0
  5  6  1  0  0  0
  6  7  2  0  0  0
  6  8  1  0  0  0
  8  9  1  0  0  0
  9 10  2  0  0  0
 10 11  1  0  0  0
 10 12  1  0  0  0
 11 13  2  0  0  0
 12 17  1  0  0  0
 12 18  2  0  0  0
 13 14  1  0  0  0
 13 15  1  0  0  0
 15 16  1  0  0  0
 15 17  2  0  0  0
  1 19  1  0  0  0
  5 20  1  0  0  0
M  END
> <minimizedAffinity>
-8.37792

$$$$
2CC7_LUM_A_1068


 20 22  0  0  0  0  0  0  0  0999 V2000
   -2.0707   15.8526   -1.4543 N   0  0  0  0  0  0  0  0  0  0  0  0
   -2.7805   15.5682   -2.5524 C   0  0  0  0  0  0  0  0  0  0  0  0
   -1.9551   17.1618   -1.0498 C   0  0  0  0  0  0  0  0  0  0  0  0
   -2.8850   14.3696   -2.9455 O   0  0  0  0  0  0  0  0  0  0  0  0
   -3.3922   16.5544   -3.2833 N   0  0  0  0  0  0  0  0  0  0  0  0
   -3.3079   17.8679   -2.9636 C   0  0  0  0  0  0  0  0  0  0  0  0
   -3.8984   18.7292   -3.6647 O   0  0  0  0  0  0  0  0  0  0  0  0
   -2.5923   18.2392   -1.8284 C   0  0  0  0  0  0  0  0  0  0  0  0
   -2.4704   19.5400   -1.4373 N   0  0  0  0  0  0  0  0  0  0  0  0
   -1.7632   19.8097   -0.3162 C   0  0  0  0  0  0  0  0  0  0  0  0
   -1.6285   21.1420    0.1008 C   0  0  0  0  0  0  0  0  0  0  0  0
   -1.1558   18.7880    0.4318 C   0  0  0  0  0  0  0  0  0  0  0  0
   -0.9107   21.4362    1.2550 C   0  0  0  0  0  0  0  0  0  0  0  0
   -0.8068   22.8960    1.6893 C   0  0  0  0  0  0  0  0  0  0  0  0
   -0.3177   20.4338    1.9896 C   0  0  0  0  0  0  0  0  0  0  0  0
    0.4720   20.7900    3.2418 C   0  0  0  0  0  0  0  0  0  0  0  0
   -0.4175   19.0939    1.5808 C   0  0  0  0  0  0  0  0  0  0  0  0
   -1.2734   17.4980    0.0570 N   0  0  0  0  0  0  0  0  0  0  0  0
   -1.6363   15.1329   -0.9419 H   0  0  0  0  0  0  0  0  0  0  0  0
   -3.9159   16.2960   -4.0759 H   0  0  0  0  0  0  0  0  0  0  0  0
  1  2  1  0  0  0
  1  3  1  0  0  0
  2  4  2  0  0  0
  2  5  1  0  0  0
  3  8  2  0  0  0
  3 18  1  0  0  0
  5  6  1  0  0  0
  6  7  2  0  0  0
  6  8  1  0  0  0
  8  9  1  0  0  0
  9 10  2  0  0  0
 10 11  1  0  0  0
 10 12  1  0  0  0
 11 13  2  0  0  0
 12 17  1  0  0  0
 12 18  2  0  0  0
 13 14  1  0  0  0
 13 15  1  0  0  0
 15 16  1  0  0  0
 15 17  2  0  0  0
  1 19  1  0  0  0
  5 20  1  0  0  0
M  END
> <minimizedAffinity>
-8.33139

$$$$
2CC7_LUM_A_1068


 20 22  0  0  0  0  0  0  0  0999 V2000
    3.0835   20.8245    3.4460 N   0  0  0  0  0  0  0  0  0  0  0  0
    3.6350   19.8448    2.7205 C   0  0  0  0  0  0  0  0  0  0  0  0
    1.9884   21.4923    2.9505 C   0  0  0  0  0  0  0  0  0  0  0  0
    4.6517   19.2298    3.1566 O   0  0  0  0  0  0  0  0  0  0  0  0
    3.1327   19.4949    1.4932 N   0  0  0  0  0  0  0  0  0  0  0  0
    2.0717   20.1179    0.9268 C   0  0  0  0  0  0  0  0  0  0  0  0
    1.6468   19.7481   -0.1979 O   0  0  0  0  0  0  0  0  0  0  0  0
    1.4407   21.1425    1.6273 C   0  0  0  0  0  0  0  0  0  0  0  0
    0.3619   21.8101    1.1269 N   0  0  0  0  0  0  0  0  0  0  0  0
   -0.1941   22.7869    1.8795 C   0  0  0  0  0  0  0  0  0  0  0  0
   -1.3047   23.4831    1.3805 C   0  0  0  0  0  0  0  0  0  0  0  0
    0.3207   23.1236    3.1419 C   0  0  0  0  0  0  0  0  0  0  0  0
   -1.8928   24.4856    2.1441 C   0  0  0  0  0  0  0  0  0  0  0  0
   -3.1144   25.2040    1.5767 C   0  0  0  0  0  0  0  0  0  0  0  0
   -1.3893   24.8134    3.3830 C   0  0  0  0  0  0  0  0  0  0  0  0
   -2.0483   25.9244    4.1892 C   0  0  0  0  0  0  0  0  0  0  0  0
   -0.2638   24.1478    3.8956 C   0  0  0  0  0  0  0  0  0  0  0  0
    1.3843   22.4673    3.6485 N   0  0  0  0  0  0  0  0  0  0  0  0
    3.4575   21.0645    4.3245 H   0  0  0  0  0  0  0  0  0  0  0  0
    3.5627   18.7581    1.0018 H   0  0  0  0  0  0  0  0  0  0  0  0
  1  2  1  0  0  0
  1  3  1  0  0  0
  2  4  2  0  0  0
  2  5  1  0  0  0
  3  8  2  0  0  0
  3 18  1  0  0  0
  5  6  1  0  0  0
  6  7  2  0  0  0
  6  8  1  0  0  0
  8  9  1  0  0  0
  9 10  2  0  0  0
 10 11  1  0  0  0
 10 12  1  0  0  0
 11 13  2  0  0  0
 12 17  1  0  0  0
 12 18  2  0  0  0
 13 14  1  0  0  0
 13 15  1  0  0  0
 15 16  1  0  0  0
 15 17  2  0  0  0
  1 19  1  0  0  0
  5 20  1  0  0  0
M  END
> <minimizedAffinity>
-8.24338

$$$$
2CC7_LUM_A_1068


 20 22  0  0  0  0  0  0  0  0999 V2000
    0.1764   17.0836    3.0221 N   0  0  0  0  0  0  0  0  0  0  0  0
    0.9001   17.6286    4.0068 C   0  0  0  0  0  0  0  0  0  0  0  0
   -0.4057   17.9030    2.0838 C   0  0  0  0  0  0  0  0  0  0  0  0
    1.4310   16.8888    4.8859 O   0  0  0  0  0  0  0  0  0  0  0  0
    1.0709   18.9861    4.1010 N   0  0  0  0  0  0  0  0  0  0  0  0
    0.5131   19.8608    3.2301 C   0  0  0  0  0  0  0  0  0  0  0  0
    0.7121   21.0961    3.3588 O   0  0  0  0  0  0  0  0  0  0  0  0
   -0.2471   19.3659    2.1739 C   0  0  0  0  0  0  0  0  0  0  0  0
   -0.8325   20.1829    1.2521 N   0  0  0  0  0  0  0  0  0  0  0  0
   -1.5473   19.6157    0.2536 C   0  0  0  0  0  0  0  0  0  0  0  0
   -2.1554   20.4413   -0.7034 C   0  0  0  0  0  0  0  0  0  0  0  0
   -1.7003   18.2229    0.1601 C   0  0  0  0  0  0  0  0  0  0  0  0
   -2.8881   19.8743   -1.7406 C   0  0  0  0  0  0  0  0  0  0  0  0
   -3.5147   20.8048   -2.7759 C   0  0  0  0  0  0  0  0  0  0  0  0
   -3.0354   18.5084   -1.8333 C   0  0  0  0  0  0  0  0  0  0  0  0
   -3.8543   17.9192   -2.9739 C   0  0  0  0  0  0  0  0  0  0  0  0
   -2.4565   17.6608   -0.8747 C   0  0  0  0  0  0  0  0  0  0  0  0
   -1.1224   17.4052    1.0633 N   0  0  0  0  0  0  0  0  0  0  0  0
    0.0621   16.1071    2.9699 H   0  0  0  0  0  0  0  0  0  0  0  0
    1.6237   19.3407    4.8344 H   0  0  0  0  0  0  0  0  0  0  0  0
  1  2  1  0  0  0
  1  3  1  0  0  0
  2  4  2  0  0  0
  2  5  1  0  0  0
  3  8  2  0  0  0
  3 18  1  0  0  0
  5  6  1  0  0  0
  6  7  2  0  0  0
  6  8  1  0  0  0
  8  9  1  0  0  0
  9 10  2  0  0  0
 10 11  1  0  0  0
 10 12  1  0  0  0
 11 13  2  0  0  0
 12 17  1  0  0  0
 12 18  2  0  0  0
 13 14  1  0  0  0
 13 15  1  0  0  0
 15 16  1  0  0  0
 15 17  2  0  0  0
  1 19  1  0  0  0
  5 20  1  0  0  0
M  END
> <minimizedAffinity>
-8.20664

$$$$
2CC7_LUM_A_1068


 20 22  0  0  0  0  0  0  0  0999 V2000
   -2.8673   18.6102   -3.6753 N   0  0  0  0  0  0  0  0  0  0  0  0
   -3.0065   17.3827   -4.1896 C   0  0  0  0  0  0  0  0  0  0  0  0
   -2.2973   18.7571   -2.4326 C   0  0  0  0  0  0  0  0  0  0  0  0
   -3.5417   17.2297   -5.3263 O   0  0  0  0  0  0  0  0  0  0  0  0
   -2.5952   16.2692   -3.5025 N   0  0  0  0  0  0  0  0  0  0  0  0
   -2.0450   16.3281   -2.2661 C   0  0  0  0  0  0  0  0  0  0  0  0
   -1.6761   15.2745   -1.6866 O   0  0  0  0  0  0  0  0  0  0  0  0
   -1.8611   17.5730   -1.6704 C   0  0  0  0  0  0  0  0  0  0  0  0
   -1.3060   17.7134   -0.4327 N   0  0  0  0  0  0  0  0  0  0  0  0
   -1.1574   18.9619    0.0663 C   0  0  0  0  0  0  0  0  0  0  0  0
   -0.5875   19.1245    1.3375 C   0  0  0  0  0  0  0  0  0  0  0  0
   -1.5682   20.0944   -0.6553 C   0  0  0  0  0  0  0  0  0  0  0  0
   -0.4211   20.4014    1.8627 C   0  0  0  0  0  0  0  0  0  0  0  0
    0.2249   20.5384    3.2391 C   0  0  0  0  0  0  0  0  0  0  0  0
   -0.8215   21.5116    1.1534 C   0  0  0  0  0  0  0  0  0  0  0  0
   -0.6368   22.8954    1.7614 C   0  0  0  0  0  0  0  0  0  0  0  0
   -1.4164   21.3749   -0.1114 C   0  0  0  0  0  0  0  0  0  0  0  0
   -2.1143   19.9679   -1.8818 N   0  0  0  0  0  0  0  0  0  0  0  0
   -3.1696   19.3990   -4.1809 H   0  0  0  0  0  0  0  0  0  0  0  0
   -2.7047   15.3877   -3.9270 H   0  0  0  0  0  0  0  0  0  0  0  0
  1  2  1  0  0  0
  1  3  1  0  0  0
  2  4  2  0  0  0
  2  5  1  0  0  0
  3  8  2  0  0  0
  3 18  1  0  0  0
  5  6  1  0  0  0
  6  7  2  0  0  0
  6  8  1  0  0  0
  8  9  1  0  0  0
  9 10  2  0  0  0
 10 11  1  0  0  0
 10 12  1  0  0  0
 11 13  2  0  0  0
 12 17  1  0  0  0
 12 18  2  0  0  0
 13 14  1  0  0  0
 13 15  1  0  0  0
 15 16  1  0  0  0
 15 17  2  0  0  0
  1 19  1  0  0  0
  5 20  1  0  0  0
M  END
> <minimizedAffinity>
-8.13911

$$$$
2CC7_LUM_A_1068


 20 22  0  0  0  0  0  0  0  0999 V2000
    1.0952   17.7695    4.3786 N   0  0  0  0  0  0  0  0  0  0  0  0
    2.2453   17.5155    5.0136 C   0  0  0  0  0  0  0  0  0  0  0  0
    1.1177   18.5036    3.2162 C   0  0  0  0  0  0  0  0  0  0  0  0
    2.2399   16.8528    6.0919 O   0  0  0  0  0  0  0  0  0  0  0  0
    3.4444   17.9739    4.5309 N   0  0  0  0  0  0  0  0  0  0  0  0
    3.5483   18.7209    3.4058 C   0  0  0  0  0  0  0  0  0  0  0  0
    4.6762   19.1059    3.0034 O   0  0  0  0  0  0  0  0  0  0  0  0
    2.3937   19.0184    2.6870 C   0  0  0  0  0  0  0  0  0  0  0  0
    2.4192   19.7569    1.5407 N   0  0  0  0  0  0  0  0  0  0  0  0
    1.2501   19.9913    0.9019 C   0  0  0  0  0  0  0  0  0  0  0  0
    1.2583   20.7482   -0.2788 C   0  0  0  0  0  0  0  0  0  0  0  0
    0.0313   19.5017    1.3989 C   0  0  0  0  0  0  0  0  0  0  0  0
    0.0661   20.9927   -0.9518 C   0  0  0  0  0  0  0  0  0  0  0  0
    0.1193   21.8004   -2.2462 C   0  0  0  0  0  0  0  0  0  0  0  0
   -1.1282   20.5101   -0.4656 C   0  0  0  0  0  0  0  0  0  0  0  0
   -2.4179   20.8056   -1.2193 C   0  0  0  0  0  0  0  0  0  0  0  0
   -1.1669   19.7694    0.7271 C   0  0  0  0  0  0  0  0  0  0  0  0
   -0.0054   18.7668    2.5290 N   0  0  0  0  0  0  0  0  0  0  0  0
    0.2427   17.4346    4.7396 H   0  0  0  0  0  0  0  0  0  0  0  0
    4.2664   17.7500    5.0243 H   0  0  0  0  0  0  0  0  0  0  0  0
  1  2  1  0  0  0
  1  3  1  0  0  0
  2  4  2  0  0  0
  2  5  1  0  0  0
  3  8  2  0  0  0
  3 18  1  0  0  0
  5  6  1  0  0  0
  6  7  2  0  0  0
  6  8  1  0  0  0
  8  9  1  0  0  0
  9 10  2  0  0  0
 10 11  1  0  0  0
 10 12  1  0  0  0
 11 13  2  0  0  0
 12 17  1  0  0  0
 12 18  2  0  0  0
 13 14  1  0  0  0
 13 15  1  0  0  0
 15 16  1  0  0  0
 15 17  2  0  0  0
  1 19  1  0  0  0
  5 20  1  0  0  0
M  END
> <minimizedAffinity>
-8.12965

$$$$
