4RE4_IFM_A_501


 14 14  0  0  0  0  0  0  0  0999 V2000
   10.1270   10.6272   10.2444 O   0  0  0  0  0  0  0  0  0  0  0  0
    9.1949   11.2368   11.1532 C   0  0  0  0  0  0  0  0  0  0  0  0
    8.9861   10.3324   12.3826 C   0  0  0  0  0  0  0  0  0  0  0  0
    8.3957    9.1002   11.9621 O   0  0  0  0  0  0  0  0  0  0  0  0
    8.1148   10.9700   13.4740 C   0  0  0  0  0  0  0  0  0  0  0  0
    8.4240   12.3823   13.6791 N   0  0  0  0  0  0  0  0  0  0  0  0
    8.6458   13.2825   12.5411 C   0  0  0  0  0  0  0  0  0  0  0  0
    9.6471   12.6565   11.5535 C   0  0  0  0  0  0  0  0  0  0  0  0
    9.8170    9.7381   10.0113 H   0  0  0  0  0  0  0  0  0  0  0  0
    7.5248    9.2753   11.5726 H   0  0  0  0  0  0  0  0  0  0  0  0
    9.2733   12.4139   14.2432 H   0  0  0  0  0  0  0  0  0  0  0  0
    9.9096   13.5989   10.3682 C   0  0  0  0  0  0  0  0  0  0  0  0
    8.7000   13.9005    9.6461 O   0  0  0  0  0  0  0  0  0  0  0  0
    8.3247   13.0811    9.2874 H   0  0  0  0  0  0  0  0  0  0  0  0
  1  2  1  0  0  0
  2  3  1  0  0  0
  2  8  1  0  0  0
  3  4  1  0  0  0
  3  5  1  0  0  0
  5  6  1  0  0  0
  6  7  1  0  0  0
  7  8  1  0  0  0
  8 12  1  0  0  0
 12 13  1  0  0  0
  1  9  1  0  0  0
  4 10  1  0  0  0
  6 11  1  0  0  0
 13 14  1  0  0  0
M  END
> <minimizedAffinity>
-6.37135

$$$$
4RE4_IFM_A_501


 14 14  0  0  0  0  0  0  0  0999 V2000
    6.0982   11.1307   11.0763 O   0  0  0  0  0  0  0  0  0  0  0  0
    7.1805   11.6004   11.8974 C   0  0  0  0  0  0  0  0  0  0  0  0
    8.4674   10.8174   11.5755 C   0  0  0  0  0  0  0  0  0  0  0  0
    8.2733    9.4408   11.9090 O   0  0  0  0  0  0  0  0  0  0  0  0
    9.7093   11.3492   12.3045 C   0  0  0  0  0  0  0  0  0  0  0  0
    9.7572   12.8084   12.3311 N   0  0  0  0  0  0  0  0  0  0  0  0
    8.5555   13.6009   12.6186 C   0  0  0  0  0  0  0  0  0  0  0  0
    7.3805   13.1228   11.7466 C   0  0  0  0  0  0  0  0  0  0  0  0
    5.9967   10.1730   11.1918 H   0  0  0  0  0  0  0  0  0  0  0  0
    8.1079    9.3591   12.8613 H   0  0  0  0  0  0  0  0  0  0  0  0
   10.0861   13.1042   11.4121 H   0  0  0  0  0  0  0  0  0  0  0  0
    6.1207   13.9603   12.0178 C   0  0  0  0  0  0  0  0  0  0  0  0
    5.0841   13.1804   12.6446 O   0  0  0  0  0  0  0  0  0  0  0  0
    4.8274   12.4523   12.0573 H   0  0  0  0  0  0  0  0  0  0  0  0
  1  2  1  0  0  0
  2  3  1  0  0  0
  2  8  1  0  0  0
  3  4  1  0  0  0
  3  5  1  0  0  0
  5  6  1  0  0  0
  6  7  1  0  0  0
  7  8  1  0  0  0
  8 12  1  0  0  0
 12 13  1  0  0  0
  1  9  1  0  0  0
  4 10  1  0  0  0
  6 11  1  0  0  0
 13 14  1  0  0  0
M  END
> <minimizedAffinity>
-6.23303

$$$$
4RE4_IFM_A_501


 14 14  0  0  0  0  0  0  0  0999 V2000
    8.2413   13.4761   13.4245 O   0  0  0  0  0  0  0  0  0  0  0  0
    8.8793   12.3632   12.7758 C   0  0  0  0  0  0  0  0  0  0  0  0
    8.1702   11.0503   13.1582 C   0  0  0  0  0  0  0  0  0  0  0  0
    8.3109   10.8351   14.5646 O   0  0  0  0  0  0  0  0  0  0  0  0
    8.6957    9.8239   12.3988 C   0  0  0  0  0  0  0  0  0  0  0  0
    8.9465   10.1076   10.9886 N   0  0  0  0  0  0  0  0  0  0  0  0
    9.6059   11.3509   10.5713 C   0  0  0  0  0  0  0  0  0  0  0  0
    8.9371   12.5617   11.2469 C   0  0  0  0  0  0  0  0  0  0  0  0
    8.2197   13.3233   14.3821 H   0  0  0  0  0  0  0  0  0  0  0  0
    9.2506   10.7384   14.7845 H   0  0  0  0  0  0  0  0  0  0  0  0
    8.0386   10.0913   10.5240 H   0  0  0  0  0  0  0  0  0  0  0  0
    9.6003   13.8741   10.7999 C   0  0  0  0  0  0  0  0  0  0  0  0
   11.0377   13.7768   10.8066 O   0  0  0  0  0  0  0  0  0  0  0  0
   11.3448   13.5889   11.7073 H   0  0  0  0  0  0  0  0  0  0  0  0
  1  2  1  0  0  0
  2  3  1  0  0  0
  2  8  1  0  0  0
  3  4  1  0  0  0
  3  5  1  0  0  0
  5  6  1  0  0  0
  6  7  1  0  0  0
  7  8  1  0  0  0
  8 12  1  0  0  0
 12 13  1  0  0  0
  1  9  1  0  0  0
  4 10  1  0  0  0
  6 11  1  0  0  0
 13 14  1  0  0  0
M  END
> <minimizedAffinity>
-6.21843

$$$$
4RE4_IFM_A_501


 14 14  0  0  0  0  0  0  0  0999 V2000
    6.2310   11.9549   11.5405 O   0  0  0  0  0  0  0  0  0  0  0  0
    7.5954   12.1446   11.1298 C   0  0  0  0  0  0  0  0  0  0  0  0
    7.8010   13.5860   10.6268 C   0  0  0  0  0  0  0  0  0  0  0  0
    6.9949   13.7955    9.4649 O   0  0  0  0  0  0  0  0  0  0  0  0
    9.2634   13.9207   10.3010 C   0  0  0  0  0  0  0  0  0  0  0  0
   10.1923   13.3765   11.2875 N   0  0  0  0  0  0  0  0  0  0  0  0
   10.0315   12.0139   11.8089 C   0  0  0  0  0  0  0  0  0  0  0  0
    8.5785   11.7850   12.2632 C   0  0  0  0  0  0  0  0  0  0  0  0
    5.6378   12.1882   10.8094 H   0  0  0  0  0  0  0  0  0  0  0  0
    7.2805   13.1930    8.7604 H   0  0  0  0  0  0  0  0  0  0  0  0
   10.1577   14.0009   12.0933 H   0  0  0  0  0  0  0  0  0  0  0  0
    8.3999   10.3701   12.8358 C   0  0  0  0  0  0  0  0  0  0  0  0
    7.3034   10.3043   13.7680 O   0  0  0  0  0  0  0  0  0  0  0  0
    7.4772   10.8992   14.5142 H   0  0  0  0  0  0  0  0  0  0  0  0
  1  2  1  0  0  0
  2  3  1  0  0  0
  2  8  1  0  0  0
  3  4  1  0  0  0
  3  5  1  0  0  0
  5  6  1  0  0  0
  6  7  1  0  0  0
  7  8  1  0  0  0
  8 12  1  0  0  0
 12 13  1  0  0  0
  1  9  1  0  0  0
  4 10  1  0  0  0
  6 11  1  0  0  0
 13 14  1  0  0  0
M  END
> <minimizedAffinity>
-5.90546

$$$$
4RE4_IFM_A_501


 14 14  0  0  0  0  0  0  0  0999 V2000
    8.7857   13.6808   13.6946 O   0  0  0  0  0  0  0  0  0  0  0  0
    7.9572   13.1327   12.6556 C   0  0  0  0  0  0  0  0  0  0  0  0
    7.6335   14.2164   11.6099 C   0  0  0  0  0  0  0  0  0  0  0  0
    6.8709   15.2536   12.2317 O   0  0  0  0  0  0  0  0  0  0  0  0
    6.8708   13.6839   10.3886 C   0  0  0  0  0  0  0  0  0  0  0  0
    7.3785   12.3923    9.9347 N   0  0  0  0  0  0  0  0  0  0  0  0
    7.7154   11.3317   10.8919 C   0  0  0  0  0  0  0  0  0  0  0  0
    8.6093   11.8904   12.0137 C   0  0  0  0  0  0  0  0  0  0  0  0
    8.3510   14.4584   14.0784 H   0  0  0  0  0  0  0  0  0  0  0  0
    6.0301   14.8899   12.5506 H   0  0  0  0  0  0  0  0  0  0  0  0
    8.2286   12.5851    9.4050 H   0  0  0  0  0  0  0  0  0  0  0  0
    8.9920   10.7854   13.0110 C   0  0  0  0  0  0  0  0  0  0  0  0
    8.3331   10.9583   14.2804 O   0  0  0  0  0  0  0  0  0  0  0  0
    8.5996   11.8056   14.6703 H   0  0  0  0  0  0  0  0  0  0  0  0
  1  2  1  0  0  0
  2  3  1  0  0  0
  2  8  1  0  0  0
  3  4  1  0  0  0
  3  5  1  0  0  0
  5  6  1  0  0  0
  6  7  1  0  0  0
  7  8  1  0  0  0
  8 12  1  0  0  0
 12 13  1  0  0  0
  1  9  1  0  0  0
  4 10  1  0  0  0
  6 11  1  0  0  0
 13 14  1  0  0  0
M  END
> <minimizedAffinity>
-5.87307

$$$$
4RE4_IFM_A_501


 14 14  0  0  0  0  0  0  0  0999 V2000
    9.8205   11.3795   12.5343 O   0  0  0  0  0  0  0  0  0  0  0  0
    8.7649   11.7416   11.6281 C   0  0  0  0  0  0  0  0  0  0  0  0
    7.3983   11.3613   12.2286 C   0  0  0  0  0  0  0  0  0  0  0  0
    7.3329    9.9413   12.3804 O   0  0  0  0  0  0  0  0  0  0  0  0
    6.2041   11.8409   11.3915 C   0  0  0  0  0  0  0  0  0  0  0  0
    6.3963   13.1911   10.8697 N   0  0  0  0  0  0  0  0  0  0  0  0
    7.6837   13.6073   10.3004 C   0  0  0  0  0  0  0  0  0  0  0  0
    8.8332   13.2372   11.2550 C   0  0  0  0  0  0  0  0  0  0  0  0
    9.7518   10.4363   12.7502 H   0  0  0  0  0  0  0  0  0  0  0  0
    7.4010    9.5195   11.5095 H   0  0  0  0  0  0  0  0  0  0  0  0
    6.2002   13.8300   11.6401 H   0  0  0  0  0  0  0  0  0  0  0  0
   10.1866   13.6898   10.6844 C   0  0  0  0  0  0  0  0  0  0  0  0
   10.8125   12.6526    9.9045 O   0  0  0  0  0  0  0  0  0  0  0  0
   10.9789   11.8805   10.4676 H   0  0  0  0  0  0  0  0  0  0  0  0
  1  2  1  0  0  0
  2  3  1  0  0  0
  2  8  1  0  0  0
  3  4  1  0  0  0
  3  5  1  0  0  0
  5  6  1  0  0  0
  6  7  1  0  0  0
  7  8  1  0  0  0
  8 12  1  0  0  0
 12 13  1  0  0  0
  1  9  1  0  0  0
  4 10  1  0  0  0
  6 11  1  0  0  0
 13 14  1  0  0  0
M  END
> <minimizedAffinity>
-5.85363

$$$$
4RE4_IFM_A_501


 14 14  0  0  0  0  0  0  0  0999 V2000
    8.2578   11.3989   10.1014 O   0  0  0  0  0  0  0  0  0  0  0  0
    7.7475   12.5910   10.7218 C   0  0  0  0  0  0  0  0  0  0  0  0
    6.5688   12.2415   11.6500 C   0  0  0  0  0  0  0  0  0  0  0  0
    5.5007   11.7028   10.8672 O   0  0  0  0  0  0  0  0  0  0  0  0
    6.0528   13.4359   12.4648 C   0  0  0  0  0  0  0  0  0  0  0  0
    7.1363   14.2682   12.9802 N   0  0  0  0  0  0  0  0  0  0  0  0
    8.2885   14.6176   12.1405 C   0  0  0  0  0  0  0  0  0  0  0  0
    8.8601   13.3564   11.4680 C   0  0  0  0  0  0  0  0  0  0  0  0
    7.5375   10.9402    9.6412 H   0  0  0  0  0  0  0  0  0  0  0  0
    5.1922   12.3724   10.2368 H   0  0  0  0  0  0  0  0  0  0  0  0
    7.5093   13.7847   13.7972 H   0  0  0  0  0  0  0  0  0  0  0  0
   10.0838   13.7024   10.6050 C   0  0  0  0  0  0  0  0  0  0  0  0
   10.6790   12.5260   10.0242 O   0  0  0  0  0  0  0  0  0  0  0  0
   10.9807   11.9338   10.7308 H   0  0  0  0  0  0  0  0  0  0  0  0
  1  2  1  0  0  0
  2  3  1  0  0  0
  2  8  1  0  0  0
  3  4  1  0  0  0
  3  5  1  0  0  0
  5  6  1  0  0  0
  6  7  1  0  0  0
  7  8  1  0  0  0
  8 12  1  0  0  0
 12 13  1  0  0  0
  1  9  1  0  0  0
  4 10  1  0  0  0
  6 11  1  0  0  0
 13 14  1  0  0  0
M  END
> <minimizedAffinity>
-5.75332

$$$$
4RE4_IFM_A_501


 14 14  0  0  0  0  0  0  0  0999 V2000
    8.4468   13.6772   13.6576 O   0  0  0  0  0  0  0  0  0  0  0  0
    8.3254   13.2242   12.2988 C   0  0  0  0  0  0  0  0  0  0  0  0
    9.1195   11.9189   12.1031 C   0  0  0  0  0  0  0  0  0  0  0  0
   10.5083   12.1791   12.3212 O   0  0  0  0  0  0  0  0  0  0  0  0
    8.9300   11.2858   10.7175 C   0  0  0  0  0  0  0  0  0  0  0  0
    7.5436   11.3451   10.2630 N   0  0  0  0  0  0  0  0  0  0  0  0
    6.7398   12.5606   10.4392 C   0  0  0  0  0  0  0  0  0  0  0  0
    6.8463   13.0646   11.8898 C   0  0  0  0  0  0  0  0  0  0  0  0
    9.3853   13.7680   13.8855 H   0  0  0  0  0  0  0  0  0  0  0  0
   10.8244   12.8188   11.6642 H   0  0  0  0  0  0  0  0  0  0  0  0
    7.0477   10.5972   10.7478 H   0  0  0  0  0  0  0  0  0  0  0  0
    5.9891   14.3233   12.0970 C   0  0  0  0  0  0  0  0  0  0  0  0
    5.8352   14.6423   13.4934 O   0  0  0  0  0  0  0  0  0  0  0  0
    5.3881   13.9095   13.9452 H   0  0  0  0  0  0  0  0  0  0  0  0
  1  2  1  0  0  0
  2  3  1  0  0  0
  2  8  1  0  0  0
  3  4  1  0  0  0
  3  5  1  0  0  0
  5  6  1  0  0  0
  6  7  1  0  0  0
  7  8  1  0  0  0
  8 12  1  0  0  0
 12 13  1  0  0  0
  1  9  1  0  0  0
  4 10  1  0  0  0
  6 11  1  0  0  0
 13 14  1  0  0  0
M  END
> <minimizedAffinity>
-5.73213

$$$$
4RE4_IFM_A_501


 14 14  0  0  0  0  0  0  0  0999 V2000
    9.2318   14.4702   11.4913 O   0  0  0  0  0  0  0  0  0  0  0  0
    8.6567   13.1989   11.1455 C   0  0  0  0  0  0  0  0  0  0  0  0
    9.7599   12.1283   11.0471 C   0  0  0  0  0  0  0  0  0  0  0  0
   10.6521   12.4722    9.9843 O   0  0  0  0  0  0  0  0  0  0  0  0
    9.2205   10.7087   10.8219 C   0  0  0  0  0  0  0  0  0  0  0  0
    8.0339   10.4298   11.6258 N   0  0  0  0  0  0  0  0  0  0  0  0
    6.9612   11.4223   11.7631 C   0  0  0  0  0  0  0  0  0  0  0  0
    7.5492   12.7941   12.1404 C   0  0  0  0  0  0  0  0  0  0  0  0
    9.9230   14.6976   10.8498 H   0  0  0  0  0  0  0  0  0  0  0  0
   10.1677   12.4758    9.1439 H   0  0  0  0  0  0  0  0  0  0  0  0
    8.3643   10.2280   12.5695 H   0  0  0  0  0  0  0  0  0  0  0  0
    6.4354   13.8389   12.3130 C   0  0  0  0  0  0  0  0  0  0  0  0
    6.7124   14.7418   13.4009 O   0  0  0  0  0  0  0  0  0  0  0  0
    6.7712   14.2412   14.2297 H   0  0  0  0  0  0  0  0  0  0  0  0
  1  2  1  0  0  0
  2  3  1  0  0  0
  2  8  1  0  0  0
  3  4  1  0  0  0
  3  5  1  0  0  0
  5  6  1  0  0  0
  6  7  1  0  0  0
  7  8  1  0  0  0
  8 12  1  0  0  0
 12 13  1  0  0  0
  1  9  1  0  0  0
  4 10  1  0  0  0
  6 11  1  0  0  0
 13 14  1  0  0  0
M  END
> <minimizedAffinity>
-5.68297

$$$$
4RE4_IFM_A_501


 14 14  0  0  0  0  0  0  0  0999 V2000
    6.0222   11.0194   10.9767 O   0  0  0  0  0  0  0  0  0  0  0  0
    6.7754   12.1889   11.3393 C   0  0  0  0  0  0  0  0  0  0  0  0
    5.8370   13.2634   11.9206 C   0  0  0  0  0  0  0  0  0  0  0  0
    4.9127   13.6735   10.9100 O   0  0  0  0  0  0  0  0  0  0  0  0
    6.5750   14.4935   12.4673 C   0  0  0  0  0  0  0  0  0  0  0  0
    7.7834   14.1357   13.2049 N   0  0  0  0  0  0  0  0  0  0  0  0
    8.7025   13.1082   12.7009 C   0  0  0  0  0  0  0  0  0  0  0  0
    7.9220   11.8399   12.3109 C   0  0  0  0  0  0  0  0  0  0  0  0
    5.3104   11.2694   10.3670 H   0  0  0  0  0  0  0  0  0  0  0  0
    5.3978   14.0730   10.1711 H   0  0  0  0  0  0  0  0  0  0  0  0
    7.4782   13.8243   14.1270 H   0  0  0  0  0  0  0  0  0  0  0  0
    8.8740   10.7446   11.8049 C   0  0  0  0  0  0  0  0  0  0  0  0
    8.3094    9.4289   11.9650 O   0  0  0  0  0  0  0  0  0  0  0  0
    8.1465    9.2593   12.9061 H   0  0  0  0  0  0  0  0  0  0  0  0
  1  2  1  0  0  0
  2  3  1  0  0  0
  2  8  1  0  0  0
  3  4  1  0  0  0
  3  5  1  0  0  0
  5  6  1  0  0  0
  6  7  1  0  0  0
  7  8  1  0  0  0
  8 12  1  0  0  0
 12 13  1  0  0  0
  1  9  1  0  0  0
  4 10  1  0  0  0
  6 11  1  0  0  0
 13 14  1  0  0  0
M  END
> <minimizedAffinity>
-5.48700

$$$$
