5DH4_5AV_A_803


 20 22  0  0  0  0  0  0  0  0999 V2000
    6.2368   11.5086   44.3811 C   0  0  0  0  0  0  0  0  0  0  0  0
    4.4437   13.0698   45.1932 C   0  0  0  0  0  0  0  0  0  0  0  0
    4.1830   13.4909   43.9385 N   0  0  0  0  0  0  0  0  0  0  0  0
    3.8834   13.4388   46.4444 C   0  0  0  0  0  0  0  0  0  0  0  0
    4.9312   12.9210   42.9757 C   0  0  0  0  0  0  0  0  0  0  0  0
    5.4087   12.1278   45.4238 N   0  0  0  0  0  0  0  0  0  0  0  0
    4.5579   13.5038   41.3912 Cl  0  0  0  0  0  0  0  0  0  0  0  0
    5.9330   11.9739   43.1139 C   0  0  0  0  0  0  0  0  0  0  0  0
    5.4595   11.8797   46.8409 N   0  0  0  0  0  0  0  0  0  0  0  0
    4.5317   12.6942   47.4289 C   0  0  0  0  0  0  0  0  0  0  0  0
    7.1937   10.5629   44.7999 N   0  0  0  0  0  0  0  0  0  0  0  0
    7.9291   10.7887   45.4143 H   0  0  0  0  0  0  0  0  0  0  0  0
    7.0116    9.2355   44.2574 C   0  0  0  0  0  0  0  0  0  0  0  0
    8.1744    8.5180   43.7081 C   0  0  0  0  0  0  0  0  0  0  0  0
   10.0022    7.0172   43.1993 C   0  0  0  0  0  0  0  0  0  0  0  0
    8.9361    8.8550   42.6080 C   0  0  0  0  0  0  0  0  0  0  0  0
   10.9883    5.9239   43.1831 C   0  0  0  0  0  0  0  0  0  0  0  0
    8.7844    7.0750   44.4130 S   0  0  0  0  0  0  0  0  0  0  0  0
    9.9681    7.9945   42.3244 N   0  0  0  0  0  0  0  0  0  0  0  0
    8.7382   10.0225   41.7283 C   0  0  0  0  0  0  0  0  0  0  0  0
 10  4  1  0  0  0
 10  9  2  0  0  0
  4  2  2  0  0  0
  9  6  1  0  0  0
  2  6  1  0  0  0
  2  3  1  0  0  0
  6  1  1  0  0  0
  3  5  2  0  0  0
 11  1  1  0  0  0
 11 13  1  0  0  0
  1  8  2  0  0  0
 18 14  1  0  0  0
 18 15  1  0  0  0
  5  8  1  0  0  0
  5  7  1  0  0  0
 13 14  1  0  0  0
 17 15  1  0  0  0
 14 16  2  0  0  0
 15 19  2  0  0  0
 16 19  1  0  0  0
 16 20  1  0  0  0
 11 12  1  0  0  0
M  END
> <minimizedAffinity>
-6.93693

$$$$
5DH4_5AV_A_803


 20 22  0  0  0  0  0  0  0  0999 V2000
    5.1193   12.4185   43.4333 C   0  0  0  0  0  0  0  0  0  0  0  0
    3.7366   14.3720   44.1976 C   0  0  0  0  0  0  0  0  0  0  0  0
    3.5606   14.7978   42.9298 N   0  0  0  0  0  0  0  0  0  0  0  0
    3.2913   14.9011   45.4375 C   0  0  0  0  0  0  0  0  0  0  0  0
    4.1475   14.0405   41.9844 C   0  0  0  0  0  0  0  0  0  0  0  0
    4.4668   13.2446   44.4572 N   0  0  0  0  0  0  0  0  0  0  0  0
    3.8940   14.6378   40.3816 Cl  0  0  0  0  0  0  0  0  0  0  0  0
    4.9112   12.8966   42.1516 C   0  0  0  0  0  0  0  0  0  0  0  0
    4.4796   13.0403   45.8821 N   0  0  0  0  0  0  0  0  0  0  0  0
    3.7679   14.0633   46.4450 C   0  0  0  0  0  0  0  0  0  0  0  0
    5.8434   11.2958   43.8812 N   0  0  0  0  0  0  0  0  0  0  0  0
    6.2838   11.2651   44.7611 H   0  0  0  0  0  0  0  0  0  0  0  0
    5.8894   10.1927   42.9482 C   0  0  0  0  0  0  0  0  0  0  0  0
    6.9553    9.1851   43.0786 C   0  0  0  0  0  0  0  0  0  0  0  0
    8.9759    7.8572   43.0004 C   0  0  0  0  0  0  0  0  0  0  0  0
    6.9063    7.9817   43.7522 C   0  0  0  0  0  0  0  0  0  0  0  0
   10.3286    7.3309   42.7532 C   0  0  0  0  0  0  0  0  0  0  0  0
    8.5017    9.3803   42.3564 S   0  0  0  0  0  0  0  0  0  0  0  0
    8.0595    7.2375   43.7061 N   0  0  0  0  0  0  0  0  0  0  0  0
    5.7573    7.4439   44.5048 C   0  0  0  0  0  0  0  0  0  0  0  0
 10  4  1  0  0  0
 10  9  2  0  0  0
  4  2  2  0  0  0
  9  6  1  0  0  0
  2  6  1  0  0  0
  2  3  1  0  0  0
  6  1  1  0  0  0
  3  5  2  0  0  0
 11  1  1  0  0  0
 11 13  1  0  0  0
  1  8  2  0  0  0
 18 14  1  0  0  0
 18 15  1  0  0  0
  5  8  1  0  0  0
  5  7  1  0  0  0
 13 14  1  0  0  0
 17 15  1  0  0  0
 14 16  2  0  0  0
 15 19  2  0  0  0
 16 19  1  0  0  0
 16 20  1  0  0  0
 11 12  1  0  0  0
M  END
> <minimizedAffinity>
-6.91978

$$$$
5DH4_5AV_A_803


 20 22  0  0  0  0  0  0  0  0999 V2000
    6.5700   11.7437   44.3777 C   0  0  0  0  0  0  0  0  0  0  0  0
    4.5018   12.9921   45.0678 C   0  0  0  0  0  0  0  0  0  0  0  0
    4.2198   13.3164   43.7891 N   0  0  0  0  0  0  0  0  0  0  0  0
    3.8380   13.3003   46.2843 C   0  0  0  0  0  0  0  0  0  0  0  0
    5.0925   12.8538   42.8747 C   0  0  0  0  0  0  0  0  0  0  0  0
    5.6071   12.2435   45.3673 N   0  0  0  0  0  0  0  0  0  0  0  0
    4.6840   13.3058   41.2565 Cl  0  0  0  0  0  0  0  0  0  0  0  0
    6.2384   12.1035   43.0835 C   0  0  0  0  0  0  0  0  0  0  0  0
    5.6461   12.0581   46.7944 N   0  0  0  0  0  0  0  0  0  0  0  0
    4.5684   12.7164   47.3186 C   0  0  0  0  0  0  0  0  0  0  0  0
    7.6608   10.9968   44.8653 N   0  0  0  0  0  0  0  0  0  0  0  0
    8.5292   11.4063   45.0832 H   0  0  0  0  0  0  0  0  0  0  0  0
    7.4057    9.5825   45.0206 C   0  0  0  0  0  0  0  0  0  0  0  0
    7.6413    8.6803   43.8808 C   0  0  0  0  0  0  0  0  0  0  0  0
    8.3733    7.5545   41.8686 C   0  0  0  0  0  0  0  0  0  0  0  0
    7.0141    7.4828   43.6039 C   0  0  0  0  0  0  0  0  0  0  0  0
    9.0427    7.1585   40.6183 C   0  0  0  0  0  0  0  0  0  0  0  0
    8.7983    9.0227   42.6579 S   0  0  0  0  0  0  0  0  0  0  0  0
    7.4398    6.8490   42.4624 N   0  0  0  0  0  0  0  0  0  0  0  0
    5.9612    6.8370   44.4103 C   0  0  0  0  0  0  0  0  0  0  0  0
 10  4  1  0  0  0
 10  9  2  0  0  0
  4  2  2  0  0  0
  9  6  1  0  0  0
  2  6  1  0  0  0
  2  3  1  0  0  0
  6  1  1  0  0  0
  3  5  2  0  0  0
 11  1  1  0  0  0
 11 13  1  0  0  0
  1  8  2  0  0  0
 18 14  1  0  0  0
 18 15  1  0  0  0
  5  8  1  0  0  0
  5  7  1  0  0  0
 13 14  1  0  0  0
 17 15  1  0  0  0
 14 16  2  0  0  0
 15 19  2  0  0  0
 16 19  1  0  0  0
 16 20  1  0  0  0
 11 12  1  0  0  0
M  END
> <minimizedAffinity>
-6.83303

$$$$
5DH4_5AV_A_803


 20 22  0  0  0  0  0  0  0  0999 V2000
    5.8645   11.6970   43.9123 C   0  0  0  0  0  0  0  0  0  0  0  0
    4.3708   13.3078   45.1314 C   0  0  0  0  0  0  0  0  0  0  0  0
    3.9997   13.9019   43.9786 N   0  0  0  0  0  0  0  0  0  0  0  0
    4.0183   13.5716   46.4811 C   0  0  0  0  0  0  0  0  0  0  0  0
    4.5523   13.3867   42.8647 C   0  0  0  0  0  0  0  0  0  0  0  0
    5.2488   12.2586   45.1214 N   0  0  0  0  0  0  0  0  0  0  0  0
    4.0458   14.1915   41.4205 Cl  0  0  0  0  0  0  0  0  0  0  0  0
    5.4542   12.3403   42.7581 C   0  0  0  0  0  0  0  0  0  0  0  0
    5.4525   11.8352   46.4821 N   0  0  0  0  0  0  0  0  0  0  0  0
    4.7017   12.6547   47.2787 C   0  0  0  0  0  0  0  0  0  0  0  0
    6.7582   10.6219   44.0884 N   0  0  0  0  0  0  0  0  0  0  0  0
    7.3552   10.5505   44.8679 H   0  0  0  0  0  0  0  0  0  0  0  0
    6.7301    9.6320   43.0354 C   0  0  0  0  0  0  0  0  0  0  0  0
    7.5672    8.4268   43.1595 C   0  0  0  0  0  0  0  0  0  0  0  0
    9.2870    6.7265   43.1020 C   0  0  0  0  0  0  0  0  0  0  0  0
    7.2440    7.2289   43.7634 C   0  0  0  0  0  0  0  0  0  0  0  0
   10.5210    5.9519   42.8889 C   0  0  0  0  0  0  0  0  0  0  0  0
    9.1596    8.3407   42.5210 S   0  0  0  0  0  0  0  0  0  0  0  0
    8.2283    6.2719   43.7299 N   0  0  0  0  0  0  0  0  0  0  0  0
    5.9711    6.8988   44.4319 C   0  0  0  0  0  0  0  0  0  0  0  0
 10  4  1  0  0  0
 10  9  2  0  0  0
  4  2  2  0  0  0
  9  6  1  0  0  0
  2  6  1  0  0  0
  2  3  1  0  0  0
  6  1  1  0  0  0
  3  5  2  0  0  0
 11  1  1  0  0  0
 11 13  1  0  0  0
  1  8  2  0  0  0
 18 14  1  0  0  0
 18 15  1  0  0  0
  5  8  1  0  0  0
  5  7  1  0  0  0
 13 14  1  0  0  0
 17 15  1  0  0  0
 14 16  2  0  0  0
 15 19  2  0  0  0
 16 19  1  0  0  0
 16 20  1  0  0  0
 11 12  1  0  0  0
M  END
> <minimizedAffinity>
-6.78117

$$$$
5DH4_5AV_A_803


 20 22  0  0  0  0  0  0  0  0999 V2000
    7.6276   10.4906   42.9649 C   0  0  0  0  0  0  0  0  0  0  0  0
    7.0667   12.4361   44.4523 C   0  0  0  0  0  0  0  0  0  0  0  0
    8.3082   12.9476   44.3226 N   0  0  0  0  0  0  0  0  0  0  0  0
    5.9380   12.8826   45.1887 C   0  0  0  0  0  0  0  0  0  0  0  0
    9.1412   12.2383   43.5386 C   0  0  0  0  0  0  0  0  0  0  0  0
    6.7226   11.2764   43.8133 N   0  0  0  0  0  0  0  0  0  0  0  0
   10.7179   12.9374   43.4154 Cl  0  0  0  0  0  0  0  0  0  0  0  0
    8.8872   11.0546   42.8649 C   0  0  0  0  0  0  0  0  0  0  0  0
    5.3505   10.9814   44.1339 N   0  0  0  0  0  0  0  0  0  0  0  0
    4.9093   11.9664   44.9735 C   0  0  0  0  0  0  0  0  0  0  0  0
    7.1084    9.3120   42.3933 N   0  0  0  0  0  0  0  0  0  0  0  0
    6.6525    9.3017   41.5208 H   0  0  0  0  0  0  0  0  0  0  0  0
    7.2973    8.1191   43.1875 C   0  0  0  0  0  0  0  0  0  0  0  0
    8.5716    7.3871   43.0930 C   0  0  0  0  0  0  0  0  0  0  0  0
   10.6016    6.2503   42.4307 C   0  0  0  0  0  0  0  0  0  0  0  0
    9.3306    6.8703   44.1230 C   0  0  0  0  0  0  0  0  0  0  0  0
   11.7246    5.6504   41.6910 C   0  0  0  0  0  0  0  0  0  0  0  0
    9.3307    7.0483   41.5897 S   0  0  0  0  0  0  0  0  0  0  0  0
   10.4834    6.2312   43.7374 N   0  0  0  0  0  0  0  0  0  0  0  0
    9.0248    6.9505   45.5638 C   0  0  0  0  0  0  0  0  0  0  0  0
 10  4  1  0  0  0
 10  9  2  0  0  0
  4  2  2  0  0  0
  9  6  1  0  0  0
  2  6  1  0  0  0
  2  3  1  0  0  0
  6  1  1  0  0  0
  3  5  2  0  0  0
 11  1  1  0  0  0
 11 13  1  0  0  0
  1  8  2  0  0  0
 18 14  1  0  0  0
 18 15  1  0  0  0
  5  8  1  0  0  0
  5  7  1  0  0  0
 13 14  1  0  0  0
 17 15  1  0  0  0
 14 16  2  0  0  0
 15 19  2  0  0  0
 16 19  1  0  0  0
 16 20  1  0  0  0
 11 12  1  0  0  0
M  END
> <minimizedAffinity>
-6.70690

$$$$
5DH4_5AV_A_803


 20 22  0  0  0  0  0  0  0  0999 V2000
    8.9353    9.0852   42.0204 C   0  0  0  0  0  0  0  0  0  0  0  0
   10.7841    7.3997   42.2515 C   0  0  0  0  0  0  0  0  0  0  0  0
   11.6488    8.1945   41.5879 N   0  0  0  0  0  0  0  0  0  0  0  0
   10.9386    6.1056   42.8145 C   0  0  0  0  0  0  0  0  0  0  0  0
   11.1451    9.3739   41.1793 C   0  0  0  0  0  0  0  0  0  0  0  0
    9.4961    7.8052   42.4715 N   0  0  0  0  0  0  0  0  0  0  0  0
   12.2956   10.3458   40.3298 Cl  0  0  0  0  0  0  0  0  0  0  0  0
    9.8592    9.8624   41.3445 C   0  0  0  0  0  0  0  0  0  0  0  0
    8.8185    6.7623   43.1966 N   0  0  0  0  0  0  0  0  0  0  0  0
    9.7156    5.7467   43.3797 C   0  0  0  0  0  0  0  0  0  0  0  0
    7.5822    9.3347   42.3242 N   0  0  0  0  0  0  0  0  0  0  0  0
    6.9619    8.6241   42.6061 H   0  0  0  0  0  0  0  0  0  0  0  0
    7.1756   10.7153   42.1896 C   0  0  0  0  0  0  0  0  0  0  0  0
    6.8547   11.4912   43.3993 C   0  0  0  0  0  0  0  0  0  0  0  0
    5.8621   12.5512   45.3342 C   0  0  0  0  0  0  0  0  0  0  0  0
    7.6800   12.3446   44.1027 C   0  0  0  0  0  0  0  0  0  0  0  0
    4.9641   13.0019   46.4105 C   0  0  0  0  0  0  0  0  0  0  0  0
    5.3066   11.4419   44.1424 S   0  0  0  0  0  0  0  0  0  0  0  0
    7.1091   12.9376   45.2019 N   0  0  0  0  0  0  0  0  0  0  0  0
    9.0868   12.6598   43.7905 C   0  0  0  0  0  0  0  0  0  0  0  0
 10  4  1  0  0  0
 10  9  2  0  0  0
  4  2  2  0  0  0
  9  6  1  0  0  0
  2  6  1  0  0  0
  2  3  1  0  0  0
  6  1  1  0  0  0
  3  5  2  0  0  0
 11  1  1  0  0  0
 11 13  1  0  0  0
  1  8  2  0  0  0
 18 14  1  0  0  0
 18 15  1  0  0  0
  5  8  1  0  0  0
  5  7  1  0  0  0
 13 14  1  0  0  0
 17 15  1  0  0  0
 14 16  2  0  0  0
 15 19  2  0  0  0
 16 19  1  0  0  0
 16 20  1  0  0  0
 11 12  1  0  0  0
M  END
> <minimizedAffinity>
-6.66129

$$$$
5DH4_5AV_A_803


 20 22  0  0  0  0  0  0  0  0999 V2000
    6.6328   12.2499   44.2832 C   0  0  0  0  0  0  0  0  0  0  0  0
    4.3889   13.1398   44.9798 C   0  0  0  0  0  0  0  0  0  0  0  0
    4.0557   13.4183   43.7027 N   0  0  0  0  0  0  0  0  0  0  0  0
    3.6854   13.3304   46.1981 C   0  0  0  0  0  0  0  0  0  0  0  0
    4.9911   13.1085   42.7858 C   0  0  0  0  0  0  0  0  0  0  0  0
    5.6024   12.5814   45.2756 N   0  0  0  0  0  0  0  0  0  0  0  0
    4.5118   13.4935   41.1697 Cl  0  0  0  0  0  0  0  0  0  0  0  0
    6.2448   12.5554   42.9907 C   0  0  0  0  0  0  0  0  0  0  0  0
    5.6733   12.3995   46.7019 N   0  0  0  0  0  0  0  0  0  0  0  0
    4.5030   12.8703   47.2296 C   0  0  0  0  0  0  0  0  0  0  0  0
    7.8320   11.6900   44.7669 N   0  0  0  0  0  0  0  0  0  0  0  0
    8.2980   12.0389   45.5609 H   0  0  0  0  0  0  0  0  0  0  0  0
    8.3246   10.5636   44.0068 C   0  0  0  0  0  0  0  0  0  0  0  0
    7.5225    9.3300   43.9484 C   0  0  0  0  0  0  0  0  0  0  0  0
    6.1535    7.3783   44.3596 C   0  0  0  0  0  0  0  0  0  0  0  0
    7.2465    8.5499   42.8441 C   0  0  0  0  0  0  0  0  0  0  0  0
    5.3263    6.3154   44.9545 C   0  0  0  0  0  0  0  0  0  0  0  0
    6.7805    8.6463   45.3387 S   0  0  0  0  0  0  0  0  0  0  0  0
    6.4647    7.4472   43.0867 N   0  0  0  0  0  0  0  0  0  0  0  0
    7.6980    8.7957   41.4615 C   0  0  0  0  0  0  0  0  0  0  0  0
 10  4  1  0  0  0
 10  9  2  0  0  0
  4  2  2  0  0  0
  9  6  1  0  0  0
  2  6  1  0  0  0
  2  3  1  0  0  0
  6  1  1  0  0  0
  3  5  2  0  0  0
 11  1  1  0  0  0
 11 13  1  0  0  0
  1  8  2  0  0  0
 18 14  1  0  0  0
 18 15  1  0  0  0
  5  8  1  0  0  0
  5  7  1  0  0  0
 13 14  1  0  0  0
 17 15  1  0  0  0
 14 16  2  0  0  0
 15 19  2  0  0  0
 16 19  1  0  0  0
 16 20  1  0  0  0
 11 12  1  0  0  0
M  END
> <minimizedAffinity>
-6.51850

$$$$
5DH4_5AV_A_803


 20 22  0  0  0  0  0  0  0  0999 V2000
    7.8493    9.1860   44.1482 C   0  0  0  0  0  0  0  0  0  0  0  0
    8.1552    7.0665   42.8343 C   0  0  0  0  0  0  0  0  0  0  0  0
    7.0973    6.4886   43.4397 N   0  0  0  0  0  0  0  0  0  0  0  0
    9.0580    6.5802   41.8525 C   0  0  0  0  0  0  0  0  0  0  0  0
    6.4667    7.2565   44.3477 C   0  0  0  0  0  0  0  0  0  0  0  0
    8.5246    8.3450   43.1517 N   0  0  0  0  0  0  0  0  0  0  0  0
    5.1250    6.4618   45.0946 Cl  0  0  0  0  0  0  0  0  0  0  0  0
    6.7737    8.5490   44.7413 C   0  0  0  0  0  0  0  0  0  0  0  0
    9.6724    8.6883   42.3534 N   0  0  0  0  0  0  0  0  0  0  0  0
    9.9739    7.5972   41.5863 C   0  0  0  0  0  0  0  0  0  0  0  0
    8.3728   10.4774   44.3577 N   0  0  0  0  0  0  0  0  0  0  0  0
    9.0681   10.6656   45.0288 H   0  0  0  0  0  0  0  0  0  0  0  0
    7.8095   11.5043   43.5106 C   0  0  0  0  0  0  0  0  0  0  0  0
    6.5702   12.1809   43.9286 C   0  0  0  0  0  0  0  0  0  0  0  0
    4.7702   13.3230   45.0722 C   0  0  0  0  0  0  0  0  0  0  0  0
    5.4473   12.4381   43.1690 C   0  0  0  0  0  0  0  0  0  0  0  0
    3.9077   14.0055   46.0511 C   0  0  0  0  0  0  0  0  0  0  0  0
    6.3363   12.7729   45.5242 S   0  0  0  0  0  0  0  0  0  0  0  0
    4.4331   13.0910   43.8255 N   0  0  0  0  0  0  0  0  0  0  0  0
    5.2503   12.0906   41.7490 C   0  0  0  0  0  0  0  0  0  0  0  0
 10  4  1  0  0  0
 10  9  2  0  0  0
  4  2  2  0  0  0
  9  6  1  0  0  0
  2  6  1  0  0  0
  2  3  1  0  0  0
  6  1  1  0  0  0
  3  5  2  0  0  0
 11  1  1  0  0  0
 11 13  1  0  0  0
  1  8  2  0  0  0
 18 14  1  0  0  0
 18 15  1  0  0  0
  5  8  1  0  0  0
  5  7  1  0  0  0
 13 14  1  0  0  0
 17 15  1  0  0  0
 14 16  2  0  0  0
 15 19  2  0  0  0
 16 19  1  0  0  0
 16 20  1  0  0  0
 11 12  1  0  0  0
M  END
> <minimizedAffinity>
-6.47330

$$$$
5DH4_5AV_A_803


 20 22  0  0  0  0  0  0  0  0999 V2000
    5.8093   11.6374   43.6994 C   0  0  0  0  0  0  0  0  0  0  0  0
    4.2650   13.6119   43.5301 C   0  0  0  0  0  0  0  0  0  0  0  0
    4.0591   13.6188   44.8632 N   0  0  0  0  0  0  0  0  0  0  0  0
    3.7470   14.4332   42.4944 C   0  0  0  0  0  0  0  0  0  0  0  0
    4.7186   12.6672   45.5498 C   0  0  0  0  0  0  0  0  0  0  0  0
    5.0943   12.6853   42.9597 N   0  0  0  0  0  0  0  0  0  0  0  0
    4.4111   12.7207   47.2505 Cl  0  0  0  0  0  0  0  0  0  0  0  0
    5.5646   11.6853   45.0604 C   0  0  0  0  0  0  0  0  0  0  0  0
    5.1188   12.9233   41.5401 N   0  0  0  0  0  0  0  0  0  0  0  0
    4.2875   13.9802   41.2916 C   0  0  0  0  0  0  0  0  0  0  0  0
    6.6140   10.7579   42.9481 N   0  0  0  0  0  0  0  0  0  0  0  0
    7.3805   11.0665   42.4128 H   0  0  0  0  0  0  0  0  0  0  0  0
    6.2265    9.3674   43.0244 C   0  0  0  0  0  0  0  0  0  0  0  0
    7.2526    8.3500   43.3082 C   0  0  0  0  0  0  0  0  0  0  0  0
    9.2481    6.9981   43.5148 C   0  0  0  0  0  0  0  0  0  0  0  0
    7.0999    7.1585   43.9872 C   0  0  0  0  0  0  0  0  0  0  0  0
   10.6144    6.4525   43.4546 C   0  0  0  0  0  0  0  0  0  0  0  0
    8.8827    8.5157   42.7918 S   0  0  0  0  0  0  0  0  0  0  0  0
    8.2392    6.4005   44.1035 N   0  0  0  0  0  0  0  0  0  0  0  0
    5.8553    6.6462   44.5909 C   0  0  0  0  0  0  0  0  0  0  0  0
 10  4  1  0  0  0
 10  9  2  0  0  0
  4  2  2  0  0  0
  9  6  1  0  0  0
  2  6  1  0  0  0
  2  3  1  0  0  0
  6  1  1  0  0  0
  3  5  2  0  0  0
 11  1  1  0  0  0
 11 13  1  0  0  0
  1  8  2  0  0  0
 18 14  1  0  0  0
 18 15  1  0  0  0
  5  8  1  0  0  0
  5  7  1  0  0  0
 13 14  1  0  0  0
 17 15  1  0  0  0
 14 16  2  0  0  0
 15 19  2  0  0  0
 16 19  1  0  0  0
 16 20  1  0  0  0
 11 12  1  0  0  0
M  END
> <minimizedAffinity>
-6.42227

$$$$
5DH4_5AV_A_803


 20 22  0  0  0  0  0  0  0  0999 V2000
    8.4803   10.1943   42.8339 C   0  0  0  0  0  0  0  0  0  0  0  0
    7.2742   12.1021   43.9372 C   0  0  0  0  0  0  0  0  0  0  0  0
    8.3889   12.8617   43.9384 N   0  0  0  0  0  0  0  0  0  0  0  0
    5.9628   12.3562   44.4182 C   0  0  0  0  0  0  0  0  0  0  0  0
    9.4777   12.2822   43.3995 C   0  0  0  0  0  0  0  0  0  0  0  0
    7.2949   10.8382   43.4141 N   0  0  0  0  0  0  0  0  0  0  0  0
   10.8759   13.2989   43.4348 Cl  0  0  0  0  0  0  0  0  0  0  0  0
    9.5964   11.0116   42.8599 C   0  0  0  0  0  0  0  0  0  0  0  0
    5.9756   10.2783   43.5496 N   0  0  0  0  0  0  0  0  0  0  0  0
    5.1978   11.2177   44.1680 C   0  0  0  0  0  0  0  0  0  0  0  0
    8.3240    8.8797   42.3514 N   0  0  0  0  0  0  0  0  0  0  0  0
    7.4445    8.4973   42.1287 H   0  0  0  0  0  0  0  0  0  0  0  0
    9.5554    8.1362   42.2087 C   0  0  0  0  0  0  0  0  0  0  0  0
    9.7580    7.3046   41.0104 C   0  0  0  0  0  0  0  0  0  0  0  0
    9.7207    6.2350   38.8409 C   0  0  0  0  0  0  0  0  0  0  0  0
   10.6348    6.2516   40.8478 C   0  0  0  0  0  0  0  0  0  0  0  0
    9.4407    5.8361   37.4514 C   0  0  0  0  0  0  0  0  0  0  0  0
    8.8668    7.5432   39.5612 S   0  0  0  0  0  0  0  0  0  0  0  0
   10.6097    5.6541   39.6115 N   0  0  0  0  0  0  0  0  0  0  0  0
   11.5779    5.7317   41.8559 C   0  0  0  0  0  0  0  0  0  0  0  0
 10  4  1  0  0  0
 10  9  2  0  0  0
  4  2  2  0  0  0
  9  6  1  0  0  0
  2  6  1  0  0  0
  2  3  1  0  0  0
  6  1  1  0  0  0
  3  5  2  0  0  0
 11  1  1  0  0  0
 11 13  1  0  0  0
  1  8  2  0  0  0
 18 14  1  0  0  0
 18 15  1  0  0  0
  5  8  1  0  0  0
  5  7  1  0  0  0
 13 14  1  0  0  0
 17 15  1  0  0  0
 14 16  2  0  0  0
 15 19  2  0  0  0
 16 19  1  0  0  0
 16 20  1  0  0  0
 11 12  1  0  0  0
M  END
> <minimizedAffinity>
-6.37921

$$$$
