1F0U_RPR_A_501


 40 42  0  0  0  0  0  0  0  0999 V2000
   11.7331   -9.4107   21.3193 C   0  0  0  0  0  0  0  0  0  0  0  0
   12.5848   -8.3529   21.3409 N   0  0  0  0  0  0  0  0  0  0  0  0
   10.6664   -9.3650   20.7234 O   0  0  0  0  0  0  0  0  0  0  0  0
   13.4798   -8.4774   21.7316 H   0  0  0  0  0  0  0  0  0  0  0  0
   11.2610  -11.4907   22.6140 C   0  0  0  0  0  0  0  0  0  0  0  0
   12.1846  -10.6055   22.0583 C   0  0  0  0  0  0  0  0  0  0  0  0
   13.5379  -10.8755   22.2452 C   0  0  0  0  0  0  0  0  0  0  0  0
   13.9499  -11.9933   22.9560 C   0  0  0  0  0  0  0  0  0  0  0  0
   13.0393  -12.8805   23.4995 C   0  0  0  0  0  0  0  0  0  0  0  0
   11.6917  -12.6120   23.3256 C   0  0  0  0  0  0  0  0  0  0  0  0
   13.0540  -15.3576   23.8959 C   0  0  0  0  0  0  0  0  0  0  0  0
   13.5202  -14.0995   24.2259 C   0  0  0  0  0  0  0  0  0  0  0  0
   14.4717  -14.0066   25.2267 C   0  0  0  0  0  0  0  0  0  0  0  0
   14.9355  -15.1247   25.9032 C   0  0  0  0  0  0  0  0  0  0  0  0
   14.4535  -16.3784   25.5762 C   0  0  0  0  0  0  0  0  0  0  0  0
   13.5151  -16.4986   24.5566 C   0  0  0  0  0  0  0  0  0  0  0  0
   13.0306  -17.8566   24.1358 C   0  0  0  0  0  0  0  0  0  0  0  0
   13.6248  -18.2579   22.8566 N   0  0  0  0  0  0  0  0  0  0  0  0
   13.3575  -17.5903   22.1332 H   0  0  0  0  0  0  0  0  0  0  0  0
   13.2893  -19.1870   22.6025 H   0  0  0  0  0  0  0  0  0  0  0  0
   12.2312   -7.0368   20.8093 C   0  0  0  0  0  0  0  0  0  0  0  0
   13.4220   -6.4905   20.0110 C   0  0  0  0  0  0  0  0  0  0  0  0
   11.8108   -6.1062   21.9727 C   0  0  0  0  0  0  0  0  0  0  0  0
   10.2865   -5.9154   21.8987 C   0  0  0  0  0  0  0  0  0  0  0  0
    9.4774   -6.7330   22.2230 O   0  0  0  0  0  0  0  0  0  0  0  0
    9.9222   -4.6217   21.4157 O   0  0  0  0  0  0  0  0  0  0  0  0
    9.2989   -4.5005   20.1328 C   0  0  0  0  0  0  0  0  0  0  0  0
   12.5529   -4.7484   21.9191 C   0  0  0  0  0  0  0  0  0  0  0  0
   12.4167   -4.0874   24.3814 C   0  0  0  0  0  0  0  0  0  0  0  0
   13.0339   -3.7051   25.5787 C   0  0  0  0  0  0  0  0  0  0  0  0
   14.4116   -3.4892   25.5983 C   0  0  0  0  0  0  0  0  0  0  0  0
   15.1494   -3.6251   24.4331 C   0  0  0  0  0  0  0  0  0  0  0  0
   14.5266   -3.9940   23.2498 C   0  0  0  0  0  0  0  0  0  0  0  0
   13.1598   -4.2511   23.2110 C   0  0  0  0  0  0  0  0  0  0  0  0
   12.2473   -3.5290   26.8108 C   0  0  0  0  0  0  0  0  0  0  0  0
   10.9443   -3.7895   26.8451 N   0  0  0  0  0  0  0  0  0  0  0  0
   12.8590   -3.0889   27.9244 N   0  0  0  0  0  0  0  0  0  0  0  0
   10.4853   -4.1123   26.0361 H   0  0  0  0  0  0  0  0  0  0  0  0
   10.4382   -3.6597   27.6795 H   0  0  0  0  0  0  0  0  0  0  0  0
   13.8236   -2.8926   27.9113 H   0  0  0  0  0  0  0  0  0  0  0  0
 11 12  2  0  0  0
 11 16  1  0  0  0
 12 13  1  0  0  0
 12  9  1  0  0  0
 13 14  2  0  0  0
 14 15  1  0  0  0
 15 16  2  0  0  0
 16 17  1  0  0  0
  5  6  2  0  0  0
  5 10  1  0  0  0
  6  7  1  0  0  0
  6  1  1  0  0  0
  7  8  2  0  0  0
  8  9  1  0  0  0
  9 10  2  0  0  0
  1  2  1  0  0  0
  1  3  2  0  0  0
  2 21  1  0  0  0
 21 22  1  0  0  0
 21 23  1  0  0  0
 23 24  1  0  0  0
 23 28  1  0  0  0
 24 26  1  0  0  0
 24 25  2  0  0  0
 26 27  1  0  0  0
 28 34  1  0  0  0
 17 18  1  0  0  0
 29 30  2  0  0  0
 29 34  1  0  0  0
 30 31  1  0  0  0
 30 35  1  0  0  0
 31 32  2  0  0  0
 32 33  1  0  0  0
 33 34  2  0  0  0
 35 36  1  0  0  0
 35 37  2  0  0  0
  2  4  1  0  0  0
 18 19  1  0  0  0
 18 20  1  0  0  0
 36 38  1  0  0  0
 36 39  1  0  0  0
 37 40  1  0  0  0
M  END
> <minimizedAffinity>
-9.06542

$$$$
1F0U_RPR_A_501


 40 42  0  0  0  0  0  0  0  0999 V2000
   12.5805   -8.7469   22.3614 C   0  0  0  0  0  0  0  0  0  0  0  0
   11.7602   -8.4602   21.3175 N   0  0  0  0  0  0  0  0  0  0  0  0
   13.1932   -7.8719   22.9564 O   0  0  0  0  0  0  0  0  0  0  0  0
   11.1994   -9.1803   20.9484 H   0  0  0  0  0  0  0  0  0  0  0  0
   13.8239  -10.9092   22.4224 C   0  0  0  0  0  0  0  0  0  0  0  0
   12.6764  -10.1748   22.7210 C   0  0  0  0  0  0  0  0  0  0  0  0
   11.6234  -10.8389   23.3450 C   0  0  0  0  0  0  0  0  0  0  0  0
   11.7192  -12.1857   23.6633 C   0  0  0  0  0  0  0  0  0  0  0  0
   12.8584  -12.9163   23.3801 C   0  0  0  0  0  0  0  0  0  0  0  0
   13.9054  -12.2637   22.7505 C   0  0  0  0  0  0  0  0  0  0  0  0
   13.9455  -14.8128   24.6109 C   0  0  0  0  0  0  0  0  0  0  0  0
   12.9429  -14.3590   23.7753 C   0  0  0  0  0  0  0  0  0  0  0  0
   11.9998  -15.2752   23.3432 C   0  0  0  0  0  0  0  0  0  0  0  0
   12.0566  -16.6123   23.7065 C   0  0  0  0  0  0  0  0  0  0  0  0
   13.0710  -17.0607   24.5317 C   0  0  0  0  0  0  0  0  0  0  0  0
   14.0158  -16.1529   24.9984 C   0  0  0  0  0  0  0  0  0  0  0  0
   15.0848  -16.6028   25.9528 C   0  0  0  0  0  0  0  0  0  0  0  0
   15.6555  -15.4661   26.6826 N   0  0  0  0  0  0  0  0  0  0  0  0
   16.0782  -14.8149   26.0211 H   0  0  0  0  0  0  0  0  0  0  0  0
   16.3675  -15.8015   27.3314 H   0  0  0  0  0  0  0  0  0  0  0  0
   11.6731   -7.1292   20.7172 C   0  0  0  0  0  0  0  0  0  0  0  0
   13.0296   -6.7801   20.0914 C   0  0  0  0  0  0  0  0  0  0  0  0
   11.2266   -6.1072   21.7908 C   0  0  0  0  0  0  0  0  0  0  0  0
    9.7073   -5.9110   21.6541 C   0  0  0  0  0  0  0  0  0  0  0  0
    8.9035   -6.7944   21.6149 O   0  0  0  0  0  0  0  0  0  0  0  0
    9.3385   -4.5322   21.6031 O   0  0  0  0  0  0  0  0  0  0  0  0
    8.0857   -4.1612   21.0182 C   0  0  0  0  0  0  0  0  0  0  0  0
   11.9837   -4.7635   21.6549 C   0  0  0  0  0  0  0  0  0  0  0  0
   12.1777   -4.1516   24.1261 C   0  0  0  0  0  0  0  0  0  0  0  0
   12.9495   -3.7927   25.2378 C   0  0  0  0  0  0  0  0  0  0  0  0
   14.3179   -3.5761   25.0781 C   0  0  0  0  0  0  0  0  0  0  0  0
   14.8938   -3.6882   23.8227 C   0  0  0  0  0  0  0  0  0  0  0  0
   14.1183   -4.0340   22.7257 C   0  0  0  0  0  0  0  0  0  0  0  0
   12.7581   -4.2914   22.8642 C   0  0  0  0  0  0  0  0  0  0  0  0
   12.3342   -3.6418   26.5670 C   0  0  0  0  0  0  0  0  0  0  0  0
   11.0168   -3.5443   26.7145 N   0  0  0  0  0  0  0  0  0  0  0  0
   13.1226   -3.5950   27.6552 N   0  0  0  0  0  0  0  0  0  0  0  0
   10.4293   -3.5772   25.9252 H   0  0  0  0  0  0  0  0  0  0  0  0
   10.6286   -3.4393   27.6131 H   0  0  0  0  0  0  0  0  0  0  0  0
   14.0997   -3.6661   27.5586 H   0  0  0  0  0  0  0  0  0  0  0  0
 11 12  2  0  0  0
 11 16  1  0  0  0
 12 13  1  0  0  0
 12  9  1  0  0  0
 13 14  2  0  0  0
 14 15  1  0  0  0
 15 16  2  0  0  0
 16 17  1  0  0  0
  5  6  2  0  0  0
  5 10  1  0  0  0
  6  7  1  0  0  0
  6  1  1  0  0  0
  7  8  2  0  0  0
  8  9  1  0  0  0
  9 10  2  0  0  0
  1  2  1  0  0  0
  1  3  2  0  0  0
  2 21  1  0  0  0
 21 22  1  0  0  0
 21 23  1  0  0  0
 23 24  1  0  0  0
 23 28  1  0  0  0
 24 26  1  0  0  0
 24 25  2  0  0  0
 26 27  1  0  0  0
 28 34  1  0  0  0
 17 18  1  0  0  0
 29 30  2  0  0  0
 29 34  1  0  0  0
 30 31  1  0  0  0
 30 35  1  0  0  0
 31 32  2  0  0  0
 32 33  1  0  0  0
 33 34  2  0  0  0
 35 36  1  0  0  0
 35 37  2  0  0  0
  2  4  1  0  0  0
 18 19  1  0  0  0
 18 20  1  0  0  0
 36 38  1  0  0  0
 36 39  1  0  0  0
 37 40  1  0  0  0
M  END
> <minimizedAffinity>
-8.82919

$$$$
1F0U_RPR_A_501


 40 42  0  0  0  0  0  0  0  0999 V2000
   11.6278   -9.2346   21.4221 C   0  0  0  0  0  0  0  0  0  0  0  0
   12.6000   -8.5373   20.7790 N   0  0  0  0  0  0  0  0  0  0  0  0
   10.4649   -8.8569   21.4310 O   0  0  0  0  0  0  0  0  0  0  0  0
   13.4944   -8.9411   20.6997 H   0  0  0  0  0  0  0  0  0  0  0  0
   13.3763  -10.5849   22.5818 C   0  0  0  0  0  0  0  0  0  0  0  0
   12.0725  -10.4672   22.1005 C   0  0  0  0  0  0  0  0  0  0  0  0
   11.2192  -11.5560   22.2614 C   0  0  0  0  0  0  0  0  0  0  0  0
   11.6539  -12.7156   22.8863 C   0  0  0  0  0  0  0  0  0  0  0  0
   12.9416  -12.8341   23.3756 C   0  0  0  0  0  0  0  0  0  0  0  0
   13.7981  -11.7582   23.2098 C   0  0  0  0  0  0  0  0  0  0  0  0
   12.8129  -15.3103   23.7564 C   0  0  0  0  0  0  0  0  0  0  0  0
   13.3646  -14.0860   24.0818 C   0  0  0  0  0  0  0  0  0  0  0  0
   14.3455  -14.0597   25.0578 C   0  0  0  0  0  0  0  0  0  0  0  0
   14.7564  -15.2095   25.7151 C   0  0  0  0  0  0  0  0  0  0  0  0
   14.1894  -16.4285   25.3933 C   0  0  0  0  0  0  0  0  0  0  0  0
   13.2194  -16.4826   24.3979 C   0  0  0  0  0  0  0  0  0  0  0  0
   12.6409  -17.8048   23.9817 C   0  0  0  0  0  0  0  0  0  0  0  0
   11.9086  -18.4335   25.0858 N   0  0  0  0  0  0  0  0  0  0  0  0
   12.5454  -18.5999   25.8650 H   0  0  0  0  0  0  0  0  0  0  0  0
   11.5163  -19.3211   24.7717 H   0  0  0  0  0  0  0  0  0  0  0  0
   12.3771   -7.2130   20.1992 C   0  0  0  0  0  0  0  0  0  0  0  0
   12.8046   -7.2407   18.7260 C   0  0  0  0  0  0  0  0  0  0  0  0
   13.1427   -6.1519   21.0265 C   0  0  0  0  0  0  0  0  0  0  0  0
   14.6441   -6.3215   20.7397 C   0  0  0  0  0  0  0  0  0  0  0  0
   15.2918   -5.6061   20.0349 O   0  0  0  0  0  0  0  0  0  0  0  0
   15.2098   -7.4322   21.4369 O   0  0  0  0  0  0  0  0  0  0  0  0
   16.1765   -8.2570   20.7778 C   0  0  0  0  0  0  0  0  0  0  0  0
   12.8396   -6.2751   22.5398 C   0  0  0  0  0  0  0  0  0  0  0  0
   12.5819   -4.7929   24.6026 C   0  0  0  0  0  0  0  0  0  0  0  0
   13.0383   -3.7559   25.4253 C   0  0  0  0  0  0  0  0  0  0  0  0
   14.1701   -3.0331   25.0490 C   0  0  0  0  0  0  0  0  0  0  0  0
   14.8125   -3.3258   23.8565 C   0  0  0  0  0  0  0  0  0  0  0  0
   14.3460   -4.3483   23.0433 C   0  0  0  0  0  0  0  0  0  0  0  0
   13.2412   -5.1087   23.4133 C   0  0  0  0  0  0  0  0  0  0  0  0
   12.3387   -3.4219   26.6771 C   0  0  0  0  0  0  0  0  0  0  0  0
   13.0054   -3.0668   27.7709 N   0  0  0  0  0  0  0  0  0  0  0  0
   10.9961   -3.4836   26.7169 N   0  0  0  0  0  0  0  0  0  0  0  0
   13.9885   -3.0181   27.7540 H   0  0  0  0  0  0  0  0  0  0  0  0
   12.5160   -2.8525   28.5978 H   0  0  0  0  0  0  0  0  0  0  0  0
   10.4913   -3.7453   25.9132 H   0  0  0  0  0  0  0  0  0  0  0  0
 11 12  2  0  0  0
 11 16  1  0  0  0
 12 13  1  0  0  0
 12  9  1  0  0  0
 13 14  2  0  0  0
 14 15  1  0  0  0
 15 16  2  0  0  0
 16 17  1  0  0  0
  5  6  2  0  0  0
  5 10  1  0  0  0
  6  7  1  0  0  0
  6  1  1  0  0  0
  7  8  2  0  0  0
  8  9  1  0  0  0
  9 10  2  0  0  0
  1  2  1  0  0  0
  1  3  2  0  0  0
  2 21  1  0  0  0
 21 22  1  0  0  0
 21 23  1  0  0  0
 23 24  1  0  0  0
 23 28  1  0  0  0
 24 26  1  0  0  0
 24 25  2  0  0  0
 26 27  1  0  0  0
 28 34  1  0  0  0
 17 18  1  0  0  0
 29 30  2  0  0  0
 29 34  1  0  0  0
 30 31  1  0  0  0
 30 35  1  0  0  0
 31 32  2  0  0  0
 32 33  1  0  0  0
 33 34  2  0  0  0
 35 36  1  0  0  0
 35 37  2  0  0  0
  2  4  1  0  0  0
 18 19  1  0  0  0
 18 20  1  0  0  0
 36 38  1  0  0  0
 36 39  1  0  0  0
 37 40  1  0  0  0
M  END
> <minimizedAffinity>
-8.34548

$$$$
1F0U_RPR_A_501


 40 42  0  0  0  0  0  0  0  0999 V2000
   10.8912   -8.7608   21.7223 C   0  0  0  0  0  0  0  0  0  0  0  0
   11.8160   -7.9647   21.1257 N   0  0  0  0  0  0  0  0  0  0  0  0
    9.7203   -8.4229   21.8213 O   0  0  0  0  0  0  0  0  0  0  0  0
   12.7164   -8.3288   20.9645 H   0  0  0  0  0  0  0  0  0  0  0  0
   10.5718  -10.8936   22.9770 C   0  0  0  0  0  0  0  0  0  0  0  0
   11.3971  -10.0484   22.2355 C   0  0  0  0  0  0  0  0  0  0  0  0
   12.7128  -10.4502   22.0189 C   0  0  0  0  0  0  0  0  0  0  0  0
   13.1814  -11.6556   22.5205 C   0  0  0  0  0  0  0  0  0  0  0  0
   12.3649  -12.5029   23.2466 C   0  0  0  0  0  0  0  0  0  0  0  0
   11.0581  -12.1043   23.4739 C   0  0  0  0  0  0  0  0  0  0  0  0
   13.7954  -13.8769   24.7825 C   0  0  0  0  0  0  0  0  0  0  0  0
   12.8928  -13.8161   23.7380 C   0  0  0  0  0  0  0  0  0  0  0  0
   12.4668  -15.0106   23.1838 C   0  0  0  0  0  0  0  0  0  0  0  0
   12.9371  -16.2357   23.6320 C   0  0  0  0  0  0  0  0  0  0  0  0
   13.8505  -16.2869   24.6684 C   0  0  0  0  0  0  0  0  0  0  0  0
   14.2741  -15.1002   25.2574 C   0  0  0  0  0  0  0  0  0  0  0  0
   15.2107  -15.1347   26.4311 C   0  0  0  0  0  0  0  0  0  0  0  0
   15.8325  -16.4551   26.5736 N   0  0  0  0  0  0  0  0  0  0  0  0
   15.1087  -17.1570   26.7280 H   0  0  0  0  0  0  0  0  0  0  0  0
   16.4720  -16.4458   27.3683 H   0  0  0  0  0  0  0  0  0  0  0  0
   11.5335   -6.5904   20.7120 C   0  0  0  0  0  0  0  0  0  0  0  0
   11.2575   -6.5758   19.2030 C   0  0  0  0  0  0  0  0  0  0  0  0
   12.7165   -5.6767   21.1148 C   0  0  0  0  0  0  0  0  0  0  0  0
   13.7808   -5.7658   20.0082 C   0  0  0  0  0  0  0  0  0  0  0  0
   14.2762   -6.7795   19.6144 O   0  0  0  0  0  0  0  0  0  0  0  0
   14.1097   -4.4867   19.4645 O   0  0  0  0  0  0  0  0  0  0  0  0
   14.3286   -4.3573   18.0557 C   0  0  0  0  0  0  0  0  0  0  0  0
   13.3016   -6.0688   22.4936 C   0  0  0  0  0  0  0  0  0  0  0  0
   12.7860   -4.6926   24.5814 C   0  0  0  0  0  0  0  0  0  0  0  0
   13.1282   -3.6919   25.4990 C   0  0  0  0  0  0  0  0  0  0  0  0
   14.2827   -2.9382   25.2889 C   0  0  0  0  0  0  0  0  0  0  0  0
   15.0611   -3.1645   24.1650 C   0  0  0  0  0  0  0  0  0  0  0  0
   14.7076   -4.1513   23.2563 C   0  0  0  0  0  0  0  0  0  0  0  0
   13.5813   -4.9419   23.4614 C   0  0  0  0  0  0  0  0  0  0  0  0
   12.2855   -3.4279   26.6772 C   0  0  0  0  0  0  0  0  0  0  0  0
   10.9603   -3.5108   26.6148 N   0  0  0  0  0  0  0  0  0  0  0  0
   12.8687   -3.0894   27.8405 N   0  0  0  0  0  0  0  0  0  0  0  0
   10.5218   -3.7577   25.7687 H   0  0  0  0  0  0  0  0  0  0  0  0
   10.4173   -3.3251   27.4148 H   0  0  0  0  0  0  0  0  0  0  0  0
   13.8493   -3.0248   27.8990 H   0  0  0  0  0  0  0  0  0  0  0  0
 11 12  2  0  0  0
 11 16  1  0  0  0
 12 13  1  0  0  0
 12  9  1  0  0  0
 13 14  2  0  0  0
 14 15  1  0  0  0
 15 16  2  0  0  0
 16 17  1  0  0  0
  5  6  2  0  0  0
  5 10  1  0  0  0
  6  7  1  0  0  0
  6  1  1  0  0  0
  7  8  2  0  0  0
  8  9  1  0  0  0
  9 10  2  0  0  0
  1  2  1  0  0  0
  1  3  2  0  0  0
  2 21  1  0  0  0
 21 22  1  0  0  0
 21 23  1  0  0  0
 23 24  1  0  0  0
 23 28  1  0  0  0
 24 26  1  0  0  0
 24 25  2  0  0  0
 26 27  1  0  0  0
 28 34  1  0  0  0
 17 18  1  0  0  0
 29 30  2  0  0  0
 29 34  1  0  0  0
 30 31  1  0  0  0
 30 35  1  0  0  0
 31 32  2  0  0  0
 32 33  1  0  0  0
 33 34  2  0  0  0
 35 36  1  0  0  0
 35 37  2  0  0  0
  2  4  1  0  0  0
 18 19  1  0  0  0
 18 20  1  0  0  0
 36 38  1  0  0  0
 36 39  1  0  0  0
 37 40  1  0  0  0
M  END
> <minimizedAffinity>
-8.21562

$$$$
1F0U_RPR_A_501


 40 42  0  0  0  0  0  0  0  0999 V2000
   13.4276   -7.3303   19.0906 C   0  0  0  0  0  0  0  0  0  0  0  0
   14.6405   -6.7211   19.0393 N   0  0  0  0  0  0  0  0  0  0  0  0
   12.4924   -6.9599   18.3954 O   0  0  0  0  0  0  0  0  0  0  0  0
   15.3923   -7.1280   19.5276 H   0  0  0  0  0  0  0  0  0  0  0  0
   13.2634   -9.7731   19.5712 C   0  0  0  0  0  0  0  0  0  0  0  0
   13.3226   -8.4591   20.0351 C   0  0  0  0  0  0  0  0  0  0  0  0
   13.2558   -8.2515   21.4105 C   0  0  0  0  0  0  0  0  0  0  0  0
   13.1407   -9.3200   22.2876 C   0  0  0  0  0  0  0  0  0  0  0  0
   13.0930  -10.6254   21.8345 C   0  0  0  0  0  0  0  0  0  0  0  0
   13.1490  -10.8378   20.4669 C   0  0  0  0  0  0  0  0  0  0  0  0
   14.1514  -12.3586   23.3073 C   0  0  0  0  0  0  0  0  0  0  0  0
   13.0099  -11.7574   22.8125 C   0  0  0  0  0  0  0  0  0  0  0  0
   11.7883  -12.2131   23.2766 C   0  0  0  0  0  0  0  0  0  0  0  0
   11.6924  -13.2530   24.1890 C   0  0  0  0  0  0  0  0  0  0  0  0
   12.8390  -13.8583   24.6685 C   0  0  0  0  0  0  0  0  0  0  0  0
   14.0787  -13.4003   24.2350 C   0  0  0  0  0  0  0  0  0  0  0  0
   15.3390  -13.9944   24.7960 C   0  0  0  0  0  0  0  0  0  0  0  0
   15.0469  -14.8954   25.9156 N   0  0  0  0  0  0  0  0  0  0  0  0
   14.5862  -14.3733   26.6610 H   0  0  0  0  0  0  0  0  0  0  0  0
   15.9174  -15.2938   26.2675 H   0  0  0  0  0  0  0  0  0  0  0  0
   14.8792   -5.4872   18.2908 C   0  0  0  0  0  0  0  0  0  0  0  0
   16.2831   -5.5470   17.6751 C   0  0  0  0  0  0  0  0  0  0  0  0
   14.6857   -4.2698   19.2273 C   0  0  0  0  0  0  0  0  0  0  0  0
   15.4899   -3.0943   18.6470 C   0  0  0  0  0  0  0  0  0  0  0  0
   16.4316   -2.5819   19.1749 O   0  0  0  0  0  0  0  0  0  0  0  0
   15.0043   -2.6801   17.3693 O   0  0  0  0  0  0  0  0  0  0  0  0
   15.7084   -1.6658   16.6451 C   0  0  0  0  0  0  0  0  0  0  0  0
   15.1187   -4.5877   20.6794 C   0  0  0  0  0  0  0  0  0  0  0  0
   14.3660   -4.1830   23.0853 C   0  0  0  0  0  0  0  0  0  0  0  0
   13.3517   -3.9861   24.0302 C   0  0  0  0  0  0  0  0  0  0  0  0
   12.0187   -4.0625   23.6274 C   0  0  0  0  0  0  0  0  0  0  0  0
   11.7106   -4.3601   22.3095 C   0  0  0  0  0  0  0  0  0  0  0  0
   12.7230   -4.5638   21.3833 C   0  0  0  0  0  0  0  0  0  0  0  0
   14.0606   -4.4571   21.7509 C   0  0  0  0  0  0  0  0  0  0  0  0
   13.6764   -3.7013   25.4379 C   0  0  0  0  0  0  0  0  0  0  0  0
   12.7395   -3.3292   26.3042 N   0  0  0  0  0  0  0  0  0  0  0  0
   14.9496   -3.8140   25.8550 N   0  0  0  0  0  0  0  0  0  0  0  0
   11.8037   -3.2432   26.0106 H   0  0  0  0  0  0  0  0  0  0  0  0
   12.9813   -3.1395   27.2395 H   0  0  0  0  0  0  0  0  0  0  0  0
   15.6523   -4.0888   25.2226 H   0  0  0  0  0  0  0  0  0  0  0  0
 11 12  2  0  0  0
 11 16  1  0  0  0
 12 13  1  0  0  0
 12  9  1  0  0  0
 13 14  2  0  0  0
 14 15  1  0  0  0
 15 16  2  0  0  0
 16 17  1  0  0  0
  5  6  2  0  0  0
  5 10  1  0  0  0
  6  7  1  0  0  0
  6  1  1  0  0  0
  7  8  2  0  0  0
  8  9  1  0  0  0
  9 10  2  0  0  0
  1  2  1  0  0  0
  1  3  2  0  0  0
  2 21  1  0  0  0
 21 22  1  0  0  0
 21 23  1  0  0  0
 23 24  1  0  0  0
 23 28  1  0  0  0
 24 26  1  0  0  0
 24 25  2  0  0  0
 26 27  1  0  0  0
 28 34  1  0  0  0
 17 18  1  0  0  0
 29 30  2  0  0  0
 29 34  1  0  0  0
 30 31  1  0  0  0
 30 35  1  0  0  0
 31 32  2  0  0  0
 32 33  1  0  0  0
 33 34  2  0  0  0
 35 36  1  0  0  0
 35 37  2  0  0  0
  2  4  1  0  0  0
 18 19  1  0  0  0
 18 20  1  0  0  0
 36 38  1  0  0  0
 36 39  1  0  0  0
 37 40  1  0  0  0
M  END
> <minimizedAffinity>
-8.09035

$$$$
1F0U_RPR_A_501


 40 42  0  0  0  0  0  0  0  0999 V2000
   10.5489   -9.1415   20.8022 C   0  0  0  0  0  0  0  0  0  0  0  0
   11.2385   -7.9839   20.6308 N   0  0  0  0  0  0  0  0  0  0  0  0
    9.4123   -9.2819   20.3737 O   0  0  0  0  0  0  0  0  0  0  0  0
   12.1886   -7.9600   20.8877 H   0  0  0  0  0  0  0  0  0  0  0  0
   12.5385   -9.9795   22.0530 C   0  0  0  0  0  0  0  0  0  0  0  0
   11.2636  -10.2049   21.5340 C   0  0  0  0  0  0  0  0  0  0  0  0
   10.7039  -11.4679   21.7099 C   0  0  0  0  0  0  0  0  0  0  0  0
   11.3926  -12.4646   22.3856 C   0  0  0  0  0  0  0  0  0  0  0  0
   12.6519  -12.2438   22.9122 C   0  0  0  0  0  0  0  0  0  0  0  0
   13.2181  -10.9926   22.7318 C   0  0  0  0  0  0  0  0  0  0  0  0
   12.8722  -14.6272   23.6632 C   0  0  0  0  0  0  0  0  0  0  0  0
   13.3495  -13.3305   23.6718 C   0  0  0  0  0  0  0  0  0  0  0  0
   14.5125  -13.0763   24.3776 C   0  0  0  0  0  0  0  0  0  0  0  0
   15.1769  -14.0714   25.0785 C   0  0  0  0  0  0  0  0  0  0  0  0
   14.6850  -15.3633   25.0760 C   0  0  0  0  0  0  0  0  0  0  0  0
   13.5312  -15.6474   24.3530 C   0  0  0  0  0  0  0  0  0  0  0  0
   13.0183  -17.0571   24.2772 C   0  0  0  0  0  0  0  0  0  0  0  0
   11.5819  -17.1142   24.5670 N   0  0  0  0  0  0  0  0  0  0  0  0
   11.4114  -16.7677   25.5110 H   0  0  0  0  0  0  0  0  0  0  0  0
   11.2587  -18.0790   24.4955 H   0  0  0  0  0  0  0  0  0  0  0  0
   10.6322   -6.7714   20.0814 C   0  0  0  0  0  0  0  0  0  0  0  0
   11.5605   -6.2010   19.0013 C   0  0  0  0  0  0  0  0  0  0  0  0
   10.3566   -5.7676   21.2272 C   0  0  0  0  0  0  0  0  0  0  0  0
    8.8642   -5.3985   21.1839 C   0  0  0  0  0  0  0  0  0  0  0  0
    7.9771   -6.1608   20.9389 O   0  0  0  0  0  0  0  0  0  0  0  0
    8.6334   -4.0247   21.4987 O   0  0  0  0  0  0  0  0  0  0  0  0
    7.3772   -3.4277   21.1599 C   0  0  0  0  0  0  0  0  0  0  0  0
   11.2526   -4.5097   21.1169 C   0  0  0  0  0  0  0  0  0  0  0  0
   12.0079   -3.9715   23.4956 C   0  0  0  0  0  0  0  0  0  0  0  0
   13.0096   -3.8983   24.4712 C   0  0  0  0  0  0  0  0  0  0  0  0
   14.3271   -4.1924   24.1208 C   0  0  0  0  0  0  0  0  0  0  0  0
   14.6368   -4.5238   22.8113 C   0  0  0  0  0  0  0  0  0  0  0  0
   13.6385   -4.5832   21.8500 C   0  0  0  0  0  0  0  0  0  0  0  0
   12.3110   -4.3304   22.1810 C   0  0  0  0  0  0  0  0  0  0  0  0
   12.6880   -3.5154   25.8560 C   0  0  0  0  0  0  0  0  0  0  0  0
   13.6124   -3.0152   26.6699 N   0  0  0  0  0  0  0  0  0  0  0  0
   11.4332   -3.6810   26.3098 N   0  0  0  0  0  0  0  0  0  0  0  0
   14.5346   -2.8893   26.3491 H   0  0  0  0  0  0  0  0  0  0  0  0
   13.3748   -2.7707   27.5934 H   0  0  0  0  0  0  0  0  0  0  0  0
   10.7399   -4.0505   25.7164 H   0  0  0  0  0  0  0  0  0  0  0  0
 11 12  2  0  0  0
 11 16  1  0  0  0
 12 13  1  0  0  0
 12  9  1  0  0  0
 13 14  2  0  0  0
 14 15  1  0  0  0
 15 16  2  0  0  0
 16 17  1  0  0  0
  5  6  2  0  0  0
  5 10  1  0  0  0
  6  7  1  0  0  0
  6  1  1  0  0  0
  7  8  2  0  0  0
  8  9  1  0  0  0
  9 10  2  0  0  0
  1  2  1  0  0  0
  1  3  2  0  0  0
  2 21  1  0  0  0
 21 22  1  0  0  0
 21 23  1  0  0  0
 23 24  1  0  0  0
 23 28  1  0  0  0
 24 26  1  0  0  0
 24 25  2  0  0  0
 26 27  1  0  0  0
 28 34  1  0  0  0
 17 18  1  0  0  0
 29 30  2  0  0  0
 29 34  1  0  0  0
 30 31  1  0  0  0
 30 35  1  0  0  0
 31 32  2  0  0  0
 32 33  1  0  0  0
 33 34  2  0  0  0
 35 36  1  0  0  0
 35 37  2  0  0  0
  2  4  1  0  0  0
 18 19  1  0  0  0
 18 20  1  0  0  0
 36 38  1  0  0  0
 36 39  1  0  0  0
 37 40  1  0  0  0
M  END
> <minimizedAffinity>
-7.92746

$$$$
1F0U_RPR_A_501


 40 42  0  0  0  0  0  0  0  0999 V2000
   12.7800  -11.2596   22.7712 C   0  0  0  0  0  0  0  0  0  0  0  0
   12.7022  -11.2246   21.4156 N   0  0  0  0  0  0  0  0  0  0  0  0
   12.6018  -10.2593   23.4513 O   0  0  0  0  0  0  0  0  0  0  0  0
   12.7353  -12.0748   20.9203 H   0  0  0  0  0  0  0  0  0  0  0  0
   14.3512  -12.8401   23.8931 C   0  0  0  0  0  0  0  0  0  0  0  0
   13.0909  -12.5782   23.3561 C   0  0  0  0  0  0  0  0  0  0  0  0
   12.1515  -13.6061   23.3707 C   0  0  0  0  0  0  0  0  0  0  0  0
   12.4611  -14.8467   23.9086 C   0  0  0  0  0  0  0  0  0  0  0  0
   13.7049  -15.1088   24.4527 C   0  0  0  0  0  0  0  0  0  0  0  0
   14.6468  -14.0935   24.4321 C   0  0  0  0  0  0  0  0  0  0  0  0
   15.1270  -16.6583   25.8201 C   0  0  0  0  0  0  0  0  0  0  0  0
   13.9911  -16.4472   25.0622 C   0  0  0  0  0  0  0  0  0  0  0  0
   13.1096  -17.5038   24.9137 C   0  0  0  0  0  0  0  0  0  0  0  0
   13.3532  -18.7466   25.4786 C   0  0  0  0  0  0  0  0  0  0  0  0
   14.4991  -18.9533   26.2238 C   0  0  0  0  0  0  0  0  0  0  0  0
   15.3871  -17.8986   26.4074 C   0  0  0  0  0  0  0  0  0  0  0  0
   16.6020  -18.0793   27.2720 C   0  0  0  0  0  0  0  0  0  0  0  0
   16.5966  -19.3923   27.9251 N   0  0  0  0  0  0  0  0  0  0  0  0
   15.7720  -19.4727   28.5201 H   0  0  0  0  0  0  0  0  0  0  0  0
   17.4374  -19.4927   28.4938 H   0  0  0  0  0  0  0  0  0  0  0  0
   12.5713   -9.9796   20.6589 C   0  0  0  0  0  0  0  0  0  0  0  0
   11.2613  -10.0218   19.8616 C   0  0  0  0  0  0  0  0  0  0  0  0
   13.8162   -9.7896   19.7586 C   0  0  0  0  0  0  0  0  0  0  0  0
   14.2960  -11.1818   19.3149 C   0  0  0  0  0  0  0  0  0  0  0  0
   13.8260  -11.8139   18.4162 O   0  0  0  0  0  0  0  0  0  0  0  0
   15.4045  -11.6472   20.0858 O   0  0  0  0  0  0  0  0  0  0  0  0
   15.5621  -13.0518   20.3128 C   0  0  0  0  0  0  0  0  0  0  0  0
   14.9389   -9.0114   20.4875 C   0  0  0  0  0  0  0  0  0  0  0  0
   14.5434   -6.8695   21.8197 C   0  0  0  0  0  0  0  0  0  0  0  0
   14.4747   -5.4730   21.8935 C   0  0  0  0  0  0  0  0  0  0  0  0
   14.6366   -4.7189   20.7316 C   0  0  0  0  0  0  0  0  0  0  0  0
   14.8334   -5.3549   19.5162 C   0  0  0  0  0  0  0  0  0  0  0  0
   14.8894   -6.7395   19.4523 C   0  0  0  0  0  0  0  0  0  0  0  0
   14.7677   -7.5139   20.6018 C   0  0  0  0  0  0  0  0  0  0  0  0
   14.2338   -4.7960   23.1786 C   0  0  0  0  0  0  0  0  0  0  0  0
   15.1462   -3.9977   23.7238 N   0  0  0  0  0  0  0  0  0  0  0  0
   13.0678   -4.9943   23.8182 N   0  0  0  0  0  0  0  0  0  0  0  0
   16.0037   -3.8447   23.2649 H   0  0  0  0  0  0  0  0  0  0  0  0
   14.9644   -3.5594   24.5864 H   0  0  0  0  0  0  0  0  0  0  0  0
   12.3844   -5.5834   23.4243 H   0  0  0  0  0  0  0  0  0  0  0  0
 11 12  2  0  0  0
 11 16  1  0  0  0
 12 13  1  0  0  0
 12  9  1  0  0  0
 13 14  2  0  0  0
 14 15  1  0  0  0
 15 16  2  0  0  0
 16 17  1  0  0  0
  5  6  2  0  0  0
  5 10  1  0  0  0
  6  7  1  0  0  0
  6  1  1  0  0  0
  7  8  2  0  0  0
  8  9  1  0  0  0
  9 10  2  0  0  0
  1  2  1  0  0  0
  1  3  2  0  0  0
  2 21  1  0  0  0
 21 22  1  0  0  0
 21 23  1  0  0  0
 23 24  1  0  0  0
 23 28  1  0  0  0
 24 26  1  0  0  0
 24 25  2  0  0  0
 26 27  1  0  0  0
 28 34  1  0  0  0
 17 18  1  0  0  0
 29 30  2  0  0  0
 29 34  1  0  0  0
 30 31  1  0  0  0
 30 35  1  0  0  0
 31 32  2  0  0  0
 32 33  1  0  0  0
 33 34  2  0  0  0
 35 36  1  0  0  0
 35 37  2  0  0  0
  2  4  1  0  0  0
 18 19  1  0  0  0
 18 20  1  0  0  0
 36 38  1  0  0  0
 36 39  1  0  0  0
 37 40  1  0  0  0
M  END
> <minimizedAffinity>
-7.60651

$$$$
1F0U_RPR_A_501


 40 42  0  0  0  0  0  0  0  0999 V2000
    9.2886   -8.2199   21.3122 C   0  0  0  0  0  0  0  0  0  0  0  0
    9.5538   -7.4251   20.2432 N   0  0  0  0  0  0  0  0  0  0  0  0
    8.2707   -8.0856   21.9762 O   0  0  0  0  0  0  0  0  0  0  0  0
   10.3236   -7.6474   19.6712 H   0  0  0  0  0  0  0  0  0  0  0  0
    9.9362  -10.4908   22.1178 C   0  0  0  0  0  0  0  0  0  0  0  0
   10.3066   -9.2458   21.6096 C   0  0  0  0  0  0  0  0  0  0  0  0
   11.6637   -8.9997   21.4169 C   0  0  0  0  0  0  0  0  0  0  0  0
   12.6126   -9.9664   21.7157 C   0  0  0  0  0  0  0  0  0  0  0  0
   12.2509  -11.2065   22.2090 C   0  0  0  0  0  0  0  0  0  0  0  0
   10.9033  -11.4537   22.4122 C   0  0  0  0  0  0  0  0  0  0  0  0
   13.4788  -12.7586   23.7505 C   0  0  0  0  0  0  0  0  0  0  0  0
   13.2995  -12.2412   22.4819 C   0  0  0  0  0  0  0  0  0  0  0  0
   14.0977  -12.7358   21.4652 C   0  0  0  0  0  0  0  0  0  0  0  0
   15.0666  -13.7003   21.6972 C   0  0  0  0  0  0  0  0  0  0  0  0
   15.2489  -14.2026   22.9721 C   0  0  0  0  0  0  0  0  0  0  0  0
   14.4412  -13.7385   24.0050 C   0  0  0  0  0  0  0  0  0  0  0  0
   14.5726  -14.3209   25.3832 C   0  0  0  0  0  0  0  0  0  0  0  0
   13.8348  -15.5832   25.4972 N   0  0  0  0  0  0  0  0  0  0  0  0
   12.8445  -15.4154   25.3196 H   0  0  0  0  0  0  0  0  0  0  0  0
   13.9523  -15.9619   26.4370 H   0  0  0  0  0  0  0  0  0  0  0  0
    8.7463   -6.2534   19.9042 C   0  0  0  0  0  0  0  0  0  0  0  0
    8.9514   -5.9253   18.4196 C   0  0  0  0  0  0  0  0  0  0  0  0
    9.1260   -5.0776   20.8368 C   0  0  0  0  0  0  0  0  0  0  0  0
    7.9633   -4.0710   20.8260 C   0  0  0  0  0  0  0  0  0  0  0  0
    8.0858   -2.8838   20.7636 O   0  0  0  0  0  0  0  0  0  0  0  0
    6.6877   -4.7115   20.8730 O   0  0  0  0  0  0  0  0  0  0  0  0
    5.5457   -4.0438   20.3261 C   0  0  0  0  0  0  0  0  0  0  0  0
   10.4550   -4.4097   20.4072 C   0  0  0  0  0  0  0  0  0  0  0  0
   11.7181   -4.1677   22.6129 C   0  0  0  0  0  0  0  0  0  0  0  0
   12.8103   -4.4732   23.4339 C   0  0  0  0  0  0  0  0  0  0  0  0
   13.8443   -5.2618   22.9299 C   0  0  0  0  0  0  0  0  0  0  0  0
   13.7967   -5.7092   21.6192 C   0  0  0  0  0  0  0  0  0  0  0  0
   12.7151   -5.3920   20.8106 C   0  0  0  0  0  0  0  0  0  0  0  0
   11.6532   -4.6380   21.3000 C   0  0  0  0  0  0  0  0  0  0  0  0
   12.8784   -3.9725   24.8169 C   0  0  0  0  0  0  0  0  0  0  0  0
   13.8828   -3.2051   25.2281 N   0  0  0  0  0  0  0  0  0  0  0  0
   11.9066   -4.3038   25.6850 N   0  0  0  0  0  0  0  0  0  0  0  0
   14.6003   -2.9558   24.6017 H   0  0  0  0  0  0  0  0  0  0  0  0
   13.9094   -2.8860   26.1591 H   0  0  0  0  0  0  0  0  0  0  0  0
   11.1575   -4.8716   25.3922 H   0  0  0  0  0  0  0  0  0  0  0  0
 11 12  2  0  0  0
 11 16  1  0  0  0
 12 13  1  0  0  0
 12  9  1  0  0  0
 13 14  2  0  0  0
 14 15  1  0  0  0
 15 16  2  0  0  0
 16 17  1  0  0  0
  5  6  2  0  0  0
  5 10  1  0  0  0
  6  7  1  0  0  0
  6  1  1  0  0  0
  7  8  2  0  0  0
  8  9  1  0  0  0
  9 10  2  0  0  0
  1  2  1  0  0  0
  1  3  2  0  0  0
  2 21  1  0  0  0
 21 22  1  0  0  0
 21 23  1  0  0  0
 23 24  1  0  0  0
 23 28  1  0  0  0
 24 26  1  0  0  0
 24 25  2  0  0  0
 26 27  1  0  0  0
 28 34  1  0  0  0
 17 18  1  0  0  0
 29 30  2  0  0  0
 29 34  1  0  0  0
 30 31  1  0  0  0
 30 35  1  0  0  0
 31 32  2  0  0  0
 32 33  1  0  0  0
 33 34  2  0  0  0
 35 36  1  0  0  0
 35 37  2  0  0  0
  2  4  1  0  0  0
 18 19  1  0  0  0
 18 20  1  0  0  0
 36 38  1  0  0  0
 36 39  1  0  0  0
 37 40  1  0  0  0
M  END
> <minimizedAffinity>
-7.40353

$$$$
1F0U_RPR_A_501


 40 42  0  0  0  0  0  0  0  0999 V2000
   13.9499  -10.2814   21.3445 C   0  0  0  0  0  0  0  0  0  0  0  0
   14.1033   -8.9327   21.3923 N   0  0  0  0  0  0  0  0  0  0  0  0
   14.6918  -10.9894   20.6786 O   0  0  0  0  0  0  0  0  0  0  0  0
   13.5591   -8.4198   22.0326 H   0  0  0  0  0  0  0  0  0  0  0  0
   11.6103  -10.1601   22.2027 C   0  0  0  0  0  0  0  0  0  0  0  0
   12.8359  -10.8233   22.1462 C   0  0  0  0  0  0  0  0  0  0  0  0
   12.9766  -11.9941   22.8870 C   0  0  0  0  0  0  0  0  0  0  0  0
   11.9271  -12.4849   23.6500 C   0  0  0  0  0  0  0  0  0  0  0  0
   10.7062  -11.8381   23.7011 C   0  0  0  0  0  0  0  0  0  0  0  0
   10.5633  -10.6677   22.9743 C   0  0  0  0  0  0  0  0  0  0  0  0
    8.4054  -12.8185   23.8979 C   0  0  0  0  0  0  0  0  0  0  0  0
    9.5816  -12.4187   24.5029 C   0  0  0  0  0  0  0  0  0  0  0  0
    9.6992  -12.6043   25.8694 C   0  0  0  0  0  0  0  0  0  0  0  0
    8.6727  -13.1490   26.6261 C   0  0  0  0  0  0  0  0  0  0  0  0
    7.4938  -13.5335   26.0150 C   0  0  0  0  0  0  0  0  0  0  0  0
    7.3627  -13.3794   24.6389 C   0  0  0  0  0  0  0  0  0  0  0  0
    6.1196  -13.8556   23.9432 C   0  0  0  0  0  0  0  0  0  0  0  0
    4.9139  -13.4065   24.6468 N   0  0  0  0  0  0  0  0  0  0  0  0
    4.9106  -13.7876   25.5930 H   0  0  0  0  0  0  0  0  0  0  0  0
    4.0870  -13.7321   24.1463 H   0  0  0  0  0  0  0  0  0  0  0  0
   15.0413   -8.2085   20.5348 C   0  0  0  0  0  0  0  0  0  0  0  0
   16.4411   -8.2866   21.1578 C   0  0  0  0  0  0  0  0  0  0  0  0
   14.5490   -6.7531   20.3451 C   0  0  0  0  0  0  0  0  0  0  0  0
   15.0049   -6.2769   18.9556 C   0  0  0  0  0  0  0  0  0  0  0  0
   14.8624   -6.8910   17.9404 O   0  0  0  0  0  0  0  0  0  0  0  0
   15.6083   -4.9830   18.9941 O   0  0  0  0  0  0  0  0  0  0  0  0
   15.3109   -4.0381   17.9608 C   0  0  0  0  0  0  0  0  0  0  0  0
   15.0743   -5.8189   21.4625 C   0  0  0  0  0  0  0  0  0  0  0  0
   14.4037   -4.4942   23.5396 C   0  0  0  0  0  0  0  0  0  0  0  0
   13.4228   -3.9969   24.4062 C   0  0  0  0  0  0  0  0  0  0  0  0
   12.0880   -4.3426   24.1973 C   0  0  0  0  0  0  0  0  0  0  0  0
   11.7487   -5.1941   23.1579 C   0  0  0  0  0  0  0  0  0  0  0  0
   12.7295   -5.6898   22.3113 C   0  0  0  0  0  0  0  0  0  0  0  0
   14.0637   -5.3312   22.4752 C   0  0  0  0  0  0  0  0  0  0  0  0
   13.7845   -3.1177   25.5305 C   0  0  0  0  0  0  0  0  0  0  0  0
   13.1986   -3.2336   26.7180 N   0  0  0  0  0  0  0  0  0  0  0  0
   14.7236   -2.1724   25.3506 N   0  0  0  0  0  0  0  0  0  0  0  0
   12.5096   -3.9219   26.8619 H   0  0  0  0  0  0  0  0  0  0  0  0
   13.4536   -2.6311   27.4536 H   0  0  0  0  0  0  0  0  0  0  0  0
   15.1646   -2.0768   24.4756 H   0  0  0  0  0  0  0  0  0  0  0  0
 11 12  2  0  0  0
 11 16  1  0  0  0
 12 13  1  0  0  0
 12  9  1  0  0  0
 13 14  2  0  0  0
 14 15  1  0  0  0
 15 16  2  0  0  0
 16 17  1  0  0  0
  5  6  2  0  0  0
  5 10  1  0  0  0
  6  7  1  0  0  0
  6  1  1  0  0  0
  7  8  2  0  0  0
  8  9  1  0  0  0
  9 10  2  0  0  0
  1  2  1  0  0  0
  1  3  2  0  0  0
  2 21  1  0  0  0
 21 22  1  0  0  0
 21 23  1  0  0  0
 23 24  1  0  0  0
 23 28  1  0  0  0
 24 26  1  0  0  0
 24 25  2  0  0  0
 26 27  1  0  0  0
 28 34  1  0  0  0
 17 18  1  0  0  0
 29 30  2  0  0  0
 29 34  1  0  0  0
 30 31  1  0  0  0
 30 35  1  0  0  0
 31 32  2  0  0  0
 32 33  1  0  0  0
 33 34  2  0  0  0
 35 36  1  0  0  0
 35 37  2  0  0  0
  2  4  1  0  0  0
 18 19  1  0  0  0
 18 20  1  0  0  0
 36 38  1  0  0  0
 36 39  1  0  0  0
 37 40  1  0  0  0
M  END
> <minimizedAffinity>
-7.09652

$$$$
1F0U_RPR_A_501


 40 42  0  0  0  0  0  0  0  0999 V2000
   13.7107   -7.5487   18.6628 C   0  0  0  0  0  0  0  0  0  0  0  0
   14.8785   -6.8551   18.6619 N   0  0  0  0  0  0  0  0  0  0  0  0
   12.7568   -7.2022   17.9808 O   0  0  0  0  0  0  0  0  0  0  0  0
   15.6534   -7.2381   19.1331 H   0  0  0  0  0  0  0  0  0  0  0  0
   13.8100   -8.6098   20.9188 C   0  0  0  0  0  0  0  0  0  0  0  0
   13.6781   -8.7376   19.5362 C   0  0  0  0  0  0  0  0  0  0  0  0
   13.5393  -10.0203   19.0120 C   0  0  0  0  0  0  0  0  0  0  0  0
   13.5266  -11.1317   19.8421 C   0  0  0  0  0  0  0  0  0  0  0  0
   13.6455  -11.0105   21.2143 C   0  0  0  0  0  0  0  0  0  0  0  0
   13.7938   -9.7381   21.7409 C   0  0  0  0  0  0  0  0  0  0  0  0
   13.3038  -13.4728   21.5519 C   0  0  0  0  0  0  0  0  0  0  0  0
   13.5864  -12.2292   22.0838 C   0  0  0  0  0  0  0  0  0  0  0  0
   13.8466  -12.1526   23.4410 C   0  0  0  0  0  0  0  0  0  0  0  0
   13.8059  -13.2713   24.2595 C   0  0  0  0  0  0  0  0  0  0  0  0
   13.5087  -14.5095   23.7215 C   0  0  0  0  0  0  0  0  0  0  0  0
   13.2682  -14.6146   22.3556 C   0  0  0  0  0  0  0  0  0  0  0  0
   13.0139  -15.9596   21.7373 C   0  0  0  0  0  0  0  0  0  0  0  0
   12.5900  -16.9350   22.7470 N   0  0  0  0  0  0  0  0  0  0  0  0
   13.3259  -17.0435   23.4449 H   0  0  0  0  0  0  0  0  0  0  0  0
   12.4119  -17.8334   22.2982 H   0  0  0  0  0  0  0  0  0  0  0  0
   15.0358   -5.5644   17.9919 C   0  0  0  0  0  0  0  0  0  0  0  0
   16.4625   -5.4671   17.4363 C   0  0  0  0  0  0  0  0  0  0  0  0
   14.6985   -4.4240   18.9830 C   0  0  0  0  0  0  0  0  0  0  0  0
   15.3609   -3.1362   18.4653 C   0  0  0  0  0  0  0  0  0  0  0  0
   16.2500   -2.5554   19.0132 O   0  0  0  0  0  0  0  0  0  0  0  0
   14.8125   -2.7044   17.2193 O   0  0  0  0  0  0  0  0  0  0  0  0
   14.9674   -1.3388   16.8190 C   0  0  0  0  0  0  0  0  0  0  0  0
   15.1618   -4.7579   20.4221 C   0  0  0  0  0  0  0  0  0  0  0  0
   12.7674   -5.0001   21.2750 C   0  0  0  0  0  0  0  0  0  0  0  0
   11.8417   -5.0179   22.3253 C   0  0  0  0  0  0  0  0  0  0  0  0
   12.2734   -4.7361   23.6211 C   0  0  0  0  0  0  0  0  0  0  0  0
   13.6011   -4.4137   23.8529 C   0  0  0  0  0  0  0  0  0  0  0  0
   14.5082   -4.3884   22.8036 C   0  0  0  0  0  0  0  0  0  0  0  0
   14.1112   -4.7015   21.5074 C   0  0  0  0  0  0  0  0  0  0  0  0
   10.4242   -5.3290   22.0769 C   0  0  0  0  0  0  0  0  0  0  0  0
    9.6451   -4.5067   21.3814 N   0  0  0  0  0  0  0  0  0  0  0  0
    9.9043   -6.4669   22.5697 N   0  0  0  0  0  0  0  0  0  0  0  0
   10.0143   -3.6706   21.0155 H   0  0  0  0  0  0  0  0  0  0  0  0
    8.6988   -4.7338   21.2322 H   0  0  0  0  0  0  0  0  0  0  0  0
   10.4714   -7.0839   23.0864 H   0  0  0  0  0  0  0  0  0  0  0  0
 11 12  2  0  0  0
 11 16  1  0  0  0
 12 13  1  0  0  0
 12  9  1  0  0  0
 13 14  2  0  0  0
 14 15  1  0  0  0
 15 16  2  0  0  0
 16 17  1  0  0  0
  5  6  2  0  0  0
  5 10  1  0  0  0
  6  7  1  0  0  0
  6  1  1  0  0  0
  7  8  2  0  0  0
  8  9  1  0  0  0
  9 10  2  0  0  0
  1  2  1  0  0  0
  1  3  2  0  0  0
  2 21  1  0  0  0
 21 22  1  0  0  0
 21 23  1  0  0  0
 23 24  1  0  0  0
 23 28  1  0  0  0
 24 26  1  0  0  0
 24 25  2  0  0  0
 26 27  1  0  0  0
 28 34  1  0  0  0
 17 18  1  0  0  0
 29 30  2  0  0  0
 29 34  1  0  0  0
 30 31  1  0  0  0
 30 35  1  0  0  0
 31 32  2  0  0  0
 32 33  1  0  0  0
 33 34  2  0  0  0
 35 36  1  0  0  0
 35 37  2  0  0  0
  2  4  1  0  0  0
 18 19  1  0  0  0
 18 20  1  0  0  0
 36 38  1  0  0  0
 36 39  1  0  0  0
 37 40  1  0  0  0
M  END
> <minimizedAffinity>
-6.79855

$$$$
