6EIR_B6H_A_501


 39 42  0  0  0  0  0  0  0  0999 V2000
   -7.7390  107.1184  276.5340 C   0  0  0  0  0  0  0  0  0  0  0  0
   -7.1898  105.9934  275.4627 S   0  0  0  0  0  0  0  0  0  0  0  0
   -8.5476  106.5043  277.4020 N   0  0  0  0  0  0  0  0  0  0  0  0
   -8.6931  105.1804  277.1837 C   0  0  0  0  0  0  0  0  0  0  0  0
   -9.4801  104.4778  277.9975 N   0  0  0  0  0  0  0  0  0  0  0  0
   -7.9982  104.7145  276.1277 C   0  0  0  0  0  0  0  0  0  0  0  0
   -9.5987  103.5110  277.8541 H   0  0  0  0  0  0  0  0  0  0  0  0
   -9.9432  104.9254  278.7421 H   0  0  0  0  0  0  0  0  0  0  0  0
   -7.4573  108.4314  276.5749 N   0  0  0  0  0  0  0  0  0  0  0  0
   -7.9124  109.0126  277.2262 H   0  0  0  0  0  0  0  0  0  0  0  0
   -4.7707  110.1081  273.8965 C   0  0  0  0  0  0  0  0  0  0  0  0
   -6.1515  110.2288  273.7029 C   0  0  0  0  0  0  0  0  0  0  0  0
   -7.0392  109.6591  274.6217 C   0  0  0  0  0  0  0  0  0  0  0  0
   -4.2885  109.4068  275.0067 C   0  0  0  0  0  0  0  0  0  0  0  0
   -5.1730  108.8362  275.9207 C   0  0  0  0  0  0  0  0  0  0  0  0
   -6.5540  108.9510  275.7260 C   0  0  0  0  0  0  0  0  0  0  0  0
   -2.5857  111.1491  273.5445 C   0  0  0  0  0  0  0  0  0  0  0  0
   -1.5434  111.3437  272.4645 C   0  0  0  0  0  0  0  0  0  0  0  0
   -2.1756  111.7653  271.1864 N   0  0  0  0  0  0  0  0  0  0  0  0
   -1.1709  112.0731  270.1335 C   0  0  0  0  0  0  0  0  0  0  0  0
   -3.0995  110.7430  270.6777 C   0  0  0  0  0  0  0  0  0  0  0  0
   -4.3027  110.7966  271.5981 C   0  0  0  0  0  0  0  0  0  0  0  0
   -3.9007  110.6508  273.0227 N   0  0  0  0  0  0  0  0  0  0  0  0
   -8.3948  109.7537  274.4821 O   0  0  0  0  0  0  0  0  0  0  0  0
   -8.8557  111.1150  274.4710 C   0  0  0  0  0  0  0  0  0  0  0  0
   -7.9845  103.4292  275.7130 C   0  0  0  0  0  0  0  0  0  0  0  0
   -9.0236  102.7672  275.6781 O   0  0  0  0  0  0  0  0  0  0  0  0
   -6.7766  102.8275  275.3258 C   0  0  0  0  0  0  0  0  0  0  0  0
   -6.4384  102.7955  273.9698 C   0  0  0  0  0  0  0  0  0  0  0  0
   -5.2354  102.2205  273.5482 C   0  0  0  0  0  0  0  0  0  0  0  0
   -5.8719  102.2927  276.2523 C   0  0  0  0  0  0  0  0  0  0  0  0
   -4.6729  101.7140  275.8315 C   0  0  0  0  0  0  0  0  0  0  0  0
   -4.3491  101.6671  274.4729 C   0  0  0  0  0  0  0  0  0  0  0  0
   -3.1934  101.1375  274.0432 N   0  0  0  0  0  0  0  0  0  0  0  0
   -2.2667  101.9029  273.4188 C   0  0  0  0  0  0  0  0  0  0  0  0
   -2.3721  103.1103  273.1879 O   0  0  0  0  0  0  0  0  0  0  0  0
   -3.0166  100.1793  274.1838 H   0  0  0  0  0  0  0  0  0  0  0  0
   -1.0075  101.1364  272.9858 C   0  0  0  0  0  0  0  0  0  0  0  0
   -0.2149  100.3034  273.9986 C   0  0  0  0  0  0  0  0  0  0  0  0
 38 39  1  0  0  0
 38 35  1  0  0  0
 34 35  1  0  0  0
 34 33  1  0  0  0
 35 36  2  0  0  0
 33 32  2  0  0  0
 33 30  1  0  0  0
 32 31  1  0  0  0
 30 29  2  0  0  0
 31 28  2  0  0  0
 29 28  1  0  0  0
 28 26  1  0  0  0
 27 26  2  0  0  0
 26  6  1  0  0  0
  6  2  1  0  0  0
  6  4  2  0  0  0
  5  4  1  0  0  0
  2  1  1  0  0  0
  4  3  1  0  0  0
  3  1  2  0  0  0
  1  9  1  0  0  0
 18 17  1  0  0  0
 18 19  1  0  0  0
 17 23  1  0  0  0
 24 13  1  0  0  0
 24 25  1  0  0  0
 13 12  2  0  0  0
 13 16  1  0  0  0
 12 11  1  0  0  0
  9 16  1  0  0  0
 16 15  2  0  0  0
 11 23  1  0  0  0
 11 14  2  0  0  0
 23 22  1  0  0  0
 20 19  1  0  0  0
 19 21  1  0  0  0
 15 14  1  0  0  0
 21 22  1  0  0  0
  9 10  1  0  0  0
  5  7  1  0  0  0
  5  8  1  0  0  0
 34 37  1  0  0  0
M  END
> <minimizedAffinity>
-8.98667

$$$$
6EIR_B6H_A_501


 39 42  0  0  0  0  0  0  0  0999 V2000
   -7.6855  107.1389  276.9322 C   0  0  0  0  0  0  0  0  0  0  0  0
   -7.2275  106.1762  275.6758 S   0  0  0  0  0  0  0  0  0  0  0  0
   -8.4510  106.4139  277.7524 N   0  0  0  0  0  0  0  0  0  0  0  0
   -8.6372  105.1377  277.3544 C   0  0  0  0  0  0  0  0  0  0  0  0
   -9.3863  104.3329  278.1068 N   0  0  0  0  0  0  0  0  0  0  0  0
   -8.0191  104.8231  276.1993 C   0  0  0  0  0  0  0  0  0  0  0  0
   -9.5335  103.3988  277.8328 H   0  0  0  0  0  0  0  0  0  0  0  0
   -9.7927  104.6723  278.9369 H   0  0  0  0  0  0  0  0  0  0  0  0
   -7.3747  108.4285  277.1446 N   0  0  0  0  0  0  0  0  0  0  0  0
   -7.0154  108.7114  278.0165 H   0  0  0  0  0  0  0  0  0  0  0  0
   -7.7981  111.2012  274.0891 C   0  0  0  0  0  0  0  0  0  0  0  0
   -6.5324  110.7589  274.4906 C   0  0  0  0  0  0  0  0  0  0  0  0
   -6.4137  109.8197  275.5204 C   0  0  0  0  0  0  0  0  0  0  0  0
   -8.9378  110.7055  274.7312 C   0  0  0  0  0  0  0  0  0  0  0  0
   -8.8195  109.7720  275.7597 C   0  0  0  0  0  0  0  0  0  0  0  0
   -7.5547  109.3325  276.1664 C   0  0  0  0  0  0  0  0  0  0  0  0
   -9.3072  112.6106  272.7784 C   0  0  0  0  0  0  0  0  0  0  0  0
   -9.3056  113.8904  271.9706 C   0  0  0  0  0  0  0  0  0  0  0  0
   -8.1378  113.9364  271.0512 N   0  0  0  0  0  0  0  0  0  0  0  0
   -8.1647  115.1291  270.1626 C   0  0  0  0  0  0  0  0  0  0  0  0
   -6.8681  113.9222  271.7896 C   0  0  0  0  0  0  0  0  0  0  0  0
   -6.7299  112.5098  272.3222 C   0  0  0  0  0  0  0  0  0  0  0  0
   -7.9320  112.1046  273.0988 N   0  0  0  0  0  0  0  0  0  0  0  0
   -5.2029  109.3513  275.9453 O   0  0  0  0  0  0  0  0  0  0  0  0
   -4.3915  108.8582  274.8662 C   0  0  0  0  0  0  0  0  0  0  0  0
   -8.0579  103.6121  275.6027 C   0  0  0  0  0  0  0  0  0  0  0  0
   -9.1338  103.0542  275.3785 O   0  0  0  0  0  0  0  0  0  0  0  0
   -6.8645  102.9678  275.2400 C   0  0  0  0  0  0  0  0  0  0  0  0
   -6.4432  103.0191  273.9080 C   0  0  0  0  0  0  0  0  0  0  0  0
   -5.2509  102.4043  273.5128 C   0  0  0  0  0  0  0  0  0  0  0  0
   -6.0526  102.3080  276.1719 C   0  0  0  0  0  0  0  0  0  0  0  0
   -4.8646  101.6898  275.7771 C   0  0  0  0  0  0  0  0  0  0  0  0
   -4.4584  101.7273  274.4404 C   0  0  0  0  0  0  0  0  0  0  0  0
   -3.3101  101.1613  274.0382 N   0  0  0  0  0  0  0  0  0  0  0  0
   -2.3269  101.9048  273.4768 C   0  0  0  0  0  0  0  0  0  0  0  0
   -2.3710  103.1226  273.2834 O   0  0  0  0  0  0  0  0  0  0  0  0
   -3.1805  100.1921  274.1527 H   0  0  0  0  0  0  0  0  0  0  0  0
   -1.0855  101.0977  273.0672 C   0  0  0  0  0  0  0  0  0  0  0  0
   -0.2649  100.3422  274.1177 C   0  0  0  0  0  0  0  0  0  0  0  0
 38 39  1  0  0  0
 38 35  1  0  0  0
 34 35  1  0  0  0
 34 33  1  0  0  0
 35 36  2  0  0  0
 33 32  2  0  0  0
 33 30  1  0  0  0
 32 31  1  0  0  0
 30 29  2  0  0  0
 31 28  2  0  0  0
 29 28  1  0  0  0
 28 26  1  0  0  0
 27 26  2  0  0  0
 26  6  1  0  0  0
  6  2  1  0  0  0
  6  4  2  0  0  0
  5  4  1  0  0  0
  2  1  1  0  0  0
  4  3  1  0  0  0
  3  1  2  0  0  0
  1  9  1  0  0  0
 18 17  1  0  0  0
 18 19  1  0  0  0
 17 23  1  0  0  0
 24 13  1  0  0  0
 24 25  1  0  0  0
 13 12  2  0  0  0
 13 16  1  0  0  0
 12 11  1  0  0  0
  9 16  1  0  0  0
 16 15  2  0  0  0
 11 23  1  0  0  0
 11 14  2  0  0  0
 23 22  1  0  0  0
 20 19  1  0  0  0
 19 21  1  0  0  0
 15 14  1  0  0  0
 21 22  1  0  0  0
  9 10  1  0  0  0
  5  7  1  0  0  0
  5  8  1  0  0  0
 34 37  1  0  0  0
M  END
> <minimizedAffinity>
-8.66898

$$$$
6EIR_B6H_A_501


 39 42  0  0  0  0  0  0  0  0999 V2000
   -8.5791  103.7461  277.0039 C   0  0  0  0  0  0  0  0  0  0  0  0
   -8.0053  104.4733  275.6412 S   0  0  0  0  0  0  0  0  0  0  0  0
   -8.0163  102.5383  277.0976 N   0  0  0  0  0  0  0  0  0  0  0  0
   -7.1604  102.2456  276.0959 C   0  0  0  0  0  0  0  0  0  0  0  0
   -6.5467  101.0630  276.1001 N   0  0  0  0  0  0  0  0  0  0  0  0
   -7.0279  103.2235  275.1786 C   0  0  0  0  0  0  0  0  0  0  0  0
   -5.9190  100.8316  275.3778 H   0  0  0  0  0  0  0  0  0  0  0  0
   -6.7210  100.4206  276.8254 H   0  0  0  0  0  0  0  0  0  0  0  0
   -9.4567  104.2332  277.8969 N   0  0  0  0  0  0  0  0  0  0  0  0
   -9.9347  103.6211  278.5020 H   0  0  0  0  0  0  0  0  0  0  0  0
  -10.2851  108.2908  278.1261 C   0  0  0  0  0  0  0  0  0  0  0  0
  -11.3154  107.3501  278.0148 C   0  0  0  0  0  0  0  0  0  0  0  0
  -11.0129  105.9863  277.9436 C   0  0  0  0  0  0  0  0  0  0  0  0
   -8.9554  107.8573  278.1549 C   0  0  0  0  0  0  0  0  0  0  0  0
   -8.6536  106.4984  278.0806 C   0  0  0  0  0  0  0  0  0  0  0  0
   -9.6819  105.5566  277.9638 C   0  0  0  0  0  0  0  0  0  0  0  0
   -9.4393  110.5796  277.9597 C   0  0  0  0  0  0  0  0  0  0  0  0
   -9.9151  111.9826  277.6500 C   0  0  0  0  0  0  0  0  0  0  0  0
  -11.1780  112.2867  278.3735 N   0  0  0  0  0  0  0  0  0  0  0  0
  -11.6153  113.6952  278.1797 C   0  0  0  0  0  0  0  0  0  0  0  0
  -12.2660  111.3901  277.9615 C   0  0  0  0  0  0  0  0  0  0  0  0
  -11.9292  110.0441  278.5718 C   0  0  0  0  0  0  0  0  0  0  0  0
  -10.5575  109.6083  278.1967 N   0  0  0  0  0  0  0  0  0  0  0  0
  -11.9810  105.0281  277.8405 O   0  0  0  0  0  0  0  0  0  0  0  0
  -13.2779  105.5085  278.2318 C   0  0  0  0  0  0  0  0  0  0  0  0
   -6.2318  103.1636  274.0892 C   0  0  0  0  0  0  0  0  0  0  0  0
   -6.0719  102.1023  273.4831 O   0  0  0  0  0  0  0  0  0  0  0  0
   -5.5653  104.3149  273.6405 C   0  0  0  0  0  0  0  0  0  0  0  0
   -4.1682  104.3482  273.6775 C   0  0  0  0  0  0  0  0  0  0  0  0
   -3.4693  105.4706  273.2224 C   0  0  0  0  0  0  0  0  0  0  0  0
   -6.2457  105.4210  273.1147 C   0  0  0  0  0  0  0  0  0  0  0  0
   -5.5486  106.5440  272.6647 C   0  0  0  0  0  0  0  0  0  0  0  0
   -4.1527  106.5796  272.7226 C   0  0  0  0  0  0  0  0  0  0  0  0
   -3.4571  107.6366  272.2758 N   0  0  0  0  0  0  0  0  0  0  0  0
   -3.1983  108.6918  273.0847 C   0  0  0  0  0  0  0  0  0  0  0  0
   -3.5515  108.7955  274.2623 O   0  0  0  0  0  0  0  0  0  0  0  0
   -3.1303  107.6453  271.3472 H   0  0  0  0  0  0  0  0  0  0  0  0
   -2.3987  109.8177  272.4115 C   0  0  0  0  0  0  0  0  0  0  0  0
   -2.6474  110.1810  270.9439 C   0  0  0  0  0  0  0  0  0  0  0  0
 38 39  1  0  0  0
 38 35  1  0  0  0
 34 35  1  0  0  0
 34 33  1  0  0  0
 35 36  2  0  0  0
 33 32  2  0  0  0
 33 30  1  0  0  0
 32 31  1  0  0  0
 30 29  2  0  0  0
 31 28  2  0  0  0
 29 28  1  0  0  0
 28 26  1  0  0  0
 27 26  2  0  0  0
 26  6  1  0  0  0
  6  2  1  0  0  0
  6  4  2  0  0  0
  5  4  1  0  0  0
  2  1  1  0  0  0
  4  3  1  0  0  0
  3  1  2  0  0  0
  1  9  1  0  0  0
 18 17  1  0  0  0
 18 19  1  0  0  0
 17 23  1  0  0  0
 24 13  1  0  0  0
 24 25  1  0  0  0
 13 12  2  0  0  0
 13 16  1  0  0  0
 12 11  1  0  0  0
  9 16  1  0  0  0
 16 15  2  0  0  0
 11 23  1  0  0  0
 11 14  2  0  0  0
 23 22  1  0  0  0
 20 19  1  0  0  0
 19 21  1  0  0  0
 15 14  1  0  0  0
 21 22  1  0  0  0
  9 10  1  0  0  0
  5  7  1  0  0  0
  5  8  1  0  0  0
 34 37  1  0  0  0
M  END
> <minimizedAffinity>
-8.46798

$$$$
6EIR_B6H_A_501


 39 42  0  0  0  0  0  0  0  0999 V2000
   -7.9290  106.8980  277.4433 C   0  0  0  0  0  0  0  0  0  0  0  0
   -7.3388  106.3844  275.9932 S   0  0  0  0  0  0  0  0  0  0  0  0
   -8.6739  105.9164  277.9589 N   0  0  0  0  0  0  0  0  0  0  0  0
   -8.7416  104.8089  277.1905 C   0  0  0  0  0  0  0  0  0  0  0  0
   -9.4608  103.7725  277.6191 N   0  0  0  0  0  0  0  0  0  0  0  0
   -8.0470  104.8918  276.0390 C   0  0  0  0  0  0  0  0  0  0  0  0
   -9.5220  102.9561  277.0723 H   0  0  0  0  0  0  0  0  0  0  0  0
   -9.9311  103.8231  278.4825 H   0  0  0  0  0  0  0  0  0  0  0  0
   -7.7296  108.0813  278.0474 N   0  0  0  0  0  0  0  0  0  0  0  0
   -6.8415  108.3069  278.4077 H   0  0  0  0  0  0  0  0  0  0  0  0
  -10.8174  110.8412  278.2748 C   0  0  0  0  0  0  0  0  0  0  0  0
   -9.7731  111.0022  277.3570 C   0  0  0  0  0  0  0  0  0  0  0  0
   -8.7444  110.0563  277.2947 C   0  0  0  0  0  0  0  0  0  0  0  0
  -10.8176  109.7362  279.1326 C   0  0  0  0  0  0  0  0  0  0  0  0
   -9.7908  108.7952  279.0729 C   0  0  0  0  0  0  0  0  0  0  0  0
   -8.7429  108.9571  278.1597 C   0  0  0  0  0  0  0  0  0  0  0  0
  -12.8575  111.5633  279.4141 C   0  0  0  0  0  0  0  0  0  0  0  0
  -13.6697  112.8128  279.6783 C   0  0  0  0  0  0  0  0  0  0  0  0
  -13.8428  113.6066  278.4329 N   0  0  0  0  0  0  0  0  0  0  0  0
  -14.7294  114.7843  278.6320 C   0  0  0  0  0  0  0  0  0  0  0  0
  -12.5528  114.0670  277.9021 C   0  0  0  0  0  0  0  0  0  0  0  0
  -11.8874  112.8284  277.3358 C   0  0  0  0  0  0  0  0  0  0  0  0
  -11.8169  111.7414  278.3486 N   0  0  0  0  0  0  0  0  0  0  0  0
   -7.7063  110.1637  276.4133 O   0  0  0  0  0  0  0  0  0  0  0  0
   -7.9515  111.1393  275.3867 C   0  0  0  0  0  0  0  0  0  0  0  0
   -7.9636  103.9146  275.1104 C   0  0  0  0  0  0  0  0  0  0  0  0
   -8.9388  103.6191  274.4170 O   0  0  0  0  0  0  0  0  0  0  0  0
   -6.7602  103.2135  274.9328 C   0  0  0  0  0  0  0  0  0  0  0  0
   -6.3862  102.2563  275.8805 C   0  0  0  0  0  0  0  0  0  0  0  0
   -5.2036  101.5257  275.7278 C   0  0  0  0  0  0  0  0  0  0  0  0
   -5.9359  103.4052  273.8163 C   0  0  0  0  0  0  0  0  0  0  0  0
   -4.7525  102.6796  273.6658 C   0  0  0  0  0  0  0  0  0  0  0  0
   -4.3736  101.7380  274.6266 C   0  0  0  0  0  0  0  0  0  0  0  0
   -3.2535  101.0108  274.4951 N   0  0  0  0  0  0  0  0  0  0  0  0
   -2.1859  101.4938  273.8157 C   0  0  0  0  0  0  0  0  0  0  0  0
   -2.1233  102.5992  273.2712 O   0  0  0  0  0  0  0  0  0  0  0  0
   -3.2071  100.1137  274.8980 H   0  0  0  0  0  0  0  0  0  0  0  0
   -0.9916  100.5292  273.7548 C   0  0  0  0  0  0  0  0  0  0  0  0
    0.1068  100.7134  272.7025 C   0  0  0  0  0  0  0  0  0  0  0  0
 38 39  1  0  0  0
 38 35  1  0  0  0
 34 35  1  0  0  0
 34 33  1  0  0  0
 35 36  2  0  0  0
 33 32  2  0  0  0
 33 30  1  0  0  0
 32 31  1  0  0  0
 30 29  2  0  0  0
 31 28  2  0  0  0
 29 28  1  0  0  0
 28 26  1  0  0  0
 27 26  2  0  0  0
 26  6  1  0  0  0
  6  2  1  0  0  0
  6  4  2  0  0  0
  5  4  1  0  0  0
  2  1  1  0  0  0
  4  3  1  0  0  0
  3  1  2  0  0  0
  1  9  1  0  0  0
 18 17  1  0  0  0
 18 19  1  0  0  0
 17 23  1  0  0  0
 24 13  1  0  0  0
 24 25  1  0  0  0
 13 12  2  0  0  0
 13 16  1  0  0  0
 12 11  1  0  0  0
  9 16  1  0  0  0
 16 15  2  0  0  0
 11 23  1  0  0  0
 11 14  2  0  0  0
 23 22  1  0  0  0
 20 19  1  0  0  0
 19 21  1  0  0  0
 15 14  1  0  0  0
 21 22  1  0  0  0
  9 10  1  0  0  0
  5  7  1  0  0  0
  5  8  1  0  0  0
 34 37  1  0  0  0
M  END
> <minimizedAffinity>
-8.43809

$$$$
6EIR_B6H_A_501


 39 42  0  0  0  0  0  0  0  0999 V2000
   -8.3183  110.7892  275.8846 C   0  0  0  0  0  0  0  0  0  0  0  0
   -8.1345  109.6171  274.7411 S   0  0  0  0  0  0  0  0  0  0  0  0
   -7.1518  111.4265  276.0162 N   0  0  0  0  0  0  0  0  0  0  0  0
   -6.1728  110.9642  275.2104 C   0  0  0  0  0  0  0  0  0  0  0  0
   -4.9706  111.5359  275.2667 N   0  0  0  0  0  0  0  0  0  0  0  0
   -6.5463  109.9405  274.4180 C   0  0  0  0  0  0  0  0  0  0  0  0
   -4.2440  111.2123  274.6866 H   0  0  0  0  0  0  0  0  0  0  0  0
   -4.8090  112.2819  275.8885 H   0  0  0  0  0  0  0  0  0  0  0  0
   -9.4203  111.0938  276.5900 N   0  0  0  0  0  0  0  0  0  0  0  0
   -9.6080  112.0298  276.8306 H   0  0  0  0  0  0  0  0  0  0  0  0
  -11.9539  108.0679  277.8658 C   0  0  0  0  0  0  0  0  0  0  0  0
  -10.6961  108.2497  278.4520 C   0  0  0  0  0  0  0  0  0  0  0  0
   -9.8600  109.2798  278.0088 C   0  0  0  0  0  0  0  0  0  0  0  0
  -12.3613  108.9154  276.8301 C   0  0  0  0  0  0  0  0  0  0  0  0
  -11.5268  109.9400  276.3861 C   0  0  0  0  0  0  0  0  0  0  0  0
  -10.2666  110.1201  276.9672 C   0  0  0  0  0  0  0  0  0  0  0  0
  -14.1698  107.0409  277.7348 C   0  0  0  0  0  0  0  0  0  0  0  0
  -14.8516  105.7030  277.9236 C   0  0  0  0  0  0  0  0  0  0  0  0
  -14.4013  105.0505  279.1816 N   0  0  0  0  0  0  0  0  0  0  0  0
  -15.1334  103.7849  279.4553 C   0  0  0  0  0  0  0  0  0  0  0  0
  -12.9596  104.7704  279.1588 C   0  0  0  0  0  0  0  0  0  0  0  0
  -12.2866  106.1206  279.3056 C   0  0  0  0  0  0  0  0  0  0  0  0
  -12.7730  107.0817  278.2800 N   0  0  0  0  0  0  0  0  0  0  0  0
   -8.6265  109.5034  278.5515 O   0  0  0  0  0  0  0  0  0  0  0  0
   -7.7624  108.3594  278.4501 C   0  0  0  0  0  0  0  0  0  0  0  0
   -5.7450  109.3134  273.5300 C   0  0  0  0  0  0  0  0  0  0  0  0
   -5.2423  109.9307  272.5890 O   0  0  0  0  0  0  0  0  0  0  0  0
   -5.4841  107.9405  273.6647 C   0  0  0  0  0  0  0  0  0  0  0  0
   -4.9316  107.4686  274.8591 C   0  0  0  0  0  0  0  0  0  0  0  0
   -4.6745  106.1055  275.0364 C   0  0  0  0  0  0  0  0  0  0  0  0
   -5.7960  107.0136  272.6615 C   0  0  0  0  0  0  0  0  0  0  0  0
   -5.5349  105.6532  272.8360 C   0  0  0  0  0  0  0  0  0  0  0  0
   -4.9642  105.1896  274.0245 C   0  0  0  0  0  0  0  0  0  0  0  0
   -4.7241  103.8850  274.2273 N   0  0  0  0  0  0  0  0  0  0  0  0
   -3.5672  103.3172  273.8102 C   0  0  0  0  0  0  0  0  0  0  0  0
   -2.6500  103.9032  273.2294 O   0  0  0  0  0  0  0  0  0  0  0  0
   -5.3982  103.3329  274.6856 H   0  0  0  0  0  0  0  0  0  0  0  0
   -3.4594  101.8152  274.1152 C   0  0  0  0  0  0  0  0  0  0  0  0
   -2.1259  101.0793  273.9478 C   0  0  0  0  0  0  0  0  0  0  0  0
 38 39  1  0  0  0
 38 35  1  0  0  0
 34 35  1  0  0  0
 34 33  1  0  0  0
 35 36  2  0  0  0
 33 32  2  0  0  0
 33 30  1  0  0  0
 32 31  1  0  0  0
 30 29  2  0  0  0
 31 28  2  0  0  0
 29 28  1  0  0  0
 28 26  1  0  0  0
 27 26  2  0  0  0
 26  6  1  0  0  0
  6  2  1  0  0  0
  6  4  2  0  0  0
  5  4  1  0  0  0
  2  1  1  0  0  0
  4  3  1  0  0  0
  3  1  2  0  0  0
  1  9  1  0  0  0
 18 17  1  0  0  0
 18 19  1  0  0  0
 17 23  1  0  0  0
 24 13  1  0  0  0
 24 25  1  0  0  0
 13 12  2  0  0  0
 13 16  1  0  0  0
 12 11  1  0  0  0
  9 16  1  0  0  0
 16 15  2  0  0  0
 11 23  1  0  0  0
 11 14  2  0  0  0
 23 22  1  0  0  0
 20 19  1  0  0  0
 19 21  1  0  0  0
 15 14  1  0  0  0
 21 22  1  0  0  0
  9 10  1  0  0  0
  5  7  1  0  0  0
  5  8  1  0  0  0
 34 37  1  0  0  0
M  END
> <minimizedAffinity>
-8.42839

$$$$
6EIR_B6H_A_501


 39 42  0  0  0  0  0  0  0  0999 V2000
   -8.9449  108.9321  277.6192 C   0  0  0  0  0  0  0  0  0  0  0  0
   -9.8378  108.3690  278.8844 S   0  0  0  0  0  0  0  0  0  0  0  0
   -9.7863  109.2988  276.6486 N   0  0  0  0  0  0  0  0  0  0  0  0
  -11.0903  109.1218  276.9485 C   0  0  0  0  0  0  0  0  0  0  0  0
  -12.0090  109.4589  276.0442 N   0  0  0  0  0  0  0  0  0  0  0  0
  -11.3108  108.6047  278.1729 C   0  0  0  0  0  0  0  0  0  0  0  0
  -12.9651  109.3371  276.2448 H   0  0  0  0  0  0  0  0  0  0  0  0
  -11.7316  109.8298  275.1755 H   0  0  0  0  0  0  0  0  0  0  0  0
   -7.6082  109.0278  277.5254 N   0  0  0  0  0  0  0  0  0  0  0  0
   -7.1299  109.7375  278.0120 H   0  0  0  0  0  0  0  0  0  0  0  0
   -5.3855  106.4126  275.1965 C   0  0  0  0  0  0  0  0  0  0  0  0
   -4.9107  107.6955  275.4925 C   0  0  0  0  0  0  0  0  0  0  0  0
   -5.6753  108.5592  276.2838 C   0  0  0  0  0  0  0  0  0  0  0  0
   -6.6308  106.0075  275.6884 C   0  0  0  0  0  0  0  0  0  0  0  0
   -7.3944  106.8692  276.4743 C   0  0  0  0  0  0  0  0  0  0  0  0
   -6.9240  108.1542  276.7669 C   0  0  0  0  0  0  0  0  0  0  0  0
   -4.7535  104.0976  274.7243 C   0  0  0  0  0  0  0  0  0  0  0  0
   -4.2573  103.2293  273.5884 C   0  0  0  0  0  0  0  0  0  0  0  0
   -3.1457  103.8944  272.8582 N   0  0  0  0  0  0  0  0  0  0  0  0
   -2.5597  103.0225  271.8051 C   0  0  0  0  0  0  0  0  0  0  0  0
   -3.5814  105.1553  272.2434 C   0  0  0  0  0  0  0  0  0  0  0  0
   -3.7573  106.1236  273.3962 C   0  0  0  0  0  0  0  0  0  0  0  0
   -4.6627  105.5670  274.4367 N   0  0  0  0  0  0  0  0  0  0  0  0
   -5.2548  109.8181  276.6066 O   0  0  0  0  0  0  0  0  0  0  0  0
   -4.7714  110.5486  275.4671 C   0  0  0  0  0  0  0  0  0  0  0  0
  -12.5272  108.3389  278.6960 C   0  0  0  0  0  0  0  0  0  0  0  0
  -13.3778  109.2254  278.7957 O   0  0  0  0  0  0  0  0  0  0  0  0
  -12.8326  107.0441  279.1448 C   0  0  0  0  0  0  0  0  0  0  0  0
  -12.9619  106.0142  278.2084 C   0  0  0  0  0  0  0  0  0  0  0  0
  -13.2479  104.7084  278.6194 C   0  0  0  0  0  0  0  0  0  0  0  0
  -12.9719  106.7324  280.5035 C   0  0  0  0  0  0  0  0  0  0  0  0
  -13.2623  105.4299  280.9142 C   0  0  0  0  0  0  0  0  0  0  0  0
  -13.4101  104.4081  279.9722 C   0  0  0  0  0  0  0  0  0  0  0  0
  -13.6665  103.1435  280.3409 N   0  0  0  0  0  0  0  0  0  0  0  0
  -14.9382  102.6818  280.4060 C   0  0  0  0  0  0  0  0  0  0  0  0
  -15.9519  103.3351  280.1458 O   0  0  0  0  0  0  0  0  0  0  0  0
  -12.9199  102.5430  280.5671 H   0  0  0  0  0  0  0  0  0  0  0  0
  -15.0519  101.2162  280.8528 C   0  0  0  0  0  0  0  0  0  0  0  0
  -14.9586  100.0795  279.8295 C   0  0  0  0  0  0  0  0  0  0  0  0
 38 39  1  0  0  0
 38 35  1  0  0  0
 34 35  1  0  0  0
 34 33  1  0  0  0
 35 36  2  0  0  0
 33 32  2  0  0  0
 33 30  1  0  0  0
 32 31  1  0  0  0
 30 29  2  0  0  0
 31 28  2  0  0  0
 29 28  1  0  0  0
 28 26  1  0  0  0
 27 26  2  0  0  0
 26  6  1  0  0  0
  6  2  1  0  0  0
  6  4  2  0  0  0
  5  4  1  0  0  0
  2  1  1  0  0  0
  4  3  1  0  0  0
  3  1  2  0  0  0
  1  9  1  0  0  0
 18 17  1  0  0  0
 18 19  1  0  0  0
 17 23  1  0  0  0
 24 13  1  0  0  0
 24 25  1  0  0  0
 13 12  2  0  0  0
 13 16  1  0  0  0
 12 11  1  0  0  0
  9 16  1  0  0  0
 16 15  2  0  0  0
 11 23  1  0  0  0
 11 14  2  0  0  0
 23 22  1  0  0  0
 20 19  1  0  0  0
 19 21  1  0  0  0
 15 14  1  0  0  0
 21 22  1  0  0  0
  9 10  1  0  0  0
  5  7  1  0  0  0
  5  8  1  0  0  0
 34 37  1  0  0  0
M  END
> <minimizedAffinity>
-8.27917

$$$$
6EIR_B6H_A_501


 39 42  0  0  0  0  0  0  0  0999 V2000
   -9.1874  109.6868  277.1987 C   0  0  0  0  0  0  0  0  0  0  0  0
   -7.8150  108.8813  276.7712 S   0  0  0  0  0  0  0  0  0  0  0  0
   -9.6022  110.3894  276.1411 N   0  0  0  0  0  0  0  0  0  0  0  0
   -8.8228  110.2578  275.0470 C   0  0  0  0  0  0  0  0  0  0  0  0
   -9.1538  110.9194  273.9390 N   0  0  0  0  0  0  0  0  0  0  0  0
   -7.7639  109.4424  275.2175 C   0  0  0  0  0  0  0  0  0  0  0  0
   -8.5976  110.8359  273.1310 H   0  0  0  0  0  0  0  0  0  0  0  0
   -9.9548  111.4919  273.9282 H   0  0  0  0  0  0  0  0  0  0  0  0
   -9.8200  109.6760  278.3838 N   0  0  0  0  0  0  0  0  0  0  0  0
   -9.7525  110.4525  278.9852 H   0  0  0  0  0  0  0  0  0  0  0  0
  -12.1270  106.4496  279.5967 C   0  0  0  0  0  0  0  0  0  0  0  0
  -12.1233  107.6462  280.3226 C   0  0  0  0  0  0  0  0  0  0  0  0
  -11.3410  108.7230  279.8923 C   0  0  0  0  0  0  0  0  0  0  0  0
  -11.3368  106.3372  278.4479 C   0  0  0  0  0  0  0  0  0  0  0  0
  -10.5545  107.4091  278.0208 C   0  0  0  0  0  0  0  0  0  0  0  0
  -10.5452  108.6045  278.7481 C   0  0  0  0  0  0  0  0  0  0  0  0
  -13.0342  105.1614  281.4673 C   0  0  0  0  0  0  0  0  0  0  0  0
  -14.1952  104.2517  281.8069 C   0  0  0  0  0  0  0  0  0  0  0  0
  -14.4007  103.2336  280.7428 N   0  0  0  0  0  0  0  0  0  0  0  0
  -15.4626  102.2536  281.0958 C   0  0  0  0  0  0  0  0  0  0  0  0
  -14.7379  103.8572  279.4563 C   0  0  0  0  0  0  0  0  0  0  0  0
  -13.4507  104.4926  278.9693 C   0  0  0  0  0  0  0  0  0  0  0  0
  -12.8746  105.4022  279.9954 N   0  0  0  0  0  0  0  0  0  0  0  0
  -11.3068  109.9137  280.5609 O   0  0  0  0  0  0  0  0  0  0  0  0
  -12.6184  110.4501  280.8019 C   0  0  0  0  0  0  0  0  0  0  0  0
   -6.8448  109.1549  274.2706 C   0  0  0  0  0  0  0  0  0  0  0  0
   -6.5114  110.0009  273.4384 O   0  0  0  0  0  0  0  0  0  0  0  0
   -6.2648  107.8775  274.2176 C   0  0  0  0  0  0  0  0  0  0  0  0
   -5.1203  107.6197  274.9778 C   0  0  0  0  0  0  0  0  0  0  0  0
   -4.5251  106.3544  274.9642 C   0  0  0  0  0  0  0  0  0  0  0  0
   -6.8139  106.8328  273.4627 C   0  0  0  0  0  0  0  0  0  0  0  0
   -6.2173  105.5706  273.4448 C   0  0  0  0  0  0  0  0  0  0  0  0
   -5.0618  105.3243  274.1913 C   0  0  0  0  0  0  0  0  0  0  0  0
   -4.4813  104.1145  274.2101 N   0  0  0  0  0  0  0  0  0  0  0  0
   -3.4891  103.8051  273.3416 C   0  0  0  0  0  0  0  0  0  0  0  0
   -3.0284  104.5601  272.4814 O   0  0  0  0  0  0  0  0  0  0  0  0
   -4.7809  103.4425  274.8643 H   0  0  0  0  0  0  0  0  0  0  0  0
   -2.9430  102.3772  273.4950 C   0  0  0  0  0  0  0  0  0  0  0  0
   -3.5838  101.3994  274.4855 C   0  0  0  0  0  0  0  0  0  0  0  0
 38 39  1  0  0  0
 38 35  1  0  0  0
 34 35  1  0  0  0
 34 33  1  0  0  0
 35 36  2  0  0  0
 33 32  2  0  0  0
 33 30  1  0  0  0
 32 31  1  0  0  0
 30 29  2  0  0  0
 31 28  2  0  0  0
 29 28  1  0  0  0
 28 26  1  0  0  0
 27 26  2  0  0  0
 26  6  1  0  0  0
  6  2  1  0  0  0
  6  4  2  0  0  0
  5  4  1  0  0  0
  2  1  1  0  0  0
  4  3  1  0  0  0
  3  1  2  0  0  0
  1  9  1  0  0  0
 18 17  1  0  0  0
 18 19  1  0  0  0
 17 23  1  0  0  0
 24 13  1  0  0  0
 24 25  1  0  0  0
 13 12  2  0  0  0
 13 16  1  0  0  0
 12 11  1  0  0  0
  9 16  1  0  0  0
 16 15  2  0  0  0
 11 23  1  0  0  0
 11 14  2  0  0  0
 23 22  1  0  0  0
 20 19  1  0  0  0
 19 21  1  0  0  0
 15 14  1  0  0  0
 21 22  1  0  0  0
  9 10  1  0  0  0
  5  7  1  0  0  0
  5  8  1  0  0  0
 34 37  1  0  0  0
M  END
> <minimizedAffinity>
-7.95963

$$$$
6EIR_B6H_A_501


 39 42  0  0  0  0  0  0  0  0999 V2000
   -7.9124  109.7093  274.2180 C   0  0  0  0  0  0  0  0  0  0  0  0
   -8.0046  109.1011  275.7466 S   0  0  0  0  0  0  0  0  0  0  0  0
   -8.6881  110.7951  274.1564 N   0  0  0  0  0  0  0  0  0  0  0  0
   -9.3138  111.0965  275.3137 C   0  0  0  0  0  0  0  0  0  0  0  0
  -10.1105  112.1637  275.3543 N   0  0  0  0  0  0  0  0  0  0  0  0
   -9.0459  110.2470  276.3245 C   0  0  0  0  0  0  0  0  0  0  0  0
  -10.5754  112.3994  276.1894 H   0  0  0  0  0  0  0  0  0  0  0  0
  -10.2342  112.7165  274.5491 H   0  0  0  0  0  0  0  0  0  0  0  0
   -7.2011  109.2388  273.1800 N   0  0  0  0  0  0  0  0  0  0  0  0
   -7.1827  109.7355  272.3301 H   0  0  0  0  0  0  0  0  0  0  0  0
   -4.9742  105.7651  273.6010 C   0  0  0  0  0  0  0  0  0  0  0  0
   -4.3627  107.0232  273.6471 C   0  0  0  0  0  0  0  0  0  0  0  0
   -5.1342  108.1816  273.5074 C   0  0  0  0  0  0  0  0  0  0  0  0
   -6.3563  105.6767  273.4043 C   0  0  0  0  0  0  0  0  0  0  0  0
   -7.1249  106.8310  273.2617 C   0  0  0  0  0  0  0  0  0  0  0  0
   -6.5148  108.0896  273.3021 C   0  0  0  0  0  0  0  0  0  0  0  0
   -4.6304  103.6683  274.8122 C   0  0  0  0  0  0  0  0  0  0  0  0
   -4.0439  102.2870  274.6159 C   0  0  0  0  0  0  0  0  0  0  0  0
   -2.7093  102.3646  273.9648 N   0  0  0  0  0  0  0  0  0  0  0  0
   -2.0548  101.0331  273.8570 C   0  0  0  0  0  0  0  0  0  0  0  0
   -2.7955  102.9618  272.6256 C   0  0  0  0  0  0  0  0  0  0  0  0
   -3.0613  104.4355  272.8602 C   0  0  0  0  0  0  0  0  0  0  0  0
   -4.2474  104.6387  273.7344 N   0  0  0  0  0  0  0  0  0  0  0  0
   -4.5874  109.4326  273.5512 O   0  0  0  0  0  0  0  0  0  0  0  0
   -4.0248  109.7452  274.8364 C   0  0  0  0  0  0  0  0  0  0  0  0
   -9.5519  110.3417  277.5731 C   0  0  0  0  0  0  0  0  0  0  0  0
   -9.1913  111.2430  278.3326 O   0  0  0  0  0  0  0  0  0  0  0  0
  -10.4913  109.4012  278.0249 C   0  0  0  0  0  0  0  0  0  0  0  0
  -11.4435  108.9083  277.1279 C   0  0  0  0  0  0  0  0  0  0  0  0
  -12.3838  107.9575  277.5371 C   0  0  0  0  0  0  0  0  0  0  0  0
  -10.4864  108.9025  279.3342 C   0  0  0  0  0  0  0  0  0  0  0  0
  -11.4280  107.9569  279.7447 C   0  0  0  0  0  0  0  0  0  0  0  0
  -12.3901  107.4823  278.8490 C   0  0  0  0  0  0  0  0  0  0  0  0
  -13.2920  106.5568  279.2108 N   0  0  0  0  0  0  0  0  0  0  0  0
  -13.1046  105.2488  278.9135 C   0  0  0  0  0  0  0  0  0  0  0  0
  -12.1343  104.7829  278.3105 O   0  0  0  0  0  0  0  0  0  0  0  0
  -14.1012  106.8325  279.6991 H   0  0  0  0  0  0  0  0  0  0  0  0
  -14.2364  104.3274  279.3935 C   0  0  0  0  0  0  0  0  0  0  0  0
  -13.9427  103.1602  280.3417 C   0  0  0  0  0  0  0  0  0  0  0  0
 38 39  1  0  0  0
 38 35  1  0  0  0
 34 35  1  0  0  0
 34 33  1  0  0  0
 35 36  2  0  0  0
 33 32  2  0  0  0
 33 30  1  0  0  0
 32 31  1  0  0  0
 30 29  2  0  0  0
 31 28  2  0  0  0
 29 28  1  0  0  0
 28 26  1  0  0  0
 27 26  2  0  0  0
 26  6  1  0  0  0
  6  2  1  0  0  0
  6  4  2  0  0  0
  5  4  1  0  0  0
  2  1  1  0  0  0
  4  3  1  0  0  0
  3  1  2  0  0  0
  1  9  1  0  0  0
 18 17  1  0  0  0
 18 19  1  0  0  0
 17 23  1  0  0  0
 24 13  1  0  0  0
 24 25  1  0  0  0
 13 12  2  0  0  0
 13 16  1  0  0  0
 12 11  1  0  0  0
  9 16  1  0  0  0
 16 15  2  0  0  0
 11 23  1  0  0  0
 11 14  2  0  0  0
 23 22  1  0  0  0
 20 19  1  0  0  0
 19 21  1  0  0  0
 15 14  1  0  0  0
 21 22  1  0  0  0
  9 10  1  0  0  0
  5  7  1  0  0  0
  5  8  1  0  0  0
 34 37  1  0  0  0
M  END
> <minimizedAffinity>
-7.91868

$$$$
6EIR_B6H_A_501


 39 42  0  0  0  0  0  0  0  0999 V2000
   -5.7830  108.1577  275.4912 C   0  0  0  0  0  0  0  0  0  0  0  0
   -5.3957  106.9656  274.4216 S   0  0  0  0  0  0  0  0  0  0  0  0
   -6.7505  107.6995  276.2902 N   0  0  0  0  0  0  0  0  0  0  0  0
   -7.1372  106.4341  276.0240 C   0  0  0  0  0  0  0  0  0  0  0  0
   -8.0973  105.8858  276.7676 N   0  0  0  0  0  0  0  0  0  0  0  0
   -6.4796  105.8592  274.9982 C   0  0  0  0  0  0  0  0  0  0  0  0
   -8.3927  104.9639  276.5885 H   0  0  0  0  0  0  0  0  0  0  0  0
   -8.5114  106.4026  277.4961 H   0  0  0  0  0  0  0  0  0  0  0  0
   -5.2538  109.3887  275.5881 N   0  0  0  0  0  0  0  0  0  0  0  0
   -5.3715  109.9117  276.4139 H   0  0  0  0  0  0  0  0  0  0  0  0
   -3.2376  111.0519  272.3677 C   0  0  0  0  0  0  0  0  0  0  0  0
   -4.6329  111.1163  272.4555 C   0  0  0  0  0  0  0  0  0  0  0  0
   -5.2916  110.5525  273.5532 C   0  0  0  0  0  0  0  0  0  0  0  0
   -2.5116  110.4123  273.3780 C   0  0  0  0  0  0  0  0  0  0  0  0
   -3.1681  109.8474  274.4703 C   0  0  0  0  0  0  0  0  0  0  0  0
   -4.5635  109.9059  274.5573 C   0  0  0  0  0  0  0  0  0  0  0  0
   -1.3183  112.3476  271.5807 C   0  0  0  0  0  0  0  0  0  0  0  0
   -0.4656  112.5417  270.3454 C   0  0  0  0  0  0  0  0  0  0  0  0
   -1.3133  112.6800  269.1316 N   0  0  0  0  0  0  0  0  0  0  0  0
   -0.5130  112.9830  267.9149 C   0  0  0  0  0  0  0  0  0  0  0  0
   -2.1093  111.4698  268.8879 C   0  0  0  0  0  0  0  0  0  0  0  0
   -3.1806  111.4720  269.9602 C   0  0  0  0  0  0  0  0  0  0  0  0
   -2.5860  111.5900  271.3185 N   0  0  0  0  0  0  0  0  0  0  0  0
   -6.6501  110.5938  273.6895 O   0  0  0  0  0  0  0  0  0  0  0  0
   -7.1591  111.9366  273.7494 C   0  0  0  0  0  0  0  0  0  0  0  0
   -6.6902  104.6039  274.5468 C   0  0  0  0  0  0  0  0  0  0  0  0
   -7.8173  104.2362  274.2095 O   0  0  0  0  0  0  0  0  0  0  0  0
   -5.6222  103.6960  274.4676 C   0  0  0  0  0  0  0  0  0  0  0  0
   -4.9068  103.5924  273.2711 C   0  0  0  0  0  0  0  0  0  0  0  0
   -3.8258  102.7122  273.1604 C   0  0  0  0  0  0  0  0  0  0  0  0
   -5.2155  102.9162  275.5582 C   0  0  0  0  0  0  0  0  0  0  0  0
   -4.1395  102.0335  275.4468 C   0  0  0  0  0  0  0  0  0  0  0  0
   -3.4403  101.9197  274.2421 C   0  0  0  0  0  0  0  0  0  0  0  0
   -2.3884  101.0963  274.1146 N   0  0  0  0  0  0  0  0  0  0  0  0
   -1.4440  101.3150  273.1686 C   0  0  0  0  0  0  0  0  0  0  0  0
   -1.4416  102.2474  272.3605 O   0  0  0  0  0  0  0  0  0  0  0  0
   -2.3018  100.3225  274.7171 H   0  0  0  0  0  0  0  0  0  0  0  0
   -0.3149  100.2732  273.1559 C   0  0  0  0  0  0  0  0  0  0  0  0
    0.2559   99.7258  274.4683 C   0  0  0  0  0  0  0  0  0  0  0  0
 38 39  1  0  0  0
 38 35  1  0  0  0
 34 35  1  0  0  0
 34 33  1  0  0  0
 35 36  2  0  0  0
 33 32  2  0  0  0
 33 30  1  0  0  0
 32 31  1  0  0  0
 30 29  2  0  0  0
 31 28  2  0  0  0
 29 28  1  0  0  0
 28 26  1  0  0  0
 27 26  2  0  0  0
 26  6  1  0  0  0
  6  2  1  0  0  0
  6  4  2  0  0  0
  5  4  1  0  0  0
  2  1  1  0  0  0
  4  3  1  0  0  0
  3  1  2  0  0  0
  1  9  1  0  0  0
 18 17  1  0  0  0
 18 19  1  0  0  0
 17 23  1  0  0  0
 24 13  1  0  0  0
 24 25  1  0  0  0
 13 12  2  0  0  0
 13 16  1  0  0  0
 12 11  1  0  0  0
  9 16  1  0  0  0
 16 15  2  0  0  0
 11 23  1  0  0  0
 11 14  2  0  0  0
 23 22  1  0  0  0
 20 19  1  0  0  0
 19 21  1  0  0  0
 15 14  1  0  0  0
 21 22  1  0  0  0
  9 10  1  0  0  0
  5  7  1  0  0  0
  5  8  1  0  0  0
 34 37  1  0  0  0
M  END
> <minimizedAffinity>
-7.89878

$$$$
6EIR_B6H_A_501


 39 42  0  0  0  0  0  0  0  0999 V2000
   -8.8909  111.0418  276.4205 C   0  0  0  0  0  0  0  0  0  0  0  0
   -9.6967  109.6683  275.9975 S   0  0  0  0  0  0  0  0  0  0  0  0
   -8.8541  111.1069  277.7542 N   0  0  0  0  0  0  0  0  0  0  0  0
   -9.4584  110.0732  278.3771 C   0  0  0  0  0  0  0  0  0  0  0  0
   -9.4744  110.0464  279.7091 N   0  0  0  0  0  0  0  0  0  0  0  0
   -9.9928  109.1607  277.5422 C   0  0  0  0  0  0  0  0  0  0  0  0
   -9.9103  109.3005  280.1812 H   0  0  0  0  0  0  0  0  0  0  0  0
   -9.0502  110.7724  280.2212 H   0  0  0  0  0  0  0  0  0  0  0  0
   -8.3474  111.9666  275.6116 N   0  0  0  0  0  0  0  0  0  0  0  0
   -8.7680  112.8524  275.5238 H   0  0  0  0  0  0  0  0  0  0  0  0
   -4.8224  111.1463  273.5857 C   0  0  0  0  0  0  0  0  0  0  0  0
   -4.8387  112.0203  274.6787 C   0  0  0  0  0  0  0  0  0  0  0  0
   -6.0384  112.2788  275.3499 C   0  0  0  0  0  0  0  0  0  0  0  0
   -6.0133  110.5443  273.1660 C   0  0  0  0  0  0  0  0  0  0  0  0
   -7.2096  110.8043  273.8328 C   0  0  0  0  0  0  0  0  0  0  0  0
   -7.2291  111.6820  274.9224 C   0  0  0  0  0  0  0  0  0  0  0  0
   -3.7621  110.4513  271.4941 C   0  0  0  0  0  0  0  0  0  0  0  0
   -2.4550  110.5885  270.7437 C   0  0  0  0  0  0  0  0  0  0  0  0
   -1.2974  110.3488  271.6456 N   0  0  0  0  0  0  0  0  0  0  0  0
   -0.0004  110.3661  270.9173 C   0  0  0  0  0  0  0  0  0  0  0  0
   -1.2458  111.3358  272.7322 C   0  0  0  0  0  0  0  0  0  0  0  0
   -2.3855  110.9687  273.6616 C   0  0  0  0  0  0  0  0  0  0  0  0
   -3.6764  110.8849  272.9275 N   0  0  0  0  0  0  0  0  0  0  0  0
   -6.1071  113.1182  276.4254 O   0  0  0  0  0  0  0  0  0  0  0  0
   -5.8822  114.4924  276.0691 C   0  0  0  0  0  0  0  0  0  0  0  0
  -10.6458  108.0434  277.9284 C   0  0  0  0  0  0  0  0  0  0  0  0
  -11.7461  108.1150  278.4793 O   0  0  0  0  0  0  0  0  0  0  0  0
  -10.0685  106.7815  277.7148 C   0  0  0  0  0  0  0  0  0  0  0  0
   -8.6754  106.6653  277.7053 C   0  0  0  0  0  0  0  0  0  0  0  0
   -8.0647  105.4220  277.5134 C   0  0  0  0  0  0  0  0  0  0  0  0
  -10.8363  105.6210  277.5523 C   0  0  0  0  0  0  0  0  0  0  0  0
  -10.2272  104.3801  277.3557 C   0  0  0  0  0  0  0  0  0  0  0  0
   -8.8340  104.2730  277.3273 C   0  0  0  0  0  0  0  0  0  0  0  0
   -8.2229  103.0896  277.1630 N   0  0  0  0  0  0  0  0  0  0  0  0
   -7.4709  102.8414  276.0642 C   0  0  0  0  0  0  0  0  0  0  0  0
   -7.2704  103.6329  275.1392 O   0  0  0  0  0  0  0  0  0  0  0  0
   -8.3225  102.3922  277.8507 H   0  0  0  0  0  0  0  0  0  0  0  0
   -6.8509  101.4360  276.0320 C   0  0  0  0  0  0  0  0  0  0  0  0
   -5.4047  101.2320  275.5686 C   0  0  0  0  0  0  0  0  0  0  0  0
 38 39  1  0  0  0
 38 35  1  0  0  0
 34 35  1  0  0  0
 34 33  1  0  0  0
 35 36  2  0  0  0
 33 32  2  0  0  0
 33 30  1  0  0  0
 32 31  1  0  0  0
 30 29  2  0  0  0
 31 28  2  0  0  0
 29 28  1  0  0  0
 28 26  1  0  0  0
 27 26  2  0  0  0
 26  6  1  0  0  0
  6  2  1  0  0  0
  6  4  2  0  0  0
  5  4  1  0  0  0
  2  1  1  0  0  0
  4  3  1  0  0  0
  3  1  2  0  0  0
  1  9  1  0  0  0
 18 17  1  0  0  0
 18 19  1  0  0  0
 17 23  1  0  0  0
 24 13  1  0  0  0
 24 25  1  0  0  0
 13 12  2  0  0  0
 13 16  1  0  0  0
 12 11  1  0  0  0
  9 16  1  0  0  0
 16 15  2  0  0  0
 11 23  1  0  0  0
 11 14  2  0  0  0
 23 22  1  0  0  0
 20 19  1  0  0  0
 19 21  1  0  0  0
 15 14  1  0  0  0
 21 22  1  0  0  0
  9 10  1  0  0  0
  5  7  1  0  0  0
  5  8  1  0  0  0
 34 37  1  0  0  0
M  END
> <minimizedAffinity>
-7.89470

$$$$
