4Q1W_017_A_104


 42 45  0  0  0  0  0  0  0  0999 V2000
   19.8751   29.3354   15.3853 C   0  0  0  0  0  0  0  0  0  0  0  0
   19.9534   28.2315   16.3109 O   0  0  0  0  0  0  0  0  0  0  0  0
   19.0937   27.7844   16.3545 H   0  0  0  0  0  0  0  0  0  0  0  0
   18.9038   30.4106   15.8585 C   0  0  0  0  0  0  0  0  0  0  0  0
   19.2184   31.7253   15.2603 N   0  0  0  0  0  0  0  0  0  0  0  0
   17.9720   32.3569   14.4315 S   0  0  0  0  0  0  0  0  0  0  0  0
   17.3702   31.2856   13.6897 O   0  0  0  0  0  0  0  0  0  0  0  0
   18.5469   33.3761   13.6020 O   0  0  0  0  0  0  0  0  0  0  0  0
   13.8763   34.7096   17.8176 N   0  0  0  0  0  0  0  0  0  0  0  0
   14.8370   34.1656   17.0306 C   0  0  0  0  0  0  0  0  0  0  0  0
   15.8307   34.9596   16.4763 C   0  0  0  0  0  0  0  0  0  0  0  0
   16.7922   34.3677   15.6496 C   0  0  0  0  0  0  0  0  0  0  0  0
   16.8273   32.9907   15.4013 C   0  0  0  0  0  0  0  0  0  0  0  0
   15.8257   32.2157   15.9731 C   0  0  0  0  0  0  0  0  0  0  0  0
   14.8564   32.7910   16.7989 C   0  0  0  0  0  0  0  0  0  0  0  0
   13.8644   35.6806   17.9799 H   0  0  0  0  0  0  0  0  0  0  0  0
   13.1906   34.1337   18.2267 H   0  0  0  0  0  0  0  0  0  0  0  0
   19.8086   32.6935   16.2108 C   0  0  0  0  0  0  0  0  0  0  0  0
   21.3369   32.6190   16.2260 C   0  0  0  0  0  0  0  0  0  0  0  0
   21.9248   32.6904   14.8179 C   0  0  0  0  0  0  0  0  0  0  0  0
   21.9651   33.7243   17.0660 C   0  0  0  0  0  0  0  0  0  0  0  0
   19.5526   28.7945   13.9897 C   0  0  0  0  0  0  0  0  0  0  0  0
   20.6961   28.0313   13.5629 N   0  0  0  0  0  0  0  0  0  0  0  0
   21.8060   28.5032   12.9805 C   0  0  0  0  0  0  0  0  0  0  0  0
   22.0856   29.6536   12.7043 O   0  0  0  0  0  0  0  0  0  0  0  0
   20.6583   27.0594   13.7152 H   0  0  0  0  0  0  0  0  0  0  0  0
   22.7694   27.4670   12.7216 O   0  0  0  0  0  0  0  0  0  0  0  0
   23.6035   27.5789   11.5718 C   0  0  0  0  0  0  0  0  0  0  0  0
   24.9359   27.0134   12.0186 C   0  0  0  0  0  0  0  0  0  0  0  0
   24.7425   25.5986   11.9403 O   0  0  0  0  0  0  0  0  0  0  0  0
   23.8415   25.3212   10.8669 C   0  0  0  0  0  0  0  0  0  0  0  0
   22.8234   24.4002   11.2391 O   0  0  0  0  0  0  0  0  0  0  0  0
   21.5375   25.0281   11.2706 C   0  0  0  0  0  0  0  0  0  0  0  0
   21.6742   26.2766   10.4149 C   0  0  0  0  0  0  0  0  0  0  0  0
   23.1582   26.6232   10.4875 C   0  0  0  0  0  0  0  0  0  0  0  0
   18.3190   27.9030   13.9007 C   0  0  0  0  0  0  0  0  0  0  0  0
   17.8770   28.4542   11.4602 C   0  0  0  0  0  0  0  0  0  0  0  0
   17.6717   28.0656   10.1295 C   0  0  0  0  0  0  0  0  0  0  0  0
   17.6904   26.7249    9.7888 C   0  0  0  0  0  0  0  0  0  0  0  0
   17.9103   25.7764   10.7584 C   0  0  0  0  0  0  0  0  0  0  0  0
   18.0945   26.1627   12.0806 C   0  0  0  0  0  0  0  0  0  0  0  0
   18.0873   27.5054   12.4466 C   0  0  0  0  0  0  0  0  0  0  0  0
  9 10  1  0  0  0
 10 11  2  0  0  0
 10 15  1  0  0  0
 11 12  1  0  0  0
 12 13  2  0  0  0
 13 14  1  0  0  0
 13  6  1  0  0  0
 14 15  2  0  0  0
  6  7  2  0  0  0
  6  8  2  0  0  0
  6  5  1  0  0  0
  5 18  1  0  0  0
  5  4  1  0  0  0
 18 19  1  0  0  0
 19 20  1  0  0  0
 19 21  1  0  0  0
  4  1  1  0  0  0
  1  2  1  0  0  0
  1 22  1  0  0  0
 22 23  1  0  0  0
 22 36  1  0  0  0
 23 24  1  0  0  0
 24 25  2  0  0  0
 24 27  1  0  0  0
 27 28  1  0  0  0
 28 29  1  0  0  0
 28 35  1  0  0  0
 29 30  1  0  0  0
 30 31  1  0  0  0
 31 32  1  0  0  0
 31 35  1  0  0  0
 32 33  1  0  0  0
 33 34  1  0  0  0
 34 35  1  0  0  0
 36 42  1  0  0  0
 37 38  2  0  0  0
 37 42  1  0  0  0
 38 39  1  0  0  0
 39 40  2  0  0  0
 40 41  1  0  0  0
 41 42  2  0  0  0
  9 16  1  0  0  0
  9 17  1  0  0  0
  2  3  1  0  0  0
 23 26  1  0  0  0
M  END
> <minimizedAffinity>
-10.15855

$$$$
4Q1W_017_A_104


 42 45  0  0  0  0  0  0  0  0999 V2000
   19.5586   30.4784   15.9851 C   0  0  0  0  0  0  0  0  0  0  0  0
   19.6818   29.5634   17.0938 O   0  0  0  0  0  0  0  0  0  0  0  0
   19.1640   29.8936   17.8446 H   0  0  0  0  0  0  0  0  0  0  0  0
   20.1611   31.8427   16.3000 C   0  0  0  0  0  0  0  0  0  0  0  0
   21.5607   31.9369   15.8337 N   0  0  0  0  0  0  0  0  0  0  0  0
   21.6800   32.0988   14.2216 S   0  0  0  0  0  0  0  0  0  0  0  0
   22.9361   32.7388   13.9519 O   0  0  0  0  0  0  0  0  0  0  0  0
   20.5428   32.8828   13.8348 O   0  0  0  0  0  0  0  0  0  0  0  0
   21.6305   26.9421   11.5418 N   0  0  0  0  0  0  0  0  0  0  0  0
   21.6488   28.1434   12.1702 C   0  0  0  0  0  0  0  0  0  0  0  0
   22.1487   28.2596   13.4593 C   0  0  0  0  0  0  0  0  0  0  0  0
   22.1299   29.5108   14.0858 C   0  0  0  0  0  0  0  0  0  0  0  0
   21.6767   30.6684   13.4428 C   0  0  0  0  0  0  0  0  0  0  0  0
   21.1875   30.5276   12.1500 C   0  0  0  0  0  0  0  0  0  0  0  0
   21.1964   29.2853   11.5106 C   0  0  0  0  0  0  0  0  0  0  0  0
   21.9505   26.1370   12.0094 H   0  0  0  0  0  0  0  0  0  0  0  0
   21.2973   26.8750   10.6178 H   0  0  0  0  0  0  0  0  0  0  0  0
   22.3711   32.9395   16.5600 C   0  0  0  0  0  0  0  0  0  0  0  0
   21.4974   33.9995   17.2341 C   0  0  0  0  0  0  0  0  0  0  0  0
   22.0091   34.3570   18.6284 C   0  0  0  0  0  0  0  0  0  0  0  0
   21.4001   35.2805   16.4145 C   0  0  0  0  0  0  0  0  0  0  0  0
   18.0910   30.5452   15.5538 C   0  0  0  0  0  0  0  0  0  0  0  0
   17.4809   31.6065   16.3110 N   0  0  0  0  0  0  0  0  0  0  0  0
   16.2163   32.0374   16.2168 C   0  0  0  0  0  0  0  0  0  0  0  0
   15.3279   31.6259   15.4962 O   0  0  0  0  0  0  0  0  0  0  0  0
   18.0539   32.0642   16.9678 H   0  0  0  0  0  0  0  0  0  0  0  0
   15.9274   33.0908   17.1527 O   0  0  0  0  0  0  0  0  0  0  0  0
   15.3898   34.3154   16.6612 C   0  0  0  0  0  0  0  0  0  0  0  0
   14.1881   34.5789   17.5451 C   0  0  0  0  0  0  0  0  0  0  0  0
   14.7617   35.1217   18.7373 O   0  0  0  0  0  0  0  0  0  0  0  0
   15.9313   35.8619   18.3833 C   0  0  0  0  0  0  0  0  0  0  0  0
   17.0389   35.5579   19.2225 O   0  0  0  0  0  0  0  0  0  0  0  0
   18.0676   34.8719   18.5012 C   0  0  0  0  0  0  0  0  0  0  0  0
   17.8116   35.1820   17.0356 C   0  0  0  0  0  0  0  0  0  0  0  0
   16.3154   35.4718   16.9668 C   0  0  0  0  0  0  0  0  0  0  0  0
   17.8546   30.8142   14.0718 C   0  0  0  0  0  0  0  0  0  0  0  0
   18.1963   28.3004   13.9345 C   0  0  0  0  0  0  0  0  0  0  0  0
   18.2027   27.0979   13.2149 C   0  0  0  0  0  0  0  0  0  0  0  0
   17.8737   27.0930   11.8712 C   0  0  0  0  0  0  0  0  0  0  0  0
   17.5412   28.2700   11.2448 C   0  0  0  0  0  0  0  0  0  0  0  0
   17.5541   29.4642   11.9555 C   0  0  0  0  0  0  0  0  0  0  0  0
   17.8745   29.4934   13.3095 C   0  0  0  0  0  0  0  0  0  0  0  0
  9 10  1  0  0  0
 10 11  2  0  0  0
 10 15  1  0  0  0
 11 12  1  0  0  0
 12 13  2  0  0  0
 13 14  1  0  0  0
 13  6  1  0  0  0
 14 15  2  0  0  0
  6  7  2  0  0  0
  6  8  2  0  0  0
  6  5  1  0  0  0
  5 18  1  0  0  0
  5  4  1  0  0  0
 18 19  1  0  0  0
 19 20  1  0  0  0
 19 21  1  0  0  0
  4  1  1  0  0  0
  1  2  1  0  0  0
  1 22  1  0  0  0
 22 23  1  0  0  0
 22 36  1  0  0  0
 23 24  1  0  0  0
 24 25  2  0  0  0
 24 27  1  0  0  0
 27 28  1  0  0  0
 28 29  1  0  0  0
 28 35  1  0  0  0
 29 30  1  0  0  0
 30 31  1  0  0  0
 31 32  1  0  0  0
 31 35  1  0  0  0
 32 33  1  0  0  0
 33 34  1  0  0  0
 34 35  1  0  0  0
 36 42  1  0  0  0
 37 38  2  0  0  0
 37 42  1  0  0  0
 38 39  1  0  0  0
 39 40  2  0  0  0
 40 41  1  0  0  0
 41 42  2  0  0  0
  9 16  1  0  0  0
  9 17  1  0  0  0
  2  3  1  0  0  0
 23 26  1  0  0  0
M  END
> <minimizedAffinity>
-9.72092

$$$$
4Q1W_017_A_104


 42 45  0  0  0  0  0  0  0  0999 V2000
   17.9769   30.6220   14.6173 C   0  0  0  0  0  0  0  0  0  0  0  0
   18.0487   29.3233   15.2417 O   0  0  0  0  0  0  0  0  0  0  0  0
   18.9517   28.9774   15.1655 H   0  0  0  0  0  0  0  0  0  0  0  0
   18.2383   30.5505   13.1173 C   0  0  0  0  0  0  0  0  0  0  0  0
   18.8586   29.2638   12.7367 N   0  0  0  0  0  0  0  0  0  0  0  0
   17.7900   28.2034   12.1259 S   0  0  0  0  0  0  0  0  0  0  0  0
   16.6784   28.9620   11.6269 O   0  0  0  0  0  0  0  0  0  0  0  0
   17.4492   27.3382   13.2180 O   0  0  0  0  0  0  0  0  0  0  0  0
   19.9348   25.0278    7.7567 N   0  0  0  0  0  0  0  0  0  0  0  0
   19.4411   25.7679    8.7798 C   0  0  0  0  0  0  0  0  0  0  0  0
   19.7580   25.4575   10.0945 C   0  0  0  0  0  0  0  0  0  0  0  0
   19.2111   26.2286   11.1262 C   0  0  0  0  0  0  0  0  0  0  0  0
   18.3973   27.3414   10.8847 C   0  0  0  0  0  0  0  0  0  0  0  0
   18.0998   27.6361    9.5598 C   0  0  0  0  0  0  0  0  0  0  0  0
   18.6353   26.8749    8.5176 C   0  0  0  0  0  0  0  0  0  0  0  0
   20.5037   24.2465    7.9440 H   0  0  0  0  0  0  0  0  0  0  0  0
   19.7245   25.2718    6.8264 H   0  0  0  0  0  0  0  0  0  0  0  0
   20.0603   29.4035   11.8848 C   0  0  0  0  0  0  0  0  0  0  0  0
   21.3384   29.0202   12.6338 C   0  0  0  0  0  0  0  0  0  0  0  0
   21.0421   28.1725   13.8696 C   0  0  0  0  0  0  0  0  0  0  0  0
   22.3227   28.2596   11.7537 C   0  0  0  0  0  0  0  0  0  0  0  0
   18.9144   31.5824   15.3541 C   0  0  0  0  0  0  0  0  0  0  0  0
   18.0971   32.3611   16.2473 N   0  0  0  0  0  0  0  0  0  0  0  0
   18.3192   33.6190   16.6499 C   0  0  0  0  0  0  0  0  0  0  0  0
   19.2319   34.3616   16.3447 O   0  0  0  0  0  0  0  0  0  0  0  0
   17.2892   31.9224   16.5997 H   0  0  0  0  0  0  0  0  0  0  0  0
   17.2779   34.1075   17.5135 O   0  0  0  0  0  0  0  0  0  0  0  0
   15.9927   34.3695   16.9567 C   0  0  0  0  0  0  0  0  0  0  0  0
   15.0245   33.7322   17.9319 C   0  0  0  0  0  0  0  0  0  0  0  0
   14.9387   34.6882   18.9919 O   0  0  0  0  0  0  0  0  0  0  0  0
   15.0936   35.9962   18.4386 C   0  0  0  0  0  0  0  0  0  0  0  0
   16.0083   36.7932   19.1812 O   0  0  0  0  0  0  0  0  0  0  0  0
   17.1967   37.0614   18.4298 C   0  0  0  0  0  0  0  0  0  0  0  0
   16.8174   36.8344   16.9757 C   0  0  0  0  0  0  0  0  0  0  0  0
   15.6599   35.8425   17.0380 C   0  0  0  0  0  0  0  0  0  0  0  0
   20.0221   30.9225   16.1678 C   0  0  0  0  0  0  0  0  0  0  0  0
   21.9446   32.3739   16.9756 C   0  0  0  0  0  0  0  0  0  0  0  0
   23.1477   33.0571   16.7523 C   0  0  0  0  0  0  0  0  0  0  0  0
   23.7371   33.0308   15.5010 C   0  0  0  0  0  0  0  0  0  0  0  0
   23.1396   32.3337   14.4786 C   0  0  0  0  0  0  0  0  0  0  0  0
   21.9367   31.6728   14.6970 C   0  0  0  0  0  0  0  0  0  0  0  0
   21.3284   31.6787   15.9488 C   0  0  0  0  0  0  0  0  0  0  0  0
  9 10  1  0  0  0
 10 11  2  0  0  0
 10 15  1  0  0  0
 11 12  1  0  0  0
 12 13  2  0  0  0
 13 14  1  0  0  0
 13  6  1  0  0  0
 14 15  2  0  0  0
  6  7  2  0  0  0
  6  8  2  0  0  0
  6  5  1  0  0  0
  5 18  1  0  0  0
  5  4  1  0  0  0
 18 19  1  0  0  0
 19 20  1  0  0  0
 19 21  1  0  0  0
  4  1  1  0  0  0
  1  2  1  0  0  0
  1 22  1  0  0  0
 22 23  1  0  0  0
 22 36  1  0  0  0
 23 24  1  0  0  0
 24 25  2  0  0  0
 24 27  1  0  0  0
 27 28  1  0  0  0
 28 29  1  0  0  0
 28 35  1  0  0  0
 29 30  1  0  0  0
 30 31  1  0  0  0
 31 32  1  0  0  0
 31 35  1  0  0  0
 32 33  1  0  0  0
 33 34  1  0  0  0
 34 35  1  0  0  0
 36 42  1  0  0  0
 37 38  2  0  0  0
 37 42  1  0  0  0
 38 39  1  0  0  0
 39 40  2  0  0  0
 40 41  1  0  0  0
 41 42  2  0  0  0
  9 16  1  0  0  0
  9 17  1  0  0  0
  2  3  1  0  0  0
 23 26  1  0  0  0
M  END
> <minimizedAffinity>
-9.08844

$$$$
4Q1W_017_A_104


 42 45  0  0  0  0  0  0  0  0999 V2000
   18.8413   28.8666   14.0444 C   0  0  0  0  0  0  0  0  0  0  0  0
   17.6722   28.3328   14.6998 O   0  0  0  0  0  0  0  0  0  0  0  0
   16.8848   28.5326   14.1697 H   0  0  0  0  0  0  0  0  0  0  0  0
   18.8064   30.3882   13.9624 C   0  0  0  0  0  0  0  0  0  0  0  0
   19.4262   31.0087   15.1524 N   0  0  0  0  0  0  0  0  0  0  0  0
   20.8403   31.7365   14.8212 S   0  0  0  0  0  0  0  0  0  0  0  0
   20.6847   32.4130   13.5649 O   0  0  0  0  0  0  0  0  0  0  0  0
   21.8105   30.6805   14.7871 O   0  0  0  0  0  0  0  0  0  0  0  0
   22.1980   35.7606   18.7885 N   0  0  0  0  0  0  0  0  0  0  0  0
   21.8824   34.8270   17.8573 C   0  0  0  0  0  0  0  0  0  0  0  0
   21.1702   35.1760   16.7189 C   0  0  0  0  0  0  0  0  0  0  0  0
   20.8414   34.1817   15.7908 C   0  0  0  0  0  0  0  0  0  0  0  0
   21.2512   32.8513   15.9353 C   0  0  0  0  0  0  0  0  0  0  0  0
   21.9691   32.5278   17.0801 C   0  0  0  0  0  0  0  0  0  0  0  0
   22.3036   33.5078   18.0183 C   0  0  0  0  0  0  0  0  0  0  0  0
   21.8995   36.6916   18.6729 H   0  0  0  0  0  0  0  0  0  0  0  0
   22.7256   35.5075   19.5802 H   0  0  0  0  0  0  0  0  0  0  0  0
   18.5119   31.8820   15.9212 C   0  0  0  0  0  0  0  0  0  0  0  0
   17.3035   32.3164   15.0890 C   0  0  0  0  0  0  0  0  0  0  0  0
   15.9880   32.0827   15.8296 C   0  0  0  0  0  0  0  0  0  0  0  0
   17.3731   33.7837   14.6838 C   0  0  0  0  0  0  0  0  0  0  0  0
   19.0040   28.1865   12.6823 C   0  0  0  0  0  0  0  0  0  0  0  0
   20.3355   27.6408   12.6441 N   0  0  0  0  0  0  0  0  0  0  0  0
   21.4423   28.2511   12.2012 C   0  0  0  0  0  0  0  0  0  0  0  0
   21.5603   29.3767   11.7576 O   0  0  0  0  0  0  0  0  0  0  0  0
   20.4440   26.7214   12.9790 H   0  0  0  0  0  0  0  0  0  0  0  0
   22.6137   27.4288   12.3450 O   0  0  0  0  0  0  0  0  0  0  0  0
   23.6409   27.5220   11.3619 C   0  0  0  0  0  0  0  0  0  0  0  0
   24.8933   27.0700   12.0842 C   0  0  0  0  0  0  0  0  0  0  0  0
   24.7896   25.6437   12.0741 O   0  0  0  0  0  0  0  0  0  0  0  0
   24.1198   25.2447   10.8771 C   0  0  0  0  0  0  0  0  0  0  0  0
   23.0979   24.2861   11.1224 O   0  0  0  0  0  0  0  0  0  0  0  0
   21.7986   24.8326   10.8731 C   0  0  0  0  0  0  0  0  0  0  0  0
   22.0294   26.0322    9.9690 C   0  0  0  0  0  0  0  0  0  0  0  0
   23.4544   26.4753   10.2863 C   0  0  0  0  0  0  0  0  0  0  0  0
   18.0154   27.0639   12.3875 C   0  0  0  0  0  0  0  0  0  0  0  0
   18.0250   25.4045   10.4635 C   0  0  0  0  0  0  0  0  0  0  0  0
   18.0746   25.1096    9.0945 C   0  0  0  0  0  0  0  0  0  0  0  0
   18.1603   26.1334    8.1680 C   0  0  0  0  0  0  0  0  0  0  0  0
   18.1971   27.4393    8.5941 C   0  0  0  0  0  0  0  0  0  0  0  0
   18.1672   27.7289    9.9531 C   0  0  0  0  0  0  0  0  0  0  0  0
   18.0737   26.7166   10.9035 C   0  0  0  0  0  0  0  0  0  0  0  0
  9 10  1  0  0  0
 10 11  2  0  0  0
 10 15  1  0  0  0
 11 12  1  0  0  0
 12 13  2  0  0  0
 13 14  1  0  0  0
 13  6  1  0  0  0
 14 15  2  0  0  0
  6  7  2  0  0  0
  6  8  2  0  0  0
  6  5  1  0  0  0
  5 18  1  0  0  0
  5  4  1  0  0  0
 18 19  1  0  0  0
 19 20  1  0  0  0
 19 21  1  0  0  0
  4  1  1  0  0  0
  1  2  1  0  0  0
  1 22  1  0  0  0
 22 23  1  0  0  0
 22 36  1  0  0  0
 23 24  1  0  0  0
 24 25  2  0  0  0
 24 27  1  0  0  0
 27 28  1  0  0  0
 28 29  1  0  0  0
 28 35  1  0  0  0
 29 30  1  0  0  0
 30 31  1  0  0  0
 31 32  1  0  0  0
 31 35  1  0  0  0
 32 33  1  0  0  0
 33 34  1  0  0  0
 34 35  1  0  0  0
 36 42  1  0  0  0
 37 38  2  0  0  0
 37 42  1  0  0  0
 38 39  1  0  0  0
 39 40  2  0  0  0
 40 41  1  0  0  0
 41 42  2  0  0  0
  9 16  1  0  0  0
  9 17  1  0  0  0
  2  3  1  0  0  0
 23 26  1  0  0  0
M  END
> <minimizedAffinity>
-9.07921

$$$$
4Q1W_017_A_104


 42 45  0  0  0  0  0  0  0  0999 V2000
   19.9370   29.5172   15.3793 C   0  0  0  0  0  0  0  0  0  0  0  0
   19.8700   28.4905   16.3906 O   0  0  0  0  0  0  0  0  0  0  0  0
   18.9717   28.1259   16.4222 H   0  0  0  0  0  0  0  0  0  0  0  0
   19.0477   30.7090   15.7146 C   0  0  0  0  0  0  0  0  0  0  0  0
   19.8177   31.9708   15.7323 N   0  0  0  0  0  0  0  0  0  0  0  0
   18.9061   33.2620   16.1076 S   0  0  0  0  0  0  0  0  0  0  0  0
   17.8363   32.7967   16.9437 O   0  0  0  0  0  0  0  0  0  0  0  0
   18.4623   33.7903   14.8500 O   0  0  0  0  0  0  0  0  0  0  0  0
   21.8550   37.2222   19.1730 N   0  0  0  0  0  0  0  0  0  0  0  0
   21.1606   36.2999   18.4619 C   0  0  0  0  0  0  0  0  0  0  0  0
   20.1897   35.5198   19.0732 C   0  0  0  0  0  0  0  0  0  0  0  0
   19.5096   34.5613   18.3136 C   0  0  0  0  0  0  0  0  0  0  0  0
   19.7292   34.3932   16.9416 C   0  0  0  0  0  0  0  0  0  0  0  0
   20.7014   35.1909   16.3508 C   0  0  0  0  0  0  0  0  0  0  0  0
   21.3918   36.1509   17.0951 C   0  0  0  0  0  0  0  0  0  0  0  0
   21.6902   37.3258   20.1381 H   0  0  0  0  0  0  0  0  0  0  0  0
   22.5239   37.7883   18.7243 H   0  0  0  0  0  0  0  0  0  0  0  0
   21.0589   31.9074   16.5353 C   0  0  0  0  0  0  0  0  0  0  0  0
   22.3104   31.9579   15.6563 C   0  0  0  0  0  0  0  0  0  0  0  0
   21.9810   32.3544   14.2183 C   0  0  0  0  0  0  0  0  0  0  0  0
   23.3599   32.9235   16.1931 C   0  0  0  0  0  0  0  0  0  0  0  0
   19.6317   28.8942   14.0144 C   0  0  0  0  0  0  0  0  0  0  0  0
   20.7926   28.1328   13.6337 N   0  0  0  0  0  0  0  0  0  0  0  0
   21.7639   28.5135   12.7939 C   0  0  0  0  0  0  0  0  0  0  0  0
   21.8782   29.5654   12.1954 O   0  0  0  0  0  0  0  0  0  0  0  0
   20.8819   27.2373   14.0329 H   0  0  0  0  0  0  0  0  0  0  0  0
   22.7979   27.5213   12.6697 O   0  0  0  0  0  0  0  0  0  0  0  0
   23.6620   27.5704   11.5378 C   0  0  0  0  0  0  0  0  0  0  0  0
   24.9649   26.9786   12.0346 C   0  0  0  0  0  0  0  0  0  0  0  0
   24.7287   25.5687   11.9961 O   0  0  0  0  0  0  0  0  0  0  0  0
   23.8449   25.2849   10.9101 C   0  0  0  0  0  0  0  0  0  0  0  0
   22.7896   24.4083   11.2859 O   0  0  0  0  0  0  0  0  0  0  0  0
   21.5238   25.0763   11.2662 C   0  0  0  0  0  0  0  0  0  0  0  0
   21.7201   26.2919   10.3754 C   0  0  0  0  0  0  0  0  0  0  0  0
   23.2122   26.5946   10.4734 C   0  0  0  0  0  0  0  0  0  0  0  0
   18.4172   27.9736   13.9706 C   0  0  0  0  0  0  0  0  0  0  0  0
   18.1566   26.2034   12.1667 C   0  0  0  0  0  0  0  0  0  0  0  0
   17.9166   25.8278   10.8382 C   0  0  0  0  0  0  0  0  0  0  0  0
   17.6723   26.7940    9.8786 C   0  0  0  0  0  0  0  0  0  0  0  0
   17.6660   28.1218   10.2320 C   0  0  0  0  0  0  0  0  0  0  0  0
   17.9232   28.4934   11.5462 C   0  0  0  0  0  0  0  0  0  0  0  0
   18.1644   27.5395   12.5305 C   0  0  0  0  0  0  0  0  0  0  0  0
  9 10  1  0  0  0
 10 11  2  0  0  0
 10 15  1  0  0  0
 11 12  1  0  0  0
 12 13  2  0  0  0
 13 14  1  0  0  0
 13  6  1  0  0  0
 14 15  2  0  0  0
  6  7  2  0  0  0
  6  8  2  0  0  0
  6  5  1  0  0  0
  5 18  1  0  0  0
  5  4  1  0  0  0
 18 19  1  0  0  0
 19 20  1  0  0  0
 19 21  1  0  0  0
  4  1  1  0  0  0
  1  2  1  0  0  0
  1 22  1  0  0  0
 22 23  1  0  0  0
 22 36  1  0  0  0
 23 24  1  0  0  0
 24 25  2  0  0  0
 24 27  1  0  0  0
 27 28  1  0  0  0
 28 29  1  0  0  0
 28 35  1  0  0  0
 29 30  1  0  0  0
 30 31  1  0  0  0
 31 32  1  0  0  0
 31 35  1  0  0  0
 32 33  1  0  0  0
 33 34  1  0  0  0
 34 35  1  0  0  0
 36 42  1  0  0  0
 37 38  2  0  0  0
 37 42  1  0  0  0
 38 39  1  0  0  0
 39 40  2  0  0  0
 40 41  1  0  0  0
 41 42  2  0  0  0
  9 16  1  0  0  0
  9 17  1  0  0  0
  2  3  1  0  0  0
 23 26  1  0  0  0
M  END
> <minimizedAffinity>
-9.06636

$$$$
4Q1W_017_A_104


 42 45  0  0  0  0  0  0  0  0999 V2000
   19.0605   29.3694   13.7909 C   0  0  0  0  0  0  0  0  0  0  0  0
   18.0286   28.8249   14.6396 O   0  0  0  0  0  0  0  0  0  0  0  0
   17.1746   28.8740   14.1823 H   0  0  0  0  0  0  0  0  0  0  0  0
   18.8525   30.8547   13.5188 C   0  0  0  0  0  0  0  0  0  0  0  0
   19.1824   31.6736   14.7044 N   0  0  0  0  0  0  0  0  0  0  0  0
   17.9225   31.8623   15.7125 S   0  0  0  0  0  0  0  0  0  0  0  0
   18.1694   31.0346   16.8588 O   0  0  0  0  0  0  0  0  0  0  0  0
   16.7701   31.4649   14.9564 O   0  0  0  0  0  0  0  0  0  0  0  0
   17.2218   37.3173   17.5905 N   0  0  0  0  0  0  0  0  0  0  0  0
   17.3830   36.0468   17.1454 C   0  0  0  0  0  0  0  0  0  0  0  0
   16.5029   35.5048   16.2198 C   0  0  0  0  0  0  0  0  0  0  0  0
   16.6860   34.1822   15.8007 C   0  0  0  0  0  0  0  0  0  0  0  0
   17.7588   33.3958   16.2360 C   0  0  0  0  0  0  0  0  0  0  0  0
   18.6304   33.9632   17.1574 C   0  0  0  0  0  0  0  0  0  0  0  0
   18.4606   35.2814   17.5885 C   0  0  0  0  0  0  0  0  0  0  0  0
   16.4601   37.8561   17.2763 H   0  0  0  0  0  0  0  0  0  0  0  0
   17.8665   37.7010   18.2280 H   0  0  0  0  0  0  0  0  0  0  0  0
   20.4079   31.2417   15.4124 C   0  0  0  0  0  0  0  0  0  0  0  0
   21.5270   32.2793   15.3009 C   0  0  0  0  0  0  0  0  0  0  0  0
   22.2172   32.5190   16.6424 C   0  0  0  0  0  0  0  0  0  0  0  0
   22.5862   31.8852   14.2788 C   0  0  0  0  0  0  0  0  0  0  0  0
   19.1572   28.5243   12.5178 C   0  0  0  0  0  0  0  0  0  0  0  0
   20.4576   27.9071   12.5238 N   0  0  0  0  0  0  0  0  0  0  0  0
   21.6093   28.4542   12.1140 C   0  0  0  0  0  0  0  0  0  0  0  0
   21.8020   29.5694   11.6702 O   0  0  0  0  0  0  0  0  0  0  0  0
   20.5054   26.9850   12.8653 H   0  0  0  0  0  0  0  0  0  0  0  0
   22.7292   27.5705   12.2978 O   0  0  0  0  0  0  0  0  0  0  0  0
   23.7544   27.5490   11.3084 C   0  0  0  0  0  0  0  0  0  0  0  0
   24.9735   27.0305   12.0429 C   0  0  0  0  0  0  0  0  0  0  0  0
   24.7622   25.6168   12.0867 O   0  0  0  0  0  0  0  0  0  0  0  0
   24.0567   25.2255   10.9077 C   0  0  0  0  0  0  0  0  0  0  0  0
   22.9668   24.3569   11.1923 O   0  0  0  0  0  0  0  0  0  0  0  0
   21.7110   24.9907   10.9270 C   0  0  0  0  0  0  0  0  0  0  0  0
   22.0263   26.1349    9.9779 C   0  0  0  0  0  0  0  0  0  0  0  0
   23.4826   26.4802   10.2735 C   0  0  0  0  0  0  0  0  0  0  0  0
   18.1057   27.4294   12.3760 C   0  0  0  0  0  0  0  0  0  0  0  0
   17.9581   25.5723   10.6485 C   0  0  0  0  0  0  0  0  0  0  0  0
   17.9494   25.1268    9.3199 C   0  0  0  0  0  0  0  0  0  0  0  0
   18.0697   26.0356    8.2838 C   0  0  0  0  0  0  0  0  0  0  0  0
   18.1980   27.3753    8.5614 C   0  0  0  0  0  0  0  0  0  0  0  0
   18.2258   27.8131    9.8801 C   0  0  0  0  0  0  0  0  0  0  0  0
   18.0991   26.9189   10.9389 C   0  0  0  0  0  0  0  0  0  0  0  0
  9 10  1  0  0  0
 10 11  2  0  0  0
 10 15  1  0  0  0
 11 12  1  0  0  0
 12 13  2  0  0  0
 13 14  1  0  0  0
 13  6  1  0  0  0
 14 15  2  0  0  0
  6  7  2  0  0  0
  6  8  2  0  0  0
  6  5  1  0  0  0
  5 18  1  0  0  0
  5  4  1  0  0  0
 18 19  1  0  0  0
 19 20  1  0  0  0
 19 21  1  0  0  0
  4  1  1  0  0  0
  1  2  1  0  0  0
  1 22  1  0  0  0
 22 23  1  0  0  0
 22 36  1  0  0  0
 23 24  1  0  0  0
 24 25  2  0  0  0
 24 27  1  0  0  0
 27 28  1  0  0  0
 28 29  1  0  0  0
 28 35  1  0  0  0
 29 30  1  0  0  0
 30 31  1  0  0  0
 31 32  1  0  0  0
 31 35  1  0  0  0
 32 33  1  0  0  0
 33 34  1  0  0  0
 34 35  1  0  0  0
 36 42  1  0  0  0
 37 38  2  0  0  0
 37 42  1  0  0  0
 38 39  1  0  0  0
 39 40  2  0  0  0
 40 41  1  0  0  0
 41 42  2  0  0  0
  9 16  1  0  0  0
  9 17  1  0  0  0
  2  3  1  0  0  0
 23 26  1  0  0  0
M  END
> <minimizedAffinity>
-8.90310

$$$$
4Q1W_017_A_104


 42 45  0  0  0  0  0  0  0  0999 V2000
   19.3356   30.2367   15.7993 C   0  0  0  0  0  0  0  0  0  0  0  0
   19.4079   29.5776   17.0806 O   0  0  0  0  0  0  0  0  0  0  0  0
   18.9710   30.1256   17.7512 H   0  0  0  0  0  0  0  0  0  0  0  0
   20.1080   31.5507   15.7878 C   0  0  0  0  0  0  0  0  0  0  0  0
   21.1604   31.5508   14.7497 N   0  0  0  0  0  0  0  0  0  0  0  0
   22.4186   32.5074   15.1256 S   0  0  0  0  0  0  0  0  0  0  0  0
   22.7919   33.2063   13.9288 O   0  0  0  0  0  0  0  0  0  0  0  0
   23.4358   31.6208   15.6124 O   0  0  0  0  0  0  0  0  0  0  0  0
   21.2007   36.4685   19.2001 N   0  0  0  0  0  0  0  0  0  0  0  0
   21.4832   35.5388   18.2546 C   0  0  0  0  0  0  0  0  0  0  0  0
   22.1099   34.3493   18.5973 C   0  0  0  0  0  0  0  0  0  0  0  0
   22.4076   33.4230   17.5915 C   0  0  0  0  0  0  0  0  0  0  0  0
   22.0475   33.6220   16.2537 C   0  0  0  0  0  0  0  0  0  0  0  0
   21.4147   34.8177   15.9366 C   0  0  0  0  0  0  0  0  0  0  0  0
   21.1125   35.7547   16.9280 C   0  0  0  0  0  0  0  0  0  0  0  0
   21.4633   36.3141   20.1363 H   0  0  0  0  0  0  0  0  0  0  0  0
   20.7329   37.2981   18.9505 H   0  0  0  0  0  0  0  0  0  0  0  0
   21.5895   30.1992   14.3272 C   0  0  0  0  0  0  0  0  0  0  0  0
   21.6622   30.0738   12.8039 C   0  0  0  0  0  0  0  0  0  0  0  0
   21.3015   28.6670   12.3302 C   0  0  0  0  0  0  0  0  0  0  0  0
   20.7517   31.0684   12.0940 C   0  0  0  0  0  0  0  0  0  0  0  0
   17.8657   30.3903   15.3993 C   0  0  0  0  0  0  0  0  0  0  0  0
   17.3378   31.4908   16.1625 N   0  0  0  0  0  0  0  0  0  0  0  0
   16.0814   31.9540   16.1422 C   0  0  0  0  0  0  0  0  0  0  0  0
   15.1343   31.5460   15.4984 O   0  0  0  0  0  0  0  0  0  0  0  0
   17.9672   31.9518   16.7630 H   0  0  0  0  0  0  0  0  0  0  0  0
   15.8861   33.0428   17.0616 O   0  0  0  0  0  0  0  0  0  0  0  0
   15.2881   34.2444   16.5832 C   0  0  0  0  0  0  0  0  0  0  0  0
   14.0547   34.4185   17.4453 C   0  0  0  0  0  0  0  0  0  0  0  0
   14.5704   34.9679   18.6608 O   0  0  0  0  0  0  0  0  0  0  0  0
   15.7017   35.7823   18.3480 C   0  0  0  0  0  0  0  0  0  0  0  0
   16.8074   35.5252   19.2052 O   0  0  0  0  0  0  0  0  0  0  0  0
   17.8894   34.9160   18.4932 C   0  0  0  0  0  0  0  0  0  0  0  0
   17.6465   35.2422   17.0289 C   0  0  0  0  0  0  0  0  0  0  0  0
   16.1376   35.4458   16.9328 C   0  0  0  0  0  0  0  0  0  0  0  0
   17.6136   30.6655   13.9210 C   0  0  0  0  0  0  0  0  0  0  0  0
   17.5639   29.3222   11.7650 C   0  0  0  0  0  0  0  0  0  0  0  0
   17.6412   28.1070   11.0713 C   0  0  0  0  0  0  0  0  0  0  0  0
   17.8558   26.9278   11.7620 C   0  0  0  0  0  0  0  0  0  0  0  0
   17.9924   26.9516   13.1291 C   0  0  0  0  0  0  0  0  0  0  0  0
   17.8962   28.1553   13.8171 C   0  0  0  0  0  0  0  0  0  0  0  0
   17.6882   29.3554   13.1438 C   0  0  0  0  0  0  0  0  0  0  0  0
  9 10  1  0  0  0
 10 11  2  0  0  0
 10 15  1  0  0  0
 11 12  1  0  0  0
 12 13  2  0  0  0
 13 14  1  0  0  0
 13  6  1  0  0  0
 14 15  2  0  0  0
  6  7  2  0  0  0
  6  8  2  0  0  0
  6  5  1  0  0  0
  5 18  1  0  0  0
  5  4  1  0  0  0
 18 19  1  0  0  0
 19 20  1  0  0  0
 19 21  1  0  0  0
  4  1  1  0  0  0
  1  2  1  0  0  0
  1 22  1  0  0  0
 22 23  1  0  0  0
 22 36  1  0  0  0
 23 24  1  0  0  0
 24 25  2  0  0  0
 24 27  1  0  0  0
 27 28  1  0  0  0
 28 29  1  0  0  0
 28 35  1  0  0  0
 29 30  1  0  0  0
 30 31  1  0  0  0
 31 32  1  0  0  0
 31 35  1  0  0  0
 32 33  1  0  0  0
 33 34  1  0  0  0
 34 35  1  0  0  0
 36 42  1  0  0  0
 37 38  2  0  0  0
 37 42  1  0  0  0
 38 39  1  0  0  0
 39 40  2  0  0  0
 40 41  1  0  0  0
 41 42  2  0  0  0
  9 16  1  0  0  0
  9 17  1  0  0  0
  2  3  1  0  0  0
 23 26  1  0  0  0
M  END
> <minimizedAffinity>
-8.87064

$$$$
4Q1W_017_A_104


 42 45  0  0  0  0  0  0  0  0999 V2000
   17.8572   33.2211   15.7937 C   0  0  0  0  0  0  0  0  0  0  0  0
   16.6890   32.6852   15.1384 O   0  0  0  0  0  0  0  0  0  0  0  0
   16.0892   32.3103   15.8022 H   0  0  0  0  0  0  0  0  0  0  0  0
   18.6745   32.1352   16.4837 C   0  0  0  0  0  0  0  0  0  0  0  0
   19.7806   31.6621   15.6245 N   0  0  0  0  0  0  0  0  0  0  0  0
   19.2629   30.8265   14.3311 S   0  0  0  0  0  0  0  0  0  0  0  0
   18.8466   31.7846   13.3467 O   0  0  0  0  0  0  0  0  0  0  0  0
   18.1940   30.0021   14.8162 O   0  0  0  0  0  0  0  0  0  0  0  0
   23.4857   27.6506   11.9110 N   0  0  0  0  0  0  0  0  0  0  0  0
   22.4970   28.3921   12.4687 C   0  0  0  0  0  0  0  0  0  0  0  0
   21.9200   29.4421   11.7691 C   0  0  0  0  0  0  0  0  0  0  0  0
   20.9185   30.2010   12.3852 C   0  0  0  0  0  0  0  0  0  0  0  0
   20.4320   29.9091   13.6646 C   0  0  0  0  0  0  0  0  0  0  0  0
   21.0209   28.8486   14.3423 C   0  0  0  0  0  0  0  0  0  0  0  0
   22.0239   28.0823   13.7430 C   0  0  0  0  0  0  0  0  0  0  0  0
   23.8184   27.8711   11.0110 H   0  0  0  0  0  0  0  0  0  0  0  0
   23.8709   26.8918   12.4060 H   0  0  0  0  0  0  0  0  0  0  0  0
   20.7526   32.7162   15.2595 C   0  0  0  0  0  0  0  0  0  0  0  0
   22.1742   32.3582   15.6981 C   0  0  0  0  0  0  0  0  0  0  0  0
   23.1598   32.4083   14.5320 C   0  0  0  0  0  0  0  0  0  0  0  0
   22.6898   33.2721   16.8031 C   0  0  0  0  0  0  0  0  0  0  0  0
   17.4279   34.3507   16.7339 C   0  0  0  0  0  0  0  0  0  0  0  0
   18.6239   35.0574   17.1113 N   0  0  0  0  0  0  0  0  0  0  0  0
   19.0320   35.3405   18.3551 C   0  0  0  0  0  0  0  0  0  0  0  0
   18.4984   35.0571   19.4099 O   0  0  0  0  0  0  0  0  0  0  0  0
   19.2033   35.3653   16.3773 H   0  0  0  0  0  0  0  0  0  0  0  0
   20.2967   36.0254   18.3720 O   0  0  0  0  0  0  0  0  0  0  0  0
   20.5000   37.1108   17.4715 C   0  0  0  0  0  0  0  0  0  0  0  0
   19.5632   38.1919   17.9696 C   0  0  0  0  0  0  0  0  0  0  0  0
   20.2690   38.7642   19.0738 O   0  0  0  0  0  0  0  0  0  0  0  0
   21.6701   38.6939   18.8039 C   0  0  0  0  0  0  0  0  0  0  0  0
   22.4116   38.2053   19.9151 O   0  0  0  0  0  0  0  0  0  0  0  0
   22.9729   36.9171   19.6425 C   0  0  0  0  0  0  0  0  0  0  0  0
   22.9954   36.7963   18.1277 C   0  0  0  0  0  0  0  0  0  0  0  0
   21.8728   37.7170   17.6590 C   0  0  0  0  0  0  0  0  0  0  0  0
   16.4417   35.3540   16.1462 C   0  0  0  0  0  0  0  0  0  0  0  0
   14.5842   35.4097   17.8788 C   0  0  0  0  0  0  0  0  0  0  0  0
   13.8931   36.0429   18.9205 C   0  0  0  0  0  0  0  0  0  0  0  0
   14.3004   37.2878   19.3658 C   0  0  0  0  0  0  0  0  0  0  0  0
   15.3836   37.9010   18.7837 C   0  0  0  0  0  0  0  0  0  0  0  0
   16.0558   37.2800   17.7378 C   0  0  0  0  0  0  0  0  0  0  0  0
   15.6695   36.0248   17.2775 C   0  0  0  0  0  0  0  0  0  0  0  0
  9 10  1  0  0  0
 10 11  2  0  0  0
 10 15  1  0  0  0
 11 12  1  0  0  0
 12 13  2  0  0  0
 13 14  1  0  0  0
 13  6  1  0  0  0
 14 15  2  0  0  0
  6  7  2  0  0  0
  6  8  2  0  0  0
  6  5  1  0  0  0
  5 18  1  0  0  0
  5  4  1  0  0  0
 18 19  1  0  0  0
 19 20  1  0  0  0
 19 21  1  0  0  0
  4  1  1  0  0  0
  1  2  1  0  0  0
  1 22  1  0  0  0
 22 23  1  0  0  0
 22 36  1  0  0  0
 23 24  1  0  0  0
 24 25  2  0  0  0
 24 27  1  0  0  0
 27 28  1  0  0  0
 28 29  1  0  0  0
 28 35  1  0  0  0
 29 30  1  0  0  0
 30 31  1  0  0  0
 31 32  1  0  0  0
 31 35  1  0  0  0
 32 33  1  0  0  0
 33 34  1  0  0  0
 34 35  1  0  0  0
 36 42  1  0  0  0
 37 38  2  0  0  0
 37 42  1  0  0  0
 38 39  1  0  0  0
 39 40  2  0  0  0
 40 41  1  0  0  0
 41 42  2  0  0  0
  9 16  1  0  0  0
  9 17  1  0  0  0
  2  3  1  0  0  0
 23 26  1  0  0  0
M  END
> <minimizedAffinity>
-8.83701

$$$$
4Q1W_017_A_104


 42 45  0  0  0  0  0  0  0  0999 V2000
   20.3716   29.0347   15.0734 C   0  0  0  0  0  0  0  0  0  0  0  0
   20.0753   27.9221   15.9427 O   0  0  0  0  0  0  0  0  0  0  0  0
   19.1180   27.8740   16.0915 H   0  0  0  0  0  0  0  0  0  0  0  0
   20.0122   30.3711   15.7123 C   0  0  0  0  0  0  0  0  0  0  0  0
   19.3112   31.2561   14.7580 N   0  0  0  0  0  0  0  0  0  0  0  0
   17.7398   31.4558   15.1187 S   0  0  0  0  0  0  0  0  0  0  0  0
   17.4187   30.5112   16.1507 O   0  0  0  0  0  0  0  0  0  0  0  0
   17.0370   31.2232   13.8901 O   0  0  0  0  0  0  0  0  0  0  0  0
   16.6655   36.7699   17.2119 N   0  0  0  0  0  0  0  0  0  0  0  0
   16.9144   35.5271   16.7304 C   0  0  0  0  0  0  0  0  0  0  0  0
   17.5096   34.5640   17.5324 C   0  0  0  0  0  0  0  0  0  0  0  0
   17.7733   33.2993   16.9947 C   0  0  0  0  0  0  0  0  0  0  0  0
   17.4090   32.9444   15.6908 C   0  0  0  0  0  0  0  0  0  0  0  0
   16.8080   33.9237   14.9095 C   0  0  0  0  0  0  0  0  0  0  0  0
   16.5400   35.1925   15.4298 C   0  0  0  0  0  0  0  0  0  0  0  0
   16.9307   37.0041   18.1306 H   0  0  0  0  0  0  0  0  0  0  0  0
   16.2196   37.4381   16.6428 H   0  0  0  0  0  0  0  0  0  0  0  0
   19.9990   32.5432   14.5138 C   0  0  0  0  0  0  0  0  0  0  0  0
   21.3104   32.6468   15.2953 C   0  0  0  0  0  0  0  0  0  0  0  0
   22.5262   32.6495   14.3704 C   0  0  0  0  0  0  0  0  0  0  0  0
   21.3693   33.8927   16.1706 C   0  0  0  0  0  0  0  0  0  0  0  0
   19.6941   28.8047   13.7197 C   0  0  0  0  0  0  0  0  0  0  0  0
   20.6556   28.1409   12.8787 N   0  0  0  0  0  0  0  0  0  0  0  0
   21.5574   28.7205   12.0759 C   0  0  0  0  0  0  0  0  0  0  0  0
   21.7618   29.9056   11.8979 O   0  0  0  0  0  0  0  0  0  0  0  0
   20.6496   27.1566   12.8955 H   0  0  0  0  0  0  0  0  0  0  0  0
   22.3909   27.7580   11.4068 O   0  0  0  0  0  0  0  0  0  0  0  0
   22.2206   26.3761   11.7098 C   0  0  0  0  0  0  0  0  0  0  0  0
   21.4648   25.8216   10.5198 C   0  0  0  0  0  0  0  0  0  0  0  0
   22.4815   25.6453    9.5297 O   0  0  0  0  0  0  0  0  0  0  0  0
   23.7048   25.3121   10.1881 C   0  0  0  0  0  0  0  0  0  0  0  0
   24.8061   26.0680    9.6990 O   0  0  0  0  0  0  0  0  0  0  0  0
   25.2972   26.9764   10.6902 C   0  0  0  0  0  0  0  0  0  0  0  0
   24.8007   26.4336   12.0200 C   0  0  0  0  0  0  0  0  0  0  0  0
   23.5442   25.6463   11.6608 C   0  0  0  0  0  0  0  0  0  0  0  0
   18.4243   27.9615   13.7567 C   0  0  0  0  0  0  0  0  0  0  0  0
   17.8101   28.3677   11.3250 C   0  0  0  0  0  0  0  0  0  0  0  0
   17.5180   27.9014   10.0362 C   0  0  0  0  0  0  0  0  0  0  0  0
   17.5274   26.5434    9.7723 C   0  0  0  0  0  0  0  0  0  0  0  0
   17.8234   25.6540   10.7771 C   0  0  0  0  0  0  0  0  0  0  0  0
   18.0938   26.1174   12.0592 C   0  0  0  0  0  0  0  0  0  0  0  0
   18.0976   27.4789   12.3473 C   0  0  0  0  0  0  0  0  0  0  0  0
  9 10  1  0  0  0
 10 11  2  0  0  0
 10 15  1  0  0  0
 11 12  1  0  0  0
 12 13  2  0  0  0
 13 14  1  0  0  0
 13  6  1  0  0  0
 14 15  2  0  0  0
  6  7  2  0  0  0
  6  8  2  0  0  0
  6  5  1  0  0  0
  5 18  1  0  0  0
  5  4  1  0  0  0
 18 19  1  0  0  0
 19 20  1  0  0  0
 19 21  1  0  0  0
  4  1  1  0  0  0
  1  2  1  0  0  0
  1 22  1  0  0  0
 22 23  1  0  0  0
 22 36  1  0  0  0
 23 24  1  0  0  0
 24 25  2  0  0  0
 24 27  1  0  0  0
 27 28  1  0  0  0
 28 29  1  0  0  0
 28 35  1  0  0  0
 29 30  1  0  0  0
 30 31  1  0  0  0
 31 32  1  0  0  0
 31 35  1  0  0  0
 32 33  1  0  0  0
 33 34  1  0  0  0
 34 35  1  0  0  0
 36 42  1  0  0  0
 37 38  2  0  0  0
 37 42  1  0  0  0
 38 39  1  0  0  0
 39 40  2  0  0  0
 40 41  1  0  0  0
 41 42  2  0  0  0
  9 16  1  0  0  0
  9 17  1  0  0  0
  2  3  1  0  0  0
 23 26  1  0  0  0
M  END
> <minimizedAffinity>
-8.78284

$$$$
4Q1W_017_A_104


 42 45  0  0  0  0  0  0  0  0999 V2000
   20.6423   31.8127   13.7812 C   0  0  0  0  0  0  0  0  0  0  0  0
   20.2514   31.8872   12.3945 O   0  0  0  0  0  0  0  0  0  0  0  0
   19.4819   31.3160   12.2443 H   0  0  0  0  0  0  0  0  0  0  0  0
   21.1162   30.4164   14.1675 C   0  0  0  0  0  0  0  0  0  0  0  0
   20.3915   29.3713   13.4141 N   0  0  0  0  0  0  0  0  0  0  0  0
   21.3370   28.5900   12.3488 S   0  0  0  0  0  0  0  0  0  0  0  0
   22.2879   27.8269   13.1062 O   0  0  0  0  0  0  0  0  0  0  0  0
   21.9354   29.6189   11.5483 O   0  0  0  0  0  0  0  0  0  0  0  0
   18.3750   24.9584    8.9118 N   0  0  0  0  0  0  0  0  0  0  0  0
   19.0596   25.8098    9.7146 C   0  0  0  0  0  0  0  0  0  0  0  0
   18.7959   27.1717    9.6895 C   0  0  0  0  0  0  0  0  0  0  0  0
   19.5386   28.0237   10.5146 C   0  0  0  0  0  0  0  0  0  0  0  0
   20.5042   27.5511   11.4109 C   0  0  0  0  0  0  0  0  0  0  0  0
   20.7454   26.1828   11.4225 C   0  0  0  0  0  0  0  0  0  0  0  0
   20.0148   25.3182   10.6033 C   0  0  0  0  0  0  0  0  0  0  0  0
   17.7009   25.3076    8.2850 H   0  0  0  0  0  0  0  0  0  0  0  0
   18.5519   23.9909    8.9556 H   0  0  0  0  0  0  0  0  0  0  0  0
   19.6189   28.4408   14.2667 C   0  0  0  0  0  0  0  0  0  0  0  0
   18.1186   28.5115   13.9745 C   0  0  0  0  0  0  0  0  0  0  0  0
   17.8000   29.5177   12.8701 C   0  0  0  0  0  0  0  0  0  0  0  0
   17.5392   27.1599   13.5753 C   0  0  0  0  0  0  0  0  0  0  0  0
   19.4937   32.3291   14.6520 C   0  0  0  0  0  0  0  0  0  0  0  0
   19.9844   33.4916   15.3447 N   0  0  0  0  0  0  0  0  0  0  0  0
   20.8204   33.5112   16.3908 C   0  0  0  0  0  0  0  0  0  0  0  0
   21.3427   32.5727   16.9603 O   0  0  0  0  0  0  0  0  0  0  0  0
   19.6725   34.3650   15.0143 H   0  0  0  0  0  0  0  0  0  0  0  0
   21.1371   34.8497   16.8115 O   0  0  0  0  0  0  0  0  0  0  0  0
   21.6246   35.0546   18.1346 C   0  0  0  0  0  0  0  0  0  0  0  0
   22.5975   36.2080   18.0014 C   0  0  0  0  0  0  0  0  0  0  0  0
   21.7495   37.3588   17.9621 O   0  0  0  0  0  0  0  0  0  0  0  0
   20.5976   37.1029   18.7674 C   0  0  0  0  0  0  0  0  0  0  0  0
   19.3881   37.4673   18.1134 O   0  0  0  0  0  0  0  0  0  0  0  0
   18.5979   36.3162   17.7979 C   0  0  0  0  0  0  0  0  0  0  0  0
   19.0971   35.2160   18.7197 C   0  0  0  0  0  0  0  0  0  0  0  0
   20.5385   35.6083   19.0297 C   0  0  0  0  0  0  0  0  0  0  0  0
   18.2245   32.7165   13.9013 C   0  0  0  0  0  0  0  0  0  0  0  0
   16.7032   34.1816   15.3135 C   0  0  0  0  0  0  0  0  0  0  0  0
   15.6533   34.3426   16.2277 C   0  0  0  0  0  0  0  0  0  0  0  0
   14.9837   33.2347   16.7154 C   0  0  0  0  0  0  0  0  0  0  0  0
   15.3512   31.9770   16.3014 C   0  0  0  0  0  0  0  0  0  0  0  0
   16.4053   31.8183   15.4097 C   0  0  0  0  0  0  0  0  0  0  0  0
   17.0891   32.9178   14.8995 C   0  0  0  0  0  0  0  0  0  0  0  0
  9 10  1  0  0  0
 10 11  2  0  0  0
 10 15  1  0  0  0
 11 12  1  0  0  0
 12 13  2  0  0  0
 13 14  1  0  0  0
 13  6  1  0  0  0
 14 15  2  0  0  0
  6  7  2  0  0  0
  6  8  2  0  0  0
  6  5  1  0  0  0
  5 18  1  0  0  0
  5  4  1  0  0  0
 18 19  1  0  0  0
 19 20  1  0  0  0
 19 21  1  0  0  0
  4  1  1  0  0  0
  1  2  1  0  0  0
  1 22  1  0  0  0
 22 23  1  0  0  0
 22 36  1  0  0  0
 23 24  1  0  0  0
 24 25  2  0  0  0
 24 27  1  0  0  0
 27 28  1  0  0  0
 28 29  1  0  0  0
 28 35  1  0  0  0
 29 30  1  0  0  0
 30 31  1  0  0  0
 31 32  1  0  0  0
 31 35  1  0  0  0
 32 33  1  0  0  0
 33 34  1  0  0  0
 34 35  1  0  0  0
 36 42  1  0  0  0
 37 38  2  0  0  0
 37 42  1  0  0  0
 38 39  1  0  0  0
 39 40  2  0  0  0
 40 41  1  0  0  0
 41 42  2  0  0  0
  9 16  1  0  0  0
  9 17  1  0  0  0
  2  3  1  0  0  0
 23 26  1  0  0  0
M  END
> <minimizedAffinity>
-8.70627

$$$$
