5WL0_21G_A_801


 32 36  0  0  0  0  0  0  0  0999 V2000
  -25.2799    4.3960   11.9935 C   0  0  0  0  0  0  0  0  0  0  0  0
  -25.6188    3.8990   13.2174 N   0  0  0  0  0  0  0  0  0  0  0  0
  -25.3031    4.6704   14.2921 C   0  0  0  0  0  0  0  0  0  0  0  0
  -24.6766    5.9159   14.1542 C   0  0  0  0  0  0  0  0  0  0  0  0
  -24.3459    6.3224   12.8658 C   0  0  0  0  0  0  0  0  0  0  0  0
  -24.6358    5.5574   11.7681 N   0  0  0  0  0  0  0  0  0  0  0  0
  -24.4302    6.7328   15.1938 F   0  0  0  0  0  0  0  0  0  0  0  0
  -24.6595    4.9844    8.8477 C   0  0  0  0  0  0  0  0  0  0  0  0
  -24.6225    4.9406    7.4837 C   0  0  0  0  0  0  0  0  0  0  0  0
  -25.3000    3.9401    6.7287 C   0  0  0  0  0  0  0  0  0  0  0  0
  -26.0422    3.0193    8.6424 C   0  0  0  0  0  0  0  0  0  0  0  0
  -25.3908    4.0001    9.4632 C   0  0  0  0  0  0  0  0  0  0  0  0
  -25.6973    3.6746   10.8122 C   0  0  0  0  0  0  0  0  0  0  0  0
  -26.0247    2.9653    7.2764 N   0  0  0  0  0  0  0  0  0  0  0  0
  -26.4931    2.5245   10.7992 C   0  0  0  0  0  0  0  0  0  0  0  0
  -26.7099    2.1112    9.4931 N   0  0  0  0  0  0  0  0  0  0  0  0
  -23.9316    5.8743    6.8274 F   0  0  0  0  0  0  0  0  0  0  0  0
  -27.2340    1.3272    9.2105 H   0  0  0  0  0  0  0  0  0  0  0  0
  -23.7801    7.5212   12.6736 N   0  0  0  0  0  0  0  0  0  0  0  0
  -23.6445    8.1141   13.4477 H   0  0  0  0  0  0  0  0  0  0  0  0
  -23.3657    7.9680   11.3759 C   0  0  0  0  0  0  0  0  0  0  0  0
  -22.1669    8.9063   11.6592 C   0  0  0  0  0  0  0  0  0  0  0  0
  -22.1763   10.0315   10.6063 C   0  0  0  0  0  0  0  0  0  0  0  0
  -22.5728    9.4524    9.2460 C   0  0  0  0  0  0  0  0  0  0  0  0
  -24.0359    8.9638    9.2540 C   0  0  0  0  0  0  0  0  0  0  0  0
  -24.4949    8.7632   10.6994 C   0  0  0  0  0  0  0  0  0  0  0  0
  -24.6341   10.1743   11.3379 C   0  0  0  0  0  0  0  0  0  0  0  0
  -23.3049   10.9739   11.1305 C   0  0  0  0  0  0  0  0  0  0  0  0
  -20.8820    8.1047   11.7550 C   0  0  0  0  0  0  0  0  0  0  0  0
  -19.8268    8.3272   11.1622 O   0  0  0  0  0  0  0  0  0  0  0  0
  -20.9266    7.0315   12.5677 O   0  0  0  0  0  0  0  0  0  0  0  0
  -19.7583    9.0647   10.5884 H   0  0  0  0  0  0  0  0  0  0  0  0
 16 11  1  0  0  0
 16 15  1  0  0  0
 14 11  1  0  0  0
 14 10  2  0  0  0
 11 12  2  0  0  0
 15 13  2  0  0  0
 10  9  1  0  0  0
 12 13  1  0  0  0
 12  8  1  0  0  0
 13  1  1  0  0  0
  9  8  2  0  0  0
  9 17  1  0  0  0
  2  1  2  0  0  0
  2  3  1  0  0  0
  1  6  1  0  0  0
  3  4  2  0  0  0
  6  5  2  0  0  0
  5  4  1  0  0  0
  5 19  1  0  0  0
  4  7  1  0  0  0
 31 29  2  0  0  0
 19 21  1  0  0  0
 21 26  1  0  0  0
 21 22  1  0  0  0
 29 30  1  0  0  0
 29 22  1  0  0  0
 25 26  1  0  0  0
 25 24  1  0  0  0
 26 27  1  0  0  0
 22 23  1  0  0  0
 24 23  1  0  0  0
 27 28  1  0  0  0
 23 28  1  0  0  0
 16 18  1  0  0  0
 19 20  1  0  0  0
 30 32  1  0  0  0
M  END
> <minimizedAffinity>
-11.81578

$$$$
5WL0_21G_A_801


 32 36  0  0  0  0  0  0  0  0999 V2000
  -25.1164    4.6245    9.4113 C   0  0  0  0  0  0  0  0  0  0  0  0
  -24.9841    4.2544    8.1053 N   0  0  0  0  0  0  0  0  0  0  0  0
  -24.3299    5.1269    7.2927 C   0  0  0  0  0  0  0  0  0  0  0  0
  -23.8054    6.3355    7.7692 C   0  0  0  0  0  0  0  0  0  0  0  0
  -24.0168    6.6356    9.1108 C   0  0  0  0  0  0  0  0  0  0  0  0
  -24.6876    5.7837    9.9465 N   0  0  0  0  0  0  0  0  0  0  0  0
  -23.0833    7.1742    7.0051 F   0  0  0  0  0  0  0  0  0  0  0  0
  -25.2101    4.6859   12.6693 C   0  0  0  0  0  0  0  0  0  0  0  0
  -25.4122    4.3843   13.9853 C   0  0  0  0  0  0  0  0  0  0  0  0
  -26.0786    3.1980   14.4078 C   0  0  0  0  0  0  0  0  0  0  0  0
  -26.3581    2.6059   12.2555 C   0  0  0  0  0  0  0  0  0  0  0  0
  -25.6905    3.7764   11.7613 C   0  0  0  0  0  0  0  0  0  0  0  0
  -25.6972    3.6841   10.3431 C   0  0  0  0  0  0  0  0  0  0  0  0
  -26.5609    2.2825   13.5684 N   0  0  0  0  0  0  0  0  0  0  0  0
  -26.3636    2.5034    9.9996 C   0  0  0  0  0  0  0  0  0  0  0  0
  -26.7741    1.8385   11.1455 N   0  0  0  0  0  0  0  0  0  0  0  0
  -24.9630    5.2278   14.9162 F   0  0  0  0  0  0  0  0  0  0  0  0
  -27.2662    0.9864   11.1789 H   0  0  0  0  0  0  0  0  0  0  0  0
  -23.5039    7.7600    9.6273 N   0  0  0  0  0  0  0  0  0  0  0  0
  -24.0936    8.5377    9.7563 H   0  0  0  0  0  0  0  0  0  0  0  0
  -22.1232    7.8666    9.9982 C   0  0  0  0  0  0  0  0  0  0  0  0
  -22.1578    8.1984   11.5104 C   0  0  0  0  0  0  0  0  0  0  0  0
  -20.9636    9.1187   11.8293 C   0  0  0  0  0  0  0  0  0  0  0  0
  -19.7414    8.6623   11.0289 C   0  0  0  0  0  0  0  0  0  0  0  0
  -19.9560    8.8735    9.5161 C   0  0  0  0  0  0  0  0  0  0  0  0
  -21.4521    9.0190    9.2322 C   0  0  0  0  0  0  0  0  0  0  0  0
  -21.8974   10.3945    9.8051 C   0  0  0  0  0  0  0  0  0  0  0  0
  -21.4554   10.5034   11.3025 C   0  0  0  0  0  0  0  0  0  0  0  0
  -22.2427    6.9225   12.3275 C   0  0  0  0  0  0  0  0  0  0  0  0
  -22.7043    6.8013   13.4617 O   0  0  0  0  0  0  0  0  0  0  0  0
  -21.7402    5.8209   11.7376 O   0  0  0  0  0  0  0  0  0  0  0  0
  -23.0626    7.5457   13.9038 H   0  0  0  0  0  0  0  0  0  0  0  0
 16 11  1  0  0  0
 16 15  1  0  0  0
 14 11  1  0  0  0
 14 10  2  0  0  0
 11 12  2  0  0  0
 15 13  2  0  0  0
 10  9  1  0  0  0
 12 13  1  0  0  0
 12  8  1  0  0  0
 13  1  1  0  0  0
  9  8  2  0  0  0
  9 17  1  0  0  0
  2  1  2  0  0  0
  2  3  1  0  0  0
  1  6  1  0  0  0
  3  4  2  0  0  0
  6  5  2  0  0  0
  5  4  1  0  0  0
  5 19  1  0  0  0
  4  7  1  0  0  0
 31 29  2  0  0  0
 19 21  1  0  0  0
 21 26  1  0  0  0
 21 22  1  0  0  0
 29 30  1  0  0  0
 29 22  1  0  0  0
 25 26  1  0  0  0
 25 24  1  0  0  0
 26 27  1  0  0  0
 22 23  1  0  0  0
 24 23  1  0  0  0
 27 28  1  0  0  0
 23 28  1  0  0  0
 16 18  1  0  0  0
 19 20  1  0  0  0
 30 32  1  0  0  0
M  END
> <minimizedAffinity>
-10.69998

$$$$
5WL0_21G_A_801


 32 36  0  0  0  0  0  0  0  0999 V2000
  -18.8123    8.6599   10.1855 C   0  0  0  0  0  0  0  0  0  0  0  0
  -18.2691    8.2364    9.0085 N   0  0  0  0  0  0  0  0  0  0  0  0
  -18.9842    7.3149    8.3091 C   0  0  0  0  0  0  0  0  0  0  0  0
  -20.2198    6.8340    8.7616 C   0  0  0  0  0  0  0  0  0  0  0  0
  -20.6758    7.3062    9.9878 C   0  0  0  0  0  0  0  0  0  0  0  0
  -19.9674    8.2200   10.7208 N   0  0  0  0  0  0  0  0  0  0  0  0
  -20.9836    5.9872    8.0486 F   0  0  0  0  0  0  0  0  0  0  0  0
  -20.0423   11.3820   11.4910 C   0  0  0  0  0  0  0  0  0  0  0  0
  -20.2025   12.5853   12.1156 C   0  0  0  0  0  0  0  0  0  0  0  0
  -19.1142   13.3039   12.6892 C   0  0  0  0  0  0  0  0  0  0  0  0
  -17.7133   11.6640   12.0494 C   0  0  0  0  0  0  0  0  0  0  0  0
  -18.7617   10.8918   11.4455 C   0  0  0  0  0  0  0  0  0  0  0  0
  -18.1542    9.7239   10.9100 C   0  0  0  0  0  0  0  0  0  0  0  0
  -17.8530   12.8743   12.6698 N   0  0  0  0  0  0  0  0  0  0  0  0
  -16.7874    9.7875   11.2000 C   0  0  0  0  0  0  0  0  0  0  0  0
  -16.5023   10.9547   11.8930 N   0  0  0  0  0  0  0  0  0  0  0  0
  -21.4242   13.1165   12.1875 F   0  0  0  0  0  0  0  0  0  0  0  0
  -15.6166   11.2372   12.2169 H   0  0  0  0  0  0  0  0  0  0  0  0
  -21.8686    6.9084   10.4494 N   0  0  0  0  0  0  0  0  0  0  0  0
  -22.0504    5.9444   10.5324 H   0  0  0  0  0  0  0  0  0  0  0  0
  -22.8890    7.8423   10.8264 C   0  0  0  0  0  0  0  0  0  0  0  0
  -24.2095    7.1653   10.3838 C   0  0  0  0  0  0  0  0  0  0  0  0
  -25.1917    8.2677    9.9423 C   0  0  0  0  0  0  0  0  0  0  0  0
  -25.0592    9.4719   10.8778 C   0  0  0  0  0  0  0  0  0  0  0  0
  -23.6802   10.1460   10.7258 C   0  0  0  0  0  0  0  0  0  0  0  0
  -22.7078    9.1667   10.0659 C   0  0  0  0  0  0  0  0  0  0  0  0
  -23.1453    9.0140    8.5814 C   0  0  0  0  0  0  0  0  0  0  0  0
  -24.6637    8.6398    8.5212 C   0  0  0  0  0  0  0  0  0  0  0  0
  -24.7120    6.2316   11.4693 C   0  0  0  0  0  0  0  0  0  0  0  0
  -25.4047    5.2261   11.3161 O   0  0  0  0  0  0  0  0  0  0  0  0
  -24.3657    6.5647   12.7276 O   0  0  0  0  0  0  0  0  0  0  0  0
  -25.6652    4.9633   10.4552 H   0  0  0  0  0  0  0  0  0  0  0  0
 16 11  1  0  0  0
 16 15  1  0  0  0
 14 11  1  0  0  0
 14 10  2  0  0  0
 11 12  2  0  0  0
 15 13  2  0  0  0
 10  9  1  0  0  0
 12 13  1  0  0  0
 12  8  1  0  0  0
 13  1  1  0  0  0
  9  8  2  0  0  0
  9 17  1  0  0  0
  2  1  2  0  0  0
  2  3  1  0  0  0
  1  6  1  0  0  0
  3  4  2  0  0  0
  6  5  2  0  0  0
  5  4  1  0  0  0
  5 19  1  0  0  0
  4  7  1  0  0  0
 31 29  2  0  0  0
 19 21  1  0  0  0
 21 26  1  0  0  0
 21 22  1  0  0  0
 29 30  1  0  0  0
 29 22  1  0  0  0
 25 26  1  0  0  0
 25 24  1  0  0  0
 26 27  1  0  0  0
 22 23  1  0  0  0
 24 23  1  0  0  0
 27 28  1  0  0  0
 23 28  1  0  0  0
 16 18  1  0  0  0
 19 20  1  0  0  0
 30 32  1  0  0  0
M  END
> <minimizedAffinity>
-10.62918

$$$$
5WL0_21G_A_801


 32 36  0  0  0  0  0  0  0  0999 V2000
  -25.8045    3.3471   12.9323 C   0  0  0  0  0  0  0  0  0  0  0  0
  -26.6764    2.6735   12.1284 N   0  0  0  0  0  0  0  0  0  0  0  0
  -26.5896    2.9276   10.7952 C   0  0  0  0  0  0  0  0  0  0  0  0
  -25.6476    3.8212   10.2689 C   0  0  0  0  0  0  0  0  0  0  0  0
  -24.8216    4.4802   11.1733 C   0  0  0  0  0  0  0  0  0  0  0  0
  -24.9000    4.2568   12.5217 N   0  0  0  0  0  0  0  0  0  0  0  0
  -25.4870    4.0257    8.9494 F   0  0  0  0  0  0  0  0  0  0  0  0
  -24.8127    0.6361   14.4468 C   0  0  0  0  0  0  0  0  0  0  0  0
  -24.5148   -0.3159   15.3788 C   0  0  0  0  0  0  0  0  0  0  0  0
  -24.7253   -0.1175   16.7738 C   0  0  0  0  0  0  0  0  0  0  0  0
  -25.5099    1.9472   16.3469 C   0  0  0  0  0  0  0  0  0  0  0  0
  -25.3302    1.8116   14.9294 C   0  0  0  0  0  0  0  0  0  0  0  0
  -25.7726    3.0277   14.3419 C   0  0  0  0  0  0  0  0  0  0  0  0
  -25.2270    1.0022   17.2935 N   0  0  0  0  0  0  0  0  0  0  0  0
  -26.1877    3.8710   15.3776 C   0  0  0  0  0  0  0  0  0  0  0  0
  -26.0327    3.2344   16.6000 N   0  0  0  0  0  0  0  0  0  0  0  0
  -24.0132   -1.4828   14.9705 F   0  0  0  0  0  0  0  0  0  0  0  0
  -26.2481    3.6114   17.4836 H   0  0  0  0  0  0  0  0  0  0  0  0
  -23.8778    5.3165   10.7215 N   0  0  0  0  0  0  0  0  0  0  0  0
  -22.9429    5.1725   10.9942 H   0  0  0  0  0  0  0  0  0  0  0  0
  -24.1865    6.4148    9.8532 C   0  0  0  0  0  0  0  0  0  0  0  0
  -22.8199    6.8190    9.2472 C   0  0  0  0  0  0  0  0  0  0  0  0
  -22.8218    8.3446    9.0293 C   0  0  0  0  0  0  0  0  0  0  0  0
  -24.2005    8.7860    8.5319 C   0  0  0  0  0  0  0  0  0  0  0  0
  -25.2757    8.5831    9.6191 C   0  0  0  0  0  0  0  0  0  0  0  0
  -24.7602    7.5901   10.6623 C   0  0  0  0  0  0  0  0  0  0  0  0
  -23.6373    8.3070   11.4645 C   0  0  0  0  0  0  0  0  0  0  0  0
  -22.5785    8.8911   10.4711 C   0  0  0  0  0  0  0  0  0  0  0  0
  -22.5190    5.9788    8.0200 C   0  0  0  0  0  0  0  0  0  0  0  0
  -21.4077    5.6783    7.5851 O   0  0  0  0  0  0  0  0  0  0  0  0
  -23.5950    5.5380    7.3401 O   0  0  0  0  0  0  0  0  0  0  0  0
  -20.6361    5.9671    8.0315 H   0  0  0  0  0  0  0  0  0  0  0  0
 16 11  1  0  0  0
 16 15  1  0  0  0
 14 11  1  0  0  0
 14 10  2  0  0  0
 11 12  2  0  0  0
 15 13  2  0  0  0
 10  9  1  0  0  0
 12 13  1  0  0  0
 12  8  1  0  0  0
 13  1  1  0  0  0
  9  8  2  0  0  0
  9 17  1  0  0  0
  2  1  2  0  0  0
  2  3  1  0  0  0
  1  6  1  0  0  0
  3  4  2  0  0  0
  6  5  2  0  0  0
  5  4  1  0  0  0
  5 19  1  0  0  0
  4  7  1  0  0  0
 31 29  2  0  0  0
 19 21  1  0  0  0
 21 26  1  0  0  0
 21 22  1  0  0  0
 29 30  1  0  0  0
 29 22  1  0  0  0
 25 26  1  0  0  0
 25 24  1  0  0  0
 26 27  1  0  0  0
 22 23  1  0  0  0
 24 23  1  0  0  0
 27 28  1  0  0  0
 23 28  1  0  0  0
 16 18  1  0  0  0
 19 20  1  0  0  0
 30 32  1  0  0  0
M  END
> <minimizedAffinity>
-10.62562

$$$$
5WL0_21G_A_801


 32 36  0  0  0  0  0  0  0  0999 V2000
  -26.0596    2.9509   12.5437 C   0  0  0  0  0  0  0  0  0  0  0  0
  -26.8478    2.3412   11.6126 N   0  0  0  0  0  0  0  0  0  0  0  0
  -26.6662    2.7261   10.3209 C   0  0  0  0  0  0  0  0  0  0  0  0
  -25.7124    3.6863    9.9589 C   0  0  0  0  0  0  0  0  0  0  0  0
  -24.9772    4.2708   10.9848 C   0  0  0  0  0  0  0  0  0  0  0  0
  -25.1524    3.9150   12.2951 N   0  0  0  0  0  0  0  0  0  0  0  0
  -25.4569    4.0220    8.6819 F   0  0  0  0  0  0  0  0  0  0  0  0
  -28.4828    3.1771   14.7127 C   0  0  0  0  0  0  0  0  0  0  0  0
  -29.2471    3.1157   15.8422 C   0  0  0  0  0  0  0  0  0  0  0  0
  -28.7792    2.5334   17.0554 C   0  0  0  0  0  0  0  0  0  0  0  0
  -26.8192    2.0625   16.0566 C   0  0  0  0  0  0  0  0  0  0  0  0
  -27.2240    2.6394   14.8062 C   0  0  0  0  0  0  0  0  0  0  0  0
  -26.1268    2.4959   13.9143 C   0  0  0  0  0  0  0  0  0  0  0  0
  -27.5664    2.0009   17.1999 N   0  0  0  0  0  0  0  0  0  0  0  0
  -25.1039    1.8379   14.6050 C   0  0  0  0  0  0  0  0  0  0  0  0
  -25.5067    1.5644   15.9037 N   0  0  0  0  0  0  0  0  0  0  0  0
  -30.4791    3.6266   15.8152 F   0  0  0  0  0  0  0  0  0  0  0  0
  -24.9744    1.1062   16.5935 H   0  0  0  0  0  0  0  0  0  0  0  0
  -24.0256    5.1667   10.6912 N   0  0  0  0  0  0  0  0  0  0  0  0
  -23.1184    5.0334   11.0494 H   0  0  0  0  0  0  0  0  0  0  0  0
  -24.2870    6.3137    9.8718 C   0  0  0  0  0  0  0  0  0  0  0  0
  -22.8955    6.7192    9.3266 C   0  0  0  0  0  0  0  0  0  0  0  0
  -22.8610    8.2536    9.1870 C   0  0  0  0  0  0  0  0  0  0  0  0
  -24.2155    8.7484    8.6738 C   0  0  0  0  0  0  0  0  0  0  0  0
  -25.3262    8.5135    9.7180 C   0  0  0  0  0  0  0  0  0  0  0  0
  -24.8613    7.4584   10.7233 C   0  0  0  0  0  0  0  0  0  0  0  0
  -23.7488    8.1100   11.5929 C   0  0  0  0  0  0  0  0  0  0  0  0
  -22.6498    8.7212   10.6613 C   0  0  0  0  0  0  0  0  0  0  0  0
  -22.5748    5.9360    8.0671 C   0  0  0  0  0  0  0  0  0  0  0  0
  -21.4567    5.6528    7.6381 O   0  0  0  0  0  0  0  0  0  0  0  0
  -23.6396    5.5304    7.3488 O   0  0  0  0  0  0  0  0  0  0  0  0
  -20.6925    5.9183    8.1107 H   0  0  0  0  0  0  0  0  0  0  0  0
 16 11  1  0  0  0
 16 15  1  0  0  0
 14 11  1  0  0  0
 14 10  2  0  0  0
 11 12  2  0  0  0
 15 13  2  0  0  0
 10  9  1  0  0  0
 12 13  1  0  0  0
 12  8  1  0  0  0
 13  1  1  0  0  0
  9  8  2  0  0  0
  9 17  1  0  0  0
  2  1  2  0  0  0
  2  3  1  0  0  0
  1  6  1  0  0  0
  3  4  2  0  0  0
  6  5  2  0  0  0
  5  4  1  0  0  0
  5 19  1  0  0  0
  4  7  1  0  0  0
 31 29  2  0  0  0
 19 21  1  0  0  0
 21 26  1  0  0  0
 21 22  1  0  0  0
 29 30  1  0  0  0
 29 22  1  0  0  0
 25 26  1  0  0  0
 25 24  1  0  0  0
 26 27  1  0  0  0
 22 23  1  0  0  0
 24 23  1  0  0  0
 27 28  1  0  0  0
 23 28  1  0  0  0
 16 18  1  0  0  0
 19 20  1  0  0  0
 30 32  1  0  0  0
M  END
> <minimizedAffinity>
-10.50378

$$$$
5WL0_21G_A_801


 32 36  0  0  0  0  0  0  0  0999 V2000
  -26.0860    2.7759   12.3054 C   0  0  0  0  0  0  0  0  0  0  0  0
  -26.4154    1.8515   11.3584 N   0  0  0  0  0  0  0  0  0  0  0  0
  -26.2975    2.2452   10.0619 C   0  0  0  0  0  0  0  0  0  0  0  0
  -25.8485    3.5254    9.7123 C   0  0  0  0  0  0  0  0  0  0  0  0
  -25.5642    4.4056   10.7511 C   0  0  0  0  0  0  0  0  0  0  0  0
  -25.6916    4.0411   12.0645 N   0  0  0  0  0  0  0  0  0  0  0  0
  -25.6443    3.9095    8.4396 F   0  0  0  0  0  0  0  0  0  0  0  0
  -28.4030    3.0538   14.5816 C   0  0  0  0  0  0  0  0  0  0  0  0
  -29.1100    3.0262   15.7492 C   0  0  0  0  0  0  0  0  0  0  0  0
  -28.5743    2.4980   16.9591 C   0  0  0  0  0  0  0  0  0  0  0  0
  -26.6587    2.0150   15.8831 C   0  0  0  0  0  0  0  0  0  0  0  0
  -27.1330    2.5372   14.6331 C   0  0  0  0  0  0  0  0  0  0  0  0
  -26.0789    2.3738   13.6941 C   0  0  0  0  0  0  0  0  0  0  0  0
  -27.3477    1.9879   17.0636 N   0  0  0  0  0  0  0  0  0  0  0  0
  -25.0134    1.7571   14.3578 C   0  0  0  0  0  0  0  0  0  0  0  0
  -25.3477    1.5290   15.6844 N   0  0  0  0  0  0  0  0  0  0  0  0
  -30.3496    3.5191   15.7638 F   0  0  0  0  0  0  0  0  0  0  0  0
  -24.7752    1.1053   16.3640 H   0  0  0  0  0  0  0  0  0  0  0  0
  -25.0953    5.6292   10.4736 N   0  0  0  0  0  0  0  0  0  0  0  0
  -25.7131    6.3951   10.5054 H   0  0  0  0  0  0  0  0  0  0  0  0
  -23.7220    5.8586   10.1319 C   0  0  0  0  0  0  0  0  0  0  0  0
  -23.3382    7.1323   10.9246 C   0  0  0  0  0  0  0  0  0  0  0  0
  -22.3222    7.9332   10.0872 C   0  0  0  0  0  0  0  0  0  0  0  0
  -21.3543    6.9665    9.4004 C   0  0  0  0  0  0  0  0  0  0  0  0
  -22.0809    6.1064    8.3462 C   0  0  0  0  0  0  0  0  0  0  0  0
  -23.5851    6.1283    8.6240 C   0  0  0  0  0  0  0  0  0  0  0  0
  -24.0974    7.5534    8.2703 C   0  0  0  0  0  0  0  0  0  0  0  0
  -23.2317    8.6198    9.0204 C   0  0  0  0  0  0  0  0  0  0  0  0
  -22.8913    6.7647   12.3273 C   0  0  0  0  0  0  0  0  0  0  0  0
  -23.5012    6.0682   13.1380 O   0  0  0  0  0  0  0  0  0  0  0  0
  -21.7069    7.2776   12.7123 O   0  0  0  0  0  0  0  0  0  0  0  0
  -24.3284    5.6943   12.9056 H   0  0  0  0  0  0  0  0  0  0  0  0
 16 11  1  0  0  0
 16 15  1  0  0  0
 14 11  1  0  0  0
 14 10  2  0  0  0
 11 12  2  0  0  0
 15 13  2  0  0  0
 10  9  1  0  0  0
 12 13  1  0  0  0
 12  8  1  0  0  0
 13  1  1  0  0  0
  9  8  2  0  0  0
  9 17  1  0  0  0
  2  1  2  0  0  0
  2  3  1  0  0  0
  1  6  1  0  0  0
  3  4  2  0  0  0
  6  5  2  0  0  0
  5  4  1  0  0  0
  5 19  1  0  0  0
  4  7  1  0  0  0
 31 29  2  0  0  0
 19 21  1  0  0  0
 21 26  1  0  0  0
 21 22  1  0  0  0
 29 30  1  0  0  0
 29 22  1  0  0  0
 25 26  1  0  0  0
 25 24  1  0  0  0
 26 27  1  0  0  0
 22 23  1  0  0  0
 24 23  1  0  0  0
 27 28  1  0  0  0
 23 28  1  0  0  0
 16 18  1  0  0  0
 19 20  1  0  0  0
 30 32  1  0  0  0
M  END
> <minimizedAffinity>
-10.33155

$$$$
5WL0_21G_A_801


 32 36  0  0  0  0  0  0  0  0999 V2000
  -21.0429   11.9973   11.7595 C   0  0  0  0  0  0  0  0  0  0  0  0
  -21.9556   12.5335   12.6194 N   0  0  0  0  0  0  0  0  0  0  0  0
  -23.2366   12.0944   12.4928 C   0  0  0  0  0  0  0  0  0  0  0  0
  -23.6017   11.1326   11.5418 C   0  0  0  0  0  0  0  0  0  0  0  0
  -22.6036   10.6674   10.6921 C   0  0  0  0  0  0  0  0  0  0  0  0
  -21.3102   11.1059   10.7858 N   0  0  0  0  0  0  0  0  0  0  0  0
  -24.8428   10.6222   11.4531 F   0  0  0  0  0  0  0  0  0  0  0  0
  -18.3707   10.1859   11.3062 C   0  0  0  0  0  0  0  0  0  0  0  0
  -17.0850    9.7316   11.2414 C   0  0  0  0  0  0  0  0  0  0  0  0
  -15.9651   10.5451   11.5787 C   0  0  0  0  0  0  0  0  0  0  0  0
  -17.3596   12.2508   12.0339 C   0  0  0  0  0  0  0  0  0  0  0  0
  -18.5314   11.4853   11.7162 C   0  0  0  0  0  0  0  0  0  0  0  0
  -19.6481   12.3387   11.9273 C   0  0  0  0  0  0  0  0  0  0  0  0
  -16.0662   11.8103   11.9846 N   0  0  0  0  0  0  0  0  0  0  0  0
  -19.1581   13.5814   12.3417 C   0  0  0  0  0  0  0  0  0  0  0  0
  -17.7731   13.5479   12.4089 N   0  0  0  0  0  0  0  0  0  0  0  0
  -16.8645    8.4742   10.8542 F   0  0  0  0  0  0  0  0  0  0  0  0
  -17.1852   14.2930   12.6705 H   0  0  0  0  0  0  0  0  0  0  0  0
  -22.8897    9.7197    9.7897 N   0  0  0  0  0  0  0  0  0  0  0  0
  -22.8598    9.9481    8.8326 H   0  0  0  0  0  0  0  0  0  0  0  0
  -23.2381    8.3832   10.1740 C   0  0  0  0  0  0  0  0  0  0  0  0
  -22.0386    7.5247    9.7025 C   0  0  0  0  0  0  0  0  0  0  0  0
  -22.5731    6.1448    9.2725 C   0  0  0  0  0  0  0  0  0  0  0  0
  -23.6802    5.7056   10.2340 C   0  0  0  0  0  0  0  0  0  0  0  0
  -24.9181    6.6178   10.1117 C   0  0  0  0  0  0  0  0  0  0  0  0
  -24.5140    7.9329    9.4430 C   0  0  0  0  0  0  0  0  0  0  0  0
  -24.2115    7.6164    7.9508 C   0  0  0  0  0  0  0  0  0  0  0  0
  -23.1803    6.4423    7.8655 C   0  0  0  0  0  0  0  0  0  0  0  0
  -20.9531    7.5093   10.7628 C   0  0  0  0  0  0  0  0  0  0  0  0
  -20.9973    8.0390   11.8727 O   0  0  0  0  0  0  0  0  0  0  0  0
  -19.8243    6.8550   10.4284 O   0  0  0  0  0  0  0  0  0  0  0  0
  -21.7662    8.5029   12.1401 H   0  0  0  0  0  0  0  0  0  0  0  0
 16 11  1  0  0  0
 16 15  1  0  0  0
 14 11  1  0  0  0
 14 10  2  0  0  0
 11 12  2  0  0  0
 15 13  2  0  0  0
 10  9  1  0  0  0
 12 13  1  0  0  0
 12  8  1  0  0  0
 13  1  1  0  0  0
  9  8  2  0  0  0
  9 17  1  0  0  0
  2  1  2  0  0  0
  2  3  1  0  0  0
  1  6  1  0  0  0
  3  4  2  0  0  0
  6  5  2  0  0  0
  5  4  1  0  0  0
  5 19  1  0  0  0
  4  7  1  0  0  0
 31 29  2  0  0  0
 19 21  1  0  0  0
 21 26  1  0  0  0
 21 22  1  0  0  0
 29 30  1  0  0  0
 29 22  1  0  0  0
 25 26  1  0  0  0
 25 24  1  0  0  0
 26 27  1  0  0  0
 22 23  1  0  0  0
 24 23  1  0  0  0
 27 28  1  0  0  0
 23 28  1  0  0  0
 16 18  1  0  0  0
 19 20  1  0  0  0
 30 32  1  0  0  0
M  END
> <minimizedAffinity>
-10.19865

$$$$
5WL0_21G_A_801


 32 36  0  0  0  0  0  0  0  0999 V2000
  -25.9539    2.9211   12.5466 C   0  0  0  0  0  0  0  0  0  0  0  0
  -26.3148    1.9528   11.6565 N   0  0  0  0  0  0  0  0  0  0  0  0
  -26.2405    2.2839   10.3395 C   0  0  0  0  0  0  0  0  0  0  0  0
  -25.8036    3.5452    9.9140 C   0  0  0  0  0  0  0  0  0  0  0  0
  -25.4847    4.4736   10.8994 C   0  0  0  0  0  0  0  0  0  0  0  0
  -25.5680    4.1727   12.2322 N   0  0  0  0  0  0  0  0  0  0  0  0
  -25.6422    3.8675    8.6183 F   0  0  0  0  0  0  0  0  0  0  0  0
  -24.5150    0.4127   14.0515 C   0  0  0  0  0  0  0  0  0  0  0  0
  -24.0698   -0.4853   14.9784 C   0  0  0  0  0  0  0  0  0  0  0  0
  -24.3503   -0.3564   16.3693 C   0  0  0  0  0  0  0  0  0  0  0  0
  -25.4939    1.5346   15.9485 C   0  0  0  0  0  0  0  0  0  0  0  0
  -25.2548    1.4621   14.5351 C   0  0  0  0  0  0  0  0  0  0  0  0
  -25.9002    2.5860   13.9519 C   0  0  0  0  0  0  0  0  0  0  0  0
  -25.0651    0.6405   16.8897 N   0  0  0  0  0  0  0  0  0  0  0  0
  -26.4922    3.3174   14.9867 C   0  0  0  0  0  0  0  0  0  0  0  0
  -26.2537    2.6972   16.2041 N   0  0  0  0  0  0  0  0  0  0  0  0
  -23.3491   -1.5306   14.5687 F   0  0  0  0  0  0  0  0  0  0  0  0
  -26.5587    3.0105   17.0862 H   0  0  0  0  0  0  0  0  0  0  0  0
  -25.0254    5.6819   10.5480 N   0  0  0  0  0  0  0  0  0  0  0  0
  -25.6464    6.4458   10.5457 H   0  0  0  0  0  0  0  0  0  0  0  0
  -23.6580    5.8975   10.1753 C   0  0  0  0  0  0  0  0  0  0  0  0
  -23.2523    7.1835   10.9366 C   0  0  0  0  0  0  0  0  0  0  0  0
  -22.2489    7.9633   10.0648 C   0  0  0  0  0  0  0  0  0  0  0  0
  -21.2995    6.9789    9.3773 C   0  0  0  0  0  0  0  0  0  0  0  0
  -22.0510    6.1033    8.3536 C   0  0  0  0  0  0  0  0  0  0  0  0
  -23.5493    6.1386    8.6603 C   0  0  0  0  0  0  0  0  0  0  0  0
  -24.0613    7.5596    8.2903 C   0  0  0  0  0  0  0  0  0  0  0  0
  -23.1757    8.6350    9.0034 C   0  0  0  0  0  0  0  0  0  0  0  0
  -22.7798    6.8395   12.3369 C   0  0  0  0  0  0  0  0  0  0  0  0
  -23.3876    6.1813   13.1805 O   0  0  0  0  0  0  0  0  0  0  0  0
  -21.5723    7.3286   12.6787 O   0  0  0  0  0  0  0  0  0  0  0  0
  -24.2304    5.8250   12.9788 H   0  0  0  0  0  0  0  0  0  0  0  0
 16 11  1  0  0  0
 16 15  1  0  0  0
 14 11  1  0  0  0
 14 10  2  0  0  0
 11 12  2  0  0  0
 15 13  2  0  0  0
 10  9  1  0  0  0
 12 13  1  0  0  0
 12  8  1  0  0  0
 13  1  1  0  0  0
  9  8  2  0  0  0
  9 17  1  0  0  0
  2  1  2  0  0  0
  2  3  1  0  0  0
  1  6  1  0  0  0
  3  4  2  0  0  0
  6  5  2  0  0  0
  5  4  1  0  0  0
  5 19  1  0  0  0
  4  7  1  0  0  0
 31 29  2  0  0  0
 19 21  1  0  0  0
 21 26  1  0  0  0
 21 22  1  0  0  0
 29 30  1  0  0  0
 29 22  1  0  0  0
 25 26  1  0  0  0
 25 24  1  0  0  0
 26 27  1  0  0  0
 22 23  1  0  0  0
 24 23  1  0  0  0
 27 28  1  0  0  0
 23 28  1  0  0  0
 16 18  1  0  0  0
 19 20  1  0  0  0
 30 32  1  0  0  0
M  END
> <minimizedAffinity>
-9.91732

$$$$
5WL0_21G_A_801


 32 36  0  0  0  0  0  0  0  0999 V2000
  -24.9436    4.8268   11.9372 C   0  0  0  0  0  0  0  0  0  0  0  0
  -25.7859    4.6329   10.8823 N   0  0  0  0  0  0  0  0  0  0  0  0
  -26.5725    3.5245   10.9320 C   0  0  0  0  0  0  0  0  0  0  0  0
  -26.5340    2.6342   12.0130 C   0  0  0  0  0  0  0  0  0  0  0  0
  -25.6211    2.9040   13.0271 C   0  0  0  0  0  0  0  0  0  0  0  0
  -24.8049    4.0025   12.9934 N   0  0  0  0  0  0  0  0  0  0  0  0
  -27.3598    1.5785   12.1243 F   0  0  0  0  0  0  0  0  0  0  0  0
  -24.8285    7.3326    9.8552 C   0  0  0  0  0  0  0  0  0  0  0  0
  -24.5228    8.5012    9.2190 C   0  0  0  0  0  0  0  0  0  0  0  0
  -23.5760    9.4321    9.7356 C   0  0  0  0  0  0  0  0  0  0  0  0
  -23.2338    8.0816   11.5020 C   0  0  0  0  0  0  0  0  0  0  0  0
  -24.1697    7.0983   11.0357 C   0  0  0  0  0  0  0  0  0  0  0  0
  -24.1722    6.0482   11.9933 C   0  0  0  0  0  0  0  0  0  0  0  0
  -22.9078    9.2516   10.8742 N   0  0  0  0  0  0  0  0  0  0  0  0
  -23.2783    6.4008   13.0095 C   0  0  0  0  0  0  0  0  0  0  0  0
  -22.7026    7.6314   12.7305 N   0  0  0  0  0  0  0  0  0  0  0  0
  -25.1271    8.7832    8.0635 F   0  0  0  0  0  0  0  0  0  0  0  0
  -22.0434    8.1050   13.2877 H   0  0  0  0  0  0  0  0  0  0  0  0
  -25.5693    2.1064   14.1020 N   0  0  0  0  0  0  0  0  0  0  0  0
  -25.3664    1.1512   13.9776 H   0  0  0  0  0  0  0  0  0  0  0  0
  -25.8001    2.6002   15.4280 C   0  0  0  0  0  0  0  0  0  0  0  0
  -26.1156    1.3321   16.2589 C   0  0  0  0  0  0  0  0  0  0  0  0
  -27.1398    1.7108   17.3462 C   0  0  0  0  0  0  0  0  0  0  0  0
  -26.8045    3.0977   17.9003 C   0  0  0  0  0  0  0  0  0  0  0  0
  -27.0067    4.1890   16.8290 C   0  0  0  0  0  0  0  0  0  0  0  0
  -27.0156    3.5424   15.4427 C   0  0  0  0  0  0  0  0  0  0  0  0
  -28.3395    2.7359   15.3197 C   0  0  0  0  0  0  0  0  0  0  0  0
  -28.4772    1.7699   16.5432 C   0  0  0  0  0  0  0  0  0  0  0  0
  -24.8311    0.6960   16.7570 C   0  0  0  0  0  0  0  0  0  0  0  0
  -24.1724    1.0341   17.7399 O   0  0  0  0  0  0  0  0  0  0  0  0
  -24.3717   -0.3358   16.0231 O   0  0  0  0  0  0  0  0  0  0  0  0
  -24.4608    1.7477   18.2743 H   0  0  0  0  0  0  0  0  0  0  0  0
 16 11  1  0  0  0
 16 15  1  0  0  0
 14 11  1  0  0  0
 14 10  2  0  0  0
 11 12  2  0  0  0
 15 13  2  0  0  0
 10  9  1  0  0  0
 12 13  1  0  0  0
 12  8  1  0  0  0
 13  1  1  0  0  0
  9  8  2  0  0  0
  9 17  1  0  0  0
  2  1  2  0  0  0
  2  3  1  0  0  0
  1  6  1  0  0  0
  3  4  2  0  0  0
  6  5  2  0  0  0
  5  4  1  0  0  0
  5 19  1  0  0  0
  4  7  1  0  0  0
 31 29  2  0  0  0
 19 21  1  0  0  0
 21 26  1  0  0  0
 21 22  1  0  0  0
 29 30  1  0  0  0
 29 22  1  0  0  0
 25 26  1  0  0  0
 25 24  1  0  0  0
 26 27  1  0  0  0
 22 23  1  0  0  0
 24 23  1  0  0  0
 27 28  1  0  0  0
 23 28  1  0  0  0
 16 18  1  0  0  0
 19 20  1  0  0  0
 30 32  1  0  0  0
M  END
> <minimizedAffinity>
-9.83474

$$$$
5WL0_21G_A_801


 32 36  0  0  0  0  0  0  0  0999 V2000
  -25.7125    3.9799   14.2024 C   0  0  0  0  0  0  0  0  0  0  0  0
  -26.0870    3.1272   13.2060 N   0  0  0  0  0  0  0  0  0  0  0  0
  -25.7345    3.4826   11.9414 C   0  0  0  0  0  0  0  0  0  0  0  0
  -25.0129    4.6529   11.6725 C   0  0  0  0  0  0  0  0  0  0  0  0
  -24.7022    5.4712   12.7534 C   0  0  0  0  0  0  0  0  0  0  0  0
  -25.0607    5.1466   14.0342 N   0  0  0  0  0  0  0  0  0  0  0  0
  -24.5812    4.9826   10.4422 F   0  0  0  0  0  0  0  0  0  0  0  0
  -25.2887    1.1046   15.6789 C   0  0  0  0  0  0  0  0  0  0  0  0
  -25.2578    0.0820   16.5829 C   0  0  0  0  0  0  0  0  0  0  0  0
  -25.6817    0.2383   17.9341 C   0  0  0  0  0  0  0  0  0  0  0  0
  -26.1574    2.3977   17.5198 C   0  0  0  0  0  0  0  0  0  0  0  0
  -25.7532    2.3083   16.1455 C   0  0  0  0  0  0  0  0  0  0  0  0
  -25.9565    3.5936   15.5740 C   0  0  0  0  0  0  0  0  0  0  0  0
  -26.1429    1.3832   18.4362 N   0  0  0  0  0  0  0  0  0  0  0  0
  -26.4506    4.4302   16.5800 C   0  0  0  0  0  0  0  0  0  0  0  0
  -26.5758    3.7236   17.7670 N   0  0  0  0  0  0  0  0  0  0  0  0
  -24.8208   -1.1148   16.1874 F   0  0  0  0  0  0  0  0  0  0  0  0
  -26.8979    4.0815   18.6257 H   0  0  0  0  0  0  0  0  0  0  0  0
  -23.9809    6.5828   12.5577 N   0  0  0  0  0  0  0  0  0  0  0  0
  -23.6697    7.0932   13.3399 H   0  0  0  0  0  0  0  0  0  0  0  0
  -23.6477    7.0525   11.2448 C   0  0  0  0  0  0  0  0  0  0  0  0
  -22.2083    7.6048   11.3900 C   0  0  0  0  0  0  0  0  0  0  0  0
  -22.0552    8.8072   10.4384 C   0  0  0  0  0  0  0  0  0  0  0  0
  -22.7857    8.5137    9.1257 C   0  0  0  0  0  0  0  0  0  0  0  0
  -24.3103    8.4279    9.3441 C   0  0  0  0  0  0  0  0  0  0  0  0
  -24.5967    8.1886   10.8276 C   0  0  0  0  0  0  0  0  0  0  0  0
  -24.2475    9.5031   11.5814 C   0  0  0  0  0  0  0  0  0  0  0  0
  -22.7923    9.9451   11.2122 C   0  0  0  0  0  0  0  0  0  0  0  0
  -21.1957    6.4891   11.2097 C   0  0  0  0  0  0  0  0  0  0  0  0
  -21.3782    5.2877   11.4036 O   0  0  0  0  0  0  0  0  0  0  0  0
  -19.9695    6.8772   10.8098 O   0  0  0  0  0  0  0  0  0  0  0  0
  -22.2183    4.9804   11.6824 H   0  0  0  0  0  0  0  0  0  0  0  0
 16 11  1  0  0  0
 16 15  1  0  0  0
 14 11  1  0  0  0
 14 10  2  0  0  0
 11 12  2  0  0  0
 15 13  2  0  0  0
 10  9  1  0  0  0
 12 13  1  0  0  0
 12  8  1  0  0  0
 13  1  1  0  0  0
  9  8  2  0  0  0
  9 17  1  0  0  0
  2  1  2  0  0  0
  2  3  1  0  0  0
  1  6  1  0  0  0
  3  4  2  0  0  0
  6  5  2  0  0  0
  5  4  1  0  0  0
  5 19  1  0  0  0
  4  7  1  0  0  0
 31 29  2  0  0  0
 19 21  1  0  0  0
 21 26  1  0  0  0
 21 22  1  0  0  0
 29 30  1  0  0  0
 29 22  1  0  0  0
 25 26  1  0  0  0
 25 24  1  0  0  0
 26 27  1  0  0  0
 22 23  1  0  0  0
 24 23  1  0  0  0
 27 28  1  0  0  0
 23 28  1  0  0  0
 16 18  1  0  0  0
 19 20  1  0  0  0
 30 32  1  0  0  0
M  END
> <minimizedAffinity>
-9.76604

$$$$
