3IBU_O48_A_300


 17 16  0  0  0  0  0  0  0  0999 V2000
   -4.9351    2.0682   12.2584 C   0  0  0  0  0  0  0  0  0  0  0  0
   -4.2317    1.4317   13.4440 C   0  0  0  0  0  0  0  0  0  0  0  0
   -4.9878    1.7627   14.6514 O   0  0  0  0  0  0  0  0  0  0  0  0
   -5.5946    1.6579   17.1290 N   0  0  0  0  0  0  0  0  0  0  0  0
   -3.2780    1.4816   16.3327 O   0  0  0  0  0  0  0  0  0  0  0  0
   -4.6099    1.0956   16.0325 S   0  0  0  0  0  0  0  0  0  0  0  0
   -4.8914   -0.2830   15.8429 O   0  0  0  0  0  0  0  0  0  0  0  0
   -5.3707    1.2414   18.0327 H   0  0  0  0  0  0  0  0  0  0  0  0
   -6.5546    1.4247   16.8756 H   0  0  0  0  0  0  0  0  0  0  0  0
   -4.9821    1.2125   10.9987 C   0  0  0  0  0  0  0  0  0  0  0  0
   -4.3285   -0.1454   11.1161 C   0  0  0  0  0  0  0  0  0  0  0  0
   -3.0907   -0.2734   10.2653 C   0  0  0  0  0  0  0  0  0  0  0  0
   -1.8435    0.2560   10.9078 C   0  0  0  0  0  0  0  0  0  0  0  0
   -1.3461    1.5400   10.2917 C   0  0  0  0  0  0  0  0  0  0  0  0
   -1.0387    2.6051   11.3080 C   0  0  0  0  0  0  0  0  0  0  0  0
   -1.7204    3.9277   11.0542 C   0  0  0  0  0  0  0  0  0  0  0  0
   -2.6543    3.9348    9.8833 C   0  0  0  0  0  0  0  0  0  0  0  0
  2  1  1  0  0  0
  2  3  1  0  0  0
  4  6  1  0  0  0
  5  6  2  0  0  0
  6  7  2  0  0  0
  6  3  1  0  0  0
  1 10  1  0  0  0
 10 11  1  0  0  0
 11 12  1  0  0  0
 12 13  1  0  0  0
 13 14  1  0  0  0
 14 15  1  0  0  0
 15 16  1  0  0  0
 16 17  1  0  0  0
  4  8  1  0  0  0
  4  9  1  0  0  0
M  END
> <minimizedAffinity>
-5.32243

$$$$
3IBU_O48_A_300


 17 16  0  0  0  0  0  0  0  0999 V2000
   -4.6815    1.3494   11.9312 C   0  0  0  0  0  0  0  0  0  0  0  0
   -4.3263    1.9588   13.2758 C   0  0  0  0  0  0  0  0  0  0  0  0
   -4.3666    0.8966   14.2803 O   0  0  0  0  0  0  0  0  0  0  0  0
   -5.1825   -0.0252   16.5169 N   0  0  0  0  0  0  0  0  0  0  0  0
   -5.5357    2.3115   15.8488 O   0  0  0  0  0  0  0  0  0  0  0  0
   -4.5934    1.2518   15.8027 S   0  0  0  0  0  0  0  0  0  0  0  0
   -3.2859    1.4828   16.3057 O   0  0  0  0  0  0  0  0  0  0  0  0
   -5.3383    0.1788   17.5040 H   0  0  0  0  0  0  0  0  0  0  0  0
   -4.5229   -0.7983   16.4295 H   0  0  0  0  0  0  0  0  0  0  0  0
   -4.0938   -0.0321   11.6717 C   0  0  0  0  0  0  0  0  0  0  0  0
   -3.0389   -0.0921   10.5906 C   0  0  0  0  0  0  0  0  0  0  0  0
   -1.7377    0.5441   11.0082 C   0  0  0  0  0  0  0  0  0  0  0  0
   -1.2197    1.5746   10.0498 C   0  0  0  0  0  0  0  0  0  0  0  0
   -1.7412    2.9643   10.3187 C   0  0  0  0  0  0  0  0  0  0  0  0
   -1.2911    3.5208   11.6415 C   0  0  0  0  0  0  0  0  0  0  0  0
   -2.0520    4.7416   12.0984 C   0  0  0  0  0  0  0  0  0  0  0  0
   -3.3213    5.0040   11.3478 C   0  0  0  0  0  0  0  0  0  0  0  0
  2  1  1  0  0  0
  2  3  1  0  0  0
  4  6  1  0  0  0
  5  6  2  0  0  0
  6  7  2  0  0  0
  6  3  1  0  0  0
  1 10  1  0  0  0
 10 11  1  0  0  0
 11 12  1  0  0  0
 12 13  1  0  0  0
 13 14  1  0  0  0
 14 15  1  0  0  0
 15 16  1  0  0  0
 16 17  1  0  0  0
  4  8  1  0  0  0
  4  9  1  0  0  0
M  END
> <minimizedAffinity>
-5.14674

$$$$
3IBU_O48_A_300


 17 16  0  0  0  0  0  0  0  0999 V2000
   -2.7492    3.9169   12.6099 C   0  0  0  0  0  0  0  0  0  0  0  0
   -3.4338    3.5050   11.3187 C   0  0  0  0  0  0  0  0  0  0  0  0
   -3.1825    2.0800   11.1064 O   0  0  0  0  0  0  0  0  0  0  0  0
   -5.7162    1.8514   10.8923 N   0  0  0  0  0  0  0  0  0  0  0  0
   -4.3943    0.4618   12.4264 O   0  0  0  0  0  0  0  0  0  0  0  0
   -4.3797    1.0498   11.1352 S   0  0  0  0  0  0  0  0  0  0  0  0
   -4.1482    0.2143   10.0108 O   0  0  0  0  0  0  0  0  0  0  0  0
   -6.5066    1.2068   10.9063 H   0  0  0  0  0  0  0  0  0  0  0  0
   -5.6734    2.3172    9.9859 H   0  0  0  0  0  0  0  0  0  0  0  0
   -2.9984    5.3561   13.0435 C   0  0  0  0  0  0  0  0  0  0  0  0
   -3.7994    5.5174   14.3153 C   0  0  0  0  0  0  0  0  0  0  0  0
   -5.2768    5.6731   14.0594 C   0  0  0  0  0  0  0  0  0  0  0  0
   -6.1380    4.7010   14.8090 C   0  0  0  0  0  0  0  0  0  0  0  0
   -5.8826    3.2606   14.4410 C   0  0  0  0  0  0  0  0  0  0  0  0
   -5.6099    2.3838   15.6320 C   0  0  0  0  0  0  0  0  0  0  0  0
   -6.6873    2.4106   16.6887 C   0  0  0  0  0  0  0  0  0  0  0  0
   -7.1223    1.0614   17.1722 C   0  0  0  0  0  0  0  0  0  0  0  0
  2  1  1  0  0  0
  2  3  1  0  0  0
  4  6  1  0  0  0
  5  6  2  0  0  0
  6  7  2  0  0  0
  6  3  1  0  0  0
  1 10  1  0  0  0
 10 11  1  0  0  0
 11 12  1  0  0  0
 12 13  1  0  0  0
 13 14  1  0  0  0
 14 15  1  0  0  0
 15 16  1  0  0  0
 16 17  1  0  0  0
  4  8  1  0  0  0
  4  9  1  0  0  0
M  END
> <minimizedAffinity>
-5.11779

$$$$
3IBU_O48_A_300


 17 16  0  0  0  0  0  0  0  0999 V2000
   -4.6197    6.0172   12.2187 C   0  0  0  0  0  0  0  0  0  0  0  0
   -3.6197    5.1470   11.4783 C   0  0  0  0  0  0  0  0  0  0  0  0
   -4.3542    4.0575   10.8363 O   0  0  0  0  0  0  0  0  0  0  0  0
   -5.4439    1.8003   11.3219 N   0  0  0  0  0  0  0  0  0  0  0  0
   -3.4447    2.5808   12.5160 O   0  0  0  0  0  0  0  0  0  0  0  0
   -4.0630    2.5581   11.2391 S   0  0  0  0  0  0  0  0  0  0  0  0
   -3.3317    2.0369   10.1393 O   0  0  0  0  0  0  0  0  0  0  0  0
   -5.2826    0.8271   11.5812 H   0  0  0  0  0  0  0  0  0  0  0  0
   -5.9073    1.8380   10.4141 H   0  0  0  0  0  0  0  0  0  0  0  0
   -4.7663    5.7130   13.7044 C   0  0  0  0  0  0  0  0  0  0  0  0
   -6.1527    5.3024   14.1453 C   0  0  0  0  0  0  0  0  0  0  0  0
   -6.2592    3.8279   14.4402 C   0  0  0  0  0  0  0  0  0  0  0  0
   -5.1346    3.2821   15.2685 C   0  0  0  0  0  0  0  0  0  0  0  0
   -5.0970    1.7749   15.3159 C   0  0  0  0  0  0  0  0  0  0  0  0
   -4.8547    1.2310   16.6970 C   0  0  0  0  0  0  0  0  0  0  0  0
   -6.0151    1.3978   17.6477 C   0  0  0  0  0  0  0  0  0  0  0  0
   -7.3522    1.0516   17.0686 C   0  0  0  0  0  0  0  0  0  0  0  0
  2  1  1  0  0  0
  2  3  1  0  0  0
  4  6  1  0  0  0
  5  6  2  0  0  0
  6  7  2  0  0  0
  6  3  1  0  0  0
  1 10  1  0  0  0
 10 11  1  0  0  0
 11 12  1  0  0  0
 12 13  1  0  0  0
 13 14  1  0  0  0
 14 15  1  0  0  0
 15 16  1  0  0  0
 16 17  1  0  0  0
  4  8  1  0  0  0
  4  9  1  0  0  0
M  END
> <minimizedAffinity>
-4.85201

$$$$
3IBU_O48_A_300


 17 16  0  0  0  0  0  0  0  0999 V2000
   -2.9563   -0.0043   11.1576 C   0  0  0  0  0  0  0  0  0  0  0  0
   -1.8453    0.7814   10.4839 C   0  0  0  0  0  0  0  0  0  0  0  0
   -1.2013    1.6165   11.4971 O   0  0  0  0  0  0  0  0  0  0  0  0
   -0.8825    3.8696   12.6547 N   0  0  0  0  0  0  0  0  0  0  0  0
   -2.1864    3.6246   10.5879 O   0  0  0  0  0  0  0  0  0  0  0  0
   -1.0181    3.1659   11.2496 S   0  0  0  0  0  0  0  0  0  0  0  0
    0.2279    3.2668   10.5763 O   0  0  0  0  0  0  0  0  0  0  0  0
   -0.7628    4.8738   12.5218 H   0  0  0  0  0  0  0  0  0  0  0  0
   -0.0725    3.4928   13.1469 H   0  0  0  0  0  0  0  0  0  0  0  0
   -4.3691    0.3928   10.7485 C   0  0  0  0  0  0  0  0  0  0  0  0
   -4.9636    1.5488   11.5202 C   0  0  0  0  0  0  0  0  0  0  0  0
   -4.4869    1.6038   12.9492 C   0  0  0  0  0  0  0  0  0  0  0  0
   -4.2107    2.9885   13.4541 C   0  0  0  0  0  0  0  0  0  0  0  0
   -4.3059    3.1136   14.9543 C   0  0  0  0  0  0  0  0  0  0  0  0
   -4.9303    1.9132   15.6109 C   0  0  0  0  0  0  0  0  0  0  0  0
   -6.1627    2.2169   16.4276 C   0  0  0  0  0  0  0  0  0  0  0  0
   -6.2072    1.5448   17.7654 C   0  0  0  0  0  0  0  0  0  0  0  0
  2  1  1  0  0  0
  2  3  1  0  0  0
  4  6  1  0  0  0
  5  6  2  0  0  0
  6  7  2  0  0  0
  6  3  1  0  0  0
  1 10  1  0  0  0
 10 11  1  0  0  0
 11 12  1  0  0  0
 12 13  1  0  0  0
 13 14  1  0  0  0
 14 15  1  0  0  0
 15 16  1  0  0  0
 16 17  1  0  0  0
  4  8  1  0  0  0
  4  9  1  0  0  0
M  END
> <minimizedAffinity>
-4.78627

$$$$
3IBU_O48_A_300


 17 16  0  0  0  0  0  0  0  0999 V2000
   -4.4155    1.8971   14.2783 C   0  0  0  0  0  0  0  0  0  0  0  0
   -4.4654    2.0340   12.7670 C   0  0  0  0  0  0  0  0  0  0  0  0
   -3.3673    1.2492   12.2038 O   0  0  0  0  0  0  0  0  0  0  0  0
   -4.9509    0.7035   10.2770 N   0  0  0  0  0  0  0  0  0  0  0  0
   -3.8357   -1.0406   11.5983 O   0  0  0  0  0  0  0  0  0  0  0  0
   -3.6388    0.2397   11.0194 S   0  0  0  0  0  0  0  0  0  0  0  0
   -2.5382    0.4268   10.1422 O   0  0  0  0  0  0  0  0  0  0  0  0
   -5.1486    0.0661    9.5057 H   0  0  0  0  0  0  0  0  0  0  0  0
   -4.8201    1.6474    9.9131 H   0  0  0  0  0  0  0  0  0  0  0  0
   -4.9617    3.0892   15.0541 C   0  0  0  0  0  0  0  0  0  0  0  0
   -6.1749    3.7544   14.4452 C   0  0  0  0  0  0  0  0  0  0  0  0
   -5.9799    5.2323   14.2210 C   0  0  0  0  0  0  0  0  0  0  0  0
   -4.6708    5.7645   14.7225 C   0  0  0  0  0  0  0  0  0  0  0  0
   -3.7977    6.3404   13.6355 C   0  0  0  0  0  0  0  0  0  0  0  0
   -2.3279    6.2296   13.9346 C   0  0  0  0  0  0  0  0  0  0  0  0
   -1.7843    4.8223   13.8887 C   0  0  0  0  0  0  0  0  0  0  0  0
   -1.4894    4.3108   12.5122 C   0  0  0  0  0  0  0  0  0  0  0  0
  2  1  1  0  0  0
  2  3  1  0  0  0
  4  6  1  0  0  0
  5  6  2  0  0  0
  6  7  2  0  0  0
  6  3  1  0  0  0
  1 10  1  0  0  0
 10 11  1  0  0  0
 11 12  1  0  0  0
 12 13  1  0  0  0
 13 14  1  0  0  0
 14 15  1  0  0  0
 15 16  1  0  0  0
 16 17  1  0  0  0
  4  8  1  0  0  0
  4  9  1  0  0  0
M  END
> <minimizedAffinity>
-4.73127

$$$$
3IBU_O48_A_300


 17 16  0  0  0  0  0  0  0  0999 V2000
   -1.3751    2.5733   11.3889 C   0  0  0  0  0  0  0  0  0  0  0  0
   -1.6617    1.1851   10.8445 C   0  0  0  0  0  0  0  0  0  0  0  0
   -3.0199    1.1818   10.3023 O   0  0  0  0  0  0  0  0  0  0  0  0
   -3.3324   -1.2518   11.0077 N   0  0  0  0  0  0  0  0  0  0  0  0
   -5.0684    0.0037    9.8071 O   0  0  0  0  0  0  0  0  0  0  0  0
   -4.0767    0.1253   10.8145 S   0  0  0  0  0  0  0  0  0  0  0  0
   -4.4623    0.6088   12.0926 O   0  0  0  0  0  0  0  0  0  0  0  0
   -3.9950   -1.9529   11.3390 H   0  0  0  0  0  0  0  0  0  0  0  0
   -2.5843   -1.1409   11.6921 H   0  0  0  0  0  0  0  0  0  0  0  0
   -2.5823    3.4995   11.4664 C   0  0  0  0  0  0  0  0  0  0  0  0
   -2.9271    3.9956   12.8521 C   0  0  0  0  0  0  0  0  0  0  0  0
   -4.3910    4.3194   13.0091 C   0  0  0  0  0  0  0  0  0  0  0  0
   -5.0150    3.7643   14.2545 C   0  0  0  0  0  0  0  0  0  0  0  0
   -4.0873    2.8818   15.0522 C   0  0  0  0  0  0  0  0  0  0  0  0
   -4.8092    1.9797   16.0149 C   0  0  0  0  0  0  0  0  0  0  0  0
   -6.2976    2.2165   16.0984 C   0  0  0  0  0  0  0  0  0  0  0  0
   -7.0229    1.3080   17.0428 C   0  0  0  0  0  0  0  0  0  0  0  0
  2  1  1  0  0  0
  2  3  1  0  0  0
  4  6  1  0  0  0
  5  6  2  0  0  0
  6  7  2  0  0  0
  6  3  1  0  0  0
  1 10  1  0  0  0
 10 11  1  0  0  0
 11 12  1  0  0  0
 12 13  1  0  0  0
 13 14  1  0  0  0
 14 15  1  0  0  0
 15 16  1  0  0  0
 16 17  1  0  0  0
  4  8  1  0  0  0
  4  9  1  0  0  0
M  END
> <minimizedAffinity>
-4.72850

$$$$
3IBU_O48_A_300


 17 16  0  0  0  0  0  0  0  0999 V2000
   -4.2961    3.5194   11.3185 C   0  0  0  0  0  0  0  0  0  0  0  0
   -4.9474    2.2164   11.7468 C   0  0  0  0  0  0  0  0  0  0  0  0
   -3.9058    1.1929   11.8257 O   0  0  0  0  0  0  0  0  0  0  0  0
   -3.9598   -1.3342   11.4669 N   0  0  0  0  0  0  0  0  0  0  0  0
   -2.5526    0.1573   10.1152 O   0  0  0  0  0  0  0  0  0  0  0  0
   -3.8260    0.0553   10.7325 S   0  0  0  0  0  0  0  0  0  0  0  0
   -4.9848    0.2543    9.9366 O   0  0  0  0  0  0  0  0  0  0  0  0
   -3.9112   -2.0874   10.7808 H   0  0  0  0  0  0  0  0  0  0  0  0
   -4.8544   -1.3761   11.9550 H   0  0  0  0  0  0  0  0  0  0  0  0
   -3.9462    4.4717   12.4551 C   0  0  0  0  0  0  0  0  0  0  0  0
   -4.8287    5.6939   12.5679 C   0  0  0  0  0  0  0  0  0  0  0  0
   -5.8755    5.5612   13.6444 C   0  0  0  0  0  0  0  0  0  0  0  0
   -5.4017    4.8591   14.8819 C   0  0  0  0  0  0  0  0  0  0  0  0
   -6.1375    3.5730   15.1647 C   0  0  0  0  0  0  0  0  0  0  0  0
   -5.2205    2.4179   15.4593 C   0  0  0  0  0  0  0  0  0  0  0  0
   -5.5895    1.6236   16.6886 C   0  0  0  0  0  0  0  0  0  0  0  0
   -7.0612    1.4310   16.8897 C   0  0  0  0  0  0  0  0  0  0  0  0
  2  1  1  0  0  0
  2  3  1  0  0  0
  4  6  1  0  0  0
  5  6  2  0  0  0
  6  7  2  0  0  0
  6  3  1  0  0  0
  1 10  1  0  0  0
 10 11  1  0  0  0
 11 12  1  0  0  0
 12 13  1  0  0  0
 13 14  1  0  0  0
 14 15  1  0  0  0
 15 16  1  0  0  0
 16 17  1  0  0  0
  4  8  1  0  0  0
  4  9  1  0  0  0
M  END
> <minimizedAffinity>
-4.68639

$$$$
3IBU_O48_A_300


 17 16  0  0  0  0  0  0  0  0999 V2000
   -4.8627    2.3260   13.7551 C   0  0  0  0  0  0  0  0  0  0  0  0
   -4.5902    1.9491   15.2005 C   0  0  0  0  0  0  0  0  0  0  0  0
   -5.7630    2.3154   15.9938 O   0  0  0  0  0  0  0  0  0  0  0  0
   -5.4900   -0.0155   16.9989 N   0  0  0  0  0  0  0  0  0  0  0  0
   -7.6864    1.0452   16.7123 O   0  0  0  0  0  0  0  0  0  0  0  0
   -6.3393    1.3118   17.0690 S   0  0  0  0  0  0  0  0  0  0  0  0
   -6.0784    1.9450   18.3127 O   0  0  0  0  0  0  0  0  0  0  0  0
   -5.8433   -0.6819   17.6856 H   0  0  0  0  0  0  0  0  0  0  0  0
   -4.5127    0.1951   17.2010 H   0  0  0  0  0  0  0  0  0  0  0  0
   -4.4743    1.2706   12.7272 C   0  0  0  0  0  0  0  0  0  0  0  0
   -3.7769    1.7970   11.4937 C   0  0  0  0  0  0  0  0  0  0  0  0
   -2.5740    0.9749   11.1070 C   0  0  0  0  0  0  0  0  0  0  0  0
   -1.2985    1.7571   11.0084 C   0  0  0  0  0  0  0  0  0  0  0  0
   -1.5123    3.2415   10.8464 C   0  0  0  0  0  0  0  0  0  0  0  0
   -0.8586    4.0562   11.9284 C   0  0  0  0  0  0  0  0  0  0  0  0
   -1.7850    5.0151   12.6360 C   0  0  0  0  0  0  0  0  0  0  0  0
   -1.9091    4.7901   14.1116 C   0  0  0  0  0  0  0  0  0  0  0  0
  2  1  1  0  0  0
  2  3  1  0  0  0
  4  6  1  0  0  0
  5  6  2  0  0  0
  6  7  2  0  0  0
  6  3  1  0  0  0
  1 10  1  0  0  0
 10 11  1  0  0  0
 11 12  1  0  0  0
 12 13  1  0  0  0
 13 14  1  0  0  0
 14 15  1  0  0  0
 15 16  1  0  0  0
 16 17  1  0  0  0
  4  8  1  0  0  0
  4  9  1  0  0  0
M  END
> <minimizedAffinity>
-4.53310

$$$$
3IBU_O48_A_300


 17 16  0  0  0  0  0  0  0  0999 V2000
   -4.3305    5.9105   12.8032 C   0  0  0  0  0  0  0  0  0  0  0  0
   -4.0204    4.8658   11.7459 C   0  0  0  0  0  0  0  0  0  0  0  0
   -2.8400    4.1187   12.1786 O   0  0  0  0  0  0  0  0  0  0  0  0
   -2.4157    1.6167   11.8999 N   0  0  0  0  0  0  0  0  0  0  0  0
   -0.8124    3.3159   11.1426 O   0  0  0  0  0  0  0  0  0  0  0  0
   -2.1990    3.0289   11.2316 S   0  0  0  0  0  0  0  0  0  0  0  0
   -2.9826    3.0895   10.0492 O   0  0  0  0  0  0  0  0  0  0  0  0
   -2.0095    0.8936   11.3061 H   0  0  0  0  0  0  0  0  0  0  0  0
   -3.4146    1.4432   12.0119 H   0  0  0  0  0  0  0  0  0  0  0  0
   -5.6797    5.7521   13.4930 C   0  0  0  0  0  0  0  0  0  0  0  0
   -5.6949    4.8051   14.6711 C   0  0  0  0  0  0  0  0  0  0  0  0
   -5.8620    3.3643   14.2604 C   0  0  0  0  0  0  0  0  0  0  0  0
   -4.6945    2.4869   14.6005 C   0  0  0  0  0  0  0  0  0  0  0  0
   -5.0680    1.2767   15.4199 C   0  0  0  0  0  0  0  0  0  0  0  0
   -4.9363    1.5002   16.9013 C   0  0  0  0  0  0  0  0  0  0  0  0
   -6.2484    1.6716   17.6275 C   0  0  0  0  0  0  0  0  0  0  0  0
   -7.4447    1.1598   16.8857 C   0  0  0  0  0  0  0  0  0  0  0  0
  2  1  1  0  0  0
  2  3  1  0  0  0
  4  6  1  0  0  0
  5  6  2  0  0  0
  6  7  2  0  0  0
  6  3  1  0  0  0
  1 10  1  0  0  0
 10 11  1  0  0  0
 11 12  1  0  0  0
 12 13  1  0  0  0
 13 14  1  0  0  0
 14 15  1  0  0  0
 15 16  1  0  0  0
 16 17  1  0  0  0
  4  8  1  0  0  0
  4  9  1  0  0  0
M  END
> <minimizedAffinity>
-4.35596

$$$$
