1C5P_BAM_A_246


 13 13  0  0  0  0  0  0  0  0999 V2000
   45.6782   18.4233   53.5838 C   0  0  0  0  0  0  0  0  0  0  0  0
   46.6958   18.6243   54.3646 N   0  0  0  0  0  0  0  0  0  0  0  0
   44.9451   17.3565   53.6905 N   0  0  0  0  0  0  0  0  0  0  0  0
   47.2381   19.4401   54.2664 H   0  0  0  0  0  0  0  0  0  0  0  0
   46.9252   17.9609   55.0550 H   0  0  0  0  0  0  0  0  0  0  0  0
   44.1779   17.2241   53.0878 H   0  0  0  0  0  0  0  0  0  0  0  0
   45.1566   16.6801   54.3739 H   0  0  0  0  0  0  0  0  0  0  0  0
   45.3772   19.3614   52.5961 C   0  0  0  0  0  0  0  0  0  0  0  0
   45.9836   20.6304   52.5947 C   0  0  0  0  0  0  0  0  0  0  0  0
   45.6996   21.5819   51.6137 C   0  0  0  0  0  0  0  0  0  0  0  0
   44.7899   21.2841   50.6083 C   0  0  0  0  0  0  0  0  0  0  0  0
   44.1664   20.0367   50.5810 C   0  0  0  0  0  0  0  0  0  0  0  0
   44.4536   19.0931   51.5585 C   0  0  0  0  0  0  0  0  0  0  0  0
  8  9  2  0  0  0
  8 13  1  0  0  0
  8  1  1  0  0  0
  9 10  1  0  0  0
 10 11  2  0  0  0
 11 12  1  0  0  0
 12 13  2  0  0  0
  1  2  1  0  0  0
  1  3  2  0  0  0
  2  4  1  0  0  0
  2  5  1  0  0  0
  3  6  1  0  0  0
  3  7  1  0  0  0
M  CHG 1   3   1
M  END
> <minimizedAffinity>
-5.98756

$$$$
1C5P_BAM_A_246


 13 13  0  0  0  0  0  0  0  0999 V2000
   45.6737   18.4251   53.5936 C   0  0  0  0  0  0  0  0  0  0  0  0
   46.6811   18.6152   54.3901 N   0  0  0  0  0  0  0  0  0  0  0  0
   44.9374   17.3585   53.6781 N   0  0  0  0  0  0  0  0  0  0  0  0
   47.2260   19.4311   54.3086 H   0  0  0  0  0  0  0  0  0  0  0  0
   46.9001   17.9435   55.0757 H   0  0  0  0  0  0  0  0  0  0  0  0
   44.1781   17.2346   53.0638 H   0  0  0  0  0  0  0  0  0  0  0  0
   45.1386   16.6740   54.3564 H   0  0  0  0  0  0  0  0  0  0  0  0
   45.3875   19.3752   52.6129 C   0  0  0  0  0  0  0  0  0  0  0  0
   44.4615   19.1028   51.5900 C   0  0  0  0  0  0  0  0  0  0  0  0
   44.1578   20.0407   50.6017 C   0  0  0  0  0  0  0  0  0  0  0  0
   44.7844   21.2793   50.6119 C   0  0  0  0  0  0  0  0  0  0  0  0
   45.7114   21.5821   51.6092 C   0  0  0  0  0  0  0  0  0  0  0  0
   46.0088   20.6460   52.5909 C   0  0  0  0  0  0  0  0  0  0  0  0
  8  9  2  0  0  0
  8 13  1  0  0  0
  8  1  1  0  0  0
  9 10  1  0  0  0
 10 11  2  0  0  0
 11 12  1  0  0  0
 12 13  2  0  0  0
  1  2  1  0  0  0
  1  3  2  0  0  0
  2  4  1  0  0  0
  2  5  1  0  0  0
  3  6  1  0  0  0
  3  7  1  0  0  0
M  CHG 1   3   1
M  END
> <minimizedAffinity>
-5.98170

$$$$
1C5P_BAM_A_246


 13 13  0  0  0  0  0  0  0  0999 V2000
   45.7784   18.4539   53.6874 C   0  0  0  0  0  0  0  0  0  0  0  0
   45.0388   17.4226   53.9612 N   0  0  0  0  0  0  0  0  0  0  0  0
   46.8919   18.6736   54.3189 N   0  0  0  0  0  0  0  0  0  0  0  0
   44.1984   17.2752   53.4701 H   0  0  0  0  0  0  0  0  0  0  0  0
   45.3184   16.7879   54.6600 H   0  0  0  0  0  0  0  0  0  0  0  0
   47.4374   19.4620   54.0952 H   0  0  0  0  0  0  0  0  0  0  0  0
   47.1904   18.0517   55.0213 H   0  0  0  0  0  0  0  0  0  0  0  0
   45.3597   19.3565   52.7095 C   0  0  0  0  0  0  0  0  0  0  0  0
   44.9743   18.9120   51.4321 C   0  0  0  0  0  0  0  0  0  0  0  0
   44.5484   19.7977   50.4408 C   0  0  0  0  0  0  0  0  0  0  0  0
   44.5050   21.1595   50.7066 C   0  0  0  0  0  0  0  0  0  0  0  0
   44.8840   21.6361   51.9615 C   0  0  0  0  0  0  0  0  0  0  0  0
   45.3056   20.7505   52.9446 C   0  0  0  0  0  0  0  0  0  0  0  0
  8  9  2  0  0  0
  8 13  1  0  0  0
  8  1  1  0  0  0
  9 10  1  0  0  0
 10 11  2  0  0  0
 11 12  1  0  0  0
 12 13  2  0  0  0
  1  2  1  0  0  0
  1  3  2  0  0  0
  2  4  1  0  0  0
  2  5  1  0  0  0
  3  6  1  0  0  0
  3  7  1  0  0  0
M  CHG 1   3   1
M  END
> <minimizedAffinity>
-5.74200

$$$$
1C5P_BAM_A_246


 13 13  0  0  0  0  0  0  0  0999 V2000
   45.0148   18.1380   52.9339 C   0  0  0  0  0  0  0  0  0  0  0  0
   43.9782   17.4399   52.5822 N   0  0  0  0  0  0  0  0  0  0  0  0
   45.8767   17.6824   53.7922 N   0  0  0  0  0  0  0  0  0  0  0  0
   43.3374   17.8046   51.9299 H   0  0  0  0  0  0  0  0  0  0  0  0
   43.8330   16.5458   52.9679 H   0  0  0  0  0  0  0  0  0  0  0  0
   46.6558   18.2287   54.0447 H   0  0  0  0  0  0  0  0  0  0  0  0
   45.7508   16.7908   54.1902 H   0  0  0  0  0  0  0  0  0  0  0  0
   45.1970   19.4120   52.3954 C   0  0  0  0  0  0  0  0  0  0  0  0
   46.1205   20.3105   52.9592 C   0  0  0  0  0  0  0  0  0  0  0  0
   46.3211   21.5880   52.4336 C   0  0  0  0  0  0  0  0  0  0  0  0
   45.5908   21.9999   51.3272 C   0  0  0  0  0  0  0  0  0  0  0  0
   44.6631   21.1363   50.7449 C   0  0  0  0  0  0  0  0  0  0  0  0
   44.4685   19.8659   51.2708 C   0  0  0  0  0  0  0  0  0  0  0  0
  8  9  2  0  0  0
  8 13  1  0  0  0
  8  1  1  0  0  0
  9 10  1  0  0  0
 10 11  2  0  0  0
 11 12  1  0  0  0
 12 13  2  0  0  0
  1  2  1  0  0  0
  1  3  2  0  0  0
  2  4  1  0  0  0
  2  5  1  0  0  0
  3  6  1  0  0  0
  3  7  1  0  0  0
M  CHG 1   3   1
M  END
> <minimizedAffinity>
-5.57100

$$$$
1C5P_BAM_A_246


 13 13  0  0  0  0  0  0  0  0999 V2000
   44.2764   22.4200   50.6251 C   0  0  0  0  0  0  0  0  0  0  0  0
   43.1624   22.5002   49.9631 N   0  0  0  0  0  0  0  0  0  0  0  0
   45.1253   23.4029   50.6408 N   0  0  0  0  0  0  0  0  0  0  0  0
   42.5331   21.7431   49.9649 H   0  0  0  0  0  0  0  0  0  0  0  0
   42.9470   23.3182   49.4593 H   0  0  0  0  0  0  0  0  0  0  0  0
   45.9642   23.3207   51.1495 H   0  0  0  0  0  0  0  0  0  0  0  0
   44.9300   24.2300   50.1439 H   0  0  0  0  0  0  0  0  0  0  0  0
   44.5785   21.2471   51.3174 C   0  0  0  0  0  0  0  0  0  0  0  0
   45.3113   21.2835   52.5173 C   0  0  0  0  0  0  0  0  0  0  0  0
   45.6206   20.1223   53.2275 C   0  0  0  0  0  0  0  0  0  0  0  0
   45.2058   18.8886   52.7448 C   0  0  0  0  0  0  0  0  0  0  0  0
   44.4807   18.8147   51.5555 C   0  0  0  0  0  0  0  0  0  0  0  0
   44.1742   19.9731   50.8536 C   0  0  0  0  0  0  0  0  0  0  0  0
  8  9  2  0  0  0
  8 13  1  0  0  0
  8  1  1  0  0  0
  9 10  1  0  0  0
 10 11  2  0  0  0
 11 12  1  0  0  0
 12 13  2  0  0  0
  1  2  1  0  0  0
  1  3  2  0  0  0
  2  4  1  0  0  0
  2  5  1  0  0  0
  3  6  1  0  0  0
  3  7  1  0  0  0
M  CHG 1   3   1
M  END
> <minimizedAffinity>
-4.94370

$$$$
1C5P_BAM_A_246


 13 13  0  0  0  0  0  0  0  0999 V2000
   44.3004   22.3780   50.6454 C   0  0  0  0  0  0  0  0  0  0  0  0
   43.1828   22.4474   49.9882 N   0  0  0  0  0  0  0  0  0  0  0  0
   45.1509   23.3595   50.6375 N   0  0  0  0  0  0  0  0  0  0  0  0
   42.5524   21.6915   50.0079 H   0  0  0  0  0  0  0  0  0  0  0  0
   42.9659   23.2559   49.4701 H   0  0  0  0  0  0  0  0  0  0  0  0
   45.9925   23.2857   51.1430 H   0  0  0  0  0  0  0  0  0  0  0  0
   44.9540   24.1774   50.1260 H   0  0  0  0  0  0  0  0  0  0  0  0
   44.6045   21.2180   51.3582 C   0  0  0  0  0  0  0  0  0  0  0  0
   44.1911   19.9556   50.8962 C   0  0  0  0  0  0  0  0  0  0  0  0
   44.4884   18.7824   51.5919 C   0  0  0  0  0  0  0  0  0  0  0  0
   45.2061   18.8484   52.7783 C   0  0  0  0  0  0  0  0  0  0  0  0
   45.6285   20.0842   53.2683 C   0  0  0  0  0  0  0  0  0  0  0  0
   45.3314   21.2481   52.5716 C   0  0  0  0  0  0  0  0  0  0  0  0
  8  9  2  0  0  0
  8 13  1  0  0  0
  8  1  1  0  0  0
  9 10  1  0  0  0
 10 11  2  0  0  0
 11 12  1  0  0  0
 12 13  2  0  0  0
  1  2  1  0  0  0
  1  3  2  0  0  0
  2  4  1  0  0  0
  2  5  1  0  0  0
  3  6  1  0  0  0
  3  7  1  0  0  0
M  CHG 1   3   1
M  END
> <minimizedAffinity>
-4.94043

$$$$
1C5P_BAM_A_246


 13 13  0  0  0  0  0  0  0  0999 V2000
   44.4198   20.4571   50.4678 C   0  0  0  0  0  0  0  0  0  0  0  0
   43.5847   21.4511   50.4705 N   0  0  0  0  0  0  0  0  0  0  0  0
   44.8454   19.9351   49.3572 N   0  0  0  0  0  0  0  0  0  0  0  0
   43.2750   21.8315   51.3241 H   0  0  0  0  0  0  0  0  0  0  0  0
   43.2611   21.8244   49.6189 H   0  0  0  0  0  0  0  0  0  0  0  0
   45.4787   19.1817   49.3783 H   0  0  0  0  0  0  0  0  0  0  0  0
   44.5346   20.2930   48.4943 H   0  0  0  0  0  0  0  0  0  0  0  0
   44.8539   19.9242   51.6819 C   0  0  0  0  0  0  0  0  0  0  0  0
   45.4486   20.7418   52.6595 C   0  0  0  0  0  0  0  0  0  0  0  0
   45.8860   20.2297   53.8822 C   0  0  0  0  0  0  0  0  0  0  0  0
   45.7426   18.8756   54.1525 C   0  0  0  0  0  0  0  0  0  0  0  0
   45.1609   18.0344   53.2041 C   0  0  0  0  0  0  0  0  0  0  0  0
   44.7261   18.5493   51.9899 C   0  0  0  0  0  0  0  0  0  0  0  0
  8  9  2  0  0  0
  8 13  1  0  0  0
  8  1  1  0  0  0
  9 10  1  0  0  0
 10 11  2  0  0  0
 11 12  1  0  0  0
 12 13  2  0  0  0
  1  2  1  0  0  0
  1  3  2  0  0  0
  2  4  1  0  0  0
  2  5  1  0  0  0
  3  6  1  0  0  0
  3  7  1  0  0  0
M  CHG 1   3   1
M  END
> <minimizedAffinity>
-4.83008

$$$$
1C5P_BAM_A_246


 13 13  0  0  0  0  0  0  0  0999 V2000
   45.7212   22.3341   53.6385 C   0  0  0  0  0  0  0  0  0  0  0  0
   44.7957   23.1261   54.0878 N   0  0  0  0  0  0  0  0  0  0  0  0
   46.9807   22.6120   53.7908 N   0  0  0  0  0  0  0  0  0  0  0  0
   43.8469   22.8961   53.9614 H   0  0  0  0  0  0  0  0  0  0  0  0
   45.0428   23.9568   54.5549 H   0  0  0  0  0  0  0  0  0  0  0  0
   47.6661   21.9971   53.4422 H   0  0  0  0  0  0  0  0  0  0  0  0
   47.2501   23.4374   54.2549 H   0  0  0  0  0  0  0  0  0  0  0  0
   45.3568   21.1709   52.9600 C   0  0  0  0  0  0  0  0  0  0  0  0
   44.6406   21.2326   51.7512 C   0  0  0  0  0  0  0  0  0  0  0  0
   44.2699   20.0812   51.0544 C   0  0  0  0  0  0  0  0  0  0  0  0
   44.6048   18.8325   51.5601 C   0  0  0  0  0  0  0  0  0  0  0  0
   45.3112   18.7336   52.7588 C   0  0  0  0  0  0  0  0  0  0  0  0
   45.6789   19.8822   53.4472 C   0  0  0  0  0  0  0  0  0  0  0  0
  8  9  2  0  0  0
  8 13  1  0  0  0
  8  1  1  0  0  0
  9 10  1  0  0  0
 10 11  2  0  0  0
 11 12  1  0  0  0
 12 13  2  0  0  0
  1  2  1  0  0  0
  1  3  2  0  0  0
  2  4  1  0  0  0
  2  5  1  0  0  0
  3  6  1  0  0  0
  3  7  1  0  0  0
M  CHG 1   3   1
M  END
> <minimizedAffinity>
-4.80256

$$$$
1C5P_BAM_A_246


 13 13  0  0  0  0  0  0  0  0999 V2000
   45.5592   22.4194   53.2739 C   0  0  0  0  0  0  0  0  0  0  0  0
   45.5365   23.4763   52.5203 N   0  0  0  0  0  0  0  0  0  0  0  0
   45.9008   22.4889   54.5251 N   0  0  0  0  0  0  0  0  0  0  0  0
   45.2745   23.4009   51.5743 H   0  0  0  0  0  0  0  0  0  0  0  0
   45.7814   24.3533   52.8948 H   0  0  0  0  0  0  0  0  0  0  0  0
   45.9111   21.6747   55.0785 H   0  0  0  0  0  0  0  0  0  0  0  0
   46.1493   23.3557   54.9200 H   0  0  0  0  0  0  0  0  0  0  0  0
   45.2302   21.1798   52.7248 C   0  0  0  0  0  0  0  0  0  0  0  0
   45.6061   19.9836   53.3618 C   0  0  0  0  0  0  0  0  0  0  0  0
   45.2835   18.7332   52.8317 C   0  0  0  0  0  0  0  0  0  0  0  0
   44.5777   18.6522   51.6390 C   0  0  0  0  0  0  0  0  0  0  0  0
   44.1923   19.8184   50.9779 C   0  0  0  0  0  0  0  0  0  0  0  0
   44.5144   21.0598   51.5104 C   0  0  0  0  0  0  0  0  0  0  0  0
  8  9  2  0  0  0
  8 13  1  0  0  0
  8  1  1  0  0  0
  9 10  1  0  0  0
 10 11  2  0  0  0
 11 12  1  0  0  0
 12 13  2  0  0  0
  1  2  1  0  0  0
  1  3  2  0  0  0
  2  4  1  0  0  0
  2  5  1  0  0  0
  3  6  1  0  0  0
  3  7  1  0  0  0
M  CHG 1   3   1
M  END
> <minimizedAffinity>
-4.78462

$$$$
1C5P_BAM_A_246


 13 13  0  0  0  0  0  0  0  0999 V2000
   44.9117   19.6688   50.8927 C   0  0  0  0  0  0  0  0  0  0  0  0
   45.1690   18.5127   51.4246 N   0  0  0  0  0  0  0  0  0  0  0  0
   44.7636   19.8043   49.6095 N   0  0  0  0  0  0  0  0  0  0  0  0
   45.2774   18.4327   52.3998 H   0  0  0  0  0  0  0  0  0  0  0  0
   45.2556   17.7161   50.8527 H   0  0  0  0  0  0  0  0  0  0  0  0
   44.5688   20.6904   49.2273 H   0  0  0  0  0  0  0  0  0  0  0  0
   44.8460   19.0208   49.0191 H   0  0  0  0  0  0  0  0  0  0  0  0
   44.8125   20.7930   51.7129 C   0  0  0  0  0  0  0  0  0  0  0  0
   45.5605   20.8908   52.8999 C   0  0  0  0  0  0  0  0  0  0  0  0
   45.4791   22.0083   53.7324 C   0  0  0  0  0  0  0  0  0  0  0  0
   44.6352   23.0579   53.3957 C   0  0  0  0  0  0  0  0  0  0  0  0
   43.8754   22.9928   52.2279 C   0  0  0  0  0  0  0  0  0  0  0  0
   43.9612   21.8795   51.4023 C   0  0  0  0  0  0  0  0  0  0  0  0
  8  9  2  0  0  0
  8 13  1  0  0  0
  8  1  1  0  0  0
  9 10  1  0  0  0
 10 11  2  0  0  0
 11 12  1  0  0  0
 12 13  2  0  0  0
  1  2  1  0  0  0
  1  3  2  0  0  0
  2  4  1  0  0  0
  2  5  1  0  0  0
  3  6  1  0  0  0
  3  7  1  0  0  0
M  CHG 1   3   1
M  END
> <minimizedAffinity>
-4.58736

$$$$
