4C52_X0D_A_300


 37 38  0  0  0  0  0  0  0  0999 V2000
  -17.1824  -27.1598  -14.4274 N   0  0  0  0  0  0  0  0  0  0  0  0
  -17.7415  -25.9875  -14.1259 C   0  0  0  0  0  0  0  0  0  0  0  0
  -18.7582  -25.6885  -14.7234 O   0  0  0  0  0  0  0  0  0  0  0  0
  -17.2253  -25.1100  -13.2387 N   0  0  0  0  0  0  0  0  0  0  0  0
  -15.9832  -25.3062  -12.7531 C   0  0  0  0  0  0  0  0  0  0  0  0
  -15.3505  -26.3341  -12.9417 O   0  0  0  0  0  0  0  0  0  0  0  0
  -16.3570  -27.4284  -13.9628 H   0  0  0  0  0  0  0  0  0  0  0  0
  -15.2279  -24.2613  -11.9655 C   0  0  0  0  0  0  0  0  0  0  0  0
  -14.3417  -23.3939  -12.6245 C   0  0  0  0  0  0  0  0  0  0  0  0
  -15.3499  -24.1807  -10.5879 C   0  0  0  0  0  0  0  0  0  0  0  0
  -14.6094  -23.2216   -9.8934 C   0  0  0  0  0  0  0  0  0  0  0  0
  -13.7400  -22.3488  -10.5511 C   0  0  0  0  0  0  0  0  0  0  0  0
  -13.5881  -22.4301  -11.9309 C   0  0  0  0  0  0  0  0  0  0  0  0
  -12.7923  -21.6267  -12.5867 C   0  0  0  0  0  0  0  0  0  0  0  0
  -12.0486  -20.9123  -13.2009 C   0  0  0  0  0  0  0  0  0  0  0  0
  -11.2312  -20.1451  -13.8748 C   0  0  0  0  0  0  0  0  0  0  0  0
  -11.3878  -18.7652  -13.9970 C   0  0  0  0  0  0  0  0  0  0  0  0
  -10.4625  -18.0347  -14.7548 C   0  0  0  0  0  0  0  0  0  0  0  0
   -9.3861  -18.6418  -15.3962 C   0  0  0  0  0  0  0  0  0  0  0  0
   -8.4956  -17.9348  -16.1404 F   0  0  0  0  0  0  0  0  0  0  0  0
   -9.2360  -20.0118  -15.2647 C   0  0  0  0  0  0  0  0  0  0  0  0
  -10.1568  -20.7427  -14.5125 C   0  0  0  0  0  0  0  0  0  0  0  0
  -10.0084  -22.0707  -14.3833 F   0  0  0  0  0  0  0  0  0  0  0  0
  -17.7574  -28.0580  -15.4265 C   0  0  0  0  0  0  0  0  0  0  0  0
  -18.6384  -29.1682  -13.5285 O   0  0  0  0  0  0  0  0  0  0  0  0
  -18.4323  -29.2218  -14.7593 C   0  0  0  0  0  0  0  0  0  0  0  0
  -18.7519  -30.2111  -15.4579 O   0  0  0  0  0  0  0  0  0  0  0  0
  -18.3832  -28.4083  -13.0434 H   0  0  0  0  0  0  0  0  0  0  0  0
  -16.6291  -28.5302  -16.3521 C   0  0  0  0  0  0  0  0  0  0  0  0
  -15.2484  -29.1829  -15.4679 S   0  0  0  0  0  0  0  0  0  0  0  0
  -15.2796  -30.8892  -15.9146 C   0  0  0  0  0  0  0  0  0  0  0  0
  -13.9467  -31.5428  -15.5278 C   0  0  0  0  0  0  0  0  0  0  0  0
  -12.8564  -30.5504  -15.1219 C   0  0  0  0  0  0  0  0  0  0  0  0
  -13.4207  -32.4424  -16.6344 C   0  0  0  0  0  0  0  0  0  0  0  0
  -17.9696  -23.8796  -12.9747 C   0  0  0  0  0  0  0  0  0  0  0  0
  -17.6567  -22.8564  -14.0590 C   0  0  0  0  0  0  0  0  0  0  0  0
  -18.8704  -21.9722  -14.2825 C   0  0  0  0  0  0  0  0  0  0  0  0
 25 26  1  0  0  0
 26 27  2  0  0  0
 26 24  1  0  0  0
 24 29  1  0  0  0
 24  1  1  0  0  0
 29 30  1  0  0  0
 30 31  1  0  0  0
 31 32  1  0  0  0
 32 33  1  0  0  0
 32 34  1  0  0  0
  1  2  1  0  0  0
  2  3  2  0  0  0
  2  4  1  0  0  0
  4 35  1  0  0  0
  4  5  1  0  0  0
 35 36  1  0  0  0
 36 37  1  0  0  0
  5  6  2  0  0  0
  5  8  1  0  0  0
  8  9  1  0  0  0
  8 10  2  0  0  0
  9 13  2  0  0  0
 10 11  1  0  0  0
 11 12  2  0  0  0
 12 13  1  0  0  0
 13 14  1  0  0  0
 14 15  3  0  0  0
 15 16  1  0  0  0
 16 17  1  0  0  0
 16 22  2  0  0  0
 17 18  2  0  0  0
 18 19  1  0  0  0
 19 20  1  0  0  0
 19 21  2  0  0  0
 21 22  1  0  0  0
 22 23  1  0  0  0
 25 28  1  0  0  0
  1  7  1  0  0  0
M  END
> <minimizedAffinity>
-9.38767

$$$$
4C52_X0D_A_300


 37 38  0  0  0  0  0  0  0  0999 V2000
  -15.9413  -28.2649  -13.3534 N   0  0  0  0  0  0  0  0  0  0  0  0
  -16.5433  -27.1328  -13.7190 C   0  0  0  0  0  0  0  0  0  0  0  0
  -17.2814  -27.1844  -14.6847 O   0  0  0  0  0  0  0  0  0  0  0  0
  -16.3481  -25.9427  -13.1113 N   0  0  0  0  0  0  0  0  0  0  0  0
  -15.3574  -25.8112  -12.2066 C   0  0  0  0  0  0  0  0  0  0  0  0
  -14.7224  -26.7607  -11.7734 O   0  0  0  0  0  0  0  0  0  0  0  0
  -15.3356  -28.2543  -12.5774 H   0  0  0  0  0  0  0  0  0  0  0  0
  -14.8995  -24.4755  -11.6691 C   0  0  0  0  0  0  0  0  0  0  0  0
  -13.9989  -23.6945  -12.4113 C   0  0  0  0  0  0  0  0  0  0  0  0
  -15.3089  -24.0303  -10.4227 C   0  0  0  0  0  0  0  0  0  0  0  0
  -14.8368  -22.8045   -9.9484 C   0  0  0  0  0  0  0  0  0  0  0  0
  -13.9534  -22.0208  -10.6936 C   0  0  0  0  0  0  0  0  0  0  0  0
  -13.5144  -22.4622  -11.9370 C   0  0  0  0  0  0  0  0  0  0  0  0
  -12.6953  -21.7558  -12.6711 C   0  0  0  0  0  0  0  0  0  0  0  0
  -11.9302  -21.0976  -13.3207 C   0  0  0  0  0  0  0  0  0  0  0  0
  -11.0913  -20.3747  -14.0168 C   0  0  0  0  0  0  0  0  0  0  0  0
  -10.0306  -20.9079  -14.7478 C   0  0  0  0  0  0  0  0  0  0  0  0
   -9.1790  -20.0442  -15.4497 C   0  0  0  0  0  0  0  0  0  0  0  0
   -9.3540  -18.6629  -15.4418 C   0  0  0  0  0  0  0  0  0  0  0  0
   -8.5212  -17.8247  -16.1131 F   0  0  0  0  0  0  0  0  0  0  0  0
  -10.4131  -18.1431  -14.7173 C   0  0  0  0  0  0  0  0  0  0  0  0
  -11.2620  -19.0002  -14.0155 C   0  0  0  0  0  0  0  0  0  0  0  0
  -12.2905  -18.4952  -13.3158 F   0  0  0  0  0  0  0  0  0  0  0  0
  -16.1532  -29.5210  -14.0696 C   0  0  0  0  0  0  0  0  0  0  0  0
  -15.5450  -30.9131  -12.2521 O   0  0  0  0  0  0  0  0  0  0  0  0
  -16.4181  -30.6385  -13.1021 C   0  0  0  0  0  0  0  0  0  0  0  0
  -17.4992  -31.2650  -13.1905 O   0  0  0  0  0  0  0  0  0  0  0  0
  -14.7498  -30.4185  -12.2207 H   0  0  0  0  0  0  0  0  0  0  0  0
  -14.9058  -29.8067  -14.9153 C   0  0  0  0  0  0  0  0  0  0  0  0
  -15.0271  -31.3145  -15.8238 S   0  0  0  0  0  0  0  0  0  0  0  0
  -13.7558  -32.3008  -15.1006 C   0  0  0  0  0  0  0  0  0  0  0  0
  -13.3520  -33.4113  -16.0789 C   0  0  0  0  0  0  0  0  0  0  0  0
  -12.4770  -34.5030  -15.4615 C   0  0  0  0  0  0  0  0  0  0  0  0
  -12.6606  -32.8499  -17.3107 C   0  0  0  0  0  0  0  0  0  0  0  0
  -17.1092  -24.7909  -13.5924 C   0  0  0  0  0  0  0  0  0  0  0  0
  -18.3495  -24.6069  -12.7273 C   0  0  0  0  0  0  0  0  0  0  0  0
  -19.5711  -24.4776  -13.6195 C   0  0  0  0  0  0  0  0  0  0  0  0
 25 26  1  0  0  0
 26 27  2  0  0  0
 26 24  1  0  0  0
 24 29  1  0  0  0
 24  1  1  0  0  0
 29 30  1  0  0  0
 30 31  1  0  0  0
 31 32  1  0  0  0
 32 33  1  0  0  0
 32 34  1  0  0  0
  1  2  1  0  0  0
  2  3  2  0  0  0
  2  4  1  0  0  0
  4 35  1  0  0  0
  4  5  1  0  0  0
 35 36  1  0  0  0
 36 37  1  0  0  0
  5  6  2  0  0  0
  5  8  1  0  0  0
  8  9  1  0  0  0
  8 10  2  0  0  0
  9 13  2  0  0  0
 10 11  1  0  0  0
 11 12  2  0  0  0
 12 13  1  0  0  0
 13 14  1  0  0  0
 14 15  3  0  0  0
 15 16  1  0  0  0
 16 17  1  0  0  0
 16 22  2  0  0  0
 17 18  2  0  0  0
 18 19  1  0  0  0
 19 20  1  0  0  0
 19 21  2  0  0  0
 21 22  1  0  0  0
 22 23  1  0  0  0
 25 28  1  0  0  0
  1  7  1  0  0  0
M  END
> <minimizedAffinity>
-8.30251

$$$$
4C52_X0D_A_300


 37 38  0  0  0  0  0  0  0  0999 V2000
  -14.9001  -28.0623   -8.5757 N   0  0  0  0  0  0  0  0  0  0  0  0
  -15.7189  -27.0292   -8.3761 C   0  0  0  0  0  0  0  0  0  0  0  0
  -16.4388  -27.0739   -7.3963 O   0  0  0  0  0  0  0  0  0  0  0  0
  -15.8210  -25.9733   -9.2118 N   0  0  0  0  0  0  0  0  0  0  0  0
  -15.2214  -26.0181  -10.4183 C   0  0  0  0  0  0  0  0  0  0  0  0
  -14.4405  -26.9008  -10.7400 O   0  0  0  0  0  0  0  0  0  0  0  0
  -14.3073  -28.0566   -9.3617 H   0  0  0  0  0  0  0  0  0  0  0  0
  -15.4859  -25.0098  -11.5118 C   0  0  0  0  0  0  0  0  0  0  0  0
  -14.4755  -24.1133  -11.8958 C   0  0  0  0  0  0  0  0  0  0  0  0
  -16.7335  -24.9137  -12.1064 C   0  0  0  0  0  0  0  0  0  0  0  0
  -16.9462  -23.9460  -13.0908 C   0  0  0  0  0  0  0  0  0  0  0  0
  -15.9364  -23.0650  -13.4833 C   0  0  0  0  0  0  0  0  0  0  0  0
  -14.6846  -23.1323  -12.8817 C   0  0  0  0  0  0  0  0  0  0  0  0
  -13.7090  -22.3331  -13.2257 C   0  0  0  0  0  0  0  0  0  0  0  0
  -12.8101  -21.6145  -13.5664 C   0  0  0  0  0  0  0  0  0  0  0  0
  -11.8282  -20.8395  -13.9488 C   0  0  0  0  0  0  0  0  0  0  0  0
  -11.8614  -19.4483  -13.8640 C   0  0  0  0  0  0  0  0  0  0  0  0
  -10.7606  -18.7075  -14.3152 C   0  0  0  0  0  0  0  0  0  0  0  0
   -9.6278  -19.3149  -14.8504 C   0  0  0  0  0  0  0  0  0  0  0  0
   -8.5653  -18.5958  -15.2984 F   0  0  0  0  0  0  0  0  0  0  0  0
   -9.6020  -20.6971  -14.9257 C   0  0  0  0  0  0  0  0  0  0  0  0
  -10.6974  -21.4379  -14.4793 C   0  0  0  0  0  0  0  0  0  0  0  0
  -10.6699  -22.7782  -14.5500 F   0  0  0  0  0  0  0  0  0  0  0  0
  -14.8556  -29.2030   -7.6633 C   0  0  0  0  0  0  0  0  0  0  0  0
  -13.0195  -28.8870   -6.2005 O   0  0  0  0  0  0  0  0  0  0  0  0
  -13.4449  -29.4671   -7.2217 C   0  0  0  0  0  0  0  0  0  0  0  0
  -12.7400  -30.2487   -7.9007 O   0  0  0  0  0  0  0  0  0  0  0  0
  -13.5810  -28.3098   -5.7214 H   0  0  0  0  0  0  0  0  0  0  0  0
  -15.4444  -30.4197   -8.3883 C   0  0  0  0  0  0  0  0  0  0  0  0
  -17.1214  -30.7366   -7.9397 S   0  0  0  0  0  0  0  0  0  0  0  0
  -17.8824  -31.0511   -9.4998 C   0  0  0  0  0  0  0  0  0  0  0  0
  -17.1523  -30.2604  -10.5929 C   0  0  0  0  0  0  0  0  0  0  0  0
  -17.7769  -28.8999  -10.9056 C   0  0  0  0  0  0  0  0  0  0  0  0
  -17.0273  -31.0631  -11.8776 C   0  0  0  0  0  0  0  0  0  0  0  0
  -16.7313  -24.8899   -8.8443 C   0  0  0  0  0  0  0  0  0  0  0  0
  -15.9247  -23.7014   -8.3370 C   0  0  0  0  0  0  0  0  0  0  0  0
  -16.3323  -22.4536   -9.0996 C   0  0  0  0  0  0  0  0  0  0  0  0
 25 26  1  0  0  0
 26 27  2  0  0  0
 26 24  1  0  0  0
 24 29  1  0  0  0
 24  1  1  0  0  0
 29 30  1  0  0  0
 30 31  1  0  0  0
 31 32  1  0  0  0
 32 33  1  0  0  0
 32 34  1  0  0  0
  1  2  1  0  0  0
  2  3  2  0  0  0
  2  4  1  0  0  0
  4 35  1  0  0  0
  4  5  1  0  0  0
 35 36  1  0  0  0
 36 37  1  0  0  0
  5  6  2  0  0  0
  5  8  1  0  0  0
  8  9  1  0  0  0
  8 10  2  0  0  0
  9 13  2  0  0  0
 10 11  1  0  0  0
 11 12  2  0  0  0
 12 13  1  0  0  0
 13 14  1  0  0  0
 14 15  3  0  0  0
 15 16  1  0  0  0
 16 17  1  0  0  0
 16 22  2  0  0  0
 17 18  2  0  0  0
 18 19  1  0  0  0
 19 20  1  0  0  0
 19 21  2  0  0  0
 21 22  1  0  0  0
 22 23  1  0  0  0
 25 28  1  0  0  0
  1  7  1  0  0  0
M  END
> <minimizedAffinity>
-8.21766

$$$$
4C52_X0D_A_300


 37 38  0  0  0  0  0  0  0  0999 V2000
  -19.7061  -25.0213  -14.2010 N   0  0  0  0  0  0  0  0  0  0  0  0
  -18.6506  -25.8141  -14.0140 C   0  0  0  0  0  0  0  0  0  0  0  0
  -18.7859  -26.9913  -14.2893 O   0  0  0  0  0  0  0  0  0  0  0  0
  -17.4722  -25.3958  -13.5038 N   0  0  0  0  0  0  0  0  0  0  0  0
  -17.3791  -24.1634  -12.9656 C   0  0  0  0  0  0  0  0  0  0  0  0
  -18.2643  -23.3270  -13.0629 O   0  0  0  0  0  0  0  0  0  0  0  0
  -19.6283  -24.0641  -13.9844 H   0  0  0  0  0  0  0  0  0  0  0  0
  -16.1933  -23.7040  -12.1499 C   0  0  0  0  0  0  0  0  0  0  0  0
  -15.1454  -23.0055  -12.7712 C   0  0  0  0  0  0  0  0  0  0  0  0
  -16.0923  -24.0118  -10.8030 C   0  0  0  0  0  0  0  0  0  0  0  0
  -14.9641  -23.5965  -10.0921 C   0  0  0  0  0  0  0  0  0  0  0  0
  -13.9295  -22.8883  -10.7069 C   0  0  0  0  0  0  0  0  0  0  0  0
  -14.0036  -22.5899  -12.0630 C   0  0  0  0  0  0  0  0  0  0  0  0
  -13.0621  -21.9212  -12.6756 C   0  0  0  0  0  0  0  0  0  0  0  0
  -12.2162  -21.3018  -13.2600 C   0  0  0  0  0  0  0  0  0  0  0  0
  -11.3030  -20.6255  -13.9078 C   0  0  0  0  0  0  0  0  0  0  0  0
  -10.2566  -21.2170  -14.6140 C   0  0  0  0  0  0  0  0  0  0  0  0
   -9.3205  -20.4011  -15.2636 C   0  0  0  0  0  0  0  0  0  0  0  0
   -9.3971  -19.0113  -15.2272 C   0  0  0  0  0  0  0  0  0  0  0  0
   -8.4827  -18.2203  -15.8475 F   0  0  0  0  0  0  0  0  0  0  0  0
  -10.4427  -18.4333  -14.5277 C   0  0  0  0  0  0  0  0  0  0  0  0
  -11.3756  -19.2427  -13.8779 C   0  0  0  0  0  0  0  0  0  0  0  0
  -12.3908  -18.6810  -13.2024 F   0  0  0  0  0  0  0  0  0  0  0  0
  -20.9749  -25.5300  -14.7177 C   0  0  0  0  0  0  0  0  0  0  0  0
  -21.1197  -23.3825  -15.7070 O   0  0  0  0  0  0  0  0  0  0  0  0
  -21.7204  -24.4446  -15.4397 C   0  0  0  0  0  0  0  0  0  0  0  0
  -22.9222  -24.6369  -15.7358 O   0  0  0  0  0  0  0  0  0  0  0  0
  -20.2197  -23.2802  -15.4672 H   0  0  0  0  0  0  0  0  0  0  0  0
  -21.7914  -26.0694  -13.5366 C   0  0  0  0  0  0  0  0  0  0  0  0
  -21.5087  -25.1714  -12.0441 S   0  0  0  0  0  0  0  0  0  0  0  0
  -20.6946  -26.3624  -11.0288 C   0  0  0  0  0  0  0  0  0  0  0  0
  -19.4972  -25.7051  -10.3306 C   0  0  0  0  0  0  0  0  0  0  0  0
  -19.0503  -26.4149   -9.0518 C   0  0  0  0  0  0  0  0  0  0  0  0
  -19.7604  -24.2394  -10.0259 C   0  0  0  0  0  0  0  0  0  0  0  0
  -16.3856  -26.3677  -13.3942 C   0  0  0  0  0  0  0  0  0  0  0  0
  -16.6165  -27.2496  -12.1737 C   0  0  0  0  0  0  0  0  0  0  0  0
  -15.2896  -27.5138  -11.4850 C   0  0  0  0  0  0  0  0  0  0  0  0
 25 26  1  0  0  0
 26 27  2  0  0  0
 26 24  1  0  0  0
 24 29  1  0  0  0
 24  1  1  0  0  0
 29 30  1  0  0  0
 30 31  1  0  0  0
 31 32  1  0  0  0
 32 33  1  0  0  0
 32 34  1  0  0  0
  1  2  1  0  0  0
  2  3  2  0  0  0
  2  4  1  0  0  0
  4 35  1  0  0  0
  4  5  1  0  0  0
 35 36  1  0  0  0
 36 37  1  0  0  0
  5  6  2  0  0  0
  5  8  1  0  0  0
  8  9  1  0  0  0
  8 10  2  0  0  0
  9 13  2  0  0  0
 10 11  1  0  0  0
 11 12  2  0  0  0
 12 13  1  0  0  0
 13 14  1  0  0  0
 14 15  3  0  0  0
 15 16  1  0  0  0
 16 17  1  0  0  0
 16 22  2  0  0  0
 17 18  2  0  0  0
 18 19  1  0  0  0
 19 20  1  0  0  0
 19 21  2  0  0  0
 21 22  1  0  0  0
 22 23  1  0  0  0
 25 28  1  0  0  0
  1  7  1  0  0  0
M  END
> <minimizedAffinity>
-8.15016

$$$$
4C52_X0D_A_300


 37 38  0  0  0  0  0  0  0  0999 V2000
  -17.4688  -27.7644  -13.9687 N   0  0  0  0  0  0  0  0  0  0  0  0
  -16.5835  -28.0069  -13.0018 C   0  0  0  0  0  0  0  0  0  0  0  0
  -16.5204  -29.1468  -12.5814 O   0  0  0  0  0  0  0  0  0  0  0  0
  -15.7961  -27.0623  -12.4437 N   0  0  0  0  0  0  0  0  0  0  0  0
  -16.0209  -25.7614  -12.7162 C   0  0  0  0  0  0  0  0  0  0  0  0
  -16.7989  -25.3883  -13.5810 O   0  0  0  0  0  0  0  0  0  0  0  0
  -17.5454  -26.8508  -14.3275 H   0  0  0  0  0  0  0  0  0  0  0  0
  -15.3702  -24.6315  -11.9530 C   0  0  0  0  0  0  0  0  0  0  0  0
  -14.4682  -23.7753  -12.6051 C   0  0  0  0  0  0  0  0  0  0  0  0
  -15.6035  -24.4589  -10.5984 C   0  0  0  0  0  0  0  0  0  0  0  0
  -14.9569  -23.4218   -9.9225 C   0  0  0  0  0  0  0  0  0  0  0  0
  -14.0720  -22.5609  -10.5749 C   0  0  0  0  0  0  0  0  0  0  0  0
  -13.8086  -22.7330  -11.9294 C   0  0  0  0  0  0  0  0  0  0  0  0
  -12.9946  -21.9442  -12.5805 C   0  0  0  0  0  0  0  0  0  0  0  0
  -12.2484  -21.2009  -13.1562 C   0  0  0  0  0  0  0  0  0  0  0  0
  -11.4371  -20.3813  -13.7735 C   0  0  0  0  0  0  0  0  0  0  0  0
  -11.5855  -18.9951  -13.7691 C   0  0  0  0  0  0  0  0  0  0  0  0
  -10.6680  -18.2053  -14.4752 C   0  0  0  0  0  0  0  0  0  0  0  0
   -9.6075  -18.7590  -15.1875 C   0  0  0  0  0  0  0  0  0  0  0  0
   -8.7248  -17.9936  -15.8816 F   0  0  0  0  0  0  0  0  0  0  0  0
   -9.4654  -20.1361  -15.1816 C   0  0  0  0  0  0  0  0  0  0  0  0
  -10.3784  -20.9259  -14.4812 C   0  0  0  0  0  0  0  0  0  0  0  0
  -10.2378  -22.2610  -14.4738 F   0  0  0  0  0  0  0  0  0  0  0  0
  -18.3290  -28.8133  -14.5122 C   0  0  0  0  0  0  0  0  0  0  0  0
  -17.3190  -28.9532  -16.6503 O   0  0  0  0  0  0  0  0  0  0  0  0
  -17.6179  -29.5629  -15.6019 C   0  0  0  0  0  0  0  0  0  0  0  0
  -17.3622  -30.7766  -15.4269 O   0  0  0  0  0  0  0  0  0  0  0  0
  -17.5290  -28.0444  -16.7398 H   0  0  0  0  0  0  0  0  0  0  0  0
  -19.6109  -28.1563  -15.0395 C   0  0  0  0  0  0  0  0  0  0  0  0
  -20.9365  -29.3046  -15.2344 S   0  0  0  0  0  0  0  0  0  0  0  0
  -20.5881  -30.0288  -16.8048 C   0  0  0  0  0  0  0  0  0  0  0  0
  -21.7364  -29.7221  -17.7747 C   0  0  0  0  0  0  0  0  0  0  0  0
  -21.3328  -29.7403  -19.2497 C   0  0  0  0  0  0  0  0  0  0  0  0
  -22.4035  -28.3948  -17.4528 C   0  0  0  0  0  0  0  0  0  0  0  0
  -14.8389  -27.4803  -11.4207 C   0  0  0  0  0  0  0  0  0  0  0  0
  -15.5867  -27.8278  -10.1398 C   0  0  0  0  0  0  0  0  0  0  0  0
  -14.5890  -28.0328   -9.0140 C   0  0  0  0  0  0  0  0  0  0  0  0
 25 26  1  0  0  0
 26 27  2  0  0  0
 26 24  1  0  0  0
 24 29  1  0  0  0
 24  1  1  0  0  0
 29 30  1  0  0  0
 30 31  1  0  0  0
 31 32  1  0  0  0
 32 33  1  0  0  0
 32 34  1  0  0  0
  1  2  1  0  0  0
  2  3  2  0  0  0
  2  4  1  0  0  0
  4 35  1  0  0  0
  4  5  1  0  0  0
 35 36  1  0  0  0
 36 37  1  0  0  0
  5  6  2  0  0  0
  5  8  1  0  0  0
  8  9  1  0  0  0
  8 10  2  0  0  0
  9 13  2  0  0  0
 10 11  1  0  0  0
 11 12  2  0  0  0
 12 13  1  0  0  0
 13 14  1  0  0  0
 14 15  3  0  0  0
 15 16  1  0  0  0
 16 17  1  0  0  0
 16 22  2  0  0  0
 17 18  2  0  0  0
 18 19  1  0  0  0
 19 20  1  0  0  0
 19 21  2  0  0  0
 21 22  1  0  0  0
 22 23  1  0  0  0
 25 28  1  0  0  0
  1  7  1  0  0  0
M  END
> <minimizedAffinity>
-7.92337

$$$$
4C52_X0D_A_300


 37 38  0  0  0  0  0  0  0  0999 V2000
  -19.1510  -25.6313  -13.6585 N   0  0  0  0  0  0  0  0  0  0  0  0
  -19.2073  -24.3398  -13.3322 C   0  0  0  0  0  0  0  0  0  0  0  0
  -20.0835  -23.6746  -13.8516 O   0  0  0  0  0  0  0  0  0  0  0  0
  -18.3325  -23.7311  -12.5027 N   0  0  0  0  0  0  0  0  0  0  0  0
  -17.2185  -24.3832  -12.1142 C   0  0  0  0  0  0  0  0  0  0  0  0
  -17.0315  -25.5699  -12.3362 O   0  0  0  0  0  0  0  0  0  0  0  0
  -18.4510  -26.1950  -13.2567 H   0  0  0  0  0  0  0  0  0  0  0  0
  -16.0683  -23.7069  -11.4057 C   0  0  0  0  0  0  0  0  0  0  0  0
  -15.0754  -23.0515  -12.1519 C   0  0  0  0  0  0  0  0  0  0  0  0
  -15.9427  -23.7716  -10.0276 C   0  0  0  0  0  0  0  0  0  0  0  0
  -14.8468  -23.1606   -9.4140 C   0  0  0  0  0  0  0  0  0  0  0  0
  -13.8680  -22.4955  -10.1553 C   0  0  0  0  0  0  0  0  0  0  0  0
  -13.9660  -22.4397  -11.5412 C   0  0  0  0  0  0  0  0  0  0  0  0
  -13.0771  -21.8197  -12.2721 C   0  0  0  0  0  0  0  0  0  0  0  0
  -12.2810  -21.2304  -12.9501 C   0  0  0  0  0  0  0  0  0  0  0  0
  -11.4237  -20.5795  -13.6933 C   0  0  0  0  0  0  0  0  0  0  0  0
  -10.4219  -21.1966  -14.4411 C   0  0  0  0  0  0  0  0  0  0  0  0
   -9.5435  -20.4061  -15.1946 C   0  0  0  0  0  0  0  0  0  0  0  0
   -9.6346  -19.0170  -15.2219 C   0  0  0  0  0  0  0  0  0  0  0  0
   -8.7755  -18.2501  -15.9434 F   0  0  0  0  0  0  0  0  0  0  0  0
  -10.6359  -18.4137  -14.4801 C   0  0  0  0  0  0  0  0  0  0  0  0
  -11.5111  -19.1977  -13.7270 C   0  0  0  0  0  0  0  0  0  0  0  0
  -12.4835  -18.6117  -13.0105 F   0  0  0  0  0  0  0  0  0  0  0  0
  -20.0968  -26.2356  -14.5944 C   0  0  0  0  0  0  0  0  0  0  0  0
  -21.5831  -26.9716  -12.9032 O   0  0  0  0  0  0  0  0  0  0  0  0
  -21.4595  -26.3365  -13.9717 C   0  0  0  0  0  0  0  0  0  0  0  0
  -22.4265  -25.7923  -14.5528 O   0  0  0  0  0  0  0  0  0  0  0  0
  -20.8327  -27.3634  -12.5016 H   0  0  0  0  0  0  0  0  0  0  0  0
  -19.5647  -27.6198  -14.9863 C   0  0  0  0  0  0  0  0  0  0  0  0
  -17.8607  -27.8361  -14.5820 S   0  0  0  0  0  0  0  0  0  0  0  0
  -17.6025  -29.5491  -14.9151 C   0  0  0  0  0  0  0  0  0  0  0  0
  -16.7485  -29.7003  -16.1805 C   0  0  0  0  0  0  0  0  0  0  0  0
  -15.3072  -30.1374  -15.9155 C   0  0  0  0  0  0  0  0  0  0  0  0
  -16.7429  -28.4261  -17.0093 C   0  0  0  0  0  0  0  0  0  0  0  0
  -18.5413  -22.3161  -12.2000 C   0  0  0  0  0  0  0  0  0  0  0  0
  -19.1710  -22.1815  -10.8194 C   0  0  0  0  0  0  0  0  0  0  0  0
  -20.2231  -21.0875  -10.8502 C   0  0  0  0  0  0  0  0  0  0  0  0
 25 26  1  0  0  0
 26 27  2  0  0  0
 26 24  1  0  0  0
 24 29  1  0  0  0
 24  1  1  0  0  0
 29 30  1  0  0  0
 30 31  1  0  0  0
 31 32  1  0  0  0
 32 33  1  0  0  0
 32 34  1  0  0  0
  1  2  1  0  0  0
  2  3  2  0  0  0
  2  4  1  0  0  0
  4 35  1  0  0  0
  4  5  1  0  0  0
 35 36  1  0  0  0
 36 37  1  0  0  0
  5  6  2  0  0  0
  5  8  1  0  0  0
  8  9  1  0  0  0
  8 10  2  0  0  0
  9 13  2  0  0  0
 10 11  1  0  0  0
 11 12  2  0  0  0
 12 13  1  0  0  0
 13 14  1  0  0  0
 14 15  3  0  0  0
 15 16  1  0  0  0
 16 17  1  0  0  0
 16 22  2  0  0  0
 17 18  2  0  0  0
 18 19  1  0  0  0
 19 20  1  0  0  0
 19 21  2  0  0  0
 21 22  1  0  0  0
 22 23  1  0  0  0
 25 28  1  0  0  0
  1  7  1  0  0  0
M  END
> <minimizedAffinity>
-7.85055

$$$$
4C52_X0D_A_300


 37 38  0  0  0  0  0  0  0  0999 V2000
  -17.4381  -27.8523  -13.9268 N   0  0  0  0  0  0  0  0  0  0  0  0
  -16.5260  -28.1019  -12.9869 C   0  0  0  0  0  0  0  0  0  0  0  0
  -16.4178  -29.2541  -12.6117 O   0  0  0  0  0  0  0  0  0  0  0  0
  -15.7581  -27.1536  -12.4082 N   0  0  0  0  0  0  0  0  0  0  0  0
  -16.0300  -25.8514  -12.6264 C   0  0  0  0  0  0  0  0  0  0  0  0
  -16.8371  -25.4718  -13.4613 O   0  0  0  0  0  0  0  0  0  0  0  0
  -17.5512  -26.9289  -14.2488 H   0  0  0  0  0  0  0  0  0  0  0  0
  -15.4005  -24.7303  -11.8331 C   0  0  0  0  0  0  0  0  0  0  0  0
  -14.5025  -23.8499  -12.4579 C   0  0  0  0  0  0  0  0  0  0  0  0
  -15.6494  -24.5891  -10.4776 C   0  0  0  0  0  0  0  0  0  0  0  0
  -15.0220  -23.5589   -9.7736 C   0  0  0  0  0  0  0  0  0  0  0  0
  -14.1410  -22.6740  -10.3988 C   0  0  0  0  0  0  0  0  0  0  0  0
  -13.8622  -22.8144  -11.7538 C   0  0  0  0  0  0  0  0  0  0  0  0
  -13.0512  -22.0025  -12.3799 C   0  0  0  0  0  0  0  0  0  0  0  0
  -12.3277  -21.2516  -12.9743 C   0  0  0  0  0  0  0  0  0  0  0  0
  -11.5489  -20.4320  -13.6321 C   0  0  0  0  0  0  0  0  0  0  0  0
  -11.6757  -19.0442  -13.5930 C   0  0  0  0  0  0  0  0  0  0  0  0
  -10.7976  -18.2542  -14.3472 C   0  0  0  0  0  0  0  0  0  0  0  0
   -9.7975  -18.8091  -15.1413 C   0  0  0  0  0  0  0  0  0  0  0  0
   -8.9537  -18.0432  -15.8815 F   0  0  0  0  0  0  0  0  0  0  0  0
   -9.6762  -20.1880  -15.1695 C   0  0  0  0  0  0  0  0  0  0  0  0
  -10.5502  -20.9779  -14.4212 C   0  0  0  0  0  0  0  0  0  0  0  0
  -10.4296  -22.3148  -14.4471 F   0  0  0  0  0  0  0  0  0  0  0  0
  -18.2751  -28.9078  -14.4935 C   0  0  0  0  0  0  0  0  0  0  0  0
  -17.0850  -28.6477  -16.5251 O   0  0  0  0  0  0  0  0  0  0  0  0
  -18.1865  -28.8996  -15.9925 C   0  0  0  0  0  0  0  0  0  0  0  0
  -19.2232  -29.1318  -16.6561 O   0  0  0  0  0  0  0  0  0  0  0  0
  -16.3339  -28.4797  -15.9908 H   0  0  0  0  0  0  0  0  0  0  0  0
  -19.7174  -28.6794  -14.0241 C   0  0  0  0  0  0  0  0  0  0  0  0
  -19.9594  -27.0828  -13.3127 S   0  0  0  0  0  0  0  0  0  0  0  0
  -20.3788  -26.0981  -14.7150 C   0  0  0  0  0  0  0  0  0  0  0  0
  -21.0974  -24.8254  -14.2490 C   0  0  0  0  0  0  0  0  0  0  0  0
  -22.0385  -24.2196  -15.2911 C   0  0  0  0  0  0  0  0  0  0  0  0
  -20.1138  -23.7643  -13.7830 C   0  0  0  0  0  0  0  0  0  0  0  0
  -14.7675  -27.5781  -11.4204 C   0  0  0  0  0  0  0  0  0  0  0  0
  -15.4760  -27.9770  -10.1322 C   0  0  0  0  0  0  0  0  0  0  0  0
  -14.4451  -28.2182   -9.0442 C   0  0  0  0  0  0  0  0  0  0  0  0
 25 26  1  0  0  0
 26 27  2  0  0  0
 26 24  1  0  0  0
 24 29  1  0  0  0
 24  1  1  0  0  0
 29 30  1  0  0  0
 30 31  1  0  0  0
 31 32  1  0  0  0
 32 33  1  0  0  0
 32 34  1  0  0  0
  1  2  1  0  0  0
  2  3  2  0  0  0
  2  4  1  0  0  0
  4 35  1  0  0  0
  4  5  1  0  0  0
 35 36  1  0  0  0
 36 37  1  0  0  0
  5  6  2  0  0  0
  5  8  1  0  0  0
  8  9  1  0  0  0
  8 10  2  0  0  0
  9 13  2  0  0  0
 10 11  1  0  0  0
 11 12  2  0  0  0
 12 13  1  0  0  0
 13 14  1  0  0  0
 14 15  3  0  0  0
 15 16  1  0  0  0
 16 17  1  0  0  0
 16 22  2  0  0  0
 17 18  2  0  0  0
 18 19  1  0  0  0
 19 20  1  0  0  0
 19 21  2  0  0  0
 21 22  1  0  0  0
 22 23  1  0  0  0
 25 28  1  0  0  0
  1  7  1  0  0  0
M  END
> <minimizedAffinity>
-7.79082

$$$$
4C52_X0D_A_300


 37 38  0  0  0  0  0  0  0  0999 V2000
  -17.5602  -28.1237  -13.5842 N   0  0  0  0  0  0  0  0  0  0  0  0
  -17.0216  -28.2443  -12.3706 C   0  0  0  0  0  0  0  0  0  0  0  0
  -17.3010  -29.2447  -11.7371 O   0  0  0  0  0  0  0  0  0  0  0  0
  -16.2299  -27.3114  -11.7990 N   0  0  0  0  0  0  0  0  0  0  0  0
  -16.1086  -26.0979  -12.3734 C   0  0  0  0  0  0  0  0  0  0  0  0
  -16.5458  -25.8421  -13.4851 O   0  0  0  0  0  0  0  0  0  0  0  0
  -17.3552  -27.3236  -14.1200 H   0  0  0  0  0  0  0  0  0  0  0  0
  -15.4613  -24.9182  -11.6866 C   0  0  0  0  0  0  0  0  0  0  0  0
  -14.5414  -24.1202  -12.3858 C   0  0  0  0  0  0  0  0  0  0  0  0
  -15.7159  -24.6419  -10.3531 C   0  0  0  0  0  0  0  0  0  0  0  0
  -15.0719  -23.5612   -9.7464 C   0  0  0  0  0  0  0  0  0  0  0  0
  -14.1690  -22.7584  -10.4466 C   0  0  0  0  0  0  0  0  0  0  0  0
  -13.8845  -23.0344  -11.7794 C   0  0  0  0  0  0  0  0  0  0  0  0
  -13.0530  -22.3030  -12.4741 C   0  0  0  0  0  0  0  0  0  0  0  0
  -12.2856  -21.6143  -13.0885 C   0  0  0  0  0  0  0  0  0  0  0  0
  -11.4488  -20.8549  -13.7473 C   0  0  0  0  0  0  0  0  0  0  0  0
  -10.3922  -21.3481  -14.5114 C   0  0  0  0  0  0  0  0  0  0  0  0
   -9.5425  -20.4478  -15.1682 C   0  0  0  0  0  0  0  0  0  0  0  0
   -9.7154  -19.0688  -15.0830 C   0  0  0  0  0  0  0  0  0  0  0  0
   -8.8844  -18.1958  -15.7106 F   0  0  0  0  0  0  0  0  0  0  0  0
  -10.7706  -18.5888  -14.3260 C   0  0  0  0  0  0  0  0  0  0  0  0
  -11.6176  -19.4825  -13.6689 C   0  0  0  0  0  0  0  0  0  0  0  0
  -12.6422  -19.0158  -12.9377 F   0  0  0  0  0  0  0  0  0  0  0  0
  -18.4457  -29.1430  -14.1434 C   0  0  0  0  0  0  0  0  0  0  0  0
  -19.5544  -30.6220  -12.6621 O   0  0  0  0  0  0  0  0  0  0  0  0
  -19.5378  -29.4808  -13.1698 C   0  0  0  0  0  0  0  0  0  0  0  0
  -20.4017  -28.6113  -12.9118 O   0  0  0  0  0  0  0  0  0  0  0  0
  -18.8881  -31.2427  -12.8829 H   0  0  0  0  0  0  0  0  0  0  0  0
  -17.6017  -30.3794  -14.4778 C   0  0  0  0  0  0  0  0  0  0  0  0
  -16.4122  -30.0723  -15.7445 S   0  0  0  0  0  0  0  0  0  0  0  0
  -14.9553  -30.8229  -15.0919 C   0  0  0  0  0  0  0  0  0  0  0  0
  -13.8108  -29.8014  -15.0914 C   0  0  0  0  0  0  0  0  0  0  0  0
  -12.7777  -30.0180  -13.9849 C   0  0  0  0  0  0  0  0  0  0  0  0
  -14.3317  -28.3751  -15.0202 C   0  0  0  0  0  0  0  0  0  0  0  0
  -15.6733  -27.5967  -10.4776 C   0  0  0  0  0  0  0  0  0  0  0  0
  -14.2315  -28.0654  -10.6261 C   0  0  0  0  0  0  0  0  0  0  0  0
  -14.1570  -29.5579  -10.3584 C   0  0  0  0  0  0  0  0  0  0  0  0
 25 26  1  0  0  0
 26 27  2  0  0  0
 26 24  1  0  0  0
 24 29  1  0  0  0
 24  1  1  0  0  0
 29 30  1  0  0  0
 30 31  1  0  0  0
 31 32  1  0  0  0
 32 33  1  0  0  0
 32 34  1  0  0  0
  1  2  1  0  0  0
  2  3  2  0  0  0
  2  4  1  0  0  0
  4 35  1  0  0  0
  4  5  1  0  0  0
 35 36  1  0  0  0
 36 37  1  0  0  0
  5  6  2  0  0  0
  5  8  1  0  0  0
  8  9  1  0  0  0
  8 10  2  0  0  0
  9 13  2  0  0  0
 10 11  1  0  0  0
 11 12  2  0  0  0
 12 13  1  0  0  0
 13 14  1  0  0  0
 14 15  3  0  0  0
 15 16  1  0  0  0
 16 17  1  0  0  0
 16 22  2  0  0  0
 17 18  2  0  0  0
 18 19  1  0  0  0
 19 20  1  0  0  0
 19 21  2  0  0  0
 21 22  1  0  0  0
 22 23  1  0  0  0
 25 28  1  0  0  0
  1  7  1  0  0  0
M  END
> <minimizedAffinity>
-7.66900

$$$$
4C52_X0D_A_300


 37 38  0  0  0  0  0  0  0  0999 V2000
  -15.1527  -23.6704  -10.8710 N   0  0  0  0  0  0  0  0  0  0  0  0
  -15.3571  -24.9403  -10.5198 C   0  0  0  0  0  0  0  0  0  0  0  0
  -14.9752  -25.2781   -9.4152 O   0  0  0  0  0  0  0  0  0  0  0  0
  -15.9174  -25.8668  -11.3268 N   0  0  0  0  0  0  0  0  0  0  0  0
  -16.1199  -25.5816  -12.6287 C   0  0  0  0  0  0  0  0  0  0  0  0
  -15.9789  -24.4605  -13.0932 O   0  0  0  0  0  0  0  0  0  0  0  0
  -15.4481  -23.3677  -11.7601 H   0  0  0  0  0  0  0  0  0  0  0  0
  -16.4972  -26.6238  -13.6552 C   0  0  0  0  0  0  0  0  0  0  0  0
  -15.6041  -27.6650  -13.9557 C   0  0  0  0  0  0  0  0  0  0  0  0
  -17.6911  -26.5381  -14.3526 C   0  0  0  0  0  0  0  0  0  0  0  0
  -17.9877  -27.5040  -15.3169 C   0  0  0  0  0  0  0  0  0  0  0  0
  -17.1061  -28.5481  -15.6042 C   0  0  0  0  0  0  0  0  0  0  0  0
  -15.8933  -28.6373  -14.9299 C   0  0  0  0  0  0  0  0  0  0  0  0
  -15.0436  -29.6033  -15.1615 C   0  0  0  0  0  0  0  0  0  0  0  0
  -14.2764  -30.5063  -15.3534 C   0  0  0  0  0  0  0  0  0  0  0  0
  -13.4459  -31.4972  -15.5516 C   0  0  0  0  0  0  0  0  0  0  0  0
  -13.5234  -32.3672  -16.6382 C   0  0  0  0  0  0  0  0  0  0  0  0
  -12.5915  -33.4077  -16.7511 C   0  0  0  0  0  0  0  0  0  0  0  0
  -11.5851  -33.6067  -15.8096 C   0  0  0  0  0  0  0  0  0  0  0  0
  -10.6887  -34.6228  -15.9132 F   0  0  0  0  0  0  0  0  0  0  0  0
  -11.5131  -32.7345  -14.7368 C   0  0  0  0  0  0  0  0  0  0  0  0
  -12.4408  -31.6983  -14.6201 C   0  0  0  0  0  0  0  0  0  0  0  0
  -12.3681  -30.8515  -13.5810 F   0  0  0  0  0  0  0  0  0  0  0  0
  -14.5036  -22.7142   -9.9766 C   0  0  0  0  0  0  0  0  0  0  0  0
  -15.1109  -20.8391   -8.6629 O   0  0  0  0  0  0  0  0  0  0  0  0
  -15.5043  -21.7270   -9.4485 C   0  0  0  0  0  0  0  0  0  0  0  0
  -16.7005  -21.8371   -9.8031 O   0  0  0  0  0  0  0  0  0  0  0  0
  -14.2061  -20.7926   -8.4235 H   0  0  0  0  0  0  0  0  0  0  0  0
  -13.3895  -22.0070  -10.7585 C   0  0  0  0  0  0  0  0  0  0  0  0
  -13.3877  -22.4242  -12.4731 S   0  0  0  0  0  0  0  0  0  0  0  0
  -11.7029  -22.1665  -12.9282 C   0  0  0  0  0  0  0  0  0  0  0  0
  -11.6116  -20.9828  -13.8997 C   0  0  0  0  0  0  0  0  0  0  0  0
  -10.2732  -20.8743  -14.6316 C   0  0  0  0  0  0  0  0  0  0  0  0
  -11.9139  -19.6639  -13.2073 C   0  0  0  0  0  0  0  0  0  0  0  0
  -16.1195  -27.2129  -10.7932 C   0  0  0  0  0  0  0  0  0  0  0  0
  -17.5962  -27.4162  -10.4789 C   0  0  0  0  0  0  0  0  0  0  0  0
  -18.0570  -28.7409  -11.0600 C   0  0  0  0  0  0  0  0  0  0  0  0
 25 26  1  0  0  0
 26 27  2  0  0  0
 26 24  1  0  0  0
 24 29  1  0  0  0
 24  1  1  0  0  0
 29 30  1  0  0  0
 30 31  1  0  0  0
 31 32  1  0  0  0
 32 33  1  0  0  0
 32 34  1  0  0  0
  1  2  1  0  0  0
  2  3  2  0  0  0
  2  4  1  0  0  0
  4 35  1  0  0  0
  4  5  1  0  0  0
 35 36  1  0  0  0
 36 37  1  0  0  0
  5  6  2  0  0  0
  5  8  1  0  0  0
  8  9  1  0  0  0
  8 10  2  0  0  0
  9 13  2  0  0  0
 10 11  1  0  0  0
 11 12  2  0  0  0
 12 13  1  0  0  0
 13 14  1  0  0  0
 14 15  3  0  0  0
 15 16  1  0  0  0
 16 17  1  0  0  0
 16 22  2  0  0  0
 17 18  2  0  0  0
 18 19  1  0  0  0
 19 20  1  0  0  0
 19 21  2  0  0  0
 21 22  1  0  0  0
 22 23  1  0  0  0
 25 28  1  0  0  0
  1  7  1  0  0  0
M  END
> <minimizedAffinity>
-7.57704

$$$$
4C52_X0D_A_300


 37 38  0  0  0  0  0  0  0  0999 V2000
  -17.7051  -27.5753  -13.9549 N   0  0  0  0  0  0  0  0  0  0  0  0
  -16.6489  -27.8552  -13.1909 C   0  0  0  0  0  0  0  0  0  0  0  0
  -16.4517  -29.0259  -12.9251 O   0  0  0  0  0  0  0  0  0  0  0  0
  -15.8243  -26.9212  -12.6698 N   0  0  0  0  0  0  0  0  0  0  0  0
  -16.1620  -25.6183  -12.7441 C   0  0  0  0  0  0  0  0  0  0  0  0
  -17.1013  -25.2121  -13.4113 O   0  0  0  0  0  0  0  0  0  0  0  0
  -17.8925  -26.6366  -14.1847 H   0  0  0  0  0  0  0  0  0  0  0  0
  -15.4445  -24.5324  -11.9770 C   0  0  0  0  0  0  0  0  0  0  0  0
  -14.5401  -23.6879  -12.6409 C   0  0  0  0  0  0  0  0  0  0  0  0
  -15.6192  -24.3908  -10.6100 C   0  0  0  0  0  0  0  0  0  0  0  0
  -14.9123  -23.3949   -9.9325 C   0  0  0  0  0  0  0  0  0  0  0  0
  -14.0248  -22.5451  -10.5959 C   0  0  0  0  0  0  0  0  0  0  0  0
  -13.8201  -22.6872  -11.9639 C   0  0  0  0  0  0  0  0  0  0  0  0
  -13.0057  -21.9073  -12.6252 C   0  0  0  0  0  0  0  0  0  0  0  0
  -12.2452  -21.1836  -13.2072 C   0  0  0  0  0  0  0  0  0  0  0  0
  -11.4115  -20.3905  -13.8291 C   0  0  0  0  0  0  0  0  0  0  0  0
  -11.5533  -19.0045  -13.8805 C   0  0  0  0  0  0  0  0  0  0  0  0
  -10.6109  -18.2448  -14.5867 C   0  0  0  0  0  0  0  0  0  0  0  0
   -9.5317  -18.8283  -15.2451 C   0  0  0  0  0  0  0  0  0  0  0  0
   -8.6245  -18.0924  -15.9395 F   0  0  0  0  0  0  0  0  0  0  0  0
   -9.3965  -20.2048  -15.1839 C   0  0  0  0  0  0  0  0  0  0  0  0
  -10.3342  -20.9647  -14.4832 C   0  0  0  0  0  0  0  0  0  0  0  0
  -10.2003  -22.2991  -14.4221 F   0  0  0  0  0  0  0  0  0  0  0  0
  -18.5931  -28.6196  -14.4614 C   0  0  0  0  0  0  0  0  0  0  0  0
  -19.2999  -29.4060  -16.5811 O   0  0  0  0  0  0  0  0  0  0  0  0
  -18.4311  -28.7714  -15.9466 C   0  0  0  0  0  0  0  0  0  0  0  0
  -17.4233  -28.2685  -16.4947 O   0  0  0  0  0  0  0  0  0  0  0  0
  -20.0389  -29.7661  -16.1314 H   0  0  0  0  0  0  0  0  0  0  0  0
  -20.0344  -28.2402  -14.0989 C   0  0  0  0  0  0  0  0  0  0  0  0
  -20.8428  -29.4745  -13.1310 S   0  0  0  0  0  0  0  0  0  0  0  0
  -19.5457  -30.6298  -12.8228 C   0  0  0  0  0  0  0  0  0  0  0  0
  -19.2206  -30.6449  -11.3237 C   0  0  0  0  0  0  0  0  0  0  0  0
  -20.1311  -31.5510  -10.4939 C   0  0  0  0  0  0  0  0  0  0  0  0
  -19.2321  -29.2444  -10.7329 C   0  0  0  0  0  0  0  0  0  0  0  0
  -14.6783  -27.3758  -11.8842 C   0  0  0  0  0  0  0  0  0  0  0  0
  -15.1356  -27.7140  -10.4710 C   0  0  0  0  0  0  0  0  0  0  0  0
  -14.3824  -28.9359   -9.9767 C   0  0  0  0  0  0  0  0  0  0  0  0
 25 26  1  0  0  0
 26 27  2  0  0  0
 26 24  1  0  0  0
 24 29  1  0  0  0
 24  1  1  0  0  0
 29 30  1  0  0  0
 30 31  1  0  0  0
 31 32  1  0  0  0
 32 33  1  0  0  0
 32 34  1  0  0  0
  1  2  1  0  0  0
  2  3  2  0  0  0
  2  4  1  0  0  0
  4 35  1  0  0  0
  4  5  1  0  0  0
 35 36  1  0  0  0
 36 37  1  0  0  0
  5  6  2  0  0  0
  5  8  1  0  0  0
  8  9  1  0  0  0
  8 10  2  0  0  0
  9 13  2  0  0  0
 10 11  1  0  0  0
 11 12  2  0  0  0
 12 13  1  0  0  0
 13 14  1  0  0  0
 14 15  3  0  0  0
 15 16  1  0  0  0
 16 17  1  0  0  0
 16 22  2  0  0  0
 17 18  2  0  0  0
 18 19  1  0  0  0
 19 20  1  0  0  0
 19 21  2  0  0  0
 21 22  1  0  0  0
 22 23  1  0  0  0
 25 28  1  0  0  0
  1  7  1  0  0  0
M  END
> <minimizedAffinity>
-7.41462

$$$$
