6HH5_A3R_A_402


 42 45  0  0  0  0  0  0  0  0999 V2000
  -12.1849   -0.5270    9.6744 C   0  0  0  0  0  0  0  0  0  0  0  0
  -11.0206   -1.4592   10.0343 C   0  0  0  0  0  0  0  0  0  0  0  0
   -9.7969   -0.7121    9.8329 O   0  0  0  0  0  0  0  0  0  0  0  0
  -11.0163   -1.8628   11.4813 C   0  0  0  0  0  0  0  0  0  0  0  0
  -11.9231   -2.9798   11.8318 O   0  0  0  0  0  0  0  0  0  0  0  0
   -9.5388   -2.2151   11.6277 C   0  0  0  0  0  0  0  0  0  0  0  0
   -9.2871   -3.4456   11.1320 O   0  0  0  0  0  0  0  0  0  0  0  0
   -8.8204   -1.2042   10.7182 C   0  0  0  0  0  0  0  0  0  0  0  0
  -11.7014   -3.7569   11.2953 H   0  0  0  0  0  0  0  0  0  0  0  0
   -9.5597   -3.4814   10.2018 H   0  0  0  0  0  0  0  0  0  0  0  0
   -8.3779   -0.0537   11.5203 N   0  0  0  0  0  0  0  0  0  0  0  0
   -8.9569    1.1521   11.6126 C   0  0  0  0  0  0  0  0  0  0  0  0
   -8.2306    1.8865   12.4526 N   0  0  0  0  0  0  0  0  0  0  0  0
   -7.2068    1.1425   12.9082 C   0  0  0  0  0  0  0  0  0  0  0  0
   -7.3058   -0.0690   12.3129 C   0  0  0  0  0  0  0  0  0  0  0  0
   -6.4103   -1.0447   12.5633 N   0  0  0  0  0  0  0  0  0  0  0  0
   -5.3586   -0.7948   13.4582 C   0  0  0  0  0  0  0  0  0  0  0  0
   -5.2885    0.4731   14.0634 N   0  0  0  0  0  0  0  0  0  0  0  0
   -6.2015    1.3974   13.7680 C   0  0  0  0  0  0  0  0  0  0  0  0
   -6.1511    2.6096   14.3395 N   0  0  0  0  0  0  0  0  0  0  0  0
   -5.4285    2.8259   14.9721 H   0  0  0  0  0  0  0  0  0  0  0  0
   -6.8369    3.2831   14.1264 H   0  0  0  0  0  0  0  0  0  0  0  0
  -12.6740    0.2473   10.7895 O   0  0  0  0  0  0  0  0  0  0  0  0
  -14.1964   -0.0133   11.2182 P   0  0  0  0  0  0  0  0  0  0  0  0
  -14.2776   -0.9652   12.3850 O   0  0  0  0  0  0  0  0  0  0  0  0
  -14.9467   -0.3203   10.0111 O   0  0  0  0  0  0  0  0  0  0  0  0
  -14.6200   -1.1502    9.6296 H   0  0  0  0  0  0  0  0  0  0  0  0
  -14.8018    1.3270   11.7389 O   0  0  0  0  0  0  0  0  0  0  0  0
  -15.3313    2.6601   10.9327 P   0  0  0  0  0  0  0  0  0  0  0  0
  -16.4975    2.2413   10.1237 O   0  0  0  0  0  0  0  0  0  0  0  0
  -15.2981    3.9240   11.7364 O   0  0  0  0  0  0  0  0  0  0  0  0
  -17.2764    2.1615   10.6964 H   0  0  0  0  0  0  0  0  0  0  0  0
  -14.1802    2.7394    9.8713 O   0  0  0  0  0  0  0  0  0  0  0  0
  -13.8277    4.0444    9.4719 C   0  0  0  0  0  0  0  0  0  0  0  0
  -14.5088    3.2899    7.1793 C   0  0  0  0  0  0  0  0  0  0  0  0
  -15.4043    4.1644    6.2065 C   0  0  0  0  0  0  0  0  0  0  0  0
  -16.7543    4.2780    6.6407 O   0  0  0  0  0  0  0  0  0  0  0  0
  -14.8353    5.5673    6.2875 C   0  0  0  0  0  0  0  0  0  0  0  0
  -14.0709    5.5153    7.5176 N   0  0  0  0  0  0  0  0  0  0  0  0
  -14.6366    4.3701    8.2256 C   0  0  0  0  0  0  0  0  0  0  0  0
  -16.7778    4.6871    7.5199 H   0  0  0  0  0  0  0  0  0  0  0  0
  -14.1908    6.3725    8.0573 H   0  0  0  0  0  0  0  0  0  0  0  0
 18 17  2  0  0  0
 18 19  1  0  0  0
 17 16  1  0  0  0
 20 19  1  0  0  0
 19 14  2  0  0  0
 16 15  2  0  0  0
 14 15  1  0  0  0
 14 13  1  0  0  0
 15 11  1  0  0  0
 13 12  2  0  0  0
 11  8  1  0  0  0
 11 12  1  0  0  0
  7  6  1  0  0  0
  8  6  1  0  0  0
  8  3  1  0  0  0
  6  4  1  0  0  0
  3  2  1  0  0  0
  2  4  1  0  0  0
  2  1  1  0  0  0
  4  5  1  0  0  0
  1 23  1  0  0  0
 23 24  1  0  0  0
 31 29  2  0  0  0
 24 25  2  0  0  0
 24 26  1  0  0  0
 24 28  1  0  0  0
 39 38  1  0  0  0
 39 40  1  0  0  0
 34 40  1  0  0  0
 34 33  1  0  0  0
 28 29  1  0  0  0
 29 33  1  0  0  0
 29 30  1  0  0  0
 38 36  1  0  0  0
 40 35  1  0  0  0
 35 36  1  0  0  0
 36 37  1  0  0  0
 37 41  1  0  0  0
 39 42  1  0  0  0
 30 32  1  0  0  0
 26 27  1  0  0  0
  5  9  1  0  0  0
  7 10  1  0  0  0
 20 21  1  0  0  0
 20 22  1  0  0  0
M  END
> <minimizedAffinity>
-9.51030

$$$$
6HH5_A3R_A_402


 42 45  0  0  0  0  0  0  0  0999 V2000
  -12.2938    0.7641   10.1539 C   0  0  0  0  0  0  0  0  0  0  0  0
  -11.1959   -0.3077   10.1621 C   0  0  0  0  0  0  0  0  0  0  0  0
   -9.9368    0.3686    9.9310 O   0  0  0  0  0  0  0  0  0  0  0  0
  -11.0515   -0.9912   11.4920 C   0  0  0  0  0  0  0  0  0  0  0  0
  -12.0174   -2.0828   11.7533 O   0  0  0  0  0  0  0  0  0  0  0  0
   -9.6116   -1.4778   11.3565 C   0  0  0  0  0  0  0  0  0  0  0  0
   -9.5524   -2.6001   10.6082 O   0  0  0  0  0  0  0  0  0  0  0  0
   -8.9128   -0.3637   10.5592 C   0  0  0  0  0  0  0  0  0  0  0  0
  -11.9461   -2.7518   11.0545 H   0  0  0  0  0  0  0  0  0  0  0  0
   -9.9419   -2.4285    9.7366 H   0  0  0  0  0  0  0  0  0  0  0  0
   -8.2568    0.5661   11.4909 N   0  0  0  0  0  0  0  0  0  0  0  0
   -8.5575    1.8540   11.7107 C   0  0  0  0  0  0  0  0  0  0  0  0
   -7.7185    2.3131   12.6368 N   0  0  0  0  0  0  0  0  0  0  0  0
   -6.9026    1.3144   13.0189 C   0  0  0  0  0  0  0  0  0  0  0  0
   -7.2450    0.2264   12.2901 C   0  0  0  0  0  0  0  0  0  0  0  0
   -6.5977   -0.9462   12.4406 N   0  0  0  0  0  0  0  0  0  0  0  0
   -5.5510   -1.0352   13.3710 C   0  0  0  0  0  0  0  0  0  0  0  0
   -5.2245    0.1128   14.1156 N   0  0  0  0  0  0  0  0  0  0  0  0
   -5.8985    1.2442   13.9143 C   0  0  0  0  0  0  0  0  0  0  0  0
   -5.6024    2.3463   14.6189 N   0  0  0  0  0  0  0  0  0  0  0  0
   -4.8739    2.3265   15.2808 H   0  0  0  0  0  0  0  0  0  0  0  0
   -6.1136    3.1752   14.4742 H   0  0  0  0  0  0  0  0  0  0  0  0
  -13.2401    0.6333   11.2354 O   0  0  0  0  0  0  0  0  0  0  0  0
  -14.7891    0.6270   10.8232 P   0  0  0  0  0  0  0  0  0  0  0  0
  -15.6758    0.5580   12.0411 O   0  0  0  0  0  0  0  0  0  0  0  0
  -14.9612   -0.3662    9.7752 O   0  0  0  0  0  0  0  0  0  0  0  0
  -14.7649   -1.2475   10.1295 H   0  0  0  0  0  0  0  0  0  0  0  0
  -15.1281    1.9908   10.1455 O   0  0  0  0  0  0  0  0  0  0  0  0
  -15.8029    3.3628   10.7538 P   0  0  0  0  0  0  0  0  0  0  0  0
  -17.1671    3.0099   11.2056 O   0  0  0  0  0  0  0  0  0  0  0  0
  -14.8642    4.2122   11.5550 O   0  0  0  0  0  0  0  0  0  0  0  0
  -17.1161    2.5448   12.0553 H   0  0  0  0  0  0  0  0  0  0  0  0
  -16.0642    4.0945    9.3921 O   0  0  0  0  0  0  0  0  0  0  0  0
  -15.0224    3.9864    8.4489 C   0  0  0  0  0  0  0  0  0  0  0  0
  -13.5813    5.8823    7.6628 C   0  0  0  0  0  0  0  0  0  0  0  0
  -12.4947    6.5859    8.5779 C   0  0  0  0  0  0  0  0  0  0  0  0
  -13.0642    7.3663    9.6221 O   0  0  0  0  0  0  0  0  0  0  0  0
  -11.7611    5.4559    9.2732 C   0  0  0  0  0  0  0  0  0  0  0  0
  -12.6841    4.3501    9.1141 N   0  0  0  0  0  0  0  0  0  0  0  0
  -13.9588    5.0044    8.8310 C   0  0  0  0  0  0  0  0  0  0  0  0
  -13.6119    6.7996   10.1875 H   0  0  0  0  0  0  0  0  0  0  0  0
  -12.7407    3.7971    9.9692 H   0  0  0  0  0  0  0  0  0  0  0  0
 18 17  2  0  0  0
 18 19  1  0  0  0
 17 16  1  0  0  0
 20 19  1  0  0  0
 19 14  2  0  0  0
 16 15  2  0  0  0
 14 15  1  0  0  0
 14 13  1  0  0  0
 15 11  1  0  0  0
 13 12  2  0  0  0
 11  8  1  0  0  0
 11 12  1  0  0  0
  7  6  1  0  0  0
  8  6  1  0  0  0
  8  3  1  0  0  0
  6  4  1  0  0  0
  3  2  1  0  0  0
  2  4  1  0  0  0
  2  1  1  0  0  0
  4  5  1  0  0  0
  1 23  1  0  0  0
 23 24  1  0  0  0
 31 29  2  0  0  0
 24 25  2  0  0  0
 24 26  1  0  0  0
 24 28  1  0  0  0
 39 38  1  0  0  0
 39 40  1  0  0  0
 34 40  1  0  0  0
 34 33  1  0  0  0
 28 29  1  0  0  0
 29 33  1  0  0  0
 29 30  1  0  0  0
 38 36  1  0  0  0
 40 35  1  0  0  0
 35 36  1  0  0  0
 36 37  1  0  0  0
 37 41  1  0  0  0
 39 42  1  0  0  0
 30 32  1  0  0  0
 26 27  1  0  0  0
  5  9  1  0  0  0
  7 10  1  0  0  0
 20 21  1  0  0  0
 20 22  1  0  0  0
M  END
> <minimizedAffinity>
-9.22820

$$$$
6HH5_A3R_A_402


 42 45  0  0  0  0  0  0  0  0999 V2000
  -12.8336   -0.2324   10.0773 C   0  0  0  0  0  0  0  0  0  0  0  0
  -11.5141   -1.0152   10.0958 C   0  0  0  0  0  0  0  0  0  0  0  0
  -10.4639   -0.0915    9.7218 O   0  0  0  0  0  0  0  0  0  0  0  0
  -11.1465   -1.5156   11.4637 C   0  0  0  0  0  0  0  0  0  0  0  0
  -11.8124   -2.7706   11.8811 O   0  0  0  0  0  0  0  0  0  0  0  0
   -9.6409   -1.6666   11.2673 C   0  0  0  0  0  0  0  0  0  0  0  0
   -9.3546   -2.8114   10.6111 O   0  0  0  0  0  0  0  0  0  0  0  0
   -9.2659   -0.5030   10.3340 C   0  0  0  0  0  0  0  0  0  0  0  0
  -11.6193   -3.4690   11.2362 H   0  0  0  0  0  0  0  0  0  0  0  0
   -9.8162   -2.8192    9.7580 H   0  0  0  0  0  0  0  0  0  0  0  0
   -8.8035    0.6385   11.1377 N   0  0  0  0  0  0  0  0  0  0  0  0
   -7.9960    0.6136   12.2077 C   0  0  0  0  0  0  0  0  0  0  0  0
   -7.8325    1.8686   12.6207 N   0  0  0  0  0  0  0  0  0  0  0  0
   -8.5164    2.6888   11.8028 C   0  0  0  0  0  0  0  0  0  0  0  0
   -9.1255    1.9066   10.8812 C   0  0  0  0  0  0  0  0  0  0  0  0
   -9.8998    2.4400    9.9155 N   0  0  0  0  0  0  0  0  0  0  0  0
  -10.0740    3.8317    9.8691 C   0  0  0  0  0  0  0  0  0  0  0  0
   -9.4224    4.6155   10.8387 N   0  0  0  0  0  0  0  0  0  0  0  0
   -8.6761    4.0261   11.7718 C   0  0  0  0  0  0  0  0  0  0  0  0
   -8.0450    4.7593   12.7006 N   0  0  0  0  0  0  0  0  0  0  0  0
   -8.1421    5.7390   12.7040 H   0  0  0  0  0  0  0  0  0  0  0  0
   -7.4845    4.3178   13.3790 H   0  0  0  0  0  0  0  0  0  0  0  0
  -13.5799   -0.3244   11.3089 O   0  0  0  0  0  0  0  0  0  0  0  0
  -14.9580    0.4924   11.3638 P   0  0  0  0  0  0  0  0  0  0  0  0
  -15.5968    0.3906   12.7260 O   0  0  0  0  0  0  0  0  0  0  0  0
  -15.7381    0.1177   10.1953 O   0  0  0  0  0  0  0  0  0  0  0  0
  -15.9705   -0.8225   10.2496 H   0  0  0  0  0  0  0  0  0  0  0  0
  -14.6446    2.0084   11.1698 O   0  0  0  0  0  0  0  0  0  0  0  0
  -15.6292    3.2811   10.8254 P   0  0  0  0  0  0  0  0  0  0  0  0
  -16.9864    2.9152   11.2881 O   0  0  0  0  0  0  0  0  0  0  0  0
  -15.0118    4.6248   11.0658 O   0  0  0  0  0  0  0  0  0  0  0  0
  -17.0371    3.0144   12.2517 H   0  0  0  0  0  0  0  0  0  0  0  0
  -15.7196    3.0681    9.2748 O   0  0  0  0  0  0  0  0  0  0  0  0
  -14.4869    3.1234    8.5936 C   0  0  0  0  0  0  0  0  0  0  0  0
  -14.1564    5.4131    7.6255 C   0  0  0  0  0  0  0  0  0  0  0  0
  -14.6766    5.8326    6.1879 C   0  0  0  0  0  0  0  0  0  0  0  0
  -13.9572    5.2108    5.1299 O   0  0  0  0  0  0  0  0  0  0  0  0
  -16.0867    5.2837    6.0939 C   0  0  0  0  0  0  0  0  0  0  0  0
  -16.0971    4.2888    7.1475 N   0  0  0  0  0  0  0  0  0  0  0  0
  -14.6806    4.0193    7.3798 C   0  0  0  0  0  0  0  0  0  0  0  0
  -14.0353    4.2471    5.2084 H   0  0  0  0  0  0  0  0  0  0  0  0
  -16.5838    3.4445    6.8463 H   0  0  0  0  0  0  0  0  0  0  0  0
 18 17  2  0  0  0
 18 19  1  0  0  0
 17 16  1  0  0  0
 20 19  1  0  0  0
 19 14  2  0  0  0
 16 15  2  0  0  0
 14 15  1  0  0  0
 14 13  1  0  0  0
 15 11  1  0  0  0
 13 12  2  0  0  0
 11  8  1  0  0  0
 11 12  1  0  0  0
  7  6  1  0  0  0
  8  6  1  0  0  0
  8  3  1  0  0  0
  6  4  1  0  0  0
  3  2  1  0  0  0
  2  4  1  0  0  0
  2  1  1  0  0  0
  4  5  1  0  0  0
  1 23  1  0  0  0
 23 24  1  0  0  0
 31 29  2  0  0  0
 24 25  2  0  0  0
 24 26  1  0  0  0
 24 28  1  0  0  0
 39 38  1  0  0  0
 39 40  1  0  0  0
 34 40  1  0  0  0
 34 33  1  0  0  0
 28 29  1  0  0  0
 29 33  1  0  0  0
 29 30  1  0  0  0
 38 36  1  0  0  0
 40 35  1  0  0  0
 35 36  1  0  0  0
 36 37  1  0  0  0
 37 41  1  0  0  0
 39 42  1  0  0  0
 30 32  1  0  0  0
 26 27  1  0  0  0
  5  9  1  0  0  0
  7 10  1  0  0  0
 20 21  1  0  0  0
 20 22  1  0  0  0
M  END
> <minimizedAffinity>
-9.19196

$$$$
6HH5_A3R_A_402


 42 45  0  0  0  0  0  0  0  0999 V2000
   -9.9049    4.9333    9.7022 C   0  0  0  0  0  0  0  0  0  0  0  0
   -8.7065    4.0539   10.0829 C   0  0  0  0  0  0  0  0  0  0  0  0
   -9.1663    3.1154   11.0848 O   0  0  0  0  0  0  0  0  0  0  0  0
   -8.2061    3.2159    8.9409 C   0  0  0  0  0  0  0  0  0  0  0  0
   -7.3038    3.9082    7.9927 O   0  0  0  0  0  0  0  0  0  0  0  0
   -7.5149    2.1132    9.7375 C   0  0  0  0  0  0  0  0  0  0  0  0
   -6.2998    2.5188   10.1645 O   0  0  0  0  0  0  0  0  0  0  0  0
   -8.3992    1.9404   10.9840 C   0  0  0  0  0  0  0  0  0  0  0  0
   -6.5387    4.2610    8.4734 H   0  0  0  0  0  0  0  0  0  0  0  0
   -6.3967    3.3220   10.6997 H   0  0  0  0  0  0  0  0  0  0  0  0
   -9.3547    0.8457   10.7572 N   0  0  0  0  0  0  0  0  0  0  0  0
  -10.5030    0.8903   10.0666 C   0  0  0  0  0  0  0  0  0  0  0  0
  -11.0484   -0.3234   10.1094 N   0  0  0  0  0  0  0  0  0  0  0  0
  -10.2386   -1.1405   10.8063 C   0  0  0  0  0  0  0  0  0  0  0  0
   -9.1836   -0.3959   11.2122 C   0  0  0  0  0  0  0  0  0  0  0  0
   -8.1902   -0.9352   11.9463 N   0  0  0  0  0  0  0  0  0  0  0  0
   -8.2556   -2.2934   12.2930 C   0  0  0  0  0  0  0  0  0  0  0  0
   -9.3630   -3.0394   11.8503 N   0  0  0  0  0  0  0  0  0  0  0  0
  -10.3157   -2.4451   11.1333 C   0  0  0  0  0  0  0  0  0  0  0  0
  -11.3757   -3.1432   10.7001 N   0  0  0  0  0  0  0  0  0  0  0  0
  -11.4604   -4.0985   10.9227 H   0  0  0  0  0  0  0  0  0  0  0  0
  -12.0692   -2.7004   10.1595 H   0  0  0  0  0  0  0  0  0  0  0  0
  -11.1830    4.3140    9.9571 O   0  0  0  0  0  0  0  0  0  0  0  0
  -12.4455    4.9657    9.2150 P   0  0  0  0  0  0  0  0  0  0  0  0
  -12.1682    5.1684    7.7466 O   0  0  0  0  0  0  0  0  0  0  0  0
  -12.8829    6.1032   10.0081 O   0  0  0  0  0  0  0  0  0  0  0  0
  -12.1867    6.7786   10.0161 H   0  0  0  0  0  0  0  0  0  0  0  0
  -13.6319    3.9541    9.2728 O   0  0  0  0  0  0  0  0  0  0  0  0
  -15.1217    4.0725    9.9615 P   0  0  0  0  0  0  0  0  0  0  0  0
  -14.9121    4.3157   11.4061 O   0  0  0  0  0  0  0  0  0  0  0  0
  -16.1271    4.8184    9.1385 O   0  0  0  0  0  0  0  0  0  0  0  0
  -14.6692    5.2444   11.5457 H   0  0  0  0  0  0  0  0  0  0  0  0
  -15.5004    2.5520    9.9146 O   0  0  0  0  0  0  0  0  0  0  0  0
  -14.4177    1.6752    9.7006 C   0  0  0  0  0  0  0  0  0  0  0  0
  -14.2108   -0.5806   10.7765 C   0  0  0  0  0  0  0  0  0  0  0  0
  -14.0297   -0.7858   12.3380 C   0  0  0  0  0  0  0  0  0  0  0  0
  -12.7541   -0.3711   12.8119 O   0  0  0  0  0  0  0  0  0  0  0  0
  -15.0261    0.1553   12.9861 C   0  0  0  0  0  0  0  0  0  0  0  0
  -15.3200    1.0775   11.9075 N   0  0  0  0  0  0  0  0  0  0  0  0
  -14.1904    0.9124   10.9967 C   0  0  0  0  0  0  0  0  0  0  0  0
  -12.6266    0.5703   12.6157 H   0  0  0  0  0  0  0  0  0  0  0  0
  -15.3728    2.0360   12.2522 H   0  0  0  0  0  0  0  0  0  0  0  0
 18 17  2  0  0  0
 18 19  1  0  0  0
 17 16  1  0  0  0
 20 19  1  0  0  0
 19 14  2  0  0  0
 16 15  2  0  0  0
 14 15  1  0  0  0
 14 13  1  0  0  0
 15 11  1  0  0  0
 13 12  2  0  0  0
 11  8  1  0  0  0
 11 12  1  0  0  0
  7  6  1  0  0  0
  8  6  1  0  0  0
  8  3  1  0  0  0
  6  4  1  0  0  0
  3  2  1  0  0  0
  2  4  1  0  0  0
  2  1  1  0  0  0
  4  5  1  0  0  0
  1 23  1  0  0  0
 23 24  1  0  0  0
 31 29  2  0  0  0
 24 25  2  0  0  0
 24 26  1  0  0  0
 24 28  1  0  0  0
 39 38  1  0  0  0
 39 40  1  0  0  0
 34 40  1  0  0  0
 34 33  1  0  0  0
 28 29  1  0  0  0
 29 33  1  0  0  0
 29 30  1  0  0  0
 38 36  1  0  0  0
 40 35  1  0  0  0
 35 36  1  0  0  0
 36 37  1  0  0  0
 37 41  1  0  0  0
 39 42  1  0  0  0
 30 32  1  0  0  0
 26 27  1  0  0  0
  5  9  1  0  0  0
  7 10  1  0  0  0
 20 21  1  0  0  0
 20 22  1  0  0  0
M  END
> <minimizedAffinity>
-9.11393

$$$$
6HH5_A3R_A_402


 42 45  0  0  0  0  0  0  0  0999 V2000
  -14.5180    3.2608    8.4462 C   0  0  0  0  0  0  0  0  0  0  0  0
  -13.5488    4.3062    7.8787 C   0  0  0  0  0  0  0  0  0  0  0  0
  -13.8899    4.4927    6.4841 O   0  0  0  0  0  0  0  0  0  0  0  0
  -13.7011    5.6571    8.5180 C   0  0  0  0  0  0  0  0  0  0  0  0
  -13.0093    5.8271    9.8162 O   0  0  0  0  0  0  0  0  0  0  0  0
  -13.1141    6.5177    7.4030 C   0  0  0  0  0  0  0  0  0  0  0  0
  -11.7645    6.4916    7.4362 O   0  0  0  0  0  0  0  0  0  0  0  0
  -13.5497    5.8059    6.1111 C   0  0  0  0  0  0  0  0  0  0  0  0
  -12.0631    5.6448    9.7047 H   0  0  0  0  0  0  0  0  0  0  0  0
  -11.4569    5.5746    7.3625 H   0  0  0  0  0  0  0  0  0  0  0  0
  -14.7865    6.4219    5.6072 N   0  0  0  0  0  0  0  0  0  0  0  0
  -16.0482    6.0255    5.8278 C   0  0  0  0  0  0  0  0  0  0  0  0
  -16.8552    6.8707    5.1901 N   0  0  0  0  0  0  0  0  0  0  0  0
  -16.1094    7.8123    4.5849 C   0  0  0  0  0  0  0  0  0  0  0  0
  -14.8148    7.5177    4.8482 C   0  0  0  0  0  0  0  0  0  0  0  0
  -13.8138    8.2821    4.3682 N   0  0  0  0  0  0  0  0  0  0  0  0
  -14.1249    9.4023    3.5824 C   0  0  0  0  0  0  0  0  0  0  0  0
  -15.4805    9.6829    3.3327 N   0  0  0  0  0  0  0  0  0  0  0  0
  -16.4230    8.8835    3.8304 C   0  0  0  0  0  0  0  0  0  0  0  0
  -17.7200    9.1394    3.6051 N   0  0  0  0  0  0  0  0  0  0  0  0
  -17.9808    9.9149    3.0575 H   0  0  0  0  0  0  0  0  0  0  0  0
  -18.4113    8.5518    3.9872 H   0  0  0  0  0  0  0  0  0  0  0  0
  -15.5744    3.8255    9.2506 O   0  0  0  0  0  0  0  0  0  0  0  0
  -15.5793    3.4164   10.8005 P   0  0  0  0  0  0  0  0  0  0  0  0
  -16.9365    2.9160   11.2267 O   0  0  0  0  0  0  0  0  0  0  0  0
  -14.9699    4.5068   11.5449 O   0  0  0  0  0  0  0  0  0  0  0  0
  -15.5219    5.3004   11.4658 H   0  0  0  0  0  0  0  0  0  0  0  0
  -14.6150    2.2058   10.9973 O   0  0  0  0  0  0  0  0  0  0  0  0
  -14.9209    0.6167   11.2956 P   0  0  0  0  0  0  0  0  0  0  0  0
  -15.7703    0.5598   12.5060 O   0  0  0  0  0  0  0  0  0  0  0  0
  -15.1781   -0.2053   10.0698 O   0  0  0  0  0  0  0  0  0  0  0  0
  -16.6831    0.7894   12.2715 H   0  0  0  0  0  0  0  0  0  0  0  0
  -13.5051    0.2256   11.8437 O   0  0  0  0  0  0  0  0  0  0  0  0
  -12.4974    0.1151   10.8644 C   0  0  0  0  0  0  0  0  0  0  0  0
  -10.3547   -1.1006   10.3951 C   0  0  0  0  0  0  0  0  0  0  0  0
   -9.8365   -2.3179   11.2685 C   0  0  0  0  0  0  0  0  0  0  0  0
   -9.4074   -1.9303   12.5683 O   0  0  0  0  0  0  0  0  0  0  0  0
  -11.0497   -3.1996   11.4906 C   0  0  0  0  0  0  0  0  0  0  0  0
  -12.1421   -2.2947   11.1940 N   0  0  0  0  0  0  0  0  0  0  0  0
  -11.5375   -0.9717   11.3238 C   0  0  0  0  0  0  0  0  0  0  0  0
  -10.1446   -1.5134   13.0413 H   0  0  0  0  0  0  0  0  0  0  0  0
  -12.9047   -2.4136   11.8609 H   0  0  0  0  0  0  0  0  0  0  0  0
 18 17  2  0  0  0
 18 19  1  0  0  0
 17 16  1  0  0  0
 20 19  1  0  0  0
 19 14  2  0  0  0
 16 15  2  0  0  0
 14 15  1  0  0  0
 14 13  1  0  0  0
 15 11  1  0  0  0
 13 12  2  0  0  0
 11  8  1  0  0  0
 11 12  1  0  0  0
  7  6  1  0  0  0
  8  6  1  0  0  0
  8  3  1  0  0  0
  6  4  1  0  0  0
  3  2  1  0  0  0
  2  4  1  0  0  0
  2  1  1  0  0  0
  4  5  1  0  0  0
  1 23  1  0  0  0
 23 24  1  0  0  0
 31 29  2  0  0  0
 24 25  2  0  0  0
 24 26  1  0  0  0
 24 28  1  0  0  0
 39 38  1  0  0  0
 39 40  1  0  0  0
 34 40  1  0  0  0
 34 33  1  0  0  0
 28 29  1  0  0  0
 29 33  1  0  0  0
 29 30  1  0  0  0
 38 36  1  0  0  0
 40 35  1  0  0  0
 35 36  1  0  0  0
 36 37  1  0  0  0
 37 41  1  0  0  0
 39 42  1  0  0  0
 30 32  1  0  0  0
 26 27  1  0  0  0
  5  9  1  0  0  0
  7 10  1  0  0  0
 20 21  1  0  0  0
 20 22  1  0  0  0
M  END
> <minimizedAffinity>
-9.02761

$$$$
6HH5_A3R_A_402


 42 45  0  0  0  0  0  0  0  0999 V2000
  -13.7283    0.5860    9.4401 C   0  0  0  0  0  0  0  0  0  0  0  0
  -13.9430    1.9217   10.1641 C   0  0  0  0  0  0  0  0  0  0  0  0
  -13.1581    2.9175    9.4654 O   0  0  0  0  0  0  0  0  0  0  0  0
  -15.3639    2.4047   10.0975 C   0  0  0  0  0  0  0  0  0  0  0  0
  -16.2863    1.8032   11.0876 O   0  0  0  0  0  0  0  0  0  0  0  0
  -15.1218    3.8941   10.3238 C   0  0  0  0  0  0  0  0  0  0  0  0
  -14.9395    4.1571   11.6356 O   0  0  0  0  0  0  0  0  0  0  0  0
  -13.7842    4.1684    9.6161 C   0  0  0  0  0  0  0  0  0  0  0  0
  -15.9489    1.9633   11.9828 H   0  0  0  0  0  0  0  0  0  0  0  0
  -14.1957    3.6320   11.9703 H   0  0  0  0  0  0  0  0  0  0  0  0
  -14.0437    4.6630    8.2556 N   0  0  0  0  0  0  0  0  0  0  0  0
  -15.1905    4.5959    7.5642 C   0  0  0  0  0  0  0  0  0  0  0  0
  -14.9839    5.1699    6.3809 N   0  0  0  0  0  0  0  0  0  0  0  0
  -13.7170    5.6189    6.3300 C   0  0  0  0  0  0  0  0  0  0  0  0
  -13.1358    5.2905    7.5075 C   0  0  0  0  0  0  0  0  0  0  0  0
  -11.8496    5.6028    7.7618 N   0  0  0  0  0  0  0  0  0  0  0  0
  -11.1042    6.2806    6.7849 C   0  0  0  0  0  0  0  0  0  0  0  0
  -11.7404    6.6115    5.5748 N   0  0  0  0  0  0  0  0  0  0  0  0
  -13.0131    6.2679    5.3822 C   0  0  0  0  0  0  0  0  0  0  0  0
  -13.6353    6.5796    4.2358 N   0  0  0  0  0  0  0  0  0  0  0  0
  -13.1476    7.0539    3.5241 H   0  0  0  0  0  0  0  0  0  0  0  0
  -14.5799    6.3342    4.1059 H   0  0  0  0  0  0  0  0  0  0  0  0
  -12.4940   -0.0731    9.7927 O   0  0  0  0  0  0  0  0  0  0  0  0
  -12.5193   -0.9521   11.1329 P   0  0  0  0  0  0  0  0  0  0  0  0
  -13.8747   -1.5772   11.3479 O   0  0  0  0  0  0  0  0  0  0  0  0
  -11.9431   -0.1470   12.1978 O   0  0  0  0  0  0  0  0  0  0  0  0
  -12.5077    0.6245   12.3615 H   0  0  0  0  0  0  0  0  0  0  0  0
  -11.5371   -2.1517   10.9582 O   0  0  0  0  0  0  0  0  0  0  0  0
   -9.9785   -2.3534   11.4460 P   0  0  0  0  0  0  0  0  0  0  0  0
   -9.8647   -1.7472   12.7912 O   0  0  0  0  0  0  0  0  0  0  0  0
   -9.3845   -3.6814   11.0885 O   0  0  0  0  0  0  0  0  0  0  0  0
  -10.2483   -2.3472   13.4497 H   0  0  0  0  0  0  0  0  0  0  0  0
   -9.3227   -1.2724   10.5191 O   0  0  0  0  0  0  0  0  0  0  0  0
   -8.4528   -0.3764   11.1727 C   0  0  0  0  0  0  0  0  0  0  0  0
   -8.1572    1.6776    9.7646 C   0  0  0  0  0  0  0  0  0  0  0  0
   -9.0011    3.0034    9.9729 C   0  0  0  0  0  0  0  0  0  0  0  0
  -10.3655    2.8624    9.5958 O   0  0  0  0  0  0  0  0  0  0  0  0
   -9.0189    3.2383   11.4706 C   0  0  0  0  0  0  0  0  0  0  0  0
   -8.6580    1.9335   11.9878 N   0  0  0  0  0  0  0  0  0  0  0  0
   -8.9472    1.0312   10.8764 C   0  0  0  0  0  0  0  0  0  0  0  0
  -10.7757    2.1591   10.1230 H   0  0  0  0  0  0  0  0  0  0  0  0
   -9.2211    1.6972   12.8047 H   0  0  0  0  0  0  0  0  0  0  0  0
 18 17  2  0  0  0
 18 19  1  0  0  0
 17 16  1  0  0  0
 20 19  1  0  0  0
 19 14  2  0  0  0
 16 15  2  0  0  0
 14 15  1  0  0  0
 14 13  1  0  0  0
 15 11  1  0  0  0
 13 12  2  0  0  0
 11  8  1  0  0  0
 11 12  1  0  0  0
  7  6  1  0  0  0
  8  6  1  0  0  0
  8  3  1  0  0  0
  6  4  1  0  0  0
  3  2  1  0  0  0
  2  4  1  0  0  0
  2  1  1  0  0  0
  4  5  1  0  0  0
  1 23  1  0  0  0
 23 24  1  0  0  0
 31 29  2  0  0  0
 24 25  2  0  0  0
 24 26  1  0  0  0
 24 28  1  0  0  0
 39 38  1  0  0  0
 39 40  1  0  0  0
 34 40  1  0  0  0
 34 33  1  0  0  0
 28 29  1  0  0  0
 29 33  1  0  0  0
 29 30  1  0  0  0
 38 36  1  0  0  0
 40 35  1  0  0  0
 35 36  1  0  0  0
 36 37  1  0  0  0
 37 41  1  0  0  0
 39 42  1  0  0  0
 30 32  1  0  0  0
 26 27  1  0  0  0
  5  9  1  0  0  0
  7 10  1  0  0  0
 20 21  1  0  0  0
 20 22  1  0  0  0
M  END
> <minimizedAffinity>
-8.87469

$$$$
6HH5_A3R_A_402


 42 45  0  0  0  0  0  0  0  0999 V2000
  -14.1922    3.9994    8.9293 C   0  0  0  0  0  0  0  0  0  0  0  0
  -14.5215    2.5171    9.1502 C   0  0  0  0  0  0  0  0  0  0  0  0
  -13.4101    1.7501    8.6283 O   0  0  0  0  0  0  0  0  0  0  0  0
  -14.6232    2.1477   10.6028 C   0  0  0  0  0  0  0  0  0  0  0  0
  -15.9200    2.4566   11.2475 O   0  0  0  0  0  0  0  0  0  0  0  0
  -14.3455    0.6515   10.4898 C   0  0  0  0  0  0  0  0  0  0  0  0
  -15.4514   -0.0134   10.0921 O   0  0  0  0  0  0  0  0  0  0  0  0
  -13.3184    0.5458    9.3500 C   0  0  0  0  0  0  0  0  0  0  0  0
  -16.6346    2.0109   10.7662 H   0  0  0  0  0  0  0  0  0  0  0  0
  -15.7572    0.3456    9.2445 H   0  0  0  0  0  0  0  0  0  0  0  0
  -11.9617    0.5101    9.9166 N   0  0  0  0  0  0  0  0  0  0  0  0
  -11.0642    1.5053    9.9569 C   0  0  0  0  0  0  0  0  0  0  0  0
   -9.9733    1.0421   10.5634 N   0  0  0  0  0  0  0  0  0  0  0  0
  -10.1858   -0.2356   10.9258 C   0  0  0  0  0  0  0  0  0  0  0  0
  -11.4325   -0.5600   10.5103 C   0  0  0  0  0  0  0  0  0  0  0  0
  -11.9407   -1.7901   10.7226 N   0  0  0  0  0  0  0  0  0  0  0  0
  -11.1593   -2.7478   11.3870 C   0  0  0  0  0  0  0  0  0  0  0  0
   -9.8703   -2.3759   11.8102 N   0  0  0  0  0  0  0  0  0  0  0  0
   -9.4235   -1.1454   11.5632 C   0  0  0  0  0  0  0  0  0  0  0  0
   -8.1987   -0.7738   11.9637 N   0  0  0  0  0  0  0  0  0  0  0  0
   -7.6180   -1.4161   12.4320 H   0  0  0  0  0  0  0  0  0  0  0  0
   -7.8804    0.1414   11.7894 H   0  0  0  0  0  0  0  0  0  0  0  0
  -15.2706    4.7505    8.3335 O   0  0  0  0  0  0  0  0  0  0  0  0
  -15.4654    4.5756    6.7521 P   0  0  0  0  0  0  0  0  0  0  0  0
  -16.8595    4.1030    6.4248 O   0  0  0  0  0  0  0  0  0  0  0  0
  -14.3326    3.8140    6.2511 O   0  0  0  0  0  0  0  0  0  0  0  0
  -14.3482    2.9224    6.6328 H   0  0  0  0  0  0  0  0  0  0  0  0
  -15.3383    5.9771    6.0783 O   0  0  0  0  0  0  0  0  0  0  0  0
  -14.1118    6.6556    5.2164 P   0  0  0  0  0  0  0  0  0  0  0  0
  -13.3532    7.5180    6.1495 O   0  0  0  0  0  0  0  0  0  0  0  0
  -13.4592    5.7312    4.2346 O   0  0  0  0  0  0  0  0  0  0  0  0
  -12.7828    6.9669    6.7079 H   0  0  0  0  0  0  0  0  0  0  0  0
  -14.9671    7.6880    4.4037 O   0  0  0  0  0  0  0  0  0  0  0  0
  -16.3443    7.6871    4.7039 C   0  0  0  0  0  0  0  0  0  0  0  0
  -18.4412    8.5374    3.6225 C   0  0  0  0  0  0  0  0  0  0  0  0
  -18.5007    9.8748    2.7733 C   0  0  0  0  0  0  0  0  0  0  0  0
  -18.3571   11.0471    3.5662 O   0  0  0  0  0  0  0  0  0  0  0  0
  -17.2762    9.8395    1.8801 C   0  0  0  0  0  0  0  0  0  0  0  0
  -16.4425    8.8581    2.5449 N   0  0  0  0  0  0  0  0  0  0  0  0
  -16.9830    8.8099    3.9008 C   0  0  0  0  0  0  0  0  0  0  0  0
  -17.5047   11.0224    4.0285 H   0  0  0  0  0  0  0  0  0  0  0  0
  -15.4666    9.1546    2.5523 H   0  0  0  0  0  0  0  0  0  0  0  0
 18 17  2  0  0  0
 18 19  1  0  0  0
 17 16  1  0  0  0
 20 19  1  0  0  0
 19 14  2  0  0  0
 16 15  2  0  0  0
 14 15  1  0  0  0
 14 13  1  0  0  0
 15 11  1  0  0  0
 13 12  2  0  0  0
 11  8  1  0  0  0
 11 12  1  0  0  0
  7  6  1  0  0  0
  8  6  1  0  0  0
  8  3  1  0  0  0
  6  4  1  0  0  0
  3  2  1  0  0  0
  2  4  1  0  0  0
  2  1  1  0  0  0
  4  5  1  0  0  0
  1 23  1  0  0  0
 23 24  1  0  0  0
 31 29  2  0  0  0
 24 25  2  0  0  0
 24 26  1  0  0  0
 24 28  1  0  0  0
 39 38  1  0  0  0
 39 40  1  0  0  0
 34 40  1  0  0  0
 34 33  1  0  0  0
 28 29  1  0  0  0
 29 33  1  0  0  0
 29 30  1  0  0  0
 38 36  1  0  0  0
 40 35  1  0  0  0
 35 36  1  0  0  0
 36 37  1  0  0  0
 37 41  1  0  0  0
 39 42  1  0  0  0
 30 32  1  0  0  0
 26 27  1  0  0  0
  5  9  1  0  0  0
  7 10  1  0  0  0
 20 21  1  0  0  0
 20 22  1  0  0  0
M  END
> <minimizedAffinity>
-8.77087

$$$$
6HH5_A3R_A_402


 42 45  0  0  0  0  0  0  0  0999 V2000
   -9.2789    0.1019   11.2381 C   0  0  0  0  0  0  0  0  0  0  0  0
   -7.8165    0.4889   11.4948 C   0  0  0  0  0  0  0  0  0  0  0  0
   -7.0401   -0.0108   10.3796 O   0  0  0  0  0  0  0  0  0  0  0  0
   -7.5956    1.9747   11.5099 C   0  0  0  0  0  0  0  0  0  0  0  0
   -7.9226    2.6526   12.7852 O   0  0  0  0  0  0  0  0  0  0  0  0
   -6.1067    1.9993   11.1767 C   0  0  0  0  0  0  0  0  0  0  0  0
   -5.3650    1.7302   12.2724 O   0  0  0  0  0  0  0  0  0  0  0  0
   -5.9209    0.8233   10.2032 C   0  0  0  0  0  0  0  0  0  0  0  0
   -7.4042    2.2575   13.5036 H   0  0  0  0  0  0  0  0  0  0  0  0
   -5.6233    0.8680   12.6339 H   0  0  0  0  0  0  0  0  0  0  0  0
   -5.9928    1.3180    8.8201 N   0  0  0  0  0  0  0  0  0  0  0  0
   -5.9470    2.5910    8.4018 C   0  0  0  0  0  0  0  0  0  0  0  0
   -6.0377    2.5840    7.0736 N   0  0  0  0  0  0  0  0  0  0  0  0
   -6.1190    1.3103    6.6492 C   0  0  0  0  0  0  0  0  0  0  0  0
   -6.0959    0.5262    7.7523 C   0  0  0  0  0  0  0  0  0  0  0  0
   -6.1693   -0.8162    7.6558 N   0  0  0  0  0  0  0  0  0  0  0  0
   -6.2710   -1.4062    6.3866 C   0  0  0  0  0  0  0  0  0  0  0  0
   -6.2869   -0.5626    5.2611 N   0  0  0  0  0  0  0  0  0  0  0  0
   -6.2184    0.7579    5.4245 C   0  0  0  0  0  0  0  0  0  0  0  0
   -6.2281    1.5757    4.3617 N   0  0  0  0  0  0  0  0  0  0  0  0
   -6.2997    1.2020    3.4537 H   0  0  0  0  0  0  0  0  0  0  0  0
   -6.1638    2.5497    4.4895 H   0  0  0  0  0  0  0  0  0  0  0  0
   -9.4375   -1.2024   10.6415 O   0  0  0  0  0  0  0  0  0  0  0  0
  -10.8971   -1.8563   10.7482 P   0  0  0  0  0  0  0  0  0  0  0  0
  -10.8409   -3.2056   11.4193 O   0  0  0  0  0  0  0  0  0  0  0  0
  -11.5228   -1.7510    9.4399 O   0  0  0  0  0  0  0  0  0  0  0  0
  -11.0260   -2.2845    8.8000 H   0  0  0  0  0  0  0  0  0  0  0  0
  -11.7719   -0.9677   11.6858 O   0  0  0  0  0  0  0  0  0  0  0  0
  -13.3645   -0.5600   11.6135 P   0  0  0  0  0  0  0  0  0  0  0  0
  -14.0676   -1.6798   10.9489 O   0  0  0  0  0  0  0  0  0  0  0  0
  -13.8844    0.1270   12.8391 O   0  0  0  0  0  0  0  0  0  0  0  0
  -14.1848   -2.4076   11.5794 H   0  0  0  0  0  0  0  0  0  0  0  0
  -13.2593    0.5117   10.4742 O   0  0  0  0  0  0  0  0  0  0  0  0
  -14.3680    0.5677    9.6055 C   0  0  0  0  0  0  0  0  0  0  0  0
  -14.0202    3.0002   10.1070 C   0  0  0  0  0  0  0  0  0  0  0  0
  -15.2119    4.0307   10.2827 C   0  0  0  0  0  0  0  0  0  0  0  0
  -15.8912    4.3124    9.0648 O   0  0  0  0  0  0  0  0  0  0  0  0
  -16.2291    3.3250   11.1577 C   0  0  0  0  0  0  0  0  0  0  0  0
  -15.8314    1.9374   11.0285 N   0  0  0  0  0  0  0  0  0  0  0  0
  -15.0320    1.9214    9.8063 C   0  0  0  0  0  0  0  0  0  0  0  0
  -16.2557    3.4907    8.7003 H   0  0  0  0  0  0  0  0  0  0  0  0
  -16.6471    1.3317   10.9380 H   0  0  0  0  0  0  0  0  0  0  0  0
 18 17  2  0  0  0
 18 19  1  0  0  0
 17 16  1  0  0  0
 20 19  1  0  0  0
 19 14  2  0  0  0
 16 15  2  0  0  0
 14 15  1  0  0  0
 14 13  1  0  0  0
 15 11  1  0  0  0
 13 12  2  0  0  0
 11  8  1  0  0  0
 11 12  1  0  0  0
  7  6  1  0  0  0
  8  6  1  0  0  0
  8  3  1  0  0  0
  6  4  1  0  0  0
  3  2  1  0  0  0
  2  4  1  0  0  0
  2  1  1  0  0  0
  4  5  1  0  0  0
  1 23  1  0  0  0
 23 24  1  0  0  0
 31 29  2  0  0  0
 24 25  2  0  0  0
 24 26  1  0  0  0
 24 28  1  0  0  0
 39 38  1  0  0  0
 39 40  1  0  0  0
 34 40  1  0  0  0
 34 33  1  0  0  0
 28 29  1  0  0  0
 29 33  1  0  0  0
 29 30  1  0  0  0
 38 36  1  0  0  0
 40 35  1  0  0  0
 35 36  1  0  0  0
 36 37  1  0  0  0
 37 41  1  0  0  0
 39 42  1  0  0  0
 30 32  1  0  0  0
 26 27  1  0  0  0
  5  9  1  0  0  0
  7 10  1  0  0  0
 20 21  1  0  0  0
 20 22  1  0  0  0
M  END
> <minimizedAffinity>
-8.66624

$$$$
6HH5_A3R_A_402


 42 45  0  0  0  0  0  0  0  0999 V2000
  -15.4799    2.0044   11.5911 C   0  0  0  0  0  0  0  0  0  0  0  0
  -14.9244    0.6343   11.1807 C   0  0  0  0  0  0  0  0  0  0  0  0
  -14.0454    0.8506   10.0508 O   0  0  0  0  0  0  0  0  0  0  0  0
  -14.0710    0.0035   12.2440 C   0  0  0  0  0  0  0  0  0  0  0  0
  -14.8101   -0.6992   13.3176 O   0  0  0  0  0  0  0  0  0  0  0  0
  -13.2461   -0.9326   11.3654 C   0  0  0  0  0  0  0  0  0  0  0  0
  -13.9463   -2.0460   11.0603 O   0  0  0  0  0  0  0  0  0  0  0  0
  -13.0525   -0.1461   10.0580 C   0  0  0  0  0  0  0  0  0  0  0  0
  -15.3722   -1.3864   12.9268 H   0  0  0  0  0  0  0  0  0  0  0  0
  -14.7729   -1.7971   10.6180 H   0  0  0  0  0  0  0  0  0  0  0  0
  -11.7633    0.5604   10.0992 N   0  0  0  0  0  0  0  0  0  0  0  0
  -11.4933    1.7989    9.6623 C   0  0  0  0  0  0  0  0  0  0  0  0
  -10.2060    2.0405    9.9009 N   0  0  0  0  0  0  0  0  0  0  0  0
   -9.6664    0.9675   10.5065 C   0  0  0  0  0  0  0  0  0  0  0  0
  -10.6497    0.0443   10.6201 C   0  0  0  0  0  0  0  0  0  0  0  0
  -10.4172   -1.1566   11.1861 N   0  0  0  0  0  0  0  0  0  0  0  0
   -9.1310   -1.4497   11.6647 C   0  0  0  0  0  0  0  0  0  0  0  0
   -8.1339   -0.4659   11.5356 N   0  0  0  0  0  0  0  0  0  0  0  0
   -8.4264    0.6993   10.9596 C   0  0  0  0  0  0  0  0  0  0  0  0
   -7.4883    1.6493   10.8327 N   0  0  0  0  0  0  0  0  0  0  0  0
   -6.5728    1.4831   11.1542 H   0  0  0  0  0  0  0  0  0  0  0  0
   -7.7152    2.5128   10.4179 H   0  0  0  0  0  0  0  0  0  0  0  0
  -16.1122    2.7214   10.5103 O   0  0  0  0  0  0  0  0  0  0  0  0
  -15.7911    4.2891   10.4179 P   0  0  0  0  0  0  0  0  0  0  0  0
  -14.3534    4.5718   10.7748 O   0  0  0  0  0  0  0  0  0  0  0  0
  -16.8416    4.9960   11.1328 O   0  0  0  0  0  0  0  0  0  0  0  0
  -16.8074    4.7608   12.0733 H   0  0  0  0  0  0  0  0  0  0  0  0
  -15.9414    4.7399    8.9319 O   0  0  0  0  0  0  0  0  0  0  0  0
  -15.3811    4.0711    7.5367 P   0  0  0  0  0  0  0  0  0  0  0  0
  -14.4741    2.9666    7.9206 O   0  0  0  0  0  0  0  0  0  0  0  0
  -16.4059    3.9550    6.4502 O   0  0  0  0  0  0  0  0  0  0  0  0
  -14.9986    2.1966    8.1906 H   0  0  0  0  0  0  0  0  0  0  0  0
  -14.3875    5.2153    7.1350 O   0  0  0  0  0  0  0  0  0  0  0  0
  -13.8873    5.1347    5.8197 C   0  0  0  0  0  0  0  0  0  0  0  0
  -15.0566    7.2317    5.0952 C   0  0  0  0  0  0  0  0  0  0  0  0
  -14.2931    8.5052    4.5395 C   0  0  0  0  0  0  0  0  0  0  0  0
  -13.5468    9.1894    5.5388 O   0  0  0  0  0  0  0  0  0  0  0  0
  -13.2637    7.9649    3.5665 C   0  0  0  0  0  0  0  0  0  0  0  0
  -13.1800    6.5711    3.9545 N   0  0  0  0  0  0  0  0  0  0  0  0
  -13.7230    6.5585    5.3102 C   0  0  0  0  0  0  0  0  0  0  0  0
  -12.8889    8.5872    5.9201 H   0  0  0  0  0  0  0  0  0  0  0  0
  -12.2125    6.2484    3.9467 H   0  0  0  0  0  0  0  0  0  0  0  0
 18 17  2  0  0  0
 18 19  1  0  0  0
 17 16  1  0  0  0
 20 19  1  0  0  0
 19 14  2  0  0  0
 16 15  2  0  0  0
 14 15  1  0  0  0
 14 13  1  0  0  0
 15 11  1  0  0  0
 13 12  2  0  0  0
 11  8  1  0  0  0
 11 12  1  0  0  0
  7  6  1  0  0  0
  8  6  1  0  0  0
  8  3  1  0  0  0
  6  4  1  0  0  0
  3  2  1  0  0  0
  2  4  1  0  0  0
  2  1  1  0  0  0
  4  5  1  0  0  0
  1 23  1  0  0  0
 23 24  1  0  0  0
 31 29  2  0  0  0
 24 25  2  0  0  0
 24 26  1  0  0  0
 24 28  1  0  0  0
 39 38  1  0  0  0
 39 40  1  0  0  0
 34 40  1  0  0  0
 34 33  1  0  0  0
 28 29  1  0  0  0
 29 33  1  0  0  0
 29 30  1  0  0  0
 38 36  1  0  0  0
 40 35  1  0  0  0
 35 36  1  0  0  0
 36 37  1  0  0  0
 37 41  1  0  0  0
 39 42  1  0  0  0
 30 32  1  0  0  0
 26 27  1  0  0  0
  5  9  1  0  0  0
  7 10  1  0  0  0
 20 21  1  0  0  0
 20 22  1  0  0  0
M  END
> <minimizedAffinity>
-8.65861

$$$$
6HH5_A3R_A_402


 42 45  0  0  0  0  0  0  0  0999 V2000
  -13.6009    3.5174    9.8366 C   0  0  0  0  0  0  0  0  0  0  0  0
  -13.7916    2.0054    9.6579 C   0  0  0  0  0  0  0  0  0  0  0  0
  -12.5474    1.4759    9.1407 O   0  0  0  0  0  0  0  0  0  0  0  0
  -14.0312    1.2858   10.9546 C   0  0  0  0  0  0  0  0  0  0  0  0
  -15.4236    1.3283   11.4568 O   0  0  0  0  0  0  0  0  0  0  0  0
  -13.5805   -0.1119   10.5401 C   0  0  0  0  0  0  0  0  0  0  0  0
  -14.5497   -0.7417    9.8422 O   0  0  0  0  0  0  0  0  0  0  0  0
  -12.4150    0.1425    9.5694 C   0  0  0  0  0  0  0  0  0  0  0  0
  -16.0205    0.9606   10.7864 H   0  0  0  0  0  0  0  0  0  0  0  0
  -14.7858   -0.2109    9.0654 H   0  0  0  0  0  0  0  0  0  0  0  0
  -11.1430    0.0729   10.3042 N   0  0  0  0  0  0  0  0  0  0  0  0
  -10.3015    1.0788   10.5826 C   0  0  0  0  0  0  0  0  0  0  0  0
   -9.2797    0.5731   11.2702 N   0  0  0  0  0  0  0  0  0  0  0  0
   -9.4829   -0.7448   11.4460 C   0  0  0  0  0  0  0  0  0  0  0  0
  -10.6501   -1.0481   10.8316 C   0  0  0  0  0  0  0  0  0  0  0  0
  -11.1288   -2.3081   10.8259 N   0  0  0  0  0  0  0  0  0  0  0  0
  -10.4000   -3.3197   11.4701 C   0  0  0  0  0  0  0  0  0  0  0  0
   -9.1939   -2.9690   12.1033 N   0  0  0  0  0  0  0  0  0  0  0  0
   -8.7716   -1.7060   12.0667 C   0  0  0  0  0  0  0  0  0  0  0  0
   -7.6260   -1.3545   12.6690 N   0  0  0  0  0  0  0  0  0  0  0  0
   -7.0841   -2.0343   13.1310 H   0  0  0  0  0  0  0  0  0  0  0  0
   -7.3270   -0.4167   12.6492 H   0  0  0  0  0  0  0  0  0  0  0  0
  -12.8281    4.1328    8.7849 O   0  0  0  0  0  0  0  0  0  0  0  0
  -11.7434    5.2188    9.2469 P   0  0  0  0  0  0  0  0  0  0  0  0
  -10.6787    4.5908   10.1105 O   0  0  0  0  0  0  0  0  0  0  0  0
  -12.4663    6.3734    9.7556 O   0  0  0  0  0  0  0  0  0  0  0  0
  -12.9613    6.1204   10.5505 H   0  0  0  0  0  0  0  0  0  0  0  0
  -10.9921    5.7390    7.9823 O   0  0  0  0  0  0  0  0  0  0  0  0
  -11.1458    7.1399    7.1328 P   0  0  0  0  0  0  0  0  0  0  0  0
  -10.8463    8.2474    8.0675 O   0  0  0  0  0  0  0  0  0  0  0  0
  -10.6144    7.0773    5.7334 O   0  0  0  0  0  0  0  0  0  0  0  0
   -9.8866    8.3161    8.1905 H   0  0  0  0  0  0  0  0  0  0  0  0
  -12.7110    7.1680    7.0479 O   0  0  0  0  0  0  0  0  0  0  0  0
  -13.2567    6.5401    5.9101 C   0  0  0  0  0  0  0  0  0  0  0  0
  -14.6118    4.4309    5.9758 C   0  0  0  0  0  0  0  0  0  0  0  0
  -16.0949    4.3674    6.5322 C   0  0  0  0  0  0  0  0  0  0  0  0
  -16.1702    4.5364    7.9428 O   0  0  0  0  0  0  0  0  0  0  0  0
  -16.7981    5.5745    5.9433 C   0  0  0  0  0  0  0  0  0  0  0  0
  -15.6842    6.4117    5.5454 N   0  0  0  0  0  0  0  0  0  0  0  0
  -14.5681    5.8965    6.3339 C   0  0  0  0  0  0  0  0  0  0  0  0
  -15.7947    5.3971    8.1858 H   0  0  0  0  0  0  0  0  0  0  0  0
  -15.8664    7.3903    5.7683 H   0  0  0  0  0  0  0  0  0  0  0  0
 18 17  2  0  0  0
 18 19  1  0  0  0
 17 16  1  0  0  0
 20 19  1  0  0  0
 19 14  2  0  0  0
 16 15  2  0  0  0
 14 15  1  0  0  0
 14 13  1  0  0  0
 15 11  1  0  0  0
 13 12  2  0  0  0
 11  8  1  0  0  0
 11 12  1  0  0  0
  7  6  1  0  0  0
  8  6  1  0  0  0
  8  3  1  0  0  0
  6  4  1  0  0  0
  3  2  1  0  0  0
  2  4  1  0  0  0
  2  1  1  0  0  0
  4  5  1  0  0  0
  1 23  1  0  0  0
 23 24  1  0  0  0
 31 29  2  0  0  0
 24 25  2  0  0  0
 24 26  1  0  0  0
 24 28  1  0  0  0
 39 38  1  0  0  0
 39 40  1  0  0  0
 34 40  1  0  0  0
 34 33  1  0  0  0
 28 29  1  0  0  0
 29 33  1  0  0  0
 29 30  1  0  0  0
 38 36  1  0  0  0
 40 35  1  0  0  0
 35 36  1  0  0  0
 36 37  1  0  0  0
 37 41  1  0  0  0
 39 42  1  0  0  0
 30 32  1  0  0  0
 26 27  1  0  0  0
  5  9  1  0  0  0
  7 10  1  0  0  0
 20 21  1  0  0  0
 20 22  1  0  0  0
M  END
> <minimizedAffinity>
-8.51051

$$$$
