1HPO_UNI_B_100


 38 42  0  0  0  0  0  0  0  0999 V2000
   10.6497   25.3858    6.6676 C   0  0  0  0  0  0  0  0  0  0  0  0
   11.5198   25.6606    7.7585 C   0  0  0  0  0  0  0  0  0  0  0  0
   11.0497   26.4445    8.8417 C   0  0  0  0  0  0  0  0  0  0  0  0
    9.7544   26.9624    8.8537 C   0  0  0  0  0  0  0  0  0  0  0  0
    8.8782   26.6709    7.7794 C   0  0  0  0  0  0  0  0  0  0  0  0
    9.3382   25.8999    6.6962 C   0  0  0  0  0  0  0  0  0  0  0  0
    7.5922   27.1955    7.7384 N   0  0  0  0  0  0  0  0  0  0  0  0
    6.8576   26.8453    8.2924 H   0  0  0  0  0  0  0  0  0  0  0  0
    7.4037   28.3916    6.7379 S   0  0  0  0  0  0  0  0  0  0  0  0
    6.2215   28.9724    7.3542 O   0  0  0  0  0  0  0  0  0  0  0  0
    8.6489   29.1382    6.9097 O   0  0  0  0  0  0  0  0  0  0  0  0
    7.2489   28.0997    5.0290 C   0  0  0  0  0  0  0  0  0  0  0  0
    6.1859   27.3416    4.4533 C   0  0  0  0  0  0  0  0  0  0  0  0
    6.1402   27.1548    3.0458 C   0  0  0  0  0  0  0  0  0  0  0  0
    7.1507   27.7274    2.2337 C   0  0  0  0  0  0  0  0  0  0  0  0
    8.1992   28.4704    2.8140 C   0  0  0  0  0  0  0  0  0  0  0  0
    8.2492   28.6564    4.2018 C   0  0  0  0  0  0  0  0  0  0  0  0
    7.0984   27.5995    0.8492 C   0  0  0  0  0  0  0  0  0  0  0  0
    7.0509   27.4959   -0.3164 N   0  0  0  0  0  0  0  0  0  0  0  0
   11.1327   24.5832    5.4648 C   0  0  0  0  0  0  0  0  0  0  0  0
   12.2556   23.5630    5.7885 C   0  0  0  0  0  0  0  0  0  0  0  0
   11.9883   22.2893    6.3538 C   0  0  0  0  0  0  0  0  0  0  0  0
   10.8882   22.0054    6.6755 O   0  0  0  0  0  0  0  0  0  0  0  0
   12.9437   21.3764    6.6095 O   0  0  0  0  0  0  0  0  0  0  0  0
   14.2661   21.7708    6.3007 C   0  0  0  0  0  0  0  0  0  0  0  0
   14.5983   23.0004    5.7610 C   0  0  0  0  0  0  0  0  0  0  0  0
   13.5618   23.9084    5.4960 C   0  0  0  0  0  0  0  0  0  0  0  0
   13.7349   25.1197    4.9066 O   0  0  0  0  0  0  0  0  0  0  0  0
   15.3157   20.7105    6.6265 C   0  0  0  0  0  0  0  0  0  0  0  0
   16.1787   20.9153    7.8844 C   0  0  0  0  0  0  0  0  0  0  0  0
   15.9077   22.1288    8.7099 C   0  0  0  0  0  0  0  0  0  0  0  0
   16.3337   23.4405    8.1055 C   0  0  0  0  0  0  0  0  0  0  0  0
   17.0013   23.3705    6.7113 C   0  0  0  0  0  0  0  0  0  0  0  0
   16.0459   23.3569    5.4829 C   0  0  0  0  0  0  0  0  0  0  0  0
   12.9974   25.6784    4.7586 H   0  0  0  0  0  0  0  0  0  0  0  0
    9.9736   24.1221    4.5529 C   0  0  0  0  0  0  0  0  0  0  0  0
   10.2755   23.4930    3.1908 C   0  0  0  0  0  0  0  0  0  0  0  0
    9.7091   24.9040    3.2662 C   0  0  0  0  0  0  0  0  0  0  0  0
 21 22  1  0  0  0
 21 27  2  0  0  0
 21 20  1  0  0  0
 22 23  2  0  0  0
 22 24  1  0  0  0
 24 25  1  0  0  0
 25 26  2  0  0  0
 25 29  1  0  0  0
 26 27  1  0  0  0
 26 34  1  0  0  0
 27 28  1  0  0  0
  1  2  2  0  0  0
  1  6  1  0  0  0
  1 20  1  0  0  0
  2  3  1  0  0  0
  3  4  2  0  0  0
  4  5  1  0  0  0
  5  6  2  0  0  0
  5  7  1  0  0  0
 20 36  1  0  0  0
 36 37  1  0  0  0
 36 38  1  0  0  0
 37 38  1  0  0  0
 29 30  1  0  0  0
 30 31  1  0  0  0
 31 32  1  0  0  0
 32 33  1  0  0  0
 33 34  1  0  0  0
  7  9  1  0  0  0
  9 10  2  0  0  0
  9 11  2  0  0  0
  9 12  1  0  0  0
 12 13  2  0  0  0
 12 17  1  0  0  0
 13 14  1  0  0  0
 14 15  2  0  0  0
 15 16  1  0  0  0
 15 18  1  0  0  0
 16 17  2  0  0  0
 18 19  3  0  0  0
 28 35  1  0  0  0
  7  8  1  0  0  0
M  END
> <minimizedAffinity>
-10.69135

$$$$
1HPO_UNI_B_100


 38 42  0  0  0  0  0  0  0  0999 V2000
   14.9438   20.9851    5.0192 C   0  0  0  0  0  0  0  0  0  0  0  0
   14.5821   21.1668    3.6558 C   0  0  0  0  0  0  0  0  0  0  0  0
   14.9278   20.1724    2.7069 C   0  0  0  0  0  0  0  0  0  0  0  0
   15.6266   19.0245    3.0812 C   0  0  0  0  0  0  0  0  0  0  0  0
   15.9676   18.8299    4.4423 C   0  0  0  0  0  0  0  0  0  0  0  0
   15.6354   19.8149    5.3903 C   0  0  0  0  0  0  0  0  0  0  0  0
   16.6923   17.7165    4.8495 N   0  0  0  0  0  0  0  0  0  0  0  0
   16.2736   16.8405    5.0124 H   0  0  0  0  0  0  0  0  0  0  0  0
   18.2326   17.9664    5.0291 S   0  0  0  0  0  0  0  0  0  0  0  0
   18.6684   16.5863    4.8879 O   0  0  0  0  0  0  0  0  0  0  0  0
   18.5354   18.8526    3.9064 O   0  0  0  0  0  0  0  0  0  0  0  0
   18.8393   18.7660    6.4512 C   0  0  0  0  0  0  0  0  0  0  0  0
   18.9694   18.1248    7.7192 C   0  0  0  0  0  0  0  0  0  0  0  0
   19.4753   18.8570    8.8265 C   0  0  0  0  0  0  0  0  0  0  0  0
   19.8461   20.2139    8.6538 C   0  0  0  0  0  0  0  0  0  0  0  0
   19.7084   20.8387    7.3973 C   0  0  0  0  0  0  0  0  0  0  0  0
   19.2089   20.1210    6.3026 C   0  0  0  0  0  0  0  0  0  0  0  0
   20.3904   20.9355    9.7116 C   0  0  0  0  0  0  0  0  0  0  0  0
   20.8444   21.5414   10.6052 N   0  0  0  0  0  0  0  0  0  0  0  0
   14.6279   22.0522    6.0612 C   0  0  0  0  0  0  0  0  0  0  0  0
   13.2789   22.7839    5.8354 C   0  0  0  0  0  0  0  0  0  0  0  0
   12.0363   22.2358    6.2465 C   0  0  0  0  0  0  0  0  0  0  0  0
   11.9935   21.1479    6.7037 O   0  0  0  0  0  0  0  0  0  0  0  0
   10.8590   22.8694    6.0920 O   0  0  0  0  0  0  0  0  0  0  0  0
   10.9217   24.1329    5.4598 C   0  0  0  0  0  0  0  0  0  0  0  0
   12.0959   24.7195    5.0231 C   0  0  0  0  0  0  0  0  0  0  0  0
   13.2979   24.0245    5.2259 C   0  0  0  0  0  0  0  0  0  0  0  0
   14.5269   24.5089    4.9100 O   0  0  0  0  0  0  0  0  0  0  0  0
    9.5602   24.8031    5.2894 C   0  0  0  0  0  0  0  0  0  0  0  0
    8.9242   24.7933    3.8878 C   0  0  0  0  0  0  0  0  0  0  0  0
    9.6779   24.1045    2.7992 C   0  0  0  0  0  0  0  0  0  0  0  0
   10.9210   24.8055    2.3186 C   0  0  0  0  0  0  0  0  0  0  0  0
   11.2612   26.1499    3.0052 C   0  0  0  0  0  0  0  0  0  0  0  0
   12.0748   26.0679    4.3293 C   0  0  0  0  0  0  0  0  0  0  0  0
   15.2906   23.9909    5.0724 H   0  0  0  0  0  0  0  0  0  0  0  0
   14.9792   21.6037    7.4976 C   0  0  0  0  0  0  0  0  0  0  0  0
   14.9020   22.6052    8.6522 C   0  0  0  0  0  0  0  0  0  0  0  0
   16.2583   22.1476    8.1339 C   0  0  0  0  0  0  0  0  0  0  0  0
 21 22  1  0  0  0
 21 27  2  0  0  0
 21 20  1  0  0  0
 22 23  2  0  0  0
 22 24  1  0  0  0
 24 25  1  0  0  0
 25 26  2  0  0  0
 25 29  1  0  0  0
 26 27  1  0  0  0
 26 34  1  0  0  0
 27 28  1  0  0  0
  1  2  2  0  0  0
  1  6  1  0  0  0
  1 20  1  0  0  0
  2  3  1  0  0  0
  3  4  2  0  0  0
  4  5  1  0  0  0
  5  6  2  0  0  0
  5  7  1  0  0  0
 20 36  1  0  0  0
 36 37  1  0  0  0
 36 38  1  0  0  0
 37 38  1  0  0  0
 29 30  1  0  0  0
 30 31  1  0  0  0
 31 32  1  0  0  0
 32 33  1  0  0  0
 33 34  1  0  0  0
  7  9  1  0  0  0
  9 10  2  0  0  0
  9 11  2  0  0  0
  9 12  1  0  0  0
 12 13  2  0  0  0
 12 17  1  0  0  0
 13 14  1  0  0  0
 14 15  2  0  0  0
 15 16  1  0  0  0
 15 18  1  0  0  0
 16 17  2  0  0  0
 18 19  3  0  0  0
 28 35  1  0  0  0
  7  8  1  0  0  0
M  END
> <minimizedAffinity>
-10.44138

$$$$
1HPO_UNI_B_100


 38 42  0  0  0  0  0  0  0  0999 V2000
   14.4601   21.5330    4.6943 C   0  0  0  0  0  0  0  0  0  0  0  0
   13.9532   22.1917    3.5402 C   0  0  0  0  0  0  0  0  0  0  0  0
   14.1515   21.6080    2.2639 C   0  0  0  0  0  0  0  0  0  0  0  0
   14.8445   20.4064    2.1157 C   0  0  0  0  0  0  0  0  0  0  0  0
   15.3302   19.7365    3.2656 C   0  0  0  0  0  0  0  0  0  0  0  0
   15.1448   20.3119    4.5360 C   0  0  0  0  0  0  0  0  0  0  0  0
   16.0540   18.5554    3.1570 N   0  0  0  0  0  0  0  0  0  0  0  0
   15.6403   17.7008    2.8969 H   0  0  0  0  0  0  0  0  0  0  0  0
   17.5845   18.6922    3.4824 S   0  0  0  0  0  0  0  0  0  0  0  0
   18.0373   19.0199    2.1400 O   0  0  0  0  0  0  0  0  0  0  0  0
   17.5987   19.7885    4.4495 O   0  0  0  0  0  0  0  0  0  0  0  0
   18.4511   17.3801    4.2290 C   0  0  0  0  0  0  0  0  0  0  0  0
   18.1573   16.8850    5.5345 C   0  0  0  0  0  0  0  0  0  0  0  0
   18.9182   15.8085    6.0639 C   0  0  0  0  0  0  0  0  0  0  0  0
   19.9570   15.2403    5.2850 C   0  0  0  0  0  0  0  0  0  0  0  0
   20.2419   15.7411    3.9980 C   0  0  0  0  0  0  0  0  0  0  0  0
   19.4948   16.8033    3.4722 C   0  0  0  0  0  0  0  0  0  0  0  0
   20.6818   14.1532    5.7632 C   0  0  0  0  0  0  0  0  0  0  0  0
   21.2965   13.2411    6.1656 N   0  0  0  0  0  0  0  0  0  0  0  0
   14.3047   22.1512    6.0792 C   0  0  0  0  0  0  0  0  0  0  0  0
   15.5967   22.1258    6.9373 C   0  0  0  0  0  0  0  0  0  0  0  0
   16.6827   23.0093    6.7060 C   0  0  0  0  0  0  0  0  0  0  0  0
   16.6603   23.7427    5.7808 O   0  0  0  0  0  0  0  0  0  0  0  0
   17.7972   23.0275    7.4604 O   0  0  0  0  0  0  0  0  0  0  0  0
   17.8430   22.0793    8.5085 C   0  0  0  0  0  0  0  0  0  0  0  0
   16.8269   21.1811    8.7811 C   0  0  0  0  0  0  0  0  0  0  0  0
   15.6784   21.2171    7.9758 C   0  0  0  0  0  0  0  0  0  0  0  0
   14.5799   20.4426    8.1710 O   0  0  0  0  0  0  0  0  0  0  0  0
   19.1340   22.1253    9.3229 C   0  0  0  0  0  0  0  0  0  0  0  0
   20.1798   21.0234    9.0758 C   0  0  0  0  0  0  0  0  0  0  0  0
   19.8636   20.0007    8.0359 C   0  0  0  0  0  0  0  0  0  0  0  0
   18.7876   19.0110    8.3967 C   0  0  0  0  0  0  0  0  0  0  0  0
   18.1474   19.1711    9.7963 C   0  0  0  0  0  0  0  0  0  0  0  0
   16.9650   20.1767    9.9090 C   0  0  0  0  0  0  0  0  0  0  0  0
   13.8453   20.5175    7.5942 H   0  0  0  0  0  0  0  0  0  0  0  0
   13.4713   23.4523    6.0599 C   0  0  0  0  0  0  0  0  0  0  0  0
   12.9864   24.0698    7.3735 C   0  0  0  0  0  0  0  0  0  0  0  0
   11.9957   23.3733    6.4510 C   0  0  0  0  0  0  0  0  0  0  0  0
 21 22  1  0  0  0
 21 27  2  0  0  0
 21 20  1  0  0  0
 22 23  2  0  0  0
 22 24  1  0  0  0
 24 25  1  0  0  0
 25 26  2  0  0  0
 25 29  1  0  0  0
 26 27  1  0  0  0
 26 34  1  0  0  0
 27 28  1  0  0  0
  1  2  2  0  0  0
  1  6  1  0  0  0
  1 20  1  0  0  0
  2  3  1  0  0  0
  3  4  2  0  0  0
  4  5  1  0  0  0
  5  6  2  0  0  0
  5  7  1  0  0  0
 20 36  1  0  0  0
 36 37  1  0  0  0
 36 38  1  0  0  0
 37 38  1  0  0  0
 29 30  1  0  0  0
 30 31  1  0  0  0
 31 32  1  0  0  0
 32 33  1  0  0  0
 33 34  1  0  0  0
  7  9  1  0  0  0
  9 10  2  0  0  0
  9 11  2  0  0  0
  9 12  1  0  0  0
 12 13  2  0  0  0
 12 17  1  0  0  0
 13 14  1  0  0  0
 14 15  2  0  0  0
 15 16  1  0  0  0
 15 18  1  0  0  0
 16 17  2  0  0  0
 18 19  3  0  0  0
 28 35  1  0  0  0
  7  8  1  0  0  0
M  END
> <minimizedAffinity>
-9.91736

$$$$
1HPO_UNI_B_100


 38 42  0  0  0  0  0  0  0  0999 V2000
   19.1494   18.5727    8.9306 C   0  0  0  0  0  0  0  0  0  0  0  0
   18.5339   17.4758    9.5945 C   0  0  0  0  0  0  0  0  0  0  0  0
   18.6417   16.1772    9.0370 C   0  0  0  0  0  0  0  0  0  0  0  0
   19.3292   15.9550    7.8436 C   0  0  0  0  0  0  0  0  0  0  0  0
   19.9628   17.0419    7.1926 C   0  0  0  0  0  0  0  0  0  0  0  0
   19.8550   18.3359    7.7343 C   0  0  0  0  0  0  0  0  0  0  0  0
   20.6283   16.8674    5.9854 N   0  0  0  0  0  0  0  0  0  0  0  0
   21.5849   17.0705    5.8717 H   0  0  0  0  0  0  0  0  0  0  0  0
   19.7331   16.3203    4.8164 S   0  0  0  0  0  0  0  0  0  0  0  0
   20.7960   16.0968    3.8495 O   0  0  0  0  0  0  0  0  0  0  0  0
   19.1452   15.1213    5.4117 O   0  0  0  0  0  0  0  0  0  0  0  0
   18.3997   17.2598    4.2088 C   0  0  0  0  0  0  0  0  0  0  0  0
   17.2113   17.5143    4.9563 C   0  0  0  0  0  0  0  0  0  0  0  0
   16.1731   18.2933    4.3789 C   0  0  0  0  0  0  0  0  0  0  0  0
   16.3351   18.8087    3.0687 C   0  0  0  0  0  0  0  0  0  0  0  0
   17.5117   18.5465    2.3373 C   0  0  0  0  0  0  0  0  0  0  0  0
   18.5379   17.7778    2.9022 C   0  0  0  0  0  0  0  0  0  0  0  0
   15.3529   19.6155    2.5027 C   0  0  0  0  0  0  0  0  0  0  0  0
   14.5288   20.2945    2.0216 N   0  0  0  0  0  0  0  0  0  0  0  0
   19.0187   19.9903    9.4761 C   0  0  0  0  0  0  0  0  0  0  0  0
   17.7153   20.7180    9.0543 C   0  0  0  0  0  0  0  0  0  0  0  0
   16.4478   20.3892    9.6009 C   0  0  0  0  0  0  0  0  0  0  0  0
   16.3438   19.4767   10.3432 O   0  0  0  0  0  0  0  0  0  0  0  0
   15.3108   21.0314    9.2750 O   0  0  0  0  0  0  0  0  0  0  0  0
   15.4427   22.0621    8.3158 C   0  0  0  0  0  0  0  0  0  0  0  0
   16.6439   22.4250    7.7338 C   0  0  0  0  0  0  0  0  0  0  0  0
   17.8026   21.7360    8.1231 C   0  0  0  0  0  0  0  0  0  0  0  0
   19.0542   22.0310    7.6858 O   0  0  0  0  0  0  0  0  0  0  0  0
   14.1239   22.7470    7.9642 C   0  0  0  0  0  0  0  0  0  0  0  0
   13.4638   22.3899    6.6204 C   0  0  0  0  0  0  0  0  0  0  0  0
   14.1527   21.3772    5.7675 C   0  0  0  0  0  0  0  0  0  0  0  0
   15.4293   21.8330    5.1116 C   0  0  0  0  0  0  0  0  0  0  0  0
   15.8666   23.2898    5.3966 C   0  0  0  0  0  0  0  0  0  0  0  0
   16.6966   23.5256    6.6917 C   0  0  0  0  0  0  0  0  0  0  0  0
   19.7860   21.5292    7.9867 H   0  0  0  0  0  0  0  0  0  0  0  0
   19.4700   20.1048   10.9495 C   0  0  0  0  0  0  0  0  0  0  0  0
   20.5728   21.0925   11.3373 C   0  0  0  0  0  0  0  0  0  0  0  0
   20.8633   19.5982   11.3219 C   0  0  0  0  0  0  0  0  0  0  0  0
 21 22  1  0  0  0
 21 27  2  0  0  0
 21 20  1  0  0  0
 22 23  2  0  0  0
 22 24  1  0  0  0
 24 25  1  0  0  0
 25 26  2  0  0  0
 25 29  1  0  0  0
 26 27  1  0  0  0
 26 34  1  0  0  0
 27 28  1  0  0  0
  1  2  2  0  0  0
  1  6  1  0  0  0
  1 20  1  0  0  0
  2  3  1  0  0  0
  3  4  2  0  0  0
  4  5  1  0  0  0
  5  6  2  0  0  0
  5  7  1  0  0  0
 20 36  1  0  0  0
 36 37  1  0  0  0
 36 38  1  0  0  0
 37 38  1  0  0  0
 29 30  1  0  0  0
 30 31  1  0  0  0
 31 32  1  0  0  0
 32 33  1  0  0  0
 33 34  1  0  0  0
  7  9  1  0  0  0
  9 10  2  0  0  0
  9 11  2  0  0  0
  9 12  1  0  0  0
 12 13  2  0  0  0
 12 17  1  0  0  0
 13 14  1  0  0  0
 14 15  2  0  0  0
 15 16  1  0  0  0
 15 18  1  0  0  0
 16 17  2  0  0  0
 18 19  3  0  0  0
 28 35  1  0  0  0
  7  8  1  0  0  0
M  END
> <minimizedAffinity>
-9.72790

$$$$
1HPO_UNI_B_100


 38 42  0  0  0  0  0  0  0  0999 V2000
   10.2920   24.2571    4.4391 C   0  0  0  0  0  0  0  0  0  0  0  0
   10.2296   23.0563    3.6795 C   0  0  0  0  0  0  0  0  0  0  0  0
    9.6128   23.0728    2.4035 C   0  0  0  0  0  0  0  0  0  0  0  0
    9.0548   24.2406    1.8827 C   0  0  0  0  0  0  0  0  0  0  0  0
    9.1362   25.4431    2.6272 C   0  0  0  0  0  0  0  0  0  0  0  0
    9.7398   25.4349    3.8979 C   0  0  0  0  0  0  0  0  0  0  0  0
    8.5634   26.6188    2.1580 N   0  0  0  0  0  0  0  0  0  0  0  0
    8.9576   27.1469    1.4265 H   0  0  0  0  0  0  0  0  0  0  0  0
    7.2370   27.0385    2.8872 S   0  0  0  0  0  0  0  0  0  0  0  0
    6.7792   28.0109    1.9078 O   0  0  0  0  0  0  0  0  0  0  0  0
    6.4974   25.7783    2.9340 O   0  0  0  0  0  0  0  0  0  0  0  0
    7.2767   27.6347    4.5221 C   0  0  0  0  0  0  0  0  0  0  0  0
    6.2494   27.3780    5.4784 C   0  0  0  0  0  0  0  0  0  0  0  0
    6.3665   27.9058    6.7921 C   0  0  0  0  0  0  0  0  0  0  0  0
    7.5047   28.6780    7.1338 C   0  0  0  0  0  0  0  0  0  0  0  0
    8.5113   28.9296    6.1790 C   0  0  0  0  0  0  0  0  0  0  0  0
    8.3997   28.4120    4.8819 C   0  0  0  0  0  0  0  0  0  0  0  0
    7.6643   29.1627    8.4282 C   0  0  0  0  0  0  0  0  0  0  0  0
    7.8017   29.5664    9.5190 N   0  0  0  0  0  0  0  0  0  0  0  0
   10.9085   24.2693    5.8334 C   0  0  0  0  0  0  0  0  0  0  0  0
   12.1519   23.3549    5.9887 C   0  0  0  0  0  0  0  0  0  0  0  0
   12.0658   22.0299    6.4889 C   0  0  0  0  0  0  0  0  0  0  0  0
   11.0341   21.6148    6.8861 O   0  0  0  0  0  0  0  0  0  0  0  0
   13.1263   21.2084    6.5984 O   0  0  0  0  0  0  0  0  0  0  0  0
   14.3686   21.7557    6.2021 C   0  0  0  0  0  0  0  0  0  0  0  0
   14.5257   23.0422    5.7187 C   0  0  0  0  0  0  0  0  0  0  0  0
   13.3844   23.8508    5.6066 C   0  0  0  0  0  0  0  0  0  0  0  0
   13.3811   25.1055    5.0866 O   0  0  0  0  0  0  0  0  0  0  0  0
   15.5435   20.7936    6.3631 C   0  0  0  0  0  0  0  0  0  0  0  0
   16.4964   21.0147    7.5514 C   0  0  0  0  0  0  0  0  0  0  0  0
   16.1858   22.1437    8.4767 C   0  0  0  0  0  0  0  0  0  0  0  0
   16.4217   23.5253    7.9262 C   0  0  0  0  0  0  0  0  0  0  0  0
   16.9591   23.6056    6.4774 C   0  0  0  0  0  0  0  0  0  0  0  0
   15.8985   23.5631    5.3392 C   0  0  0  0  0  0  0  0  0  0  0  0
   12.5815   25.5919    5.0414 H   0  0  0  0  0  0  0  0  0  0  0  0
   10.9690   25.6872    6.4448 C   0  0  0  0  0  0  0  0  0  0  0  0
   11.4440   25.8789    7.8869 C   0  0  0  0  0  0  0  0  0  0  0  0
    9.9699   26.0449    7.5451 C   0  0  0  0  0  0  0  0  0  0  0  0
 21 22  1  0  0  0
 21 27  2  0  0  0
 21 20  1  0  0  0
 22 23  2  0  0  0
 22 24  1  0  0  0
 24 25  1  0  0  0
 25 26  2  0  0  0
 25 29  1  0  0  0
 26 27  1  0  0  0
 26 34  1  0  0  0
 27 28  1  0  0  0
  1  2  2  0  0  0
  1  6  1  0  0  0
  1 20  1  0  0  0
  2  3  1  0  0  0
  3  4  2  0  0  0
  4  5  1  0  0  0
  5  6  2  0  0  0
  5  7  1  0  0  0
 20 36  1  0  0  0
 36 37  1  0  0  0
 36 38  1  0  0  0
 37 38  1  0  0  0
 29 30  1  0  0  0
 30 31  1  0  0  0
 31 32  1  0  0  0
 32 33  1  0  0  0
 33 34  1  0  0  0
  7  9  1  0  0  0
  9 10  2  0  0  0
  9 11  2  0  0  0
  9 12  1  0  0  0
 12 13  2  0  0  0
 12 17  1  0  0  0
 13 14  1  0  0  0
 14 15  2  0  0  0
 15 16  1  0  0  0
 15 18  1  0  0  0
 16 17  2  0  0  0
 18 19  3  0  0  0
 28 35  1  0  0  0
  7  8  1  0  0  0
M  END
> <minimizedAffinity>
-9.68508

$$$$
1HPO_UNI_B_100


 38 42  0  0  0  0  0  0  0  0999 V2000
   11.9617   24.3701    6.7694 C   0  0  0  0  0  0  0  0  0  0  0  0
   11.3647   23.1443    6.3645 C   0  0  0  0  0  0  0  0  0  0  0  0
   12.1074   21.9418    6.4698 C   0  0  0  0  0  0  0  0  0  0  0  0
   13.4167   21.9378    6.9513 C   0  0  0  0  0  0  0  0  0  0  0  0
   14.0056   23.1539    7.3769 C   0  0  0  0  0  0  0  0  0  0  0  0
   13.2789   24.3537    7.2692 C   0  0  0  0  0  0  0  0  0  0  0  0
   15.3181   23.1965    7.8308 N   0  0  0  0  0  0  0  0  0  0  0  0
   15.5486   23.2430    8.7868 H   0  0  0  0  0  0  0  0  0  0  0  0
   16.4051   23.1646    6.6974 S   0  0  0  0  0  0  0  0  0  0  0  0
   15.6581   23.9066    5.6944 O   0  0  0  0  0  0  0  0  0  0  0  0
   17.5222   23.8734    7.3196 O   0  0  0  0  0  0  0  0  0  0  0  0
   17.0504   21.6499    6.1327 C   0  0  0  0  0  0  0  0  0  0  0  0
   18.1313   20.9691    6.7685 C   0  0  0  0  0  0  0  0  0  0  0  0
   18.5926   19.7352    6.2367 C   0  0  0  0  0  0  0  0  0  0  0  0
   17.9696   19.1974    5.0829 C   0  0  0  0  0  0  0  0  0  0  0  0
   16.9057   19.8814    4.4598 C   0  0  0  0  0  0  0  0  0  0  0  0
   16.4480   21.0991    4.9801 C   0  0  0  0  0  0  0  0  0  0  0  0
   18.3720   17.9663    4.5743 C   0  0  0  0  0  0  0  0  0  0  0  0
   18.7100   16.9279    4.1512 N   0  0  0  0  0  0  0  0  0  0  0  0
   11.2104   25.6894    6.6305 C   0  0  0  0  0  0  0  0  0  0  0  0
   10.5709   25.9150    5.2354 C   0  0  0  0  0  0  0  0  0  0  0  0
   11.3352   26.2781    4.0963 C   0  0  0  0  0  0  0  0  0  0  0  0
   12.4889   26.5039    4.2072 O   0  0  0  0  0  0  0  0  0  0  0  0
   10.8054   26.4441    2.8703 O   0  0  0  0  0  0  0  0  0  0  0  0
    9.4068   26.2573    2.7768 C   0  0  0  0  0  0  0  0  0  0  0  0
    8.6009   25.9162    3.8480 C   0  0  0  0  0  0  0  0  0  0  0  0
    9.2067   25.7364    5.1009 C   0  0  0  0  0  0  0  0  0  0  0  0
    8.5500   25.3362    6.2204 O   0  0  0  0  0  0  0  0  0  0  0  0
    8.8501   26.4757    1.3717 C   0  0  0  0  0  0  0  0  0  0  0  0
    8.0973   27.7888    1.0925 C   0  0  0  0  0  0  0  0  0  0  0  0
    7.9880   28.7668    2.2146 C   0  0  0  0  0  0  0  0  0  0  0  0
    7.0591   28.3779    3.3340 C   0  0  0  0  0  0  0  0  0  0  0  0
    6.3310   27.0208    3.1832 C   0  0  0  0  0  0  0  0  0  0  0  0
    7.1030   25.7600    3.6695 C   0  0  0  0  0  0  0  0  0  0  0  0
    9.0166   25.2359    7.0267 H   0  0  0  0  0  0  0  0  0  0  0  0
   10.3660   26.0275    7.8796 C   0  0  0  0  0  0  0  0  0  0  0  0
   10.2209   27.4815    8.3344 C   0  0  0  0  0  0  0  0  0  0  0  0
   11.0905   26.5199    9.1323 C   0  0  0  0  0  0  0  0  0  0  0  0
 21 22  1  0  0  0
 21 27  2  0  0  0
 21 20  1  0  0  0
 22 23  2  0  0  0
 22 24  1  0  0  0
 24 25  1  0  0  0
 25 26  2  0  0  0
 25 29  1  0  0  0
 26 27  1  0  0  0
 26 34  1  0  0  0
 27 28  1  0  0  0
  1  2  2  0  0  0
  1  6  1  0  0  0
  1 20  1  0  0  0
  2  3  1  0  0  0
  3  4  2  0  0  0
  4  5  1  0  0  0
  5  6  2  0  0  0
  5  7  1  0  0  0
 20 36  1  0  0  0
 36 37  1  0  0  0
 36 38  1  0  0  0
 37 38  1  0  0  0
 29 30  1  0  0  0
 30 31  1  0  0  0
 31 32  1  0  0  0
 32 33  1  0  0  0
 33 34  1  0  0  0
  7  9  1  0  0  0
  9 10  2  0  0  0
  9 11  2  0  0  0
  9 12  1  0  0  0
 12 13  2  0  0  0
 12 17  1  0  0  0
 13 14  1  0  0  0
 14 15  2  0  0  0
 15 16  1  0  0  0
 15 18  1  0  0  0
 16 17  2  0  0  0
 18 19  3  0  0  0
 28 35  1  0  0  0
  7  8  1  0  0  0
M  END
> <minimizedAffinity>
-9.42065

$$$$
1HPO_UNI_B_100


 38 42  0  0  0  0  0  0  0  0999 V2000
   15.2426   21.8599    6.1540 C   0  0  0  0  0  0  0  0  0  0  0  0
   15.8708   23.1191    5.9475 C   0  0  0  0  0  0  0  0  0  0  0  0
   16.8469   23.5682    6.8717 C   0  0  0  0  0  0  0  0  0  0  0  0
   17.1954   22.8056    7.9867 C   0  0  0  0  0  0  0  0  0  0  0  0
   16.5882   21.5407    8.1821 C   0  0  0  0  0  0  0  0  0  0  0  0
   15.6126   21.0897    7.2743 C   0  0  0  0  0  0  0  0  0  0  0  0
   16.8836   20.7665    9.2975 N   0  0  0  0  0  0  0  0  0  0  0  0
   16.3364   20.7830   10.1158 H   0  0  0  0  0  0  0  0  0  0  0  0
   18.1598   19.8629    9.1491 S   0  0  0  0  0  0  0  0  0  0  0  0
   19.1443   20.8538    9.5536 O   0  0  0  0  0  0  0  0  0  0  0  0
   17.8949   18.7929   10.1095 O   0  0  0  0  0  0  0  0  0  0  0  0
   18.5162   19.0764    7.6378 C   0  0  0  0  0  0  0  0  0  0  0  0
   18.5043   17.6600    7.4658 C   0  0  0  0  0  0  0  0  0  0  0  0
   18.8083   17.1055    6.1937 C   0  0  0  0  0  0  0  0  0  0  0  0
   19.1164   17.9690    5.1129 C   0  0  0  0  0  0  0  0  0  0  0  0
   19.1301   19.3670    5.2957 C   0  0  0  0  0  0  0  0  0  0  0  0
   18.8321   19.9184    6.5487 C   0  0  0  0  0  0  0  0  0  0  0  0
   19.3681   17.4502    3.8467 C   0  0  0  0  0  0  0  0  0  0  0  0
   19.5781   17.0180    2.7786 N   0  0  0  0  0  0  0  0  0  0  0  0
   14.1572   21.3625    5.2060 C   0  0  0  0  0  0  0  0  0  0  0  0
   12.9293   22.3037    5.0929 C   0  0  0  0  0  0  0  0  0  0  0  0
   11.9367   22.3862    6.1034 C   0  0  0  0  0  0  0  0  0  0  0  0
   11.9808   21.6617    7.0348 O   0  0  0  0  0  0  0  0  0  0  0  0
   10.8830   23.2213    6.0412 O   0  0  0  0  0  0  0  0  0  0  0  0
   10.7996   24.0163    4.8747 C   0  0  0  0  0  0  0  0  0  0  0  0
   11.7239   23.9766    3.8463 C   0  0  0  0  0  0  0  0  0  0  0  0
   12.8142   23.1020    3.9702 C   0  0  0  0  0  0  0  0  0  0  0  0
   13.8292   23.0091    3.0725 O   0  0  0  0  0  0  0  0  0  0  0  0
    9.5779   24.9320    4.8410 C   0  0  0  0  0  0  0  0  0  0  0  0
    8.4010   24.5280    3.9351 C   0  0  0  0  0  0  0  0  0  0  0  0
    8.5317   23.2521    3.1718 C   0  0  0  0  0  0  0  0  0  0  0  0
    9.5110   23.2708    2.0280 C   0  0  0  0  0  0  0  0  0  0  0  0
   10.2552   24.6050    1.7818 C   0  0  0  0  0  0  0  0  0  0  0  0
   11.5479   24.8439    2.6147 C   0  0  0  0  0  0  0  0  0  0  0  0
   14.5282   22.4020    3.2168 H   0  0  0  0  0  0  0  0  0  0  0  0
   14.7337   20.7615    3.9044 C   0  0  0  0  0  0  0  0  0  0  0  0
   14.6752   19.2506    3.6679 C   0  0  0  0  0  0  0  0  0  0  0  0
   16.0040   19.9162    3.9973 C   0  0  0  0  0  0  0  0  0  0  0  0
 21 22  1  0  0  0
 21 27  2  0  0  0
 21 20  1  0  0  0
 22 23  2  0  0  0
 22 24  1  0  0  0
 24 25  1  0  0  0
 25 26  2  0  0  0
 25 29  1  0  0  0
 26 27  1  0  0  0
 26 34  1  0  0  0
 27 28  1  0  0  0
  1  2  2  0  0  0
  1  6  1  0  0  0
  1 20  1  0  0  0
  2  3  1  0  0  0
  3  4  2  0  0  0
  4  5  1  0  0  0
  5  6  2  0  0  0
  5  7  1  0  0  0
 20 36  1  0  0  0
 36 37  1  0  0  0
 36 38  1  0  0  0
 37 38  1  0  0  0
 29 30  1  0  0  0
 30 31  1  0  0  0
 31 32  1  0  0  0
 32 33  1  0  0  0
 33 34  1  0  0  0
  7  9  1  0  0  0
  9 10  2  0  0  0
  9 11  2  0  0  0
  9 12  1  0  0  0
 12 13  2  0  0  0
 12 17  1  0  0  0
 13 14  1  0  0  0
 14 15  2  0  0  0
 15 16  1  0  0  0
 15 18  1  0  0  0
 16 17  2  0  0  0
 18 19  3  0  0  0
 28 35  1  0  0  0
  7  8  1  0  0  0
M  END
> <minimizedAffinity>
-9.26482

$$$$
1HPO_UNI_B_100


 38 42  0  0  0  0  0  0  0  0999 V2000
   15.9680   20.6655    4.0192 C   0  0  0  0  0  0  0  0  0  0  0  0
   15.1825   20.2731    2.9003 C   0  0  0  0  0  0  0  0  0  0  0  0
   14.1413   21.1228    2.4502 C   0  0  0  0  0  0  0  0  0  0  0  0
   13.8634   22.3309    3.0901 C   0  0  0  0  0  0  0  0  0  0  0  0
   14.6591   22.7351    4.1902 C   0  0  0  0  0  0  0  0  0  0  0  0
   15.6900   21.8948    4.6490 C   0  0  0  0  0  0  0  0  0  0  0  0
   14.3929   23.9146    4.8747 N   0  0  0  0  0  0  0  0  0  0  0  0
   14.6329   24.8009    4.5195 H   0  0  0  0  0  0  0  0  0  0  0  0
   13.6787   23.7217    6.2603 S   0  0  0  0  0  0  0  0  0  0  0  0
   13.5113   22.2789    6.1904 O   0  0  0  0  0  0  0  0  0  0  0  0
   14.6893   24.2052    7.1996 O   0  0  0  0  0  0  0  0  0  0  0  0
   12.2189   24.5936    6.6323 C   0  0  0  0  0  0  0  0  0  0  0  0
   10.9833   24.3872    5.9492 C   0  0  0  0  0  0  0  0  0  0  0  0
    9.8412   25.1457    6.3212 C   0  0  0  0  0  0  0  0  0  0  0  0
    9.9461   26.0950    7.3684 C   0  0  0  0  0  0  0  0  0  0  0  0
   11.1735   26.2942    8.0330 C   0  0  0  0  0  0  0  0  0  0  0  0
   12.3029   25.5493    7.6689 C   0  0  0  0  0  0  0  0  0  0  0  0
    8.8286   26.8129    7.7827 C   0  0  0  0  0  0  0  0  0  0  0  0
    7.8912   27.4211    8.1336 N   0  0  0  0  0  0  0  0  0  0  0  0
   17.0680   19.7585    4.5593 C   0  0  0  0  0  0  0  0  0  0  0  0
   17.6131   20.1764    5.9501 C   0  0  0  0  0  0  0  0  0  0  0  0
   18.9767   20.5030    6.1675 C   0  0  0  0  0  0  0  0  0  0  0  0
   19.7601   20.3791    5.2926 O   0  0  0  0  0  0  0  0  0  0  0  0
   19.4629   20.9017    7.3575 O   0  0  0  0  0  0  0  0  0  0  0  0
   18.5256   20.9566    8.4149 C   0  0  0  0  0  0  0  0  0  0  0  0
   17.1863   20.6396    8.2758 C   0  0  0  0  0  0  0  0  0  0  0  0
   16.7273   20.2479    7.0090 C   0  0  0  0  0  0  0  0  0  0  0  0
   15.4300   19.9747    6.7137 O   0  0  0  0  0  0  0  0  0  0  0  0
   19.1279   21.3946    9.7481 C   0  0  0  0  0  0  0  0  0  0  0  0
   19.3779   20.3130   10.8143 C   0  0  0  0  0  0  0  0  0  0  0  0
   19.0342   18.9058   10.4552 C   0  0  0  0  0  0  0  0  0  0  0  0
   17.5639   18.5931   10.3665 C   0  0  0  0  0  0  0  0  0  0  0  0
   16.5934   19.7617   10.6617 C   0  0  0  0  0  0  0  0  0  0  0  0
   16.2501   20.6987    9.4675 C   0  0  0  0  0  0  0  0  0  0  0  0
   15.1914   19.7178    5.8447 H   0  0  0  0  0  0  0  0  0  0  0  0
   16.7785   18.2607    4.3129 C   0  0  0  0  0  0  0  0  0  0  0  0
   17.8390   17.2108    4.6519 C   0  0  0  0  0  0  0  0  0  0  0  0
   17.5437   17.5490    3.1973 C   0  0  0  0  0  0  0  0  0  0  0  0
 21 22  1  0  0  0
 21 27  2  0  0  0
 21 20  1  0  0  0
 22 23  2  0  0  0
 22 24  1  0  0  0
 24 25  1  0  0  0
 25 26  2  0  0  0
 25 29  1  0  0  0
 26 27  1  0  0  0
 26 34  1  0  0  0
 27 28  1  0  0  0
  1  2  2  0  0  0
  1  6  1  0  0  0
  1 20  1  0  0  0
  2  3  1  0  0  0
  3  4  2  0  0  0
  4  5  1  0  0  0
  5  6  2  0  0  0
  5  7  1  0  0  0
 20 36  1  0  0  0
 36 37  1  0  0  0
 36 38  1  0  0  0
 37 38  1  0  0  0
 29 30  1  0  0  0
 30 31  1  0  0  0
 31 32  1  0  0  0
 32 33  1  0  0  0
 33 34  1  0  0  0
  7  9  1  0  0  0
  9 10  2  0  0  0
  9 11  2  0  0  0
  9 12  1  0  0  0
 12 13  2  0  0  0
 12 17  1  0  0  0
 13 14  1  0  0  0
 14 15  2  0  0  0
 15 16  1  0  0  0
 15 18  1  0  0  0
 16 17  2  0  0  0
 18 19  3  0  0  0
 28 35  1  0  0  0
  7  8  1  0  0  0
M  END
> <minimizedAffinity>
-9.20698

$$$$
1HPO_UNI_B_100


 38 42  0  0  0  0  0  0  0  0999 V2000
    9.8578   24.4745    4.3885 C   0  0  0  0  0  0  0  0  0  0  0  0
    9.7944   23.2402    3.6847 C   0  0  0  0  0  0  0  0  0  0  0  0
    9.1198   23.1844    2.4395 C   0  0  0  0  0  0  0  0  0  0  0  0
    8.5061   24.3130    1.8959 C   0  0  0  0  0  0  0  0  0  0  0  0
    8.5876   25.5489    2.5835 C   0  0  0  0  0  0  0  0  0  0  0  0
    9.2486   25.6125    3.8238 C   0  0  0  0  0  0  0  0  0  0  0  0
    7.9612   26.6875    2.0918 N   0  0  0  0  0  0  0  0  0  0  0  0
    8.2724   27.1589    1.2855 H   0  0  0  0  0  0  0  0  0  0  0  0
    6.7170   27.1628    2.9245 S   0  0  0  0  0  0  0  0  0  0  0  0
    6.2376   28.1719    1.9937 O   0  0  0  0  0  0  0  0  0  0  0  0
    5.9188   25.9411    3.0131 O   0  0  0  0  0  0  0  0  0  0  0  0
    6.9106   27.7313    4.5582 C   0  0  0  0  0  0  0  0  0  0  0  0
    5.9990   27.4231    5.6118 C   0  0  0  0  0  0  0  0  0  0  0  0
    6.2377   27.9316    6.9166 C   0  0  0  0  0  0  0  0  0  0  0  0
    7.3805   28.7359    7.1528 C   0  0  0  0  0  0  0  0  0  0  0  0
    8.2717   29.0382    6.1028 C   0  0  0  0  0  0  0  0  0  0  0  0
    8.0399   28.5399    4.8141 C   0  0  0  0  0  0  0  0  0  0  0  0
    7.6606   29.2030    8.4331 C   0  0  0  0  0  0  0  0  0  0  0  0
    7.9001   29.5922    9.5114 N   0  0  0  0  0  0  0  0  0  0  0  0
   10.5367   24.5642    5.7506 C   0  0  0  0  0  0  0  0  0  0  0  0
   12.0006   24.0515    5.7682 C   0  0  0  0  0  0  0  0  0  0  0  0
   13.0919   24.8465    5.3318 C   0  0  0  0  0  0  0  0  0  0  0  0
   12.8949   25.9091    4.8558 O   0  0  0  0  0  0  0  0  0  0  0  0
   14.3724   24.4340    5.3718 O   0  0  0  0  0  0  0  0  0  0  0  0
   14.5787   23.1233    5.8611 C   0  0  0  0  0  0  0  0  0  0  0  0
   13.5606   22.2909    6.2899 C   0  0  0  0  0  0  0  0  0  0  0  0
   12.2451   22.7772    6.2451 C   0  0  0  0  0  0  0  0  0  0  0  0
   11.1597   22.0966    6.6959 O   0  0  0  0  0  0  0  0  0  0  0  0
   16.0441   22.6937    5.8686 C   0  0  0  0  0  0  0  0  0  0  0  0
   16.5143   21.7219    4.7715 C   0  0  0  0  0  0  0  0  0  0  0  0
   15.5039   21.2889    3.7621 C   0  0  0  0  0  0  0  0  0  0  0  0
   14.4450   20.3413    4.2605 C   0  0  0  0  0  0  0  0  0  0  0  0
   14.5358   19.9305    5.7496 C   0  0  0  0  0  0  0  0  0  0  0  0
   13.8634   20.8868    6.7768 C   0  0  0  0  0  0  0  0  0  0  0  0
   10.3073   22.4811    6.6356 H   0  0  0  0  0  0  0  0  0  0  0  0
   10.2212   25.8858    6.4867 C   0  0  0  0  0  0  0  0  0  0  0  0
   10.7737   26.1289    7.8930 C   0  0  0  0  0  0  0  0  0  0  0  0
    9.2924   25.8355    7.6998 C   0  0  0  0  0  0  0  0  0  0  0  0
 21 22  1  0  0  0
 21 27  2  0  0  0
 21 20  1  0  0  0
 22 23  2  0  0  0
 22 24  1  0  0  0
 24 25  1  0  0  0
 25 26  2  0  0  0
 25 29  1  0  0  0
 26 27  1  0  0  0
 26 34  1  0  0  0
 27 28  1  0  0  0
  1  2  2  0  0  0
  1  6  1  0  0  0
  1 20  1  0  0  0
  2  3  1  0  0  0
  3  4  2  0  0  0
  4  5  1  0  0  0
  5  6  2  0  0  0
  5  7  1  0  0  0
 20 36  1  0  0  0
 36 37  1  0  0  0
 36 38  1  0  0  0
 37 38  1  0  0  0
 29 30  1  0  0  0
 30 31  1  0  0  0
 31 32  1  0  0  0
 32 33  1  0  0  0
 33 34  1  0  0  0
  7  9  1  0  0  0
  9 10  2  0  0  0
  9 11  2  0  0  0
  9 12  1  0  0  0
 12 13  2  0  0  0
 12 17  1  0  0  0
 13 14  1  0  0  0
 14 15  2  0  0  0
 15 16  1  0  0  0
 15 18  1  0  0  0
 16 17  2  0  0  0
 18 19  3  0  0  0
 28 35  1  0  0  0
  7  8  1  0  0  0
M  END
> <minimizedAffinity>
-9.17783

$$$$
1HPO_UNI_B_100


 38 42  0  0  0  0  0  0  0  0999 V2000
   15.6886   21.5416    6.2681 C   0  0  0  0  0  0  0  0  0  0  0  0
   16.0503   22.9107    6.1351 C   0  0  0  0  0  0  0  0  0  0  0  0
   16.9234   23.4941    7.0870 C   0  0  0  0  0  0  0  0  0  0  0  0
   17.4257   22.7557    8.1588 C   0  0  0  0  0  0  0  0  0  0  0  0
   17.0856   21.3859    8.2805 C   0  0  0  0  0  0  0  0  0  0  0  0
   16.2136   20.7999    7.3448 C   0  0  0  0  0  0  0  0  0  0  0  0
   17.5382   20.6256    9.3518 N   0  0  0  0  0  0  0  0  0  0  0  0
   17.1599   20.7051   10.2572 H   0  0  0  0  0  0  0  0  0  0  0  0
   18.7016   19.6293    9.0036 S   0  0  0  0  0  0  0  0  0  0  0  0
   19.8085   20.4709    9.4293 O   0  0  0  0  0  0  0  0  0  0  0  0
   18.3978   18.4862    9.8629 O   0  0  0  0  0  0  0  0  0  0  0  0
   18.8672   18.9907    7.3929 C   0  0  0  0  0  0  0  0  0  0  0  0
   19.0657   19.8068    6.2394 C   0  0  0  0  0  0  0  0  0  0  0  0
   19.1908   19.1973    4.9623 C   0  0  0  0  0  0  0  0  0  0  0  0
   19.1192   17.7860    4.8538 C   0  0  0  0  0  0  0  0  0  0  0  0
   18.9176   16.9898    5.9999 C   0  0  0  0  0  0  0  0  0  0  0  0
   18.7926   17.5864    7.2614 C   0  0  0  0  0  0  0  0  0  0  0  0
   19.2890   17.1650    3.6204 C   0  0  0  0  0  0  0  0  0  0  0  0
   19.4338   16.6377    2.5846 N   0  0  0  0  0  0  0  0  0  0  0  0
   14.7179   20.8905    5.2893 C   0  0  0  0  0  0  0  0  0  0  0  0
   13.6311   21.8493    4.7364 C   0  0  0  0  0  0  0  0  0  0  0  0
   13.6493   22.3340    3.4029 C   0  0  0  0  0  0  0  0  0  0  0  0
   14.5591   22.0792    2.6946 O   0  0  0  0  0  0  0  0  0  0  0  0
   12.6977   23.1378    2.8932 O   0  0  0  0  0  0  0  0  0  0  0  0
   11.6636   23.5050    3.7853 C   0  0  0  0  0  0  0  0  0  0  0  0
   11.5917   23.0800    5.0997 C   0  0  0  0  0  0  0  0  0  0  0  0
   12.5995   22.2274    5.5754 C   0  0  0  0  0  0  0  0  0  0  0  0
   12.6187   21.6810    6.8187 O   0  0  0  0  0  0  0  0  0  0  0  0
   10.6196   24.4326    3.1676 C   0  0  0  0  0  0  0  0  0  0  0  0
   10.6689   25.9238    3.5457 C   0  0  0  0  0  0  0  0  0  0  0  0
   11.7540   26.3590    4.4733 C   0  0  0  0  0  0  0  0  0  0  0  0
   11.6072   25.9176    5.9055 C   0  0  0  0  0  0  0  0  0  0  0  0
   10.3532   25.0750    6.2402 C   0  0  0  0  0  0  0  0  0  0  0  0
   10.4621   23.5411    6.0005 C   0  0  0  0  0  0  0  0  0  0  0  0
   13.3238   21.1185    7.0725 H   0  0  0  0  0  0  0  0  0  0  0  0
   15.4232   19.9415    4.2945 C   0  0  0  0  0  0  0  0  0  0  0  0
   14.6178   18.8676    3.5596 C   0  0  0  0  0  0  0  0  0  0  0  0
   15.5705   18.4691    4.6781 C   0  0  0  0  0  0  0  0  0  0  0  0
 21 22  1  0  0  0
 21 27  2  0  0  0
 21 20  1  0  0  0
 22 23  2  0  0  0
 22 24  1  0  0  0
 24 25  1  0  0  0
 25 26  2  0  0  0
 25 29  1  0  0  0
 26 27  1  0  0  0
 26 34  1  0  0  0
 27 28  1  0  0  0
  1  2  2  0  0  0
  1  6  1  0  0  0
  1 20  1  0  0  0
  2  3  1  0  0  0
  3  4  2  0  0  0
  4  5  1  0  0  0
  5  6  2  0  0  0
  5  7  1  0  0  0
 20 36  1  0  0  0
 36 37  1  0  0  0
 36 38  1  0  0  0
 37 38  1  0  0  0
 29 30  1  0  0  0
 30 31  1  0  0  0
 31 32  1  0  0  0
 32 33  1  0  0  0
 33 34  1  0  0  0
  7  9  1  0  0  0
  9 10  2  0  0  0
  9 11  2  0  0  0
  9 12  1  0  0  0
 12 13  2  0  0  0
 12 17  1  0  0  0
 13 14  1  0  0  0
 14 15  2  0  0  0
 15 16  1  0  0  0
 15 18  1  0  0  0
 16 17  2  0  0  0
 18 19  3  0  0  0
 28 35  1  0  0  0
  7  8  1  0  0  0
M  END
> <minimizedAffinity>
-9.15697

$$$$
