4FNN_STE_B_201


 21 20  0  0  0  0  0  0  0  0999 V2000
  -37.3831  -25.3765  -43.6339 C   0  0  0  0  0  0  0  0  0  0  0  0
  -36.1432  -25.1779  -44.4747 C   0  0  0  0  0  0  0  0  0  0  0  0
  -34.9065  -25.6308  -43.7028 C   0  0  0  0  0  0  0  0  0  0  0  0
  -33.6870  -24.7508  -44.0082 C   0  0  0  0  0  0  0  0  0  0  0  0
  -33.5200  -23.5936  -43.0349 C   0  0  0  0  0  0  0  0  0  0  0  0
  -34.1693  -23.8494  -41.6685 C   0  0  0  0  0  0  0  0  0  0  0  0
  -35.1862  -22.7899  -41.2331 C   0  0  0  0  0  0  0  0  0  0  0  0
  -35.3708  -21.7355  -42.3288 C   0  0  0  0  0  0  0  0  0  0  0  0
  -36.7173  -21.8296  -43.0560 C   0  0  0  0  0  0  0  0  0  0  0  0
  -37.8274  -21.0569  -42.3630 C   0  0  0  0  0  0  0  0  0  0  0  0
  -38.7027  -21.9040  -41.4663 C   0  0  0  0  0  0  0  0  0  0  0  0
  -37.0872  -26.2178  -42.3934 C   0  0  0  0  0  0  0  0  0  0  0  0
  -37.5371  -25.5141  -41.1291 C   0  0  0  0  0  0  0  0  0  0  0  0
  -37.6739  -26.3863  -39.9048 C   0  0  0  0  0  0  0  0  0  0  0  0
  -36.4129  -27.2036  -39.7092 C   0  0  0  0  0  0  0  0  0  0  0  0
  -35.6157  -26.7253  -38.4988 C   0  0  0  0  0  0  0  0  0  0  0  0
  -34.1971  -26.3715  -38.9230 C   0  0  0  0  0  0  0  0  0  0  0  0
  -33.7022  -25.2201  -38.1215 C   0  0  0  0  0  0  0  0  0  0  0  0
  -34.3664  -24.8310  -37.1711 O   0  0  0  0  0  0  0  0  0  0  0  0
  -32.6435  -24.7012  -38.4338 O   0  0  0  0  0  0  0  0  0  0  0  0
  -32.1613  -25.0260  -39.1686 H   0  0  0  0  0  0  0  0  0  0  0  0
 18 19  2  0  0  0
 18 20  1  0  0  0
 18 17  1  0  0  0
 17 16  1  0  0  0
 16 15  1  0  0  0
 15 14  1  0  0  0
 14 13  1  0  0  0
 13 12  1  0  0  0
 12  1  1  0  0  0
  1  2  1  0  0  0
  2  3  1  0  0  0
  3  4  1  0  0  0
  4  5  1  0  0  0
  5  6  1  0  0  0
  6  7  1  0  0  0
  7  8  1  0  0  0
  8  9  1  0  0  0
  9 10  1  0  0  0
 10 11  1  0  0  0
 20 21  1  0  0  0
M  END
> <minimizedAffinity>
-4.09234

$$$$
4FNN_STE_B_201


 21 20  0  0  0  0  0  0  0  0999 V2000
  -33.1934  -23.5077  -42.8684 C   0  0  0  0  0  0  0  0  0  0  0  0
  -34.0008  -22.3897  -42.2504 C   0  0  0  0  0  0  0  0  0  0  0  0
  -33.7043  -22.2909  -40.7562 C   0  0  0  0  0  0  0  0  0  0  0  0
  -34.8479  -21.6137  -39.9892 C   0  0  0  0  0  0  0  0  0  0  0  0
  -36.2255  -22.1170  -40.3931 C   0  0  0  0  0  0  0  0  0  0  0  0
  -37.2152  -20.9894  -40.7144 C   0  0  0  0  0  0  0  0  0  0  0  0
  -36.7555  -20.0264  -41.8134 C   0  0  0  0  0  0  0  0  0  0  0  0
  -36.8617  -18.5740  -41.3383 C   0  0  0  0  0  0  0  0  0  0  0  0
  -35.5435  -17.7963  -41.4298 C   0  0  0  0  0  0  0  0  0  0  0  0
  -34.4232  -18.5912  -42.0800 C   0  0  0  0  0  0  0  0  0  0  0  0
  -33.9535  -18.0278  -43.4027 C   0  0  0  0  0  0  0  0  0  0  0  0
  -34.0876  -24.4916  -43.6210 C   0  0  0  0  0  0  0  0  0  0  0  0
  -35.3693  -24.7654  -42.8605 C   0  0  0  0  0  0  0  0  0  0  0  0
  -35.4741  -26.1272  -42.2181 C   0  0  0  0  0  0  0  0  0  0  0  0
  -36.0187  -25.9939  -40.8103 C   0  0  0  0  0  0  0  0  0  0  0  0
  -34.9490  -25.5035  -39.8384 C   0  0  0  0  0  0  0  0  0  0  0  0
  -34.4797  -26.6575  -38.9633 C   0  0  0  0  0  0  0  0  0  0  0  0
  -33.3532  -26.2116  -38.1000 C   0  0  0  0  0  0  0  0  0  0  0  0
  -32.9011  -25.0853  -38.2513 O   0  0  0  0  0  0  0  0  0  0  0  0
  -32.9171  -26.9826  -37.2616 O   0  0  0  0  0  0  0  0  0  0  0  0
  -33.2884  -27.8384  -37.1740 H   0  0  0  0  0  0  0  0  0  0  0  0
 18 19  2  0  0  0
 18 20  1  0  0  0
 18 17  1  0  0  0
 17 16  1  0  0  0
 16 15  1  0  0  0
 15 14  1  0  0  0
 14 13  1  0  0  0
 13 12  1  0  0  0
 12  1  1  0  0  0
  1  2  1  0  0  0
  2  3  1  0  0  0
  3  4  1  0  0  0
  4  5  1  0  0  0
  5  6  1  0  0  0
  6  7  1  0  0  0
  7  8  1  0  0  0
  8  9  1  0  0  0
  9 10  1  0  0  0
 10 11  1  0  0  0
 20 21  1  0  0  0
M  END
> <minimizedAffinity>
-4.07664

$$$$
4FNN_STE_B_201


 21 20  0  0  0  0  0  0  0  0999 V2000
  -36.3727  -26.5387  -40.3857 C   0  0  0  0  0  0  0  0  0  0  0  0
  -37.6376  -25.7326  -40.2015 C   0  0  0  0  0  0  0  0  0  0  0  0
  -38.2210  -25.3520  -41.5598 C   0  0  0  0  0  0  0  0  0  0  0  0
  -37.5193  -26.0862  -42.7102 C   0  0  0  0  0  0  0  0  0  0  0  0
  -37.4805  -25.2842  -44.0023 C   0  0  0  0  0  0  0  0  0  0  0  0
  -36.0630  -24.8707  -44.4194 C   0  0  0  0  0  0  0  0  0  0  0  0
  -34.9760  -25.1713  -43.3828 C   0  0  0  0  0  0  0  0  0  0  0  0
  -34.3788  -23.8720  -42.8338 C   0  0  0  0  0  0  0  0  0  0  0  0
  -35.3158  -23.1135  -41.8864 C   0  0  0  0  0  0  0  0  0  0  0  0
  -34.8840  -23.1875  -40.4311 C   0  0  0  0  0  0  0  0  0  0  0  0
  -33.4947  -23.7497  -40.2270 C   0  0  0  0  0  0  0  0  0  0  0  0
  -35.9407  -27.2051  -39.0806 C   0  0  0  0  0  0  0  0  0  0  0  0
  -34.4732  -26.9587  -38.7945 C   0  0  0  0  0  0  0  0  0  0  0  0
  -34.1587  -26.3551  -37.4473 C   0  0  0  0  0  0  0  0  0  0  0  0
  -35.4319  -26.2024  -36.6397 C   0  0  0  0  0  0  0  0  0  0  0  0
  -35.4276  -24.9132  -35.8228 C   0  0  0  0  0  0  0  0  0  0  0  0
  -35.3314  -23.7130  -36.7544 C   0  0  0  0  0  0  0  0  0  0  0  0
  -34.3911  -22.7084  -36.1890 C   0  0  0  0  0  0  0  0  0  0  0  0
  -34.7115  -22.1013  -35.1767 O   0  0  0  0  0  0  0  0  0  0  0  0
  -33.3241  -22.5240  -36.7503 O   0  0  0  0  0  0  0  0  0  0  0  0
  -33.1122  -23.0076  -37.5244 H   0  0  0  0  0  0  0  0  0  0  0  0
 18 19  2  0  0  0
 18 20  1  0  0  0
 18 17  1  0  0  0
 17 16  1  0  0  0
 16 15  1  0  0  0
 15 14  1  0  0  0
 14 13  1  0  0  0
 13 12  1  0  0  0
 12  1  1  0  0  0
  1  2  1  0  0  0
  2  3  1  0  0  0
  3  4  1  0  0  0
  4  5  1  0  0  0
  5  6  1  0  0  0
  6  7  1  0  0  0
  7  8  1  0  0  0
  8  9  1  0  0  0
  9 10  1  0  0  0
 10 11  1  0  0  0
 20 21  1  0  0  0
M  END
> <minimizedAffinity>
-4.02427

$$$$
4FNN_STE_B_201


 21 20  0  0  0  0  0  0  0  0999 V2000
  -35.2309  -26.6423  -38.7150 C   0  0  0  0  0  0  0  0  0  0  0  0
  -33.8054  -26.2180  -38.4476 C   0  0  0  0  0  0  0  0  0  0  0  0
  -33.4221  -25.0572  -39.3618 C   0  0  0  0  0  0  0  0  0  0  0  0
  -34.5508  -24.0242  -39.4794 C   0  0  0  0  0  0  0  0  0  0  0  0
  -34.2825  -22.9551  -40.5278 C   0  0  0  0  0  0  0  0  0  0  0  0
  -33.3725  -23.4344  -41.6664 C   0  0  0  0  0  0  0  0  0  0  0  0
  -33.9553  -23.2562  -43.0717 C   0  0  0  0  0  0  0  0  0  0  0  0
  -35.1472  -24.1943  -43.2854 C   0  0  0  0  0  0  0  0  0  0  0  0
  -34.8966  -25.6297  -42.8082 C   0  0  0  0  0  0  0  0  0  0  0  0
  -36.1654  -26.3483  -42.3798 C   0  0  0  0  0  0  0  0  0  0  0  0
  -37.1581  -25.4684  -41.6530 C   0  0  0  0  0  0  0  0  0  0  0  0
  -36.0860  -26.5528  -37.4521 C   0  0  0  0  0  0  0  0  0  0  0  0
  -35.2288  -26.3566  -36.2180 C   0  0  0  0  0  0  0  0  0  0  0  0
  -35.5306  -25.1263  -35.3972 C   0  0  0  0  0  0  0  0  0  0  0  0
  -36.3614  -24.1540  -36.2101 C   0  0  0  0  0  0  0  0  0  0  0  0
  -35.5965  -22.8648  -36.4969 C   0  0  0  0  0  0  0  0  0  0  0  0
  -34.4579  -22.7081  -35.4984 C   0  0  0  0  0  0  0  0  0  0  0  0
  -33.3937  -21.8444  -36.0769 C   0  0  0  0  0  0  0  0  0  0  0  0
  -32.4676  -21.4871  -35.3625 O   0  0  0  0  0  0  0  0  0  0  0  0
  -33.4743  -21.5225  -37.2506 O   0  0  0  0  0  0  0  0  0  0  0  0
  -34.1986  -21.8152  -37.7680 H   0  0  0  0  0  0  0  0  0  0  0  0
 18 19  2  0  0  0
 18 20  1  0  0  0
 18 17  1  0  0  0
 17 16  1  0  0  0
 16 15  1  0  0  0
 15 14  1  0  0  0
 14 13  1  0  0  0
 13 12  1  0  0  0
 12  1  1  0  0  0
  1  2  1  0  0  0
  2  3  1  0  0  0
  3  4  1  0  0  0
  4  5  1  0  0  0
  5  6  1  0  0  0
  6  7  1  0  0  0
  7  8  1  0  0  0
  8  9  1  0  0  0
  9 10  1  0  0  0
 10 11  1  0  0  0
 20 21  1  0  0  0
M  END
> <minimizedAffinity>
-3.93613

$$$$
4FNN_STE_B_201


 21 20  0  0  0  0  0  0  0  0999 V2000
  -37.2372  -23.2025  -43.6919 C   0  0  0  0  0  0  0  0  0  0  0  0
  -36.3569  -24.3491  -44.1323 C   0  0  0  0  0  0  0  0  0  0  0  0
  -36.7112  -25.6132  -43.3535 C   0  0  0  0  0  0  0  0  0  0  0  0
  -35.4827  -26.2270  -42.6687 C   0  0  0  0  0  0  0  0  0  0  0  0
  -35.3268  -25.8016  -41.2165 C   0  0  0  0  0  0  0  0  0  0  0  0
  -36.6566  -25.4380  -40.5430 C   0  0  0  0  0  0  0  0  0  0  0  0
  -36.6116  -25.4017  -39.0123 C   0  0  0  0  0  0  0  0  0  0  0  0
  -35.7564  -24.2283  -38.5245 C   0  0  0  0  0  0  0  0  0  0  0  0
  -34.4272  -24.6546  -37.8901 C   0  0  0  0  0  0  0  0  0  0  0  0
  -34.4241  -26.1001  -37.4210 C   0  0  0  0  0  0  0  0  0  0  0  0
  -33.4190  -26.9782  -38.1328 C   0  0  0  0  0  0  0  0  0  0  0  0
  -36.4066  -22.0169  -43.2036 C   0  0  0  0  0  0  0  0  0  0  0  0
  -36.1437  -22.1035  -41.7139 C   0  0  0  0  0  0  0  0  0  0  0  0
  -34.7060  -21.9274  -41.2891 C   0  0  0  0  0  0  0  0  0  0  0  0
  -33.7809  -22.4747  -42.3574 C   0  0  0  0  0  0  0  0  0  0  0  0
  -32.6282  -23.2688  -41.7491 C   0  0  0  0  0  0  0  0  0  0  0  0
  -31.6270  -23.6379  -42.8349 C   0  0  0  0  0  0  0  0  0  0  0  0
  -30.2410  -23.4274  -42.3371 C   0  0  0  0  0  0  0  0  0  0  0  0
  -29.3026  -23.6270  -43.0956 O   0  0  0  0  0  0  0  0  0  0  0  0
  -30.0823  -23.0556  -41.1863 O   0  0  0  0  0  0  0  0  0  0  0  0
  -30.8251  -22.9127  -40.6335 H   0  0  0  0  0  0  0  0  0  0  0  0
 18 19  2  0  0  0
 18 20  1  0  0  0
 18 17  1  0  0  0
 17 16  1  0  0  0
 16 15  1  0  0  0
 15 14  1  0  0  0
 14 13  1  0  0  0
 13 12  1  0  0  0
 12  1  1  0  0  0
  1  2  1  0  0  0
  2  3  1  0  0  0
  3  4  1  0  0  0
  4  5  1  0  0  0
  5  6  1  0  0  0
  6  7  1  0  0  0
  7  8  1  0  0  0
  8  9  1  0  0  0
  9 10  1  0  0  0
 10 11  1  0  0  0
 20 21  1  0  0  0
M  END
> <minimizedAffinity>
-3.93369

$$$$
4FNN_STE_B_201


 21 20  0  0  0  0  0  0  0  0999 V2000
  -36.3915  -22.7916  -38.3148 C   0  0  0  0  0  0  0  0  0  0  0  0
  -35.6788  -22.9065  -36.9872 C   0  0  0  0  0  0  0  0  0  0  0  0
  -34.2134  -23.2734  -37.2073 C   0  0  0  0  0  0  0  0  0  0  0  0
  -33.8749  -23.4096  -38.6978 C   0  0  0  0  0  0  0  0  0  0  0  0
  -33.2186  -24.7366  -39.0479 C   0  0  0  0  0  0  0  0  0  0  0  0
  -33.6328  -25.8844  -38.1177 C   0  0  0  0  0  0  0  0  0  0  0  0
  -34.9001  -26.6311  -38.5452 C   0  0  0  0  0  0  0  0  0  0  0  0
  -35.8614  -26.7853  -37.3627 C   0  0  0  0  0  0  0  0  0  0  0  0
  -35.1709  -26.7342  -35.9947 C   0  0  0  0  0  0  0  0  0  0  0  0
  -35.9789  -25.9913  -34.9436 C   0  0  0  0  0  0  0  0  0  0  0  0
  -37.4292  -25.7780  -35.3163 C   0  0  0  0  0  0  0  0  0  0  0  0
  -37.6238  -23.6933  -38.3664 C   0  0  0  0  0  0  0  0  0  0  0  0
  -37.7333  -24.4022  -39.7011 C   0  0  0  0  0  0  0  0  0  0  0  0
  -36.7874  -23.9269  -40.7771 C   0  0  0  0  0  0  0  0  0  0  0  0
  -36.2751  -25.1097  -41.5740 C   0  0  0  0  0  0  0  0  0  0  0  0
  -34.9557  -24.7885  -42.2706 C   0  0  0  0  0  0  0  0  0  0  0  0
  -35.0160  -23.3901  -42.8693 C   0  0  0  0  0  0  0  0  0  0  0  0
  -33.7293  -22.6824  -42.6312 C   0  0  0  0  0  0  0  0  0  0  0  0
  -32.7367  -23.0328  -43.2539 O   0  0  0  0  0  0  0  0  0  0  0  0
  -33.7044  -21.7682  -41.8243 O   0  0  0  0  0  0  0  0  0  0  0  0
  -34.4849  -21.5270  -41.3653 H   0  0  0  0  0  0  0  0  0  0  0  0
 18 19  2  0  0  0
 18 20  1  0  0  0
 18 17  1  0  0  0
 17 16  1  0  0  0
 16 15  1  0  0  0
 15 14  1  0  0  0
 14 13  1  0  0  0
 13 12  1  0  0  0
 12  1  1  0  0  0
  1  2  1  0  0  0
  2  3  1  0  0  0
  3  4  1  0  0  0
  4  5  1  0  0  0
  5  6  1  0  0  0
  6  7  1  0  0  0
  7  8  1  0  0  0
  8  9  1  0  0  0
  9 10  1  0  0  0
 10 11  1  0  0  0
 20 21  1  0  0  0
M  END
> <minimizedAffinity>
-3.93182

$$$$
4FNN_STE_B_201


 21 20  0  0  0  0  0  0  0  0999 V2000
  -33.2625  -23.1432  -42.9153 C   0  0  0  0  0  0  0  0  0  0  0  0
  -34.3623  -22.1069  -42.9007 C   0  0  0  0  0  0  0  0  0  0  0  0
  -34.5229  -21.5305  -41.4963 C   0  0  0  0  0  0  0  0  0  0  0  0
  -35.9894  -21.5235  -41.0446 C   0  0  0  0  0  0  0  0  0  0  0  0
  -36.9697  -21.7970  -42.1753 C   0  0  0  0  0  0  0  0  0  0  0  0
  -38.2124  -22.5776  -41.7276 C   0  0  0  0  0  0  0  0  0  0  0  0
  -38.6306  -22.3388  -40.2735 C   0  0  0  0  0  0  0  0  0  0  0  0
  -38.9472  -23.6660  -39.5774 C   0  0  0  0  0  0  0  0  0  0  0  0
  -38.0823  -23.9363  -38.3406 C   0  0  0  0  0  0  0  0  0  0  0  0
  -37.5396  -22.6691  -37.7008 C   0  0  0  0  0  0  0  0  0  0  0  0
  -36.0326  -22.6377  -37.5744 C   0  0  0  0  0  0  0  0  0  0  0  0
  -33.6937  -24.4040  -43.6626 C   0  0  0  0  0  0  0  0  0  0  0  0
  -35.1265  -24.7752  -43.3377 C   0  0  0  0  0  0  0  0  0  0  0  0
  -35.3056  -25.8718  -42.3161 C   0  0  0  0  0  0  0  0  0  0  0  0
  -35.9137  -25.3037  -41.0496 C   0  0  0  0  0  0  0  0  0  0  0  0
  -34.8430  -24.9611  -40.0173 C   0  0  0  0  0  0  0  0  0  0  0  0
  -34.8665  -25.9853  -38.8911 C   0  0  0  0  0  0  0  0  0  0  0  0
  -33.5124  -26.1023  -38.2862 C   0  0  0  0  0  0  0  0  0  0  0  0
  -33.0137  -27.2120  -38.1608 O   0  0  0  0  0  0  0  0  0  0  0  0
  -32.9368  -25.0850  -37.9377 O   0  0  0  0  0  0  0  0  0  0  0  0
  -33.3499  -24.2514  -38.0491 H   0  0  0  0  0  0  0  0  0  0  0  0
 18 19  2  0  0  0
 18 20  1  0  0  0
 18 17  1  0  0  0
 17 16  1  0  0  0
 16 15  1  0  0  0
 15 14  1  0  0  0
 14 13  1  0  0  0
 13 12  1  0  0  0
 12  1  1  0  0  0
  1  2  1  0  0  0
  2  3  1  0  0  0
  3  4  1  0  0  0
  4  5  1  0  0  0
  5  6  1  0  0  0
  6  7  1  0  0  0
  7  8  1  0  0  0
  8  9  1  0  0  0
  9 10  1  0  0  0
 10 11  1  0  0  0
 20 21  1  0  0  0
M  END
> <minimizedAffinity>
-3.92243

$$$$
4FNN_STE_B_201


 21 20  0  0  0  0  0  0  0  0999 V2000
  -34.6683  -22.4992  -42.8427 C   0  0  0  0  0  0  0  0  0  0  0  0
  -36.0922  -22.2246  -43.2678 C   0  0  0  0  0  0  0  0  0  0  0  0
  -36.6858  -23.4572  -43.9450 C   0  0  0  0  0  0  0  0  0  0  0  0
  -35.8114  -24.7011  -43.7378 C   0  0  0  0  0  0  0  0  0  0  0  0
  -36.5588  -25.8642  -43.1030 C   0  0  0  0  0  0  0  0  0  0  0  0
  -38.0725  -25.6336  -43.0049 C   0  0  0  0  0  0  0  0  0  0  0  0
  -38.7685  -26.4111  -41.8836 C   0  0  0  0  0  0  0  0  0  0  0  0
  -39.6248  -25.4736  -41.0268 C   0  0  0  0  0  0  0  0  0  0  0  0
  -39.6720  -24.0321  -41.5472 C   0  0  0  0  0  0  0  0  0  0  0  0
  -39.3583  -22.9989  -40.4778 C   0  0  0  0  0  0  0  0  0  0  0  0
  -38.8116  -21.6965  -41.0189 C   0  0  0  0  0  0  0  0  0  0  0  0
  -34.4455  -22.1413  -41.3743 C   0  0  0  0  0  0  0  0  0  0  0  0
  -34.5151  -23.3699  -40.4901 C   0  0  0  0  0  0  0  0  0  0  0  0
  -35.8167  -23.5771  -39.7545 C   0  0  0  0  0  0  0  0  0  0  0  0
  -36.1159  -25.0584  -39.6410 C   0  0  0  0  0  0  0  0  0  0  0  0
  -34.8578  -25.9015  -39.8297 C   0  0  0  0  0  0  0  0  0  0  0  0
  -34.6400  -26.7832  -38.6079 C   0  0  0  0  0  0  0  0  0  0  0  0
  -33.3661  -26.4104  -37.9362 C   0  0  0  0  0  0  0  0  0  0  0  0
  -32.8698  -25.3178  -38.1721 O   0  0  0  0  0  0  0  0  0  0  0  0
  -32.8567  -27.2055  -37.1642 O   0  0  0  0  0  0  0  0  0  0  0  0
  -33.2654  -28.0340  -37.0076 H   0  0  0  0  0  0  0  0  0  0  0  0
 18 19  2  0  0  0
 18 20  1  0  0  0
 18 17  1  0  0  0
 17 16  1  0  0  0
 16 15  1  0  0  0
 15 14  1  0  0  0
 14 13  1  0  0  0
 13 12  1  0  0  0
 12  1  1  0  0  0
  1  2  1  0  0  0
  2  3  1  0  0  0
  3  4  1  0  0  0
  4  5  1  0  0  0
  5  6  1  0  0  0
  6  7  1  0  0  0
  7  8  1  0  0  0
  8  9  1  0  0  0
  9 10  1  0  0  0
 10 11  1  0  0  0
 20 21  1  0  0  0
M  END
> <minimizedAffinity>
-3.89252

$$$$
4FNN_STE_B_201


 21 20  0  0  0  0  0  0  0  0999 V2000
  -36.2276  -25.1340  -42.4026 C   0  0  0  0  0  0  0  0  0  0  0  0
  -35.6508  -25.9625  -41.2781 C   0  0  0  0  0  0  0  0  0  0  0  0
  -36.7704  -26.4805  -40.3790 C   0  0  0  0  0  0  0  0  0  0  0  0
  -36.2426  -27.4353  -39.2998 C   0  0  0  0  0  0  0  0  0  0  0  0
  -36.4677  -26.9275  -37.8836 C   0  0  0  0  0  0  0  0  0  0  0  0
  -35.1660  -26.5937  -37.1429 C   0  0  0  0  0  0  0  0  0  0  0  0
  -33.8984  -26.6926  -37.9971 C   0  0  0  0  0  0  0  0  0  0  0  0
  -33.4032  -25.2981  -38.3926 C   0  0  0  0  0  0  0  0  0  0  0  0
  -34.2062  -24.1552  -37.7603 C   0  0  0  0  0  0  0  0  0  0  0  0
  -34.9979  -23.3469  -38.7749 C   0  0  0  0  0  0  0  0  0  0  0  0
  -36.4702  -23.2218  -38.4514 C   0  0  0  0  0  0  0  0  0  0  0  0
  -37.6637  -24.7081  -42.1021 C   0  0  0  0  0  0  0  0  0  0  0  0
  -37.7763  -23.2030  -41.9677 C   0  0  0  0  0  0  0  0  0  0  0  0
  -36.7470  -22.3971  -42.7224 C   0  0  0  0  0  0  0  0  0  0  0  0
  -36.1296  -21.3600  -41.8061 C   0  0  0  0  0  0  0  0  0  0  0  0
  -34.6050  -21.4264  -41.8295 C   0  0  0  0  0  0  0  0  0  0  0  0
  -34.1435  -22.2571  -43.0188 C   0  0  0  0  0  0  0  0  0  0  0  0
  -32.9585  -23.0716  -42.6370 C   0  0  0  0  0  0  0  0  0  0  0  0
  -32.7691  -23.3237  -41.4553 O   0  0  0  0  0  0  0  0  0  0  0  0
  -32.2131  -23.4690  -43.5167 O   0  0  0  0  0  0  0  0  0  0  0  0
  -32.3896  -23.2563  -44.4120 H   0  0  0  0  0  0  0  0  0  0  0  0
 18 19  2  0  0  0
 18 20  1  0  0  0
 18 17  1  0  0  0
 17 16  1  0  0  0
 16 15  1  0  0  0
 15 14  1  0  0  0
 14 13  1  0  0  0
 13 12  1  0  0  0
 12  1  1  0  0  0
  1  2  1  0  0  0
  2  3  1  0  0  0
  3  4  1  0  0  0
  4  5  1  0  0  0
  5  6  1  0  0  0
  6  7  1  0  0  0
  7  8  1  0  0  0
  8  9  1  0  0  0
  9 10  1  0  0  0
 10 11  1  0  0  0
 20 21  1  0  0  0
M  END
> <minimizedAffinity>
-3.88028

$$$$
4FNN_STE_B_201


 21 20  0  0  0  0  0  0  0  0999 V2000
  -38.2331  -26.5351  -40.5512 C   0  0  0  0  0  0  0  0  0  0  0  0
  -38.2287  -25.1841  -41.2283 C   0  0  0  0  0  0  0  0  0  0  0  0
  -37.7080  -25.3140  -42.6574 C   0  0  0  0  0  0  0  0  0  0  0  0
  -36.4315  -26.1629  -42.7268 C   0  0  0  0  0  0  0  0  0  0  0  0
  -35.2304  -25.4019  -43.2675 C   0  0  0  0  0  0  0  0  0  0  0  0
  -35.5099  -23.9117  -43.5028 C   0  0  0  0  0  0  0  0  0  0  0  0
  -34.4505  -22.9627  -42.9343 C   0  0  0  0  0  0  0  0  0  0  0  0
  -33.8122  -23.5573  -41.6752 C   0  0  0  0  0  0  0  0  0  0  0  0
  -33.8177  -22.6068  -40.4721 C   0  0  0  0  0  0  0  0  0  0  0  0
  -35.1303  -21.8592  -40.3057 C   0  0  0  0  0  0  0  0  0  0  0  0
  -36.2129  -22.6585  -39.6150 C   0  0  0  0  0  0  0  0  0  0  0  0
  -37.6113  -26.4629  -39.1576 C   0  0  0  0  0  0  0  0  0  0  0  0
  -36.2612  -27.1498  -39.1193 C   0  0  0  0  0  0  0  0  0  0  0  0
  -35.0765  -26.2912  -39.4902 C   0  0  0  0  0  0  0  0  0  0  0  0
  -34.0228  -26.3675  -38.4038 C   0  0  0  0  0  0  0  0  0  0  0  0
  -33.6556  -24.9821  -37.8793 C   0  0  0  0  0  0  0  0  0  0  0  0
  -34.6970  -24.5206  -36.8693 C   0  0  0  0  0  0  0  0  0  0  0  0
  -34.4027  -23.1266  -36.4410 C   0  0  0  0  0  0  0  0  0  0  0  0
  -35.1969  -22.5515  -35.7100 O   0  0  0  0  0  0  0  0  0  0  0  0
  -33.3729  -22.6001  -36.8283 O   0  0  0  0  0  0  0  0  0  0  0  0
  -32.7876  -23.0713  -37.3879 H   0  0  0  0  0  0  0  0  0  0  0  0
 18 19  2  0  0  0
 18 20  1  0  0  0
 18 17  1  0  0  0
 17 16  1  0  0  0
 16 15  1  0  0  0
 15 14  1  0  0  0
 14 13  1  0  0  0
 13 12  1  0  0  0
 12  1  1  0  0  0
  1  2  1  0  0  0
  2  3  1  0  0  0
  3  4  1  0  0  0
  4  5  1  0  0  0
  5  6  1  0  0  0
  6  7  1  0  0  0
  7  8  1  0  0  0
  8  9  1  0  0  0
  9 10  1  0  0  0
 10 11  1  0  0  0
 20 21  1  0  0  0
M  END
> <minimizedAffinity>
-3.82791

$$$$
