4W9C_3JG_C_301


 30 32  0  0  0  0  0  0  0  0999 V2000
   12.4644   53.1545   89.4965 C   0  0  0  0  0  0  0  0  0  0  0  0
   12.7902   52.1150   90.0534 O   0  0  0  0  0  0  0  0  0  0  0  0
   11.7161   53.1963   88.3559 N   0  0  0  0  0  0  0  0  0  0  0  0
   11.4943   54.0714   87.9630 H   0  0  0  0  0  0  0  0  0  0  0  0
   12.4861   54.1148   92.4526 C   0  0  0  0  0  0  0  0  0  0  0  0
   11.2834   53.9250   92.2457 O   0  0  0  0  0  0  0  0  0  0  0  0
   13.3793   54.3325   91.4400 N   0  0  0  0  0  0  0  0  0  0  0  0
   14.8408   54.6468   91.4805 C   0  0  0  0  0  0  0  0  0  0  0  0
   15.0937   55.4705   90.2176 C   0  0  0  0  0  0  0  0  0  0  0  0
   14.7281   56.8435   90.4357 O   0  0  0  0  0  0  0  0  0  0  0  0
   14.1762   54.8237   89.2001 C   0  0  0  0  0  0  0  0  0  0  0  0
   12.9238   54.3810   89.9992 C   0  0  0  0  0  0  0  0  0  0  0  0
   13.8010   56.8904   90.7171 H   0  0  0  0  0  0  0  0  0  0  0  0
   12.9933   54.1918   93.9340 C   0  0  0  0  0  0  0  0  0  0  0  0
   13.8736   52.9003   95.8041 C   0  0  0  0  0  0  0  0  0  0  0  0
   13.0628   52.7954   94.5098 C   0  0  0  0  0  0  0  0  0  0  0  0
   11.6494   52.2837   94.9030 C   0  0  0  0  0  0  0  0  0  0  0  0
   13.7309   51.8187   93.5212 C   0  0  0  0  0  0  0  0  0  0  0  0
   11.2304   51.9752   87.6951 C   0  0  0  0  0  0  0  0  0  0  0  0
   11.9904   51.7335   86.5076 C   0  0  0  0  0  0  0  0  0  0  0  0
   12.7273   52.7855   85.9401 C   0  0  0  0  0  0  0  0  0  0  0  0
   13.4734   52.6061   84.7679 C   0  0  0  0  0  0  0  0  0  0  0  0
   12.0244   50.4956   85.8553 C   0  0  0  0  0  0  0  0  0  0  0  0
   12.7663   50.3153   84.6892 C   0  0  0  0  0  0  0  0  0  0  0  0
   13.4990   51.3575   84.1373 C   0  0  0  0  0  0  0  0  0  0  0  0
   14.1980   51.1341   83.0174 C   0  0  0  0  0  0  0  0  0  0  0  0
   15.4156   51.6885   82.7382 O   0  0  0  0  0  0  0  0  0  0  0  0
   15.7860   51.2303   81.5285 C   0  0  0  0  0  0  0  0  0  0  0  0
   14.8167   50.4242   81.0855 N   0  0  0  0  0  0  0  0  0  0  0  0
   13.8359   50.3626   81.9988 C   0  0  0  0  0  0  0  0  0  0  0  0
 29 28  2  0  0  0
 29 30  1  0  0  0
 28 27  1  0  0  0
 30 26  2  0  0  0
 27 26  1  0  0  0
 26 25  1  0  0  0
 25 22  2  0  0  0
 25 24  1  0  0  0
 22 21  1  0  0  0
 24 23  2  0  0  0
 21 20  2  0  0  0
 23 20  1  0  0  0
 20 19  1  0  0  0
 19  3  1  0  0  0
  3  1  1  0  0  0
 11 12  1  0  0  0
 11  9  1  0  0  0
  1  2  2  0  0  0
  1 12  1  0  0  0
 12  7  1  0  0  0
  9 10  1  0  0  0
  9  8  1  0  0  0
  7  8  1  0  0  0
  7  5  1  0  0  0
  6  5  2  0  0  0
  5 14  1  0  0  0
 18 16  1  0  0  0
 14 16  1  0  0  0
 16 17  1  0  0  0
 16 15  1  0  0  0
 10 13  1  0  0  0
  3  4  1  0  0  0
M  END
> <minimizedAffinity>
-7.99020

$$$$
4W9C_3JG_C_301


 30 32  0  0  0  0  0  0  0  0999 V2000
   12.5045   53.4352   89.0393 C   0  0  0  0  0  0  0  0  0  0  0  0
   13.4226   53.8580   89.7286 O   0  0  0  0  0  0  0  0  0  0  0  0
   12.5135   53.4586   87.6746 N   0  0  0  0  0  0  0  0  0  0  0  0
   11.7365   53.1018   87.1866 H   0  0  0  0  0  0  0  0  0  0  0  0
   12.2957   51.5895   91.5315 C   0  0  0  0  0  0  0  0  0  0  0  0
   12.9276   50.8877   90.7356 O   0  0  0  0  0  0  0  0  0  0  0  0
   11.5047   52.6288   91.1254 N   0  0  0  0  0  0  0  0  0  0  0  0
   10.6173   53.5422   91.9094 C   0  0  0  0  0  0  0  0  0  0  0  0
    9.5107   53.9384   90.9316 C   0  0  0  0  0  0  0  0  0  0  0  0
    8.5066   52.9115   90.8716 O   0  0  0  0  0  0  0  0  0  0  0  0
   10.2466   54.0502   89.6120 C   0  0  0  0  0  0  0  0  0  0  0  0
   11.3412   52.9534   89.6579 C   0  0  0  0  0  0  0  0  0  0  0  0
    8.9200   52.0690   90.6261 H   0  0  0  0  0  0  0  0  0  0  0  0
   12.3357   51.2242   93.0556 C   0  0  0  0  0  0  0  0  0  0  0  0
   12.9669   52.5954   94.9690 C   0  0  0  0  0  0  0  0  0  0  0  0
   13.5086   51.9237   93.7046 C   0  0  0  0  0  0  0  0  0  0  0  0
   14.5839   50.9000   94.1630 C   0  0  0  0  0  0  0  0  0  0  0  0
   14.1311   52.9654   92.7532 C   0  0  0  0  0  0  0  0  0  0  0  0
   13.6475   54.0000   86.9101 C   0  0  0  0  0  0  0  0  0  0  0  0
   13.8281   53.2413   85.7110 C   0  0  0  0  0  0  0  0  0  0  0  0
   12.8635   52.2855   85.3535 C   0  0  0  0  0  0  0  0  0  0  0  0
   13.0021   51.5036   84.1993 C   0  0  0  0  0  0  0  0  0  0  0  0
   14.9396   53.3825   84.8721 C   0  0  0  0  0  0  0  0  0  0  0  0
   15.0789   52.6056   83.7233 C   0  0  0  0  0  0  0  0  0  0  0  0
   14.1178   51.6675   83.3712 C   0  0  0  0  0  0  0  0  0  0  0  0
   14.2954   50.9473   82.2565 C   0  0  0  0  0  0  0  0  0  0  0  0
   13.4377   49.9808   81.8115 O   0  0  0  0  0  0  0  0  0  0  0  0
   13.9608   49.4870   80.6743 C   0  0  0  0  0  0  0  0  0  0  0  0
   15.1064   50.1339   80.4400 N   0  0  0  0  0  0  0  0  0  0  0  0
   15.3172   51.0337   81.4125 C   0  0  0  0  0  0  0  0  0  0  0  0
 29 28  2  0  0  0
 29 30  1  0  0  0
 28 27  1  0  0  0
 30 26  2  0  0  0
 27 26  1  0  0  0
 26 25  1  0  0  0
 25 22  2  0  0  0
 25 24  1  0  0  0
 22 21  1  0  0  0
 24 23  2  0  0  0
 21 20  2  0  0  0
 23 20  1  0  0  0
 20 19  1  0  0  0
 19  3  1  0  0  0
  3  1  1  0  0  0
 11 12  1  0  0  0
 11  9  1  0  0  0
  1  2  2  0  0  0
  1 12  1  0  0  0
 12  7  1  0  0  0
  9 10  1  0  0  0
  9  8  1  0  0  0
  7  8  1  0  0  0
  7  5  1  0  0  0
  6  5  2  0  0  0
  5 14  1  0  0  0
 18 16  1  0  0  0
 14 16  1  0  0  0
 16 17  1  0  0  0
 16 15  1  0  0  0
 10 13  1  0  0  0
  3  4  1  0  0  0
M  END
> <minimizedAffinity>
-6.64774

$$$$
4W9C_3JG_C_301


 30 32  0  0  0  0  0  0  0  0999 V2000
   10.9604   50.4573   89.4084 C   0  0  0  0  0  0  0  0  0  0  0  0
    9.7398   50.4196   89.4825 O   0  0  0  0  0  0  0  0  0  0  0  0
   11.6424   50.5253   88.2281 N   0  0  0  0  0  0  0  0  0  0  0  0
   12.6264   50.5502   88.2468 H   0  0  0  0  0  0  0  0  0  0  0  0
   12.2064   52.7751   91.0625 C   0  0  0  0  0  0  0  0  0  0  0  0
   12.7466   52.9170   89.9610 O   0  0  0  0  0  0  0  0  0  0  0  0
   11.6637   51.5862   91.4658 N   0  0  0  0  0  0  0  0  0  0  0  0
   11.0361   51.1922   92.7647 C   0  0  0  0  0  0  0  0  0  0  0  0
   11.3080   49.6926   92.8857 C   0  0  0  0  0  0  0  0  0  0  0  0
   12.6363   49.4650   93.3860 O   0  0  0  0  0  0  0  0  0  0  0  0
   11.1803   49.2072   91.4561 C   0  0  0  0  0  0  0  0  0  0  0  0
   11.7270   50.3630   90.5795 C   0  0  0  0  0  0  0  0  0  0  0  0
   13.2795   49.9024   92.8065 H   0  0  0  0  0  0  0  0  0  0  0  0
   12.2170   53.9779   92.0680 C   0  0  0  0  0  0  0  0  0  0  0  0
   13.4266   54.8764   93.9836 C   0  0  0  0  0  0  0  0  0  0  0  0
   13.5984   54.1135   92.6676 C   0  0  0  0  0  0  0  0  0  0  0  0
   14.1892   52.7220   93.0267 C   0  0  0  0  0  0  0  0  0  0  0  0
   14.5468   54.8690   91.7149 C   0  0  0  0  0  0  0  0  0  0  0  0
   10.9536   50.5623   86.9289 C   0  0  0  0  0  0  0  0  0  0  0  0
   11.9086   50.7523   85.8810 C   0  0  0  0  0  0  0  0  0  0  0  0
   12.4800   52.0217   85.6970 C   0  0  0  0  0  0  0  0  0  0  0  0
   13.4061   52.2651   84.6743 C   0  0  0  0  0  0  0  0  0  0  0  0
   12.2955   49.7358   85.0000 C   0  0  0  0  0  0  0  0  0  0  0  0
   13.2169   49.9761   83.9821 C   0  0  0  0  0  0  0  0  0  0  0  0
   13.7840   51.2317   83.8101 C   0  0  0  0  0  0  0  0  0  0  0  0
   14.6665   51.4121   82.8195 C   0  0  0  0  0  0  0  0  0  0  0  0
   14.4655   51.0337   81.5218 O   0  0  0  0  0  0  0  0  0  0  0  0
   15.5725   51.3768   80.8381 C   0  0  0  0  0  0  0  0  0  0  0  0
   16.4223   51.9434   81.6997 N   0  0  0  0  0  0  0  0  0  0  0  0
   15.8690   51.9665   82.9217 C   0  0  0  0  0  0  0  0  0  0  0  0
 29 28  2  0  0  0
 29 30  1  0  0  0
 28 27  1  0  0  0
 30 26  2  0  0  0
 27 26  1  0  0  0
 26 25  1  0  0  0
 25 22  2  0  0  0
 25 24  1  0  0  0
 22 21  1  0  0  0
 24 23  2  0  0  0
 21 20  2  0  0  0
 23 20  1  0  0  0
 20 19  1  0  0  0
 19  3  1  0  0  0
  3  1  1  0  0  0
 11 12  1  0  0  0
 11  9  1  0  0  0
  1  2  2  0  0  0
  1 12  1  0  0  0
 12  7  1  0  0  0
  9 10  1  0  0  0
  9  8  1  0  0  0
  7  8  1  0  0  0
  7  5  1  0  0  0
  6  5  2  0  0  0
  5 14  1  0  0  0
 18 16  1  0  0  0
 14 16  1  0  0  0
 16 17  1  0  0  0
 16 15  1  0  0  0
 10 13  1  0  0  0
  3  4  1  0  0  0
M  END
> <minimizedAffinity>
-6.60987

$$$$
4W9C_3JG_C_301


 30 32  0  0  0  0  0  0  0  0999 V2000
   11.7582   51.6220   89.7113 C   0  0  0  0  0  0  0  0  0  0  0  0
   10.7259   50.9674   89.6617 O   0  0  0  0  0  0  0  0  0  0  0  0
   12.1677   52.4609   88.7156 N   0  0  0  0  0  0  0  0  0  0  0  0
   13.0125   52.9543   88.8252 H   0  0  0  0  0  0  0  0  0  0  0  0
   11.9861   53.4521   92.2132 C   0  0  0  0  0  0  0  0  0  0  0  0
   12.2613   54.2282   91.2927 O   0  0  0  0  0  0  0  0  0  0  0  0
   12.1063   52.0953   92.0897 N   0  0  0  0  0  0  0  0  0  0  0  0
   11.8945   51.0032   93.0891 C   0  0  0  0  0  0  0  0  0  0  0  0
   12.8397   49.8861   92.6463 C   0  0  0  0  0  0  0  0  0  0  0  0
   14.1730   50.1446   93.1173 O   0  0  0  0  0  0  0  0  0  0  0  0
   12.7773   49.9666   91.1346 C   0  0  0  0  0  0  0  0  0  0  0  0
   12.6181   51.4741   90.8098 C   0  0  0  0  0  0  0  0  0  0  0  0
   14.4661   51.0124   92.7982 H   0  0  0  0  0  0  0  0  0  0  0  0
   11.5631   54.0476   93.6005 C   0  0  0  0  0  0  0  0  0  0  0  0
   12.3901   55.7833   95.0983 C   0  0  0  0  0  0  0  0  0  0  0  0
   12.7967   54.5190   94.3369 C   0  0  0  0  0  0  0  0  0  0  0  0
   13.2440   53.4770   95.3990 C   0  0  0  0  0  0  0  0  0  0  0  0
   13.9502   54.8153   93.3574 C   0  0  0  0  0  0  0  0  0  0  0  0
   11.3865   52.6510   87.4838 C   0  0  0  0  0  0  0  0  0  0  0  0
   12.2171   52.4140   86.3435 C   0  0  0  0  0  0  0  0  0  0  0  0
   12.0352   51.2393   85.5961 C   0  0  0  0  0  0  0  0  0  0  0  0
   12.8341   50.9510   84.4819 C   0  0  0  0  0  0  0  0  0  0  0  0
   13.2318   53.2880   85.9367 C   0  0  0  0  0  0  0  0  0  0  0  0
   14.0273   53.0028   84.8282 C   0  0  0  0  0  0  0  0  0  0  0  0
   13.8375   51.8432   84.0888 C   0  0  0  0  0  0  0  0  0  0  0  0
   14.6254   51.6151   83.0305 C   0  0  0  0  0  0  0  0  0  0  0  0
   14.2332   50.9603   81.8969 O   0  0  0  0  0  0  0  0  0  0  0  0
   15.2986   50.9269   81.0758 C   0  0  0  0  0  0  0  0  0  0  0  0
   16.3097   51.5408   81.6976 N   0  0  0  0  0  0  0  0  0  0  0  0
   15.9000   51.9655   82.9024 C   0  0  0  0  0  0  0  0  0  0  0  0
 29 28  2  0  0  0
 29 30  1  0  0  0
 28 27  1  0  0  0
 30 26  2  0  0  0
 27 26  1  0  0  0
 26 25  1  0  0  0
 25 22  2  0  0  0
 25 24  1  0  0  0
 22 21  1  0  0  0
 24 23  2  0  0  0
 21 20  2  0  0  0
 23 20  1  0  0  0
 20 19  1  0  0  0
 19  3  1  0  0  0
  3  1  1  0  0  0
 11 12  1  0  0  0
 11  9  1  0  0  0
  1  2  2  0  0  0
  1 12  1  0  0  0
 12  7  1  0  0  0
  9 10  1  0  0  0
  9  8  1  0  0  0
  7  8  1  0  0  0
  7  5  1  0  0  0
  6  5  2  0  0  0
  5 14  1  0  0  0
 18 16  1  0  0  0
 14 16  1  0  0  0
 16 17  1  0  0  0
 16 15  1  0  0  0
 10 13  1  0  0  0
  3  4  1  0  0  0
M  END
> <minimizedAffinity>
-6.43966

$$$$
4W9C_3JG_C_301


 30 32  0  0  0  0  0  0  0  0999 V2000
   10.0714   51.7330   84.3856 C   0  0  0  0  0  0  0  0  0  0  0  0
    9.5168   50.6489   84.5033 O   0  0  0  0  0  0  0  0  0  0  0  0
   10.0588   52.6954   85.3534 N   0  0  0  0  0  0  0  0  0  0  0  0
   10.5263   53.5456   85.1863 H   0  0  0  0  0  0  0  0  0  0  0  0
   13.0985   51.5265   83.7113 C   0  0  0  0  0  0  0  0  0  0  0  0
   13.0925   52.3208   84.6570 O   0  0  0  0  0  0  0  0  0  0  0  0
   11.9965   51.3050   82.9322 N   0  0  0  0  0  0  0  0  0  0  0  0
   11.8174   50.4512   81.7175 C   0  0  0  0  0  0  0  0  0  0  0  0
   10.7162   51.1460   80.9162 C   0  0  0  0  0  0  0  0  0  0  0  0
   11.2655   52.2310   80.1499 O   0  0  0  0  0  0  0  0  0  0  0  0
    9.7863   51.6642   81.9942 C   0  0  0  0  0  0  0  0  0  0  0  0
   10.7076   52.0562   83.1778 C   0  0  0  0  0  0  0  0  0  0  0  0
   11.7227   52.8471   80.7435 H   0  0  0  0  0  0  0  0  0  0  0  0
   14.4412   50.8080   83.3387 C   0  0  0  0  0  0  0  0  0  0  0  0
   15.4879   52.9689   83.7572 C   0  0  0  0  0  0  0  0  0  0  0  0
   15.4002   51.8185   82.7510 C   0  0  0  0  0  0  0  0  0  0  0  0
   16.8290   51.2218   82.6224 C   0  0  0  0  0  0  0  0  0  0  0  0
   14.9050   52.3241   81.3810 C   0  0  0  0  0  0  0  0  0  0  0  0
    9.3689   52.5024   86.6380 C   0  0  0  0  0  0  0  0  0  0  0  0
   10.2471   52.8440   87.7142 C   0  0  0  0  0  0  0  0  0  0  0  0
    9.7326   53.5280   88.8274 C   0  0  0  0  0  0  0  0  0  0  0  0
   10.5536   53.9017   89.8992 C   0  0  0  0  0  0  0  0  0  0  0  0
   11.6160   52.5515   87.7118 C   0  0  0  0  0  0  0  0  0  0  0  0
   12.4342   52.9223   88.7775 C   0  0  0  0  0  0  0  0  0  0  0  0
   11.9178   53.5918   89.8787 C   0  0  0  0  0  0  0  0  0  0  0  0
   12.7437   53.9243   90.8787 C   0  0  0  0  0  0  0  0  0  0  0  0
   14.0717   54.2093   90.7271 O   0  0  0  0  0  0  0  0  0  0  0  0
   14.5544   54.4880   91.9518 C   0  0  0  0  0  0  0  0  0  0  0  0
   13.5469   54.3704   92.8217 N   0  0  0  0  0  0  0  0  0  0  0  0
   12.4297   54.0223   92.1655 C   0  0  0  0  0  0  0  0  0  0  0  0
 29 28  2  0  0  0
 29 30  1  0  0  0
 28 27  1  0  0  0
 30 26  2  0  0  0
 27 26  1  0  0  0
 26 25  1  0  0  0
 25 22  2  0  0  0
 25 24  1  0  0  0
 22 21  1  0  0  0
 24 23  2  0  0  0
 21 20  2  0  0  0
 23 20  1  0  0  0
 20 19  1  0  0  0
 19  3  1  0  0  0
  3  1  1  0  0  0
 11 12  1  0  0  0
 11  9  1  0  0  0
  1  2  2  0  0  0
  1 12  1  0  0  0
 12  7  1  0  0  0
  9 10  1  0  0  0
  9  8  1  0  0  0
  7  8  1  0  0  0
  7  5  1  0  0  0
  6  5  2  0  0  0
  5 14  1  0  0  0
 18 16  1  0  0  0
 14 16  1  0  0  0
 16 17  1  0  0  0
 16 15  1  0  0  0
 10 13  1  0  0  0
  3  4  1  0  0  0
M  END
> <minimizedAffinity>
-6.42082

$$$$
4W9C_3JG_C_301


 30 32  0  0  0  0  0  0  0  0999 V2000
   12.2960   52.3074   91.0150 C   0  0  0  0  0  0  0  0  0  0  0  0
   11.1310   52.2735   91.3867 O   0  0  0  0  0  0  0  0  0  0  0  0
   12.6757   52.6774   89.7572 N   0  0  0  0  0  0  0  0  0  0  0  0
   13.6334   52.6784   89.5293 H   0  0  0  0  0  0  0  0  0  0  0  0
   13.5967   53.9115   93.3379 C   0  0  0  0  0  0  0  0  0  0  0  0
   13.8544   54.6140   92.3554 O   0  0  0  0  0  0  0  0  0  0  0  0
   13.3043   52.5797   93.2311 N   0  0  0  0  0  0  0  0  0  0  0  0
   13.0364   51.5531   94.2850 C   0  0  0  0  0  0  0  0  0  0  0  0
   13.5054   50.2351   93.6683 C   0  0  0  0  0  0  0  0  0  0  0  0
   14.9296   50.0979   93.8073 O   0  0  0  0  0  0  0  0  0  0  0  0
   13.1183   50.3845   92.2111 C   0  0  0  0  0  0  0  0  0  0  0  0
   13.3120   51.8880   91.8867 C   0  0  0  0  0  0  0  0  0  0  0  0
   15.3691   50.8619   93.4024 H   0  0  0  0  0  0  0  0  0  0  0  0
   13.6897   54.5500   94.7667 C   0  0  0  0  0  0  0  0  0  0  0  0
   12.0687   54.5016   96.5861 C   0  0  0  0  0  0  0  0  0  0  0  0
   12.3231   55.0486   95.1792 C   0  0  0  0  0  0  0  0  0  0  0  0
   12.3046   56.5985   95.2876 C   0  0  0  0  0  0  0  0  0  0  0  0
   11.2355   54.5667   94.1979 C   0  0  0  0  0  0  0  0  0  0  0  0
   11.6990   53.0746   88.7316 C   0  0  0  0  0  0  0  0  0  0  0  0
   12.1707   52.6850   87.4386 C   0  0  0  0  0  0  0  0  0  0  0  0
   11.8339   51.4161   86.9403 C   0  0  0  0  0  0  0  0  0  0  0  0
   12.2854   50.9792   85.6881 C   0  0  0  0  0  0  0  0  0  0  0  0
   12.9805   53.4993   86.6382 C   0  0  0  0  0  0  0  0  0  0  0  0
   13.4302   53.0662   85.3920 C   0  0  0  0  0  0  0  0  0  0  0  0
   13.0874   51.8133   84.9017 C   0  0  0  0  0  0  0  0  0  0  0  0
   13.5419   51.4439   83.6978 C   0  0  0  0  0  0  0  0  0  0  0  0
   12.7480   51.1310   82.6303 O   0  0  0  0  0  0  0  0  0  0  0  0
   13.5683   50.8072   81.6141 C   0  0  0  0  0  0  0  0  0  0  0  0
   14.8247   50.9167   82.0559 N   0  0  0  0  0  0  0  0  0  0  0  0
   14.8135   51.3076   83.3392 C   0  0  0  0  0  0  0  0  0  0  0  0
 29 28  2  0  0  0
 29 30  1  0  0  0
 28 27  1  0  0  0
 30 26  2  0  0  0
 27 26  1  0  0  0
 26 25  1  0  0  0
 25 22  2  0  0  0
 25 24  1  0  0  0
 22 21  1  0  0  0
 24 23  2  0  0  0
 21 20  2  0  0  0
 23 20  1  0  0  0
 20 19  1  0  0  0
 19  3  1  0  0  0
  3  1  1  0  0  0
 11 12  1  0  0  0
 11  9  1  0  0  0
  1  2  2  0  0  0
  1 12  1  0  0  0
 12  7  1  0  0  0
  9 10  1  0  0  0
  9  8  1  0  0  0
  7  8  1  0  0  0
  7  5  1  0  0  0
  6  5  2  0  0  0
  5 14  1  0  0  0
 18 16  1  0  0  0
 14 16  1  0  0  0
 16 17  1  0  0  0
 16 15  1  0  0  0
 10 13  1  0  0  0
  3  4  1  0  0  0
M  END
> <minimizedAffinity>
-6.34032

$$$$
4W9C_3JG_C_301


 30 32  0  0  0  0  0  0  0  0999 V2000
   11.7033   53.0549   89.5462 C   0  0  0  0  0  0  0  0  0  0  0  0
   11.8110   51.8849   89.8872 O   0  0  0  0  0  0  0  0  0  0  0  0
   11.1500   53.4472   88.3617 N   0  0  0  0  0  0  0  0  0  0  0  0
   11.0993   54.4082   88.1544 H   0  0  0  0  0  0  0  0  0  0  0  0
   10.8173   53.8166   92.4264 C   0  0  0  0  0  0  0  0  0  0  0  0
    9.7839   53.9998   91.7753 O   0  0  0  0  0  0  0  0  0  0  0  0
   12.0572   53.8123   91.8490 N   0  0  0  0  0  0  0  0  0  0  0  0
   13.4160   53.6800   92.4593 C   0  0  0  0  0  0  0  0  0  0  0  0
   14.3389   54.4551   91.5186 C   0  0  0  0  0  0  0  0  0  0  0  0
   14.2773   55.8621   91.8065 O   0  0  0  0  0  0  0  0  0  0  0  0
   13.7574   54.1590   90.1512 C   0  0  0  0  0  0  0  0  0  0  0  0
   12.2253   54.0650   90.3679 C   0  0  0  0  0  0  0  0  0  0  0  0
   13.3584   56.1657   91.7409 H   0  0  0  0  0  0  0  0  0  0  0  0
   10.7109   53.6665   93.9833 C   0  0  0  0  0  0  0  0  0  0  0  0
    9.2284   52.0918   95.1069 C   0  0  0  0  0  0  0  0  0  0  0  0
   10.5440   52.2048   94.3324 C   0  0  0  0  0  0  0  0  0  0  0  0
   10.3886   51.3400   93.0509 C   0  0  0  0  0  0  0  0  0  0  0  0
   11.7265   51.6970   95.1818 C   0  0  0  0  0  0  0  0  0  0  0  0
   10.6272   52.4793   87.3853 C   0  0  0  0  0  0  0  0  0  0  0  0
   11.5934   52.2651   86.3524 C   0  0  0  0  0  0  0  0  0  0  0  0
   11.5352   51.0848   85.5941 C   0  0  0  0  0  0  0  0  0  0  0  0
   12.4682   50.8185   84.5836 C   0  0  0  0  0  0  0  0  0  0  0  0
   12.6237   53.1678   86.0645 C   0  0  0  0  0  0  0  0  0  0  0  0
   13.5527   52.9045   85.0593 C   0  0  0  0  0  0  0  0  0  0  0  0
   13.4851   51.7390   84.3079 C   0  0  0  0  0  0  0  0  0  0  0  0
   14.3991   51.5327   83.3514 C   0  0  0  0  0  0  0  0  0  0  0  0
   14.2477   50.6645   82.3068 O   0  0  0  0  0  0  0  0  0  0  0  0
   15.3734   50.7351   81.5731 C   0  0  0  0  0  0  0  0  0  0  0  0
   16.1859   51.6187   82.1603 N   0  0  0  0  0  0  0  0  0  0  0  0
   15.5905   52.1118   83.2567 C   0  0  0  0  0  0  0  0  0  0  0  0
 29 28  2  0  0  0
 29 30  1  0  0  0
 28 27  1  0  0  0
 30 26  2  0  0  0
 27 26  1  0  0  0
 26 25  1  0  0  0
 25 22  2  0  0  0
 25 24  1  0  0  0
 22 21  1  0  0  0
 24 23  2  0  0  0
 21 20  2  0  0  0
 23 20  1  0  0  0
 20 19  1  0  0  0
 19  3  1  0  0  0
  3  1  1  0  0  0
 11 12  1  0  0  0
 11  9  1  0  0  0
  1  2  2  0  0  0
  1 12  1  0  0  0
 12  7  1  0  0  0
  9 10  1  0  0  0
  9  8  1  0  0  0
  7  8  1  0  0  0
  7  5  1  0  0  0
  6  5  2  0  0  0
  5 14  1  0  0  0
 18 16  1  0  0  0
 14 16  1  0  0  0
 16 17  1  0  0  0
 16 15  1  0  0  0
 10 13  1  0  0  0
  3  4  1  0  0  0
M  END
> <minimizedAffinity>
-6.16873

$$$$
4W9C_3JG_C_301


 30 32  0  0  0  0  0  0  0  0999 V2000
    8.4210   51.1426   85.8664 C   0  0  0  0  0  0  0  0  0  0  0  0
    8.3399   50.0043   86.3074 O   0  0  0  0  0  0  0  0  0  0  0  0
    8.4611   52.2558   86.6551 N   0  0  0  0  0  0  0  0  0  0  0  0
    8.5246   53.1406   86.2281 H   0  0  0  0  0  0  0  0  0  0  0  0
   10.7744   52.0640   84.0572 C   0  0  0  0  0  0  0  0  0  0  0  0
   10.6563   53.0122   84.8396 O   0  0  0  0  0  0  0  0  0  0  0  0
    9.7572   51.1828   83.8134 N   0  0  0  0  0  0  0  0  0  0  0  0
    9.6739   50.0283   82.8665 C   0  0  0  0  0  0  0  0  0  0  0  0
    8.1907   49.9282   82.5094 C   0  0  0  0  0  0  0  0  0  0  0  0
    7.8598   50.8767   81.4812 O   0  0  0  0  0  0  0  0  0  0  0  0
    7.5025   50.2830   83.8116 C   0  0  0  0  0  0  0  0  0  0  0  0
    8.4097   51.3484   84.4787 C   0  0  0  0  0  0  0  0  0  0  0  0
    8.1003   51.7692   81.7752 H   0  0  0  0  0  0  0  0  0  0  0  0
   12.1108   51.9134   83.2513 C   0  0  0  0  0  0  0  0  0  0  0  0
   14.3788   51.0263   83.3455 C   0  0  0  0  0  0  0  0  0  0  0  0
   13.2301   51.5608   84.2047 C   0  0  0  0  0  0  0  0  0  0  0  0
   13.7621   52.8265   84.9322 C   0  0  0  0  0  0  0  0  0  0  0  0
   12.7745   50.5041   85.2311 C   0  0  0  0  0  0  0  0  0  0  0  0
    8.4123   52.1752   88.1230 C   0  0  0  0  0  0  0  0  0  0  0  0
    9.6502   52.6343   88.6735 C   0  0  0  0  0  0  0  0  0  0  0  0
    9.6393   53.6968   89.5916 C   0  0  0  0  0  0  0  0  0  0  0  0
   10.8252   54.1959   90.1458 C   0  0  0  0  0  0  0  0  0  0  0  0
   10.8934   52.0924   88.3272 C   0  0  0  0  0  0  0  0  0  0  0  0
   12.0742   52.5876   88.8780 C   0  0  0  0  0  0  0  0  0  0  0  0
   12.0561   53.6334   89.7910 C   0  0  0  0  0  0  0  0  0  0  0  0
   13.2167   54.0723   90.2942 C   0  0  0  0  0  0  0  0  0  0  0  0
   14.2354   54.5996   89.5513 O   0  0  0  0  0  0  0  0  0  0  0  0
   15.2229   54.9146   90.4093 C   0  0  0  0  0  0  0  0  0  0  0  0
   14.8147   54.5827   91.6377 N   0  0  0  0  0  0  0  0  0  0  0  0
   13.5798   54.0625   91.5717 C   0  0  0  0  0  0  0  0  0  0  0  0
 29 28  2  0  0  0
 29 30  1  0  0  0
 28 27  1  0  0  0
 30 26  2  0  0  0
 27 26  1  0  0  0
 26 25  1  0  0  0
 25 22  2  0  0  0
 25 24  1  0  0  0
 22 21  1  0  0  0
 24 23  2  0  0  0
 21 20  2  0  0  0
 23 20  1  0  0  0
 20 19  1  0  0  0
 19  3  1  0  0  0
  3  1  1  0  0  0
 11 12  1  0  0  0
 11  9  1  0  0  0
  1  2  2  0  0  0
  1 12  1  0  0  0
 12  7  1  0  0  0
  9 10  1  0  0  0
  9  8  1  0  0  0
  7  8  1  0  0  0
  7  5  1  0  0  0
  6  5  2  0  0  0
  5 14  1  0  0  0
 18 16  1  0  0  0
 14 16  1  0  0  0
 16 17  1  0  0  0
 16 15  1  0  0  0
 10 13  1  0  0  0
  3  4  1  0  0  0
M  END
> <minimizedAffinity>
-5.98849

$$$$
4W9C_3JG_C_301


 30 32  0  0  0  0  0  0  0  0999 V2000
   12.0721   53.2198   91.4414 C   0  0  0  0  0  0  0  0  0  0  0  0
   11.9138   52.1892   92.0813 O   0  0  0  0  0  0  0  0  0  0  0  0
   13.0796   54.1088   91.6809 N   0  0  0  0  0  0  0  0  0  0  0  0
   13.1426   54.9191   91.1253 H   0  0  0  0  0  0  0  0  0  0  0  0
   12.2129   52.5700   88.4051 C   0  0  0  0  0  0  0  0  0  0  0  0
   13.2353   53.2406   88.5791 O   0  0  0  0  0  0  0  0  0  0  0  0
   11.1412   52.6329   89.2526 N   0  0  0  0  0  0  0  0  0  0  0  0
    9.8040   51.9669   89.1838 C   0  0  0  0  0  0  0  0  0  0  0  0
    8.8564   52.9285   89.9014 C   0  0  0  0  0  0  0  0  0  0  0  0
    8.4476   53.9821   89.0130 O   0  0  0  0  0  0  0  0  0  0  0  0
    9.7126   53.4739   91.0261 C   0  0  0  0  0  0  0  0  0  0  0  0
   11.1468   53.5631   90.4444 C   0  0  0  0  0  0  0  0  0  0  0  0
    9.2319   54.4380   88.6696 H   0  0  0  0  0  0  0  0  0  0  0  0
   12.1063   51.6770   87.1210 C   0  0  0  0  0  0  0  0  0  0  0  0
   12.1607   51.6339   84.6848 C   0  0  0  0  0  0  0  0  0  0  0  0
   12.0836   52.5650   85.8974 C   0  0  0  0  0  0  0  0  0  0  0  0
   10.7374   53.3334   85.7913 C   0  0  0  0  0  0  0  0  0  0  0  0
   13.2665   53.5543   85.9059 C   0  0  0  0  0  0  0  0  0  0  0  0
   14.0744   53.8946   92.7430 C   0  0  0  0  0  0  0  0  0  0  0  0
   13.5177   54.2637   94.0080 C   0  0  0  0  0  0  0  0  0  0  0  0
   13.5762   53.3521   95.0743 C   0  0  0  0  0  0  0  0  0  0  0  0
   13.0299   53.6574   96.3277 C   0  0  0  0  0  0  0  0  0  0  0  0
   12.8878   55.4917   94.2416 C   0  0  0  0  0  0  0  0  0  0  0  0
   12.3441   55.7972   95.4881 C   0  0  0  0  0  0  0  0  0  0  0  0
   12.4118   54.8944   96.5407 C   0  0  0  0  0  0  0  0  0  0  0  0
   11.8771   55.2351   97.7200 C   0  0  0  0  0  0  0  0  0  0  0  0
   11.1682   56.3807   97.9493 O   0  0  0  0  0  0  0  0  0  0  0  0
   10.8069   56.3645   99.2454 C   0  0  0  0  0  0  0  0  0  0  0  0
   11.2882   55.2417   99.7869 N   0  0  0  0  0  0  0  0  0  0  0  0
   11.9491   54.5432   98.8514 C   0  0  0  0  0  0  0  0  0  0  0  0
 29 28  2  0  0  0
 29 30  1  0  0  0
 28 27  1  0  0  0
 30 26  2  0  0  0
 27 26  1  0  0  0
 26 25  1  0  0  0
 25 22  2  0  0  0
 25 24  1  0  0  0
 22 21  1  0  0  0
 24 23  2  0  0  0
 21 20  2  0  0  0
 23 20  1  0  0  0
 20 19  1  0  0  0
 19  3  1  0  0  0
  3  1  1  0  0  0
 11 12  1  0  0  0
 11  9  1  0  0  0
  1  2  2  0  0  0
  1 12  1  0  0  0
 12  7  1  0  0  0
  9 10  1  0  0  0
  9  8  1  0  0  0
  7  8  1  0  0  0
  7  5  1  0  0  0
  6  5  2  0  0  0
  5 14  1  0  0  0
 18 16  1  0  0  0
 14 16  1  0  0  0
 16 17  1  0  0  0
 16 15  1  0  0  0
 10 13  1  0  0  0
  3  4  1  0  0  0
M  END
> <minimizedAffinity>
-5.97149

$$$$
4W9C_3JG_C_301


 30 32  0  0  0  0  0  0  0  0999 V2000
   13.4879   53.4483   92.1009 C   0  0  0  0  0  0  0  0  0  0  0  0
   14.6974   53.3892   92.2746 O   0  0  0  0  0  0  0  0  0  0  0  0
   12.9105   54.0254   91.0070 N   0  0  0  0  0  0  0  0  0  0  0  0
   11.9286   54.0374   90.9368 H   0  0  0  0  0  0  0  0  0  0  0  0
   12.4549   54.9370   94.6262 C   0  0  0  0  0  0  0  0  0  0  0  0
   13.6778   54.9421   94.7987 O   0  0  0  0  0  0  0  0  0  0  0  0
   11.8328   54.0330   93.8099 N   0  0  0  0  0  0  0  0  0  0  0  0
   10.3812   53.8161   93.5234 C   0  0  0  0  0  0  0  0  0  0  0  0
   10.2710   52.3274   93.1931 C   0  0  0  0  0  0  0  0  0  0  0  0
   10.2133   51.5510   94.4015 O   0  0  0  0  0  0  0  0  0  0  0  0
   11.5539   52.0511   92.4359 C   0  0  0  0  0  0  0  0  0  0  0  0
   12.6228   52.9620   93.0924 C   0  0  0  0  0  0  0  0  0  0  0  0
   10.9925   51.7426   94.9464 H   0  0  0  0  0  0  0  0  0  0  0  0
   11.5748   55.9503   95.4367 C   0  0  0  0  0  0  0  0  0  0  0  0
   11.1793   56.5187   97.7734 C   0  0  0  0  0  0  0  0  0  0  0  0
   11.2400   55.3519   96.7843 C   0  0  0  0  0  0  0  0  0  0  0  0
    9.8300   54.6993   96.7695 C   0  0  0  0  0  0  0  0  0  0  0  0
   12.3032   54.3216   97.2153 C   0  0  0  0  0  0  0  0  0  0  0  0
   13.7091   54.6299   89.9298 C   0  0  0  0  0  0  0  0  0  0  0  0
   13.3830   54.0121   88.6815 C   0  0  0  0  0  0  0  0  0  0  0  0
   14.0969   54.3779   87.5290 C   0  0  0  0  0  0  0  0  0  0  0  0
   13.8046   53.8163   86.2793 C   0  0  0  0  0  0  0  0  0  0  0  0
   12.3618   53.0659   88.5358 C   0  0  0  0  0  0  0  0  0  0  0  0
   12.0699   52.5060   87.2932 C   0  0  0  0  0  0  0  0  0  0  0  0
   12.7846   52.8663   86.1587 C   0  0  0  0  0  0  0  0  0  0  0  0
   12.4684   52.2985   84.9881 C   0  0  0  0  0  0  0  0  0  0  0  0
   13.3492   51.6266   84.1877 O   0  0  0  0  0  0  0  0  0  0  0  0
   12.6602   51.2132   83.1084 C   0  0  0  0  0  0  0  0  0  0  0  0
   11.3976   51.6276   83.2496 N   0  0  0  0  0  0  0  0  0  0  0  0
   11.2749   52.2975   84.4055 C   0  0  0  0  0  0  0  0  0  0  0  0
 29 28  2  0  0  0
 29 30  1  0  0  0
 28 27  1  0  0  0
 30 26  2  0  0  0
 27 26  1  0  0  0
 26 25  1  0  0  0
 25 22  2  0  0  0
 25 24  1  0  0  0
 22 21  1  0  0  0
 24 23  2  0  0  0
 21 20  2  0  0  0
 23 20  1  0  0  0
 20 19  1  0  0  0
 19  3  1  0  0  0
  3  1  1  0  0  0
 11 12  1  0  0  0
 11  9  1  0  0  0
  1  2  2  0  0  0
  1 12  1  0  0  0
 12  7  1  0  0  0
  9 10  1  0  0  0
  9  8  1  0  0  0
  7  8  1  0  0  0
  7  5  1  0  0  0
  6  5  2  0  0  0
  5 14  1  0  0  0
 18 16  1  0  0  0
 14 16  1  0  0  0
 16 17  1  0  0  0
 16 15  1  0  0  0
 10 13  1  0  0  0
  3  4  1  0  0  0
M  END
> <minimizedAffinity>
-5.91545

$$$$
