5D3P_57E_A_201


 29 31  0  0  0  0  0  0  0  0999 V2000
   -6.0526    8.7731    1.2504 C   0  0  0  0  0  0  0  0  0  0  0  0
   -5.6376    9.1358    2.5517 C   0  0  0  0  0  0  0  0  0  0  0  0
   -4.5900   10.0584    2.7126 C   0  0  0  0  0  0  0  0  0  0  0  0
   -3.9630   10.5690    1.5720 C   0  0  0  0  0  0  0  0  0  0  0  0
   -4.3695   10.1902    0.2804 C   0  0  0  0  0  0  0  0  0  0  0  0
   -6.0149    8.7423   -1.1203 C   0  0  0  0  0  0  0  0  0  0  0  0
   -7.8124    7.2033    1.7109 C   0  0  0  0  0  0  0  0  0  0  0  0
   -7.0438    7.8629    0.8368 N   0  0  0  0  0  0  0  0  0  0  0  0
   -7.4361    6.9877    2.8642 O   0  0  0  0  0  0  0  0  0  0  0  0
   -6.9770    7.6592   -0.6154 C   0  0  0  0  0  0  0  0  0  0  0  0
   -5.4233    9.2914    0.1497 C   0  0  0  0  0  0  0  0  0  0  0  0
  -10.2807    7.2661    0.6848 C   0  0  0  0  0  0  0  0  0  0  0  0
  -11.3210    6.3457    0.8352 C   0  0  0  0  0  0  0  0  0  0  0  0
  -10.8487    5.2232    1.6819 C   0  0  0  0  0  0  0  0  0  0  0  0
   -9.1720    6.6415    1.4600 C   0  0  0  0  0  0  0  0  0  0  0  0
  -11.5963    3.9909    2.1123 C   0  0  0  0  0  0  0  0  0  0  0  0
   -9.5816    5.4857    1.9977 N   0  0  0  0  0  0  0  0  0  0  0  0
   -9.0174    4.9033    2.5560 H   0  0  0  0  0  0  0  0  0  0  0  0
  -12.7230    6.4102    0.3252 C   0  0  0  0  0  0  0  0  0  0  0  0
  -13.1979    5.4805   -0.3009 O   0  0  0  0  0  0  0  0  0  0  0  0
  -13.5781    7.5881    0.6884 C   0  0  0  0  0  0  0  0  0  0  0  0
  -10.3936    8.2993   -1.5517 C   0  0  0  0  0  0  0  0  0  0  0  0
  -10.2852    8.5701   -0.0689 C   0  0  0  0  0  0  0  0  0  0  0  0
   -4.1134   10.4942    4.1991 S   0  0  0  0  0  0  0  0  0  0  0  0
   -5.1029   11.3105    4.8144 O   0  0  0  0  0  0  0  0  0  0  0  0
   -2.8419   11.1917    4.1331 O   0  0  0  0  0  0  0  0  0  0  0  0
   -2.7135    8.3679    4.9692 C   0  0  0  0  0  0  0  0  0  0  0  0
   -3.9194    9.1724    5.0737 N   0  0  0  0  0  0  0  0  0  0  0  0
   -4.6984    8.5561    4.8421 H   0  0  0  0  0  0  0  0  0  0  0  0
  6 10  2  0  0  0
  6 11  1  0  0  0
 22 23  1  0  0  0
 10  8  1  0  0  0
  5 11  2  0  0  0
  5  4  1  0  0  0
 11  1  1  0  0  0
 23 12  1  0  0  0
  4  3  2  0  0  0
  8  1  1  0  0  0
  8  7  1  0  0  0
  1  2  2  0  0  0
 21 19  1  0  0  0
 12 13  1  0  0  0
 12 15  2  0  0  0
 20 19  2  0  0  0
 19 13  1  0  0  0
 13 14  2  0  0  0
  7 15  1  0  0  0
  7  9  2  0  0  0
 15 17  1  0  0  0
  3  2  1  0  0  0
  3 24  1  0  0  0
 14 17  1  0  0  0
 14 16  1  0  0  0
 26 24  2  0  0  0
 24 28  1  0  0  0
 24 25  2  0  0  0
 28 27  1  0  0  0
 17 18  1  0  0  0
 28 29  1  0  0  0
M  END
> <minimizedAffinity>
-8.01674

$$$$
5D3P_57E_A_201


 29 31  0  0  0  0  0  0  0  0999 V2000
  -11.7468    6.4707    0.5732 C   0  0  0  0  0  0  0  0  0  0  0  0
  -11.6174    5.4342    1.5250 C   0  0  0  0  0  0  0  0  0  0  0  0
  -12.7644    4.7553    1.9699 C   0  0  0  0  0  0  0  0  0  0  0  0
  -14.0122    5.1504    1.4784 C   0  0  0  0  0  0  0  0  0  0  0  0
  -14.1353    6.1945    0.5447 C   0  0  0  0  0  0  0  0  0  0  0  0
  -12.8746    7.9741   -0.8729 C   0  0  0  0  0  0  0  0  0  0  0  0
   -9.4661    7.1721    0.2909 C   0  0  0  0  0  0  0  0  0  0  0  0
  -10.7659    7.3045    0.0033 N   0  0  0  0  0  0  0  0  0  0  0  0
   -9.0894    6.6694    1.3509 O   0  0  0  0  0  0  0  0  0  0  0  0
  -11.3962    8.3737   -0.7805 C   0  0  0  0  0  0  0  0  0  0  0  0
  -12.9814    6.8355    0.1052 C   0  0  0  0  0  0  0  0  0  0  0  0
   -8.0720    7.2371   -1.9898 C   0  0  0  0  0  0  0  0  0  0  0  0
   -6.8339    7.8304   -2.2490 C   0  0  0  0  0  0  0  0  0  0  0  0
   -6.3540    8.4966   -1.0137 C   0  0  0  0  0  0  0  0  0  0  0  0
   -8.3146    7.5884   -0.5623 C   0  0  0  0  0  0  0  0  0  0  0  0
   -5.0865    9.2773   -0.7982 C   0  0  0  0  0  0  0  0  0  0  0  0
   -7.2868    8.3006   -0.0833 N   0  0  0  0  0  0  0  0  0  0  0  0
   -7.2280    8.6370    0.8401 H   0  0  0  0  0  0  0  0  0  0  0  0
   -6.0171    7.8087   -3.4988 C   0  0  0  0  0  0  0  0  0  0  0  0
   -5.4931    6.7777   -3.8788 O   0  0  0  0  0  0  0  0  0  0  0  0
   -5.9404    9.0472   -4.3420 C   0  0  0  0  0  0  0  0  0  0  0  0
   -9.6879    7.3671   -3.8483 C   0  0  0  0  0  0  0  0  0  0  0  0
   -8.9402    6.4350   -2.9232 C   0  0  0  0  0  0  0  0  0  0  0  0
  -12.6292    3.5549    3.0504 S   0  0  0  0  0  0  0  0  0  0  0  0
  -12.8545    2.2985    2.4221 O   0  0  0  0  0  0  0  0  0  0  0  0
  -13.5636    3.7568    4.1430 O   0  0  0  0  0  0  0  0  0  0  0  0
  -10.9035    3.4695    5.0725 C   0  0  0  0  0  0  0  0  0  0  0  0
  -11.1467    3.5756    3.6436 N   0  0  0  0  0  0  0  0  0  0  0  0
  -10.7284    4.4564    3.3442 H   0  0  0  0  0  0  0  0  0  0  0  0
  6 10  2  0  0  0
  6 11  1  0  0  0
 22 23  1  0  0  0
 10  8  1  0  0  0
  5 11  2  0  0  0
  5  4  1  0  0  0
 11  1  1  0  0  0
 23 12  1  0  0  0
  4  3  2  0  0  0
  8  1  1  0  0  0
  8  7  1  0  0  0
  1  2  2  0  0  0
 21 19  1  0  0  0
 12 13  1  0  0  0
 12 15  2  0  0  0
 20 19  2  0  0  0
 19 13  1  0  0  0
 13 14  2  0  0  0
  7 15  1  0  0  0
  7  9  2  0  0  0
 15 17  1  0  0  0
  3  2  1  0  0  0
  3 24  1  0  0  0
 14 17  1  0  0  0
 14 16  1  0  0  0
 26 24  2  0  0  0
 24 28  1  0  0  0
 24 25  2  0  0  0
 28 27  1  0  0  0
 17 18  1  0  0  0
 28 29  1  0  0  0
M  END
> <minimizedAffinity>
-7.63389

$$$$
5D3P_57E_A_201


 29 31  0  0  0  0  0  0  0  0999 V2000
  -11.0748    6.1560    1.1309 C   0  0  0  0  0  0  0  0  0  0  0  0
  -11.2345    5.2622    2.2139 C   0  0  0  0  0  0  0  0  0  0  0  0
  -12.3399    4.3951    2.2390 C   0  0  0  0  0  0  0  0  0  0  0  0
  -13.2733    4.4657    1.2004 C   0  0  0  0  0  0  0  0  0  0  0  0
  -13.1174    5.3698    0.1349 C   0  0  0  0  0  0  0  0  0  0  0  0
  -11.6390    7.2435   -0.8993 C   0  0  0  0  0  0  0  0  0  0  0  0
   -9.0509    7.3041    1.7300 C   0  0  0  0  0  0  0  0  0  0  0  0
  -10.0822    7.1265    0.8966 N   0  0  0  0  0  0  0  0  0  0  0  0
   -9.1240    6.9925    2.9199 O   0  0  0  0  0  0  0  0  0  0  0  0
  -10.4436    7.9592   -0.2571 C   0  0  0  0  0  0  0  0  0  0  0  0
  -12.0026    6.2020    0.1242 C   0  0  0  0  0  0  0  0  0  0  0  0
   -6.6578    8.3297    2.3384 C   0  0  0  0  0  0  0  0  0  0  0  0
   -5.6728    8.8342    1.4855 C   0  0  0  0  0  0  0  0  0  0  0  0
   -6.1390    8.7009    0.0838 C   0  0  0  0  0  0  0  0  0  0  0  0
   -7.7164    7.8799    1.3913 C   0  0  0  0  0  0  0  0  0  0  0  0
   -5.4283    9.0879   -1.1842 C   0  0  0  0  0  0  0  0  0  0  0  0
   -7.3427    8.1325    0.1306 N   0  0  0  0  0  0  0  0  0  0  0  0
   -7.8887    7.9244   -0.6617 H   0  0  0  0  0  0  0  0  0  0  0  0
   -4.3663    9.4740    1.8223 C   0  0  0  0  0  0  0  0  0  0  0  0
   -3.3509    8.8068    1.8979 O   0  0  0  0  0  0  0  0  0  0  0  0
   -4.2981   10.9666    1.9574 C   0  0  0  0  0  0  0  0  0  0  0  0
   -6.9681    9.6293    4.4113 C   0  0  0  0  0  0  0  0  0  0  0  0
   -6.6507    8.2654    3.8432 C   0  0  0  0  0  0  0  0  0  0  0  0
  -12.5280    3.3550    3.4677 S   0  0  0  0  0  0  0  0  0  0  0  0
  -13.0091    2.1055    2.9864 O   0  0  0  0  0  0  0  0  0  0  0  0
  -13.4355    3.9072    4.4571 O   0  0  0  0  0  0  0  0  0  0  0  0
  -10.9409    3.2286    5.5982 C   0  0  0  0  0  0  0  0  0  0  0  0
  -11.1059    3.1281    4.1577 N   0  0  0  0  0  0  0  0  0  0  0  0
  -10.4727    3.8137    3.7462 H   0  0  0  0  0  0  0  0  0  0  0  0
  6 10  2  0  0  0
  6 11  1  0  0  0
 22 23  1  0  0  0
 10  8  1  0  0  0
  5 11  2  0  0  0
  5  4  1  0  0  0
 11  1  1  0  0  0
 23 12  1  0  0  0
  4  3  2  0  0  0
  8  1  1  0  0  0
  8  7  1  0  0  0
  1  2  2  0  0  0
 21 19  1  0  0  0
 12 13  1  0  0  0
 12 15  2  0  0  0
 20 19  2  0  0  0
 19 13  1  0  0  0
 13 14  2  0  0  0
  7 15  1  0  0  0
  7  9  2  0  0  0
 15 17  1  0  0  0
  3  2  1  0  0  0
  3 24  1  0  0  0
 14 17  1  0  0  0
 14 16  1  0  0  0
 26 24  2  0  0  0
 24 28  1  0  0  0
 24 25  2  0  0  0
 28 27  1  0  0  0
 17 18  1  0  0  0
 28 29  1  0  0  0
M  END
> <minimizedAffinity>
-7.51978

$$$$
5D3P_57E_A_201


 29 31  0  0  0  0  0  0  0  0999 V2000
   -9.3387    7.2633   -3.9320 C   0  0  0  0  0  0  0  0  0  0  0  0
  -10.4867    8.0680   -4.1102 C   0  0  0  0  0  0  0  0  0  0  0  0
  -11.3702    7.7900   -5.1668 C   0  0  0  0  0  0  0  0  0  0  0  0
  -11.0678    6.7379   -6.0366 C   0  0  0  0  0  0  0  0  0  0  0  0
   -9.9145    5.9523   -5.8638 C   0  0  0  0  0  0  0  0  0  0  0  0
   -7.7855    5.5413   -4.4271 C   0  0  0  0  0  0  0  0  0  0  0  0
   -8.3118    8.2825   -2.0137 C   0  0  0  0  0  0  0  0  0  0  0  0
   -8.3055    7.3577   -2.9804 N   0  0  0  0  0  0  0  0  0  0  0  0
   -8.9221    9.3450   -2.1433 O   0  0  0  0  0  0  0  0  0  0  0  0
   -7.2170    6.4309   -3.3139 C   0  0  0  0  0  0  0  0  0  0  0  0
   -9.0680    6.2361   -4.7968 C   0  0  0  0  0  0  0  0  0  0  0  0
   -8.0667    7.4565    0.5176 C   0  0  0  0  0  0  0  0  0  0  0  0
   -7.0893    7.7842    1.4605 C   0  0  0  0  0  0  0  0  0  0  0  0
   -6.1074    8.7021    0.8333 C   0  0  0  0  0  0  0  0  0  0  0  0
   -7.6205    8.2008   -0.6936 C   0  0  0  0  0  0  0  0  0  0  0  0
   -4.8748    9.3163    1.4384 C   0  0  0  0  0  0  0  0  0  0  0  0
   -6.5020    8.8864   -0.4254 N   0  0  0  0  0  0  0  0  0  0  0  0
   -6.0308    9.4550   -1.0765 H   0  0  0  0  0  0  0  0  0  0  0  0
   -6.9867    7.3843    2.8956 C   0  0  0  0  0  0  0  0  0  0  0  0
   -6.0340    6.7386    3.2922 O   0  0  0  0  0  0  0  0  0  0  0  0
   -8.0157    7.8820    3.8671 C   0  0  0  0  0  0  0  0  0  0  0  0
  -10.4926    7.4282    0.9611 C   0  0  0  0  0  0  0  0  0  0  0  0
   -9.2756    6.5746    0.6891 C   0  0  0  0  0  0  0  0  0  0  0  0
  -12.6981    8.6958   -5.3744 S   0  0  0  0  0  0  0  0  0  0  0  0
  -13.6827    7.9681   -6.0990 O   0  0  0  0  0  0  0  0  0  0  0  0
  -12.3610    9.9283   -6.0634 O   0  0  0  0  0  0  0  0  0  0  0  0
  -14.3106   10.0836   -3.7782 C   0  0  0  0  0  0  0  0  0  0  0  0
  -13.2854    9.0656   -3.9363 N   0  0  0  0  0  0  0  0  0  0  0  0
  -12.4923    9.3641   -3.3686 H   0  0  0  0  0  0  0  0  0  0  0  0
  6 10  2  0  0  0
  6 11  1  0  0  0
 22 23  1  0  0  0
 10  8  1  0  0  0
  5 11  2  0  0  0
  5  4  1  0  0  0
 11  1  1  0  0  0
 23 12  1  0  0  0
  4  3  2  0  0  0
  8  1  1  0  0  0
  8  7  1  0  0  0
  1  2  2  0  0  0
 21 19  1  0  0  0
 12 13  1  0  0  0
 12 15  2  0  0  0
 20 19  2  0  0  0
 19 13  1  0  0  0
 13 14  2  0  0  0
  7 15  1  0  0  0
  7  9  2  0  0  0
 15 17  1  0  0  0
  3  2  1  0  0  0
  3 24  1  0  0  0
 14 17  1  0  0  0
 14 16  1  0  0  0
 26 24  2  0  0  0
 24 28  1  0  0  0
 24 25  2  0  0  0
 28 27  1  0  0  0
 17 18  1  0  0  0
 28 29  1  0  0  0
M  END
> <minimizedAffinity>
-7.43616

$$$$
5D3P_57E_A_201


 29 31  0  0  0  0  0  0  0  0999 V2000
   -8.3925    7.0947    0.8295 C   0  0  0  0  0  0  0  0  0  0  0  0
   -8.5261    7.0452   -0.5765 C   0  0  0  0  0  0  0  0  0  0  0  0
   -7.5799    7.6969   -1.3855 C   0  0  0  0  0  0  0  0  0  0  0  0
   -6.5452    8.4077   -0.7700 C   0  0  0  0  0  0  0  0  0  0  0  0
   -6.4284    8.4675    0.6300 C   0  0  0  0  0  0  0  0  0  0  0  0
   -7.4442    7.7298    2.9080 C   0  0  0  0  0  0  0  0  0  0  0  0
  -10.2985    5.8236    1.5536 C   0  0  0  0  0  0  0  0  0  0  0  0
   -9.2142    6.5543    1.8368 N   0  0  0  0  0  0  0  0  0  0  0  0
  -10.8962    5.9469    0.4832 O   0  0  0  0  0  0  0  0  0  0  0  0
   -8.7911    7.0385    3.1564 C   0  0  0  0  0  0  0  0  0  0  0  0
   -7.3668    7.7955    1.4067 C   0  0  0  0  0  0  0  0  0  0  0  0
  -12.2315    4.0926    2.1989 C   0  0  0  0  0  0  0  0  0  0  0  0
  -12.3688    3.3145    3.3512 C   0  0  0  0  0  0  0  0  0  0  0  0
  -11.2068    3.5638    4.2386 C   0  0  0  0  0  0  0  0  0  0  0  0
  -10.9403    4.7995    2.4292 C   0  0  0  0  0  0  0  0  0  0  0  0
  -10.8991    2.9534    5.5785 C   0  0  0  0  0  0  0  0  0  0  0  0
  -10.4274    4.4451    3.6142 N   0  0  0  0  0  0  0  0  0  0  0  0
   -9.5809    4.7921    3.9779 H   0  0  0  0  0  0  0  0  0  0  0  0
  -13.4810    2.4013    3.7498 C   0  0  0  0  0  0  0  0  0  0  0  0
  -13.5681    1.2854    3.2712 O   0  0  0  0  0  0  0  0  0  0  0  0
  -14.4278    2.8330    4.8304 C   0  0  0  0  0  0  0  0  0  0  0  0
  -14.2447    5.2095    1.3147 C   0  0  0  0  0  0  0  0  0  0  0  0
  -13.1643    4.1946    1.0208 C   0  0  0  0  0  0  0  0  0  0  0  0
   -7.7127    7.6363   -2.9996 S   0  0  0  0  0  0  0  0  0  0  0  0
   -6.4329    7.7761   -3.6051 O   0  0  0  0  0  0  0  0  0  0  0  0
   -8.6170    8.6713   -3.4671 O   0  0  0  0  0  0  0  0  0  0  0  0
   -7.4596    5.0834   -3.7018 C   0  0  0  0  0  0  0  0  0  0  0  0
   -8.3204    6.2155   -3.4021 N   0  0  0  0  0  0  0  0  0  0  0  0
   -8.8923    6.3708   -4.2322 H   0  0  0  0  0  0  0  0  0  0  0  0
  6 10  2  0  0  0
  6 11  1  0  0  0
 22 23  1  0  0  0
 10  8  1  0  0  0
  5 11  2  0  0  0
  5  4  1  0  0  0
 11  1  1  0  0  0
 23 12  1  0  0  0
  4  3  2  0  0  0
  8  1  1  0  0  0
  8  7  1  0  0  0
  1  2  2  0  0  0
 21 19  1  0  0  0
 12 13  1  0  0  0
 12 15  2  0  0  0
 20 19  2  0  0  0
 19 13  1  0  0  0
 13 14  2  0  0  0
  7 15  1  0  0  0
  7  9  2  0  0  0
 15 17  1  0  0  0
  3  2  1  0  0  0
  3 24  1  0  0  0
 14 17  1  0  0  0
 14 16  1  0  0  0
 26 24  2  0  0  0
 24 28  1  0  0  0
 24 25  2  0  0  0
 28 27  1  0  0  0
 17 18  1  0  0  0
 28 29  1  0  0  0
M  END
> <minimizedAffinity>
-7.18637

$$$$
5D3P_57E_A_201


 29 31  0  0  0  0  0  0  0  0999 V2000
   -7.4641    7.9462    0.8047 C   0  0  0  0  0  0  0  0  0  0  0  0
   -7.2594    8.1425   -0.5797 C   0  0  0  0  0  0  0  0  0  0  0  0
   -6.0648    8.7323   -1.0265 C   0  0  0  0  0  0  0  0  0  0  0  0
   -5.1213    9.1402   -0.0788 C   0  0  0  0  0  0  0  0  0  0  0  0
   -5.3392    8.9578    1.2983 C   0  0  0  0  0  0  0  0  0  0  0  0
   -6.9676    8.0667    3.1203 C   0  0  0  0  0  0  0  0  0  0  0  0
   -9.6459    6.9407    0.8456 C   0  0  0  0  0  0  0  0  0  0  0  0
   -8.5717    7.4111    1.4895 N   0  0  0  0  0  0  0  0  0  0  0  0
   -9.9441    7.3356   -0.2828 O   0  0  0  0  0  0  0  0  0  0  0  0
   -8.4171    7.5984    2.9372 C   0  0  0  0  0  0  0  0  0  0  0  0
   -6.5213    8.3520    1.7118 C   0  0  0  0  0  0  0  0  0  0  0  0
  -12.0497    5.7765    0.9712 C   0  0  0  0  0  0  0  0  0  0  0  0
  -12.4780    4.7253    1.7857 C   0  0  0  0  0  0  0  0  0  0  0  0
  -11.3412    4.2768    2.6263 C   0  0  0  0  0  0  0  0  0  0  0  0
  -10.6159    5.9242    1.3487 C   0  0  0  0  0  0  0  0  0  0  0  0
  -11.3043    3.1713    3.6456 C   0  0  0  0  0  0  0  0  0  0  0  0
  -10.2972    5.0365    2.2991 N   0  0  0  0  0  0  0  0  0  0  0  0
   -9.4039    4.9555    2.7049 H   0  0  0  0  0  0  0  0  0  0  0  0
  -13.8368    4.1191    1.9124 C   0  0  0  0  0  0  0  0  0  0  0  0
  -14.7120    4.3868    1.1098 O   0  0  0  0  0  0  0  0  0  0  0  0
  -14.0802    3.0894    2.9760 C   0  0  0  0  0  0  0  0  0  0  0  0
  -13.4050    7.8076    0.6246 C   0  0  0  0  0  0  0  0  0  0  0  0
  -12.8457    6.5674   -0.0335 C   0  0  0  0  0  0  0  0  0  0  0  0
   -5.8107    8.9504   -2.6122 S   0  0  0  0  0  0  0  0  0  0  0  0
   -4.4155    9.0089   -2.8843 O   0  0  0  0  0  0  0  0  0  0  0  0
   -6.4723   10.1612   -3.0638 O   0  0  0  0  0  0  0  0  0  0  0  0
   -5.6268    6.8884   -4.2820 C   0  0  0  0  0  0  0  0  0  0  0  0
   -6.4372    7.7095   -3.3982 N   0  0  0  0  0  0  0  0  0  0  0  0
   -7.1975    8.0822   -3.9669 H   0  0  0  0  0  0  0  0  0  0  0  0
  6 10  2  0  0  0
  6 11  1  0  0  0
 22 23  1  0  0  0
 10  8  1  0  0  0
  5 11  2  0  0  0
  5  4  1  0  0  0
 11  1  1  0  0  0
 23 12  1  0  0  0
  4  3  2  0  0  0
  8  1  1  0  0  0
  8  7  1  0  0  0
  1  2  2  0  0  0
 21 19  1  0  0  0
 12 13  1  0  0  0
 12 15  2  0  0  0
 20 19  2  0  0  0
 19 13  1  0  0  0
 13 14  2  0  0  0
  7 15  1  0  0  0
  7  9  2  0  0  0
 15 17  1  0  0  0
  3  2  1  0  0  0
  3 24  1  0  0  0
 14 17  1  0  0  0
 14 16  1  0  0  0
 26 24  2  0  0  0
 24 28  1  0  0  0
 24 25  2  0  0  0
 28 27  1  0  0  0
 17 18  1  0  0  0
 28 29  1  0  0  0
M  END
> <minimizedAffinity>
-7.05050

$$$$
5D3P_57E_A_201


 29 31  0  0  0  0  0  0  0  0999 V2000
  -11.3909    6.5731    0.0235 C   0  0  0  0  0  0  0  0  0  0  0  0
  -11.3452    5.5165    0.9609 C   0  0  0  0  0  0  0  0  0  0  0  0
  -12.5314    5.0894    1.5814 C   0  0  0  0  0  0  0  0  0  0  0  0
  -13.7254    5.7492    1.2750 C   0  0  0  0  0  0  0  0  0  0  0  0
  -13.7606    6.8114    0.3544 C   0  0  0  0  0  0  0  0  0  0  0  0
  -12.3747    8.3063   -1.2613 C   0  0  0  0  0  0  0  0  0  0  0  0
   -9.0808    6.7783   -0.6049 C   0  0  0  0  0  0  0  0  0  0  0  0
  -10.3507    7.1889   -0.6982 N   0  0  0  0  0  0  0  0  0  0  0  0
   -8.6668    6.1889    0.3948 O   0  0  0  0  0  0  0  0  0  0  0  0
  -10.8483    8.3810   -1.3955 C   0  0  0  0  0  0  0  0  0  0  0  0
  -12.5750    7.1999   -0.2612 C   0  0  0  0  0  0  0  0  0  0  0  0
   -6.9983    8.0494   -1.6989 C   0  0  0  0  0  0  0  0  0  0  0  0
   -6.3037    7.7529   -2.8743 C   0  0  0  0  0  0  0  0  0  0  0  0
   -6.8904    6.5341   -3.4829 C   0  0  0  0  0  0  0  0  0  0  0  0
   -8.0067    6.9549   -1.6258 C   0  0  0  0  0  0  0  0  0  0  0  0
   -6.4782    5.8197   -4.7409 C   0  0  0  0  0  0  0  0  0  0  0  0
   -7.8787    6.1409   -2.6813 N   0  0  0  0  0  0  0  0  0  0  0  0
   -8.4439    5.3514   -2.8442 H   0  0  0  0  0  0  0  0  0  0  0  0
   -5.1878    8.4993   -3.5282 C   0  0  0  0  0  0  0  0  0  0  0  0
   -4.0293    8.1893   -3.3198 O   0  0  0  0  0  0  0  0  0  0  0  0
   -5.5129    9.5652   -4.5326 C   0  0  0  0  0  0  0  0  0  0  0  0
   -6.1176    8.6942    0.5126 C   0  0  0  0  0  0  0  0  0  0  0  0
   -6.7831    9.1970   -0.7476 C   0  0  0  0  0  0  0  0  0  0  0  0
  -12.4960    3.8694    2.6477 S   0  0  0  0  0  0  0  0  0  0  0  0
  -12.6332    2.6231    1.9754 O   0  0  0  0  0  0  0  0  0  0  0  0
  -13.5460    4.0372    3.6361 O   0  0  0  0  0  0  0  0  0  0  0  0
  -10.9645    3.4965    4.7901 C   0  0  0  0  0  0  0  0  0  0  0  0
  -11.0868    3.8972    3.3984 N   0  0  0  0  0  0  0  0  0  0  0  0
  -10.7498    4.8583    3.3440 H   0  0  0  0  0  0  0  0  0  0  0  0
  6 10  2  0  0  0
  6 11  1  0  0  0
 22 23  1  0  0  0
 10  8  1  0  0  0
  5 11  2  0  0  0
  5  4  1  0  0  0
 11  1  1  0  0  0
 23 12  1  0  0  0
  4  3  2  0  0  0
  8  1  1  0  0  0
  8  7  1  0  0  0
  1  2  2  0  0  0
 21 19  1  0  0  0
 12 13  1  0  0  0
 12 15  2  0  0  0
 20 19  2  0  0  0
 19 13  1  0  0  0
 13 14  2  0  0  0
  7 15  1  0  0  0
  7  9  2  0  0  0
 15 17  1  0  0  0
  3  2  1  0  0  0
  3 24  1  0  0  0
 14 17  1  0  0  0
 14 16  1  0  0  0
 26 24  2  0  0  0
 24 28  1  0  0  0
 24 25  2  0  0  0
 28 27  1  0  0  0
 17 18  1  0  0  0
 28 29  1  0  0  0
M  END
> <minimizedAffinity>
-6.91420

$$$$
5D3P_57E_A_201


 29 31  0  0  0  0  0  0  0  0999 V2000
   -9.8578    7.4838    0.0020 C   0  0  0  0  0  0  0  0  0  0  0  0
  -10.1602    8.3144   -1.1006 C   0  0  0  0  0  0  0  0  0  0  0  0
  -11.4294    8.2366   -1.6988 C   0  0  0  0  0  0  0  0  0  0  0  0
  -12.3507    7.3096   -1.2021 C   0  0  0  0  0  0  0  0  0  0  0  0
  -12.0368    6.4739   -0.1158 C   0  0  0  0  0  0  0  0  0  0  0  0
  -10.2280    5.7963    1.6263 C   0  0  0  0  0  0  0  0  0  0  0  0
   -7.5916    8.1151    0.4912 C   0  0  0  0  0  0  0  0  0  0  0  0
   -8.6664    7.3589    0.7417 N   0  0  0  0  0  0  0  0  0  0  0  0
   -7.3984    8.6109   -0.6201 O   0  0  0  0  0  0  0  0  0  0  0  0
   -8.7537    6.2193    1.6630 C   0  0  0  0  0  0  0  0  0  0  0  0
  -10.7805    6.5866    0.4710 C   0  0  0  0  0  0  0  0  0  0  0  0
   -6.6327    8.7435    2.9068 C   0  0  0  0  0  0  0  0  0  0  0  0
   -5.3275    9.0769    3.2771 C   0  0  0  0  0  0  0  0  0  0  0  0
   -4.4579    9.0126    2.0772 C   0  0  0  0  0  0  0  0  0  0  0  0
   -6.5019    8.4653    1.4488 C   0  0  0  0  0  0  0  0  0  0  0  0
   -2.9800    9.2720    1.9721 C   0  0  0  0  0  0  0  0  0  0  0  0
   -5.2340    8.6468    1.0584 N   0  0  0  0  0  0  0  0  0  0  0  0
   -4.9156    8.5251    0.1348 H   0  0  0  0  0  0  0  0  0  0  0  0
   -4.7999    9.4989    4.6088 C   0  0  0  0  0  0  0  0  0  0  0  0
   -4.1414    8.7310    5.2860 O   0  0  0  0  0  0  0  0  0  0  0  0
   -4.9962   10.9176    5.0552 C   0  0  0  0  0  0  0  0  0  0  0  0
   -7.8372    7.4366    4.6166 C   0  0  0  0  0  0  0  0  0  0  0  0
   -7.8661    8.6878    3.7695 C   0  0  0  0  0  0  0  0  0  0  0  0
  -11.7948    9.1933   -2.9549 S   0  0  0  0  0  0  0  0  0  0  0  0
  -11.2035    8.6893   -4.1467 O   0  0  0  0  0  0  0  0  0  0  0  0
  -11.3503   10.5510   -2.6965 O   0  0  0  0  0  0  0  0  0  0  0  0
  -14.0308   10.1285   -4.0503 C   0  0  0  0  0  0  0  0  0  0  0  0
  -13.3816    9.2068   -3.1330 N   0  0  0  0  0  0  0  0  0  0  0  0
  -13.7740    9.3937   -2.2102 H   0  0  0  0  0  0  0  0  0  0  0  0
  6 10  2  0  0  0
  6 11  1  0  0  0
 22 23  1  0  0  0
 10  8  1  0  0  0
  5 11  2  0  0  0
  5  4  1  0  0  0
 11  1  1  0  0  0
 23 12  1  0  0  0
  4  3  2  0  0  0
  8  1  1  0  0  0
  8  7  1  0  0  0
  1  2  2  0  0  0
 21 19  1  0  0  0
 12 13  1  0  0  0
 12 15  2  0  0  0
 20 19  2  0  0  0
 19 13  1  0  0  0
 13 14  2  0  0  0
  7 15  1  0  0  0
  7  9  2  0  0  0
 15 17  1  0  0  0
  3  2  1  0  0  0
  3 24  1  0  0  0
 14 17  1  0  0  0
 14 16  1  0  0  0
 26 24  2  0  0  0
 24 28  1  0  0  0
 24 25  2  0  0  0
 28 27  1  0  0  0
 17 18  1  0  0  0
 28 29  1  0  0  0
M  END
> <minimizedAffinity>
-6.73968

$$$$
5D3P_57E_A_201


 29 31  0  0  0  0  0  0  0  0999 V2000
   -9.5433    7.5552   -0.2343 C   0  0  0  0  0  0  0  0  0  0  0  0
   -9.8806    8.1790   -1.4567 C   0  0  0  0  0  0  0  0  0  0  0  0
  -11.1586    7.9803   -2.0061 C   0  0  0  0  0  0  0  0  0  0  0  0
  -12.0537    7.1389   -1.3387 C   0  0  0  0  0  0  0  0  0  0  0  0
  -11.7051    6.5074   -0.1317 C   0  0  0  0  0  0  0  0  0  0  0  0
   -9.8534    6.1671    1.6630 C   0  0  0  0  0  0  0  0  0  0  0  0
   -7.2808    8.2954    0.0921 C   0  0  0  0  0  0  0  0  0  0  0  0
   -8.3369    7.5775    0.4910 N   0  0  0  0  0  0  0  0  0  0  0  0
   -7.1165    8.5954   -1.0916 O   0  0  0  0  0  0  0  0  0  0  0  0
   -8.3867    6.6123    1.5959 C   0  0  0  0  0  0  0  0  0  0  0  0
  -10.4408    6.7384    0.4009 C   0  0  0  0  0  0  0  0  0  0  0  0
   -4.8607    9.3525    0.5103 C   0  0  0  0  0  0  0  0  0  0  0  0
   -4.2183    9.6320    1.7191 C   0  0  0  0  0  0  0  0  0  0  0  0
   -5.1212    9.2653    2.8373 C   0  0  0  0  0  0  0  0  0  0  0  0
   -6.1808    8.8216    0.9525 C   0  0  0  0  0  0  0  0  0  0  0  0
   -4.8845    9.3927    4.3173 C   0  0  0  0  0  0  0  0  0  0  0  0
   -6.2434    8.8015    2.2899 N   0  0  0  0  0  0  0  0  0  0  0  0
   -7.0208    8.4840    2.8037 H   0  0  0  0  0  0  0  0  0  0  0  0
   -2.8402   10.1542    1.9600 C   0  0  0  0  0  0  0  0  0  0  0  0
   -2.6618   11.3249    2.2420 O   0  0  0  0  0  0  0  0  0  0  0  0
   -1.6863    9.1956    1.9600 C   0  0  0  0  0  0  0  0  0  0  0  0
   -4.4126   10.9973   -1.2718 C   0  0  0  0  0  0  0  0  0  0  0  0
   -4.3409    9.5366   -0.8913 C   0  0  0  0  0  0  0  0  0  0  0  0
  -11.5639    8.7010   -3.4001 S   0  0  0  0  0  0  0  0  0  0  0  0
  -10.3972    9.0025   -4.1564 O   0  0  0  0  0  0  0  0  0  0  0  0
  -12.3300    9.9057   -3.1370 O   0  0  0  0  0  0  0  0  0  0  0  0
  -12.0428    7.1773   -5.5268 C   0  0  0  0  0  0  0  0  0  0  0  0
  -12.4767    7.6955   -4.2402 N   0  0  0  0  0  0  0  0  0  0  0  0
  -13.3600    8.1779   -4.4063 H   0  0  0  0  0  0  0  0  0  0  0  0
  6 10  2  0  0  0
  6 11  1  0  0  0
 22 23  1  0  0  0
 10  8  1  0  0  0
  5 11  2  0  0  0
  5  4  1  0  0  0
 11  1  1  0  0  0
 23 12  1  0  0  0
  4  3  2  0  0  0
  8  1  1  0  0  0
  8  7  1  0  0  0
  1  2  2  0  0  0
 21 19  1  0  0  0
 12 13  1  0  0  0
 12 15  2  0  0  0
 20 19  2  0  0  0
 19 13  1  0  0  0
 13 14  2  0  0  0
  7 15  1  0  0  0
  7  9  2  0  0  0
 15 17  1  0  0  0
  3  2  1  0  0  0
  3 24  1  0  0  0
 14 17  1  0  0  0
 14 16  1  0  0  0
 26 24  2  0  0  0
 24 28  1  0  0  0
 24 25  2  0  0  0
 28 27  1  0  0  0
 17 18  1  0  0  0
 28 29  1  0  0  0
M  END
> <minimizedAffinity>
-6.52341

$$$$
5D3P_57E_A_201


 29 31  0  0  0  0  0  0  0  0999 V2000
   -6.4796    8.4790    0.7992 C   0  0  0  0  0  0  0  0  0  0  0  0
   -7.7281    7.8950    1.1113 C   0  0  0  0  0  0  0  0  0  0  0  0
   -8.6665    7.6782    0.0881 C   0  0  0  0  0  0  0  0  0  0  0  0
   -8.3473    8.0796   -1.2126 C   0  0  0  0  0  0  0  0  0  0  0  0
   -7.1099    8.6762   -1.5129 C   0  0  0  0  0  0  0  0  0  0  0  0
   -4.8227    9.4799   -0.5704 C   0  0  0  0  0  0  0  0  0  0  0  0
   -5.4193    8.5630    2.9537 C   0  0  0  0  0  0  0  0  0  0  0  0
   -5.4028    8.8178    1.6405 N   0  0  0  0  0  0  0  0  0  0  0  0
   -6.4777    8.4545    3.5751 O   0  0  0  0  0  0  0  0  0  0  0  0
   -4.3998    9.5929    0.9001 C   0  0  0  0  0  0  0  0  0  0  0  0
   -6.1911    8.8597   -0.4846 C   0  0  0  0  0  0  0  0  0  0  0  0
   -3.7912    9.2751    4.9516 C   0  0  0  0  0  0  0  0  0  0  0  0
   -2.6110    8.6664    5.3859 C   0  0  0  0  0  0  0  0  0  0  0  0
   -2.3583    7.4641    4.5550 C   0  0  0  0  0  0  0  0  0  0  0  0
   -4.2355    8.3825    3.8444 C   0  0  0  0  0  0  0  0  0  0  0  0
   -1.2257    6.4786    4.6472 C   0  0  0  0  0  0  0  0  0  0  0  0
   -3.3614    7.3812    3.6826 N   0  0  0  0  0  0  0  0  0  0  0  0
   -3.4491    6.6730    3.0043 H   0  0  0  0  0  0  0  0  0  0  0  0
   -1.6598    9.0992    6.4526 C   0  0  0  0  0  0  0  0  0  0  0  0
   -1.6696    8.5639    7.5458 O   0  0  0  0  0  0  0  0  0  0  0  0
   -0.6161   10.1263    6.1266 C   0  0  0  0  0  0  0  0  0  0  0  0
   -5.2184   10.2126    6.7310 C   0  0  0  0  0  0  0  0  0  0  0  0
   -4.4453   10.5283    5.4715 C   0  0  0  0  0  0  0  0  0  0  0  0
  -10.0966    6.9963    0.4293 S   0  0  0  0  0  0  0  0  0  0  0  0
  -10.9006    7.8912    1.1889 O   0  0  0  0  0  0  0  0  0  0  0  0
   -9.8988    5.7498    1.1467 O   0  0  0  0  0  0  0  0  0  0  0  0
  -12.0635    7.3668   -1.3224 C   0  0  0  0  0  0  0  0  0  0  0  0
  -10.8422    6.6747   -0.9457 N   0  0  0  0  0  0  0  0  0  0  0  0
  -11.0685    5.6803   -0.9256 H   0  0  0  0  0  0  0  0  0  0  0  0
  6 10  2  0  0  0
  6 11  1  0  0  0
 22 23  1  0  0  0
 10  8  1  0  0  0
  5 11  2  0  0  0
  5  4  1  0  0  0
 11  1  1  0  0  0
 23 12  1  0  0  0
  4  3  2  0  0  0
  8  1  1  0  0  0
  8  7  1  0  0  0
  1  2  2  0  0  0
 21 19  1  0  0  0
 12 13  1  0  0  0
 12 15  2  0  0  0
 20 19  2  0  0  0
 19 13  1  0  0  0
 13 14  2  0  0  0
  7 15  1  0  0  0
  7  9  2  0  0  0
 15 17  1  0  0  0
  3  2  1  0  0  0
  3 24  1  0  0  0
 14 17  1  0  0  0
 14 16  1  0  0  0
 26 24  2  0  0  0
 24 28  1  0  0  0
 24 25  2  0  0  0
 28 27  1  0  0  0
 17 18  1  0  0  0
 28 29  1  0  0  0
M  END
> <minimizedAffinity>
-6.27212

$$$$
