3AAQ_ARU_A_1


 43 45  0  0  0  0  0  0  0  0999 V2000
   28.1294   32.8941   22.9402 C   0  0  0  0  0  0  0  0  0  0  0  0
   26.6802   32.4997   23.0221 C   0  0  0  0  0  0  0  0  0  0  0  0
   26.1948   32.1393   21.7737 O   0  0  0  0  0  0  0  0  0  0  0  0
   26.0358   33.7709   23.5393 C   0  0  0  0  0  0  0  0  0  0  0  0
   25.4606   34.5417   22.5005 O   0  0  0  0  0  0  0  0  0  0  0  0
   27.2226   34.5286   24.0864 C   0  0  0  0  0  0  0  0  0  0  0  0
   28.2534   33.5620   24.1681 O   0  0  0  0  0  0  0  0  0  0  0  0
   26.3338   32.8688   21.1497 H   0  0  0  0  0  0  0  0  0  0  0  0
   26.1392   34.7520   21.8401 H   0  0  0  0  0  0  0  0  0  0  0  0
   32.9953   31.9633   22.2934 N   0  0  0  0  0  0  0  0  0  0  0  0
   32.3312   33.0837   22.2367 C   0  0  0  0  0  0  0  0  0  0  0  0
   31.0570   33.1573   22.4264 N   0  0  0  0  0  0  0  0  0  0  0  0
   30.3816   32.0521   22.6881 C   0  0  0  0  0  0  0  0  0  0  0  0
   31.0197   30.8424   22.7462 C   0  0  0  0  0  0  0  0  0  0  0  0
   32.3792   30.8157   22.5333 C   0  0  0  0  0  0  0  0  0  0  0  0
   30.1099   29.9366   23.0154 N   0  0  0  0  0  0  0  0  0  0  0  0
   28.9489   30.5569   23.1056 C   0  0  0  0  0  0  0  0  0  0  0  0
   29.1166   31.8464   22.9060 N   0  0  0  0  0  0  0  0  0  0  0  0
   33.0730   29.6995   22.5878 N   0  0  0  0  0  0  0  0  0  0  0  0
   34.7621   29.4550   24.2966 C   0  0  0  0  0  0  0  0  0  0  0  0
   33.3647   29.0751   23.8739 C   0  0  0  0  0  0  0  0  0  0  0  0
   33.5941   29.1074   21.3636 C   0  0  0  0  0  0  0  0  0  0  0  0
   33.5030   27.5898   21.4179 C   0  0  0  0  0  0  0  0  0  0  0  0
   26.7045   34.9581   25.3926 C   0  0  0  0  0  0  0  0  0  0  0  0
   27.7641   35.1109   26.1927 O   0  0  0  0  0  0  0  0  0  0  0  0
   27.4384   36.3416   28.2064 O   0  0  0  0  0  0  0  0  0  0  0  0
   27.6162   35.0214   27.7116 P   0  0  0  0  0  0  0  0  0  0  0  0
   26.4011   34.0766   27.8892 O   0  0  0  0  0  0  0  0  0  0  0  0
   25.5895   34.5420   27.6330 H   0  0  0  0  0  0  0  0  0  0  0  0
   28.8336   34.0739   28.1811 O   0  0  0  0  0  0  0  0  0  0  0  0
   30.3952   34.5241   26.2983 O   0  0  0  0  0  0  0  0  0  0  0  0
   30.2685   34.0920   27.6339 P   0  0  0  0  0  0  0  0  0  0  0  0
   31.1310   34.7632   28.4943 O   0  0  0  0  0  0  0  0  0  0  0  0
   29.7765   34.0296   25.7384 H   0  0  0  0  0  0  0  0  0  0  0  0
   31.9024   32.0763   26.2416 Br  0  0  0  0  0  0  0  0  0  0  0  0
   30.6034   32.2497   27.5999 C   0  0  0  0  0  0  0  0  0  0  0  0
   31.3042   31.6219   29.3099 Br  0  0  0  0  0  0  0  0  0  0  0  0
   28.2865   31.9599   26.4081 O   0  0  0  0  0  0  0  0  0  0  0  0
   28.4687   30.9221   28.4411 O   0  0  0  0  0  0  0  0  0  0  0  0
   29.0764   31.2005   27.2472 P   0  0  0  0  0  0  0  0  0  0  0  0
   29.5866   30.0585   26.6149 O   0  0  0  0  0  0  0  0  0  0  0  0
   27.9578   32.7360   26.8881 H   0  0  0  0  0  0  0  0  0  0  0  0
   28.8576   29.4572   26.3961 H   0  0  0  0  0  0  0  0  0  0  0  0
 10 11  2  0  0  0
 10 15  1  0  0  0
 11 12  1  0  0  0
 12 13  2  0  0  0
 13 14  1  0  0  0
 13 18  1  0  0  0
 14 15  2  0  0  0
 14 16  1  0  0  0
 15 19  1  0  0  0
 19 21  1  0  0  0
 19 22  1  0  0  0
 16 17  2  0  0  0
 17 18  1  0  0  0
 18  1  1  0  0  0
  1  2  1  0  0  0
  1  7  1  0  0  0
  2  3  1  0  0  0
  2  4  1  0  0  0
  4  5  1  0  0  0
  4  6  1  0  0  0
  6  7  1  0  0  0
  6 24  1  0  0  0
 24 25  1  0  0  0
 25 27  1  0  0  0
 20 21  1  0  0  0
 22 23  1  0  0  0
 38 40  1  0  0  0
 35 36  1  0  0  0
 31 32  1  0  0  0
 26 27  2  0  0  0
 39 40  2  0  0  0
 40 36  1  0  0  0
 40 41  1  0  0  0
 36 32  1  0  0  0
 36 37  1  0  0  0
 32 30  1  0  0  0
 32 33  2  0  0  0
 30 27  1  0  0  0
 27 28  1  0  0  0
  3  8  1  0  0  0
  5  9  1  0  0  0
 38 42  1  0  0  0
 31 34  1  0  0  0
 41 43  1  0  0  0
 28 29  1  0  0  0
M  END
> <minimizedAffinity>
-8.53453

$$$$
3AAQ_ARU_A_1


 43 45  0  0  0  0  0  0  0  0999 V2000
   28.1703   32.6006   22.9101 C   0  0  0  0  0  0  0  0  0  0  0  0
   27.7465   31.6891   24.0290 C   0  0  0  0  0  0  0  0  0  0  0  0
   27.7969   30.3613   23.6308 O   0  0  0  0  0  0  0  0  0  0  0  0
   26.3271   32.1519   24.2929 C   0  0  0  0  0  0  0  0  0  0  0  0
   25.3674   31.3288   23.6561 O   0  0  0  0  0  0  0  0  0  0  0  0
   26.3051   33.5059   23.6234 C   0  0  0  0  0  0  0  0  0  0  0  0
   27.6687   33.8149   23.4032 O   0  0  0  0  0  0  0  0  0  0  0  0
   27.2474   30.2397   22.8408 H   0  0  0  0  0  0  0  0  0  0  0  0
   25.5429   31.3058   22.7024 H   0  0  0  0  0  0  0  0  0  0  0  0
   32.7106   31.0782   24.3347 N   0  0  0  0  0  0  0  0  0  0  0  0
   31.5288   30.7520   24.7779 C   0  0  0  0  0  0  0  0  0  0  0  0
   30.4366   31.2448   24.2992 N   0  0  0  0  0  0  0  0  0  0  0  0
   30.5056   32.1246   23.3157 C   0  0  0  0  0  0  0  0  0  0  0  0
   31.7179   32.5190   22.8171 C   0  0  0  0  0  0  0  0  0  0  0  0
   32.8542   31.9670   23.3634 C   0  0  0  0  0  0  0  0  0  0  0  0
   31.4809   33.3897   21.8650 N   0  0  0  0  0  0  0  0  0  0  0  0
   30.1728   33.5424   21.7855 C   0  0  0  0  0  0  0  0  0  0  0  0
   29.5801   32.7703   22.6705 N   0  0  0  0  0  0  0  0  0  0  0  0
   34.0578   32.2768   22.9327 N   0  0  0  0  0  0  0  0  0  0  0  0
   35.4583   34.2047   22.5392 C   0  0  0  0  0  0  0  0  0  0  0  0
   34.8290   33.3259   23.5914 C   0  0  0  0  0  0  0  0  0  0  0  0
   34.6068   31.6041   21.7636 C   0  0  0  0  0  0  0  0  0  0  0  0
   35.3472   30.3383   22.1684 C   0  0  0  0  0  0  0  0  0  0  0  0
   25.6699   34.3247   24.6651 C   0  0  0  0  0  0  0  0  0  0  0  0
   25.2458   33.4798   25.6099 O   0  0  0  0  0  0  0  0  0  0  0  0
   24.7735   35.2921   27.0824 O   0  0  0  0  0  0  0  0  0  0  0  0
   25.1526   33.9226   27.0700 P   0  0  0  0  0  0  0  0  0  0  0  0
   24.1135   32.9407   27.6672 O   0  0  0  0  0  0  0  0  0  0  0  0
   23.2305   33.1607   27.3313 H   0  0  0  0  0  0  0  0  0  0  0  0
   26.5201   33.3934   27.7410 O   0  0  0  0  0  0  0  0  0  0  0  0
   27.4713   35.5391   28.5640 O   0  0  0  0  0  0  0  0  0  0  0  0
   27.3882   34.1459   28.7602 P   0  0  0  0  0  0  0  0  0  0  0  0
   27.0422   33.8121   30.0655 O   0  0  0  0  0  0  0  0  0  0  0  0
   27.7142   35.7221   27.6429 H   0  0  0  0  0  0  0  0  0  0  0  0
   30.0563   33.6134   29.8867 Br  0  0  0  0  0  0  0  0  0  0  0  0
   29.0690   33.4704   28.2845 C   0  0  0  0  0  0  0  0  0  0  0  0
   28.9513   31.6089   27.7096 Br  0  0  0  0  0  0  0  0  0  0  0  0
   30.9497   33.6082   26.4635 O   0  0  0  0  0  0  0  0  0  0  0  0
   30.2968   35.6210   27.3386 O   0  0  0  0  0  0  0  0  0  0  0  0
   29.8947   34.4010   26.8671 P   0  0  0  0  0  0  0  0  0  0  0  0
   28.8922   34.4960   25.8924 O   0  0  0  0  0  0  0  0  0  0  0  0
   31.6156   33.5728   27.1680 H   0  0  0  0  0  0  0  0  0  0  0  0
   29.2375   34.9676   25.1182 H   0  0  0  0  0  0  0  0  0  0  0  0
 10 11  2  0  0  0
 10 15  1  0  0  0
 11 12  1  0  0  0
 12 13  2  0  0  0
 13 14  1  0  0  0
 13 18  1  0  0  0
 14 15  2  0  0  0
 14 16  1  0  0  0
 15 19  1  0  0  0
 19 21  1  0  0  0
 19 22  1  0  0  0
 16 17  2  0  0  0
 17 18  1  0  0  0
 18  1  1  0  0  0
  1  2  1  0  0  0
  1  7  1  0  0  0
  2  3  1  0  0  0
  2  4  1  0  0  0
  4  5  1  0  0  0
  4  6  1  0  0  0
  6  7  1  0  0  0
  6 24  1  0  0  0
 24 25  1  0  0  0
 25 27  1  0  0  0
 20 21  1  0  0  0
 22 23  1  0  0  0
 38 40  1  0  0  0
 35 36  1  0  0  0
 31 32  1  0  0  0
 26 27  2  0  0  0
 39 40  2  0  0  0
 40 36  1  0  0  0
 40 41  1  0  0  0
 36 32  1  0  0  0
 36 37  1  0  0  0
 32 30  1  0  0  0
 32 33  2  0  0  0
 30 27  1  0  0  0
 27 28  1  0  0  0
  3  8  1  0  0  0
  5  9  1  0  0  0
 38 42  1  0  0  0
 31 34  1  0  0  0
 41 43  1  0  0  0
 28 29  1  0  0  0
M  END
> <minimizedAffinity>
-8.13985

$$$$
3AAQ_ARU_A_1


 43 45  0  0  0  0  0  0  0  0999 V2000
   28.1546   32.8793   22.6838 C   0  0  0  0  0  0  0  0  0  0  0  0
   27.7777   31.9294   23.7874 C   0  0  0  0  0  0  0  0  0  0  0  0
   27.8456   30.6141   23.3521 O   0  0  0  0  0  0  0  0  0  0  0  0
   26.3560   32.3546   24.0982 C   0  0  0  0  0  0  0  0  0  0  0  0
   25.3979   31.5285   23.4627 O   0  0  0  0  0  0  0  0  0  0  0  0
   26.2893   33.7252   23.4666 C   0  0  0  0  0  0  0  0  0  0  0  0
   27.6403   34.0690   23.2218 O   0  0  0  0  0  0  0  0  0  0  0  0
   27.2793   30.5019   22.5726 H   0  0  0  0  0  0  0  0  0  0  0  0
   25.5502   31.5347   22.5048 H   0  0  0  0  0  0  0  0  0  0  0  0
   32.3723   34.8099   24.5401 N   0  0  0  0  0  0  0  0  0  0  0  0
   31.1623   34.7921   25.0248 C   0  0  0  0  0  0  0  0  0  0  0  0
   30.1657   34.2488   24.4111 N   0  0  0  0  0  0  0  0  0  0  0  0
   30.3672   33.6832   23.2340 C   0  0  0  0  0  0  0  0  0  0  0  0
   31.6123   33.6823   22.6651 C   0  0  0  0  0  0  0  0  0  0  0  0
   32.6420   34.2776   23.3577 C   0  0  0  0  0  0  0  0  0  0  0  0
   31.5118   33.0630   21.5131 N   0  0  0  0  0  0  0  0  0  0  0  0
   30.2501   32.7066   21.3645 C   0  0  0  0  0  0  0  0  0  0  0  0
   29.5541   33.0854   22.4147 N   0  0  0  0  0  0  0  0  0  0  0  0
   33.8719   34.3065   22.8923 N   0  0  0  0  0  0  0  0  0  0  0  0
   34.7469   36.5263   22.5183 C   0  0  0  0  0  0  0  0  0  0  0  0
   34.2463   35.2656   21.8583 C   0  0  0  0  0  0  0  0  0  0  0  0
   34.8545   33.3464   23.3755 C   0  0  0  0  0  0  0  0  0  0  0  0
   35.2327   32.3636   22.2776 C   0  0  0  0  0  0  0  0  0  0  0  0
   25.6635   34.5020   24.5453 C   0  0  0  0  0  0  0  0  0  0  0  0
   25.4801   33.6595   25.5665 O   0  0  0  0  0  0  0  0  0  0  0  0
   24.2731   35.3846   26.6814 O   0  0  0  0  0  0  0  0  0  0  0  0
   24.9637   34.1646   26.9137 P   0  0  0  0  0  0  0  0  0  0  0  0
   24.0863   32.9898   27.4142 O   0  0  0  0  0  0  0  0  0  0  0  0
   23.2726   32.9469   26.8879 H   0  0  0  0  0  0  0  0  0  0  0  0
   26.2360   34.0603   27.8990 O   0  0  0  0  0  0  0  0  0  0  0  0
   28.0781   34.8248   26.4129 O   0  0  0  0  0  0  0  0  0  0  0  0
   27.5823   34.7800   27.7315 P   0  0  0  0  0  0  0  0  0  0  0  0
   27.5666   36.0324   28.3367 O   0  0  0  0  0  0  0  0  0  0  0  0
   28.0699   33.9319   26.0339 H   0  0  0  0  0  0  0  0  0  0  0  0
   30.3771   34.4112   28.5826 Br  0  0  0  0  0  0  0  0  0  0  0  0
   28.6870   33.5732   28.6431 C   0  0  0  0  0  0  0  0  0  0  0  0
   28.1031   33.3286   30.4893 Br  0  0  0  0  0  0  0  0  0  0  0  0
   28.6985   30.9688   28.9413 O   0  0  0  0  0  0  0  0  0  0  0  0
   29.8767   31.7444   27.1374 O   0  0  0  0  0  0  0  0  0  0  0  0
   28.7317   31.8494   27.8792 P   0  0  0  0  0  0  0  0  0  0  0  0
   27.5687   31.7924   27.0992 O   0  0  0  0  0  0  0  0  0  0  0  0
   29.5212   31.0443   29.4497 H   0  0  0  0  0  0  0  0  0  0  0  0
   27.5129   30.9268   26.6649 H   0  0  0  0  0  0  0  0  0  0  0  0
 10 11  2  0  0  0
 10 15  1  0  0  0
 11 12  1  0  0  0
 12 13  2  0  0  0
 13 14  1  0  0  0
 13 18  1  0  0  0
 14 15  2  0  0  0
 14 16  1  0  0  0
 15 19  1  0  0  0
 19 21  1  0  0  0
 19 22  1  0  0  0
 16 17  2  0  0  0
 17 18  1  0  0  0
 18  1  1  0  0  0
  1  2  1  0  0  0
  1  7  1  0  0  0
  2  3  1  0  0  0
  2  4  1  0  0  0
  4  5  1  0  0  0
  4  6  1  0  0  0
  6  7  1  0  0  0
  6 24  1  0  0  0
 24 25  1  0  0  0
 25 27  1  0  0  0
 20 21  1  0  0  0
 22 23  1  0  0  0
 38 40  1  0  0  0
 35 36  1  0  0  0
 31 32  1  0  0  0
 26 27  2  0  0  0
 39 40  2  0  0  0
 40 36  1  0  0  0
 40 41  1  0  0  0
 36 32  1  0  0  0
 36 37  1  0  0  0
 32 30  1  0  0  0
 32 33  2  0  0  0
 30 27  1  0  0  0
 27 28  1  0  0  0
  3  8  1  0  0  0
  5  9  1  0  0  0
 38 42  1  0  0  0
 31 34  1  0  0  0
 41 43  1  0  0  0
 28 29  1  0  0  0
M  END
> <minimizedAffinity>
-7.94692

$$$$
3AAQ_ARU_A_1


 43 45  0  0  0  0  0  0  0  0999 V2000
   27.2577   33.5023   28.2363 C   0  0  0  0  0  0  0  0  0  0  0  0
   27.4703   34.8324   27.5670 C   0  0  0  0  0  0  0  0  0  0  0  0
   27.3349   35.8708   28.4767 O   0  0  0  0  0  0  0  0  0  0  0  0
   26.3697   34.8406   26.5243 C   0  0  0  0  0  0  0  0  0  0  0  0
   25.2334   35.5703   26.9493 O   0  0  0  0  0  0  0  0  0  0  0  0
   25.9912   33.3801   26.4506 C   0  0  0  0  0  0  0  0  0  0  0  0
   27.0530   32.7055   27.0995 O   0  0  0  0  0  0  0  0  0  0  0  0
   26.4643   35.8173   28.9012 H   0  0  0  0  0  0  0  0  0  0  0  0
   24.9050   35.2002   27.7836 H   0  0  0  0  0  0  0  0  0  0  0  0
   30.3102   29.5587   28.5394 N   0  0  0  0  0  0  0  0  0  0  0  0
   29.3242   29.8074   27.7237 C   0  0  0  0  0  0  0  0  0  0  0  0
   28.6196   30.8869   27.7792 N   0  0  0  0  0  0  0  0  0  0  0  0
   28.8983   31.7892   28.7035 C   0  0  0  0  0  0  0  0  0  0  0  0
   29.9122   31.5795   29.5990 C   0  0  0  0  0  0  0  0  0  0  0  0
   30.6325   30.4108   29.5008 C   0  0  0  0  0  0  0  0  0  0  0  0
   29.9547   32.6260   30.3888 N   0  0  0  0  0  0  0  0  0  0  0  0
   28.9944   33.4472   30.0090 C   0  0  0  0  0  0  0  0  0  0  0  0
   28.3517   32.9354   28.9815 N   0  0  0  0  0  0  0  0  0  0  0  0
   31.6334   30.1371   30.3092 N   0  0  0  0  0  0  0  0  0  0  0  0
   32.9213   28.4150   31.4085 C   0  0  0  0  0  0  0  0  0  0  0  0
   31.5471   29.0122   31.2345 C   0  0  0  0  0  0  0  0  0  0  0  0
   32.8153   30.9879   30.3162 C   0  0  0  0  0  0  0  0  0  0  0  0
   33.3553   31.1718   28.9059 C   0  0  0  0  0  0  0  0  0  0  0  0
   25.9540   33.1719   24.9966 C   0  0  0  0  0  0  0  0  0  0  0  0
   27.2111   32.9293   24.6129 O   0  0  0  0  0  0  0  0  0  0  0  0
   26.7376   32.7476   22.2851 O   0  0  0  0  0  0  0  0  0  0  0  0
   27.6804   33.2854   23.2023 P   0  0  0  0  0  0  0  0  0  0  0  0
   27.7610   34.8322   23.2410 O   0  0  0  0  0  0  0  0  0  0  0  0
   26.8645   35.2024   23.2565 H   0  0  0  0  0  0  0  0  0  0  0  0
   29.2412   32.8808   23.1814 O   0  0  0  0  0  0  0  0  0  0  0  0
   29.9594   34.0280   25.2682 O   0  0  0  0  0  0  0  0  0  0  0  0
   30.2290   32.9913   24.3522 P   0  0  0  0  0  0  0  0  0  0  0  0
   30.4130   31.7628   24.9781 O   0  0  0  0  0  0  0  0  0  0  0  0
   29.8390   34.8615   24.7869 H   0  0  0  0  0  0  0  0  0  0  0  0
   33.1655   33.0459   24.5654 Br  0  0  0  0  0  0  0  0  0  0  0  0
   31.7544   33.5359   23.4117 C   0  0  0  0  0  0  0  0  0  0  0  0
   31.9059   32.6068   21.7020 Br  0  0  0  0  0  0  0  0  0  0  0  0
   30.4923   35.7082   22.6632 O   0  0  0  0  0  0  0  0  0  0  0  0
   32.6747   35.5709   21.9839 O   0  0  0  0  0  0  0  0  0  0  0  0
   31.7872   35.3777   23.0073 P   0  0  0  0  0  0  0  0  0  0  0  0
   32.1945   35.9819   24.2045 O   0  0  0  0  0  0  0  0  0  0  0  0
   30.2564   35.2683   21.8315 H   0  0  0  0  0  0  0  0  0  0  0  0
   32.2383   36.9433   24.0828 H   0  0  0  0  0  0  0  0  0  0  0  0
 10 11  2  0  0  0
 10 15  1  0  0  0
 11 12  1  0  0  0
 12 13  2  0  0  0
 13 14  1  0  0  0
 13 18  1  0  0  0
 14 15  2  0  0  0
 14 16  1  0  0  0
 15 19  1  0  0  0
 19 21  1  0  0  0
 19 22  1  0  0  0
 16 17  2  0  0  0
 17 18  1  0  0  0
 18  1  1  0  0  0
  1  2  1  0  0  0
  1  7  1  0  0  0
  2  3  1  0  0  0
  2  4  1  0  0  0
  4  5  1  0  0  0
  4  6  1  0  0  0
  6  7  1  0  0  0
  6 24  1  0  0  0
 24 25  1  0  0  0
 25 27  1  0  0  0
 20 21  1  0  0  0
 22 23  1  0  0  0
 38 40  1  0  0  0
 35 36  1  0  0  0
 31 32  1  0  0  0
 26 27  2  0  0  0
 39 40  2  0  0  0
 40 36  1  0  0  0
 40 41  1  0  0  0
 36 32  1  0  0  0
 36 37  1  0  0  0
 32 30  1  0  0  0
 32 33  2  0  0  0
 30 27  1  0  0  0
 27 28  1  0  0  0
  3  8  1  0  0  0
  5  9  1  0  0  0
 38 42  1  0  0  0
 31 34  1  0  0  0
 41 43  1  0  0  0
 28 29  1  0  0  0
M  END
> <minimizedAffinity>
-7.88259

$$$$
3AAQ_ARU_A_1


 43 45  0  0  0  0  0  0  0  0999 V2000
   28.1153   32.9828   23.2810 C   0  0  0  0  0  0  0  0  0  0  0  0
   26.6634   32.5901   23.2782 C   0  0  0  0  0  0  0  0  0  0  0  0
   26.2227   32.3354   21.9878 O   0  0  0  0  0  0  0  0  0  0  0  0
   26.0031   33.8177   23.8744 C   0  0  0  0  0  0  0  0  0  0  0  0
   25.4673   34.6739   22.8824 O   0  0  0  0  0  0  0  0  0  0  0  0
   27.1708   34.5222   24.5241 C   0  0  0  0  0  0  0  0  0  0  0  0
   28.1961   33.5472   24.5632 O   0  0  0  0  0  0  0  0  0  0  0  0
   26.3856   33.1130   21.4312 H   0  0  0  0  0  0  0  0  0  0  0  0
   26.1698   34.9342   22.2663 H   0  0  0  0  0  0  0  0  0  0  0  0
   32.9096   32.0397   22.2384 N   0  0  0  0  0  0  0  0  0  0  0  0
   32.2372   33.1559   22.2013 C   0  0  0  0  0  0  0  0  0  0  0  0
   30.9845   33.2336   22.5006 N   0  0  0  0  0  0  0  0  0  0  0  0
   30.3407   32.1370   22.8601 C   0  0  0  0  0  0  0  0  0  0  0  0
   30.9878   30.9315   22.9040 C   0  0  0  0  0  0  0  0  0  0  0  0
   32.3232   30.9001   22.5725 C   0  0  0  0  0  0  0  0  0  0  0  0
   30.1102   30.0340   23.2847 N   0  0  0  0  0  0  0  0  0  0  0  0
   28.9585   30.6546   23.4556 C   0  0  0  0  0  0  0  0  0  0  0  0
   29.1011   31.9365   23.1964 N   0  0  0  0  0  0  0  0  0  0  0  0
   33.0249   29.7880   22.6046 N   0  0  0  0  0  0  0  0  0  0  0  0
   33.3213   27.6530   21.5152 C   0  0  0  0  0  0  0  0  0  0  0  0
   33.4495   29.1483   21.3637 C   0  0  0  0  0  0  0  0  0  0  0  0
   33.3404   29.1644   23.8822 C   0  0  0  0  0  0  0  0  0  0  0  0
   34.7704   29.4775   24.2962 C   0  0  0  0  0  0  0  0  0  0  0  0
   26.6066   34.8458   25.8417 C   0  0  0  0  0  0  0  0  0  0  0  0
   27.2363   34.0691   26.7285 O   0  0  0  0  0  0  0  0  0  0  0  0
   27.4387   36.0179   28.0837 O   0  0  0  0  0  0  0  0  0  0  0  0
   27.6223   34.6090   28.1055 P   0  0  0  0  0  0  0  0  0  0  0  0
   26.6827   33.8317   29.0614 O   0  0  0  0  0  0  0  0  0  0  0  0
   25.7756   34.1604   28.9612 H   0  0  0  0  0  0  0  0  0  0  0  0
   29.0466   33.9231   28.4239 O   0  0  0  0  0  0  0  0  0  0  0  0
   28.3794   31.5436   28.1423 O   0  0  0  0  0  0  0  0  0  0  0  0
   29.4438   32.4675   28.1371 P   0  0  0  0  0  0  0  0  0  0  0  0
   30.2258   32.3717   26.9907 O   0  0  0  0  0  0  0  0  0  0  0  0
   27.8647   31.6480   28.9578 H   0  0  0  0  0  0  0  0  0  0  0  0
   31.5539   30.6894   29.1651 Br  0  0  0  0  0  0  0  0  0  0  0  0
   30.4274   32.1098   29.6902 C   0  0  0  0  0  0  0  0  0  0  0  0
   31.4797   33.6593   30.2390 Br  0  0  0  0  0  0  0  0  0  0  0  0
   28.3106   32.5381   31.1762 O   0  0  0  0  0  0  0  0  0  0  0  0
   30.1427   31.7498   32.3010 O   0  0  0  0  0  0  0  0  0  0  0  0
   29.3658   31.6486   31.1792 P   0  0  0  0  0  0  0  0  0  0  0  0
   28.9593   30.3339   30.9135 O   0  0  0  0  0  0  0  0  0  0  0  0
   28.6398   33.4309   31.3640 H   0  0  0  0  0  0  0  0  0  0  0  0
   28.4013   30.0149   31.6399 H   0  0  0  0  0  0  0  0  0  0  0  0
 10 11  2  0  0  0
 10 15  1  0  0  0
 11 12  1  0  0  0
 12 13  2  0  0  0
 13 14  1  0  0  0
 13 18  1  0  0  0
 14 15  2  0  0  0
 14 16  1  0  0  0
 15 19  1  0  0  0
 19 21  1  0  0  0
 19 22  1  0  0  0
 16 17  2  0  0  0
 17 18  1  0  0  0
 18  1  1  0  0  0
  1  2  1  0  0  0
  1  7  1  0  0  0
  2  3  1  0  0  0
  2  4  1  0  0  0
  4  5  1  0  0  0
  4  6  1  0  0  0
  6  7  1  0  0  0
  6 24  1  0  0  0
 24 25  1  0  0  0
 25 27  1  0  0  0
 20 21  1  0  0  0
 22 23  1  0  0  0
 38 40  1  0  0  0
 35 36  1  0  0  0
 31 32  1  0  0  0
 26 27  2  0  0  0
 39 40  2  0  0  0
 40 36  1  0  0  0
 40 41  1  0  0  0
 36 32  1  0  0  0
 36 37  1  0  0  0
 32 30  1  0  0  0
 32 33  2  0  0  0
 30 27  1  0  0  0
 27 28  1  0  0  0
  3  8  1  0  0  0
  5  9  1  0  0  0
 38 42  1  0  0  0
 31 34  1  0  0  0
 41 43  1  0  0  0
 28 29  1  0  0  0
M  END
> <minimizedAffinity>
-7.85230

$$$$
3AAQ_ARU_A_1


 43 45  0  0  0  0  0  0  0  0999 V2000
   28.7717   32.5256   22.9158 C   0  0  0  0  0  0  0  0  0  0  0  0
   27.4099   31.8874   22.9449 C   0  0  0  0  0  0  0  0  0  0  0  0
   27.0293   31.4768   21.6758 O   0  0  0  0  0  0  0  0  0  0  0  0
   26.5425   33.0179   23.4627 C   0  0  0  0  0  0  0  0  0  0  0  0
   25.8732   33.7017   22.4193 O   0  0  0  0  0  0  0  0  0  0  0  0
   27.5655   33.9551   24.0600 C   0  0  0  0  0  0  0  0  0  0  0  0
   28.7441   33.1776   24.1582 O   0  0  0  0  0  0  0  0  0  0  0  0
   27.0587   32.2330   21.0690 H   0  0  0  0  0  0  0  0  0  0  0  0
   26.5242   34.0395   21.7845 H   0  0  0  0  0  0  0  0  0  0  0  0
   33.7175   32.4278   22.2150 N   0  0  0  0  0  0  0  0  0  0  0  0
   32.8691   33.4145   22.1371 C   0  0  0  0  0  0  0  0  0  0  0  0
   31.6036   33.2733   22.3459 N   0  0  0  0  0  0  0  0  0  0  0  0
   31.1324   32.0770   22.6506 C   0  0  0  0  0  0  0  0  0  0  0  0
   31.9706   30.9978   22.7329 C   0  0  0  0  0  0  0  0  0  0  0  0
   33.3118   31.1993   22.4982 C   0  0  0  0  0  0  0  0  0  0  0  0
   31.2342   29.9576   23.0433 N   0  0  0  0  0  0  0  0  0  0  0  0
   29.9846   30.3710   23.1350 C   0  0  0  0  0  0  0  0  0  0  0  0
   29.9246   31.6632   22.8954 N   0  0  0  0  0  0  0  0  0  0  0  0
   34.1886   30.2216   22.5733 N   0  0  0  0  0  0  0  0  0  0  0  0
   34.2541   28.0835   21.4522 C   0  0  0  0  0  0  0  0  0  0  0  0
   34.6374   29.5398   21.3639 C   0  0  0  0  0  0  0  0  0  0  0  0
   34.6795   29.7839   23.8726 C   0  0  0  0  0  0  0  0  0  0  0  0
   35.9966   30.4669   24.2090 C   0  0  0  0  0  0  0  0  0  0  0  0
   26.9444   34.2607   25.3561 C   0  0  0  0  0  0  0  0  0  0  0  0
   27.7719   35.0982   25.9886 O   0  0  0  0  0  0  0  0  0  0  0  0
   27.7583   36.7191   27.7345 O   0  0  0  0  0  0  0  0  0  0  0  0
   27.6557   35.3220   27.4963 P   0  0  0  0  0  0  0  0  0  0  0  0
   26.2834   34.6892   27.8386 O   0  0  0  0  0  0  0  0  0  0  0  0
   25.5727   35.2523   27.4942 H   0  0  0  0  0  0  0  0  0  0  0  0
   28.6750   34.2530   28.1433 O   0  0  0  0  0  0  0  0  0  0  0  0
   30.4157   34.1794   26.3683 O   0  0  0  0  0  0  0  0  0  0  0  0
   30.1407   34.0304   27.7426 P   0  0  0  0  0  0  0  0  0  0  0  0
   31.0034   34.7737   28.5414 O   0  0  0  0  0  0  0  0  0  0  0  0
   29.7911   33.6446   25.8538 H   0  0  0  0  0  0  0  0  0  0  0  0
   29.9686   32.0830   29.9447 Br  0  0  0  0  0  0  0  0  0  0  0  0
   30.2733   32.1939   28.0853 C   0  0  0  0  0  0  0  0  0  0  0  0
   28.9208   31.1869   27.1026 Br  0  0  0  0  0  0  0  0  0  0  0  0
   32.8875   32.1745   28.2802 O   0  0  0  0  0  0  0  0  0  0  0  0
   32.0614   31.5362   26.2421 O   0  0  0  0  0  0  0  0  0  0  0  0
   31.9343   31.4430   27.6014 P   0  0  0  0  0  0  0  0  0  0  0  0
   31.8535   30.1185   28.0525 O   0  0  0  0  0  0  0  0  0  0  0  0
   32.9064   33.0806   27.9345 H   0  0  0  0  0  0  0  0  0  0  0  0
   32.6784   29.6540   27.8409 H   0  0  0  0  0  0  0  0  0  0  0  0
 10 11  2  0  0  0
 10 15  1  0  0  0
 11 12  1  0  0  0
 12 13  2  0  0  0
 13 14  1  0  0  0
 13 18  1  0  0  0
 14 15  2  0  0  0
 14 16  1  0  0  0
 15 19  1  0  0  0
 19 21  1  0  0  0
 19 22  1  0  0  0
 16 17  2  0  0  0
 17 18  1  0  0  0
 18  1  1  0  0  0
  1  2  1  0  0  0
  1  7  1  0  0  0
  2  3  1  0  0  0
  2  4  1  0  0  0
  4  5  1  0  0  0
  4  6  1  0  0  0
  6  7  1  0  0  0
  6 24  1  0  0  0
 24 25  1  0  0  0
 25 27  1  0  0  0
 20 21  1  0  0  0
 22 23  1  0  0  0
 38 40  1  0  0  0
 35 36  1  0  0  0
 31 32  1  0  0  0
 26 27  2  0  0  0
 39 40  2  0  0  0
 40 36  1  0  0  0
 40 41  1  0  0  0
 36 32  1  0  0  0
 36 37  1  0  0  0
 32 30  1  0  0  0
 32 33  2  0  0  0
 30 27  1  0  0  0
 27 28  1  0  0  0
  3  8  1  0  0  0
  5  9  1  0  0  0
 38 42  1  0  0  0
 31 34  1  0  0  0
 41 43  1  0  0  0
 28 29  1  0  0  0
M  END
> <minimizedAffinity>
-7.68448

$$$$
3AAQ_ARU_A_1


 43 45  0  0  0  0  0  0  0  0999 V2000
   27.3396   33.5894   27.9855 C   0  0  0  0  0  0  0  0  0  0  0  0
   27.4295   34.9702   27.3958 C   0  0  0  0  0  0  0  0  0  0  0  0
   27.2542   35.9378   28.3741 O   0  0  0  0  0  0  0  0  0  0  0  0
   26.2921   34.9600   26.3934 C   0  0  0  0  0  0  0  0  0  0  0  0
   25.1231   35.5754   26.9022 O   0  0  0  0  0  0  0  0  0  0  0  0
   26.0178   33.4826   26.2393 C   0  0  0  0  0  0  0  0  0  0  0  0
   27.1497   32.8506   26.8076 O   0  0  0  0  0  0  0  0  0  0  0  0
   26.4067   35.7936   28.8233 H   0  0  0  0  0  0  0  0  0  0  0  0
   24.8546   35.1314   27.7218 H   0  0  0  0  0  0  0  0  0  0  0  0
   30.2472   29.5503   28.4255 N   0  0  0  0  0  0  0  0  0  0  0  0
   29.1724   29.7484   27.7149 C   0  0  0  0  0  0  0  0  0  0  0  0
   28.5245   30.8642   27.7140 N   0  0  0  0  0  0  0  0  0  0  0  0
   28.9588   31.8598   28.4666 C   0  0  0  0  0  0  0  0  0  0  0  0
   30.0734   31.7089   29.2469 C   0  0  0  0  0  0  0  0  0  0  0  0
   30.7276   30.4984   29.2157 C   0  0  0  0  0  0  0  0  0  0  0  0
   30.2615   32.8435   29.8778 N   0  0  0  0  0  0  0  0  0  0  0  0
   29.2925   33.6626   29.5160 C   0  0  0  0  0  0  0  0  0  0  0  0
   28.4996   33.0612   28.6556 N   0  0  0  0  0  0  0  0  0  0  0  0
   31.8152   30.2739   29.9205 N   0  0  0  0  0  0  0  0  0  0  0  0
   32.3190   28.1633   30.9810 C   0  0  0  0  0  0  0  0  0  0  0  0
   31.7391   29.5415   31.1803 C   0  0  0  0  0  0  0  0  0  0  0  0
   33.0959   30.7987   29.4675 C   0  0  0  0  0  0  0  0  0  0  0  0
   33.7396   31.6554   30.5474 C   0  0  0  0  0  0  0  0  0  0  0  0
   25.9401   33.3617   24.7771 C   0  0  0  0  0  0  0  0  0  0  0  0
   27.0855   32.8000   24.3785 O   0  0  0  0  0  0  0  0  0  0  0  0
   27.3894   34.6535   22.9130 O   0  0  0  0  0  0  0  0  0  0  0  0
   28.0903   33.5862   23.5365 P   0  0  0  0  0  0  0  0  0  0  0  0
   29.1594   34.0107   24.5746 O   0  0  0  0  0  0  0  0  0  0  0  0
   28.7943   34.6999   25.1514 H   0  0  0  0  0  0  0  0  0  0  0  0
   28.8835   32.4602   22.6978 O   0  0  0  0  0  0  0  0  0  0  0  0
   28.9890   30.8034   24.5498 O   0  0  0  0  0  0  0  0  0  0  0  0
   29.2974   31.0693   23.2005 P   0  0  0  0  0  0  0  0  0  0  0  0
   28.8506   30.0674   22.3453 O   0  0  0  0  0  0  0  0  0  0  0  0
   29.3190   31.5268   25.1055 H   0  0  0  0  0  0  0  0  0  0  0  0
   31.7114   29.7889   22.1033 Br  0  0  0  0  0  0  0  0  0  0  0  0
   31.1588   31.2663   23.1398 C   0  0  0  0  0  0  0  0  0  0  0  0
   31.6696   32.9426   22.2803 Br  0  0  0  0  0  0  0  0  0  0  0  0
   33.2963   31.6387   24.6112 O   0  0  0  0  0  0  0  0  0  0  0  0
   31.8591   30.0290   25.3771 O   0  0  0  0  0  0  0  0  0  0  0  0
   31.9828   31.2797   24.8362 P   0  0  0  0  0  0  0  0  0  0  0  0
   31.2753   32.2560   25.5506 O   0  0  0  0  0  0  0  0  0  0  0  0
   33.7434   30.9349   24.1156 H   0  0  0  0  0  0  0  0  0  0  0  0
   31.6396   32.3283   26.4467 H   0  0  0  0  0  0  0  0  0  0  0  0
 10 11  2  0  0  0
 10 15  1  0  0  0
 11 12  1  0  0  0
 12 13  2  0  0  0
 13 14  1  0  0  0
 13 18  1  0  0  0
 14 15  2  0  0  0
 14 16  1  0  0  0
 15 19  1  0  0  0
 19 21  1  0  0  0
 19 22  1  0  0  0
 16 17  2  0  0  0
 17 18  1  0  0  0
 18  1  1  0  0  0
  1  2  1  0  0  0
  1  7  1  0  0  0
  2  3  1  0  0  0
  2  4  1  0  0  0
  4  5  1  0  0  0
  4  6  1  0  0  0
  6  7  1  0  0  0
  6 24  1  0  0  0
 24 25  1  0  0  0
 25 27  1  0  0  0
 20 21  1  0  0  0
 22 23  1  0  0  0
 38 40  1  0  0  0
 35 36  1  0  0  0
 31 32  1  0  0  0
 26 27  2  0  0  0
 39 40  2  0  0  0
 40 36  1  0  0  0
 40 41  1  0  0  0
 36 32  1  0  0  0
 36 37  1  0  0  0
 32 30  1  0  0  0
 32 33  2  0  0  0
 30 27  1  0  0  0
 27 28  1  0  0  0
  3  8  1  0  0  0
  5  9  1  0  0  0
 38 42  1  0  0  0
 31 34  1  0  0  0
 41 43  1  0  0  0
 28 29  1  0  0  0
M  END
> <minimizedAffinity>
-7.66832

$$$$
3AAQ_ARU_A_1


 43 45  0  0  0  0  0  0  0  0999 V2000
   28.1324   32.8272   23.0275 C   0  0  0  0  0  0  0  0  0  0  0  0
   27.5783   31.9673   24.1302 C   0  0  0  0  0  0  0  0  0  0  0  0
   27.1567   30.7414   23.6366 O   0  0  0  0  0  0  0  0  0  0  0  0
   26.4215   32.8074   24.6347 C   0  0  0  0  0  0  0  0  0  0  0  0
   25.1812   32.3936   24.0919 O   0  0  0  0  0  0  0  0  0  0  0  0
   26.7503   34.1705   24.0729 C   0  0  0  0  0  0  0  0  0  0  0  0
   28.1048   34.0724   23.6741 O   0  0  0  0  0  0  0  0  0  0  0  0
   26.5067   30.8834   22.9308 H   0  0  0  0  0  0  0  0  0  0  0  0
   25.2250   32.4265   23.1234 H   0  0  0  0  0  0  0  0  0  0  0  0
   32.3572   30.4124   24.1596 N   0  0  0  0  0  0  0  0  0  0  0  0
   31.2207   30.4767   24.7949 C   0  0  0  0  0  0  0  0  0  0  0  0
   30.2119   31.1575   24.3661 N   0  0  0  0  0  0  0  0  0  0  0  0
   30.3241   31.8278   23.2329 C   0  0  0  0  0  0  0  0  0  0  0  0
   31.4969   31.8120   22.5270 C   0  0  0  0  0  0  0  0  0  0  0  0
   32.5451   31.0737   23.0276 C   0  0  0  0  0  0  0  0  0  0  0  0
   31.3190   32.5581   21.4628 N   0  0  0  0  0  0  0  0  0  0  0  0
   30.0886   33.0319   21.5133 C   0  0  0  0  0  0  0  0  0  0  0  0
   29.4838   32.5854   22.5929 N   0  0  0  0  0  0  0  0  0  0  0  0
   33.7007   30.9900   22.4049 N   0  0  0  0  0  0  0  0  0  0  0  0
   35.0787   29.0296   22.1041 C   0  0  0  0  0  0  0  0  0  0  0  0
   33.9764   29.8708   21.5102 C   0  0  0  0  0  0  0  0  0  0  0  0
   34.7295   31.9924   22.6444 C   0  0  0  0  0  0  0  0  0  0  0  0
   35.0099   32.7897   21.3795 C   0  0  0  0  0  0  0  0  0  0  0  0
   26.5372   35.0201   25.2526 C   0  0  0  0  0  0  0  0  0  0  0  0
   27.6476   34.9339   25.9914 O   0  0  0  0  0  0  0  0  0  0  0  0
   27.6212   36.6872   27.6041 O   0  0  0  0  0  0  0  0  0  0  0  0
   27.6229   35.2715   27.4821 P   0  0  0  0  0  0  0  0  0  0  0  0
   26.3394   34.5606   27.9800 O   0  0  0  0  0  0  0  0  0  0  0  0
   25.5593   35.0343   27.6514 H   0  0  0  0  0  0  0  0  0  0  0  0
   28.7755   34.3452   28.1254 O   0  0  0  0  0  0  0  0  0  0  0  0
   30.0939   33.5480   26.1728 O   0  0  0  0  0  0  0  0  0  0  0  0
   30.1399   34.0190   27.5004 P   0  0  0  0  0  0  0  0  0  0  0  0
   31.0358   35.0709   27.6609 O   0  0  0  0  0  0  0  0  0  0  0  0
   29.4583   32.8179   26.1106 H   0  0  0  0  0  0  0  0  0  0  0  0
   32.3501   32.1265   27.9531 Br  0  0  0  0  0  0  0  0  0  0  0  0
   30.6048   32.5351   28.5442 C   0  0  0  0  0  0  0  0  0  0  0  0
   30.6049   32.9744   30.4459 Br  0  0  0  0  0  0  0  0  0  0  0  0
   28.7005   31.3228   27.2115 O   0  0  0  0  0  0  0  0  0  0  0  0
   28.6646   30.9879   29.4765 O   0  0  0  0  0  0  0  0  0  0  0  0
   29.4373   31.0667   28.3500 P   0  0  0  0  0  0  0  0  0  0  0  0
   30.2943   29.9682   28.1979 O   0  0  0  0  0  0  0  0  0  0  0  0
   28.1247   32.0883   27.3644 H   0  0  0  0  0  0  0  0  0  0  0  0
   29.7683   29.1603   28.0905 H   0  0  0  0  0  0  0  0  0  0  0  0
 10 11  2  0  0  0
 10 15  1  0  0  0
 11 12  1  0  0  0
 12 13  2  0  0  0
 13 14  1  0  0  0
 13 18  1  0  0  0
 14 15  2  0  0  0
 14 16  1  0  0  0
 15 19  1  0  0  0
 19 21  1  0  0  0
 19 22  1  0  0  0
 16 17  2  0  0  0
 17 18  1  0  0  0
 18  1  1  0  0  0
  1  2  1  0  0  0
  1  7  1  0  0  0
  2  3  1  0  0  0
  2  4  1  0  0  0
  4  5  1  0  0  0
  4  6  1  0  0  0
  6  7  1  0  0  0
  6 24  1  0  0  0
 24 25  1  0  0  0
 25 27  1  0  0  0
 20 21  1  0  0  0
 22 23  1  0  0  0
 38 40  1  0  0  0
 35 36  1  0  0  0
 31 32  1  0  0  0
 26 27  2  0  0  0
 39 40  2  0  0  0
 40 36  1  0  0  0
 40 41  1  0  0  0
 36 32  1  0  0  0
 36 37  1  0  0  0
 32 30  1  0  0  0
 32 33  2  0  0  0
 30 27  1  0  0  0
 27 28  1  0  0  0
  3  8  1  0  0  0
  5  9  1  0  0  0
 38 42  1  0  0  0
 31 34  1  0  0  0
 41 43  1  0  0  0
 28 29  1  0  0  0
M  END
> <minimizedAffinity>
-7.50729

$$$$
3AAQ_ARU_A_1


 43 45  0  0  0  0  0  0  0  0999 V2000
   27.2368   33.5642   28.0780 C   0  0  0  0  0  0  0  0  0  0  0  0
   27.4164   34.8728   27.3584 C   0  0  0  0  0  0  0  0  0  0  0  0
   27.3314   35.9386   28.2421 O   0  0  0  0  0  0  0  0  0  0  0  0
   26.2623   34.8535   26.3754 C   0  0  0  0  0  0  0  0  0  0  0  0
   25.1515   35.5998   26.8375 O   0  0  0  0  0  0  0  0  0  0  0  0
   25.8775   33.3928   26.3662 C   0  0  0  0  0  0  0  0  0  0  0  0
   26.9707   32.7342   26.9782 O   0  0  0  0  0  0  0  0  0  0  0  0
   26.4843   35.9011   28.7133 H   0  0  0  0  0  0  0  0  0  0  0  0
   24.8669   35.2562   27.6988 H   0  0  0  0  0  0  0  0  0  0  0  0
   30.1868   29.5496   28.4546 N   0  0  0  0  0  0  0  0  0  0  0  0
   29.1491   29.7716   27.6975 C   0  0  0  0  0  0  0  0  0  0  0  0
   28.4826   30.8762   27.7224 N   0  0  0  0  0  0  0  0  0  0  0  0
   28.8575   31.8341   28.5519 C   0  0  0  0  0  0  0  0  0  0  0  0
   29.9303   31.6558   29.3833 C   0  0  0  0  0  0  0  0  0  0  0  0
   30.6065   30.4586   29.3216 C   0  0  0  0  0  0  0  0  0  0  0  0
   30.0637   32.7558   30.0855 N   0  0  0  0  0  0  0  0  0  0  0  0
   29.1016   33.5797   29.7163 C   0  0  0  0  0  0  0  0  0  0  0  0
   28.3676   33.0161   28.7812 N   0  0  0  0  0  0  0  0  0  0  0  0
   31.6578   30.2107   30.0722 N   0  0  0  0  0  0  0  0  0  0  0  0
   33.5095   31.6588   30.6263 C   0  0  0  0  0  0  0  0  0  0  0  0
   32.9857   30.6395   29.6454 C   0  0  0  0  0  0  0  0  0  0  0  0
   31.5052   29.4632   31.3126 C   0  0  0  0  0  0  0  0  0  0  0  0
   32.3209   28.1797   31.2722 C   0  0  0  0  0  0  0  0  0  0  0  0
   25.7631   33.1409   24.9231 C   0  0  0  0  0  0  0  0  0  0  0  0
   27.0099   33.0367   24.4532 O   0  0  0  0  0  0  0  0  0  0  0  0
   27.5993   30.7521   24.1233 O   0  0  0  0  0  0  0  0  0  0  0  0
   27.3700   31.9668   23.4225 P   0  0  0  0  0  0  0  0  0  0  0  0
   26.1428   31.9659   22.4765 O   0  0  0  0  0  0  0  0  0  0  0  0
   25.3852   31.5644   22.9301 H   0  0  0  0  0  0  0  0  0  0  0  0
   28.4923   32.6603   22.4952 O   0  0  0  0  0  0  0  0  0  0  0  0
   29.6760   34.7298   21.7866 O   0  0  0  0  0  0  0  0  0  0  0  0
   29.3558   33.8763   22.8616 P   0  0  0  0  0  0  0  0  0  0  0  0
   28.8268   34.5650   23.9483 O   0  0  0  0  0  0  0  0  0  0  0  0
   30.0398   34.2064   21.0555 H   0  0  0  0  0  0  0  0  0  0  0  0
   31.1293   31.7260   21.9118 Br  0  0  0  0  0  0  0  0  0  0  0  0
   30.9505   32.9960   23.2966 C   0  0  0  0  0  0  0  0  0  0  0  0
   32.4645   34.2278   23.3037 Br  0  0  0  0  0  0  0  0  0  0  0  0
   32.0233   32.6993   25.6701 O   0  0  0  0  0  0  0  0  0  0  0  0
   31.0171   30.8268   24.8188 O   0  0  0  0  0  0  0  0  0  0  0  0
   30.9355   32.1810   24.9973 P   0  0  0  0  0  0  0  0  0  0  0  0
   29.7162   32.5852   25.5578 O   0  0  0  0  0  0  0  0  0  0  0  0
   32.8409   32.3932   25.2474 H   0  0  0  0  0  0  0  0  0  0  0  0
   29.6267   32.2049   26.4457 H   0  0  0  0  0  0  0  0  0  0  0  0
 10 11  2  0  0  0
 10 15  1  0  0  0
 11 12  1  0  0  0
 12 13  2  0  0  0
 13 14  1  0  0  0
 13 18  1  0  0  0
 14 15  2  0  0  0
 14 16  1  0  0  0
 15 19  1  0  0  0
 19 21  1  0  0  0
 19 22  1  0  0  0
 16 17  2  0  0  0
 17 18  1  0  0  0
 18  1  1  0  0  0
  1  2  1  0  0  0
  1  7  1  0  0  0
  2  3  1  0  0  0
  2  4  1  0  0  0
  4  5  1  0  0  0
  4  6  1  0  0  0
  6  7  1  0  0  0
  6 24  1  0  0  0
 24 25  1  0  0  0
 25 27  1  0  0  0
 20 21  1  0  0  0
 22 23  1  0  0  0
 38 40  1  0  0  0
 35 36  1  0  0  0
 31 32  1  0  0  0
 26 27  2  0  0  0
 39 40  2  0  0  0
 40 36  1  0  0  0
 40 41  1  0  0  0
 36 32  1  0  0  0
 36 37  1  0  0  0
 32 30  1  0  0  0
 32 33  2  0  0  0
 30 27  1  0  0  0
 27 28  1  0  0  0
  3  8  1  0  0  0
  5  9  1  0  0  0
 38 42  1  0  0  0
 31 34  1  0  0  0
 41 43  1  0  0  0
 28 29  1  0  0  0
M  END
> <minimizedAffinity>
-7.50476

$$$$
3AAQ_ARU_A_1


 43 45  0  0  0  0  0  0  0  0999 V2000
   27.5872   33.8288   23.5719 C   0  0  0  0  0  0  0  0  0  0  0  0
   26.5560   32.8136   23.9823 C   0  0  0  0  0  0  0  0  0  0  0  0
   25.9342   32.2638   22.8709 O   0  0  0  0  0  0  0  0  0  0  0  0
   25.6030   33.6500   24.8134 C   0  0  0  0  0  0  0  0  0  0  0  0
   24.4692   34.0652   24.0743 O   0  0  0  0  0  0  0  0  0  0  0  0
   26.4377   34.8709   25.1211 C   0  0  0  0  0  0  0  0  0  0  0  0
   27.7612   34.4858   24.7997 O   0  0  0  0  0  0  0  0  0  0  0  0
   25.5468   32.9723   22.3335 H   0  0  0  0  0  0  0  0  0  0  0  0
   24.7571   34.5599   23.2912 H   0  0  0  0  0  0  0  0  0  0  0  0
   31.1503   30.4529   24.5043 N   0  0  0  0  0  0  0  0  0  0  0  0
   30.0254   30.6905   25.1186 C   0  0  0  0  0  0  0  0  0  0  0  0
   29.2038   31.6150   24.7508 N   0  0  0  0  0  0  0  0  0  0  0  0
   29.5066   32.3649   23.7058 C   0  0  0  0  0  0  0  0  0  0  0  0
   30.6804   32.1744   23.0278 C   0  0  0  0  0  0  0  0  0  0  0  0
   31.5250   31.1778   23.4611 C   0  0  0  0  0  0  0  0  0  0  0  0
   30.7127   33.0528   22.0540 N   0  0  0  0  0  0  0  0  0  0  0  0
   29.6093   33.7718   22.1333 C   0  0  0  0  0  0  0  0  0  0  0  0
   28.8753   33.3508   23.1407 N   0  0  0  0  0  0  0  0  0  0  0  0
   32.6639   30.9158   22.8574 N   0  0  0  0  0  0  0  0  0  0  0  0
   33.4324   28.6756   22.3845 C   0  0  0  0  0  0  0  0  0  0  0  0
   32.7309   29.8878   21.8241 C   0  0  0  0  0  0  0  0  0  0  0  0
   33.8752   31.6205   23.2534 C   0  0  0  0  0  0  0  0  0  0  0  0
   34.5781   32.2084   22.0391 C   0  0  0  0  0  0  0  0  0  0  0  0
   26.1951   35.0218   26.5624 C   0  0  0  0  0  0  0  0  0  0  0  0
   27.3928   35.0076   27.1552 O   0  0  0  0  0  0  0  0  0  0  0  0
   26.6286   33.9074   29.1253 O   0  0  0  0  0  0  0  0  0  0  0  0
   27.7245   33.9647   28.2226 P   0  0  0  0  0  0  0  0  0  0  0  0
   27.9681   32.6798   27.3917 O   0  0  0  0  0  0  0  0  0  0  0  0
   27.1228   32.3539   27.0449 H   0  0  0  0  0  0  0  0  0  0  0  0
   29.2217   34.3324   28.6955 O   0  0  0  0  0  0  0  0  0  0  0  0
   30.3813   33.9082   26.5364 O   0  0  0  0  0  0  0  0  0  0  0  0
   30.4371   34.5601   27.7848 P   0  0  0  0  0  0  0  0  0  0  0  0
   30.7347   35.9136   27.6652 O   0  0  0  0  0  0  0  0  0  0  0  0
   30.1717   32.9707   26.6704 H   0  0  0  0  0  0  0  0  0  0  0  0
   33.3482   34.4411   28.2118 Br  0  0  0  0  0  0  0  0  0  0  0  0
   31.7342   33.6405   28.7744 C   0  0  0  0  0  0  0  0  0  0  0  0
   31.4731   33.8869   30.6928 Br  0  0  0  0  0  0  0  0  0  0  0  0
   30.4110   31.4009   28.4492 O   0  0  0  0  0  0  0  0  0  0  0  0
   32.4289   31.1906   29.5111 O   0  0  0  0  0  0  0  0  0  0  0  0
   31.7385   31.7768   28.4854 P   0  0  0  0  0  0  0  0  0  0  0  0
   32.3721   31.6261   27.2445 O   0  0  0  0  0  0  0  0  0  0  0  0
   30.0166   31.5224   29.3270 H   0  0  0  0  0  0  0  0  0  0  0  0
   32.4169   30.6843   27.0165 H   0  0  0  0  0  0  0  0  0  0  0  0
 10 11  2  0  0  0
 10 15  1  0  0  0
 11 12  1  0  0  0
 12 13  2  0  0  0
 13 14  1  0  0  0
 13 18  1  0  0  0
 14 15  2  0  0  0
 14 16  1  0  0  0
 15 19  1  0  0  0
 19 21  1  0  0  0
 19 22  1  0  0  0
 16 17  2  0  0  0
 17 18  1  0  0  0
 18  1  1  0  0  0
  1  2  1  0  0  0
  1  7  1  0  0  0
  2  3  1  0  0  0
  2  4  1  0  0  0
  4  5  1  0  0  0
  4  6  1  0  0  0
  6  7  1  0  0  0
  6 24  1  0  0  0
 24 25  1  0  0  0
 25 27  1  0  0  0
 20 21  1  0  0  0
 22 23  1  0  0  0
 38 40  1  0  0  0
 35 36  1  0  0  0
 31 32  1  0  0  0
 26 27  2  0  0  0
 39 40  2  0  0  0
 40 36  1  0  0  0
 40 41  1  0  0  0
 36 32  1  0  0  0
 36 37  1  0  0  0
 32 30  1  0  0  0
 32 33  2  0  0  0
 30 27  1  0  0  0
 27 28  1  0  0  0
  3  8  1  0  0  0
  5  9  1  0  0  0
 38 42  1  0  0  0
 31 34  1  0  0  0
 41 43  1  0  0  0
 28 29  1  0  0  0
M  END
> <minimizedAffinity>
-7.49978

$$$$
