6B4U_CN7_A_401


 42 47  0  0  0  0  0  0  0  0999 V2000
   -6.8521   15.2136   -1.0725 C   0  0  0  0  0  0  0  0  0  0  0  0
   -7.0966   17.4241   -0.2342 C   0  0  0  0  0  0  0  0  0  0  0  0
   -6.9513   18.5982    0.5602 C   0  0  0  0  0  0  0  0  0  0  0  0
   -8.0063   17.6873   -1.2546 C   0  0  0  0  0  0  0  0  0  0  0  0
   -7.7457   19.5740    0.0012 C   0  0  0  0  0  0  0  0  0  0  0  0
   -6.5273   16.1610   -0.1286 C   0  0  0  0  0  0  0  0  0  0  0  0
   -7.7611   15.4851   -2.0676 C   0  0  0  0  0  0  0  0  0  0  0  0
   -8.3754   16.7168   -2.1821 C   0  0  0  0  0  0  0  0  0  0  0  0
   -8.3769   19.0055   -1.0792 N   0  0  0  0  0  0  0  0  0  0  0  0
  -11.3490   17.1619   -5.1318 C   0  0  0  0  0  0  0  0  0  0  0  0
  -10.0282   17.3444   -5.4743 C   0  0  0  0  0  0  0  0  0  0  0  0
   -9.0371   17.2066   -4.5247 C   0  0  0  0  0  0  0  0  0  0  0  0
  -11.6801   16.8526   -3.8342 C   0  0  0  0  0  0  0  0  0  0  0  0
  -10.6939   16.7169   -2.8823 C   0  0  0  0  0  0  0  0  0  0  0  0
   -9.3674   16.8772   -3.2168 C   0  0  0  0  0  0  0  0  0  0  0  0
   -7.6287   17.4265   -4.9839 C   0  0  0  0  0  0  0  0  0  0  0  0
   -8.0131   20.9053    0.4752 C   0  0  0  0  0  0  0  0  0  0  0  0
   -7.3258   21.8684    0.1798 O   0  0  0  0  0  0  0  0  0  0  0  0
   -9.1329   21.0026    1.2220 O   0  0  0  0  0  0  0  0  0  0  0  0
   -9.6296   20.2343    1.4239 H   0  0  0  0  0  0  0  0  0  0  0  0
   -6.1340   18.7267    1.7879 C   0  0  0  0  0  0  0  0  0  0  0  0
   -4.8523   19.5235    1.6367 C   0  0  0  0  0  0  0  0  0  0  0  0
   -3.6022   18.6677    1.6849 C   0  0  0  0  0  0  0  0  0  0  0  0
   -3.9897   17.3402    2.0347 O   0  0  0  0  0  0  0  0  0  0  0  0
   -0.9650   15.3796    1.2091 C   0  0  0  0  0  0  0  0  0  0  0  0
   -2.0597   13.5763    4.1766 C   0  0  0  0  0  0  0  0  0  0  0  0
   -4.0156   15.4893    4.0259 C   0  0  0  0  0  0  0  0  0  0  0  0
   -0.9988   14.4680    2.2406 C   0  0  0  0  0  0  0  0  0  0  0  0
   -2.0168   14.5170    3.1684 C   0  0  0  0  0  0  0  0  0  0  0  0
   -3.0630   13.5945    5.1189 C   0  0  0  0  0  0  0  0  0  0  0  0
   -4.0433   14.5606    5.0408 C   0  0  0  0  0  0  0  0  0  0  0  0
   -1.9428   16.3466    1.1000 C   0  0  0  0  0  0  0  0  0  0  0  0
   -2.9975   15.4889    3.0819 C   0  0  0  0  0  0  0  0  0  0  0  0
   -2.9548   16.4099    2.0503 C   0  0  0  0  0  0  0  0  0  0  0  0
   -9.1382   19.8185   -2.0221 C   0  0  0  0  0  0  0  0  0  0  0  0
   -8.1008   20.4032   -2.9738 C   0  0  0  0  0  0  0  0  0  0  0  0
   -7.2318   22.5947   -3.6039 C   0  0  0  0  0  0  0  0  0  0  0  0
   -7.6538   24.0006   -4.0035 C   0  0  0  0  0  0  0  0  0  0  0  0
   -9.5295   22.2908   -2.7165 C   0  0  0  0  0  0  0  0  0  0  0  0
   -9.8172   23.7174   -3.1558 C   0  0  0  0  0  0  0  0  0  0  0  0
   -8.4463   21.7207   -3.5737 N   0  0  0  0  0  0  0  0  0  0  0  0
   -8.6089   24.4705   -3.0505 O   0  0  0  0  0  0  0  0  0  0  0  0
 42 38  1  0  0  0
 42 40  1  0  0  0
 38 37  1  0  0  0
 10 13  2  0  0  0
 10 11  1  0  0  0
 13 14  1  0  0  0
 40 39  1  0  0  0
 37 41  1  0  0  0
 11 12  2  0  0  0
 14 15  2  0  0  0
 39 41  1  0  0  0
 41 36  1  0  0  0
 12 15  1  0  0  0
 12 16  1  0  0  0
 15  8  1  0  0  0
 36 35  1  0  0  0
 35  9  1  0  0  0
  8  7  2  0  0  0
  8  4  1  0  0  0
  7  1  1  0  0  0
  9  4  1  0  0  0
  9  5  1  0  0  0
  4  2  2  0  0  0
  1  6  2  0  0  0
  5 17  1  0  0  0
  5  3  2  0  0  0
  2  6  1  0  0  0
  2  3  1  0  0  0
 18 17  2  0  0  0
 17 19  1  0  0  0
  3 21  1  0  0  0
 25 32  2  0  0  0
 25 28  1  0  0  0
 32 34  1  0  0  0
 23 22  1  0  0  0
 23 24  1  0  0  0
 21 22  1  0  0  0
 28 29  2  0  0  0
 34 24  1  0  0  0
 34 33  2  0  0  0
 29 33  1  0  0  0
 29 26  1  0  0  0
 33 27  1  0  0  0
 26 30  2  0  0  0
 27 31  2  0  0  0
 30 31  1  0  0  0
 19 20  1  0  0  0
M  END
> <minimizedAffinity>
-11.37245

$$$$
6B4U_CN7_A_401


 42 47  0  0  0  0  0  0  0  0999 V2000
   -7.1841   15.1313   -1.3430 C   0  0  0  0  0  0  0  0  0  0  0  0
   -7.4868   17.3484   -0.5421 C   0  0  0  0  0  0  0  0  0  0  0  0
   -7.4173   18.5217    0.2636 C   0  0  0  0  0  0  0  0  0  0  0  0
   -8.2589   17.6262   -1.6667 C   0  0  0  0  0  0  0  0  0  0  0  0
   -8.1180   19.5111   -0.3892 C   0  0  0  0  0  0  0  0  0  0  0  0
   -6.9594   16.0749   -0.3667 C   0  0  0  0  0  0  0  0  0  0  0  0
   -7.9585   15.4174   -2.4423 C   0  0  0  0  0  0  0  0  0  0  0  0
   -8.5300   16.6604   -2.6321 C   0  0  0  0  0  0  0  0  0  0  0  0
   -8.6226   18.9517   -1.5387 N   0  0  0  0  0  0  0  0  0  0  0  0
  -10.9364   17.1915   -6.0479 C   0  0  0  0  0  0  0  0  0  0  0  0
  -11.5359   16.9409   -4.8342 C   0  0  0  0  0  0  0  0  0  0  0  0
  -10.7682   16.7608   -3.7024 C   0  0  0  0  0  0  0  0  0  0  0  0
   -9.5659   17.2504   -6.1317 C   0  0  0  0  0  0  0  0  0  0  0  0
   -8.7954   17.0683   -5.0046 C   0  0  0  0  0  0  0  0  0  0  0  0
   -9.3840   16.8369   -3.7809 C   0  0  0  0  0  0  0  0  0  0  0  0
  -11.5031   16.4891   -2.4260 C   0  0  0  0  0  0  0  0  0  0  0  0
   -8.4156   20.8486    0.0477 C   0  0  0  0  0  0  0  0  0  0  0  0
   -9.4129   21.1337    0.6892 O   0  0  0  0  0  0  0  0  0  0  0  0
   -7.4570   21.7475   -0.2590 O   0  0  0  0  0  0  0  0  0  0  0  0
   -6.7073   21.4823   -0.7546 H   0  0  0  0  0  0  0  0  0  0  0  0
   -6.7548   18.6380    1.5825 C   0  0  0  0  0  0  0  0  0  0  0  0
   -5.5356   19.5394    1.6215 C   0  0  0  0  0  0  0  0  0  0  0  0
   -4.2613   18.8123    2.0024 C   0  0  0  0  0  0  0  0  0  0  0  0
   -4.3816   17.4573    1.5733 O   0  0  0  0  0  0  0  0  0  0  0  0
   -4.3573   15.2420    4.5341 C   0  0  0  0  0  0  0  0  0  0  0  0
   -1.1786   14.2839    3.0394 C   0  0  0  0  0  0  0  0  0  0  0  0
   -2.0124   16.1679    1.2330 C   0  0  0  0  0  0  0  0  0  0  0  0
   -3.1600   14.5956    4.3221 C   0  0  0  0  0  0  0  0  0  0  0  0
   -2.3928   14.9127    3.2219 C   0  0  0  0  0  0  0  0  0  0  0  0
   -0.3860   14.5776    1.9530 C   0  0  0  0  0  0  0  0  0  0  0  0
   -0.8109   15.5241    1.0451 C   0  0  0  0  0  0  0  0  0  0  0  0
   -4.7974   16.2040    3.6486 C   0  0  0  0  0  0  0  0  0  0  0  0
   -2.8260   15.8648    2.3164 C   0  0  0  0  0  0  0  0  0  0  0  0
   -4.0343   16.5049    2.5268 C   0  0  0  0  0  0  0  0  0  0  0  0
   -9.2462   19.7765   -2.5684 C   0  0  0  0  0  0  0  0  0  0  0  0
   -8.0914   20.3005   -3.4144 C   0  0  0  0  0  0  0  0  0  0  0  0
   -6.9729   22.4544   -3.6675 C   0  0  0  0  0  0  0  0  0  0  0  0
   -7.2204   23.9243   -3.9718 C   0  0  0  0  0  0  0  0  0  0  0  0
   -9.3981   22.2764   -3.1716 C   0  0  0  0  0  0  0  0  0  0  0  0
   -9.5056   23.7585   -3.4925 C   0  0  0  0  0  0  0  0  0  0  0  0
   -8.2387   21.6948   -3.9137 N   0  0  0  0  0  0  0  0  0  0  0  0
   -8.2762   24.3858   -3.1272 O   0  0  0  0  0  0  0  0  0  0  0  0
 42 38  1  0  0  0
 42 40  1  0  0  0
 38 37  1  0  0  0
 10 13  2  0  0  0
 10 11  1  0  0  0
 13 14  1  0  0  0
 40 39  1  0  0  0
 37 41  1  0  0  0
 11 12  2  0  0  0
 14 15  2  0  0  0
 39 41  1  0  0  0
 41 36  1  0  0  0
 12 15  1  0  0  0
 12 16  1  0  0  0
 15  8  1  0  0  0
 36 35  1  0  0  0
 35  9  1  0  0  0
  8  7  2  0  0  0
  8  4  1  0  0  0
  7  1  1  0  0  0
  9  4  1  0  0  0
  9  5  1  0  0  0
  4  2  2  0  0  0
  1  6  2  0  0  0
  5 17  1  0  0  0
  5  3  2  0  0  0
  2  6  1  0  0  0
  2  3  1  0  0  0
 18 17  2  0  0  0
 17 19  1  0  0  0
  3 21  1  0  0  0
 25 32  2  0  0  0
 25 28  1  0  0  0
 32 34  1  0  0  0
 23 22  1  0  0  0
 23 24  1  0  0  0
 21 22  1  0  0  0
 28 29  2  0  0  0
 34 24  1  0  0  0
 34 33  2  0  0  0
 29 33  1  0  0  0
 29 26  1  0  0  0
 33 27  1  0  0  0
 26 30  2  0  0  0
 27 31  2  0  0  0
 30 31  1  0  0  0
 19 20  1  0  0  0
M  END
> <minimizedAffinity>
-10.64354

$$$$
6B4U_CN7_A_401


 42 47  0  0  0  0  0  0  0  0999 V2000
   -7.2334   15.0757   -1.8521 C   0  0  0  0  0  0  0  0  0  0  0  0
   -7.3235   17.3255   -1.0911 C   0  0  0  0  0  0  0  0  0  0  0  0
   -7.0462   18.5311   -0.3838 C   0  0  0  0  0  0  0  0  0  0  0  0
   -8.3748   17.5590   -1.9733 C   0  0  0  0  0  0  0  0  0  0  0  0
   -7.9057   19.4951   -0.8612 C   0  0  0  0  0  0  0  0  0  0  0  0
   -6.7586   16.0584   -1.0137 C   0  0  0  0  0  0  0  0  0  0  0  0
   -8.2801   15.3187   -2.7097 C   0  0  0  0  0  0  0  0  0  0  0  0
   -8.8912   16.5549   -2.7876 C   0  0  0  0  0  0  0  0  0  0  0  0
   -8.7000   18.8902   -1.8058 N   0  0  0  0  0  0  0  0  0  0  0  0
  -12.2723   16.9046   -5.2750 C   0  0  0  0  0  0  0  0  0  0  0  0
  -11.0320   17.2317   -5.7748 C   0  0  0  0  0  0  0  0  0  0  0  0
   -9.9106   17.1278   -4.9780 C   0  0  0  0  0  0  0  0  0  0  0  0
  -12.3927   16.4838   -3.9721 C   0  0  0  0  0  0  0  0  0  0  0  0
  -11.2761   16.3814   -3.1723 C   0  0  0  0  0  0  0  0  0  0  0  0
  -10.0272   16.6866   -3.6666 C   0  0  0  0  0  0  0  0  0  0  0  0
   -8.6033   17.5078   -5.6019 C   0  0  0  0  0  0  0  0  0  0  0  0
   -8.0834   20.8508   -0.4153 C   0  0  0  0  0  0  0  0  0  0  0  0
   -7.5229   21.8017   -0.9338 O   0  0  0  0  0  0  0  0  0  0  0  0
   -8.9787   20.9817    0.5859 O   0  0  0  0  0  0  0  0  0  0  0  0
   -9.3845   20.2215    0.9539 H   0  0  0  0  0  0  0  0  0  0  0  0
   -6.0505   18.6998    0.6987 C   0  0  0  0  0  0  0  0  0  0  0  0
   -6.4772   18.1887    2.0615 C   0  0  0  0  0  0  0  0  0  0  0  0
   -5.8569   16.8544    2.4254 C   0  0  0  0  0  0  0  0  0  0  0  0
   -4.6223   17.1094    3.0928 O   0  0  0  0  0  0  0  0  0  0  0  0
   -1.7840   16.1359    0.9316 C   0  0  0  0  0  0  0  0  0  0  0  0
   -1.5717   13.4955    3.4295 C   0  0  0  0  0  0  0  0  0  0  0  0
   -3.7251   14.8931    4.3871 C   0  0  0  0  0  0  0  0  0  0  0  0
   -1.3451   15.0279    1.6214 C   0  0  0  0  0  0  0  0  0  0  0  0
   -1.9987   14.6277    2.7670 C   0  0  0  0  0  0  0  0  0  0  0  0
   -2.2023   13.0661    4.5753 C   0  0  0  0  0  0  0  0  0  0  0  0
   -3.2835   13.7742    5.0550 C   0  0  0  0  0  0  0  0  0  0  0  0
   -2.8732   16.8525    1.3825 C   0  0  0  0  0  0  0  0  0  0  0  0
   -3.0838   15.3431    3.2408 C   0  0  0  0  0  0  0  0  0  0  0  0
   -3.5158   16.4620    2.5512 C   0  0  0  0  0  0  0  0  0  0  0  0
   -9.5868   19.6737   -2.6597 C   0  0  0  0  0  0  0  0  0  0  0  0
  -10.9428   19.6414   -1.9640 C   0  0  0  0  0  0  0  0  0  0  0  0
  -12.7526   20.7569   -0.7660 C   0  0  0  0  0  0  0  0  0  0  0  0
  -13.3019   22.1262   -0.3949 C   0  0  0  0  0  0  0  0  0  0  0  0
  -11.4363   21.9007   -2.5319 C   0  0  0  0  0  0  0  0  0  0  0  0
  -12.0691   23.2029   -2.0682 C   0  0  0  0  0  0  0  0  0  0  0  0
  -11.4048   20.9353   -1.3916 N   0  0  0  0  0  0  0  0  0  0  0  0
  -13.3808   22.9153   -1.5832 O   0  0  0  0  0  0  0  0  0  0  0  0
 42 38  1  0  0  0
 42 40  1  0  0  0
 38 37  1  0  0  0
 10 13  2  0  0  0
 10 11  1  0  0  0
 13 14  1  0  0  0
 40 39  1  0  0  0
 37 41  1  0  0  0
 11 12  2  0  0  0
 14 15  2  0  0  0
 39 41  1  0  0  0
 41 36  1  0  0  0
 12 15  1  0  0  0
 12 16  1  0  0  0
 15  8  1  0  0  0
 36 35  1  0  0  0
 35  9  1  0  0  0
  8  7  2  0  0  0
  8  4  1  0  0  0
  7  1  1  0  0  0
  9  4  1  0  0  0
  9  5  1  0  0  0
  4  2  2  0  0  0
  1  6  2  0  0  0
  5 17  1  0  0  0
  5  3  2  0  0  0
  2  6  1  0  0  0
  2  3  1  0  0  0
 18 17  2  0  0  0
 17 19  1  0  0  0
  3 21  1  0  0  0
 25 32  2  0  0  0
 25 28  1  0  0  0
 32 34  1  0  0  0
 23 22  1  0  0  0
 23 24  1  0  0  0
 21 22  1  0  0  0
 28 29  2  0  0  0
 34 24  1  0  0  0
 34 33  2  0  0  0
 29 33  1  0  0  0
 29 26  1  0  0  0
 33 27  1  0  0  0
 26 30  2  0  0  0
 27 31  2  0  0  0
 30 31  1  0  0  0
 19 20  1  0  0  0
M  END
> <minimizedAffinity>
-10.27814

$$$$
6B4U_CN7_A_401


 42 47  0  0  0  0  0  0  0  0999 V2000
   -7.2003   15.1179   -1.3362 C   0  0  0  0  0  0  0  0  0  0  0  0
   -7.4710   17.3419   -0.5430 C   0  0  0  0  0  0  0  0  0  0  0  0
   -7.3861   18.5164    0.2596 C   0  0  0  0  0  0  0  0  0  0  0  0
   -8.2343   17.6285   -1.6714 C   0  0  0  0  0  0  0  0  0  0  0  0
   -8.0685   19.5148   -0.3988 C   0  0  0  0  0  0  0  0  0  0  0  0
   -6.9645   16.0608   -0.3618 C   0  0  0  0  0  0  0  0  0  0  0  0
   -7.9659   15.4129   -2.4394 C   0  0  0  0  0  0  0  0  0  0  0  0
   -8.5169   16.6642   -2.6350 C   0  0  0  0  0  0  0  0  0  0  0  0
   -8.5775   18.9600   -1.5487 N   0  0  0  0  0  0  0  0  0  0  0  0
  -10.9020   17.2313   -6.0600 C   0  0  0  0  0  0  0  0  0  0  0  0
  -11.5045   16.9015   -4.8670 C   0  0  0  0  0  0  0  0  0  0  0  0
  -10.7437   16.7082   -3.7326 C   0  0  0  0  0  0  0  0  0  0  0  0
   -9.5347   17.3565   -6.1212 C   0  0  0  0  0  0  0  0  0  0  0  0
   -8.7709   17.1614   -4.9917 C   0  0  0  0  0  0  0  0  0  0  0  0
   -9.3636   16.8508   -3.7877 C   0  0  0  0  0  0  0  0  0  0  0  0
  -11.4812   16.3484   -2.4799 C   0  0  0  0  0  0  0  0  0  0  0  0
   -8.3466   20.8581    0.0331 C   0  0  0  0  0  0  0  0  0  0  0  0
   -9.2505   21.1369    0.8028 O   0  0  0  0  0  0  0  0  0  0  0  0
   -7.4740   21.7732   -0.4384 O   0  0  0  0  0  0  0  0  0  0  0  0
   -6.7947   21.5122   -1.0287 H   0  0  0  0  0  0  0  0  0  0  0  0
   -6.7269   18.6261    1.5807 C   0  0  0  0  0  0  0  0  0  0  0  0
   -5.5230   19.5472    1.6333 C   0  0  0  0  0  0  0  0  0  0  0  0
   -4.2305   18.8299    1.9686 C   0  0  0  0  0  0  0  0  0  0  0  0
   -4.3539   17.4750    1.5400 O   0  0  0  0  0  0  0  0  0  0  0  0
   -4.3793   15.2654    4.5050 C   0  0  0  0  0  0  0  0  0  0  0  0
   -1.1912   14.2809    3.0480 C   0  0  0  0  0  0  0  0  0  0  0  0
   -1.9906   16.1675    1.2288 C   0  0  0  0  0  0  0  0  0  0  0  0
   -3.1845   14.6097    4.3077 C   0  0  0  0  0  0  0  0  0  0  0  0
   -2.4027   14.9190    3.2156 C   0  0  0  0  0  0  0  0  0  0  0  0
   -0.3842   14.5666    1.9700 C   0  0  0  0  0  0  0  0  0  0  0  0
   -0.7919   15.5145    1.0557 C   0  0  0  0  0  0  0  0  0  0  0  0
   -4.8022   16.2289    3.6128 C   0  0  0  0  0  0  0  0  0  0  0  0
   -2.8185   15.8725    2.3036 C   0  0  0  0  0  0  0  0  0  0  0  0
   -4.0244   16.5220    2.4991 C   0  0  0  0  0  0  0  0  0  0  0  0
   -9.1840   19.7915   -2.5832 C   0  0  0  0  0  0  0  0  0  0  0  0
  -10.6445   19.9388   -2.1722 C   0  0  0  0  0  0  0  0  0  0  0  0
  -12.8427   19.8733   -3.2297 C   0  0  0  0  0  0  0  0  0  0  0  0
  -13.6415   20.4112   -4.4074 C   0  0  0  0  0  0  0  0  0  0  0  0
  -10.7994   20.5374   -4.4717 C   0  0  0  0  0  0  0  0  0  0  0  0
  -11.7136   21.0267   -5.5835 C   0  0  0  0  0  0  0  0  0  0  0  0
  -11.5325   20.5940   -3.1708 N   0  0  0  0  0  0  0  0  0  0  0  0
  -12.8801   20.2037   -5.5983 O   0  0  0  0  0  0  0  0  0  0  0  0
 42 38  1  0  0  0
 42 40  1  0  0  0
 38 37  1  0  0  0
 10 13  2  0  0  0
 10 11  1  0  0  0
 13 14  1  0  0  0
 40 39  1  0  0  0
 37 41  1  0  0  0
 11 12  2  0  0  0
 14 15  2  0  0  0
 39 41  1  0  0  0
 41 36  1  0  0  0
 12 15  1  0  0  0
 12 16  1  0  0  0
 15  8  1  0  0  0
 36 35  1  0  0  0
 35  9  1  0  0  0
  8  7  2  0  0  0
  8  4  1  0  0  0
  7  1  1  0  0  0
  9  4  1  0  0  0
  9  5  1  0  0  0
  4  2  2  0  0  0
  1  6  2  0  0  0
  5 17  1  0  0  0
  5  3  2  0  0  0
  2  6  1  0  0  0
  2  3  1  0  0  0
 18 17  2  0  0  0
 17 19  1  0  0  0
  3 21  1  0  0  0
 25 32  2  0  0  0
 25 28  1  0  0  0
 32 34  1  0  0  0
 23 22  1  0  0  0
 23 24  1  0  0  0
 21 22  1  0  0  0
 28 29  2  0  0  0
 34 24  1  0  0  0
 34 33  2  0  0  0
 29 33  1  0  0  0
 29 26  1  0  0  0
 33 27  1  0  0  0
 26 30  2  0  0  0
 27 31  2  0  0  0
 30 31  1  0  0  0
 19 20  1  0  0  0
M  END
> <minimizedAffinity>
-10.14026

$$$$
6B4U_CN7_A_401


 42 47  0  0  0  0  0  0  0  0999 V2000
   -9.6311   21.2135    0.1649 C   0  0  0  0  0  0  0  0  0  0  0  0
   -7.9778   19.5091    0.0632 C   0  0  0  0  0  0  0  0  0  0  0  0
   -6.9208   18.6208    0.4158 C   0  0  0  0  0  0  0  0  0  0  0  0
   -8.3560   19.2507   -1.2514 C   0  0  0  0  0  0  0  0  0  0  0  0
   -6.6854   17.8093   -0.6714 C   0  0  0  0  0  0  0  0  0  0  0  0
   -8.6103   20.5209    0.7751 C   0  0  0  0  0  0  0  0  0  0  0  0
   -9.9853   20.9546   -1.1380 C   0  0  0  0  0  0  0  0  0  0  0  0
   -9.3543   19.9822   -1.8891 C   0  0  0  0  0  0  0  0  0  0  0  0
   -7.5488   18.2092   -1.6632 N   0  0  0  0  0  0  0  0  0  0  0  0
  -10.4444   19.6393   -5.9431 C   0  0  0  0  0  0  0  0  0  0  0  0
  -11.0503   18.8264   -5.0118 C   0  0  0  0  0  0  0  0  0  0  0  0
  -10.7075   18.9188   -3.6788 C   0  0  0  0  0  0  0  0  0  0  0  0
   -9.4854   20.5383   -5.5418 C   0  0  0  0  0  0  0  0  0  0  0  0
   -9.1380   20.6318   -4.2122 C   0  0  0  0  0  0  0  0  0  0  0  0
   -9.7513   19.8380   -3.2682 C   0  0  0  0  0  0  0  0  0  0  0  0
  -11.4135   17.9939   -2.7359 C   0  0  0  0  0  0  0  0  0  0  0  0
   -5.6671   16.8098   -0.8515 C   0  0  0  0  0  0  0  0  0  0  0  0
   -5.9032   15.6135   -0.8684 O   0  0  0  0  0  0  0  0  0  0  0  0
   -4.4363   17.3193   -1.0675 O   0  0  0  0  0  0  0  0  0  0  0  0
   -4.3024   18.2464   -1.0448 H   0  0  0  0  0  0  0  0  0  0  0  0
   -6.1811   18.6084    1.6982 C   0  0  0  0  0  0  0  0  0  0  0  0
   -4.9018   19.4229    1.7200 C   0  0  0  0  0  0  0  0  0  0  0  0
   -3.6817   18.6167    2.1189 C   0  0  0  0  0  0  0  0  0  0  0  0
   -4.0151   17.2334    2.0191 O   0  0  0  0  0  0  0  0  0  0  0  0
   -0.8641   15.4549    1.2558 C   0  0  0  0  0  0  0  0  0  0  0  0
   -1.9319   13.5610    4.1763 C   0  0  0  0  0  0  0  0  0  0  0  0
   -3.9882   15.3625    3.9916 C   0  0  0  0  0  0  0  0  0  0  0  0
   -0.8732   14.5317    2.2775 C   0  0  0  0  0  0  0  0  0  0  0  0
   -1.9161   14.5134    3.1784 C   0  0  0  0  0  0  0  0  0  0  0  0
   -2.9588   13.5125    5.0918 C   0  0  0  0  0  0  0  0  0  0  0  0
   -3.9898   14.4228    4.9967 C   0  0  0  0  0  0  0  0  0  0  0  0
   -1.8918   16.3665    1.1298 C   0  0  0  0  0  0  0  0  0  0  0  0
   -2.9475   15.4296    3.0750 C   0  0  0  0  0  0  0  0  0  0  0  0
   -2.9301   16.3626    2.0535 C   0  0  0  0  0  0  0  0  0  0  0  0
   -7.7085   17.4274   -2.8850 C   0  0  0  0  0  0  0  0  0  0  0  0
   -6.6638   17.9763   -3.8500 C   0  0  0  0  0  0  0  0  0  0  0  0
   -7.0955   17.7713   -6.2429 C   0  0  0  0  0  0  0  0  0  0  0  0
   -7.0187   16.8024   -7.4133 C   0  0  0  0  0  0  0  0  0  0  0  0
   -6.9437   15.7913   -4.7544 C   0  0  0  0  0  0  0  0  0  0  0  0
   -6.8874   14.9345   -6.0088 C   0  0  0  0  0  0  0  0  0  0  0  0
   -6.4118   17.1531   -5.0640 N   0  0  0  0  0  0  0  0  0  0  0  0
   -7.6511   15.5810   -7.0272 O   0  0  0  0  0  0  0  0  0  0  0  0
 42 38  1  0  0  0
 42 40  1  0  0  0
 38 37  1  0  0  0
 10 13  2  0  0  0
 10 11  1  0  0  0
 13 14  1  0  0  0
 40 39  1  0  0  0
 37 41  1  0  0  0
 11 12  2  0  0  0
 14 15  2  0  0  0
 39 41  1  0  0  0
 41 36  1  0  0  0
 12 15  1  0  0  0
 12 16  1  0  0  0
 15  8  1  0  0  0
 36 35  1  0  0  0
 35  9  1  0  0  0
  8  7  2  0  0  0
  8  4  1  0  0  0
  7  1  1  0  0  0
  9  4  1  0  0  0
  9  5  1  0  0  0
  4  2  2  0  0  0
  1  6  2  0  0  0
  5 17  1  0  0  0
  5  3  2  0  0  0
  2  6  1  0  0  0
  2  3  1  0  0  0
 18 17  2  0  0  0
 17 19  1  0  0  0
  3 21  1  0  0  0
 25 32  2  0  0  0
 25 28  1  0  0  0
 32 34  1  0  0  0
 23 22  1  0  0  0
 23 24  1  0  0  0
 21 22  1  0  0  0
 28 29  2  0  0  0
 34 24  1  0  0  0
 34 33  2  0  0  0
 29 33  1  0  0  0
 29 26  1  0  0  0
 33 27  1  0  0  0
 26 30  2  0  0  0
 27 31  2  0  0  0
 30 31  1  0  0  0
 19 20  1  0  0  0
M  END
> <minimizedAffinity>
-9.64060

$$$$
6B4U_CN7_A_401


 42 47  0  0  0  0  0  0  0  0999 V2000
   -8.8783   16.0429   -2.7398 C   0  0  0  0  0  0  0  0  0  0  0  0
   -8.1171   17.6333   -1.1462 C   0  0  0  0  0  0  0  0  0  0  0  0
   -7.4573   18.2304   -0.0331 C   0  0  0  0  0  0  0  0  0  0  0  0
   -8.8439   18.6163   -1.8122 C   0  0  0  0  0  0  0  0  0  0  0  0
   -7.7598   19.5736   -0.0477 C   0  0  0  0  0  0  0  0  0  0  0  0
   -8.1525   16.3220   -1.6044 C   0  0  0  0  0  0  0  0  0  0  0  0
   -9.6003   17.0223   -3.3798 C   0  0  0  0  0  0  0  0  0  0  0  0
   -9.6193   18.3288   -2.9321 C   0  0  0  0  0  0  0  0  0  0  0  0
   -8.5994   19.7828   -1.1155 N   0  0  0  0  0  0  0  0  0  0  0  0
  -12.0112   21.0757   -5.0473 C   0  0  0  0  0  0  0  0  0  0  0  0
  -12.5072   20.4923   -3.9033 C   0  0  0  0  0  0  0  0  0  0  0  0
  -11.7432   19.5877   -3.1955 C   0  0  0  0  0  0  0  0  0  0  0  0
  -10.7530   20.7449   -5.4906 C   0  0  0  0  0  0  0  0  0  0  0  0
   -9.9880   19.8399   -4.7885 C   0  0  0  0  0  0  0  0  0  0  0  0
  -10.4651   19.2645   -3.6315 C   0  0  0  0  0  0  0  0  0  0  0  0
  -12.3629   18.9991   -1.9656 C   0  0  0  0  0  0  0  0  0  0  0  0
   -7.4101   20.5908    0.9070 C   0  0  0  0  0  0  0  0  0  0  0  0
   -6.4182   21.2922    0.8002 O   0  0  0  0  0  0  0  0  0  0  0  0
   -8.3156   20.7437    1.8958 O   0  0  0  0  0  0  0  0  0  0  0  0
   -9.0633   20.1805    1.9376 H   0  0  0  0  0  0  0  0  0  0  0  0
   -6.6386   17.5249    0.9786 C   0  0  0  0  0  0  0  0  0  0  0  0
   -5.2533   17.1098    0.5211 C   0  0  0  0  0  0  0  0  0  0  0  0
   -4.1432   17.9412    1.1325 C   0  0  0  0  0  0  0  0  0  0  0  0
   -3.7638   17.3323    2.3654 O   0  0  0  0  0  0  0  0  0  0  0  0
   -0.8397   15.3470    1.2781 C   0  0  0  0  0  0  0  0  0  0  0  0
   -1.9687   13.2831    4.0569 C   0  0  0  0  0  0  0  0  0  0  0  0
   -3.8415   15.2812    4.1482 C   0  0  0  0  0  0  0  0  0  0  0  0
   -0.8982   14.3322    2.2070 C   0  0  0  0  0  0  0  0  0  0  0  0
   -1.8995   14.3239    3.1540 C   0  0  0  0  0  0  0  0  0  0  0  0
   -2.9565   13.2420    5.0147 C   0  0  0  0  0  0  0  0  0  0  0  0
   -3.8949   14.2510    5.0587 C   0  0  0  0  0  0  0  0  0  0  0  0
   -1.7759   16.3601    1.2913 C   0  0  0  0  0  0  0  0  0  0  0  0
   -2.8381   15.3396    3.1903 C   0  0  0  0  0  0  0  0  0  0  0  0
   -2.7704   16.3633    2.2621 C   0  0  0  0  0  0  0  0  0  0  0  0
   -8.9514   21.1322   -1.5455 C   0  0  0  0  0  0  0  0  0  0  0  0
   -7.8464   21.5448   -2.5111 C   0  0  0  0  0  0  0  0  0  0  0  0
   -8.9693   23.4488   -3.5449 C   0  0  0  0  0  0  0  0  0  0  0  0
   -8.7497   24.8757   -4.0247 C   0  0  0  0  0  0  0  0  0  0  0  0
   -6.5023   23.1831   -3.5975 C   0  0  0  0  0  0  0  0  0  0  0  0
   -6.4237   24.6207   -4.0853 C   0  0  0  0  0  0  0  0  0  0  0  0
   -7.7518   23.0022   -2.7979 N   0  0  0  0  0  0  0  0  0  0  0  0
   -7.5910   24.8949   -4.8602 O   0  0  0  0  0  0  0  0  0  0  0  0
 42 38  1  0  0  0
 42 40  1  0  0  0
 38 37  1  0  0  0
 10 13  2  0  0  0
 10 11  1  0  0  0
 13 14  1  0  0  0
 40 39  1  0  0  0
 37 41  1  0  0  0
 11 12  2  0  0  0
 14 15  2  0  0  0
 39 41  1  0  0  0
 41 36  1  0  0  0
 12 15  1  0  0  0
 12 16  1  0  0  0
 15  8  1  0  0  0
 36 35  1  0  0  0
 35  9  1  0  0  0
  8  7  2  0  0  0
  8  4  1  0  0  0
  7  1  1  0  0  0
  9  4  1  0  0  0
  9  5  1  0  0  0
  4  2  2  0  0  0
  1  6  2  0  0  0
  5 17  1  0  0  0
  5  3  2  0  0  0
  2  6  1  0  0  0
  2  3  1  0  0  0
 18 17  2  0  0  0
 17 19  1  0  0  0
  3 21  1  0  0  0
 25 32  2  0  0  0
 25 28  1  0  0  0
 32 34  1  0  0  0
 23 22  1  0  0  0
 23 24  1  0  0  0
 21 22  1  0  0  0
 28 29  2  0  0  0
 34 24  1  0  0  0
 34 33  2  0  0  0
 29 33  1  0  0  0
 29 26  1  0  0  0
 33 27  1  0  0  0
 26 30  2  0  0  0
 27 31  2  0  0  0
 30 31  1  0  0  0
 19 20  1  0  0  0
M  END
> <minimizedAffinity>
-9.62355

$$$$
6B4U_CN7_A_401


 42 47  0  0  0  0  0  0  0  0999 V2000
   -7.1395   15.1305   -1.3006 C   0  0  0  0  0  0  0  0  0  0  0  0
   -7.4142   17.4021   -0.6582 C   0  0  0  0  0  0  0  0  0  0  0  0
   -7.4720   18.5954    0.1186 C   0  0  0  0  0  0  0  0  0  0  0  0
   -7.7275   17.7150   -1.9781 C   0  0  0  0  0  0  0  0  0  0  0  0
   -7.7872   19.6279   -0.7362 C   0  0  0  0  0  0  0  0  0  0  0  0
   -7.1374   16.0858   -0.3100 C   0  0  0  0  0  0  0  0  0  0  0  0
   -7.4623   15.4530   -2.5975 C   0  0  0  0  0  0  0  0  0  0  0  0
   -7.7795   16.7435   -2.9739 C   0  0  0  0  0  0  0  0  0  0  0  0
   -7.9458   19.0781   -1.9858 N   0  0  0  0  0  0  0  0  0  0  0  0
   -8.8280   17.4075   -6.9989 C   0  0  0  0  0  0  0  0  0  0  0  0
   -9.8127   17.0937   -6.0896 C   0  0  0  0  0  0  0  0  0  0  0  0
   -9.4929   16.8692   -4.7666 C   0  0  0  0  0  0  0  0  0  0  0  0
   -7.5193   17.4856   -6.5865 C   0  0  0  0  0  0  0  0  0  0  0  0
   -7.1952   17.2593   -5.2670 C   0  0  0  0  0  0  0  0  0  0  0  0
   -8.1738   16.9642   -4.3436 C   0  0  0  0  0  0  0  0  0  0  0  0
  -10.6258   16.5298   -3.8478 C   0  0  0  0  0  0  0  0  0  0  0  0
   -8.0451   21.0094   -0.4308 C   0  0  0  0  0  0  0  0  0  0  0  0
   -9.1672   21.4564   -0.2622 O   0  0  0  0  0  0  0  0  0  0  0  0
   -6.9280   21.7516   -0.2814 O   0  0  0  0  0  0  0  0  0  0  0  0
   -6.0862   21.3647   -0.4216 H   0  0  0  0  0  0  0  0  0  0  0  0
   -7.2769   18.6951    1.5828 C   0  0  0  0  0  0  0  0  0  0  0  0
   -5.9239   19.2183    2.0254 C   0  0  0  0  0  0  0  0  0  0  0  0
   -4.7600   18.4142    1.4810 C   0  0  0  0  0  0  0  0  0  0  0  0
   -4.6660   17.2077    2.2360 O   0  0  0  0  0  0  0  0  0  0  0  0
   -1.5296   15.8412    0.8325 C   0  0  0  0  0  0  0  0  0  0  0  0
   -1.7859   13.7977    3.8349 C   0  0  0  0  0  0  0  0  0  0  0  0
   -4.0397   15.3329    4.1027 C   0  0  0  0  0  0  0  0  0  0  0  0
   -1.2330   14.9128    1.8053 C   0  0  0  0  0  0  0  0  0  0  0  0
   -2.0748   14.7557    2.8852 C   0  0  0  0  0  0  0  0  0  0  0  0
   -2.6057   13.6124    4.9251 C   0  0  0  0  0  0  0  0  0  0  0  0
   -3.7370   14.3892    5.0572 C   0  0  0  0  0  0  0  0  0  0  0  0
   -2.6637   16.6200    0.9336 C   0  0  0  0  0  0  0  0  0  0  0  0
   -3.2088   15.5383    3.0094 C   0  0  0  0  0  0  0  0  0  0  0  0
   -3.4984   16.4774    2.0356 C   0  0  0  0  0  0  0  0  0  0  0  0
   -8.0841   19.9211   -3.1690 C   0  0  0  0  0  0  0  0  0  0  0  0
   -9.5857   20.0322   -3.4071 C   0  0  0  0  0  0  0  0  0  0  0  0
  -11.2595   20.2954   -5.1632 C   0  0  0  0  0  0  0  0  0  0  0  0
  -11.5317   20.9908   -6.4886 C   0  0  0  0  0  0  0  0  0  0  0  0
   -8.8544   20.7697   -5.5500 C   0  0  0  0  0  0  0  0  0  0  0  0
   -9.2620   21.4275   -6.8585 C   0  0  0  0  0  0  0  0  0  0  0  0
   -9.9932   20.8452   -4.5853 N   0  0  0  0  0  0  0  0  0  0  0  0
  -10.4203   20.7564   -7.3550 O   0  0  0  0  0  0  0  0  0  0  0  0
 42 38  1  0  0  0
 42 40  1  0  0  0
 38 37  1  0  0  0
 10 13  2  0  0  0
 10 11  1  0  0  0
 13 14  1  0  0  0
 40 39  1  0  0  0
 37 41  1  0  0  0
 11 12  2  0  0  0
 14 15  2  0  0  0
 39 41  1  0  0  0
 41 36  1  0  0  0
 12 15  1  0  0  0
 12 16  1  0  0  0
 15  8  1  0  0  0
 36 35  1  0  0  0
 35  9  1  0  0  0
  8  7  2  0  0  0
  8  4  1  0  0  0
  7  1  1  0  0  0
  9  4  1  0  0  0
  9  5  1  0  0  0
  4  2  2  0  0  0
  1  6  2  0  0  0
  5 17  1  0  0  0
  5  3  2  0  0  0
  2  6  1  0  0  0
  2  3  1  0  0  0
 18 17  2  0  0  0
 17 19  1  0  0  0
  3 21  1  0  0  0
 25 32  2  0  0  0
 25 28  1  0  0  0
 32 34  1  0  0  0
 23 22  1  0  0  0
 23 24  1  0  0  0
 21 22  1  0  0  0
 28 29  2  0  0  0
 34 24  1  0  0  0
 34 33  2  0  0  0
 29 33  1  0  0  0
 29 26  1  0  0  0
 33 27  1  0  0  0
 26 30  2  0  0  0
 27 31  2  0  0  0
 30 31  1  0  0  0
 19 20  1  0  0  0
M  END
> <minimizedAffinity>
-9.46147

$$$$
6B4U_CN7_A_401


 42 47  0  0  0  0  0  0  0  0999 V2000
   -7.9641   20.4360    1.5805 C   0  0  0  0  0  0  0  0  0  0  0  0
   -7.6867   18.6584    0.0274 C   0  0  0  0  0  0  0  0  0  0  0  0
   -7.3093   17.4165   -0.5607 C   0  0  0  0  0  0  0  0  0  0  0  0
   -8.3925   19.4007   -0.9154 C   0  0  0  0  0  0  0  0  0  0  0  0
   -7.8136   17.3978   -1.8418 C   0  0  0  0  0  0  0  0  0  0  0  0
   -7.4500   19.1934    1.2877 C   0  0  0  0  0  0  0  0  0  0  0  0
   -8.6491   21.1618    0.6349 C   0  0  0  0  0  0  0  0  0  0  0  0
   -8.8715   20.6786   -0.6397 C   0  0  0  0  0  0  0  0  0  0  0  0
   -8.4508   18.5997   -2.0382 N   0  0  0  0  0  0  0  0  0  0  0  0
  -10.7208   23.2417   -3.4238 C   0  0  0  0  0  0  0  0  0  0  0  0
  -11.5000   22.5521   -2.5225 C   0  0  0  0  0  0  0  0  0  0  0  0
  -10.9169   21.7048   -1.6031 C   0  0  0  0  0  0  0  0  0  0  0  0
   -9.3567   23.0746   -3.4132 C   0  0  0  0  0  0  0  0  0  0  0  0
   -8.7706   22.2274   -2.4989 C   0  0  0  0  0  0  0  0  0  0  0  0
   -9.5376   21.5472   -1.5789 C   0  0  0  0  0  0  0  0  0  0  0  0
  -11.8400   20.9922   -0.6634 C   0  0  0  0  0  0  0  0  0  0  0  0
   -7.6362   16.4084   -2.8703 C   0  0  0  0  0  0  0  0  0  0  0  0
   -6.7272   16.4470   -3.6825 O   0  0  0  0  0  0  0  0  0  0  0  0
   -8.5279   15.3972   -2.8126 O   0  0  0  0  0  0  0  0  0  0  0  0
   -9.2104   15.4104   -2.1708 H   0  0  0  0  0  0  0  0  0  0  0  0
   -6.4850   16.3636    0.0746 C   0  0  0  0  0  0  0  0  0  0  0  0
   -5.1261   16.8141    0.5756 C   0  0  0  0  0  0  0  0  0  0  0  0
   -5.0406   16.9029    2.0863 C   0  0  0  0  0  0  0  0  0  0  0  0
   -3.7139   17.2982    2.4306 O   0  0  0  0  0  0  0  0  0  0  0  0
   -0.8722   15.2541    1.2385 C   0  0  0  0  0  0  0  0  0  0  0  0
   -1.9758   13.1846    4.0234 C   0  0  0  0  0  0  0  0  0  0  0  0
   -3.7941   15.2276    4.1906 C   0  0  0  0  0  0  0  0  0  0  0  0
   -0.9307   14.2296    2.1568 C   0  0  0  0  0  0  0  0  0  0  0  0
   -1.9053   14.2345    3.1313 C   0  0  0  0  0  0  0  0  0  0  0  0
   -2.9374   13.1562    5.0080 C   0  0  0  0  0  0  0  0  0  0  0  0
   -3.8483   14.1877    5.0901 C   0  0  0  0  0  0  0  0  0  0  0  0
   -1.7818   16.2900    1.2898 C   0  0  0  0  0  0  0  0  0  0  0  0
   -2.8165   15.2728    3.2058 C   0  0  0  0  0  0  0  0  0  0  0  0
   -2.7485   16.3059    2.2881 C   0  0  0  0  0  0  0  0  0  0  0  0
   -9.2742   18.8329   -3.2202 C   0  0  0  0  0  0  0  0  0  0  0  0
  -10.6450   18.2650   -2.8705 C   0  0  0  0  0  0  0  0  0  0  0  0
  -12.5063   17.6071   -4.3050 C   0  0  0  0  0  0  0  0  0  0  0  0
  -13.5087   18.1412   -5.3171 C   0  0  0  0  0  0  0  0  0  0  0  0
  -11.1734   19.6572   -4.7288 C   0  0  0  0  0  0  0  0  0  0  0  0
  -12.2452   20.0690   -5.7251 C   0  0  0  0  0  0  0  0  0  0  0  0
  -11.7791   18.7642   -3.6950 N   0  0  0  0  0  0  0  0  0  0  0  0
  -12.7950   18.8861   -6.3055 O   0  0  0  0  0  0  0  0  0  0  0  0
 42 38  1  0  0  0
 42 40  1  0  0  0
 38 37  1  0  0  0
 10 13  2  0  0  0
 10 11  1  0  0  0
 13 14  1  0  0  0
 40 39  1  0  0  0
 37 41  1  0  0  0
 11 12  2  0  0  0
 14 15  2  0  0  0
 39 41  1  0  0  0
 41 36  1  0  0  0
 12 15  1  0  0  0
 12 16  1  0  0  0
 15  8  1  0  0  0
 36 35  1  0  0  0
 35  9  1  0  0  0
  8  7  2  0  0  0
  8  4  1  0  0  0
  7  1  1  0  0  0
  9  4  1  0  0  0
  9  5  1  0  0  0
  4  2  2  0  0  0
  1  6  2  0  0  0
  5 17  1  0  0  0
  5  3  2  0  0  0
  2  6  1  0  0  0
  2  3  1  0  0  0
 18 17  2  0  0  0
 17 19  1  0  0  0
  3 21  1  0  0  0
 25 32  2  0  0  0
 25 28  1  0  0  0
 32 34  1  0  0  0
 23 22  1  0  0  0
 23 24  1  0  0  0
 21 22  1  0  0  0
 28 29  2  0  0  0
 34 24  1  0  0  0
 34 33  2  0  0  0
 29 33  1  0  0  0
 29 26  1  0  0  0
 33 27  1  0  0  0
 26 30  2  0  0  0
 27 31  2  0  0  0
 30 31  1  0  0  0
 19 20  1  0  0  0
M  END
> <minimizedAffinity>
-9.11947

$$$$
6B4U_CN7_A_401


 42 47  0  0  0  0  0  0  0  0999 V2000
   -9.2072   21.5372   -0.9916 C   0  0  0  0  0  0  0  0  0  0  0  0
   -8.1160   19.4415   -0.7354 C   0  0  0  0  0  0  0  0  0  0  0  0
   -7.5657   18.2591   -0.1610 C   0  0  0  0  0  0  0  0  0  0  0  0
   -7.8939   19.4136   -2.1094 C   0  0  0  0  0  0  0  0  0  0  0  0
   -7.0429   17.5072   -1.1893 C   0  0  0  0  0  0  0  0  0  0  0  0
   -8.7633   20.5306   -0.1648 C   0  0  0  0  0  0  0  0  0  0  0  0
   -8.9700   21.5009   -2.3453 C   0  0  0  0  0  0  0  0  0  0  0  0
   -8.2972   20.4531   -2.9430 C   0  0  0  0  0  0  0  0  0  0  0  0
   -7.2409   18.2208   -2.3472 N   0  0  0  0  0  0  0  0  0  0  0  0
   -7.4359   20.7557   -7.0548 C   0  0  0  0  0  0  0  0  0  0  0  0
   -8.6829   20.3284   -6.6577 C   0  0  0  0  0  0  0  0  0  0  0  0
   -8.9870   20.2188   -5.3167 C   0  0  0  0  0  0  0  0  0  0  0  0
   -6.4875   21.0628   -6.1087 C   0  0  0  0  0  0  0  0  0  0  0  0
   -6.7860   20.9520   -4.7686 C   0  0  0  0  0  0  0  0  0  0  0  0
   -8.0364   20.5448   -4.3585 C   0  0  0  0  0  0  0  0  0  0  0  0
  -10.3653   19.7429   -4.9751 C   0  0  0  0  0  0  0  0  0  0  0  0
   -6.3056   16.2741   -1.1251 C   0  0  0  0  0  0  0  0  0  0  0  0
   -5.0941   16.2281   -0.9928 O   0  0  0  0  0  0  0  0  0  0  0  0
   -7.0839   15.1721   -1.1569 O   0  0  0  0  0  0  0  0  0  0  0  0
   -8.0113   15.2564   -1.2605 H   0  0  0  0  0  0  0  0  0  0  0  0
   -7.5220   17.9268    1.2810 C   0  0  0  0  0  0  0  0  0  0  0  0
   -6.1803   18.1352    1.9570 C   0  0  0  0  0  0  0  0  0  0  0  0
   -5.5356   16.8459    2.4255 C   0  0  0  0  0  0  0  0  0  0  0  0
   -4.2530   17.1638    2.9626 O   0  0  0  0  0  0  0  0  0  0  0  0
   -1.4476   15.7190    1.0348 C   0  0  0  0  0  0  0  0  0  0  0  0
   -1.7360   13.2057    3.6532 C   0  0  0  0  0  0  0  0  0  0  0  0
   -3.7366   14.9193    4.4073 C   0  0  0  0  0  0  0  0  0  0  0  0
   -1.2015   14.6003    1.7991 C   0  0  0  0  0  0  0  0  0  0  0  0
   -1.9687   14.3482    2.9159 C   0  0  0  0  0  0  0  0  0  0  0  0
   -2.4844   12.9217    4.7731 C   0  0  0  0  0  0  0  0  0  0  0  0
   -3.4880   13.7883    5.1504 C   0  0  0  0  0  0  0  0  0  0  0  0
   -2.4562   16.5937    1.3824 C   0  0  0  0  0  0  0  0  0  0  0  0
   -2.9749   15.2223    3.2868 C   0  0  0  0  0  0  0  0  0  0  0  0
   -3.2127   16.3509    2.5226 C   0  0  0  0  0  0  0  0  0  0  0  0
   -6.9894   17.6227   -3.6543 C   0  0  0  0  0  0  0  0  0  0  0  0
   -8.2616   16.8546   -3.9938 C   0  0  0  0  0  0  0  0  0  0  0  0
   -6.7122   15.4794   -5.2834 C   0  0  0  0  0  0  0  0  0  0  0  0
   -6.5857   14.6628   -6.5607 C   0  0  0  0  0  0  0  0  0  0  0  0
   -8.6933   16.5594   -6.3169 C   0  0  0  0  0  0  0  0  0  0  0  0
   -8.4473   15.6902   -7.5396 C   0  0  0  0  0  0  0  0  0  0  0  0
   -8.1450   15.8741   -5.1074 N   0  0  0  0  0  0  0  0  0  0  0  0
   -7.0422   15.4635   -7.6523 O   0  0  0  0  0  0  0  0  0  0  0  0
 42 38  1  0  0  0
 42 40  1  0  0  0
 38 37  1  0  0  0
 10 13  2  0  0  0
 10 11  1  0  0  0
 13 14  1  0  0  0
 40 39  1  0  0  0
 37 41  1  0  0  0
 11 12  2  0  0  0
 14 15  2  0  0  0
 39 41  1  0  0  0
 41 36  1  0  0  0
 12 15  1  0  0  0
 12 16  1  0  0  0
 15  8  1  0  0  0
 36 35  1  0  0  0
 35  9  1  0  0  0
  8  7  2  0  0  0
  8  4  1  0  0  0
  7  1  1  0  0  0
  9  4  1  0  0  0
  9  5  1  0  0  0
  4  2  2  0  0  0
  1  6  2  0  0  0
  5 17  1  0  0  0
  5  3  2  0  0  0
  2  6  1  0  0  0
  2  3  1  0  0  0
 18 17  2  0  0  0
 17 19  1  0  0  0
  3 21  1  0  0  0
 25 32  2  0  0  0
 25 28  1  0  0  0
 32 34  1  0  0  0
 23 22  1  0  0  0
 23 24  1  0  0  0
 21 22  1  0  0  0
 28 29  2  0  0  0
 34 24  1  0  0  0
 34 33  2  0  0  0
 29 33  1  0  0  0
 29 26  1  0  0  0
 33 27  1  0  0  0
 26 30  2  0  0  0
 27 31  2  0  0  0
 30 31  1  0  0  0
 19 20  1  0  0  0
M  END
> <minimizedAffinity>
-8.67610

$$$$
6B4U_CN7_A_401


 42 47  0  0  0  0  0  0  0  0999 V2000
   -9.7387   21.3404   -0.5756 C   0  0  0  0  0  0  0  0  0  0  0  0
   -8.2245   19.5173   -0.3973 C   0  0  0  0  0  0  0  0  0  0  0  0
   -7.2676   18.5927    0.1128 C   0  0  0  0  0  0  0  0  0  0  0  0
   -8.5347   19.1597   -1.7064 C   0  0  0  0  0  0  0  0  0  0  0  0
   -7.0269   17.6633   -0.8742 C   0  0  0  0  0  0  0  0  0  0  0  0
   -8.8193   20.6379    0.1694 C   0  0  0  0  0  0  0  0  0  0  0  0
  -10.0259   20.9816   -1.8713 C   0  0  0  0  0  0  0  0  0  0  0  0
   -9.4268   19.8965   -2.4806 C   0  0  0  0  0  0  0  0  0  0  0  0
   -7.7882   18.0262   -1.9594 N   0  0  0  0  0  0  0  0  0  0  0  0
  -10.4308   19.1067   -6.4942 C   0  0  0  0  0  0  0  0  0  0  0  0
   -9.3492   19.9118   -6.2166 C   0  0  0  0  0  0  0  0  0  0  0  0
   -9.0030   20.1867   -4.9098 C   0  0  0  0  0  0  0  0  0  0  0  0
  -11.1747   18.5851   -5.4629 C   0  0  0  0  0  0  0  0  0  0  0  0
  -10.8342   18.8595   -4.1568 C   0  0  0  0  0  0  0  0  0  0  0  0
   -9.7423   19.6472   -3.8657 C   0  0  0  0  0  0  0  0  0  0  0  0
   -7.8151   21.0743   -4.7000 C   0  0  0  0  0  0  0  0  0  0  0  0
   -6.0825   16.5787   -0.8857 C   0  0  0  0  0  0  0  0  0  0  0  0
   -6.4059   15.4118   -0.7406 O   0  0  0  0  0  0  0  0  0  0  0  0
   -4.8142   16.9640   -1.1389 O   0  0  0  0  0  0  0  0  0  0  0  0
   -4.6126   17.8731   -1.2430 H   0  0  0  0  0  0  0  0  0  0  0  0
   -6.6175   18.6518    1.4416 C   0  0  0  0  0  0  0  0  0  0  0  0
   -5.4644   19.6301    1.5594 C   0  0  0  0  0  0  0  0  0  0  0  0
   -4.1531   18.9719    1.9403 C   0  0  0  0  0  0  0  0  0  0  0  0
   -4.1854   17.6234    1.4765 O   0  0  0  0  0  0  0  0  0  0  0  0
   -4.4069   15.4404    4.4530 C   0  0  0  0  0  0  0  0  0  0  0  0
   -1.2449   14.2678    3.0807 C   0  0  0  0  0  0  0  0  0  0  0  0
   -1.8926   16.1831    1.2313 C   0  0  0  0  0  0  0  0  0  0  0  0
   -3.2465   14.7173    4.2891 C   0  0  0  0  0  0  0  0  0  0  0  0
   -2.4223   14.9742    3.2147 C   0  0  0  0  0  0  0  0  0  0  0  0
   -0.3974   14.5000    2.0211 C   0  0  0  0  0  0  0  0  0  0  0  0
   -0.7288   15.4625    1.0915 C   0  0  0  0  0  0  0  0  0  0  0  0
   -4.7532   16.4195    3.5451 C   0  0  0  0  0  0  0  0  0  0  0  0
   -2.7616   15.9428    2.2871 C   0  0  0  0  0  0  0  0  0  0  0  0
   -3.9334   16.6604    2.4491 C   0  0  0  0  0  0  0  0  0  0  0  0
   -7.9292   17.1421   -3.1118 C   0  0  0  0  0  0  0  0  0  0  0  0
   -6.7861   17.5194   -4.0471 C   0  0  0  0  0  0  0  0  0  0  0  0
   -7.0995   15.4490   -5.3001 C   0  0  0  0  0  0  0  0  0  0  0  0
   -6.9250   14.8222   -6.6752 C   0  0  0  0  0  0  0  0  0  0  0  0
   -5.5205   17.2145   -6.0410 C   0  0  0  0  0  0  0  0  0  0  0  0
   -5.4267   16.4812   -7.3694 C   0  0  0  0  0  0  0  0  0  0  0  0
   -6.8415   16.9192   -5.4079 N   0  0  0  0  0  0  0  0  0  0  0  0
   -5.5939   15.0850   -7.1227 O   0  0  0  0  0  0  0  0  0  0  0  0
 42 38  1  0  0  0
 42 40  1  0  0  0
 38 37  1  0  0  0
 10 13  2  0  0  0
 10 11  1  0  0  0
 13 14  1  0  0  0
 40 39  1  0  0  0
 37 41  1  0  0  0
 11 12  2  0  0  0
 14 15  2  0  0  0
 39 41  1  0  0  0
 41 36  1  0  0  0
 12 15  1  0  0  0
 12 16  1  0  0  0
 15  8  1  0  0  0
 36 35  1  0  0  0
 35  9  1  0  0  0
  8  7  2  0  0  0
  8  4  1  0  0  0
  7  1  1  0  0  0
  9  4  1  0  0  0
  9  5  1  0  0  0
  4  2  2  0  0  0
  1  6  2  0  0  0
  5 17  1  0  0  0
  5  3  2  0  0  0
  2  6  1  0  0  0
  2  3  1  0  0  0
 18 17  2  0  0  0
 17 19  1  0  0  0
  3 21  1  0  0  0
 25 32  2  0  0  0
 25 28  1  0  0  0
 32 34  1  0  0  0
 23 22  1  0  0  0
 23 24  1  0  0  0
 21 22  1  0  0  0
 28 29  2  0  0  0
 34 24  1  0  0  0
 34 33  2  0  0  0
 29 33  1  0  0  0
 29 26  1  0  0  0
 33 27  1  0  0  0
 26 30  2  0  0  0
 27 31  2  0  0  0
 30 31  1  0  0  0
 19 20  1  0  0  0
M  END
> <minimizedAffinity>
-8.56355

$$$$
