3IKG_J8Z_A_1


 28 30  0  0  0  0  0  0  0  0999 V2000
   14.1238    2.9490    2.8035 C   0  0  0  0  0  0  0  0  0  0  0  0
   13.0025    2.8641    1.8773 N   0  0  0  0  0  0  0  0  0  0  0  0
   11.7948    3.3623    2.2199 C   0  0  0  0  0  0  0  0  0  0  0  0
   11.5989    3.9104    3.2862 O   0  0  0  0  0  0  0  0  0  0  0  0
   13.1258    2.4413    0.9968 H   0  0  0  0  0  0  0  0  0  0  0  0
   10.7853    3.4055    1.1611 C   0  0  0  0  0  0  0  0  0  0  0  0
    9.7707    4.2671    0.9398 C   0  0  0  0  0  0  0  0  0  0  0  0
    8.9459    4.0773   -0.1822 C   0  0  0  0  0  0  0  0  0  0  0  0
    9.2608    2.9565   -0.9950 C   0  0  0  0  0  0  0  0  0  0  0  0
   10.6576    2.2385   -0.1851 S   0  0  0  0  0  0  0  0  0  0  0  0
    7.8521    4.8632   -0.5901 C   0  0  0  0  0  0  0  0  0  0  0  0
    7.1196    4.5057   -1.6807 C   0  0  0  0  0  0  0  0  0  0  0  0
    7.4504    3.3949   -2.4596 C   0  0  0  0  0  0  0  0  0  0  0  0
    8.5168    2.6052   -2.1003 C   0  0  0  0  0  0  0  0  0  0  0  0
   14.7398    1.5484    2.9929 C   0  0  0  0  0  0  0  0  0  0  0  0
   16.0171    1.7019    3.6208 O   0  0  0  0  0  0  0  0  0  0  0  0
   16.9099    0.4127    3.1735 P   0  0  0  0  0  0  0  0  0  0  0  0
   16.7770    0.2555    1.7122 O   0  0  0  0  0  0  0  0  0  0  0  0
   18.4510    0.6994    3.5416 O   0  0  0  0  0  0  0  0  0  0  0  0
   16.3966   -0.8694    3.9757 O   0  0  0  0  0  0  0  0  0  0  0  0
   15.1911    3.8008    2.0657 C   0  0  0  0  0  0  0  0  0  0  0  0
   14.1234    6.0165    1.3207 C   0  0  0  0  0  0  0  0  0  0  0  0
   14.9706    5.3093    2.2018 C   0  0  0  0  0  0  0  0  0  0  0  0
   15.6077    6.0148    3.2264 C   0  0  0  0  0  0  0  0  0  0  0  0
   15.4169    7.3946    3.3682 C   0  0  0  0  0  0  0  0  0  0  0  0
   14.5850    8.0991    2.4815 C   0  0  0  0  0  0  0  0  0  0  0  0
   13.9233    7.3989    1.4687 C   0  0  0  0  0  0  0  0  0  0  0  0
   16.1697    8.1636    4.4578 C   0  0  0  0  0  0  0  0  0  0  0  0
  2  1  1  0  0  0
  2  3  1  0  0  0
  1 15  1  0  0  0
  1 21  1  0  0  0
 15 16  1  0  0  0
 16 17  1  0  0  0
  3  4  2  0  0  0
  3  6  1  0  0  0
 17 18  2  0  0  0
 17 19  1  0  0  0
 17 20  1  0  0  0
  6  7  2  0  0  0
  6 10  1  0  0  0
  7  8  1  0  0  0
  8  9  2  0  0  0
  8 11  1  0  0  0
  9 10  1  0  0  0
  9 14  1  0  0  0
 11 12  2  0  0  0
 12 13  1  0  0  0
 13 14  2  0  0  0
 21 23  1  0  0  0
 22 23  2  0  0  0
 22 27  1  0  0  0
 23 24  1  0  0  0
 24 25  2  0  0  0
 25 26  1  0  0  0
 25 28  1  0  0  0
 26 27  2  0  0  0
  2  5  1  0  0  0
M  CHG 1  19  -1
M  CHG 1  20  -1
M  END
> <minimizedAffinity>
-7.56803

$$$$
3IKG_J8Z_A_1


 28 30  0  0  0  0  0  0  0  0999 V2000
   14.2448    3.0266    2.8589 C   0  0  0  0  0  0  0  0  0  0  0  0
   13.0726    3.0279    1.9939 N   0  0  0  0  0  0  0  0  0  0  0  0
   11.9082    3.5609    2.4229 C   0  0  0  0  0  0  0  0  0  0  0  0
   11.7942    4.0709    3.5196 O   0  0  0  0  0  0  0  0  0  0  0  0
   13.1296    2.6381    1.0916 H   0  0  0  0  0  0  0  0  0  0  0  0
   10.8459    3.6911    1.4246 C   0  0  0  0  0  0  0  0  0  0  0  0
   10.7199    3.1584    0.1912 C   0  0  0  0  0  0  0  0  0  0  0  0
    9.5680    3.4441   -0.5616 C   0  0  0  0  0  0  0  0  0  0  0  0
    8.6226    4.3011    0.0610 C   0  0  0  0  0  0  0  0  0  0  0  0
    9.3578    4.6577    1.6278 S   0  0  0  0  0  0  0  0  0  0  0  0
    9.2457    2.9829   -1.8516 C   0  0  0  0  0  0  0  0  0  0  0  0
    8.1049    3.4028   -2.4648 C   0  0  0  0  0  0  0  0  0  0  0  0
    7.1947    4.2499   -1.8293 C   0  0  0  0  0  0  0  0  0  0  0  0
    7.4679    4.7167   -0.5655 C   0  0  0  0  0  0  0  0  0  0  0  0
   14.8323    1.6027    2.9244 C   0  0  0  0  0  0  0  0  0  0  0  0
   16.0592    1.6577    3.6601 O   0  0  0  0  0  0  0  0  0  0  0  0
   16.9725    0.4153    3.1293 P   0  0  0  0  0  0  0  0  0  0  0  0
   18.3814    0.7243    3.4409 O   0  0  0  0  0  0  0  0  0  0  0  0
   16.5327   -0.9205    3.9136 O   0  0  0  0  0  0  0  0  0  0  0  0
   16.7197    0.2256    1.5638 O   0  0  0  0  0  0  0  0  0  0  0  0
   15.2926    3.8992    2.1174 C   0  0  0  0  0  0  0  0  0  0  0  0
   14.2241    6.1036    1.3409 C   0  0  0  0  0  0  0  0  0  0  0  0
   15.0427    5.4030    2.2537 C   0  0  0  0  0  0  0  0  0  0  0  0
   15.6230    6.1106    3.3102 C   0  0  0  0  0  0  0  0  0  0  0  0
   15.4045    7.4863    3.4527 C   0  0  0  0  0  0  0  0  0  0  0  0
   14.6014    8.1844    2.5349 C   0  0  0  0  0  0  0  0  0  0  0  0
   13.9960    7.4816    1.4892 C   0  0  0  0  0  0  0  0  0  0  0  0
   16.0964    8.2586    4.5796 C   0  0  0  0  0  0  0  0  0  0  0  0
  2  1  1  0  0  0
  2  3  1  0  0  0
  1 15  1  0  0  0
  1 21  1  0  0  0
 15 16  1  0  0  0
 16 17  1  0  0  0
  3  4  2  0  0  0
  3  6  1  0  0  0
 17 18  2  0  0  0
 17 19  1  0  0  0
 17 20  1  0  0  0
  6  7  2  0  0  0
  6 10  1  0  0  0
  7  8  1  0  0  0
  8  9  2  0  0  0
  8 11  1  0  0  0
  9 10  1  0  0  0
  9 14  1  0  0  0
 11 12  2  0  0  0
 12 13  1  0  0  0
 13 14  2  0  0  0
 21 23  1  0  0  0
 22 23  2  0  0  0
 22 27  1  0  0  0
 23 24  1  0  0  0
 24 25  2  0  0  0
 25 26  1  0  0  0
 25 28  1  0  0  0
 26 27  2  0  0  0
  2  5  1  0  0  0
M  CHG 1  19  -1
M  CHG 1  20  -1
M  END
> <minimizedAffinity>
-7.52804

$$$$
3IKG_J8Z_A_1


 28 30  0  0  0  0  0  0  0  0999 V2000
   14.1167    2.9908    3.2849 C   0  0  0  0  0  0  0  0  0  0  0  0
   12.7556    3.4941    3.1577 N   0  0  0  0  0  0  0  0  0  0  0  0
   12.1230    4.0289    4.2245 C   0  0  0  0  0  0  0  0  0  0  0  0
   12.6574    4.1304    5.3108 O   0  0  0  0  0  0  0  0  0  0  0  0
   12.2943    3.4442    2.2894 H   0  0  0  0  0  0  0  0  0  0  0  0
   10.8390    4.6794    3.9600 C   0  0  0  0  0  0  0  0  0  0  0  0
   10.3757    5.3101    2.8607 C   0  0  0  0  0  0  0  0  0  0  0  0
    9.0747    5.8415    2.8755 C   0  0  0  0  0  0  0  0  0  0  0  0
    8.3532    5.6693    4.0861 C   0  0  0  0  0  0  0  0  0  0  0  0
    9.4866    4.7937    5.1212 S   0  0  0  0  0  0  0  0  0  0  0  0
    8.4095    6.5198    1.8373 C   0  0  0  0  0  0  0  0  0  0  0  0
    7.1600    7.0227    2.0369 C   0  0  0  0  0  0  0  0  0  0  0  0
    6.4755    6.8415    3.2405 C   0  0  0  0  0  0  0  0  0  0  0  0
    7.0867    6.1772    4.2773 C   0  0  0  0  0  0  0  0  0  0  0  0
   14.1441    1.4906    2.9302 C   0  0  0  0  0  0  0  0  0  0  0  0
   14.7571    0.7850    4.0146 O   0  0  0  0  0  0  0  0  0  0  0  0
   16.1850    0.2297    3.4561 P   0  0  0  0  0  0  0  0  0  0  0  0
   16.4452   -1.0739    4.0970 O   0  0  0  0  0  0  0  0  0  0  0  0
   16.0729    0.0281    1.8626 O   0  0  0  0  0  0  0  0  0  0  0  0
   17.3171    1.3081    3.7818 O   0  0  0  0  0  0  0  0  0  0  0  0
   14.9199    3.7184    2.1738 C   0  0  0  0  0  0  0  0  0  0  0  0
   14.0148    5.9599    1.3018 C   0  0  0  0  0  0  0  0  0  0  0  0
   14.8000    5.2431    2.2312 C   0  0  0  0  0  0  0  0  0  0  0  0
   15.4689    5.9554    3.2306 C   0  0  0  0  0  0  0  0  0  0  0  0
   15.3698    7.3503    3.3007 C   0  0  0  0  0  0  0  0  0  0  0  0
   14.5998    8.0630    2.3659 C   0  0  0  0  0  0  0  0  0  0  0  0
   13.9065    7.3583    1.3777 C   0  0  0  0  0  0  0  0  0  0  0  0
   16.1576    8.1213    4.3637 C   0  0  0  0  0  0  0  0  0  0  0  0
  2  1  1  0  0  0
  2  3  1  0  0  0
  1 15  1  0  0  0
  1 21  1  0  0  0
 15 16  1  0  0  0
 16 17  1  0  0  0
  3  4  2  0  0  0
  3  6  1  0  0  0
 17 18  2  0  0  0
 17 19  1  0  0  0
 17 20  1  0  0  0
  6  7  2  0  0  0
  6 10  1  0  0  0
  7  8  1  0  0  0
  8  9  2  0  0  0
  8 11  1  0  0  0
  9 10  1  0  0  0
  9 14  1  0  0  0
 11 12  2  0  0  0
 12 13  1  0  0  0
 13 14  2  0  0  0
 21 23  1  0  0  0
 22 23  2  0  0  0
 22 27  1  0  0  0
 23 24  1  0  0  0
 24 25  2  0  0  0
 25 26  1  0  0  0
 25 28  1  0  0  0
 26 27  2  0  0  0
  2  5  1  0  0  0
M  CHG 1  19  -1
M  CHG 1  20  -1
M  END
> <minimizedAffinity>
-7.04400

$$$$
3IKG_J8Z_A_1


 28 30  0  0  0  0  0  0  0  0999 V2000
   12.8242    3.7020    1.8992 C   0  0  0  0  0  0  0  0  0  0  0  0
   11.7499    3.5364    0.9293 N   0  0  0  0  0  0  0  0  0  0  0  0
   10.4946    3.9366    1.2260 C   0  0  0  0  0  0  0  0  0  0  0  0
   10.2150    4.4602    2.2860 O   0  0  0  0  0  0  0  0  0  0  0  0
   11.9400    3.1307    0.0527 H   0  0  0  0  0  0  0  0  0  0  0  0
    9.5267    3.9084    0.1286 C   0  0  0  0  0  0  0  0  0  0  0  0
    8.3387    4.5306   -0.0204 C   0  0  0  0  0  0  0  0  0  0  0  0
    7.6077    4.3326   -1.2043 C   0  0  0  0  0  0  0  0  0  0  0  0
    8.2009    3.4612   -2.1555 C   0  0  0  0  0  0  0  0  0  0  0  0
    9.7128    2.9732   -1.3818 S   0  0  0  0  0  0  0  0  0  0  0  0
    6.3650    4.8933   -1.5534 C   0  0  0  0  0  0  0  0  0  0  0  0
    5.7635    4.5511   -2.7260 C   0  0  0  0  0  0  0  0  0  0  0  0
    6.3691    3.6877   -3.6413 C   0  0  0  0  0  0  0  0  0  0  0  0
    7.5870    3.1248   -3.3423 C   0  0  0  0  0  0  0  0  0  0  0  0
   13.8104    2.5231    1.7784 C   0  0  0  0  0  0  0  0  0  0  0  0
   14.9201    2.7766    2.6465 O   0  0  0  0  0  0  0  0  0  0  0  0
   16.0008    1.5859    2.3751 P   0  0  0  0  0  0  0  0  0  0  0  0
   17.0630    2.1287    1.5063 O   0  0  0  0  0  0  0  0  0  0  0  0
   16.6400    1.1380    3.7834 O   0  0  0  0  0  0  0  0  0  0  0  0
   15.2422    0.3467    1.7122 O   0  0  0  0  0  0  0  0  0  0  0  0
   13.5943    4.9668    1.4341 C   0  0  0  0  0  0  0  0  0  0  0  0
   14.5120    7.1988    2.3173 C   0  0  0  0  0  0  0  0  0  0  0  0
   13.8433    5.9781    2.5557 C   0  0  0  0  0  0  0  0  0  0  0  0
   13.3922    5.7050    3.8501 C   0  0  0  0  0  0  0  0  0  0  0  0
   13.6086    6.6186    4.8888 C   0  0  0  0  0  0  0  0  0  0  0  0
   14.2872    7.8262    4.6527 C   0  0  0  0  0  0  0  0  0  0  0  0
   14.7204    8.1205    3.3566 C   0  0  0  0  0  0  0  0  0  0  0  0
   13.1626    6.2777    6.3135 C   0  0  0  0  0  0  0  0  0  0  0  0
  2  1  1  0  0  0
  2  3  1  0  0  0
  1 15  1  0  0  0
  1 21  1  0  0  0
 15 16  1  0  0  0
 16 17  1  0  0  0
  3  4  2  0  0  0
  3  6  1  0  0  0
 17 18  2  0  0  0
 17 19  1  0  0  0
 17 20  1  0  0  0
  6  7  2  0  0  0
  6 10  1  0  0  0
  7  8  1  0  0  0
  8  9  2  0  0  0
  8 11  1  0  0  0
  9 10  1  0  0  0
  9 14  1  0  0  0
 11 12  2  0  0  0
 12 13  1  0  0  0
 13 14  2  0  0  0
 21 23  1  0  0  0
 22 23  2  0  0  0
 22 27  1  0  0  0
 23 24  1  0  0  0
 24 25  2  0  0  0
 25 26  1  0  0  0
 25 28  1  0  0  0
 26 27  2  0  0  0
  2  5  1  0  0  0
M  CHG 1  19  -1
M  CHG 1  20  -1
M  END
> <minimizedAffinity>
-6.58149

$$$$
3IKG_J8Z_A_1


 28 30  0  0  0  0  0  0  0  0999 V2000
   12.5939    4.1183    1.5133 C   0  0  0  0  0  0  0  0  0  0  0  0
   11.5143    3.9398    0.5517 N   0  0  0  0  0  0  0  0  0  0  0  0
   10.2275    4.0851    0.9352 C   0  0  0  0  0  0  0  0  0  0  0  0
    9.9201    4.3850    2.0716 O   0  0  0  0  0  0  0  0  0  0  0  0
   11.7238    3.7119   -0.3829 H   0  0  0  0  0  0  0  0  0  0  0  0
    9.2262    4.0773   -0.1321 C   0  0  0  0  0  0  0  0  0  0  0  0
    9.1572    3.3654   -1.2763 C   0  0  0  0  0  0  0  0  0  0  0  0
    8.0562    3.5498   -2.1302 C   0  0  0  0  0  0  0  0  0  0  0  0
    7.0974    4.5047   -1.7006 C   0  0  0  0  0  0  0  0  0  0  0  0
    7.7515    5.0846   -0.1649 S   0  0  0  0  0  0  0  0  0  0  0  0
    7.7963    2.9027   -3.3526 C   0  0  0  0  0  0  0  0  0  0  0  0
    6.7016    3.2408   -4.0882 C   0  0  0  0  0  0  0  0  0  0  0  0
    5.7769    4.1875   -3.6424 C   0  0  0  0  0  0  0  0  0  0  0  0
    5.9894    4.8368   -2.4495 C   0  0  0  0  0  0  0  0  0  0  0  0
   13.6948    3.0718    1.2487 C   0  0  0  0  0  0  0  0  0  0  0  0
   14.0927    2.5127    2.5050 O   0  0  0  0  0  0  0  0  0  0  0  0
   15.4288    1.6244    2.2132 P   0  0  0  0  0  0  0  0  0  0  0  0
   14.9987    0.2436    1.9197 O   0  0  0  0  0  0  0  0  0  0  0  0
   16.1828    2.2334    0.9274 O   0  0  0  0  0  0  0  0  0  0  0  0
   16.3884    1.7084    3.4871 O   0  0  0  0  0  0  0  0  0  0  0  0
   13.2122    5.5003    1.1716 C   0  0  0  0  0  0  0  0  0  0  0  0
   14.4990    7.4182    2.2987 C   0  0  0  0  0  0  0  0  0  0  0  0
   13.6456    6.2979    2.4039 C   0  0  0  0  0  0  0  0  0  0  0  0
   13.1831    5.9269    3.6695 C   0  0  0  0  0  0  0  0  0  0  0  0
   13.5669    6.6453    4.8084 C   0  0  0  0  0  0  0  0  0  0  0  0
   14.4279    7.7508    4.7033 C   0  0  0  0  0  0  0  0  0  0  0  0
   14.8762    8.1457    3.4395 C   0  0  0  0  0  0  0  0  0  0  0  0
   13.1010    6.1894    6.1942 C   0  0  0  0  0  0  0  0  0  0  0  0
  2  1  1  0  0  0
  2  3  1  0  0  0
  1 15  1  0  0  0
  1 21  1  0  0  0
 15 16  1  0  0  0
 16 17  1  0  0  0
  3  4  2  0  0  0
  3  6  1  0  0  0
 17 18  2  0  0  0
 17 19  1  0  0  0
 17 20  1  0  0  0
  6  7  2  0  0  0
  6 10  1  0  0  0
  7  8  1  0  0  0
  8  9  2  0  0  0
  8 11  1  0  0  0
  9 10  1  0  0  0
  9 14  1  0  0  0
 11 12  2  0  0  0
 12 13  1  0  0  0
 13 14  2  0  0  0
 21 23  1  0  0  0
 22 23  2  0  0  0
 22 27  1  0  0  0
 23 24  1  0  0  0
 24 25  2  0  0  0
 25 26  1  0  0  0
 25 28  1  0  0  0
 26 27  2  0  0  0
  2  5  1  0  0  0
M  CHG 1  19  -1
M  CHG 1  20  -1
M  END
> <minimizedAffinity>
-6.50325

$$$$
3IKG_J8Z_A_1


 28 30  0  0  0  0  0  0  0  0999 V2000
   13.2580    2.9492    2.3818 C   0  0  0  0  0  0  0  0  0  0  0  0
   12.0336    3.7384    2.3656 N   0  0  0  0  0  0  0  0  0  0  0  0
   11.1895    3.7106    3.4195 C   0  0  0  0  0  0  0  0  0  0  0  0
   11.4190    3.0551    4.4163 O   0  0  0  0  0  0  0  0  0  0  0  0
   11.8203    4.2951    1.5821 H   0  0  0  0  0  0  0  0  0  0  0  0
   10.0895    4.6757    3.3970 C   0  0  0  0  0  0  0  0  0  0  0  0
    9.7009    5.5534    2.4486 C   0  0  0  0  0  0  0  0  0  0  0  0
    8.5801    6.3666    2.6887 C   0  0  0  0  0  0  0  0  0  0  0  0
    7.9504    6.1904    3.9490 C   0  0  0  0  0  0  0  0  0  0  0  0
    8.9184    4.9299    4.7215 S   0  0  0  0  0  0  0  0  0  0  0  0
    8.0141    7.3283    1.8313 C   0  0  0  0  0  0  0  0  0  0  0  0
    6.9524    8.0745    2.2436 C   0  0  0  0  0  0  0  0  0  0  0  0
    6.3556    7.8820    3.4913 C   0  0  0  0  0  0  0  0  0  0  0  0
    6.8728    6.9467    4.3558 C   0  0  0  0  0  0  0  0  0  0  0  0
   12.9933    1.5783    1.7277 C   0  0  0  0  0  0  0  0  0  0  0  0
   14.2342    1.0776    1.2190 O   0  0  0  0  0  0  0  0  0  0  0  0
   13.8573    0.0530    0.0076 P   0  0  0  0  0  0  0  0  0  0  0  0
   15.1000   -0.2573   -0.7254 O   0  0  0  0  0  0  0  0  0  0  0  0
   13.2603   -1.3005    0.6434 O   0  0  0  0  0  0  0  0  0  0  0  0
   12.7550    0.7409   -0.9211 O   0  0  0  0  0  0  0  0  0  0  0  0
   14.2345    3.7028    1.4397 C   0  0  0  0  0  0  0  0  0  0  0  0
   13.5457    6.1295    0.9490 C   0  0  0  0  0  0  0  0  0  0  0  0
   14.3021    5.2084    1.7064 C   0  0  0  0  0  0  0  0  0  0  0  0
   15.1191    5.6965    2.7300 C   0  0  0  0  0  0  0  0  0  0  0  0
   15.1926    7.0703    2.9904 C   0  0  0  0  0  0  0  0  0  0  0  0
   14.4504    7.9865    2.2260 C   0  0  0  0  0  0  0  0  0  0  0  0
   13.6109    7.5069    1.2164 C   0  0  0  0  0  0  0  0  0  0  0  0
   16.1387    7.5944    4.0746 C   0  0  0  0  0  0  0  0  0  0  0  0
  2  1  1  0  0  0
  2  3  1  0  0  0
  1 15  1  0  0  0
  1 21  1  0  0  0
 15 16  1  0  0  0
 16 17  1  0  0  0
  3  4  2  0  0  0
  3  6  1  0  0  0
 17 18  2  0  0  0
 17 19  1  0  0  0
 17 20  1  0  0  0
  6  7  2  0  0  0
  6 10  1  0  0  0
  7  8  1  0  0  0
  8  9  2  0  0  0
  8 11  1  0  0  0
  9 10  1  0  0  0
  9 14  1  0  0  0
 11 12  2  0  0  0
 12 13  1  0  0  0
 13 14  2  0  0  0
 21 23  1  0  0  0
 22 23  2  0  0  0
 22 27  1  0  0  0
 23 24  1  0  0  0
 24 25  2  0  0  0
 25 26  1  0  0  0
 25 28  1  0  0  0
 26 27  2  0  0  0
  2  5  1  0  0  0
M  CHG 1  19  -1
M  CHG 1  20  -1
M  END
> <minimizedAffinity>
-6.39025

$$$$
3IKG_J8Z_A_1


 28 30  0  0  0  0  0  0  0  0999 V2000
   14.7900    4.3814    1.7496 C   0  0  0  0  0  0  0  0  0  0  0  0
   13.5113    4.5666    2.4225 N   0  0  0  0  0  0  0  0  0  0  0  0
   12.5782    5.3916    1.9001 C   0  0  0  0  0  0  0  0  0  0  0  0
   12.7524    5.9883    0.8564 O   0  0  0  0  0  0  0  0  0  0  0  0
   13.3263    4.0878    3.2626 H   0  0  0  0  0  0  0  0  0  0  0  0
   11.2604    5.3681    2.5362 C   0  0  0  0  0  0  0  0  0  0  0  0
   10.0312    5.6122    2.0358 C   0  0  0  0  0  0  0  0  0  0  0  0
    8.9150    5.5029    2.8827 C   0  0  0  0  0  0  0  0  0  0  0  0
    9.1956    5.1463    4.2281 C   0  0  0  0  0  0  0  0  0  0  0  0
   10.9545    4.9784    4.2523 S   0  0  0  0  0  0  0  0  0  0  0  0
    7.5615    5.7049    2.5543 C   0  0  0  0  0  0  0  0  0  0  0  0
    6.6014    5.6116    3.5152 C   0  0  0  0  0  0  0  0  0  0  0  0
    6.9074    5.2629    4.8323 C   0  0  0  0  0  0  0  0  0  0  0  0
    8.2166    5.0490    5.1928 C   0  0  0  0  0  0  0  0  0  0  0  0
   15.8111    5.3971    2.3000 C   0  0  0  0  0  0  0  0  0  0  0  0
   15.5987    5.5267    3.7097 O   0  0  0  0  0  0  0  0  0  0  0  0
   15.6125    7.1248    4.0342 P   0  0  0  0  0  0  0  0  0  0  0  0
   14.9252    7.3304    5.3238 O   0  0  0  0  0  0  0  0  0  0  0  0
   17.1418    7.6126    4.1606 O   0  0  0  0  0  0  0  0  0  0  0  0
   14.9007    7.8980    2.8317 O   0  0  0  0  0  0  0  0  0  0  0  0
   15.2813    2.9792    2.1988 C   0  0  0  0  0  0  0  0  0  0  0  0
   15.8871    1.4501    0.2242 C   0  0  0  0  0  0  0  0  0  0  0  0
   14.9544    1.8674    1.1990 C   0  0  0  0  0  0  0  0  0  0  0  0
   13.7103    1.2325    1.2484 C   0  0  0  0  0  0  0  0  0  0  0  0
   13.3936    0.2120    0.3436 C   0  0  0  0  0  0  0  0  0  0  0  0
   14.3176   -0.1919   -0.6351 C   0  0  0  0  0  0  0  0  0  0  0  0
   15.5741    0.4193   -0.6771 C   0  0  0  0  0  0  0  0  0  0  0  0
   12.0043   -0.4317    0.3711 C   0  0  0  0  0  0  0  0  0  0  0  0
  2  1  1  0  0  0
  2  3  1  0  0  0
  1 15  1  0  0  0
  1 21  1  0  0  0
 15 16  1  0  0  0
 16 17  1  0  0  0
  3  4  2  0  0  0
  3  6  1  0  0  0
 17 18  2  0  0  0
 17 19  1  0  0  0
 17 20  1  0  0  0
  6  7  2  0  0  0
  6 10  1  0  0  0
  7  8  1  0  0  0
  8  9  2  0  0  0
  8 11  1  0  0  0
  9 10  1  0  0  0
  9 14  1  0  0  0
 11 12  2  0  0  0
 12 13  1  0  0  0
 13 14  2  0  0  0
 21 23  1  0  0  0
 22 23  2  0  0  0
 22 27  1  0  0  0
 23 24  1  0  0  0
 24 25  2  0  0  0
 25 26  1  0  0  0
 25 28  1  0  0  0
 26 27  2  0  0  0
  2  5  1  0  0  0
M  CHG 1  19  -1
M  CHG 1  20  -1
M  END
> <minimizedAffinity>
-6.25882

$$$$
3IKG_J8Z_A_1


 28 30  0  0  0  0  0  0  0  0999 V2000
   14.5783    2.8730    2.6879 C   0  0  0  0  0  0  0  0  0  0  0  0
   13.3189    2.9921    1.9655 N   0  0  0  0  0  0  0  0  0  0  0  0
   12.1596    3.1607    2.6377 C   0  0  0  0  0  0  0  0  0  0  0  0
   12.1187    3.2391    3.8493 O   0  0  0  0  0  0  0  0  0  0  0  0
   13.3128    2.9496    0.9820 H   0  0  0  0  0  0  0  0  0  0  0  0
   10.9773    3.4618    1.8293 C   0  0  0  0  0  0  0  0  0  0  0  0
   10.3428    2.7372    0.8843 C   0  0  0  0  0  0  0  0  0  0  0  0
    9.2009    3.2732    0.2648 C   0  0  0  0  0  0  0  0  0  0  0  0
    8.8178    4.5703    0.6968 C   0  0  0  0  0  0  0  0  0  0  0  0
   10.0298    4.9734    1.9180 S   0  0  0  0  0  0  0  0  0  0  0  0
    8.3994    2.6778   -0.7270 C   0  0  0  0  0  0  0  0  0  0  0  0
    7.3518    3.3620   -1.2641 C   0  0  0  0  0  0  0  0  0  0  0  0
    7.0005    4.6391   -0.8221 C   0  0  0  0  0  0  0  0  0  0  0  0
    7.7527    5.2530    0.1511 C   0  0  0  0  0  0  0  0  0  0  0  0
   15.1492    1.4542    2.4929 C   0  0  0  0  0  0  0  0  0  0  0  0
   15.1684    0.8001    3.7661 O   0  0  0  0  0  0  0  0  0  0  0  0
   14.1118   -0.4380    3.6657 P   0  0  0  0  0  0  0  0  0  0  0  0
   13.7094   -0.5757    2.2526 O   0  0  0  0  0  0  0  0  0  0  0  0
   14.8499   -1.7866    4.1445 O   0  0  0  0  0  0  0  0  0  0  0  0
   12.8734   -0.1341    4.6274 O   0  0  0  0  0  0  0  0  0  0  0  0
   15.5512    3.8403    1.9621 C   0  0  0  0  0  0  0  0  0  0  0  0
   14.2940    5.9703    1.2645 C   0  0  0  0  0  0  0  0  0  0  0  0
   15.1903    5.3171    2.1387 C   0  0  0  0  0  0  0  0  0  0  0  0
   15.7448    6.0463    3.1943 C   0  0  0  0  0  0  0  0  0  0  0  0
   15.4252    7.3977    3.3735 C   0  0  0  0  0  0  0  0  0  0  0  0
   14.5445    8.0497    2.4938 C   0  0  0  0  0  0  0  0  0  0  0  0
   13.9649    7.3232    1.4497 C   0  0  0  0  0  0  0  0  0  0  0  0
   16.0881    8.1986    4.4979 C   0  0  0  0  0  0  0  0  0  0  0  0
  2  1  1  0  0  0
  2  3  1  0  0  0
  1 15  1  0  0  0
  1 21  1  0  0  0
 15 16  1  0  0  0
 16 17  1  0  0  0
  3  4  2  0  0  0
  3  6  1  0  0  0
 17 18  2  0  0  0
 17 19  1  0  0  0
 17 20  1  0  0  0
  6  7  2  0  0  0
  6 10  1  0  0  0
  7  8  1  0  0  0
  8  9  2  0  0  0
  8 11  1  0  0  0
  9 10  1  0  0  0
  9 14  1  0  0  0
 11 12  2  0  0  0
 12 13  1  0  0  0
 13 14  2  0  0  0
 21 23  1  0  0  0
 22 23  2  0  0  0
 22 27  1  0  0  0
 23 24  1  0  0  0
 24 25  2  0  0  0
 25 26  1  0  0  0
 25 28  1  0  0  0
 26 27  2  0  0  0
  2  5  1  0  0  0
M  CHG 1  19  -1
M  CHG 1  20  -1
M  END
> <minimizedAffinity>
-6.16629

$$$$
3IKG_J8Z_A_1


 28 30  0  0  0  0  0  0  0  0999 V2000
   14.7967    2.8317    3.1870 C   0  0  0  0  0  0  0  0  0  0  0  0
   13.3711    3.0961    3.3285 N   0  0  0  0  0  0  0  0  0  0  0  0
   12.8682    3.5133    4.5104 C   0  0  0  0  0  0  0  0  0  0  0  0
   13.5710    3.7023    5.4831 O   0  0  0  0  0  0  0  0  0  0  0  0
   12.7710    2.9700    2.5583 H   0  0  0  0  0  0  0  0  0  0  0  0
   11.4671    3.9362    4.5079 C   0  0  0  0  0  0  0  0  0  0  0  0
   10.4471    3.6262    5.3352 C   0  0  0  0  0  0  0  0  0  0  0  0
    9.1832    4.1957    5.1044 C   0  0  0  0  0  0  0  0  0  0  0  0
    9.0935    5.0606    3.9820 C   0  0  0  0  0  0  0  0  0  0  0  0
   10.7311    5.0468    3.3182 S   0  0  0  0  0  0  0  0  0  0  0  0
    8.0050    4.0092    5.8510 C   0  0  0  0  0  0  0  0  0  0  0  0
    6.8423    4.5973    5.4558 C   0  0  0  0  0  0  0  0  0  0  0  0
    6.7829    5.4405    4.3443 C   0  0  0  0  0  0  0  0  0  0  0  0
    7.9134    5.6558    3.5924 C   0  0  0  0  0  0  0  0  0  0  0  0
   15.0104    1.3456    2.8364 C   0  0  0  0  0  0  0  0  0  0  0  0
   16.0476    0.8314    3.6785 O   0  0  0  0  0  0  0  0  0  0  0  0
   15.4300   -0.4814    4.4232 P   0  0  0  0  0  0  0  0  0  0  0  0
   14.5491   -0.0121    5.5102 O   0  0  0  0  0  0  0  0  0  0  0  0
   14.5621   -1.3192    3.3567 O   0  0  0  0  0  0  0  0  0  0  0  0
   16.6358   -1.3815    4.9586 O   0  0  0  0  0  0  0  0  0  0  0  0
   15.2342    3.6436    1.9386 C   0  0  0  0  0  0  0  0  0  0  0  0
   14.0686    5.8133    1.2051 C   0  0  0  0  0  0  0  0  0  0  0  0
   14.9704    5.1461    2.0629 C   0  0  0  0  0  0  0  0  0  0  0  0
   15.6221    5.8862    3.0534 C   0  0  0  0  0  0  0  0  0  0  0  0
   15.3922    7.2612    3.1841 C   0  0  0  0  0  0  0  0  0  0  0  0
   14.5056    7.9260    2.3201 C   0  0  0  0  0  0  0  0  0  0  0  0
   13.8296    7.1906    1.3422 C   0  0  0  0  0  0  0  0  0  0  0  0
   16.1599    8.0693    4.2343 C   0  0  0  0  0  0  0  0  0  0  0  0
  2  1  1  0  0  0
  2  3  1  0  0  0
  1 15  1  0  0  0
  1 21  1  0  0  0
 15 16  1  0  0  0
 16 17  1  0  0  0
  3  4  2  0  0  0
  3  6  1  0  0  0
 17 18  2  0  0  0
 17 19  1  0  0  0
 17 20  1  0  0  0
  6  7  2  0  0  0
  6 10  1  0  0  0
  7  8  1  0  0  0
  8  9  2  0  0  0
  8 11  1  0  0  0
  9 10  1  0  0  0
  9 14  1  0  0  0
 11 12  2  0  0  0
 12 13  1  0  0  0
 13 14  2  0  0  0
 21 23  1  0  0  0
 22 23  2  0  0  0
 22 27  1  0  0  0
 23 24  1  0  0  0
 24 25  2  0  0  0
 25 26  1  0  0  0
 25 28  1  0  0  0
 26 27  2  0  0  0
  2  5  1  0  0  0
M  CHG 1  19  -1
M  CHG 1  20  -1
M  END
> <minimizedAffinity>
-6.13094

$$$$
3IKG_J8Z_A_1


 28 30  0  0  0  0  0  0  0  0999 V2000
   13.2646    4.3489    1.9399 C   0  0  0  0  0  0  0  0  0  0  0  0
   12.0780    5.0573    2.4008 N   0  0  0  0  0  0  0  0  0  0  0  0
   10.9161    4.9580    1.7196 C   0  0  0  0  0  0  0  0  0  0  0  0
   10.8056    4.2712    0.7236 O   0  0  0  0  0  0  0  0  0  0  0  0
   12.1234    5.6114    3.2132 H   0  0  0  0  0  0  0  0  0  0  0  0
    9.7364    5.5438    2.3576 C   0  0  0  0  0  0  0  0  0  0  0  0
    8.8292    6.4304    1.8973 C   0  0  0  0  0  0  0  0  0  0  0  0
    7.7683    6.8184    2.7334 C   0  0  0  0  0  0  0  0  0  0  0  0
    7.7572    6.2318    4.0263 C   0  0  0  0  0  0  0  0  0  0  0  0
    9.1842    5.1895    4.0189 S   0  0  0  0  0  0  0  0  0  0  0  0
    6.7237    7.7146    2.4398 C   0  0  0  0  0  0  0  0  0  0  0  0
    5.7991    8.0249    3.3899 C   0  0  0  0  0  0  0  0  0  0  0  0
    5.8153    7.4350    4.6555 C   0  0  0  0  0  0  0  0  0  0  0  0
    6.8141    6.5479    4.9798 C   0  0  0  0  0  0  0  0  0  0  0  0
   14.5259    5.0848    2.4347 C   0  0  0  0  0  0  0  0  0  0  0  0
   14.2936    5.5172    3.7795 O   0  0  0  0  0  0  0  0  0  0  0  0
   15.1388    6.8983    3.9733 P   0  0  0  0  0  0  0  0  0  0  0  0
   14.8735    7.4036    5.3342 O   0  0  0  0  0  0  0  0  0  0  0  0
   16.7077    6.5688    3.8226 O   0  0  0  0  0  0  0  0  0  0  0  0
   14.6969    7.9330    2.8398 O   0  0  0  0  0  0  0  0  0  0  0  0
   13.2330    2.9862    2.6823 C   0  0  0  0  0  0  0  0  0  0  0  0
   11.9648    0.9604    1.7378 C   0  0  0  0  0  0  0  0  0  0  0  0
   13.1134    1.7819    1.7453 C   0  0  0  0  0  0  0  0  0  0  0  0
   14.1541    1.4834    0.8614 C   0  0  0  0  0  0  0  0  0  0  0  0
   14.0623    0.3872   -0.0048 C   0  0  0  0  0  0  0  0  0  0  0  0
   12.9247   -0.4377   -0.0004 C   0  0  0  0  0  0  0  0  0  0  0  0
   11.8675   -0.1333    0.8619 C   0  0  0  0  0  0  0  0  0  0  0  0
   15.2362    0.0372   -0.9239 C   0  0  0  0  0  0  0  0  0  0  0  0
  2  1  1  0  0  0
  2  3  1  0  0  0
  1 15  1  0  0  0
  1 21  1  0  0  0
 15 16  1  0  0  0
 16 17  1  0  0  0
  3  4  2  0  0  0
  3  6  1  0  0  0
 17 18  2  0  0  0
 17 19  1  0  0  0
 17 20  1  0  0  0
  6  7  2  0  0  0
  6 10  1  0  0  0
  7  8  1  0  0  0
  8  9  2  0  0  0
  8 11  1  0  0  0
  9 10  1  0  0  0
  9 14  1  0  0  0
 11 12  2  0  0  0
 12 13  1  0  0  0
 13 14  2  0  0  0
 21 23  1  0  0  0
 22 23  2  0  0  0
 22 27  1  0  0  0
 23 24  1  0  0  0
 24 25  2  0  0  0
 25 26  1  0  0  0
 25 28  1  0  0  0
 26 27  2  0  0  0
  2  5  1  0  0  0
M  CHG 1  19  -1
M  CHG 1  20  -1
M  END
> <minimizedAffinity>
-5.82653

$$$$
