2HS1_017_A_201


 42 45  0  0  0  0  0  0  0  0999 V2000
    1.9838    6.7348   38.3975 C   0  0  0  0  0  0  0  0  0  0  0  0
    2.2343    5.4870   37.7466 O   0  0  0  0  0  0  0  0  0  0  0  0
    2.5402    5.6506   36.8407 H   0  0  0  0  0  0  0  0  0  0  0  0
    0.8517    7.4615   37.6711 C   0  0  0  0  0  0  0  0  0  0  0  0
    0.8795    8.9111   37.9369 N   0  0  0  0  0  0  0  0  0  0  0  0
    1.3294    9.9478   36.7095 S   0  0  0  0  0  0  0  0  0  0  0  0
    2.7835   10.0161   36.7174 O   0  0  0  0  0  0  0  0  0  0  0  0
    0.5963   11.1242   36.9448 O   0  0  0  0  0  0  0  0  0  0  0  0
   -0.1009    8.0440   31.3187 N   0  0  0  0  0  0  0  0  0  0  0  0
    0.2516    8.4376   32.5987 C   0  0  0  0  0  0  0  0  0  0  0  0
   -0.5388    9.3702   33.2511 C   0  0  0  0  0  0  0  0  0  0  0  0
   -0.2295    9.7842   34.5059 C   0  0  0  0  0  0  0  0  0  0  0  0
    0.8713    9.2962   35.1637 C   0  0  0  0  0  0  0  0  0  0  0  0
    1.6885    8.3690   34.5664 C   0  0  0  0  0  0  0  0  0  0  0  0
    1.3753    7.9404   33.2778 C   0  0  0  0  0  0  0  0  0  0  0  0
   -0.9004    8.4254   30.8891 H   0  0  0  0  0  0  0  0  0  0  0  0
    0.4480    7.3829   30.8383 H   0  0  0  0  0  0  0  0  0  0  0  0
   -0.2073    9.3655   38.8216 C   0  0  0  0  0  0  0  0  0  0  0  0
   -1.4847    8.5692   38.6739 C   0  0  0  0  0  0  0  0  0  0  0  0
   -2.2383    8.4413   39.9786 C   0  0  0  0  0  0  0  0  0  0  0  0
   -2.3648    9.1508   37.5941 C   0  0  0  0  0  0  0  0  0  0  0  0
    3.3017    7.5296   38.5186 C   0  0  0  0  0  0  0  0  0  0  0  0
    3.7644    7.4254   39.8881 N   0  0  0  0  0  0  0  0  0  0  0  0
    3.4516    8.3470   40.8270 C   0  0  0  0  0  0  0  0  0  0  0  0
    2.8101    9.4086   40.6981 O   0  0  0  0  0  0  0  0  0  0  0  0
    4.3254    6.6577   40.1435 H   0  0  0  0  0  0  0  0  0  0  0  0
    3.9658    7.9417   42.0068 O   0  0  0  0  0  0  0  0  0  0  0  0
    3.3140    8.4753   43.2178 C   0  0  0  0  0  0  0  0  0  0  0  0
    2.5844    7.2315   43.8535 C   0  0  0  0  0  0  0  0  0  0  0  0
    3.6426    6.4648   44.4602 O   0  0  0  0  0  0  0  0  0  0  0  0
    4.5927    7.4241   44.9806 C   0  0  0  0  0  0  0  0  0  0  0  0
    5.8612    7.0017   44.5969 O   0  0  0  0  0  0  0  0  0  0  0  0
    6.4630    7.9174   43.6520 C   0  0  0  0  0  0  0  0  0  0  0  0
    5.7152    9.2239   43.8368 C   0  0  0  0  0  0  0  0  0  0  0  0
    4.3412    8.7854   44.2943 C   0  0  0  0  0  0  0  0  0  0  0  0
    4.4221    7.0921   37.5531 C   0  0  0  0  0  0  0  0  0  0  0  0
    6.8640    7.0666   38.1640 C   0  0  0  0  0  0  0  0  0  0  0  0
    8.0711    7.7162   38.4636 C   0  0  0  0  0  0  0  0  0  0  0  0
    8.1113    9.0761   38.4741 C   0  0  0  0  0  0  0  0  0  0  0  0
    6.9744    9.8156   38.1810 C   0  0  0  0  0  0  0  0  0  0  0  0
    5.7965    9.2062   37.8909 C   0  0  0  0  0  0  0  0  0  0  0  0
    5.7269    7.8239   37.8742 C   0  0  0  0  0  0  0  0  0  0  0  0
  9 10  1  0  0  0
 10 11  2  0  0  0
 10 15  1  0  0  0
 11 12  1  0  0  0
 12 13  2  0  0  0
 13 14  1  0  0  0
 13  6  1  0  0  0
 14 15  2  0  0  0
  6  7  2  0  0  0
  6  8  2  0  0  0
  6  5  1  0  0  0
  5 18  1  0  0  0
  5  4  1  0  0  0
 18 19  1  0  0  0
 19 20  1  0  0  0
 19 21  1  0  0  0
  4  1  1  0  0  0
  1  2  1  0  0  0
  1 22  1  0  0  0
 22 23  1  0  0  0
 22 36  1  0  0  0
 23 24  1  0  0  0
 24 25  2  0  0  0
 24 27  1  0  0  0
 27 28  1  0  0  0
 28 29  1  0  0  0
 28 35  1  0  0  0
 29 30  1  0  0  0
 30 31  1  0  0  0
 31 32  1  0  0  0
 31 35  1  0  0  0
 32 33  1  0  0  0
 33 34  1  0  0  0
 34 35  1  0  0  0
 36 42  1  0  0  0
 37 38  2  0  0  0
 37 42  1  0  0  0
 38 39  1  0  0  0
 39 40  2  0  0  0
 40 41  1  0  0  0
 41 42  2  0  0  0
  9 16  1  0  0  0
  9 17  1  0  0  0
  2  3  1  0  0  0
 23 26  1  0  0  0
M  END
> <minimizedAffinity>
-10.20175

$$$$
2HS1_017_A_201


 42 45  0  0  0  0  0  0  0  0999 V2000
    1.4416    6.6083   38.0543 C   0  0  0  0  0  0  0  0  0  0  0  0
    1.7773    5.2723   37.6723 O   0  0  0  0  0  0  0  0  0  0  0  0
    2.2627    5.2884   36.8326 H   0  0  0  0  0  0  0  0  0  0  0  0
    0.5007    7.2079   37.0090 C   0  0  0  0  0  0  0  0  0  0  0  0
    0.5452    8.6811   37.0210 N   0  0  0  0  0  0  0  0  0  0  0  0
    0.9283    9.4882   35.6119 S   0  0  0  0  0  0  0  0  0  0  0  0
    2.1869    8.9372   35.1308 O   0  0  0  0  0  0  0  0  0  0  0  0
    0.8733   10.8514   35.9513 O   0  0  0  0  0  0  0  0  0  0  0  0
   -3.3395    8.5427   31.6594 N   0  0  0  0  0  0  0  0  0  0  0  0
   -2.3007    8.7768   32.5446 C   0  0  0  0  0  0  0  0  0  0  0  0
   -2.1884    7.9738   33.6683 C   0  0  0  0  0  0  0  0  0  0  0  0
   -1.1859    8.1689   34.5620 C   0  0  0  0  0  0  0  0  0  0  0  0
   -0.2580    9.1636   34.3826 C   0  0  0  0  0  0  0  0  0  0  0  0
   -0.3195    9.9875   33.2864 C   0  0  0  0  0  0  0  0  0  0  0  0
   -1.3470    9.7914   32.3655 C   0  0  0  0  0  0  0  0  0  0  0  0
   -3.9809    7.8165   31.8340 H   0  0  0  0  0  0  0  0  0  0  0  0
   -3.4367    9.1025   30.8554 H   0  0  0  0  0  0  0  0  0  0  0  0
   -0.4906    9.2916   37.8724 C   0  0  0  0  0  0  0  0  0  0  0  0
   -1.6612    8.3770   38.1562 C   0  0  0  0  0  0  0  0  0  0  0  0
   -1.7983    8.0558   39.6274 C   0  0  0  0  0  0  0  0  0  0  0  0
   -2.9441    8.9506   37.6047 C   0  0  0  0  0  0  0  0  0  0  0  0
    2.7334    7.4134   38.3122 C   0  0  0  0  0  0  0  0  0  0  0  0
    3.1540    7.1620   39.6762 N   0  0  0  0  0  0  0  0  0  0  0  0
    2.6622    7.8627   40.7230 C   0  0  0  0  0  0  0  0  0  0  0  0
    1.8648    8.8215   40.7174 O   0  0  0  0  0  0  0  0  0  0  0  0
    3.8202    6.4575   39.8463 H   0  0  0  0  0  0  0  0  0  0  0  0
    3.1889    7.3561   41.8572 O   0  0  0  0  0  0  0  0  0  0  0  0
    3.3676    8.3056   42.9719 C   0  0  0  0  0  0  0  0  0  0  0  0
    3.1135    7.4451   44.2674 C   0  0  0  0  0  0  0  0  0  0  0  0
    4.3114    6.6591   44.4183 O   0  0  0  0  0  0  0  0  0  0  0  0
    5.4074    7.5028   43.9930 C   0  0  0  0  0  0  0  0  0  0  0  0
    6.2121    6.7438   43.1497 O   0  0  0  0  0  0  0  0  0  0  0  0
    6.1766    7.2414   41.7915 C   0  0  0  0  0  0  0  0  0  0  0  0
    5.7003    8.6766   41.9088 C   0  0  0  0  0  0  0  0  0  0  0  0
    4.8341    8.6634   43.1494 C   0  0  0  0  0  0  0  0  0  0  0  0
    3.8958    7.1157   37.3431 C   0  0  0  0  0  0  0  0  0  0  0  0
    4.9913    9.3699   37.5774 C   0  0  0  0  0  0  0  0  0  0  0  0
    6.0941   10.1843   37.8767 C   0  0  0  0  0  0  0  0  0  0  0  0
    7.2669    9.6062   38.2525 C   0  0  0  0  0  0  0  0  0  0  0  0
    7.3711    8.2260   38.3505 C   0  0  0  0  0  0  0  0  0  0  0  0
    6.3167    7.4206   38.0631 C   0  0  0  0  0  0  0  0  0  0  0  0
    5.1118    7.9821   37.6772 C   0  0  0  0  0  0  0  0  0  0  0  0
  9 10  1  0  0  0
 10 11  2  0  0  0
 10 15  1  0  0  0
 11 12  1  0  0  0
 12 13  2  0  0  0
 13 14  1  0  0  0
 13  6  1  0  0  0
 14 15  2  0  0  0
  6  7  2  0  0  0
  6  8  2  0  0  0
  6  5  1  0  0  0
  5 18  1  0  0  0
  5  4  1  0  0  0
 18 19  1  0  0  0
 19 20  1  0  0  0
 19 21  1  0  0  0
  4  1  1  0  0  0
  1  2  1  0  0  0
  1 22  1  0  0  0
 22 23  1  0  0  0
 22 36  1  0  0  0
 23 24  1  0  0  0
 24 25  2  0  0  0
 24 27  1  0  0  0
 27 28  1  0  0  0
 28 29  1  0  0  0
 28 35  1  0  0  0
 29 30  1  0  0  0
 30 31  1  0  0  0
 31 32  1  0  0  0
 31 35  1  0  0  0
 32 33  1  0  0  0
 33 34  1  0  0  0
 34 35  1  0  0  0
 36 42  1  0  0  0
 37 38  2  0  0  0
 37 42  1  0  0  0
 38 39  1  0  0  0
 39 40  2  0  0  0
 40 41  1  0  0  0
 41 42  2  0  0  0
  9 16  1  0  0  0
  9 17  1  0  0  0
  2  3  1  0  0  0
 23 26  1  0  0  0
M  END
> <minimizedAffinity>
-9.48649

$$$$
2HS1_017_A_201


 42 45  0  0  0  0  0  0  0  0999 V2000
    3.7217    7.8479   37.6751 C   0  0  0  0  0  0  0  0  0  0  0  0
    4.0209    6.4948   37.3246 O   0  0  0  0  0  0  0  0  0  0  0  0
    4.8154    6.4729   36.7686 H   0  0  0  0  0  0  0  0  0  0  0  0
    3.3969    8.6354   36.4055 C   0  0  0  0  0  0  0  0  0  0  0  0
    1.9427    8.7410   36.1901 N   0  0  0  0  0  0  0  0  0  0  0  0
    1.1204   10.0318   36.8544 S   0  0  0  0  0  0  0  0  0  0  0  0
    0.5098   10.7635   35.7540 O   0  0  0  0  0  0  0  0  0  0  0  0
    2.0690   10.6881   37.6582 O   0  0  0  0  0  0  0  0  0  0  0  0
   -3.2351    8.4158   40.4806 N   0  0  0  0  0  0  0  0  0  0  0  0
   -2.2441    8.7784   39.5840 C   0  0  0  0  0  0  0  0  0  0  0  0
   -0.9201    8.5567   39.9277 C   0  0  0  0  0  0  0  0  0  0  0  0
    0.0825    8.8974   39.0789 C   0  0  0  0  0  0  0  0  0  0  0  0
   -0.1820    9.4710   37.8609 C   0  0  0  0  0  0  0  0  0  0  0  0
   -1.4750    9.7117   37.4677 C   0  0  0  0  0  0  0  0  0  0  0  0
   -2.5084    9.3636   38.3355 C   0  0  0  0  0  0  0  0  0  0  0  0
   -2.9931    8.0084   41.3436 H   0  0  0  0  0  0  0  0  0  0  0  0
   -4.1817    8.5655   40.2552 H   0  0  0  0  0  0  0  0  0  0  0  0
    1.5156    8.3038   34.8497 C   0  0  0  0  0  0  0  0  0  0  0  0
    0.4529    7.2277   34.8710 C   0  0  0  0  0  0  0  0  0  0  0  0
    0.3863    6.5096   36.2000 C   0  0  0  0  0  0  0  0  0  0  0  0
   -0.8955    7.7893   34.4899 C   0  0  0  0  0  0  0  0  0  0  0  0
    4.8689    8.4272   38.5305 C   0  0  0  0  0  0  0  0  0  0  0  0
    4.7195    7.9243   39.8815 N   0  0  0  0  0  0  0  0  0  0  0  0
    3.8462    8.4665   40.7602 C   0  0  0  0  0  0  0  0  0  0  0  0
    3.1049    9.4587   40.6153 O   0  0  0  0  0  0  0  0  0  0  0  0
    5.2724    7.1622   40.1692 H   0  0  0  0  0  0  0  0  0  0  0  0
    3.8880    7.7447   41.8995 O   0  0  0  0  0  0  0  0  0  0  0  0
    3.3077    8.3838   43.0957 C   0  0  0  0  0  0  0  0  0  0  0  0
    2.6044    7.2054   43.8703 C   0  0  0  0  0  0  0  0  0  0  0  0
    3.6881    6.4780   44.4802 O   0  0  0  0  0  0  0  0  0  0  0  0
    4.6728    7.4649   44.8677 C   0  0  0  0  0  0  0  0  0  0  0  0
    5.9150    6.9968   44.4523 O   0  0  0  0  0  0  0  0  0  0  0  0
    6.4713    7.8245   43.4039 C   0  0  0  0  0  0  0  0  0  0  0  0
    5.7451    9.1509   43.5204 C   0  0  0  0  0  0  0  0  0  0  0  0
    4.3948    8.7684   44.0860 C   0  0  0  0  0  0  0  0  0  0  0  0
    6.2899    8.1234   38.0134 C   0  0  0  0  0  0  0  0  0  0  0  0
    6.8319   10.3494   39.0564 C   0  0  0  0  0  0  0  0  0  0  0  0
    7.7391   11.2776   39.5896 C   0  0  0  0  0  0  0  0  0  0  0  0
    9.0621   10.9639   39.6387 C   0  0  0  0  0  0  0  0  0  0  0  0
    9.5109    9.7347   39.1771 C   0  0  0  0  0  0  0  0  0  0  0  0
    8.6498    8.8239   38.6557 C   0  0  0  0  0  0  0  0  0  0  0  0
    7.2986    9.1175   38.5926 C   0  0  0  0  0  0  0  0  0  0  0  0
  9 10  1  0  0  0
 10 11  2  0  0  0
 10 15  1  0  0  0
 11 12  1  0  0  0
 12 13  2  0  0  0
 13 14  1  0  0  0
 13  6  1  0  0  0
 14 15  2  0  0  0
  6  7  2  0  0  0
  6  8  2  0  0  0
  6  5  1  0  0  0
  5 18  1  0  0  0
  5  4  1  0  0  0
 18 19  1  0  0  0
 19 20  1  0  0  0
 19 21  1  0  0  0
  4  1  1  0  0  0
  1  2  1  0  0  0
  1 22  1  0  0  0
 22 23  1  0  0  0
 22 36  1  0  0  0
 23 24  1  0  0  0
 24 25  2  0  0  0
 24 27  1  0  0  0
 27 28  1  0  0  0
 28 29  1  0  0  0
 28 35  1  0  0  0
 29 30  1  0  0  0
 30 31  1  0  0  0
 31 32  1  0  0  0
 31 35  1  0  0  0
 32 33  1  0  0  0
 33 34  1  0  0  0
 34 35  1  0  0  0
 36 42  1  0  0  0
 37 38  2  0  0  0
 37 42  1  0  0  0
 38 39  1  0  0  0
 39 40  2  0  0  0
 40 41  1  0  0  0
 41 42  2  0  0  0
  9 16  1  0  0  0
  9 17  1  0  0  0
  2  3  1  0  0  0
 23 26  1  0  0  0
M  END
> <minimizedAffinity>
-9.33448

$$$$
2HS1_017_A_201


 42 45  0  0  0  0  0  0  0  0999 V2000
    2.1554    7.0466   39.5902 C   0  0  0  0  0  0  0  0  0  0  0  0
    2.2449    5.6534   39.2827 O   0  0  0  0  0  0  0  0  0  0  0  0
    3.1615    5.4305   39.0567 H   0  0  0  0  0  0  0  0  0  0  0  0
    2.5162    7.8594   38.3465 C   0  0  0  0  0  0  0  0  0  0  0  0
    1.4276    8.7761   37.9632 N   0  0  0  0  0  0  0  0  0  0  0  0
    1.7493   10.0013   36.8774 S   0  0  0  0  0  0  0  0  0  0  0  0
    3.1968   10.0997   36.7584 O   0  0  0  0  0  0  0  0  0  0  0  0
    1.0344   11.1101   37.3632 O   0  0  0  0  0  0  0  0  0  0  0  0
   -0.4773    8.3371   31.6809 N   0  0  0  0  0  0  0  0  0  0  0  0
    0.0411    8.7831   32.8850 C   0  0  0  0  0  0  0  0  0  0  0  0
    1.0683    8.0648   33.4758 C   0  0  0  0  0  0  0  0  0  0  0  0
    1.6050    8.4661   34.6559 C   0  0  0  0  0  0  0  0  0  0  0  0
    1.1482    9.5889   35.2986 C   0  0  0  0  0  0  0  0  0  0  0  0
    0.1341   10.3399   34.7582 C   0  0  0  0  0  0  0  0  0  0  0  0
   -0.4205    9.9323   33.5464 C   0  0  0  0  0  0  0  0  0  0  0  0
   -0.1155    7.5237   31.2603 H   0  0  0  0  0  0  0  0  0  0  0  0
   -1.2076    8.8333   31.2454 H   0  0  0  0  0  0  0  0  0  0  0  0
    0.1179    8.1125   37.8428 C   0  0  0  0  0  0  0  0  0  0  0  0
   -1.0241    8.9091   38.4335 C   0  0  0  0  0  0  0  0  0  0  0  0
   -2.1897    9.0403   37.4794 C   0  0  0  0  0  0  0  0  0  0  0  0
   -1.4669    8.3256   39.7536 C   0  0  0  0  0  0  0  0  0  0  0  0
    3.0016    7.3558   40.8438 C   0  0  0  0  0  0  0  0  0  0  0  0
    4.2733    7.8950   40.4051 N   0  0  0  0  0  0  0  0  0  0  0  0
    5.4543    7.4095   40.8502 C   0  0  0  0  0  0  0  0  0  0  0  0
    5.6649    6.5201   41.6986 O   0  0  0  0  0  0  0  0  0  0  0  0
    4.2774    8.6399   39.7614 H   0  0  0  0  0  0  0  0  0  0  0  0
    6.4484    8.0637   40.2143 O   0  0  0  0  0  0  0  0  0  0  0  0
    6.5489    9.5111   40.4808 C   0  0  0  0  0  0  0  0  0  0  0  0
    7.3493    9.6081   41.8348 C   0  0  0  0  0  0  0  0  0  0  0  0
    8.7141    9.3295   41.4669 O   0  0  0  0  0  0  0  0  0  0  0  0
    8.9109    9.9178   40.1597 C   0  0  0  0  0  0  0  0  0  0  0  0
    9.5552    8.9703   39.3710 O   0  0  0  0  0  0  0  0  0  0  0  0
    8.7029    8.5029   38.2992 C   0  0  0  0  0  0  0  0  0  0  0  0
    7.6470    9.5793   38.1359 C   0  0  0  0  0  0  0  0  0  0  0  0
    7.5263   10.1721   39.5228 C   0  0  0  0  0  0  0  0  0  0  0  0
    2.3466    8.3180   41.8558 C   0  0  0  0  0  0  0  0  0  0  0  0
    2.5607    7.4556   44.2110 C   0  0  0  0  0  0  0  0  0  0  0  0
    3.2131    7.3953   45.4518 C   0  0  0  0  0  0  0  0  0  0  0  0
    4.3365    8.1365   45.6508 C   0  0  0  0  0  0  0  0  0  0  0  0
    4.8404    8.9362   44.6350 C   0  0  0  0  0  0  0  0  0  0  0  0
    4.2229    9.0101   43.4283 C   0  0  0  0  0  0  0  0  0  0  0  0
    3.0775    8.2674   43.1990 C   0  0  0  0  0  0  0  0  0  0  0  0
  9 10  1  0  0  0
 10 11  2  0  0  0
 10 15  1  0  0  0
 11 12  1  0  0  0
 12 13  2  0  0  0
 13 14  1  0  0  0
 13  6  1  0  0  0
 14 15  2  0  0  0
  6  7  2  0  0  0
  6  8  2  0  0  0
  6  5  1  0  0  0
  5 18  1  0  0  0
  5  4  1  0  0  0
 18 19  1  0  0  0
 19 20  1  0  0  0
 19 21  1  0  0  0
  4  1  1  0  0  0
  1  2  1  0  0  0
  1 22  1  0  0  0
 22 23  1  0  0  0
 22 36  1  0  0  0
 23 24  1  0  0  0
 24 25  2  0  0  0
 24 27  1  0  0  0
 27 28  1  0  0  0
 28 29  1  0  0  0
 28 35  1  0  0  0
 29 30  1  0  0  0
 30 31  1  0  0  0
 31 32  1  0  0  0
 31 35  1  0  0  0
 32 33  1  0  0  0
 33 34  1  0  0  0
 34 35  1  0  0  0
 36 42  1  0  0  0
 37 38  2  0  0  0
 37 42  1  0  0  0
 38 39  1  0  0  0
 39 40  2  0  0  0
 40 41  1  0  0  0
 41 42  2  0  0  0
  9 16  1  0  0  0
  9 17  1  0  0  0
  2  3  1  0  0  0
 23 26  1  0  0  0
M  END
> <minimizedAffinity>
-9.23232

$$$$
2HS1_017_A_201


 42 45  0  0  0  0  0  0  0  0999 V2000
    0.6718    7.0236   36.7604 C   0  0  0  0  0  0  0  0  0  0  0  0
    0.8737    5.6148   36.8944 O   0  0  0  0  0  0  0  0  0  0  0  0
    0.4966    5.1595   36.1254 H   0  0  0  0  0  0  0  0  0  0  0  0
   -0.8284    7.3181   36.7617 C   0  0  0  0  0  0  0  0  0  0  0  0
   -1.2956    7.7469   38.0923 N   0  0  0  0  0  0  0  0  0  0  0  0
   -0.6003    9.0896   38.7974 S   0  0  0  0  0  0  0  0  0  0  0  0
   -1.4784    9.5084   39.8804 O   0  0  0  0  0  0  0  0  0  0  0  0
   -0.3705    9.9777   37.7320 O   0  0  0  0  0  0  0  0  0  0  0  0
    4.6491    7.5099   40.9604 N   0  0  0  0  0  0  0  0  0  0  0  0
    3.4216    7.9321   40.4785 C   0  0  0  0  0  0  0  0  0  0  0  0
    2.3806    7.0197   40.4142 C   0  0  0  0  0  0  0  0  0  0  0  0
    1.1615    7.3911   39.9479 C   0  0  0  0  0  0  0  0  0  0  0  0
    0.9232    8.6746   39.5258 C   0  0  0  0  0  0  0  0  0  0  0  0
    1.9171    9.6205   39.5690 C   0  0  0  0  0  0  0  0  0  0  0  0
    3.1709    9.2445   40.0471 C   0  0  0  0  0  0  0  0  0  0  0  0
    4.7698    6.5767   41.2499 H   0  0  0  0  0  0  0  0  0  0  0  0
    5.4013    8.1429   41.0136 H   0  0  0  0  0  0  0  0  0  0  0  0
   -2.7453    7.5725   38.2885 C   0  0  0  0  0  0  0  0  0  0  0  0
   -3.5782    8.0403   37.1159 C   0  0  0  0  0  0  0  0  0  0  0  0
   -4.6120    7.0186   36.6992 C   0  0  0  0  0  0  0  0  0  0  0  0
   -4.2210    9.3752   37.4052 C   0  0  0  0  0  0  0  0  0  0  0  0
    1.4406    7.5419   35.5261 C   0  0  0  0  0  0  0  0  0  0  0  0
    0.4985    7.6721   34.4326 N   0  0  0  0  0  0  0  0  0  0  0  0
    0.8964    7.9143   33.1630 C   0  0  0  0  0  0  0  0  0  0  0  0
    2.0478    8.1168   32.7291 O   0  0  0  0  0  0  0  0  0  0  0  0
   -0.4637    7.5812   34.6204 H   0  0  0  0  0  0  0  0  0  0  0  0
   -0.1947    7.9134   32.3693 O   0  0  0  0  0  0  0  0  0  0  0  0
   -0.5706    9.2121   31.7792 C   0  0  0  0  0  0  0  0  0  0  0  0
   -0.8492    8.8899   30.2620 C   0  0  0  0  0  0  0  0  0  0  0  0
   -2.1340    8.2379   30.2624 O   0  0  0  0  0  0  0  0  0  0  0  0
   -2.9167    8.8828   31.2944 C   0  0  0  0  0  0  0  0  0  0  0  0
   -3.5230    7.8796   32.0432 O   0  0  0  0  0  0  0  0  0  0  0  0
   -3.0036    7.8363   33.3930 C   0  0  0  0  0  0  0  0  0  0  0  0
   -2.3890    9.2036   33.6238 C   0  0  0  0  0  0  0  0  0  0  0  0
   -1.9553    9.6365   32.2404 C   0  0  0  0  0  0  0  0  0  0  0  0
    2.1899    8.8742   35.7325 C   0  0  0  0  0  0  0  0  0  0  0  0
    4.3714    9.7306   36.6514 C   0  0  0  0  0  0  0  0  0  0  0  0
    5.6220    9.5325   37.2559 C   0  0  0  0  0  0  0  0  0  0  0  0
    6.0152    8.2698   37.5754 C   0  0  0  0  0  0  0  0  0  0  0  0
    5.1851    7.1883   37.3174 C   0  0  0  0  0  0  0  0  0  0  0  0
    3.9725    7.3586   36.7313 C   0  0  0  0  0  0  0  0  0  0  0  0
    3.5478    8.6323   36.3947 C   0  0  0  0  0  0  0  0  0  0  0  0
  9 10  1  0  0  0
 10 11  2  0  0  0
 10 15  1  0  0  0
 11 12  1  0  0  0
 12 13  2  0  0  0
 13 14  1  0  0  0
 13  6  1  0  0  0
 14 15  2  0  0  0
  6  7  2  0  0  0
  6  8  2  0  0  0
  6  5  1  0  0  0
  5 18  1  0  0  0
  5  4  1  0  0  0
 18 19  1  0  0  0
 19 20  1  0  0  0
 19 21  1  0  0  0
  4  1  1  0  0  0
  1  2  1  0  0  0
  1 22  1  0  0  0
 22 23  1  0  0  0
 22 36  1  0  0  0
 23 24  1  0  0  0
 24 25  2  0  0  0
 24 27  1  0  0  0
 27 28  1  0  0  0
 28 29  1  0  0  0
 28 35  1  0  0  0
 29 30  1  0  0  0
 30 31  1  0  0  0
 31 32  1  0  0  0
 31 35  1  0  0  0
 32 33  1  0  0  0
 33 34  1  0  0  0
 34 35  1  0  0  0
 36 42  1  0  0  0
 37 38  2  0  0  0
 37 42  1  0  0  0
 38 39  1  0  0  0
 39 40  2  0  0  0
 40 41  1  0  0  0
 41 42  2  0  0  0
  9 16  1  0  0  0
  9 17  1  0  0  0
  2  3  1  0  0  0
 23 26  1  0  0  0
M  END
> <minimizedAffinity>
-9.08856

$$$$
2HS1_017_A_201


 42 45  0  0  0  0  0  0  0  0999 V2000
    1.7951    6.9042   38.6100 C   0  0  0  0  0  0  0  0  0  0  0  0
    2.0514    5.6119   39.1648 O   0  0  0  0  0  0  0  0  0  0  0  0
    2.6829    5.1377   38.6017 H   0  0  0  0  0  0  0  0  0  0  0  0
    1.1338    6.7407   37.2412 C   0  0  0  0  0  0  0  0  0  0  0  0
    0.0955    7.7622   37.0153 N   0  0  0  0  0  0  0  0  0  0  0  0
   -1.3419    7.6509   37.8549 S   0  0  0  0  0  0  0  0  0  0  0  0
   -1.2024    8.4649   39.0537 O   0  0  0  0  0  0  0  0  0  0  0  0
   -1.5697    6.2709   37.9979 O   0  0  0  0  0  0  0  0  0  0  0  0
   -5.5788   10.3238   34.7507 N   0  0  0  0  0  0  0  0  0  0  0  0
   -4.5884    9.6499   35.4454 C   0  0  0  0  0  0  0  0  0  0  0  0
   -4.5288    9.7871   36.8230 C   0  0  0  0  0  0  0  0  0  0  0  0
   -3.5741    9.1449   37.5427 C   0  0  0  0  0  0  0  0  0  0  0  0
   -2.6416    8.3454   36.9316 C   0  0  0  0  0  0  0  0  0  0  0  0
   -2.6544    8.1715   35.5700 C   0  0  0  0  0  0  0  0  0  0  0  0
   -3.6327    8.8286   34.8262 C   0  0  0  0  0  0  0  0  0  0  0  0
   -6.2240   10.8872   35.2360 H   0  0  0  0  0  0  0  0  0  0  0  0
   -5.6376   10.2395   33.7716 H   0  0  0  0  0  0  0  0  0  0  0  0
    0.6398    9.1160   36.8120 C   0  0  0  0  0  0  0  0  0  0  0  0
    0.9876    9.4216   35.3722 C   0  0  0  0  0  0  0  0  0  0  0  0
    0.8598    8.2088   34.4783 C   0  0  0  0  0  0  0  0  0  0  0  0
    0.1624   10.5716   34.8471 C   0  0  0  0  0  0  0  0  0  0  0  0
    3.0950    7.7370   38.6148 C   0  0  0  0  0  0  0  0  0  0  0  0
    3.6869    7.6375   39.9340 N   0  0  0  0  0  0  0  0  0  0  0  0
    3.3746    8.4961   40.9309 C   0  0  0  0  0  0  0  0  0  0  0  0
    2.6271    9.4938   40.8988 O   0  0  0  0  0  0  0  0  0  0  0  0
    4.3383    6.9206   40.1102 H   0  0  0  0  0  0  0  0  0  0  0  0
    4.0286    8.1078   42.0453 O   0  0  0  0  0  0  0  0  0  0  0  0
    3.4300    8.5221   43.3284 C   0  0  0  0  0  0  0  0  0  0  0  0
    2.7872    7.2048   43.9070 C   0  0  0  0  0  0  0  0  0  0  0  0
    3.9078    6.4407   44.3929 O   0  0  0  0  0  0  0  0  0  0  0  0
    4.8499    7.3981   44.9309 C   0  0  0  0  0  0  0  0  0  0  0  0
    6.1086    7.0595   44.4453 O   0  0  0  0  0  0  0  0  0  0  0  0
    6.6181    8.0674   43.5409 C   0  0  0  0  0  0  0  0  0  0  0  0
    5.8334    9.3238   43.8668 C   0  0  0  0  0  0  0  0  0  0  0  0
    4.5066    8.7947   44.3660 C   0  0  0  0  0  0  0  0  0  0  0  0
    4.1323    7.3392   37.5448 C   0  0  0  0  0  0  0  0  0  0  0  0
    6.5720    7.2165   38.1527 C   0  0  0  0  0  0  0  0  0  0  0  0
    7.8142    7.8156   38.4105 C   0  0  0  0  0  0  0  0  0  0  0  0
    7.9290    9.1694   38.3385 C   0  0  0  0  0  0  0  0  0  0  0  0
    6.8329    9.9512   38.0027 C   0  0  0  0  0  0  0  0  0  0  0  0
    5.6220    9.3911   37.7517 C   0  0  0  0  0  0  0  0  0  0  0  0
    5.4767    8.0162   37.8190 C   0  0  0  0  0  0  0  0  0  0  0  0
  9 10  1  0  0  0
 10 11  2  0  0  0
 10 15  1  0  0  0
 11 12  1  0  0  0
 12 13  2  0  0  0
 13 14  1  0  0  0
 13  6  1  0  0  0
 14 15  2  0  0  0
  6  7  2  0  0  0
  6  8  2  0  0  0
  6  5  1  0  0  0
  5 18  1  0  0  0
  5  4  1  0  0  0
 18 19  1  0  0  0
 19 20  1  0  0  0
 19 21  1  0  0  0
  4  1  1  0  0  0
  1  2  1  0  0  0
  1 22  1  0  0  0
 22 23  1  0  0  0
 22 36  1  0  0  0
 23 24  1  0  0  0
 24 25  2  0  0  0
 24 27  1  0  0  0
 27 28  1  0  0  0
 28 29  1  0  0  0
 28 35  1  0  0  0
 29 30  1  0  0  0
 30 31  1  0  0  0
 31 32  1  0  0  0
 31 35  1  0  0  0
 32 33  1  0  0  0
 33 34  1  0  0  0
 34 35  1  0  0  0
 36 42  1  0  0  0
 37 38  2  0  0  0
 37 42  1  0  0  0
 38 39  1  0  0  0
 39 40  2  0  0  0
 40 41  1  0  0  0
 41 42  2  0  0  0
  9 16  1  0  0  0
  9 17  1  0  0  0
  2  3  1  0  0  0
 23 26  1  0  0  0
M  END
> <minimizedAffinity>
-9.07864

$$$$
2HS1_017_A_201


 42 45  0  0  0  0  0  0  0  0999 V2000
    2.8850    8.0627   39.4495 C   0  0  0  0  0  0  0  0  0  0  0  0
    2.7545    6.7243   39.9344 O   0  0  0  0  0  0  0  0  0  0  0  0
    2.3194    6.7354   40.8012 H   0  0  0  0  0  0  0  0  0  0  0  0
    3.7937    8.8518   40.3923 C   0  0  0  0  0  0  0  0  0  0  0  0
    5.2099    8.4837   40.2147 N   0  0  0  0  0  0  0  0  0  0  0  0
    5.9616    7.5756   41.3954 S   0  0  0  0  0  0  0  0  0  0  0  0
    7.1209    6.9465   40.7794 O   0  0  0  0  0  0  0  0  0  0  0  0
    4.9469    6.7558   41.9199 O   0  0  0  0  0  0  0  0  0  0  0  0
    8.2188   10.7818   45.7949 N   0  0  0  0  0  0  0  0  0  0  0  0
    7.6906   10.0753   44.7275 C   0  0  0  0  0  0  0  0  0  0  0  0
    6.7020    9.1360   44.9733 C   0  0  0  0  0  0  0  0  0  0  0  0
    6.1573    8.4209   43.9565 C   0  0  0  0  0  0  0  0  0  0  0  0
    6.5679    8.6035   42.6602 C   0  0  0  0  0  0  0  0  0  0  0  0
    7.5423    9.5220   42.3583 C   0  0  0  0  0  0  0  0  0  0  0  0
    8.1049   10.2590   43.3987 C   0  0  0  0  0  0  0  0  0  0  0  0
    7.8910   10.6127   46.7077 H   0  0  0  0  0  0  0  0  0  0  0  0
    8.9222   11.4532   45.6411 H   0  0  0  0  0  0  0  0  0  0  0  0
    5.5649    8.1772   38.8182 C   0  0  0  0  0  0  0  0  0  0  0  0
    6.1453    9.3541   38.0660 C   0  0  0  0  0  0  0  0  0  0  0  0
    5.1656    9.9469   37.0785 C   0  0  0  0  0  0  0  0  0  0  0  0
    6.6589   10.4067   39.0185 C   0  0  0  0  0  0  0  0  0  0  0  0
    1.4840    8.6718   39.2268 C   0  0  0  0  0  0  0  0  0  0  0  0
    1.2892    8.8397   37.8005 N   0  0  0  0  0  0  0  0  0  0  0  0
    1.2729   10.0579   37.2135 C   0  0  0  0  0  0  0  0  0  0  0  0
    1.3539   11.1834   37.7445 O   0  0  0  0  0  0  0  0  0  0  0  0
    1.1645    8.0400   37.2401 H   0  0  0  0  0  0  0  0  0  0  0  0
    1.1428    9.8851   35.8817 O   0  0  0  0  0  0  0  0  0  0  0  0
   -0.2303    9.6788   35.3838 C   0  0  0  0  0  0  0  0  0  0  0  0
   -0.3662   10.6809   34.1752 C   0  0  0  0  0  0  0  0  0  0  0  0
    0.3787   10.0617   33.1087 O   0  0  0  0  0  0  0  0  0  0  0  0
    0.1652    8.6364   33.2380 C   0  0  0  0  0  0  0  0  0  0  0  0
    1.4057    8.0186   33.1190 O   0  0  0  0  0  0  0  0  0  0  0  0
    1.8115    7.3980   34.3615 C   0  0  0  0  0  0  0  0  0  0  0  0
    0.5283    7.2133   35.1486 C   0  0  0  0  0  0  0  0  0  0  0  0
   -0.3515    8.3453   34.6647 C   0  0  0  0  0  0  0  0  0  0  0  0
    0.3147    7.8615   39.8227 C   0  0  0  0  0  0  0  0  0  0  0  0
   -1.6392    9.3533   39.2810 C   0  0  0  0  0  0  0  0  0  0  0  0
   -2.8300    9.6311   38.5928 C   0  0  0  0  0  0  0  0  0  0  0  0
   -3.3279    8.7103   37.7237 C   0  0  0  0  0  0  0  0  0  0  0  0
   -2.6610    7.5124   37.5100 C   0  0  0  0  0  0  0  0  0  0  0  0
   -1.5089    7.2236   38.1675 C   0  0  0  0  0  0  0  0  0  0  0  0
   -0.9806    8.1421   39.0582 C   0  0  0  0  0  0  0  0  0  0  0  0
  9 10  1  0  0  0
 10 11  2  0  0  0
 10 15  1  0  0  0
 11 12  1  0  0  0
 12 13  2  0  0  0
 13 14  1  0  0  0
 13  6  1  0  0  0
 14 15  2  0  0  0
  6  7  2  0  0  0
  6  8  2  0  0  0
  6  5  1  0  0  0
  5 18  1  0  0  0
  5  4  1  0  0  0
 18 19  1  0  0  0
 19 20  1  0  0  0
 19 21  1  0  0  0
  4  1  1  0  0  0
  1  2  1  0  0  0
  1 22  1  0  0  0
 22 23  1  0  0  0
 22 36  1  0  0  0
 23 24  1  0  0  0
 24 25  2  0  0  0
 24 27  1  0  0  0
 27 28  1  0  0  0
 28 29  1  0  0  0
 28 35  1  0  0  0
 29 30  1  0  0  0
 30 31  1  0  0  0
 31 32  1  0  0  0
 31 35  1  0  0  0
 32 33  1  0  0  0
 33 34  1  0  0  0
 34 35  1  0  0  0
 36 42  1  0  0  0
 37 38  2  0  0  0
 37 42  1  0  0  0
 38 39  1  0  0  0
 39 40  2  0  0  0
 40 41  1  0  0  0
 41 42  2  0  0  0
  9 16  1  0  0  0
  9 17  1  0  0  0
  2  3  1  0  0  0
 23 26  1  0  0  0
M  END
> <minimizedAffinity>
-9.06111

$$$$
2HS1_017_A_201


 42 45  0  0  0  0  0  0  0  0999 V2000
    1.3272   10.1680   37.7395 C   0  0  0  0  0  0  0  0  0  0  0  0
    1.2459   11.5950   37.7189 O   0  0  0  0  0  0  0  0  0  0  0  0
    2.0564   11.9705   38.0971 H   0  0  0  0  0  0  0  0  0  0  0  0
    1.4031    9.6903   39.1899 C   0  0  0  0  0  0  0  0  0  0  0  0
    0.9383    8.2983   39.3273 N   0  0  0  0  0  0  0  0  0  0  0  0
    2.0281    7.1269   39.8002 S   0  0  0  0  0  0  0  0  0  0  0  0
    2.9991    6.9854   38.7249 O   0  0  0  0  0  0  0  0  0  0  0  0
    1.2369    6.0175   40.1464 O   0  0  0  0  0  0  0  0  0  0  0  0
    5.0268    9.2323   44.4161 N   0  0  0  0  0  0  0  0  0  0  0  0
    4.2929    8.7034   43.3676 C   0  0  0  0  0  0  0  0  0  0  0  0
    4.9292    8.4703   42.1590 C   0  0  0  0  0  0  0  0  0  0  0  0
    4.2475    7.9536   41.1053 C   0  0  0  0  0  0  0  0  0  0  0  0
    2.9132    7.6495   41.2028 C   0  0  0  0  0  0  0  0  0  0  0  0
    2.2327    7.8579   42.3767 C   0  0  0  0  0  0  0  0  0  0  0  0
    2.9280    8.3882   43.4618 C   0  0  0  0  0  0  0  0  0  0  0  0
    5.9826    9.4350   44.2949 H   0  0  0  0  0  0  0  0  0  0  0  0
    4.5929    9.4056   45.2826 H   0  0  0  0  0  0  0  0  0  0  0  0
   -0.4279    8.1874   39.8671 C   0  0  0  0  0  0  0  0  0  0  0  0
   -1.4862    7.9827   38.8060 C   0  0  0  0  0  0  0  0  0  0  0  0
   -2.1845    9.2708   38.4324 C   0  0  0  0  0  0  0  0  0  0  0  0
   -0.9081    7.3059   37.5867 C   0  0  0  0  0  0  0  0  0  0  0  0
    2.4878    9.7022   36.8343 C   0  0  0  0  0  0  0  0  0  0  0  0
    3.6539    9.4963   37.6699 N   0  0  0  0  0  0  0  0  0  0  0  0
    4.9127    9.6637   37.2049 C   0  0  0  0  0  0  0  0  0  0  0  0
    5.2892    9.9443   36.0496 O   0  0  0  0  0  0  0  0  0  0  0  0
    3.5253    9.2255   38.6076 H   0  0  0  0  0  0  0  0  0  0  0  0
    5.7717    9.4685   38.2269 O   0  0  0  0  0  0  0  0  0  0  0  0
    7.0963   10.1038   38.0935 C   0  0  0  0  0  0  0  0  0  0  0  0
    7.1712   11.1161   39.2989 C   0  0  0  0  0  0  0  0  0  0  0  0
    7.4107   10.2860   40.4519 O   0  0  0  0  0  0  0  0  0  0  0  0
    8.2750    9.2137   40.0082 C   0  0  0  0  0  0  0  0  0  0  0  0
    7.7500    8.0252   40.5048 O   0  0  0  0  0  0  0  0  0  0  0  0
    7.2592    7.1757   39.4412 C   0  0  0  0  0  0  0  0  0  0  0  0
    7.9620    7.6644   38.1891 C   0  0  0  0  0  0  0  0  0  0  0  0
    8.2037    9.1320   38.4669 C   0  0  0  0  0  0  0  0  0  0  0  0
    2.2051    8.4306   36.0083 C   0  0  0  0  0  0  0  0  0  0  0  0
    0.4207    9.7880   34.8638 C   0  0  0  0  0  0  0  0  0  0  0  0
   -0.3604   10.1109   33.7438 C   0  0  0  0  0  0  0  0  0  0  0  0
   -0.1869    9.4154   32.5873 C   0  0  0  0  0  0  0  0  0  0  0  0
    0.7599    8.4041   32.5103 C   0  0  0  0  0  0  0  0  0  0  0  0
    1.5240    8.0749   33.5830 C   0  0  0  0  0  0  0  0  0  0  0  0
    1.3675    8.7655   34.7724 C   0  0  0  0  0  0  0  0  0  0  0  0
  9 10  1  0  0  0
 10 11  2  0  0  0
 10 15  1  0  0  0
 11 12  1  0  0  0
 12 13  2  0  0  0
 13 14  1  0  0  0
 13  6  1  0  0  0
 14 15  2  0  0  0
  6  7  2  0  0  0
  6  8  2  0  0  0
  6  5  1  0  0  0
  5 18  1  0  0  0
  5  4  1  0  0  0
 18 19  1  0  0  0
 19 20  1  0  0  0
 19 21  1  0  0  0
  4  1  1  0  0  0
  1  2  1  0  0  0
  1 22  1  0  0  0
 22 23  1  0  0  0
 22 36  1  0  0  0
 23 24  1  0  0  0
 24 25  2  0  0  0
 24 27  1  0  0  0
 27 28  1  0  0  0
 28 29  1  0  0  0
 28 35  1  0  0  0
 29 30  1  0  0  0
 30 31  1  0  0  0
 31 32  1  0  0  0
 31 35  1  0  0  0
 32 33  1  0  0  0
 33 34  1  0  0  0
 34 35  1  0  0  0
 36 42  1  0  0  0
 37 38  2  0  0  0
 37 42  1  0  0  0
 38 39  1  0  0  0
 39 40  2  0  0  0
 40 41  1  0  0  0
 41 42  2  0  0  0
  9 16  1  0  0  0
  9 17  1  0  0  0
  2  3  1  0  0  0
 23 26  1  0  0  0
M  END
> <minimizedAffinity>
-9.04207

$$$$
2HS1_017_A_201


 42 45  0  0  0  0  0  0  0  0999 V2000
    1.7702    7.3254   36.1008 C   0  0  0  0  0  0  0  0  0  0  0  0
    2.2344    6.4250   37.1095 O   0  0  0  0  0  0  0  0  0  0  0  0
    2.2764    6.8875   37.9612 H   0  0  0  0  0  0  0  0  0  0  0  0
    2.7798    8.4622   35.9395 C   0  0  0  0  0  0  0  0  0  0  0  0
    3.5875    8.6470   37.1585 N   0  0  0  0  0  0  0  0  0  0  0  0
    5.2325    8.3783   37.0847 S   0  0  0  0  0  0  0  0  0  0  0  0
    5.7658    9.2621   36.0582 O   0  0  0  0  0  0  0  0  0  0  0  0
    5.3632    6.9888   36.9145 O   0  0  0  0  0  0  0  0  0  0  0  0
    7.5099   10.1277   42.2309 N   0  0  0  0  0  0  0  0  0  0  0  0
    6.9990    9.6649   41.0300 C   0  0  0  0  0  0  0  0  0  0  0  0
    6.9623   10.5258   39.9448 C   0  0  0  0  0  0  0  0  0  0  0  0
    6.4692   10.1136   38.7495 C   0  0  0  0  0  0  0  0  0  0  0  0
    5.9922    8.8384   38.5797 C   0  0  0  0  0  0  0  0  0  0  0  0
    6.0060    7.9425   39.6197 C   0  0  0  0  0  0  0  0  0  0  0  0
    6.5114    8.3607   40.8493 C   0  0  0  0  0  0  0  0  0  0  0  0
    7.8389   11.0529   42.3020 H   0  0  0  0  0  0  0  0  0  0  0  0
    7.5442    9.5316   43.0137 H   0  0  0  0  0  0  0  0  0  0  0  0
    3.1382    9.7743   37.9937 C   0  0  0  0  0  0  0  0  0  0  0  0
    2.1350    9.3822   39.0556 C   0  0  0  0  0  0  0  0  0  0  0  0
    2.7262    9.4143   40.4470 C   0  0  0  0  0  0  0  0  0  0  0  0
    0.8951   10.2394   38.9734 C   0  0  0  0  0  0  0  0  0  0  0  0
    0.3285    7.7703   36.4274 C   0  0  0  0  0  0  0  0  0  0  0  0
   -0.4021    7.8755   35.1801 N   0  0  0  0  0  0  0  0  0  0  0  0
   -0.6066    9.0607   34.5620 C   0  0  0  0  0  0  0  0  0  0  0  0
   -0.2881   10.2056   34.9402 O   0  0  0  0  0  0  0  0  0  0  0  0
   -0.7617    7.0564   34.7690 H   0  0  0  0  0  0  0  0  0  0  0  0
   -1.2518    8.8273   33.4002 O   0  0  0  0  0  0  0  0  0  0  0  0
   -0.6261    9.3837   32.1857 C   0  0  0  0  0  0  0  0  0  0  0  0
    0.0608    8.1458   31.4936 C   0  0  0  0  0  0  0  0  0  0  0  0
   -1.0291    7.4160   30.8975 O   0  0  0  0  0  0  0  0  0  0  0  0
   -1.9759    8.4069   30.4332 C   0  0  0  0  0  0  0  0  0  0  0  0
   -3.2403    7.9966   30.8427 O   0  0  0  0  0  0  0  0  0  0  0  0
   -3.7965    8.8955   31.8307 C   0  0  0  0  0  0  0  0  0  0  0  0
   -3.0299   10.1930   31.6605 C   0  0  0  0  0  0  0  0  0  0  0  0
   -1.6785    9.7431   31.1498 C   0  0  0  0  0  0  0  0  0  0  0  0
   -0.4349    6.8536   37.4051 C   0  0  0  0  0  0  0  0  0  0  0  0
   -2.5724    8.1817   37.4669 C   0  0  0  0  0  0  0  0  0  0  0  0
   -3.5537    8.9152   38.1508 C   0  0  0  0  0  0  0  0  0  0  0  0
   -3.4327    9.1003   39.4932 C   0  0  0  0  0  0  0  0  0  0  0  0
   -2.3565    8.5608   40.1833 C   0  0  0  0  0  0  0  0  0  0  0  0
   -1.3954    7.8501   39.5398 C   0  0  0  0  0  0  0  0  0  0  0  0
   -1.4931    7.6474   38.1740 C   0  0  0  0  0  0  0  0  0  0  0  0
  9 10  1  0  0  0
 10 11  2  0  0  0
 10 15  1  0  0  0
 11 12  1  0  0  0
 12 13  2  0  0  0
 13 14  1  0  0  0
 13  6  1  0  0  0
 14 15  2  0  0  0
  6  7  2  0  0  0
  6  8  2  0  0  0
  6  5  1  0  0  0
  5 18  1  0  0  0
  5  4  1  0  0  0
 18 19  1  0  0  0
 19 20  1  0  0  0
 19 21  1  0  0  0
  4  1  1  0  0  0
  1  2  1  0  0  0
  1 22  1  0  0  0
 22 23  1  0  0  0
 22 36  1  0  0  0
 23 24  1  0  0  0
 24 25  2  0  0  0
 24 27  1  0  0  0
 27 28  1  0  0  0
 28 29  1  0  0  0
 28 35  1  0  0  0
 29 30  1  0  0  0
 30 31  1  0  0  0
 31 32  1  0  0  0
 31 35  1  0  0  0
 32 33  1  0  0  0
 33 34  1  0  0  0
 34 35  1  0  0  0
 36 42  1  0  0  0
 37 38  2  0  0  0
 37 42  1  0  0  0
 38 39  1  0  0  0
 39 40  2  0  0  0
 40 41  1  0  0  0
 41 42  2  0  0  0
  9 16  1  0  0  0
  9 17  1  0  0  0
  2  3  1  0  0  0
 23 26  1  0  0  0
M  END
> <minimizedAffinity>
-8.97002

$$$$
2HS1_017_A_201


 42 45  0  0  0  0  0  0  0  0999 V2000
    4.4852    8.3737   40.2398 C   0  0  0  0  0  0  0  0  0  0  0  0
    4.6761    7.4888   39.1335 O   0  0  0  0  0  0  0  0  0  0  0  0
    4.6628    7.9967   38.3072 H   0  0  0  0  0  0  0  0  0  0  0  0
    3.1018    9.0162   40.1358 C   0  0  0  0  0  0  0  0  0  0  0  0
    2.4197    8.6355   38.8858 N   0  0  0  0  0  0  0  0  0  0  0  0
    1.4039    7.3120   38.8919 S   0  0  0  0  0  0  0  0  0  0  0  0
    1.4015    6.7794   40.2467 O   0  0  0  0  0  0  0  0  0  0  0  0
    1.8691    6.4959   37.8458 O   0  0  0  0  0  0  0  0  0  0  0  0
   -4.0052    9.2813   37.6288 N   0  0  0  0  0  0  0  0  0  0  0  0
   -2.7488    8.7676   37.9028 C   0  0  0  0  0  0  0  0  0  0  0  0
   -2.1249    9.1271   39.0867 C   0  0  0  0  0  0  0  0  0  0  0  0
   -0.8933    8.6472   39.3945 C   0  0  0  0  0  0  0  0  0  0  0  0
   -0.2299    7.7971   38.5463 C   0  0  0  0  0  0  0  0  0  0  0  0
   -0.8011    7.4059   37.3609 C   0  0  0  0  0  0  0  0  0  0  0  0
   -2.0657    7.8956   37.0400 C   0  0  0  0  0  0  0  0  0  0  0  0
   -4.4388    9.8896   38.2700 H   0  0  0  0  0  0  0  0  0  0  0  0
   -4.4648    9.0382   36.7928 H   0  0  0  0  0  0  0  0  0  0  0  0
    1.9975    9.7898   38.0737 C   0  0  0  0  0  0  0  0  0  0  0  0
    2.5715    9.7913   36.6744 C   0  0  0  0  0  0  0  0  0  0  0  0
    3.9087    9.0894   36.5991 C   0  0  0  0  0  0  0  0  0  0  0  0
    1.5938    9.2027   35.6862 C   0  0  0  0  0  0  0  0  0  0  0  0
    5.6648    9.3664   40.3187 C   0  0  0  0  0  0  0  0  0  0  0  0
    6.3578    9.1414   41.5715 N   0  0  0  0  0  0  0  0  0  0  0  0
    6.8915    7.9417   41.8949 C   0  0  0  0  0  0  0  0  0  0  0  0
    6.8446    6.8683   41.2619 O   0  0  0  0  0  0  0  0  0  0  0  0
    6.4428    9.8871   42.2086 H   0  0  0  0  0  0  0  0  0  0  0  0
    7.5235    8.0646   43.0807 O   0  0  0  0  0  0  0  0  0  0  0  0
    6.8481    8.8967   44.0943 C   0  0  0  0  0  0  0  0  0  0  0  0
    6.5306    7.9012   45.2739 C   0  0  0  0  0  0  0  0  0  0  0  0
    7.7994    7.6993   45.9259 O   0  0  0  0  0  0  0  0  0  0  0  0
    8.4944    8.9669   45.8641 C   0  0  0  0  0  0  0  0  0  0  0  0
    9.7961    8.7065   45.4488 O   0  0  0  0  0  0  0  0  0  0  0  0
   10.0551    9.2567   44.1359 C   0  0  0  0  0  0  0  0  0  0  0  0
    9.0006   10.3294   43.9420 C   0  0  0  0  0  0  0  0  0  0  0  0
    7.8344    9.8353   44.7698 C   0  0  0  0  0  0  0  0  0  0  0  0
    6.6648    9.2905   39.1468 C   0  0  0  0  0  0  0  0  0  0  0  0
    7.5128   11.6203   39.5824 C   0  0  0  0  0  0  0  0  0  0  0  0
    8.5527   12.5425   39.7745 C   0  0  0  0  0  0  0  0  0  0  0  0
    9.8424   12.1117   39.7290 C   0  0  0  0  0  0  0  0  0  0  0  0
   10.1290   10.7724   39.5061 C   0  0  0  0  0  0  0  0  0  0  0  0
    9.1375    9.8649   39.3157 C   0  0  0  0  0  0  0  0  0  0  0  0
    7.8164   10.2761   39.3558 C   0  0  0  0  0  0  0  0  0  0  0  0
  9 10  1  0  0  0
 10 11  2  0  0  0
 10 15  1  0  0  0
 11 12  1  0  0  0
 12 13  2  0  0  0
 13 14  1  0  0  0
 13  6  1  0  0  0
 14 15  2  0  0  0
  6  7  2  0  0  0
  6  8  2  0  0  0
  6  5  1  0  0  0
  5 18  1  0  0  0
  5  4  1  0  0  0
 18 19  1  0  0  0
 19 20  1  0  0  0
 19 21  1  0  0  0
  4  1  1  0  0  0
  1  2  1  0  0  0
  1 22  1  0  0  0
 22 23  1  0  0  0
 22 36  1  0  0  0
 23 24  1  0  0  0
 24 25  2  0  0  0
 24 27  1  0  0  0
 27 28  1  0  0  0
 28 29  1  0  0  0
 28 35  1  0  0  0
 29 30  1  0  0  0
 30 31  1  0  0  0
 31 32  1  0  0  0
 31 35  1  0  0  0
 32 33  1  0  0  0
 33 34  1  0  0  0
 34 35  1  0  0  0
 36 42  1  0  0  0
 37 38  2  0  0  0
 37 42  1  0  0  0
 38 39  1  0  0  0
 39 40  2  0  0  0
 40 41  1  0  0  0
 41 42  2  0  0  0
  9 16  1  0  0  0
  9 17  1  0  0  0
  2  3  1  0  0  0
 23 26  1  0  0  0
M  END
> <minimizedAffinity>
-8.56524

$$$$
