5HZ9_5M8_A_204


 22 24  0  0  0  0  0  0  0  0999 V2000
  -15.0012   48.9795  -39.7974 C   0  0  0  0  0  0  0  0  0  0  0  0
  -13.1067   48.7661  -38.4577 C   0  0  0  0  0  0  0  0  0  0  0  0
  -11.2802   50.4284  -38.4599 C   0  0  0  0  0  0  0  0  0  0  0  0
  -14.5147   50.2334  -40.3328 C   0  0  0  0  0  0  0  0  0  0  0  0
  -13.2995   50.7278  -39.9290 C   0  0  0  0  0  0  0  0  0  0  0  0
  -12.5479   49.9937  -38.9437 C   0  0  0  0  0  0  0  0  0  0  0  0
  -14.3217   48.2784  -38.8941 N   0  0  0  0  0  0  0  0  0  0  0  0
  -12.3748   48.0097  -37.4887 C   0  0  0  0  0  0  0  0  0  0  0  0
  -10.6040   49.6695  -37.5251 C   0  0  0  0  0  0  0  0  0  0  0  0
  -11.1536   48.4534  -37.0379 C   0  0  0  0  0  0  0  0  0  0  0  0
   -9.0873   50.1523  -36.9245 Cl  0  0  0  0  0  0  0  0  0  0  0  0
  -16.3325   48.4985  -40.2996 C   0  0  0  0  0  0  0  0  0  0  0  0
  -13.1177   53.1904  -39.7842 C   0  0  0  0  0  0  0  0  0  0  0  0
  -12.6324   54.4048  -40.2703 C   0  0  0  0  0  0  0  0  0  0  0  0
  -11.8325   54.4299  -41.4245 C   0  0  0  0  0  0  0  0  0  0  0  0
  -12.7894   51.9944  -40.4565 C   0  0  0  0  0  0  0  0  0  0  0  0
  -11.9886   52.0202  -41.6139 C   0  0  0  0  0  0  0  0  0  0  0  0
  -11.5067   53.2424  -42.0924 C   0  0  0  0  0  0  0  0  0  0  0  0
  -15.3457   50.9120  -41.3417 C   0  0  0  0  0  0  0  0  0  0  0  0
  -16.2437   51.7348  -41.1322 O   0  0  0  0  0  0  0  0  0  0  0  0
  -15.0795   50.6200  -42.6559 O   0  0  0  0  0  0  0  0  0  0  0  0
  -14.4085   50.0028  -42.8720 H   0  0  0  0  0  0  0  0  0  0  0  0
 20 19  2  0  0  0
 21 19  1  0  0  0
 19  4  1  0  0  0
 12  1  1  0  0  0
 18 15  2  0  0  0
 18 17  1  0  0  0
  4  1  2  0  0  0
  4  5  1  0  0  0
 15 14  1  0  0  0
 17 16  2  0  0  0
  1  7  1  0  0  0
 14 13  2  0  0  0
 16 13  1  0  0  0
 16  5  1  0  0  0
  5  6  2  0  0  0
  7  2  2  0  0  0
  6  2  1  0  0  0
  6  3  1  0  0  0
  2  8  1  0  0  0
  3  9  2  0  0  0
  8 10  2  0  0  0
  9 10  1  0  0  0
  9 11  1  0  0  0
 21 22  1  0  0  0
M  END
> <minimizedAffinity>
-9.59862

$$$$
5HZ9_5M8_A_204


 22 24  0  0  0  0  0  0  0  0999 V2000
  -14.2890   47.7535  -41.1844 C   0  0  0  0  0  0  0  0  0  0  0  0
  -12.9312   47.8688  -39.2943 C   0  0  0  0  0  0  0  0  0  0  0  0
  -11.5131   49.8271  -38.7911 C   0  0  0  0  0  0  0  0  0  0  0  0
  -13.8728   49.0770  -41.5976 C   0  0  0  0  0  0  0  0  0  0  0  0
  -12.9590   49.7753  -40.8482 C   0  0  0  0  0  0  0  0  0  0  0  0
  -12.4596   49.1789  -39.6360 C   0  0  0  0  0  0  0  0  0  0  0  0
  -13.8353   47.1773  -40.0748 N   0  0  0  0  0  0  0  0  0  0  0  0
  -12.4409   47.2470  -38.1028 C   0  0  0  0  0  0  0  0  0  0  0  0
  -11.0630   49.1933  -37.6497 C   0  0  0  0  0  0  0  0  0  0  0  0
  -11.5285   47.8962  -37.3044 C   0  0  0  0  0  0  0  0  0  0  0  0
   -9.9315   49.9320  -36.6162 Cl  0  0  0  0  0  0  0  0  0  0  0  0
  -15.2808   47.0485  -42.0650 C   0  0  0  0  0  0  0  0  0  0  0  0
  -13.1878   52.2337  -40.6983 C   0  0  0  0  0  0  0  0  0  0  0  0
  -12.7809   53.5175  -41.0625 C   0  0  0  0  0  0  0  0  0  0  0  0
  -11.7268   53.6876  -41.9750 C   0  0  0  0  0  0  0  0  0  0  0  0
  -12.5256   51.1154  -41.2470 C   0  0  0  0  0  0  0  0  0  0  0  0
  -11.4699   51.2865  -42.1623 C   0  0  0  0  0  0  0  0  0  0  0  0
  -11.0694   52.5773  -42.5202 C   0  0  0  0  0  0  0  0  0  0  0  0
  -14.4291   49.6050  -42.8549 C   0  0  0  0  0  0  0  0  0  0  0  0
  -15.3648   50.4032  -42.9753 O   0  0  0  0  0  0  0  0  0  0  0  0
  -13.8297   49.1870  -44.0166 O   0  0  0  0  0  0  0  0  0  0  0  0
  -13.1151   48.5819  -43.9836 H   0  0  0  0  0  0  0  0  0  0  0  0
 20 19  2  0  0  0
 21 19  1  0  0  0
 19  4  1  0  0  0
 12  1  1  0  0  0
 18 15  2  0  0  0
 18 17  1  0  0  0
  4  1  2  0  0  0
  4  5  1  0  0  0
 15 14  1  0  0  0
 17 16  2  0  0  0
  1  7  1  0  0  0
 14 13  2  0  0  0
 16 13  1  0  0  0
 16  5  1  0  0  0
  5  6  2  0  0  0
  7  2  2  0  0  0
  6  2  1  0  0  0
  6  3  1  0  0  0
  2  8  1  0  0  0
  3  9  2  0  0  0
  8 10  2  0  0  0
  9 10  1  0  0  0
  9 11  1  0  0  0
 21 22  1  0  0  0
M  END
> <minimizedAffinity>
-8.44831

$$$$
5HZ9_5M8_A_204


 22 24  0  0  0  0  0  0  0  0999 V2000
  -12.8483   48.8863  -38.0617 C   0  0  0  0  0  0  0  0  0  0  0  0
  -14.6694   48.7739  -39.5111 C   0  0  0  0  0  0  0  0  0  0  0  0
  -14.9241   50.2835  -41.4489 C   0  0  0  0  0  0  0  0  0  0  0  0
  -12.2705   49.9698  -38.8283 C   0  0  0  0  0  0  0  0  0  0  0  0
  -12.9272   50.4589  -39.9301 C   0  0  0  0  0  0  0  0  0  0  0  0
  -14.1724   49.8486  -40.3194 C   0  0  0  0  0  0  0  0  0  0  0  0
  -14.0011   48.3127  -38.3951 N   0  0  0  0  0  0  0  0  0  0  0  0
  -15.9111   48.1587  -39.8670 C   0  0  0  0  0  0  0  0  0  0  0  0
  -16.1190   49.6648  -41.7592 C   0  0  0  0  0  0  0  0  0  0  0  0
  -16.6156   48.5977  -40.9635 C   0  0  0  0  0  0  0  0  0  0  0  0
  -17.0473   50.1560  -43.0975 Cl  0  0  0  0  0  0  0  0  0  0  0  0
  -12.0762   48.4170  -36.8620 C   0  0  0  0  0  0  0  0  0  0  0  0
  -11.5122   51.2387  -41.8030 C   0  0  0  0  0  0  0  0  0  0  0  0
  -10.9703   52.2702  -42.5703 C   0  0  0  0  0  0  0  0  0  0  0  0
  -11.2631   53.6075  -42.2562 C   0  0  0  0  0  0  0  0  0  0  0  0
  -12.3601   51.5529  -40.7201 C   0  0  0  0  0  0  0  0  0  0  0  0
  -12.6524   52.8933  -40.4051 C   0  0  0  0  0  0  0  0  0  0  0  0
  -12.1049   53.9196  -41.1808 C   0  0  0  0  0  0  0  0  0  0  0  0
  -10.9979   50.5384  -38.3526 C   0  0  0  0  0  0  0  0  0  0  0  0
  -10.8396   51.6115  -37.7604 O   0  0  0  0  0  0  0  0  0  0  0  0
   -9.8698   49.7867  -38.5662 O   0  0  0  0  0  0  0  0  0  0  0  0
   -9.9322   48.9641  -39.0105 H   0  0  0  0  0  0  0  0  0  0  0  0
 20 19  2  0  0  0
 21 19  1  0  0  0
 19  4  1  0  0  0
 12  1  1  0  0  0
 18 15  2  0  0  0
 18 17  1  0  0  0
  4  1  2  0  0  0
  4  5  1  0  0  0
 15 14  1  0  0  0
 17 16  2  0  0  0
  1  7  1  0  0  0
 14 13  2  0  0  0
 16 13  1  0  0  0
 16  5  1  0  0  0
  5  6  2  0  0  0
  7  2  2  0  0  0
  6  2  1  0  0  0
  6  3  1  0  0  0
  2  8  1  0  0  0
  3  9  2  0  0  0
  8 10  2  0  0  0
  9 10  1  0  0  0
  9 11  1  0  0  0
 21 22  1  0  0  0
M  END
> <minimizedAffinity>
-8.26758

$$$$
5HZ9_5M8_A_204


 22 24  0  0  0  0  0  0  0  0999 V2000
  -13.5085   47.8475  -41.6352 C   0  0  0  0  0  0  0  0  0  0  0  0
  -13.4307   50.1711  -41.4779 C   0  0  0  0  0  0  0  0  0  0  0  0
  -12.5495   51.3423  -39.4902 C   0  0  0  0  0  0  0  0  0  0  0  0
  -12.9091   47.7116  -40.3245 C   0  0  0  0  0  0  0  0  0  0  0  0
  -12.5966   48.8298  -39.5923 C   0  0  0  0  0  0  0  0  0  0  0  0
  -12.8439   50.1256  -40.1706 C   0  0  0  0  0  0  0  0  0  0  0  0
  -13.7554   49.0324  -42.1868 N   0  0  0  0  0  0  0  0  0  0  0  0
  -13.6998   51.4451  -42.0704 C   0  0  0  0  0  0  0  0  0  0  0  0
  -12.8251   52.5525  -40.0954 C   0  0  0  0  0  0  0  0  0  0  0  0
  -13.4043   52.6042  -41.3917 C   0  0  0  0  0  0  0  0  0  0  0  0
  -12.4911   54.0271  -39.3157 Cl  0  0  0  0  0  0  0  0  0  0  0  0
  -13.8343   46.5772  -42.3672 C   0  0  0  0  0  0  0  0  0  0  0  0
  -12.8097   48.3720  -37.1709 C   0  0  0  0  0  0  0  0  0  0  0  0
  -12.2436   48.2510  -35.9015 C   0  0  0  0  0  0  0  0  0  0  0  0
  -10.8695   48.4794  -35.7208 C   0  0  0  0  0  0  0  0  0  0  0  0
  -11.9887   48.7150  -38.2656 C   0  0  0  0  0  0  0  0  0  0  0  0
  -10.6120   48.9449  -38.0838 C   0  0  0  0  0  0  0  0  0  0  0  0
  -10.0543   48.8204  -36.8077 C   0  0  0  0  0  0  0  0  0  0  0  0
  -12.6994   46.3480  -39.8090 C   0  0  0  0  0  0  0  0  0  0  0  0
  -13.5563   45.5927  -39.3374 O   0  0  0  0  0  0  0  0  0  0  0  0
  -11.4219   45.8520  -39.8823 O   0  0  0  0  0  0  0  0  0  0  0  0
  -10.7328   46.3821  -40.2317 H   0  0  0  0  0  0  0  0  0  0  0  0
 20 19  2  0  0  0
 21 19  1  0  0  0
 19  4  1  0  0  0
 12  1  1  0  0  0
 18 15  2  0  0  0
 18 17  1  0  0  0
  4  1  2  0  0  0
  4  5  1  0  0  0
 15 14  1  0  0  0
 17 16  2  0  0  0
  1  7  1  0  0  0
 14 13  2  0  0  0
 16 13  1  0  0  0
 16  5  1  0  0  0
  5  6  2  0  0  0
  7  2  2  0  0  0
  6  2  1  0  0  0
  6  3  1  0  0  0
  2  8  1  0  0  0
  3  9  2  0  0  0
  8 10  2  0  0  0
  9 10  1  0  0  0
  9 11  1  0  0  0
 21 22  1  0  0  0
M  END
> <minimizedAffinity>
-8.20712

$$$$
5HZ9_5M8_A_204


 22 24  0  0  0  0  0  0  0  0999 V2000
  -15.3358   50.7144  -41.9223 C   0  0  0  0  0  0  0  0  0  0  0  0
  -13.5060   51.3699  -40.6371 C   0  0  0  0  0  0  0  0  0  0  0  0
  -12.2826   49.8067  -39.1677 C   0  0  0  0  0  0  0  0  0  0  0  0
  -15.2212   49.3541  -41.4409 C   0  0  0  0  0  0  0  0  0  0  0  0
  -14.2461   49.0265  -40.5320 C   0  0  0  0  0  0  0  0  0  0  0  0
  -13.3288   50.0510  -40.1036 C   0  0  0  0  0  0  0  0  0  0  0  0
  -14.5073   51.6801  -41.5348 N   0  0  0  0  0  0  0  0  0  0  0  0
  -12.6174   52.4099  -40.2180 C   0  0  0  0  0  0  0  0  0  0  0  0
  -11.4459   50.8374  -38.7872 C   0  0  0  0  0  0  0  0  0  0  0  0
  -11.6150   52.1459  -39.3142 C   0  0  0  0  0  0  0  0  0  0  0  0
  -10.1869   50.5876  -37.6707 Cl  0  0  0  0  0  0  0  0  0  0  0  0
  -16.4370   50.9961  -42.9041 C   0  0  0  0  0  0  0  0  0  0  0  0
  -13.3762   46.7262  -40.7969 C   0  0  0  0  0  0  0  0  0  0  0  0
  -13.2324   45.4191  -40.3308 C   0  0  0  0  0  0  0  0  0  0  0  0
  -13.8251   45.0375  -39.1160 C   0  0  0  0  0  0  0  0  0  0  0  0
  -14.1116   47.6569  -40.0332 C   0  0  0  0  0  0  0  0  0  0  0  0
  -14.7064   47.2737  -38.8163 C   0  0  0  0  0  0  0  0  0  0  0  0
  -14.5557   45.9615  -38.3578 C   0  0  0  0  0  0  0  0  0  0  0  0
  -16.2071   48.3737  -41.9267 C   0  0  0  0  0  0  0  0  0  0  0  0
  -17.2670   48.0527  -41.3784 O   0  0  0  0  0  0  0  0  0  0  0  0
  -15.9338   47.7697  -43.1283 O   0  0  0  0  0  0  0  0  0  0  0  0
  -15.1436   47.9763  -43.5875 H   0  0  0  0  0  0  0  0  0  0  0  0
 20 19  2  0  0  0
 21 19  1  0  0  0
 19  4  1  0  0  0
 12  1  1  0  0  0
 18 15  2  0  0  0
 18 17  1  0  0  0
  4  1  2  0  0  0
  4  5  1  0  0  0
 15 14  1  0  0  0
 17 16  2  0  0  0
  1  7  1  0  0  0
 14 13  2  0  0  0
 16 13  1  0  0  0
 16  5  1  0  0  0
  5  6  2  0  0  0
  7  2  2  0  0  0
  6  2  1  0  0  0
  6  3  1  0  0  0
  2  8  1  0  0  0
  3  9  2  0  0  0
  8 10  2  0  0  0
  9 10  1  0  0  0
  9 11  1  0  0  0
 21 22  1  0  0  0
M  END
> <minimizedAffinity>
-8.10438

$$$$
5HZ9_5M8_A_204


 22 24  0  0  0  0  0  0  0  0999 V2000
  -11.6955   48.6693  -37.5779 C   0  0  0  0  0  0  0  0  0  0  0  0
  -11.7378   50.7422  -38.6413 C   0  0  0  0  0  0  0  0  0  0  0  0
  -12.8330   51.0956  -40.8264 C   0  0  0  0  0  0  0  0  0  0  0  0
  -12.4572   48.0713  -38.6539 C   0  0  0  0  0  0  0  0  0  0  0  0
  -12.8325   48.8300  -39.7345 C   0  0  0  0  0  0  0  0  0  0  0  0
  -12.4844   50.2276  -39.7517 C   0  0  0  0  0  0  0  0  0  0  0  0
  -11.3537   49.9547  -37.5749 N   0  0  0  0  0  0  0  0  0  0  0  0
  -11.3668   52.1239  -38.6391 C   0  0  0  0  0  0  0  0  0  0  0  0
  -12.4555   52.4234  -40.7878 C   0  0  0  0  0  0  0  0  0  0  0  0
  -11.7176   52.9399  -39.6891 C   0  0  0  0  0  0  0  0  0  0  0  0
  -12.8497   53.4916  -42.0518 Cl  0  0  0  0  0  0  0  0  0  0  0  0
  -11.3106   47.7701  -36.4380 C   0  0  0  0  0  0  0  0  0  0  0  0
  -15.0124   48.2495  -40.7491 C   0  0  0  0  0  0  0  0  0  0  0  0
  -15.7619   47.7035  -41.7915 C   0  0  0  0  0  0  0  0  0  0  0  0
  -15.1134   47.1484  -42.9069 C   0  0  0  0  0  0  0  0  0  0  0  0
  -13.6041   48.2458  -40.8327 C   0  0  0  0  0  0  0  0  0  0  0  0
  -12.9547   47.6883  -41.9502 C   0  0  0  0  0  0  0  0  0  0  0  0
  -13.7150   47.1444  -42.9898 C   0  0  0  0  0  0  0  0  0  0  0  0
  -12.7618   46.6337  -38.5564 C   0  0  0  0  0  0  0  0  0  0  0  0
  -13.7292   46.1167  -37.9870 O   0  0  0  0  0  0  0  0  0  0  0  0
  -11.8939   45.7766  -39.1854 O   0  0  0  0  0  0  0  0  0  0  0  0
  -11.1433   46.1148  -39.6328 H   0  0  0  0  0  0  0  0  0  0  0  0
 20 19  2  0  0  0
 21 19  1  0  0  0
 19  4  1  0  0  0
 12  1  1  0  0  0
 18 15  2  0  0  0
 18 17  1  0  0  0
  4  1  2  0  0  0
  4  5  1  0  0  0
 15 14  1  0  0  0
 17 16  2  0  0  0
  1  7  1  0  0  0
 14 13  2  0  0  0
 16 13  1  0  0  0
 16  5  1  0  0  0
  5  6  2  0  0  0
  7  2  2  0  0  0
  6  2  1  0  0  0
  6  3  1  0  0  0
  2  8  1  0  0  0
  3  9  2  0  0  0
  8 10  2  0  0  0
  9 10  1  0  0  0
  9 11  1  0  0  0
 21 22  1  0  0  0
M  END
> <minimizedAffinity>
-8.05559

$$$$
5HZ9_5M8_A_204


 22 24  0  0  0  0  0  0  0  0999 V2000
  -11.7368   51.0559  -38.9023 C   0  0  0  0  0  0  0  0  0  0  0  0
  -13.4117   51.3637  -40.4928 C   0  0  0  0  0  0  0  0  0  0  0  0
  -14.8807   49.5292  -41.2516 C   0  0  0  0  0  0  0  0  0  0  0  0
  -12.0863   49.6579  -38.7651 C   0  0  0  0  0  0  0  0  0  0  0  0
  -13.0968   49.1242  -39.5256 C   0  0  0  0  0  0  0  0  0  0  0  0
  -13.8151   49.9896  -40.4254 C   0  0  0  0  0  0  0  0  0  0  0  0
  -12.3785   51.8731  -39.7328 N   0  0  0  0  0  0  0  0  0  0  0  0
  -14.0991   52.2425  -41.3884 C   0  0  0  0  0  0  0  0  0  0  0  0
  -15.5188   50.4084  -42.1041 C   0  0  0  0  0  0  0  0  0  0  0  0
  -15.1252   51.7717  -42.1737 C   0  0  0  0  0  0  0  0  0  0  0  0
  -16.7934   49.8976  -43.1086 Cl  0  0  0  0  0  0  0  0  0  0  0  0
  -10.6109   51.5609  -38.0460 C   0  0  0  0  0  0  0  0  0  0  0  0
  -12.9122   46.7845  -40.3066 C   0  0  0  0  0  0  0  0  0  0  0  0
  -13.2495   45.4352  -40.1963 C   0  0  0  0  0  0  0  0  0  0  0  0
  -14.1419   45.0140  -39.1968 C   0  0  0  0  0  0  0  0  0  0  0  0
  -13.4674   47.7135  -39.4017 C   0  0  0  0  0  0  0  0  0  0  0  0
  -14.3625   47.2909  -38.4009 C   0  0  0  0  0  0  0  0  0  0  0  0
  -14.6935   45.9364  -38.2984 C   0  0  0  0  0  0  0  0  0  0  0  0
  -11.2932   48.8459  -37.8267 C   0  0  0  0  0  0  0  0  0  0  0  0
  -11.5041   48.6890  -36.6191 O   0  0  0  0  0  0  0  0  0  0  0  0
  -10.2201   48.1707  -38.3519 O   0  0  0  0  0  0  0  0  0  0  0  0
  -10.0143   48.2536  -39.2623 H   0  0  0  0  0  0  0  0  0  0  0  0
 20 19  2  0  0  0
 21 19  1  0  0  0
 19  4  1  0  0  0
 12  1  1  0  0  0
 18 15  2  0  0  0
 18 17  1  0  0  0
  4  1  2  0  0  0
  4  5  1  0  0  0
 15 14  1  0  0  0
 17 16  2  0  0  0
  1  7  1  0  0  0
 14 13  2  0  0  0
 16 13  1  0  0  0
 16  5  1  0  0  0
  5  6  2  0  0  0
  7  2  2  0  0  0
  6  2  1  0  0  0
  6  3  1  0  0  0
  2  8  1  0  0  0
  3  9  2  0  0  0
  8 10  2  0  0  0
  9 10  1  0  0  0
  9 11  1  0  0  0
 21 22  1  0  0  0
M  END
> <minimizedAffinity>
-7.99898

$$$$
5HZ9_5M8_A_204


 22 24  0  0  0  0  0  0  0  0999 V2000
  -15.2208   51.0932  -42.2344 C   0  0  0  0  0  0  0  0  0  0  0  0
  -14.4856   49.0039  -42.9584 C   0  0  0  0  0  0  0  0  0  0  0  0
  -13.1295   47.5046  -41.5400 C   0  0  0  0  0  0  0  0  0  0  0  0
  -14.5945   50.8966  -40.9442 C   0  0  0  0  0  0  0  0  0  0  0  0
  -13.8933   49.7445  -40.6889 C   0  0  0  0  0  0  0  0  0  0  0  0
  -13.8291   48.7336  -41.7129 C   0  0  0  0  0  0  0  0  0  0  0  0
  -15.1678   50.1792  -43.1993 N   0  0  0  0  0  0  0  0  0  0  0  0
  -14.4260   48.0229  -43.9980 C   0  0  0  0  0  0  0  0  0  0  0  0
  -13.0941   46.5831  -42.5680 C   0  0  0  0  0  0  0  0  0  0  0  0
  -13.7447   46.8442  -43.8037 C   0  0  0  0  0  0  0  0  0  0  0  0
  -12.2676   45.1054  -42.4024 Cl  0  0  0  0  0  0  0  0  0  0  0  0
  -15.9574   52.3857  -42.4411 C   0  0  0  0  0  0  0  0  0  0  0  0
  -13.9301   48.7522  -38.4235 C   0  0  0  0  0  0  0  0  0  0  0  0
  -13.3298   48.5273  -37.1843 C   0  0  0  0  0  0  0  0  0  0  0  0
  -12.0672   49.0760  -36.9057 C   0  0  0  0  0  0  0  0  0  0  0  0
  -13.2536   49.5248  -39.3907 C   0  0  0  0  0  0  0  0  0  0  0  0
  -11.9888   50.0755  -39.1106 C   0  0  0  0  0  0  0  0  0  0  0  0
  -11.3956   49.8435  -37.8660 C   0  0  0  0  0  0  0  0  0  0  0  0
  -14.7047   51.9866  -39.9599 C   0  0  0  0  0  0  0  0  0  0  0  0
  -13.9367   52.9453  -39.8247 O   0  0  0  0  0  0  0  0  0  0  0  0
  -15.7885   51.9492  -39.1188 O   0  0  0  0  0  0  0  0  0  0  0  0
  -16.4032   51.2445  -39.1778 H   0  0  0  0  0  0  0  0  0  0  0  0
 20 19  2  0  0  0
 21 19  1  0  0  0
 19  4  1  0  0  0
 12  1  1  0  0  0
 18 15  2  0  0  0
 18 17  1  0  0  0
  4  1  2  0  0  0
  4  5  1  0  0  0
 15 14  1  0  0  0
 17 16  2  0  0  0
  1  7  1  0  0  0
 14 13  2  0  0  0
 16 13  1  0  0  0
 16  5  1  0  0  0
  5  6  2  0  0  0
  7  2  2  0  0  0
  6  2  1  0  0  0
  6  3  1  0  0  0
  2  8  1  0  0  0
  3  9  2  0  0  0
  8 10  2  0  0  0
  9 10  1  0  0  0
  9 11  1  0  0  0
 21 22  1  0  0  0
M  END
> <minimizedAffinity>
-7.95621

$$$$
5HZ9_5M8_A_204


 22 24  0  0  0  0  0  0  0  0999 V2000
  -12.4641   52.8648  -40.0097 C   0  0  0  0  0  0  0  0  0  0  0  0
  -11.5480   51.2083  -38.6508 C   0  0  0  0  0  0  0  0  0  0  0  0
  -12.5362   48.9540  -38.4495 C   0  0  0  0  0  0  0  0  0  0  0  0
  -13.5153   51.9679  -40.4408 C   0  0  0  0  0  0  0  0  0  0  0  0
  -13.5767   50.6906  -39.9417 C   0  0  0  0  0  0  0  0  0  0  0  0
  -12.5591   50.2604  -39.0175 C   0  0  0  0  0  0  0  0  0  0  0  0
  -11.5187   52.4945  -39.1504 N   0  0  0  0  0  0  0  0  0  0  0  0
  -10.5329   50.8119  -37.7238 C   0  0  0  0  0  0  0  0  0  0  0  0
  -11.5400   48.6096  -37.5573 C   0  0  0  0  0  0  0  0  0  0  0  0
  -10.5339   49.5438  -37.1917 C   0  0  0  0  0  0  0  0  0  0  0  0
  -11.4788   47.0613  -36.8551 Cl  0  0  0  0  0  0  0  0  0  0  0  0
  -12.4737   54.2499  -40.5903 C   0  0  0  0  0  0  0  0  0  0  0  0
  -14.4232   48.9863  -41.5219 C   0  0  0  0  0  0  0  0  0  0  0  0
  -15.4149   48.0955  -41.9337 C   0  0  0  0  0  0  0  0  0  0  0  0
  -16.6101   47.9888  -41.2038 C   0  0  0  0  0  0  0  0  0  0  0  0
  -14.6303   49.7669  -40.3652 C   0  0  0  0  0  0  0  0  0  0  0  0
  -15.8289   49.6604  -39.6347 C   0  0  0  0  0  0  0  0  0  0  0  0
  -16.8160   48.7642  -40.0554 C   0  0  0  0  0  0  0  0  0  0  0  0
  -14.5177   52.4951  -41.3823 C   0  0  0  0  0  0  0  0  0  0  0  0
  -14.4446   52.5049  -42.6159 O   0  0  0  0  0  0  0  0  0  0  0  0
  -15.6669   53.0076  -40.8346 O   0  0  0  0  0  0  0  0  0  0  0  0
  -15.7752   53.0248  -39.9040 H   0  0  0  0  0  0  0  0  0  0  0  0
 20 19  2  0  0  0
 21 19  1  0  0  0
 19  4  1  0  0  0
 12  1  1  0  0  0
 18 15  2  0  0  0
 18 17  1  0  0  0
  4  1  2  0  0  0
  4  5  1  0  0  0
 15 14  1  0  0  0
 17 16  2  0  0  0
  1  7  1  0  0  0
 14 13  2  0  0  0
 16 13  1  0  0  0
 16  5  1  0  0  0
  5  6  2  0  0  0
  7  2  2  0  0  0
  6  2  1  0  0  0
  6  3  1  0  0  0
  2  8  1  0  0  0
  3  9  2  0  0  0
  8 10  2  0  0  0
  9 10  1  0  0  0
  9 11  1  0  0  0
 21 22  1  0  0  0
M  END
> <minimizedAffinity>
-7.81529

$$$$
5HZ9_5M8_A_204


 22 24  0  0  0  0  0  0  0  0999 V2000
  -14.5681   46.4393  -42.2420 C   0  0  0  0  0  0  0  0  0  0  0  0
  -13.9385   46.5300  -40.0004 C   0  0  0  0  0  0  0  0  0  0  0  0
  -13.3381   48.6423  -38.8704 C   0  0  0  0  0  0  0  0  0  0  0  0
  -14.4269   47.8745  -42.3679 C   0  0  0  0  0  0  0  0  0  0  0  0
  -14.0145   48.6215  -41.2927 C   0  0  0  0  0  0  0  0  0  0  0  0
  -13.7648   47.9525  -40.0418 C   0  0  0  0  0  0  0  0  0  0  0  0
  -14.3344   45.7972  -41.1009 N   0  0  0  0  0  0  0  0  0  0  0  0
  -13.6839   45.8382  -38.7742 C   0  0  0  0  0  0  0  0  0  0  0  0
  -13.1015   47.9386  -37.7060 C   0  0  0  0  0  0  0  0  0  0  0  0
  -13.2742   46.5293  -37.6580 C   0  0  0  0  0  0  0  0  0  0  0  0
  -12.5885   48.7245  -36.2871 Cl  0  0  0  0  0  0  0  0  0  0  0  0
  -15.0096   45.6911  -43.4672 C   0  0  0  0  0  0  0  0  0  0  0  0
  -14.9868   50.8905  -41.1363 C   0  0  0  0  0  0  0  0  0  0  0  0
  -14.8594   52.2770  -41.2245 C   0  0  0  0  0  0  0  0  0  0  0  0
  -13.6263   52.8477  -41.5802 C   0  0  0  0  0  0  0  0  0  0  0  0
  -13.8665   50.0740  -41.3978 C   0  0  0  0  0  0  0  0  0  0  0  0
  -12.6312   50.6464  -41.7553 C   0  0  0  0  0  0  0  0  0  0  0  0
  -12.5139   52.0369  -41.8402 C   0  0  0  0  0  0  0  0  0  0  0  0
  -14.6957   48.4728  -43.6866 C   0  0  0  0  0  0  0  0  0  0  0  0
  -15.7788   48.8996  -44.1012 O   0  0  0  0  0  0  0  0  0  0  0  0
  -13.6258   48.5932  -44.5376 O   0  0  0  0  0  0  0  0  0  0  0  0
  -12.7807   48.2860  -44.2741 H   0  0  0  0  0  0  0  0  0  0  0  0
 20 19  2  0  0  0
 21 19  1  0  0  0
 19  4  1  0  0  0
 12  1  1  0  0  0
 18 15  2  0  0  0
 18 17  1  0  0  0
  4  1  2  0  0  0
  4  5  1  0  0  0
 15 14  1  0  0  0
 17 16  2  0  0  0
  1  7  1  0  0  0
 14 13  2  0  0  0
 16 13  1  0  0  0
 16  5  1  0  0  0
  5  6  2  0  0  0
  7  2  2  0  0  0
  6  2  1  0  0  0
  6  3  1  0  0  0
  2  8  1  0  0  0
  3  9  2  0  0  0
  8 10  2  0  0  0
  9 10  1  0  0  0
  9 11  1  0  0  0
 21 22  1  0  0  0
M  END
> <minimizedAffinity>
-7.77805

$$$$
