5UPE_8HY_A_901


 32 35  0  0  0  0  0  0  0  0999 V2000
   14.1409    5.2848   -1.4683 C   0  0  0  0  0  0  0  0  0  0  0  0
   13.6933    6.5982   -1.3789 C   0  0  0  0  0  0  0  0  0  0  0  0
   14.0671    7.4041   -0.3154 C   0  0  0  0  0  0  0  0  0  0  0  0
   15.1389    4.8663   -0.5823 C   0  0  0  0  0  0  0  0  0  0  0  0
   15.5484    5.6835    0.4619 C   0  0  0  0  0  0  0  0  0  0  0  0
   14.9779    6.9449    0.6303 C   0  0  0  0  0  0  0  0  0  0  0  0
   15.9012    8.4253    4.3567 C   0  0  0  0  0  0  0  0  0  0  0  0
   15.1914    8.9775    8.0957 C   0  0  0  0  0  0  0  0  0  0  0  0
   14.1675    9.9112    7.9615 C   0  0  0  0  0  0  0  0  0  0  0  0
   13.7627   10.3219    6.7022 C   0  0  0  0  0  0  0  0  0  0  0  0
   14.1794   10.1533    4.1225 C   0  0  0  0  0  0  0  0  0  0  0  0
   15.3084    7.7378    1.7618 N   0  0  0  0  0  0  0  0  0  0  0  0
   14.6516    8.8429    2.2320 C   0  0  0  0  0  0  0  0  0  0  0  0
   13.6754    9.3676    1.7041 O   0  0  0  0  0  0  0  0  0  0  0  0
   15.1201    9.2568    3.4396 N   0  0  0  0  0  0  0  0  0  0  0  0
   14.3822    9.8020    5.5661 C   0  0  0  0  0  0  0  0  0  0  0  0
   15.3908    8.8495    5.6998 C   0  0  0  0  0  0  0  0  0  0  0  0
   15.8004    8.4436    6.9672 C   0  0  0  0  0  0  0  0  0  0  0  0
   16.1052    7.4591    2.2684 H   0  0  0  0  0  0  0  0  0  0  0  0
   13.9427    3.1173   -2.5372 N   0  0  0  0  0  0  0  0  0  0  0  0
   13.5097    4.3810   -2.4925 C   0  0  0  0  0  0  0  0  0  0  0  0
   12.6546    4.8058   -3.2702 O   0  0  0  0  0  0  0  0  0  0  0  0
   14.6381    2.8455   -1.8955 H   0  0  0  0  0  0  0  0  0  0  0  0
   13.4498    2.1133   -3.4779 C   0  0  0  0  0  0  0  0  0  0  0  0
   14.5474    1.3068   -4.1912 C   0  0  0  0  0  0  0  0  0  0  0  0
   15.7988    2.1400   -4.5367 C   0  0  0  0  0  0  0  0  0  0  0  0
   18.2251    2.0118   -1.6117 C   0  0  0  0  0  0  0  0  0  0  0  0
   19.3636    1.2294   -3.5646 C   0  0  0  0  0  0  0  0  0  0  0  0
   17.0513    1.9115   -3.7228 C   0  0  0  0  0  0  0  0  0  0  0  0
   18.2141    1.4261   -4.3148 C   0  0  0  0  0  0  0  0  0  0  0  0
   19.3713    1.5273   -2.2115 C   0  0  0  0  0  0  0  0  0  0  0  0
   17.0722    2.1991   -2.3598 C   0  0  0  0  0  0  0  0  0  0  0  0
 31 28  2  0  0  0
 31 27  1  0  0  0
 28 30  1  0  0  0
 27 32  2  0  0  0
 30 29  2  0  0  0
 32 29  1  0  0  0
 29 26  1  0  0  0
 26 25  1  0  0  0
 25 24  1  0  0  0
 24 20  1  0  0  0
 22 21  2  0  0  0
 20 21  1  0  0  0
 21  1  1  0  0  0
  1  2  2  0  0  0
  1  4  1  0  0  0
  2  3  1  0  0  0
  4  5  2  0  0  0
  3  6  2  0  0  0
  5  6  1  0  0  0
  6 12  1  0  0  0
 14 13  2  0  0  0
 12 13  1  0  0  0
 13 15  1  0  0  0
 15 11  1  0  0  0
 15  7  1  0  0  0
 11 16  2  0  0  0
  7 17  2  0  0  0
 16 17  1  0  0  0
 16 10  1  0  0  0
 17 18  1  0  0  0
 10  9  2  0  0  0
 18  8  2  0  0  0
  9  8  1  0  0  0
 20 23  1  0  0  0
 12 19  1  0  0  0
M  END
> <minimizedAffinity>
-13.91964

$$$$
5UPE_8HY_A_901


 32 35  0  0  0  0  0  0  0  0999 V2000
   14.2271    5.1188   -1.5328 C   0  0  0  0  0  0  0  0  0  0  0  0
   13.7062    6.4040   -1.4325 C   0  0  0  0  0  0  0  0  0  0  0  0
   14.0679    7.2363   -0.3852 C   0  0  0  0  0  0  0  0  0  0  0  0
   15.2778    4.7647   -0.6803 C   0  0  0  0  0  0  0  0  0  0  0  0
   15.6739    5.6102    0.3464 C   0  0  0  0  0  0  0  0  0  0  0  0
   15.0360    6.8367    0.5301 C   0  0  0  0  0  0  0  0  0  0  0  0
   15.9435    8.3953    4.2283 C   0  0  0  0  0  0  0  0  0  0  0  0
   15.2289    9.0068    7.9571 C   0  0  0  0  0  0  0  0  0  0  0  0
   14.1941    9.9259    7.8067 C   0  0  0  0  0  0  0  0  0  0  0  0
   13.7839   10.3089    6.5404 C   0  0  0  0  0  0  0  0  0  0  0  0
   14.2014   10.0984    3.9640 C   0  0  0  0  0  0  0  0  0  0  0  0
   15.3576    7.6538    1.6467 N   0  0  0  0  0  0  0  0  0  0  0  0
   14.6882    8.7595    2.0972 C   0  0  0  0  0  0  0  0  0  0  0  0
   13.7056    9.2630    1.5605 O   0  0  0  0  0  0  0  0  0  0  0  0
   15.1523    9.2007    3.2968 N   0  0  0  0  0  0  0  0  0  0  0  0
   14.4090    9.7757    5.4136 C   0  0  0  0  0  0  0  0  0  0  0  0
   15.4288    8.8378    5.5638 C   0  0  0  0  0  0  0  0  0  0  0  0
   15.8437    8.4598    6.8382 C   0  0  0  0  0  0  0  0  0  0  0  0
   16.1579    7.3938    2.1577 H   0  0  0  0  0  0  0  0  0  0  0  0
   12.6798    4.6717   -3.3454 N   0  0  0  0  0  0  0  0  0  0  0  0
   13.6157    4.1738   -2.5315 C   0  0  0  0  0  0  0  0  0  0  0  0
   13.9487    2.9889   -2.5677 O   0  0  0  0  0  0  0  0  0  0  0  0
   12.4506    5.6249   -3.2554 H   0  0  0  0  0  0  0  0  0  0  0  0
   11.9749    3.8915   -4.3604 C   0  0  0  0  0  0  0  0  0  0  0  0
   12.3115    4.2712   -5.8118 C   0  0  0  0  0  0  0  0  0  0  0  0
   13.0884    3.1760   -6.5712 C   0  0  0  0  0  0  0  0  0  0  0  0
   15.8953    1.1008   -5.0632 C   0  0  0  0  0  0  0  0  0  0  0  0
   16.7358    3.2988   -5.4924 C   0  0  0  0  0  0  0  0  0  0  0  0
   14.4433    2.7685   -6.0402 C   0  0  0  0  0  0  0  0  0  0  0  0
   15.4982    3.6758   -5.9913 C   0  0  0  0  0  0  0  0  0  0  0  0
   16.9340    2.0105   -5.0226 C   0  0  0  0  0  0  0  0  0  0  0  0
   14.6601    1.4746   -5.5715 C   0  0  0  0  0  0  0  0  0  0  0  0
 31 28  2  0  0  0
 31 27  1  0  0  0
 28 30  1  0  0  0
 27 32  2  0  0  0
 30 29  2  0  0  0
 32 29  1  0  0  0
 29 26  1  0  0  0
 26 25  1  0  0  0
 25 24  1  0  0  0
 24 20  1  0  0  0
 22 21  2  0  0  0
 20 21  1  0  0  0
 21  1  1  0  0  0
  1  2  2  0  0  0
  1  4  1  0  0  0
  2  3  1  0  0  0
  4  5  2  0  0  0
  3  6  2  0  0  0
  5  6  1  0  0  0
  6 12  1  0  0  0
 14 13  2  0  0  0
 12 13  1  0  0  0
 13 15  1  0  0  0
 15 11  1  0  0  0
 15  7  1  0  0  0
 11 16  2  0  0  0
  7 17  2  0  0  0
 16 17  1  0  0  0
 16 10  1  0  0  0
 17 18  1  0  0  0
 10  9  2  0  0  0
 18  8  2  0  0  0
  9  8  1  0  0  0
 20 23  1  0  0  0
 12 19  1  0  0  0
M  END
> <minimizedAffinity>
-13.44757

$$$$
5UPE_8HY_A_901


 32 35  0  0  0  0  0  0  0  0999 V2000
   14.2694    5.3265   -1.6712 C   0  0  0  0  0  0  0  0  0  0  0  0
   14.6119    4.7289   -0.4634 C   0  0  0  0  0  0  0  0  0  0  0  0
   14.9161    5.4988    0.6480 C   0  0  0  0  0  0  0  0  0  0  0  0
   14.0328    6.7049   -1.6813 C   0  0  0  0  0  0  0  0  0  0  0  0
   14.2963    7.4780   -0.5593 C   0  0  0  0  0  0  0  0  0  0  0  0
   14.7869    6.8830    0.6027 C   0  0  0  0  0  0  0  0  0  0  0  0
   15.8514    8.3881    4.2812 C   0  0  0  0  0  0  0  0  0  0  0  0
   15.2656    8.9987    8.0325 C   0  0  0  0  0  0  0  0  0  0  0  0
   14.2571    9.9516    7.9173 C   0  0  0  0  0  0  0  0  0  0  0  0
   13.8231   10.3557    6.6656 C   0  0  0  0  0  0  0  0  0  0  0  0
   14.1585   10.1481    4.0770 C   0  0  0  0  0  0  0  0  0  0  0  0
   15.1672    7.6823    1.7138 N   0  0  0  0  0  0  0  0  0  0  0  0
   14.5473    8.8060    2.1897 C   0  0  0  0  0  0  0  0  0  0  0  0
   13.5664    9.3444    1.6846 O   0  0  0  0  0  0  0  0  0  0  0  0
   15.0601    9.2245    3.3775 N   0  0  0  0  0  0  0  0  0  0  0  0
   14.3975    9.8098    5.5182 C   0  0  0  0  0  0  0  0  0  0  0  0
   15.3903    8.8384    5.6335 C   0  0  0  0  0  0  0  0  0  0  0  0
   15.8296    8.4393    6.8931 C   0  0  0  0  0  0  0  0  0  0  0  0
   15.9731    7.3933    2.1999 H   0  0  0  0  0  0  0  0  0  0  0  0
   12.9879    4.0449   -3.2821 N   0  0  0  0  0  0  0  0  0  0  0  0
   14.1988    4.4644   -2.9024 C   0  0  0  0  0  0  0  0  0  0  0  0
   15.2211    4.1409   -3.5079 O   0  0  0  0  0  0  0  0  0  0  0  0
   12.2127    4.3293   -2.7460 H   0  0  0  0  0  0  0  0  0  0  0  0
   12.7412    3.1910   -4.4422 C   0  0  0  0  0  0  0  0  0  0  0  0
   12.2436    3.9337   -5.6931 C   0  0  0  0  0  0  0  0  0  0  0  0
   13.1842    3.7943   -6.9077 C   0  0  0  0  0  0  0  0  0  0  0  0
   12.8838    2.1785  -10.3367 C   0  0  0  0  0  0  0  0  0  0  0  0
   11.5078    0.9559   -8.8090 C   0  0  0  0  0  0  0  0  0  0  0  0
   12.7761    2.8539   -8.0180 C   0  0  0  0  0  0  0  0  0  0  0  0
   11.8871    1.8085   -7.7834 C   0  0  0  0  0  0  0  0  0  0  0  0
   12.0027    1.1437  -10.0894 C   0  0  0  0  0  0  0  0  0  0  0  0
   13.2713    3.0253   -9.3088 C   0  0  0  0  0  0  0  0  0  0  0  0
 31 28  2  0  0  0
 31 27  1  0  0  0
 28 30  1  0  0  0
 27 32  2  0  0  0
 30 29  2  0  0  0
 32 29  1  0  0  0
 29 26  1  0  0  0
 26 25  1  0  0  0
 25 24  1  0  0  0
 24 20  1  0  0  0
 22 21  2  0  0  0
 20 21  1  0  0  0
 21  1  1  0  0  0
  1  2  2  0  0  0
  1  4  1  0  0  0
  2  3  1  0  0  0
  4  5  2  0  0  0
  3  6  2  0  0  0
  5  6  1  0  0  0
  6 12  1  0  0  0
 14 13  2  0  0  0
 12 13  1  0  0  0
 13 15  1  0  0  0
 15 11  1  0  0  0
 15  7  1  0  0  0
 11 16  2  0  0  0
  7 17  2  0  0  0
 16 17  1  0  0  0
 16 10  1  0  0  0
 17 18  1  0  0  0
 10  9  2  0  0  0
 18  8  2  0  0  0
  9  8  1  0  0  0
 20 23  1  0  0  0
 12 19  1  0  0  0
M  END
> <minimizedAffinity>
-13.34647

$$$$
5UPE_8HY_A_901


 32 35  0  0  0  0  0  0  0  0999 V2000
   14.0519    5.0798   -1.6245 C   0  0  0  0  0  0  0  0  0  0  0  0
   13.6531    6.4112   -1.5812 C   0  0  0  0  0  0  0  0  0  0  0  0
   14.0460    7.2358   -0.5391 C   0  0  0  0  0  0  0  0  0  0  0  0
   15.0243    4.6527   -0.7145 C   0  0  0  0  0  0  0  0  0  0  0  0
   15.4535    5.4867    0.3083 C   0  0  0  0  0  0  0  0  0  0  0  0
   14.9291    6.7731    0.4308 C   0  0  0  0  0  0  0  0  0  0  0  0
   15.9014    8.3295    4.1134 C   0  0  0  0  0  0  0  0  0  0  0  0
   15.2323    8.9735    7.8452 C   0  0  0  0  0  0  0  0  0  0  0  0
   14.2157    9.9134    7.6992 C   0  0  0  0  0  0  0  0  0  0  0  0
   13.8027   10.2990    6.4347 C   0  0  0  0  0  0  0  0  0  0  0  0
   14.1932   10.0677    3.8558 C   0  0  0  0  0  0  0  0  0  0  0  0
   15.2776    7.5885    1.5406 N   0  0  0  0  0  0  0  0  0  0  0  0
   14.6355    8.7101    1.9915 C   0  0  0  0  0  0  0  0  0  0  0  0
   13.6591    9.2318    1.4608 O   0  0  0  0  0  0  0  0  0  0  0  0
   15.1192    9.1471    3.1849 N   0  0  0  0  0  0  0  0  0  0  0  0
   14.4066    9.7476    5.3051 C   0  0  0  0  0  0  0  0  0  0  0  0
   15.4077    8.7890    5.4512 C   0  0  0  0  0  0  0  0  0  0  0  0
   15.8257    8.4084    6.7237 C   0  0  0  0  0  0  0  0  0  0  0  0
   16.0767    7.3140    2.0460 H   0  0  0  0  0  0  0  0  0  0  0  0
   12.6102    4.7387   -3.5441 N   0  0  0  0  0  0  0  0  0  0  0  0
   13.3976    4.1683   -2.6271 C   0  0  0  0  0  0  0  0  0  0  0  0
   13.5633    2.9491   -2.5765 O   0  0  0  0  0  0  0  0  0  0  0  0
   12.5102    5.7178   -3.5209 H   0  0  0  0  0  0  0  0  0  0  0  0
   11.8882    4.0017   -4.5792 C   0  0  0  0  0  0  0  0  0  0  0  0
   12.5534    4.0217   -5.9653 C   0  0  0  0  0  0  0  0  0  0  0  0
   13.4023    2.7678   -6.2598 C   0  0  0  0  0  0  0  0  0  0  0  0
   11.0269    0.5851   -8.2728 C   0  0  0  0  0  0  0  0  0  0  0  0
   12.3897   -0.8407   -6.9194 C   0  0  0  0  0  0  0  0  0  0  0  0
   12.7029    1.5530   -6.8242 C   0  0  0  0  0  0  0  0  0  0  0  0
   13.0432    0.2693   -6.4060 C   0  0  0  0  0  0  0  0  0  0  0  0
   11.3762   -0.6830   -7.8508 C   0  0  0  0  0  0  0  0  0  0  0  0
   11.6872    1.6950   -7.7670 C   0  0  0  0  0  0  0  0  0  0  0  0
 31 28  2  0  0  0
 31 27  1  0  0  0
 28 30  1  0  0  0
 27 32  2  0  0  0
 30 29  2  0  0  0
 32 29  1  0  0  0
 29 26  1  0  0  0
 26 25  1  0  0  0
 25 24  1  0  0  0
 24 20  1  0  0  0
 22 21  2  0  0  0
 20 21  1  0  0  0
 21  1  1  0  0  0
  1  2  2  0  0  0
  1  4  1  0  0  0
  2  3  1  0  0  0
  4  5  2  0  0  0
  3  6  2  0  0  0
  5  6  1  0  0  0
  6 12  1  0  0  0
 14 13  2  0  0  0
 12 13  1  0  0  0
 13 15  1  0  0  0
 15 11  1  0  0  0
 15  7  1  0  0  0
 11 16  2  0  0  0
  7 17  2  0  0  0
 16 17  1  0  0  0
 16 10  1  0  0  0
 17 18  1  0  0  0
 10  9  2  0  0  0
 18  8  2  0  0  0
  9  8  1  0  0  0
 20 23  1  0  0  0
 12 19  1  0  0  0
M  END
> <minimizedAffinity>
-13.14660

$$$$
5UPE_8HY_A_901


 32 35  0  0  0  0  0  0  0  0999 V2000
   14.3494    5.3035   -1.6460 C   0  0  0  0  0  0  0  0  0  0  0  0
   14.9428    4.7489   -0.5175 C   0  0  0  0  0  0  0  0  0  0  0  0
   15.2274    5.5305    0.5910 C   0  0  0  0  0  0  0  0  0  0  0  0
   13.8557    6.6090   -1.5574 C   0  0  0  0  0  0  0  0  0  0  0  0
   14.1013    7.3855   -0.4337 C   0  0  0  0  0  0  0  0  0  0  0  0
   14.8331    6.8637    0.6327 C   0  0  0  0  0  0  0  0  0  0  0  0
   15.8345    8.4504    4.2946 C   0  0  0  0  0  0  0  0  0  0  0  0
   15.2066    9.1051    8.0317 C   0  0  0  0  0  0  0  0  0  0  0  0
   14.1770   10.0320    7.8944 C   0  0  0  0  0  0  0  0  0  0  0  0
   13.7428   10.4062    6.6336 C   0  0  0  0  0  0  0  0  0  0  0  0
   14.1023   10.1665    4.0509 C   0  0  0  0  0  0  0  0  0  0  0  0
   15.1862    7.6889    1.7339 N   0  0  0  0  0  0  0  0  0  0  0  0
   14.5365    8.8049    2.1877 C   0  0  0  0  0  0  0  0  0  0  0  0
   13.5470    9.3121    1.6673 O   0  0  0  0  0  0  0  0  0  0  0  0
   15.0305    9.2537    3.3724 N   0  0  0  0  0  0  0  0  0  0  0  0
   14.3385    9.8563    5.4989 C   0  0  0  0  0  0  0  0  0  0  0  0
   15.3529    8.9106    5.6364 C   0  0  0  0  0  0  0  0  0  0  0  0
   15.7921    8.5415    6.9052 C   0  0  0  0  0  0  0  0  0  0  0  0
   15.9950    7.4265    2.2301 H   0  0  0  0  0  0  0  0  0  0  0  0
   13.2911    3.6057   -3.0162 N   0  0  0  0  0  0  0  0  0  0  0  0
   14.2954    4.4806   -2.9046 C   0  0  0  0  0  0  0  0  0  0  0  0
   15.1608    4.5949   -3.7731 O   0  0  0  0  0  0  0  0  0  0  0  0
   12.6401    3.5551   -2.2794 H   0  0  0  0  0  0  0  0  0  0  0  0
   13.0978    2.7194   -4.1620 C   0  0  0  0  0  0  0  0  0  0  0  0
   13.9354    1.4306   -4.1266 C   0  0  0  0  0  0  0  0  0  0  0  0
   14.9434    1.3183   -5.2889 C   0  0  0  0  0  0  0  0  0  0  0  0
   18.5442    0.1002   -5.3882 C   0  0  0  0  0  0  0  0  0  0  0  0
   18.3127    1.6047   -3.5431 C   0  0  0  0  0  0  0  0  0  0  0  0
   16.4038    1.1341   -4.9472 C   0  0  0  0  0  0  0  0  0  0  0  0
   16.9747    1.7869   -3.8580 C   0  0  0  0  0  0  0  0  0  0  0  0
   19.0983    0.7560   -4.3061 C   0  0  0  0  0  0  0  0  0  0  0  0
   17.2083    0.2901   -5.7097 C   0  0  0  0  0  0  0  0  0  0  0  0
 31 28  2  0  0  0
 31 27  1  0  0  0
 28 30  1  0  0  0
 27 32  2  0  0  0
 30 29  2  0  0  0
 32 29  1  0  0  0
 29 26  1  0  0  0
 26 25  1  0  0  0
 25 24  1  0  0  0
 24 20  1  0  0  0
 22 21  2  0  0  0
 20 21  1  0  0  0
 21  1  1  0  0  0
  1  2  2  0  0  0
  1  4  1  0  0  0
  2  3  1  0  0  0
  4  5  2  0  0  0
  3  6  2  0  0  0
  5  6  1  0  0  0
  6 12  1  0  0  0
 14 13  2  0  0  0
 12 13  1  0  0  0
 13 15  1  0  0  0
 15 11  1  0  0  0
 15  7  1  0  0  0
 11 16  2  0  0  0
  7 17  2  0  0  0
 16 17  1  0  0  0
 16 10  1  0  0  0
 17 18  1  0  0  0
 10  9  2  0  0  0
 18  8  2  0  0  0
  9  8  1  0  0  0
 20 23  1  0  0  0
 12 19  1  0  0  0
M  END
> <minimizedAffinity>
-13.10466

$$$$
5UPE_8HY_A_901


 32 35  0  0  0  0  0  0  0  0999 V2000
   15.7691    5.0376   -0.1140 C   0  0  0  0  0  0  0  0  0  0  0  0
   14.3956    4.8810    0.0353 C   0  0  0  0  0  0  0  0  0  0  0  0
   13.6727    4.0874   -0.8410 C   0  0  0  0  0  0  0  0  0  0  0  0
   16.4311    4.2141   -1.0304 C   0  0  0  0  0  0  0  0  0  0  0  0
   15.7167    3.3857   -1.8844 C   0  0  0  0  0  0  0  0  0  0  0  0
   14.3237    3.3528   -1.8266 C   0  0  0  0  0  0  0  0  0  0  0  0
   12.9709    0.6764   -4.6438 C   0  0  0  0  0  0  0  0  0  0  0  0
   13.1505   -1.0902   -8.0549 C   0  0  0  0  0  0  0  0  0  0  0  0
   12.7347   -0.0231   -8.8465 C   0  0  0  0  0  0  0  0  0  0  0  0
   12.4125    1.1907   -8.2625 C   0  0  0  0  0  0  0  0  0  0  0  0
   12.1289    2.5184   -6.0234 C   0  0  0  0  0  0  0  0  0  0  0  0
   13.5829    2.5960   -2.7735 N   0  0  0  0  0  0  0  0  0  0  0  0
   12.9166    3.0554   -3.8774 C   0  0  0  0  0  0  0  0  0  0  0  0
   12.8088    4.2341   -4.2030 O   0  0  0  0  0  0  0  0  0  0  0  0
   12.4652    2.0497   -4.6735 N   0  0  0  0  0  0  0  0  0  0  0  0
   12.5022    1.3452   -6.8795 C   0  0  0  0  0  0  0  0  0  0  0  0
   12.9414    0.2844   -6.0894 C   0  0  0  0  0  0  0  0  0  0  0  0
   13.2579   -0.9369   -6.6786 C   0  0  0  0  0  0  0  0  0  0  0  0
   13.5440    1.6248   -2.6169 H   0  0  0  0  0  0  0  0  0  0  0  0
   15.7209    7.1378    1.0970 N   0  0  0  0  0  0  0  0  0  0  0  0
   16.4614    6.0998    0.6964 C   0  0  0  0  0  0  0  0  0  0  0  0
   17.6643    6.0208    0.9474 O   0  0  0  0  0  0  0  0  0  0  0  0
   14.7676    7.1459    0.8512 H   0  0  0  0  0  0  0  0  0  0  0  0
   16.2359    8.2616    1.8765 C   0  0  0  0  0  0  0  0  0  0  0  0
   16.0082    8.1503    3.3930 C   0  0  0  0  0  0  0  0  0  0  0  0
   15.2001    9.3244    3.9829 C   0  0  0  0  0  0  0  0  0  0  0  0
   15.5068    8.5540    7.6939 C   0  0  0  0  0  0  0  0  0  0  0  0
   13.7389   10.1385    7.4011 C   0  0  0  0  0  0  0  0  0  0  0  0
   14.9621    9.3442    5.4750 C   0  0  0  0  0  0  0  0  0  0  0  0
   13.9597   10.1335    6.0322 C   0  0  0  0  0  0  0  0  0  0  0  0
   14.5102    9.3438    8.2336 C   0  0  0  0  0  0  0  0  0  0  0  0
   15.7345    8.5564    6.3257 C   0  0  0  0  0  0  0  0  0  0  0  0
 31 28  2  0  0  0
 31 27  1  0  0  0
 28 30  1  0  0  0
 27 32  2  0  0  0
 30 29  2  0  0  0
 32 29  1  0  0  0
 29 26  1  0  0  0
 26 25  1  0  0  0
 25 24  1  0  0  0
 24 20  1  0  0  0
 22 21  2  0  0  0
 20 21  1  0  0  0
 21  1  1  0  0  0
  1  2  2  0  0  0
  1  4  1  0  0  0
  2  3  1  0  0  0
  4  5  2  0  0  0
  3  6  2  0  0  0
  5  6  1  0  0  0
  6 12  1  0  0  0
 14 13  2  0  0  0
 12 13  1  0  0  0
 13 15  1  0  0  0
 15 11  1  0  0  0
 15  7  1  0  0  0
 11 16  2  0  0  0
  7 17  2  0  0  0
 16 17  1  0  0  0
 16 10  1  0  0  0
 17 18  1  0  0  0
 10  9  2  0  0  0
 18  8  2  0  0  0
  9  8  1  0  0  0
 20 23  1  0  0  0
 12 19  1  0  0  0
M  END
> <minimizedAffinity>
-12.43356

$$$$
5UPE_8HY_A_901


 32 35  0  0  0  0  0  0  0  0999 V2000
   14.8886    5.1694   -1.0243 C   0  0  0  0  0  0  0  0  0  0  0  0
   14.0065    6.2131   -0.7678 C   0  0  0  0  0  0  0  0  0  0  0  0
   14.2197    7.0773    0.2944 C   0  0  0  0  0  0  0  0  0  0  0  0
   16.0984    5.1409   -0.3231 C   0  0  0  0  0  0  0  0  0  0  0  0
   16.3371    6.0295    0.7159 C   0  0  0  0  0  0  0  0  0  0  0  0
   15.3744    6.9768    1.0633 C   0  0  0  0  0  0  0  0  0  0  0  0
   15.8537    8.5907    4.8177 C   0  0  0  0  0  0  0  0  0  0  0  0
   14.7249    9.2430    8.4356 C   0  0  0  0  0  0  0  0  0  0  0  0
   13.7060   10.1504    8.1588 C   0  0  0  0  0  0  0  0  0  0  0  0
   13.4359   10.5134    6.8498 C   0  0  0  0  0  0  0  0  0  0  0  0
   14.1383   10.2740    4.3386 C   0  0  0  0  0  0  0  0  0  0  0  0
   15.5638    7.8111    2.1975 N   0  0  0  0  0  0  0  0  0  0  0  0
   14.8398    8.9161    2.5558 C   0  0  0  0  0  0  0  0  0  0  0  0
   13.9189    9.4036    1.9067 O   0  0  0  0  0  0  0  0  0  0  0  0
   15.1644    9.3768    3.7933 N   0  0  0  0  0  0  0  0  0  0  0  0
   14.1863    9.9718    5.8066 C   0  0  0  0  0  0  0  0  0  0  0  0
   15.1905    9.0453    6.0818 C   0  0  0  0  0  0  0  0  0  0  0  0
   15.4644    8.6875    7.3993 C   0  0  0  0  0  0  0  0  0  0  0  0
   16.3044    7.5650    2.7976 H   0  0  0  0  0  0  0  0  0  0  0  0
   15.3973    3.1954   -2.3373 N   0  0  0  0  0  0  0  0  0  0  0  0
   14.4824    4.1163   -2.0194 C   0  0  0  0  0  0  0  0  0  0  0  0
   13.3640    4.1302   -2.5345 O   0  0  0  0  0  0  0  0  0  0  0  0
   16.2770    3.2491   -1.8986 H   0  0  0  0  0  0  0  0  0  0  0  0
   15.1753    2.1137   -3.2947 C   0  0  0  0  0  0  0  0  0  0  0  0
   15.4940    2.4724   -4.7555 C   0  0  0  0  0  0  0  0  0  0  0  0
   14.4310    1.9777   -5.7578 C   0  0  0  0  0  0  0  0  0  0  0  0
   10.6454    2.0964   -5.4191 C   0  0  0  0  0  0  0  0  0  0  0  0
   11.4651    4.3432   -5.4582 C   0  0  0  0  0  0  0  0  0  0  0  0
   13.0208    2.5014   -5.6140 C   0  0  0  0  0  0  0  0  0  0  0  0
   12.7625    3.8690   -5.5789 C   0  0  0  0  0  0  0  0  0  0  0  0
   10.4037    3.4559   -5.3832 C   0  0  0  0  0  0  0  0  0  0  0  0
   11.9439    1.6215   -5.5296 C   0  0  0  0  0  0  0  0  0  0  0  0
 31 28  2  0  0  0
 31 27  1  0  0  0
 28 30  1  0  0  0
 27 32  2  0  0  0
 30 29  2  0  0  0
 32 29  1  0  0  0
 29 26  1  0  0  0
 26 25  1  0  0  0
 25 24  1  0  0  0
 24 20  1  0  0  0
 22 21  2  0  0  0
 20 21  1  0  0  0
 21  1  1  0  0  0
  1  2  2  0  0  0
  1  4  1  0  0  0
  2  3  1  0  0  0
  4  5  2  0  0  0
  3  6  2  0  0  0
  5  6  1  0  0  0
  6 12  1  0  0  0
 14 13  2  0  0  0
 12 13  1  0  0  0
 13 15  1  0  0  0
 15 11  1  0  0  0
 15  7  1  0  0  0
 11 16  2  0  0  0
  7 17  2  0  0  0
 16 17  1  0  0  0
 16 10  1  0  0  0
 17 18  1  0  0  0
 10  9  2  0  0  0
 18  8  2  0  0  0
  9  8  1  0  0  0
 20 23  1  0  0  0
 12 19  1  0  0  0
M  END
> <minimizedAffinity>
-12.34661

$$$$
5UPE_8HY_A_901


 32 35  0  0  0  0  0  0  0  0999 V2000
   14.9226    8.2091    1.7322 C   0  0  0  0  0  0  0  0  0  0  0  0
   16.2127    7.7069    1.8617 C   0  0  0  0  0  0  0  0  0  0  0  0
   16.5781    6.5219    1.2429 C   0  0  0  0  0  0  0  0  0  0  0  0
   14.0720    7.6091    0.7980 C   0  0  0  0  0  0  0  0  0  0  0  0
   14.4465    6.4442    0.1433 C   0  0  0  0  0  0  0  0  0  0  0  0
   15.6891    5.8649    0.3987 C   0  0  0  0  0  0  0  0  0  0  0  0
   17.5410    2.5946   -1.2762 C   0  0  0  0  0  0  0  0  0  0  0  0
   19.7018    0.8809   -3.9563 C   0  0  0  0  0  0  0  0  0  0  0  0
   18.7768    0.9091   -4.9964 C   0  0  0  0  0  0  0  0  0  0  0  0
   17.5213    1.4580   -4.7947 C   0  0  0  0  0  0  0  0  0  0  0  0
   15.8736    2.5404   -3.0713 C   0  0  0  0  0  0  0  0  0  0  0  0
   16.0309    4.6132   -0.1797 N   0  0  0  0  0  0  0  0  0  0  0  0
   15.4955    4.0316   -1.2971 C   0  0  0  0  0  0  0  0  0  0  0  0
   14.5730    4.4907   -1.9646 O   0  0  0  0  0  0  0  0  0  0  0  0
   16.1733    2.9184   -1.6847 N   0  0  0  0  0  0  0  0  0  0  0  0
   17.1810    1.9816   -3.5478 C   0  0  0  0  0  0  0  0  0  0  0  0
   18.1151    1.9751   -2.5135 C   0  0  0  0  0  0  0  0  0  0  0  0
   19.3742    1.4162   -2.7172 C   0  0  0  0  0  0  0  0  0  0  0  0
   16.7375    4.1029    0.2780 H   0  0  0  0  0  0  0  0  0  0  0  0
   14.6776    9.1895    3.9363 N   0  0  0  0  0  0  0  0  0  0  0  0
   14.5052    9.3495    2.6206 C   0  0  0  0  0  0  0  0  0  0  0  0
   14.0001   10.3681    2.1477 O   0  0  0  0  0  0  0  0  0  0  0  0
   15.0752    8.3451    4.2497 H   0  0  0  0  0  0  0  0  0  0  0  0
   14.3136   10.1881    4.9395 C   0  0  0  0  0  0  0  0  0  0  0  0
   14.4125    9.7029    6.3951 C   0  0  0  0  0  0  0  0  0  0  0  0
   13.8283   10.6988    7.4180 C   0  0  0  0  0  0  0  0  0  0  0  0
   10.2881   10.1447    8.6903 C   0  0  0  0  0  0  0  0  0  0  0  0
   11.8064    9.1236   10.2309 C   0  0  0  0  0  0  0  0  0  0  0  0
   12.6668   10.2426    8.2702 C   0  0  0  0  0  0  0  0  0  0  0  0
   12.8761    9.5296    9.4475 C   0  0  0  0  0  0  0  0  0  0  0  0
   10.5100    9.4358    9.8548 C   0  0  0  0  0  0  0  0  0  0  0  0
   11.3572   10.5422    7.9011 C   0  0  0  0  0  0  0  0  0  0  0  0
 31 28  2  0  0  0
 31 27  1  0  0  0
 28 30  1  0  0  0
 27 32  2  0  0  0
 30 29  2  0  0  0
 32 29  1  0  0  0
 29 26  1  0  0  0
 26 25  1  0  0  0
 25 24  1  0  0  0
 24 20  1  0  0  0
 22 21  2  0  0  0
 20 21  1  0  0  0
 21  1  1  0  0  0
  1  2  2  0  0  0
  1  4  1  0  0  0
  2  3  1  0  0  0
  4  5  2  0  0  0
  3  6  2  0  0  0
  5  6  1  0  0  0
  6 12  1  0  0  0
 14 13  2  0  0  0
 12 13  1  0  0  0
 13 15  1  0  0  0
 15 11  1  0  0  0
 15  7  1  0  0  0
 11 16  2  0  0  0
  7 17  2  0  0  0
 16 17  1  0  0  0
 16 10  1  0  0  0
 17 18  1  0  0  0
 10  9  2  0  0  0
 18  8  2  0  0  0
  9  8  1  0  0  0
 20 23  1  0  0  0
 12 19  1  0  0  0
M  END
> <minimizedAffinity>
-11.36540

$$$$
5UPE_8HY_A_901


 32 35  0  0  0  0  0  0  0  0999 V2000
   15.0086    7.9671    1.7508 C   0  0  0  0  0  0  0  0  0  0  0  0
   16.0734    7.1019    1.5254 C   0  0  0  0  0  0  0  0  0  0  0  0
   16.0174    6.1565    0.5137 C   0  0  0  0  0  0  0  0  0  0  0  0
   13.9778    8.0045    0.8062 C   0  0  0  0  0  0  0  0  0  0  0  0
   13.9355    7.0870   -0.2342 C   0  0  0  0  0  0  0  0  0  0  0  0
   14.9351    6.1226   -0.3595 C   0  0  0  0  0  0  0  0  0  0  0  0
   15.4066    3.6088   -3.5826 C   0  0  0  0  0  0  0  0  0  0  0  0
   15.7201    2.8871   -7.3469 C   0  0  0  0  0  0  0  0  0  0  0  0
   14.3918    3.1126   -7.6975 C   0  0  0  0  0  0  0  0  0  0  0  0
   13.4690    3.4710   -6.7288 C   0  0  0  0  0  0  0  0  0  0  0  0
   13.0468    3.8930   -4.1792 C   0  0  0  0  0  0  0  0  0  0  0  0
   14.8368    5.1104   -1.3514 N   0  0  0  0  0  0  0  0  0  0  0  0
   13.7571    4.8076   -2.1363 C   0  0  0  0  0  0  0  0  0  0  0  0
   12.6556    5.3453   -2.0678 O   0  0  0  0  0  0  0  0  0  0  0  0
   14.0535    3.9067   -3.1107 N   0  0  0  0  0  0  0  0  0  0  0  0
   13.8690    3.6044   -5.3995 C   0  0  0  0  0  0  0  0  0  0  0  0
   15.2036    3.4020   -5.0524 C   0  0  0  0  0  0  0  0  0  0  0  0
   16.1276    3.0350   -6.0273 C   0  0  0  0  0  0  0  0  0  0  0  0
   15.6417    4.5610   -1.4911 H   0  0  0  0  0  0  0  0  0  0  0  0
   15.7937    8.3768    4.0080 N   0  0  0  0  0  0  0  0  0  0  0  0
   15.0108    8.7936    3.0082 C   0  0  0  0  0  0  0  0  0  0  0  0
   14.2956    9.7907    3.1114 O   0  0  0  0  0  0  0  0  0  0  0  0
   16.3306    7.5641    3.8649 H   0  0  0  0  0  0  0  0  0  0  0  0
   15.9037    9.0506    5.3003 C   0  0  0  0  0  0  0  0  0  0  0  0
   15.4945    8.1933    6.5093 C   0  0  0  0  0  0  0  0  0  0  0  0
   15.3933    8.9918    7.8252 C   0  0  0  0  0  0  0  0  0  0  0  0
   12.1856    9.8365    9.6843 C   0  0  0  0  0  0  0  0  0  0  0  0
   12.2178   11.0811    7.6418 C   0  0  0  0  0  0  0  0  0  0  0  0
   14.0627    9.6158    8.1770 C   0  0  0  0  0  0  0  0  0  0  0  0
   13.4443   10.5207    7.3185 C   0  0  0  0  0  0  0  0  0  0  0  0
   11.5844   10.7350    8.8244 C   0  0  0  0  0  0  0  0  0  0  0  0
   13.4171    9.2835    9.3660 C   0  0  0  0  0  0  0  0  0  0  0  0
 31 28  2  0  0  0
 31 27  1  0  0  0
 28 30  1  0  0  0
 27 32  2  0  0  0
 30 29  2  0  0  0
 32 29  1  0  0  0
 29 26  1  0  0  0
 26 25  1  0  0  0
 25 24  1  0  0  0
 24 20  1  0  0  0
 22 21  2  0  0  0
 20 21  1  0  0  0
 21  1  1  0  0  0
  1  2  2  0  0  0
  1  4  1  0  0  0
  2  3  1  0  0  0
  4  5  2  0  0  0
  3  6  2  0  0  0
  5  6  1  0  0  0
  6 12  1  0  0  0
 14 13  2  0  0  0
 12 13  1  0  0  0
 13 15  1  0  0  0
 15 11  1  0  0  0
 15  7  1  0  0  0
 11 16  2  0  0  0
  7 17  2  0  0  0
 16 17  1  0  0  0
 16 10  1  0  0  0
 17 18  1  0  0  0
 10  9  2  0  0  0
 18  8  2  0  0  0
  9  8  1  0  0  0
 20 23  1  0  0  0
 12 19  1  0  0  0
M  END
> <minimizedAffinity>
-10.99362

$$$$
