1H4W_BEN_A_250


 12 12  0  0  0  0  0  0  0  0999 V2000
   50.2159   36.7407   39.4437 C   0  0  0  0  0  0  0  0  0  0  0  0
   49.6697   36.3462   38.2306 C   0  0  0  0  0  0  0  0  0  0  0  0
   49.0508   35.0422   38.1916 C   0  0  0  0  0  0  0  0  0  0  0  0
   48.9536   34.1199   39.2998 C   0  0  0  0  0  0  0  0  0  0  0  0
   49.5469   34.5935   40.5437 C   0  0  0  0  0  0  0  0  0  0  0  0
   50.1700   35.9076   40.5827 C   0  0  0  0  0  0  0  0  0  0  0  0
   50.8447   38.0181   39.5643 C   0  0  0  0  0  0  0  0  0  0  0  0
   51.2677   38.6774   38.4723 N   0  0  0  0  0  0  0  0  0  0  0  0
   51.0412   38.6231   40.7280 N   0  0  0  0  0  0  0  0  0  0  0  0
   51.1493   38.2788   37.5799 H   0  0  0  0  0  0  0  0  0  0  0  0
   50.7525   38.1892   41.5633 H   0  0  0  0  0  0  0  0  0  0  0  0
   51.4757   39.5060   40.7566 H   0  0  0  0  0  0  0  0  0  0  0  0
  1  2  2  0  0  0
  1  6  1  0  0  0
  1  7  1  0  0  0
  2  3  1  0  0  0
  3  4  2  0  0  0
  4  5  1  0  0  0
  5  6  2  0  0  0
  7  8  2  0  0  0
  7  9  1  0  0  0
  8 10  1  0  0  0
  9 11  1  0  0  0
  9 12  1  0  0  0
M  END
> <minimizedAffinity>
-6.04572

$$$$
1H4W_BEN_A_250


 12 12  0  0  0  0  0  0  0  0999 V2000
   50.1998   36.6611   39.5190 C   0  0  0  0  0  0  0  0  0  0  0  0
   50.1718   35.8277   40.6281 C   0  0  0  0  0  0  0  0  0  0  0  0
   49.5237   34.5483   40.4615 C   0  0  0  0  0  0  0  0  0  0  0  0
   48.9058   34.0661   39.2475 C   0  0  0  0  0  0  0  0  0  0  0  0
   48.9685   34.9885   38.1211 C   0  0  0  0  0  0  0  0  0  0  0  0
   49.6219   36.2774   38.2892 C   0  0  0  0  0  0  0  0  0  0  0  0
   50.8244   37.9436   39.6024 C   0  0  0  0  0  0  0  0  0  0  0  0
   50.9994   38.5423   40.7928 N   0  0  0  0  0  0  0  0  0  0  0  0
   51.2659   38.6060   38.5417 N   0  0  0  0  0  0  0  0  0  0  0  0
   50.6922   38.0993   41.6166 H   0  0  0  0  0  0  0  0  0  0  0  0
   51.1659   38.2181   37.6424 H   0  0  0  0  0  0  0  0  0  0  0  0
   51.6936   39.4857   38.6536 H   0  0  0  0  0  0  0  0  0  0  0  0
  1  2  2  0  0  0
  1  6  1  0  0  0
  1  7  1  0  0  0
  2  3  1  0  0  0
  3  4  2  0  0  0
  4  5  1  0  0  0
  5  6  2  0  0  0
  7  8  2  0  0  0
  7  9  1  0  0  0
  8 10  1  0  0  0
  9 11  1  0  0  0
  9 12  1  0  0  0
M  END
> <minimizedAffinity>
-5.99830

$$$$
1H4W_BEN_A_250


 12 12  0  0  0  0  0  0  0  0999 V2000
   50.3170   36.8298   39.4750 C   0  0  0  0  0  0  0  0  0  0  0  0
   50.2518   36.2212   38.2296 C   0  0  0  0  0  0  0  0  0  0  0  0
   49.8493   34.8347   38.2057 C   0  0  0  0  0  0  0  0  0  0  0  0
   49.5122   34.0331   39.3599 C   0  0  0  0  0  0  0  0  0  0  0  0
   49.6014   34.7305   40.6363 C   0  0  0  0  0  0  0  0  0  0  0  0
   50.0066   36.1276   40.6598 C   0  0  0  0  0  0  0  0  0  0  0  0
   50.7054   38.2006   39.5826 C   0  0  0  0  0  0  0  0  0  0  0  0
   51.0970   38.7093   40.7633 N   0  0  0  0  0  0  0  0  0  0  0  0
   50.7110   39.0362   38.5527 N   0  0  0  0  0  0  0  0  0  0  0  0
   51.1138   38.1373   41.5645 H   0  0  0  0  0  0  0  0  0  0  0  0
   50.4343   38.7213   37.6619 H   0  0  0  0  0  0  0  0  0  0  0  0
   50.9920   39.9713   38.6790 H   0  0  0  0  0  0  0  0  0  0  0  0
  1  2  2  0  0  0
  1  6  1  0  0  0
  1  7  1  0  0  0
  2  3  1  0  0  0
  3  4  2  0  0  0
  4  5  1  0  0  0
  5  6  2  0  0  0
  7  8  2  0  0  0
  7  9  1  0  0  0
  8 10  1  0  0  0
  9 11  1  0  0  0
  9 12  1  0  0  0
M  END
> <minimizedAffinity>
-5.86150

$$$$
1H4W_BEN_A_250


 12 12  0  0  0  0  0  0  0  0999 V2000
   49.1243   34.5503   39.1473 C   0  0  0  0  0  0  0  0  0  0  0  0
   49.5777   34.7460   40.4442 C   0  0  0  0  0  0  0  0  0  0  0  0
   50.2590   35.9905   40.7120 C   0  0  0  0  0  0  0  0  0  0  0  0
   50.5077   37.0410   39.7514 C   0  0  0  0  0  0  0  0  0  0  0  0
   50.0077   36.7735   38.4091 C   0  0  0  0  0  0  0  0  0  0  0  0
   49.3210   35.5195   38.1397 C   0  0  0  0  0  0  0  0  0  0  0  0
   48.4388   33.3450   38.8026 C   0  0  0  0  0  0  0  0  0  0  0  0
   49.1263   32.2342   38.4868 N   0  0  0  0  0  0  0  0  0  0  0  0
   47.1167   33.2437   38.7781 N   0  0  0  0  0  0  0  0  0  0  0  0
   50.1107   32.2477   38.4875 H   0  0  0  0  0  0  0  0  0  0  0  0
   46.5591   34.0241   39.0002 H   0  0  0  0  0  0  0  0  0  0  0  0
   46.6929   32.3882   38.5380 H   0  0  0  0  0  0  0  0  0  0  0  0
  1  2  2  0  0  0
  1  6  1  0  0  0
  1  7  1  0  0  0
  2  3  1  0  0  0
  3  4  2  0  0  0
  4  5  1  0  0  0
  5  6  2  0  0  0
  7  8  2  0  0  0
  7  9  1  0  0  0
  8 10  1  0  0  0
  9 11  1  0  0  0
  9 12  1  0  0  0
M  END
> <minimizedAffinity>
-5.16799

$$$$
1H4W_BEN_A_250


 12 12  0  0  0  0  0  0  0  0999 V2000
   49.0983   34.5848   39.0435 C   0  0  0  0  0  0  0  0  0  0  0  0
   49.2660   35.5298   38.0413 C   0  0  0  0  0  0  0  0  0  0  0  0
   49.9739   36.7362   38.3995 C   0  0  0  0  0  0  0  0  0  0  0  0
   50.5175   37.0409   39.7033 C   0  0  0  0  0  0  0  0  0  0  0  0
   50.3071   36.0089   40.7103 C   0  0  0  0  0  0  0  0  0  0  0  0
   49.5941   34.7934   40.3489 C   0  0  0  0  0  0  0  0  0  0  0  0
   48.4099   33.3633   38.7681 C   0  0  0  0  0  0  0  0  0  0  0  0
   49.0947   32.2384   38.4999 N   0  0  0  0  0  0  0  0  0  0  0  0
   47.0877   33.2603   38.7652 N   0  0  0  0  0  0  0  0  0  0  0  0
   50.0790   32.2524   38.4878 H   0  0  0  0  0  0  0  0  0  0  0  0
   46.5320   34.0505   38.9548 H   0  0  0  0  0  0  0  0  0  0  0  0
   46.6619   32.3936   38.5734 H   0  0  0  0  0  0  0  0  0  0  0  0
  1  2  2  0  0  0
  1  6  1  0  0  0
  1  7  1  0  0  0
  2  3  1  0  0  0
  3  4  2  0  0  0
  4  5  1  0  0  0
  5  6  2  0  0  0
  7  8  2  0  0  0
  7  9  1  0  0  0
  8 10  1  0  0  0
  9 11  1  0  0  0
  9 12  1  0  0  0
M  END
> <minimizedAffinity>
-5.14240

$$$$
1H4W_BEN_A_250


 12 12  0  0  0  0  0  0  0  0999 V2000
   49.9160   35.6857   39.6103 C   0  0  0  0  0  0  0  0  0  0  0  0
   49.9940   36.1862   38.3185 C   0  0  0  0  0  0  0  0  0  0  0  0
   50.3086   37.5890   38.1845 C   0  0  0  0  0  0  0  0  0  0  0  0
   50.5464   38.5090   39.2732 C   0  0  0  0  0  0  0  0  0  0  0  0
   50.4488   37.9214   40.6031 C   0  0  0  0  0  0  0  0  0  0  0  0
   50.1321   36.5078   40.7377 C   0  0  0  0  0  0  0  0  0  0  0  0
   49.6109   34.3066   39.8268 C   0  0  0  0  0  0  0  0  0  0  0  0
   49.8681   33.3924   38.8759 N   0  0  0  0  0  0  0  0  0  0  0  0
   49.0749   33.8498   40.9506 N   0  0  0  0  0  0  0  0  0  0  0  0
   50.2661   33.6713   38.0197 H   0  0  0  0  0  0  0  0  0  0  0  0
   48.8641   34.4720   41.6838 H   0  0  0  0  0  0  0  0  0  0  0  0
   48.8879   32.8885   41.0515 H   0  0  0  0  0  0  0  0  0  0  0  0
  1  2  2  0  0  0
  1  6  1  0  0  0
  1  7  1  0  0  0
  2  3  1  0  0  0
  3  4  2  0  0  0
  4  5  1  0  0  0
  5  6  2  0  0  0
  7  8  2  0  0  0
  7  9  1  0  0  0
  8 10  1  0  0  0
  9 11  1  0  0  0
  9 12  1  0  0  0
M  END
> <minimizedAffinity>
-5.12975

$$$$
1H4W_BEN_A_250


 12 12  0  0  0  0  0  0  0  0999 V2000
   49.8865   35.6540   39.7760 C   0  0  0  0  0  0  0  0  0  0  0  0
   50.1085   36.4987   40.8544 C   0  0  0  0  0  0  0  0  0  0  0  0
   50.4223   37.8741   40.5468 C   0  0  0  0  0  0  0  0  0  0  0  0
   50.5250   38.4410   39.2216 C   0  0  0  0  0  0  0  0  0  0  0  0
   50.2817   37.5021   38.1340 C   0  0  0  0  0  0  0  0  0  0  0  0
   49.9652   36.1164   38.4443 C   0  0  0  0  0  0  0  0  0  0  0  0
   49.5689   34.2786   39.9973 C   0  0  0  0  0  0  0  0  0  0  0  0
   49.0956   33.8692   41.1867 N   0  0  0  0  0  0  0  0  0  0  0  0
   49.7100   33.3428   39.0682 N   0  0  0  0  0  0  0  0  0  0  0  0
   48.9693   34.5184   41.9160 H   0  0  0  0  0  0  0  0  0  0  0  0
   50.0524   33.5819   38.1767 H   0  0  0  0  0  0  0  0  0  0  0  0
   49.4724   32.4089   39.2701 H   0  0  0  0  0  0  0  0  0  0  0  0
  1  2  2  0  0  0
  1  6  1  0  0  0
  1  7  1  0  0  0
  2  3  1  0  0  0
  3  4  2  0  0  0
  4  5  1  0  0  0
  5  6  2  0  0  0
  7  8  2  0  0  0
  7  9  1  0  0  0
  8 10  1  0  0  0
  9 11  1  0  0  0
  9 12  1  0  0  0
M  END
> <minimizedAffinity>
-4.83151

$$$$
1H4W_BEN_A_250


 12 12  0  0  0  0  0  0  0  0999 V2000
   49.2929   35.6397   38.2095 C   0  0  0  0  0  0  0  0  0  0  0  0
   49.1492   34.5427   39.0472 C   0  0  0  0  0  0  0  0  0  0  0  0
   49.7621   34.6379   40.3511 C   0  0  0  0  0  0  0  0  0  0  0  0
   50.5073   35.7694   40.8535 C   0  0  0  0  0  0  0  0  0  0  0  0
   50.6222   36.8871   39.9255 C   0  0  0  0  0  0  0  0  0  0  0  0
   50.0043   36.7909   38.6120 C   0  0  0  0  0  0  0  0  0  0  0  0
   48.7138   35.6240   36.9033 C   0  0  0  0  0  0  0  0  0  0  0  0
   49.4101   36.0650   35.8418 N   0  0  0  0  0  0  0  0  0  0  0  0
   47.4884   35.1801   36.6583 N   0  0  0  0  0  0  0  0  0  0  0  0
   50.3256   36.4066   35.9610 H   0  0  0  0  0  0  0  0  0  0  0  0
   46.9298   34.8442   37.3961 H   0  0  0  0  0  0  0  0  0  0  0  0
   47.1373   35.1864   35.7385 H   0  0  0  0  0  0  0  0  0  0  0  0
  1  2  2  0  0  0
  1  6  1  0  0  0
  1  7  1  0  0  0
  2  3  1  0  0  0
  3  4  2  0  0  0
  4  5  1  0  0  0
  5  6  2  0  0  0
  7  8  2  0  0  0
  7  9  1  0  0  0
  8 10  1  0  0  0
  9 11  1  0  0  0
  9 12  1  0  0  0
M  END
> <minimizedAffinity>
-4.78907

$$$$
1H4W_BEN_A_250


 12 12  0  0  0  0  0  0  0  0999 V2000
   49.6213   35.6487   39.0523 C   0  0  0  0  0  0  0  0  0  0  0  0
   49.4020   34.5196   39.8286 C   0  0  0  0  0  0  0  0  0  0  0  0
   48.4351   33.5691   39.3321 C   0  0  0  0  0  0  0  0  0  0  0  0
   47.6816   33.6934   38.1054 C   0  0  0  0  0  0  0  0  0  0  0  0
   47.9574   34.9009   37.3377 C   0  0  0  0  0  0  0  0  0  0  0  0
   48.9319   35.8582   37.8381 C   0  0  0  0  0  0  0  0  0  0  0  0
   50.5642   36.6358   39.4744 C   0  0  0  0  0  0  0  0  0  0  0  0
   51.0361   36.6363   40.7328 N   0  0  0  0  0  0  0  0  0  0  0  0
   51.0277   37.5858   38.6734 N   0  0  0  0  0  0  0  0  0  0  0  0
   50.7289   35.9553   41.3739 H   0  0  0  0  0  0  0  0  0  0  0  0
   50.7189   37.6366   37.7399 H   0  0  0  0  0  0  0  0  0  0  0  0
   51.6806   38.2401   39.0122 H   0  0  0  0  0  0  0  0  0  0  0  0
  1  2  2  0  0  0
  1  6  1  0  0  0
  1  7  1  0  0  0
  2  3  1  0  0  0
  3  4  2  0  0  0
  4  5  1  0  0  0
  5  6  2  0  0  0
  7  8  2  0  0  0
  7  9  1  0  0  0
  8 10  1  0  0  0
  9 11  1  0  0  0
  9 12  1  0  0  0
M  END
> <minimizedAffinity>
-4.45889

$$$$
1H4W_BEN_A_250


 12 12  0  0  0  0  0  0  0  0999 V2000
   48.8195   35.2192   38.2678 C   0  0  0  0  0  0  0  0  0  0  0  0
   49.6094   36.3558   38.1684 C   0  0  0  0  0  0  0  0  0  0  0  0
   50.4808   36.6394   39.2842 C   0  0  0  0  0  0  0  0  0  0  0  0
   50.5986   35.8468   40.4867 C   0  0  0  0  0  0  0  0  0  0  0  0
   49.7425   34.6683   40.5289 C   0  0  0  0  0  0  0  0  0  0  0  0
   48.8648   34.3826   39.4043 C   0  0  0  0  0  0  0  0  0  0  0  0
   47.9318   34.8688   37.2044 C   0  0  0  0  0  0  0  0  0  0  0  0
   48.1178   35.3622   35.9682 N   0  0  0  0  0  0  0  0  0  0  0  0
   46.8987   34.0521   37.3610 N   0  0  0  0  0  0  0  0  0  0  0  0
   48.8684   35.9739   35.7902 H   0  0  0  0  0  0  0  0  0  0  0  0
   46.7114   33.6590   38.2440 H   0  0  0  0  0  0  0  0  0  0  0  0
   46.3191   33.8388   36.5943 H   0  0  0  0  0  0  0  0  0  0  0  0
  1  2  2  0  0  0
  1  6  1  0  0  0
  1  7  1  0  0  0
  2  3  1  0  0  0
  3  4  2  0  0  0
  4  5  1  0  0  0
  5  6  2  0  0  0
  7  8  2  0  0  0
  7  9  1  0  0  0
  8 10  1  0  0  0
  9 11  1  0  0  0
  9 12  1  0  0  0
M  END
> <minimizedAffinity>
-4.38783

$$$$
