3BBF_GDP_A_160


 36 38  0  0  0  0  0  0  0  0999 V2000
   22.3091   33.5869   32.4914 C   0  0  0  0  0  0  0  0  0  0  0  0
   22.8135   32.7344   31.4673 O   0  0  0  0  0  0  0  0  0  0  0  0
   23.5035   34.3711   33.0130 C   0  0  0  0  0  0  0  0  0  0  0  0
   23.2070   34.9630   34.2751 O   0  0  0  0  0  0  0  0  0  0  0  0
   24.5199   33.2598   33.0302 C   0  0  0  0  0  0  0  0  0  0  0  0
   24.3219   32.4046   34.1613 O   0  0  0  0  0  0  0  0  0  0  0  0
   24.1798   32.4912   31.7634 C   0  0  0  0  0  0  0  0  0  0  0  0
   22.8963   34.2786   34.8882 H   0  0  0  0  0  0  0  0  0  0  0  0
   23.4154   32.0596   34.1510 H   0  0  0  0  0  0  0  0  0  0  0  0
   24.9647   32.9669   30.6192 N   0  0  0  0  0  0  0  0  0  0  0  0
   24.8884   34.1717   30.0075 C   0  0  0  0  0  0  0  0  0  0  0  0
   25.7864   34.2375   29.0030 N   0  0  0  0  0  0  0  0  0  0  0  0
   26.4301   33.0439   28.9549 C   0  0  0  0  0  0  0  0  0  0  0  0
   27.4750   32.3904   28.1294 C   0  0  0  0  0  0  0  0  0  0  0  0
   28.0550   32.9603   27.1880 O   0  0  0  0  0  0  0  0  0  0  0  0
   27.8033   31.1297   28.4416 N   0  0  0  0  0  0  0  0  0  0  0  0
   27.2721   30.4272   29.4464 C   0  0  0  0  0  0  0  0  0  0  0  0
   27.7020   29.1553   29.6407 N   0  0  0  0  0  0  0  0  0  0  0  0
   26.2973   30.9238   30.2460 N   0  0  0  0  0  0  0  0  0  0  0  0
   25.8719   32.2054   30.0254 C   0  0  0  0  0  0  0  0  0  0  0  0
   28.4876   30.6875   27.8890 H   0  0  0  0  0  0  0  0  0  0  0  0
   28.4095   28.7817   29.0670 H   0  0  0  0  0  0  0  0  0  0  0  0
   27.3063   28.6057   30.3553 H   0  0  0  0  0  0  0  0  0  0  0  0
   21.2038   34.4607   31.9633 C   0  0  0  0  0  0  0  0  0  0  0  0
   21.5253   35.8184   32.1767 O   0  0  0  0  0  0  0  0  0  0  0  0
   20.3576   36.7069   32.8397 P   0  0  0  0  0  0  0  0  0  0  0  0
   19.0912   36.3098   32.1666 O   0  0  0  0  0  0  0  0  0  0  0  0
   20.6785   38.1689   32.6981 O   0  0  0  0  0  0  0  0  0  0  0  0
   19.9701   38.6957   33.1000 H   0  0  0  0  0  0  0  0  0  0  0  0
   20.3529   36.3681   34.4112 O   0  0  0  0  0  0  0  0  0  0  0  0
   21.1321   37.0744   35.6526 P   0  0  0  0  0  0  0  0  0  0  0  0
   22.3357   37.8703   35.1170 O   0  0  0  0  0  0  0  0  0  0  0  0
   21.5698   35.8995   36.5482 O   0  0  0  0  0  0  0  0  0  0  0  0
   20.1972   37.8814   36.4876 O   0  0  0  0  0  0  0  0  0  0  0  0
   22.0472   36.2417   37.3201 H   0  0  0  0  0  0  0  0  0  0  0  0
   20.6871   38.2901   37.2183 H   0  0  0  0  0  0  0  0  0  0  0  0
 31 32  2  0  0  0
 31 33  1  0  0  0
 31 34  1  0  0  0
 31 30  1  0  0  0
 30 26  1  0  0  0
 26 27  2  0  0  0
 26 28  1  0  0  0
 26 25  1  0  0  0
 25 24  1  0  0  0
 24  1  1  0  0  0
  1  2  1  0  0  0
  1  3  1  0  0  0
  2  7  1  0  0  0
  3  4  1  0  0  0
  3  5  1  0  0  0
  5  6  1  0  0  0
  5  7  1  0  0  0
  7 10  1  0  0  0
 10 11  1  0  0  0
 10 20  1  0  0  0
 11 12  2  0  0  0
 12 13  1  0  0  0
 13 14  1  0  0  0
 13 20  2  0  0  0
 14 15  2  0  0  0
 14 16  1  0  0  0
 16 17  1  0  0  0
 17 18  1  0  0  0
 17 19  2  0  0  0
 19 20  1  0  0  0
 33 35  1  0  0  0
 34 36  1  0  0  0
 28 29  1  0  0  0
  4  8  1  0  0  0
  6  9  1  0  0  0
 16 21  1  0  0  0
 18 22  1  0  0  0
 18 23  1  0  0  0
M  END
> <minimizedAffinity>
-9.86925

$$$$
3BBF_GDP_A_160


 36 38  0  0  0  0  0  0  0  0999 V2000
   22.2744   33.9932   32.1639 C   0  0  0  0  0  0  0  0  0  0  0  0
   22.6678   33.4620   30.9017 O   0  0  0  0  0  0  0  0  0  0  0  0
   23.5588   34.4071   32.8656 C   0  0  0  0  0  0  0  0  0  0  0  0
   23.3354   34.5904   34.2612 O   0  0  0  0  0  0  0  0  0  0  0  0
   24.4190   33.2305   32.4861 C   0  0  0  0  0  0  0  0  0  0  0  0
   24.1025   32.0873   33.2878 O   0  0  0  0  0  0  0  0  0  0  0  0
   23.9880   32.9642   31.0528 C   0  0  0  0  0  0  0  0  0  0  0  0
   22.9330   33.7896   34.6322 H   0  0  0  0  0  0  0  0  0  0  0  0
   23.1584   31.8826   33.2006 H   0  0  0  0  0  0  0  0  0  0  0  0
   24.8361   33.6813   30.0946 N   0  0  0  0  0  0  0  0  0  0  0  0
   24.7391   34.9756   29.7113 C   0  0  0  0  0  0  0  0  0  0  0  0
   25.7125   35.2690   28.8247 N   0  0  0  0  0  0  0  0  0  0  0  0
   26.4286   34.1351   28.6177 C   0  0  0  0  0  0  0  0  0  0  0  0
   27.5764   33.6954   27.7873 C   0  0  0  0  0  0  0  0  0  0  0  0
   28.1980   34.4576   27.0258 O   0  0  0  0  0  0  0  0  0  0  0  0
   27.9525   32.4139   27.8909 N   0  0  0  0  0  0  0  0  0  0  0  0
   27.3822   31.5116   28.6946 C   0  0  0  0  0  0  0  0  0  0  0  0
   27.8699   30.2458   28.6903 N   0  0  0  0  0  0  0  0  0  0  0  0
   26.3157   31.8053   29.4773 N   0  0  0  0  0  0  0  0  0  0  0  0
   25.8340   33.0859   29.4580 C   0  0  0  0  0  0  0  0  0  0  0  0
   28.7061   32.1143   27.3327 H   0  0  0  0  0  0  0  0  0  0  0  0
   28.6442   30.0185   28.1264 H   0  0  0  0  0  0  0  0  0  0  0  0
   27.4495   29.5544   29.2510 H   0  0  0  0  0  0  0  0  0  0  0  0
   21.2978   35.1241   31.9869 C   0  0  0  0  0  0  0  0  0  0  0  0
   21.5512   36.1282   32.9459 O   0  0  0  0  0  0  0  0  0  0  0  0
   20.4857   36.2157   34.1498 P   0  0  0  0  0  0  0  0  0  0  0  0
   20.5189   34.8975   34.8396 O   0  0  0  0  0  0  0  0  0  0  0  0
   19.1287   36.5766   33.6123 O   0  0  0  0  0  0  0  0  0  0  0  0
   18.4940   36.6269   34.3441 H   0  0  0  0  0  0  0  0  0  0  0  0
   20.9594   37.4216   35.1015 O   0  0  0  0  0  0  0  0  0  0  0  0
   22.3401   38.2820   35.1185 P   0  0  0  0  0  0  0  0  0  0  0  0
   22.3602   39.1958   36.3568 O   0  0  0  0  0  0  0  0  0  0  0  0
   22.3045   39.0891   33.8065 O   0  0  0  0  0  0  0  0  0  0  0  0
   23.5314   37.3931   35.0039 O   0  0  0  0  0  0  0  0  0  0  0  0
   23.1037   39.6349   33.7408 H   0  0  0  0  0  0  0  0  0  0  0  0
   24.3386   37.9309   35.0166 H   0  0  0  0  0  0  0  0  0  0  0  0
 31 32  2  0  0  0
 31 33  1  0  0  0
 31 34  1  0  0  0
 31 30  1  0  0  0
 30 26  1  0  0  0
 26 27  2  0  0  0
 26 28  1  0  0  0
 26 25  1  0  0  0
 25 24  1  0  0  0
 24  1  1  0  0  0
  1  2  1  0  0  0
  1  3  1  0  0  0
  2  7  1  0  0  0
  3  4  1  0  0  0
  3  5  1  0  0  0
  5  6  1  0  0  0
  5  7  1  0  0  0
  7 10  1  0  0  0
 10 11  1  0  0  0
 10 20  1  0  0  0
 11 12  2  0  0  0
 12 13  1  0  0  0
 13 14  1  0  0  0
 13 20  2  0  0  0
 14 15  2  0  0  0
 14 16  1  0  0  0
 16 17  1  0  0  0
 17 18  1  0  0  0
 17 19  2  0  0  0
 19 20  1  0  0  0
 33 35  1  0  0  0
 34 36  1  0  0  0
 28 29  1  0  0  0
  4  8  1  0  0  0
  6  9  1  0  0  0
 16 21  1  0  0  0
 18 22  1  0  0  0
 18 23  1  0  0  0
M  END
> <minimizedAffinity>
-8.94673

$$$$
3BBF_GDP_A_160


 36 38  0  0  0  0  0  0  0  0999 V2000
   20.4535   37.3160   34.1253 C   0  0  0  0  0  0  0  0  0  0  0  0
   20.3648   36.0628   33.4533 O   0  0  0  0  0  0  0  0  0  0  0  0
   21.9221   37.5042   34.4736 C   0  0  0  0  0  0  0  0  0  0  0  0
   22.0802   38.5135   35.4673 O   0  0  0  0  0  0  0  0  0  0  0  0
   22.2385   36.0974   34.9087 C   0  0  0  0  0  0  0  0  0  0  0  0
   21.7417   35.8474   36.2280 O   0  0  0  0  0  0  0  0  0  0  0  0
   21.4439   35.2655   33.9150 C   0  0  0  0  0  0  0  0  0  0  0  0
   21.5250   38.3021   36.2341 H   0  0  0  0  0  0  0  0  0  0  0  0
   20.7881   36.0232   36.2532 H   0  0  0  0  0  0  0  0  0  0  0  0
   22.2531   34.9083   32.7449 N   0  0  0  0  0  0  0  0  0  0  0  0
   22.2177   35.4673   31.5129 C   0  0  0  0  0  0  0  0  0  0  0  0
   23.1267   34.8757   30.7109 N   0  0  0  0  0  0  0  0  0  0  0  0
   23.7360   33.9035   31.4354 C   0  0  0  0  0  0  0  0  0  0  0  0
   24.7693   32.8600   31.2261 C   0  0  0  0  0  0  0  0  0  0  0  0
   25.3746   32.7066   30.1502 O   0  0  0  0  0  0  0  0  0  0  0  0
   25.0579   32.0660   32.2656 N   0  0  0  0  0  0  0  0  0  0  0  0
   24.4970   32.1547   33.4751 C   0  0  0  0  0  0  0  0  0  0  0  0
   24.8879   31.2765   34.4323 N   0  0  0  0  0  0  0  0  0  0  0  0
   23.5295   33.0584   33.7640 N   0  0  0  0  0  0  0  0  0  0  0  0
   23.1435   33.9277   32.7803 C   0  0  0  0  0  0  0  0  0  0  0  0
   25.7343   31.3640   32.1281 H   0  0  0  0  0  0  0  0  0  0  0  0
   25.5898   30.6146   34.2360 H   0  0  0  0  0  0  0  0  0  0  0  0
   24.4697   31.3011   35.3232 H   0  0  0  0  0  0  0  0  0  0  0  0
   19.8945   38.4214   33.2711 C   0  0  0  0  0  0  0  0  0  0  0  0
   20.9299   39.3034   32.8941 O   0  0  0  0  0  0  0  0  0  0  0  0
   21.0616   39.5753   31.3126 P   0  0  0  0  0  0  0  0  0  0  0  0
   20.7360   41.0121   31.1026 O   0  0  0  0  0  0  0  0  0  0  0  0
   20.1631   38.6401   30.5519 O   0  0  0  0  0  0  0  0  0  0  0  0
   20.2491   38.8111   29.6010 H   0  0  0  0  0  0  0  0  0  0  0  0
   22.5758   39.2206   30.9057 O   0  0  0  0  0  0  0  0  0  0  0  0
   23.2893   39.1253   29.4466 P   0  0  0  0  0  0  0  0  0  0  0  0
   22.3142   39.6232   28.3649 O   0  0  0  0  0  0  0  0  0  0  0  0
   23.6216   37.6301   29.2798 O   0  0  0  0  0  0  0  0  0  0  0  0
   24.6053   39.8259   29.4427 O   0  0  0  0  0  0  0  0  0  0  0  0
   24.0548   37.4887   28.4234 H   0  0  0  0  0  0  0  0  0  0  0  0
   25.0074   39.7535   28.5629 H   0  0  0  0  0  0  0  0  0  0  0  0
 31 32  2  0  0  0
 31 33  1  0  0  0
 31 34  1  0  0  0
 31 30  1  0  0  0
 30 26  1  0  0  0
 26 27  2  0  0  0
 26 28  1  0  0  0
 26 25  1  0  0  0
 25 24  1  0  0  0
 24  1  1  0  0  0
  1  2  1  0  0  0
  1  3  1  0  0  0
  2  7  1  0  0  0
  3  4  1  0  0  0
  3  5  1  0  0  0
  5  6  1  0  0  0
  5  7  1  0  0  0
  7 10  1  0  0  0
 10 11  1  0  0  0
 10 20  1  0  0  0
 11 12  2  0  0  0
 12 13  1  0  0  0
 13 14  1  0  0  0
 13 20  2  0  0  0
 14 15  2  0  0  0
 14 16  1  0  0  0
 16 17  1  0  0  0
 17 18  1  0  0  0
 17 19  2  0  0  0
 19 20  1  0  0  0
 33 35  1  0  0  0
 34 36  1  0  0  0
 28 29  1  0  0  0
  4  8  1  0  0  0
  6  9  1  0  0  0
 16 21  1  0  0  0
 18 22  1  0  0  0
 18 23  1  0  0  0
M  END
> <minimizedAffinity>
-8.89726

$$$$
3BBF_GDP_A_160


 36 38  0  0  0  0  0  0  0  0999 V2000
   20.4312   37.2910   34.1750 C   0  0  0  0  0  0  0  0  0  0  0  0
   20.3463   36.0400   33.4985 O   0  0  0  0  0  0  0  0  0  0  0  0
   21.9013   37.4891   34.5112 C   0  0  0  0  0  0  0  0  0  0  0  0
   22.0604   38.4956   35.5077 O   0  0  0  0  0  0  0  0  0  0  0  0
   22.2325   36.0831   34.9376 C   0  0  0  0  0  0  0  0  0  0  0  0
   21.7493   35.8237   36.2601 O   0  0  0  0  0  0  0  0  0  0  0  0
   21.4356   35.2491   33.9474 C   0  0  0  0  0  0  0  0  0  0  0  0
   21.5136   38.2767   36.2784 H   0  0  0  0  0  0  0  0  0  0  0  0
   20.7946   35.9920   36.2944 H   0  0  0  0  0  0  0  0  0  0  0  0
   22.2373   34.9031   32.7687 N   0  0  0  0  0  0  0  0  0  0  0  0
   22.1890   35.4691   31.5404 C   0  0  0  0  0  0  0  0  0  0  0  0
   23.0946   34.8871   30.7276 N   0  0  0  0  0  0  0  0  0  0  0  0
   23.7148   33.9139   31.4415 C   0  0  0  0  0  0  0  0  0  0  0  0
   24.7518   32.8771   31.2177 C   0  0  0  0  0  0  0  0  0  0  0  0
   25.3492   32.7332   30.1361 O   0  0  0  0  0  0  0  0  0  0  0  0
   25.0530   32.0786   32.2502 N   0  0  0  0  0  0  0  0  0  0  0  0
   24.5014   32.1573   33.4646 C   0  0  0  0  0  0  0  0  0  0  0  0
   24.9046   31.2756   34.4134 N   0  0  0  0  0  0  0  0  0  0  0  0
   23.5315   33.0541   33.7666 N   0  0  0  0  0  0  0  0  0  0  0  0
   23.1330   33.9270   32.7912 C   0  0  0  0  0  0  0  0  0  0  0  0
   25.7320   31.3810   32.1031 H   0  0  0  0  0  0  0  0  0  0  0  0
   25.6084   30.6186   34.2077 H   0  0  0  0  0  0  0  0  0  0  0  0
   24.4935   31.2926   35.3078 H   0  0  0  0  0  0  0  0  0  0  0  0
   19.8562   38.3955   33.3304 C   0  0  0  0  0  0  0  0  0  0  0  0
   20.8858   39.2713   32.9242 O   0  0  0  0  0  0  0  0  0  0  0  0
   20.8974   39.6414   31.3573 P   0  0  0  0  0  0  0  0  0  0  0  0
   20.4591   38.4184   30.6314 O   0  0  0  0  0  0  0  0  0  0  0  0
   22.2627   40.1222   30.9509 O   0  0  0  0  0  0  0  0  0  0  0  0
   22.2601   40.3426   30.0063 H   0  0  0  0  0  0  0  0  0  0  0  0
   19.8800   40.8709   31.1638 O   0  0  0  0  0  0  0  0  0  0  0  0
   18.6128   41.0534   30.1598 P   0  0  0  0  0  0  0  0  0  0  0  0
   17.4264   40.2185   30.6738 O   0  0  0  0  0  0  0  0  0  0  0  0
   19.1272   40.5479   28.7982 O   0  0  0  0  0  0  0  0  0  0  0  0
   18.2925   42.4944   29.9515 O   0  0  0  0  0  0  0  0  0  0  0  0
   18.4214   40.6247   28.1372 H   0  0  0  0  0  0  0  0  0  0  0  0
   17.5353   42.5737   29.3506 H   0  0  0  0  0  0  0  0  0  0  0  0
 31 32  2  0  0  0
 31 33  1  0  0  0
 31 34  1  0  0  0
 31 30  1  0  0  0
 30 26  1  0  0  0
 26 27  2  0  0  0
 26 28  1  0  0  0
 26 25  1  0  0  0
 25 24  1  0  0  0
 24  1  1  0  0  0
  1  2  1  0  0  0
  1  3  1  0  0  0
  2  7  1  0  0  0
  3  4  1  0  0  0
  3  5  1  0  0  0
  5  6  1  0  0  0
  5  7  1  0  0  0
  7 10  1  0  0  0
 10 11  1  0  0  0
 10 20  1  0  0  0
 11 12  2  0  0  0
 12 13  1  0  0  0
 13 14  1  0  0  0
 13 20  2  0  0  0
 14 15  2  0  0  0
 14 16  1  0  0  0
 16 17  1  0  0  0
 17 18  1  0  0  0
 17 19  2  0  0  0
 19 20  1  0  0  0
 33 35  1  0  0  0
 34 36  1  0  0  0
 28 29  1  0  0  0
  4  8  1  0  0  0
  6  9  1  0  0  0
 16 21  1  0  0  0
 18 22  1  0  0  0
 18 23  1  0  0  0
M  END
> <minimizedAffinity>
-8.89483

$$$$
3BBF_GDP_A_160


 36 38  0  0  0  0  0  0  0  0999 V2000
   23.0124   33.0784   32.4872 C   0  0  0  0  0  0  0  0  0  0  0  0
   23.0829   33.1277   31.0651 O   0  0  0  0  0  0  0  0  0  0  0  0
   24.4508   33.0226   32.9786 C   0  0  0  0  0  0  0  0  0  0  0  0
   24.5047   32.5886   34.3350 O   0  0  0  0  0  0  0  0  0  0  0  0
   25.0064   32.0638   31.9586 C   0  0  0  0  0  0  0  0  0  0  0  0
   24.6289   30.7172   32.2653 O   0  0  0  0  0  0  0  0  0  0  0  0
   24.2972   32.4988   30.6863 C   0  0  0  0  0  0  0  0  0  0  0  0
   24.0328   31.7458   34.4239 H   0  0  0  0  0  0  0  0  0  0  0  0
   23.6624   30.6574   32.3226 H   0  0  0  0  0  0  0  0  0  0  0  0
   25.0858   33.4869   29.9425 N   0  0  0  0  0  0  0  0  0  0  0  0
   24.8933   34.8253   29.8853 C   0  0  0  0  0  0  0  0  0  0  0  0
   25.8380   35.3951   29.1092 N   0  0  0  0  0  0  0  0  0  0  0  0
   26.6331   34.4003   28.6407 C   0  0  0  0  0  0  0  0  0  0  0  0
   27.8051   34.2599   27.7422 C   0  0  0  0  0  0  0  0  0  0  0  0
   28.3657   35.2275   27.1974 O   0  0  0  0  0  0  0  0  0  0  0  0
   28.2735   33.0222   27.5347 N   0  0  0  0  0  0  0  0  0  0  0  0
   27.7744   31.9126   28.0870 C   0  0  0  0  0  0  0  0  0  0  0  0
   28.3524   30.7244   27.7800 N   0  0  0  0  0  0  0  0  0  0  0  0
   26.6938   31.9293   28.9044 N   0  0  0  0  0  0  0  0  0  0  0  0
   26.1206   33.1379   29.1923 C   0  0  0  0  0  0  0  0  0  0  0  0
   29.0437   32.9227   26.9297 H   0  0  0  0  0  0  0  0  0  0  0  0
   29.1380   30.6977   27.1873 H   0  0  0  0  0  0  0  0  0  0  0  0
   27.9862   29.8887   28.1499 H   0  0  0  0  0  0  0  0  0  0  0  0
   22.2412   34.2531   33.0253 C   0  0  0  0  0  0  0  0  0  0  0  0
   22.9820   34.8820   34.0489 O   0  0  0  0  0  0  0  0  0  0  0  0
   22.2929   36.1849   34.6971 P   0  0  0  0  0  0  0  0  0  0  0  0
   23.3813   37.1778   34.9072 O   0  0  0  0  0  0  0  0  0  0  0  0
   21.5706   35.8111   35.9616 O   0  0  0  0  0  0  0  0  0  0  0  0
   21.1591   36.6016   36.3446 H   0  0  0  0  0  0  0  0  0  0  0  0
   21.1872   36.6951   33.6476 O   0  0  0  0  0  0  0  0  0  0  0  0
   19.8815   37.6429   33.8567 P   0  0  0  0  0  0  0  0  0  0  0  0
   18.6705   37.0125   33.1461 O   0  0  0  0  0  0  0  0  0  0  0  0
   20.2822   38.9911   33.2274 O   0  0  0  0  0  0  0  0  0  0  0  0
   19.6512   37.9334   35.3007 O   0  0  0  0  0  0  0  0  0  0  0  0
   19.5475   39.6187   33.3125 H   0  0  0  0  0  0  0  0  0  0  0  0
   18.8687   38.4987   35.3960 H   0  0  0  0  0  0  0  0  0  0  0  0
 31 32  2  0  0  0
 31 33  1  0  0  0
 31 34  1  0  0  0
 31 30  1  0  0  0
 30 26  1  0  0  0
 26 27  2  0  0  0
 26 28  1  0  0  0
 26 25  1  0  0  0
 25 24  1  0  0  0
 24  1  1  0  0  0
  1  2  1  0  0  0
  1  3  1  0  0  0
  2  7  1  0  0  0
  3  4  1  0  0  0
  3  5  1  0  0  0
  5  6  1  0  0  0
  5  7  1  0  0  0
  7 10  1  0  0  0
 10 11  1  0  0  0
 10 20  1  0  0  0
 11 12  2  0  0  0
 12 13  1  0  0  0
 13 14  1  0  0  0
 13 20  2  0  0  0
 14 15  2  0  0  0
 14 16  1  0  0  0
 16 17  1  0  0  0
 17 18  1  0  0  0
 17 19  2  0  0  0
 19 20  1  0  0  0
 33 35  1  0  0  0
 34 36  1  0  0  0
 28 29  1  0  0  0
  4  8  1  0  0  0
  6  9  1  0  0  0
 16 21  1  0  0  0
 18 22  1  0  0  0
 18 23  1  0  0  0
M  END
> <minimizedAffinity>
-8.70995

$$$$
3BBF_GDP_A_160


 36 38  0  0  0  0  0  0  0  0999 V2000
   25.8392   31.7935   31.2921 C   0  0  0  0  0  0  0  0  0  0  0  0
   25.7133   33.1946   31.5183 O   0  0  0  0  0  0  0  0  0  0  0  0
   24.4475   31.2096   31.4806 C   0  0  0  0  0  0  0  0  0  0  0  0
   24.5124   29.7971   31.6592 O   0  0  0  0  0  0  0  0  0  0  0  0
   24.0240   32.0063   32.6865 C   0  0  0  0  0  0  0  0  0  0  0  0
   24.6294   31.4908   33.8771 O   0  0  0  0  0  0  0  0  0  0  0  0
   24.6077   33.3781   32.3887 C   0  0  0  0  0  0  0  0  0  0  0  0
   25.1200   29.5907   32.3866 H   0  0  0  0  0  0  0  0  0  0  0  0
   25.5938   31.4854   33.7732 H   0  0  0  0  0  0  0  0  0  0  0  0
   23.6416   34.2333   31.6911 N   0  0  0  0  0  0  0  0  0  0  0  0
   23.6624   34.6170   30.3935 C   0  0  0  0  0  0  0  0  0  0  0  0
   22.5905   35.3899   30.1230 N   0  0  0  0  0  0  0  0  0  0  0  0
   21.8856   35.5242   31.2747 C   0  0  0  0  0  0  0  0  0  0  0  0
   20.6655   36.2268   31.7418 C   0  0  0  0  0  0  0  0  0  0  0  0
   19.9447   36.9110   30.9938 O   0  0  0  0  0  0  0  0  0  0  0  0
   20.3362   36.0904   33.0331 N   0  0  0  0  0  0  0  0  0  0  0  0
   21.0143   35.3595   33.9226 C   0  0  0  0  0  0  0  0  0  0  0  0
   20.5620   35.3182   35.2009 N   0  0  0  0  0  0  0  0  0  0  0  0
   22.1522   34.6965   33.6034 N   0  0  0  0  0  0  0  0  0  0  0  0
   22.5956   34.7605   32.3106 C   0  0  0  0  0  0  0  0  0  0  0  0
   19.5340   36.5646   33.3507 H   0  0  0  0  0  0  0  0  0  0  0  0
   19.7367   35.7953   35.4467 H   0  0  0  0  0  0  0  0  0  0  0  0
   21.0591   34.8110   35.8828 H   0  0  0  0  0  0  0  0  0  0  0  0
   26.4231   31.5221   29.9321 C   0  0  0  0  0  0  0  0  0  0  0  0
   26.1816   30.1799   29.5682 O   0  0  0  0  0  0  0  0  0  0  0  0
   27.4685   29.2130   29.6082 P   0  0  0  0  0  0  0  0  0  0  0  0
   28.6256   30.0660   29.9931 O   0  0  0  0  0  0  0  0  0  0  0  0
   27.6427   28.5311   28.2797 O   0  0  0  0  0  0  0  0  0  0  0  0
   28.4196   27.9513   28.3133 H   0  0  0  0  0  0  0  0  0  0  0  0
   27.1563   28.0705   30.6951 O   0  0  0  0  0  0  0  0  0  0  0  0
   25.9881   26.9391   30.7416 P   0  0  0  0  0  0  0  0  0  0  0  0
   26.5809   25.5730   30.3526 O   0  0  0  0  0  0  0  0  0  0  0  0
   24.9424   27.4263   29.7203 O   0  0  0  0  0  0  0  0  0  0  0  0
   25.2870   26.9411   32.0572 O   0  0  0  0  0  0  0  0  0  0  0  0
   24.2043   26.7977   29.6885 H   0  0  0  0  0  0  0  0  0  0  0  0
   24.5975   26.2588   32.0572 H   0  0  0  0  0  0  0  0  0  0  0  0
 31 32  2  0  0  0
 31 33  1  0  0  0
 31 34  1  0  0  0
 31 30  1  0  0  0
 30 26  1  0  0  0
 26 27  2  0  0  0
 26 28  1  0  0  0
 26 25  1  0  0  0
 25 24  1  0  0  0
 24  1  1  0  0  0
  1  2  1  0  0  0
  1  3  1  0  0  0
  2  7  1  0  0  0
  3  4  1  0  0  0
  3  5  1  0  0  0
  5  6  1  0  0  0
  5  7  1  0  0  0
  7 10  1  0  0  0
 10 11  1  0  0  0
 10 20  1  0  0  0
 11 12  2  0  0  0
 12 13  1  0  0  0
 13 14  1  0  0  0
 13 20  2  0  0  0
 14 15  2  0  0  0
 14 16  1  0  0  0
 16 17  1  0  0  0
 17 18  1  0  0  0
 17 19  2  0  0  0
 19 20  1  0  0  0
 33 35  1  0  0  0
 34 36  1  0  0  0
 28 29  1  0  0  0
  4  8  1  0  0  0
  6  9  1  0  0  0
 16 21  1  0  0  0
 18 22  1  0  0  0
 18 23  1  0  0  0
M  END
> <minimizedAffinity>
-8.55158

$$$$
3BBF_GDP_A_160


 36 38  0  0  0  0  0  0  0  0999 V2000
   22.3161   33.9941   32.1262 C   0  0  0  0  0  0  0  0  0  0  0  0
   22.6810   33.0935   31.0842 O   0  0  0  0  0  0  0  0  0  0  0  0
   23.6090   34.3597   32.8390 C   0  0  0  0  0  0  0  0  0  0  0  0
   23.3374   34.9363   34.1137 O   0  0  0  0  0  0  0  0  0  0  0  0
   24.2558   32.9996   32.8566 C   0  0  0  0  0  0  0  0  0  0  0  0
   23.6816   32.1747   33.8763 O   0  0  0  0  0  0  0  0  0  0  0  0
   23.8727   32.4420   31.4952 C   0  0  0  0  0  0  0  0  0  0  0  0
   22.7699   34.3383   34.6248 H   0  0  0  0  0  0  0  0  0  0  0  0
   22.7231   32.1128   33.7406 H   0  0  0  0  0  0  0  0  0  0  0  0
   24.8979   32.7331   30.4875 N   0  0  0  0  0  0  0  0  0  0  0  0
   25.1153   33.9030   29.8427 C   0  0  0  0  0  0  0  0  0  0  0  0
   26.1625   33.7792   29.0015 N   0  0  0  0  0  0  0  0  0  0  0  0
   26.6061   32.4999   29.0907 C   0  0  0  0  0  0  0  0  0  0  0  0
   27.6523   31.6527   28.4677 C   0  0  0  0  0  0  0  0  0  0  0  0
   28.4604   32.0785   27.6233 O   0  0  0  0  0  0  0  0  0  0  0  0
   27.7198   30.3739   28.8608 N   0  0  0  0  0  0  0  0  0  0  0  0
   26.9278   29.8128   29.7792 C   0  0  0  0  0  0  0  0  0  0  0  0
   27.1114   28.5014   30.0733 N   0  0  0  0  0  0  0  0  0  0  0  0
   25.9289   30.4931   30.3920 N   0  0  0  0  0  0  0  0  0  0  0  0
   25.7554   31.8122   30.0724 C   0  0  0  0  0  0  0  0  0  0  0  0
   28.4047   29.8044   28.4414 H   0  0  0  0  0  0  0  0  0  0  0  0
   27.8333   27.9950   29.6354 H   0  0  0  0  0  0  0  0  0  0  0  0
   26.5228   28.0559   30.7247 H   0  0  0  0  0  0  0  0  0  0  0  0
   21.5813   35.1841   31.5713 C   0  0  0  0  0  0  0  0  0  0  0  0
   20.2992   35.2685   32.1553 O   0  0  0  0  0  0  0  0  0  0  0  0
   20.1171   36.4327   33.2525 P   0  0  0  0  0  0  0  0  0  0  0  0
   20.5317   35.8510   34.5580 O   0  0  0  0  0  0  0  0  0  0  0  0
   18.6995   36.9334   33.2429 O   0  0  0  0  0  0  0  0  0  0  0  0
   18.5995   37.6338   33.9064 H   0  0  0  0  0  0  0  0  0  0  0  0
   21.0585   37.6527   32.7945 O   0  0  0  0  0  0  0  0  0  0  0  0
   20.7039   39.0286   32.0020 P   0  0  0  0  0  0  0  0  0  0  0  0
   19.4587   39.6777   32.6322 O   0  0  0  0  0  0  0  0  0  0  0  0
   20.4483   38.5795   30.5504 O   0  0  0  0  0  0  0  0  0  0  0  0
   21.8875   39.9324   31.9338 O   0  0  0  0  0  0  0  0  0  0  0  0
   20.2278   39.3521   30.0070 H   0  0  0  0  0  0  0  0  0  0  0  0
   21.6485   40.7429   31.4573 H   0  0  0  0  0  0  0  0  0  0  0  0
 31 32  2  0  0  0
 31 33  1  0  0  0
 31 34  1  0  0  0
 31 30  1  0  0  0
 30 26  1  0  0  0
 26 27  2  0  0  0
 26 28  1  0  0  0
 26 25  1  0  0  0
 25 24  1  0  0  0
 24  1  1  0  0  0
  1  2  1  0  0  0
  1  3  1  0  0  0
  2  7  1  0  0  0
  3  4  1  0  0  0
  3  5  1  0  0  0
  5  6  1  0  0  0
  5  7  1  0  0  0
  7 10  1  0  0  0
 10 11  1  0  0  0
 10 20  1  0  0  0
 11 12  2  0  0  0
 12 13  1  0  0  0
 13 14  1  0  0  0
 13 20  2  0  0  0
 14 15  2  0  0  0
 14 16  1  0  0  0
 16 17  1  0  0  0
 17 18  1  0  0  0
 17 19  2  0  0  0
 19 20  1  0  0  0
 33 35  1  0  0  0
 34 36  1  0  0  0
 28 29  1  0  0  0
  4  8  1  0  0  0
  6  9  1  0  0  0
 16 21  1  0  0  0
 18 22  1  0  0  0
 18 23  1  0  0  0
M  END
> <minimizedAffinity>
-8.47115

$$$$
3BBF_GDP_A_160


 36 38  0  0  0  0  0  0  0  0999 V2000
   22.8782   33.2770   32.5363 C   0  0  0  0  0  0  0  0  0  0  0  0
   22.7810   33.5739   31.1462 O   0  0  0  0  0  0  0  0  0  0  0  0
   24.3650   33.2227   32.8524 C   0  0  0  0  0  0  0  0  0  0  0  0
   24.5933   32.5662   34.0966 O   0  0  0  0  0  0  0  0  0  0  0  0
   24.8357   32.4879   31.6248 C   0  0  0  0  0  0  0  0  0  0  0  0
   24.5497   31.0887   31.7266 O   0  0  0  0  0  0  0  0  0  0  0  0
   23.9668   33.0923   30.5335 C   0  0  0  0  0  0  0  0  0  0  0  0
   24.1684   31.6942   34.0847 H   0  0  0  0  0  0  0  0  0  0  0  0
   23.5995   30.9629   31.8760 H   0  0  0  0  0  0  0  0  0  0  0  0
   24.6241   34.2383   29.8964 N   0  0  0  0  0  0  0  0  0  0  0  0
   25.9315   34.3660   29.5706 C   0  0  0  0  0  0  0  0  0  0  0  0
   26.1467   35.5613   28.9837 N   0  0  0  0  0  0  0  0  0  0  0  0
   24.9608   36.2203   28.9574 C   0  0  0  0  0  0  0  0  0  0  0  0
   24.4455   37.5401   28.5181 C   0  0  0  0  0  0  0  0  0  0  0  0
   25.1573   38.4024   27.9728 O   0  0  0  0  0  0  0  0  0  0  0  0
   23.1437   37.7864   28.7156 N   0  0  0  0  0  0  0  0  0  0  0  0
   22.2770   36.9290   29.2623 C   0  0  0  0  0  0  0  0  0  0  0  0
   20.9857   37.3200   29.4026 N   0  0  0  0  0  0  0  0  0  0  0  0
   22.6496   35.7073   29.7152 N   0  0  0  0  0  0  0  0  0  0  0  0
   23.9593   35.3378   29.5727 C   0  0  0  0  0  0  0  0  0  0  0  0
   22.7995   38.6656   28.4368 H   0  0  0  0  0  0  0  0  0  0  0  0
   20.7013   38.2049   29.0781 H   0  0  0  0  0  0  0  0  0  0  0  0
   20.3329   36.7189   29.8289 H   0  0  0  0  0  0  0  0  0  0  0  0
   22.1292   34.2941   33.3538 C   0  0  0  0  0  0  0  0  0  0  0  0
   21.0294   34.7830   32.6165 O   0  0  0  0  0  0  0  0  0  0  0  0
   20.6597   36.3288   32.8740 P   0  0  0  0  0  0  0  0  0  0  0  0
   19.4959   36.6359   31.9989 O   0  0  0  0  0  0  0  0  0  0  0  0
   21.8572   37.1972   32.6050 O   0  0  0  0  0  0  0  0  0  0  0  0
   21.6252   38.1257   32.7627 H   0  0  0  0  0  0  0  0  0  0  0  0
   20.3094   36.4675   34.4368 O   0  0  0  0  0  0  0  0  0  0  0  0
   21.1503   37.1360   35.6587 P   0  0  0  0  0  0  0  0  0  0  0  0
   22.3271   37.9476   35.0884 O   0  0  0  0  0  0  0  0  0  0  0  0
   21.6299   35.9345   36.4957 O   0  0  0  0  0  0  0  0  0  0  0  0
   20.2591   37.9175   36.5629 O   0  0  0  0  0  0  0  0  0  0  0  0
   22.1455   36.2533   37.2530 H   0  0  0  0  0  0  0  0  0  0  0  0
   20.7852   38.3039   37.2805 H   0  0  0  0  0  0  0  0  0  0  0  0
 31 32  2  0  0  0
 31 33  1  0  0  0
 31 34  1  0  0  0
 31 30  1  0  0  0
 30 26  1  0  0  0
 26 27  2  0  0  0
 26 28  1  0  0  0
 26 25  1  0  0  0
 25 24  1  0  0  0
 24  1  1  0  0  0
  1  2  1  0  0  0
  1  3  1  0  0  0
  2  7  1  0  0  0
  3  4  1  0  0  0
  3  5  1  0  0  0
  5  6  1  0  0  0
  5  7  1  0  0  0
  7 10  1  0  0  0
 10 11  1  0  0  0
 10 20  1  0  0  0
 11 12  2  0  0  0
 12 13  1  0  0  0
 13 14  1  0  0  0
 13 20  2  0  0  0
 14 15  2  0  0  0
 14 16  1  0  0  0
 16 17  1  0  0  0
 17 18  1  0  0  0
 17 19  2  0  0  0
 19 20  1  0  0  0
 33 35  1  0  0  0
 34 36  1  0  0  0
 28 29  1  0  0  0
  4  8  1  0  0  0
  6  9  1  0  0  0
 16 21  1  0  0  0
 18 22  1  0  0  0
 18 23  1  0  0  0
M  END
> <minimizedAffinity>
-7.80823

$$$$
3BBF_GDP_A_160


 36 38  0  0  0  0  0  0  0  0999 V2000
   21.3725   38.6758   30.3491 C   0  0  0  0  0  0  0  0  0  0  0  0
   22.5953   38.0326   30.6971 O   0  0  0  0  0  0  0  0  0  0  0  0
   20.5408   37.6327   29.6187 C   0  0  0  0  0  0  0  0  0  0  0  0
   19.4791   38.2494   28.8950 O   0  0  0  0  0  0  0  0  0  0  0  0
   21.6303   37.0105   28.7854 C   0  0  0  0  0  0  0  0  0  0  0  0
   21.9534   37.8414   27.6651 O   0  0  0  0  0  0  0  0  0  0  0  0
   22.8067   36.9989   29.7483 C   0  0  0  0  0  0  0  0  0  0  0  0
   19.8409   38.9338   28.3107 H   0  0  0  0  0  0  0  0  0  0  0  0
   22.2038   38.7244   27.9790 H   0  0  0  0  0  0  0  0  0  0  0  0
   22.8815   35.7357   30.4900 N   0  0  0  0  0  0  0  0  0  0  0  0
   22.0681   35.3113   31.4849 C   0  0  0  0  0  0  0  0  0  0  0  0
   22.4497   34.0868   31.9030 N   0  0  0  0  0  0  0  0  0  0  0  0
   23.5424   33.7332   31.1804 C   0  0  0  0  0  0  0  0  0  0  0  0
   24.4914   32.5955   31.1070 C   0  0  0  0  0  0  0  0  0  0  0  0
   24.3927   31.5789   31.8171 O   0  0  0  0  0  0  0  0  0  0  0  0
   25.4864   32.6838   30.2144 N   0  0  0  0  0  0  0  0  0  0  0  0
   25.6764   33.7095   29.3794 C   0  0  0  0  0  0  0  0  0  0  0  0
   26.7332   33.6613   28.5302 N   0  0  0  0  0  0  0  0  0  0  0  0
   24.8797   34.8056   29.3801 N   0  0  0  0  0  0  0  0  0  0  0  0
   23.8257   34.8371   30.2522 C   0  0  0  0  0  0  0  0  0  0  0  0
   26.1259   31.9366   30.1704 H   0  0  0  0  0  0  0  0  0  0  0  0
   27.3202   32.8711   28.5192 H   0  0  0  0  0  0  0  0  0  0  0  0
   26.9131   34.4167   27.9250 H   0  0  0  0  0  0  0  0  0  0  0  0
   20.6948   39.2329   31.5716 C   0  0  0  0  0  0  0  0  0  0  0  0
   20.8897   38.3611   32.6644 O   0  0  0  0  0  0  0  0  0  0  0  0
   19.5536   37.9451   33.4608 P   0  0  0  0  0  0  0  0  0  0  0  0
   19.1711   36.5945   32.9669 O   0  0  0  0  0  0  0  0  0  0  0  0
   18.4858   38.9832   33.2541 O   0  0  0  0  0  0  0  0  0  0  0  0
   17.6854   38.7243   33.7371 H   0  0  0  0  0  0  0  0  0  0  0  0
   19.9263   37.9470   35.0245 O   0  0  0  0  0  0  0  0  0  0  0  0
   21.1110   37.1812   35.8352 P   0  0  0  0  0  0  0  0  0  0  0  0
   21.3191   37.8590   37.2013 O   0  0  0  0  0  0  0  0  0  0  0  0
   22.3482   37.3206   34.9275 O   0  0  0  0  0  0  0  0  0  0  0  0
   20.8465   35.7166   35.9212 O   0  0  0  0  0  0  0  0  0  0  0  0
   23.1068   36.8843   35.3457 H   0  0  0  0  0  0  0  0  0  0  0  0
   21.5665   35.2861   36.4083 H   0  0  0  0  0  0  0  0  0  0  0  0
 31 32  2  0  0  0
 31 33  1  0  0  0
 31 34  1  0  0  0
 31 30  1  0  0  0
 30 26  1  0  0  0
 26 27  2  0  0  0
 26 28  1  0  0  0
 26 25  1  0  0  0
 25 24  1  0  0  0
 24  1  1  0  0  0
  1  2  1  0  0  0
  1  3  1  0  0  0
  2  7  1  0  0  0
  3  4  1  0  0  0
  3  5  1  0  0  0
  5  6  1  0  0  0
  5  7  1  0  0  0
  7 10  1  0  0  0
 10 11  1  0  0  0
 10 20  1  0  0  0
 11 12  2  0  0  0
 12 13  1  0  0  0
 13 14  1  0  0  0
 13 20  2  0  0  0
 14 15  2  0  0  0
 14 16  1  0  0  0
 16 17  1  0  0  0
 17 18  1  0  0  0
 17 19  2  0  0  0
 19 20  1  0  0  0
 33 35  1  0  0  0
 34 36  1  0  0  0
 28 29  1  0  0  0
  4  8  1  0  0  0
  6  9  1  0  0  0
 16 21  1  0  0  0
 18 22  1  0  0  0
 18 23  1  0  0  0
M  END
> <minimizedAffinity>
-7.78416

$$$$
3BBF_GDP_A_160


 36 38  0  0  0  0  0  0  0  0999 V2000
   22.5109   34.0660   31.7982 C   0  0  0  0  0  0  0  0  0  0  0  0
   22.7480   32.9950   30.8890 O   0  0  0  0  0  0  0  0  0  0  0  0
   23.7151   34.1049   32.7265 C   0  0  0  0  0  0  0  0  0  0  0  0
   23.4261   34.8649   33.8971 O   0  0  0  0  0  0  0  0  0  0  0  0
   23.8965   32.6240   32.9320 C   0  0  0  0  0  0  0  0  0  0  0  0
   22.9331   32.1158   33.8613 O   0  0  0  0  0  0  0  0  0  0  0  0
   23.5931   32.0666   31.5505 C   0  0  0  0  0  0  0  0  0  0  0  0
   22.6243   34.5176   34.3183 H   0  0  0  0  0  0  0  0  0  0  0  0
   22.0395   32.3263   33.5481 H   0  0  0  0  0  0  0  0  0  0  0  0
   24.8114   31.9357   30.7444 N   0  0  0  0  0  0  0  0  0  0  0  0
   25.4393   32.8998   30.0318 C   0  0  0  0  0  0  0  0  0  0  0  0
   26.5393   32.3930   29.4379 N   0  0  0  0  0  0  0  0  0  0  0  0
   26.6014   31.0751   29.7551 C   0  0  0  0  0  0  0  0  0  0  0  0
   27.4697   29.9109   29.4531 C   0  0  0  0  0  0  0  0  0  0  0  0
   28.4911   29.9876   28.7473 O   0  0  0  0  0  0  0  0  0  0  0  0
   27.1246   28.7332   29.9902 N   0  0  0  0  0  0  0  0  0  0  0  0
   26.0698   28.5349   30.7861 C   0  0  0  0  0  0  0  0  0  0  0  0
   25.8425   27.2821   31.2539 N   0  0  0  0  0  0  0  0  0  0  0  0
   25.2032   29.5263   31.1062 N   0  0  0  0  0  0  0  0  0  0  0  0
   25.4463   30.7799   30.6148 C   0  0  0  0  0  0  0  0  0  0  0  0
   27.6909   27.9551   29.7828 H   0  0  0  0  0  0  0  0  0  0  0  0
   26.4640   26.5524   31.0290 H   0  0  0  0  0  0  0  0  0  0  0  0
   25.0560   27.1025   31.8182 H   0  0  0  0  0  0  0  0  0  0  0  0
   22.2843   35.3559   31.0573 C   0  0  0  0  0  0  0  0  0  0  0  0
   21.5529   36.2501   31.8682 O   0  0  0  0  0  0  0  0  0  0  0  0
   21.7655   37.8114   31.5374 P   0  0  0  0  0  0  0  0  0  0  0  0
   22.6767   37.8738   30.3624 O   0  0  0  0  0  0  0  0  0  0  0  0
   22.2985   38.5271   32.7474 O   0  0  0  0  0  0  0  0  0  0  0  0
   22.4233   39.4661   32.5388 H   0  0  0  0  0  0  0  0  0  0  0  0
   20.3116   38.4209   31.2229 O   0  0  0  0  0  0  0  0  0  0  0  0
   19.7479   39.9421   31.3463 P   0  0  0  0  0  0  0  0  0  0  0  0
   20.9308   40.9260   31.3878 O   0  0  0  0  0  0  0  0  0  0  0  0
   18.9462   39.9479   32.6621 O   0  0  0  0  0  0  0  0  0  0  0  0
   18.7533   40.2376   30.2758 O   0  0  0  0  0  0  0  0  0  0  0  0
   18.5730   40.8310   32.8095 H   0  0  0  0  0  0  0  0  0  0  0  0
   18.4346   41.1485   30.3731 H   0  0  0  0  0  0  0  0  0  0  0  0
 31 32  2  0  0  0
 31 33  1  0  0  0
 31 34  1  0  0  0
 31 30  1  0  0  0
 30 26  1  0  0  0
 26 27  2  0  0  0
 26 28  1  0  0  0
 26 25  1  0  0  0
 25 24  1  0  0  0
 24  1  1  0  0  0
  1  2  1  0  0  0
  1  3  1  0  0  0
  2  7  1  0  0  0
  3  4  1  0  0  0
  3  5  1  0  0  0
  5  6  1  0  0  0
  5  7  1  0  0  0
  7 10  1  0  0  0
 10 11  1  0  0  0
 10 20  1  0  0  0
 11 12  2  0  0  0
 12 13  1  0  0  0
 13 14  1  0  0  0
 13 20  2  0  0  0
 14 15  2  0  0  0
 14 16  1  0  0  0
 16 17  1  0  0  0
 17 18  1  0  0  0
 17 19  2  0  0  0
 19 20  1  0  0  0
 33 35  1  0  0  0
 34 36  1  0  0  0
 28 29  1  0  0  0
  4  8  1  0  0  0
  6  9  1  0  0  0
 16 21  1  0  0  0
 18 22  1  0  0  0
 18 23  1  0  0  0
M  END
> <minimizedAffinity>
-7.57285

$$$$
