5EI3_5O8_A_301


 40 43  0  0  0  0  0  0  0  0999 V2000
    7.1978  -14.7265   -7.5952 C   0  0  0  0  0  0  0  0  0  0  0  0
    5.9884  -14.1049   -7.3180 C   0  0  0  0  0  0  0  0  0  0  0  0
    4.8609  -14.8587   -7.0315 C   0  0  0  0  0  0  0  0  0  0  0  0
    7.4860  -12.5821   -7.7081 C   0  0  0  0  0  0  0  0  0  0  0  0
    4.9741  -16.2479   -7.0306 N   0  0  0  0  0  0  0  0  0  0  0  0
    6.3380  -18.1497   -7.3207 N   0  0  0  0  0  0  0  0  0  0  0  0
    7.2872  -16.0635   -7.5902 N   0  0  0  0  0  0  0  0  0  0  0  0
    6.2173  -12.8051   -7.3945 N   0  0  0  0  0  0  0  0  0  0  0  0
    3.7864  -14.3151   -6.7846 O   0  0  0  0  0  0  0  0  0  0  0  0
    6.2169  -16.8257   -7.3185 C   0  0  0  0  0  0  0  0  0  0  0  0
    8.0893  -13.7634   -7.8283 N   0  0  0  0  0  0  0  0  0  0  0  0
    4.1934  -16.8135   -6.8310 H   0  0  0  0  0  0  0  0  0  0  0  0
    5.5573  -18.7158   -7.1223 H   0  0  0  0  0  0  0  0  0  0  0  0
    7.2083  -18.5641   -7.5207 H   0  0  0  0  0  0  0  0  0  0  0  0
    9.5245  -13.9269   -8.1716 C   0  0  0  0  0  0  0  0  0  0  0  0
   10.2931  -13.6549   -6.9521 O   0  0  0  0  0  0  0  0  0  0  0  0
   10.0496  -13.0431   -9.2641 C   0  0  0  0  0  0  0  0  0  0  0  0
   11.1761  -13.6679   -9.8845 O   0  0  0  0  0  0  0  0  0  0  0  0
   10.5172  -11.8303   -8.4600 C   0  0  0  0  0  0  0  0  0  0  0  0
   11.6666  -11.3041   -9.0871 O   0  0  0  0  0  0  0  0  0  0  0  0
   10.9552  -12.3767   -7.0897 C   0  0  0  0  0  0  0  0  0  0  0  0
   11.8387  -13.8834   -9.2097 H   0  0  0  0  0  0  0  0  0  0  0  0
   12.3461  -11.9937   -9.1478 H   0  0  0  0  0  0  0  0  0  0  0  0
   10.6011  -11.4272   -5.8939 C   0  0  0  0  0  0  0  0  0  0  0  0
   10.2480  -10.1045   -6.4612 N   0  0  0  0  0  0  0  0  0  0  0  0
   10.1655  -10.2044   -7.4729 H   0  0  0  0  0  0  0  0  0  0  0  0
   11.3427   -8.9054   -6.1493 S   0  0  0  0  0  0  0  0  0  0  0  0
   12.6179   -9.1729   -6.8925 O   0  0  0  0  0  0  0  0  0  0  0  0
   11.6155   -8.8335   -4.6762 O   0  0  0  0  0  0  0  0  0  0  0  0
   10.6086   -7.3407   -6.7212 C   0  0  0  0  0  0  0  0  0  0  0  0
   10.0664   -6.7027   -5.6887 F   0  0  0  0  0  0  0  0  0  0  0  0
   11.5543   -6.5811   -7.2638 F   0  0  0  0  0  0  0  0  0  0  0  0
    9.6698   -7.5956   -7.6272 F   0  0  0  0  0  0  0  0  0  0  0  0
    5.2157  -11.7565   -7.1820 C   0  0  0  0  0  0  0  0  0  0  0  0
    4.3670  -11.0138   -4.9171 C   0  0  0  0  0  0  0  0  0  0  0  0
    4.5771  -10.4802   -3.6505 C   0  0  0  0  0  0  0  0  0  0  0  0
    5.8565  -10.1048   -3.2552 C   0  0  0  0  0  0  0  0  0  0  0  0
    6.9283  -10.2628   -4.1263 C   0  0  0  0  0  0  0  0  0  0  0  0
    6.7171  -10.7957   -5.3929 C   0  0  0  0  0  0  0  0  0  0  0  0
    5.4373  -11.1717   -5.7890 C   0  0  0  0  0  0  0  0  0  0  0  0
 34 40  1  0  0  0
 34  8  1  0  0  0
 35 40  2  0  0  0
 35 36  1  0  0  0
 40 39  1  0  0  0
 36 37  2  0  0  0
 39 38  2  0  0  0
 37 38  1  0  0  0
  9  3  2  0  0  0
  8  4  2  0  0  0
  8  2  1  0  0  0
  4 11  1  0  0  0
  3  2  1  0  0  0
  3  5  1  0  0  0
  2  1  2  0  0  0
 11  1  1  0  0  0
 11 15  1  0  0  0
  1  7  1  0  0  0
  5 10  1  0  0  0
 28 27  2  0  0  0
 15 16  1  0  0  0
 15 17  1  0  0  0
 29 27  2  0  0  0
  7 10  2  0  0  0
 10  6  1  0  0  0
 16 21  1  0  0  0
 33 30  1  0  0  0
 27 30  1  0  0  0
 27 25  1  0  0  0
 17 18  1  0  0  0
 17 19  1  0  0  0
 30 31  1  0  0  0
 30 32  1  0  0  0
 21 24  1  0  0  0
 21 19  1  0  0  0
 25 24  1  0  0  0
 19 20  1  0  0  0
  5 12  1  0  0  0
  6 13  1  0  0  0
  6 14  1  0  0  0
 18 22  1  0  0  0
 20 23  1  0  0  0
 25 26  1  0  0  0
M  CHG 1   8   1
M  END
> <minimizedAffinity>
-8.46778

$$$$
5EI3_5O8_A_301


 40 43  0  0  0  0  0  0  0  0999 V2000
    9.9932   -9.5194   -6.2970 C   0  0  0  0  0  0  0  0  0  0  0  0
    9.5562   -9.3736   -4.9879 C   0  0  0  0  0  0  0  0  0  0  0  0
    9.8471   -8.2211   -4.2747 C   0  0  0  0  0  0  0  0  0  0  0  0
    8.8954  -11.3014   -5.7370 C   0  0  0  0  0  0  0  0  0  0  0  0
   10.5861   -7.2205   -4.9035 N   0  0  0  0  0  0  0  0  0  0  0  0
   11.7102   -6.4707   -6.8362 N   0  0  0  0  0  0  0  0  0  0  0  0
   10.7032   -8.5466   -6.8847 N   0  0  0  0  0  0  0  0  0  0  0  0
    8.8916  -10.4789   -4.6972 N   0  0  0  0  0  0  0  0  0  0  0  0
    9.4629   -8.0847   -3.1151 O   0  0  0  0  0  0  0  0  0  0  0  0
   11.0047   -7.4177   -6.2252 C   0  0  0  0  0  0  0  0  0  0  0  0
    9.5700  -10.7099   -6.7214 N   0  0  0  0  0  0  0  0  0  0  0  0
   10.8101   -6.3890   -4.4264 H   0  0  0  0  0  0  0  0  0  0  0  0
   11.9354   -5.6396   -6.3591 H   0  0  0  0  0  0  0  0  0  0  0  0
   12.0073   -6.6007   -7.7658 H   0  0  0  0  0  0  0  0  0  0  0  0
    9.7898  -11.3219   -8.0561 C   0  0  0  0  0  0  0  0  0  0  0  0
    8.5381  -11.9850   -8.4376 O   0  0  0  0  0  0  0  0  0  0  0  0
   10.9003  -12.3261   -8.1502 C   0  0  0  0  0  0  0  0  0  0  0  0
   11.3857  -12.3775   -9.4941 O   0  0  0  0  0  0  0  0  0  0  0  0
   10.1531  -13.6197   -7.8275 C   0  0  0  0  0  0  0  0  0  0  0  0
   10.7271  -14.6601   -8.5887 O   0  0  0  0  0  0  0  0  0  0  0  0
    8.7173  -13.4168   -8.3424 C   0  0  0  0  0  0  0  0  0  0  0  0
   10.6483  -12.5591  -10.0976 H   0  0  0  0  0  0  0  0  0  0  0  0
   10.6854  -14.4324   -9.5307 H   0  0  0  0  0  0  0  0  0  0  0  0
    7.6242  -14.0613   -7.4223 C   0  0  0  0  0  0  0  0  0  0  0  0
    7.9126  -15.5121   -7.3325 N   0  0  0  0  0  0  0  0  0  0  0  0
    8.5783  -15.7499   -8.0678 H   0  0  0  0  0  0  0  0  0  0  0  0
    6.5901  -16.4902   -7.4989 S   0  0  0  0  0  0  0  0  0  0  0  0
    7.0108  -17.9292   -7.4537 O   0  0  0  0  0  0  0  0  0  0  0  0
    5.9008  -16.2001   -8.7991 O   0  0  0  0  0  0  0  0  0  0  0  0
    5.4711  -16.1278   -6.1093 C   0  0  0  0  0  0  0  0  0  0  0  0
    4.7422  -17.2053   -5.8353 F   0  0  0  0  0  0  0  0  0  0  0  0
    6.1870  -15.7943   -5.0407 F   0  0  0  0  0  0  0  0  0  0  0  0
    4.6675  -15.1209   -6.4373 F   0  0  0  0  0  0  0  0  0  0  0  0
    8.2549  -10.7683   -3.4093 C   0  0  0  0  0  0  0  0  0  0  0  0
    6.4125  -12.4996   -3.5072 C   0  0  0  0  0  0  0  0  0  0  0  0
    5.0951  -12.8664   -3.7583 C   0  0  0  0  0  0  0  0  0  0  0  0
    4.1752  -11.9142   -4.1842 C   0  0  0  0  0  0  0  0  0  0  0  0
    4.5714  -10.5933   -4.3593 C   0  0  0  0  0  0  0  0  0  0  0  0
    5.8892  -10.2278   -4.1086 C   0  0  0  0  0  0  0  0  0  0  0  0
    6.8101  -11.1798   -3.6824 C   0  0  0  0  0  0  0  0  0  0  0  0
 34 40  1  0  0  0
 34  8  1  0  0  0
 35 40  2  0  0  0
 35 36  1  0  0  0
 40 39  1  0  0  0
 36 37  2  0  0  0
 39 38  2  0  0  0
 37 38  1  0  0  0
  9  3  2  0  0  0
  8  4  2  0  0  0
  8  2  1  0  0  0
  4 11  1  0  0  0
  3  2  1  0  0  0
  3  5  1  0  0  0
  2  1  2  0  0  0
 11  1  1  0  0  0
 11 15  1  0  0  0
  1  7  1  0  0  0
  5 10  1  0  0  0
 28 27  2  0  0  0
 15 16  1  0  0  0
 15 17  1  0  0  0
 29 27  2  0  0  0
  7 10  2  0  0  0
 10  6  1  0  0  0
 16 21  1  0  0  0
 33 30  1  0  0  0
 27 30  1  0  0  0
 27 25  1  0  0  0
 17 18  1  0  0  0
 17 19  1  0  0  0
 30 31  1  0  0  0
 30 32  1  0  0  0
 21 24  1  0  0  0
 21 19  1  0  0  0
 25 24  1  0  0  0
 19 20  1  0  0  0
  5 12  1  0  0  0
  6 13  1  0  0  0
  6 14  1  0  0  0
 18 22  1  0  0  0
 20 23  1  0  0  0
 25 26  1  0  0  0
M  CHG 1   8   1
M  END
> <minimizedAffinity>
-8.40339

$$$$
5EI3_5O8_A_301


 40 43  0  0  0  0  0  0  0  0999 V2000
    9.2066  -11.6118   -4.5368 C   0  0  0  0  0  0  0  0  0  0  0  0
    7.9907  -11.9063   -3.9361 C   0  0  0  0  0  0  0  0  0  0  0  0
    7.2880  -10.9246   -3.2548 C   0  0  0  0  0  0  0  0  0  0  0  0
    8.7547  -13.7011   -4.8895 C   0  0  0  0  0  0  0  0  0  0  0  0
    7.8327   -9.6434   -3.1891 N   0  0  0  0  0  0  0  0  0  0  0  0
    9.5937   -8.1806   -3.7551 N   0  0  0  0  0  0  0  0  0  0  0  0
    9.7148  -10.3740   -4.4624 N   0  0  0  0  0  0  0  0  0  0  0  0
    7.7590  -13.1843   -4.1829 N   0  0  0  0  0  0  0  0  0  0  0  0
    6.2102  -11.1781   -2.7208 O   0  0  0  0  0  0  0  0  0  0  0  0
    9.0635   -9.3987   -3.8106 C   0  0  0  0  0  0  0  0  0  0  0  0
    9.6429  -12.7334   -5.1096 N   0  0  0  0  0  0  0  0  0  0  0  0
    7.3600   -8.9224   -2.7136 H   0  0  0  0  0  0  0  0  0  0  0  0
    9.1220   -7.4597   -3.2788 H   0  0  0  0  0  0  0  0  0  0  0  0
   10.4580   -7.9997   -4.1905 H   0  0  0  0  0  0  0  0  0  0  0  0
   10.9017  -12.9255   -5.8730 C   0  0  0  0  0  0  0  0  0  0  0  0
   10.8979  -11.9453   -6.9644 O   0  0  0  0  0  0  0  0  0  0  0  0
   11.1163  -14.2868   -6.4658 C   0  0  0  0  0  0  0  0  0  0  0  0
   12.5173  -14.5226   -6.6268 O   0  0  0  0  0  0  0  0  0  0  0  0
   10.4667  -14.1140   -7.8383 C   0  0  0  0  0  0  0  0  0  0  0  0
   11.1976  -14.8814   -8.7700 O   0  0  0  0  0  0  0  0  0  0  0  0
   10.6615  -12.6344   -8.2136 C   0  0  0  0  0  0  0  0  0  0  0  0
   12.9075  -13.8065   -7.1520 H   0  0  0  0  0  0  0  0  0  0  0  0
   12.1264  -14.6020   -8.7612 H   0  0  0  0  0  0  0  0  0  0  0  0
    9.4404  -12.0149   -8.9764 C   0  0  0  0  0  0  0  0  0  0  0  0
    9.1930  -12.8473  -10.1772 N   0  0  0  0  0  0  0  0  0  0  0  0
    9.5389  -12.3405  -10.9920 H   0  0  0  0  0  0  0  0  0  0  0  0
    7.6048  -13.2238  -10.4406 S   0  0  0  0  0  0  0  0  0  0  0  0
    7.1320  -14.1968   -9.4017 O   0  0  0  0  0  0  0  0  0  0  0  0
    7.4409  -13.8172  -11.8084 O   0  0  0  0  0  0  0  0  0  0  0  0
    6.6544  -11.6758  -10.3182 C   0  0  0  0  0  0  0  0  0  0  0  0
    5.6251  -11.7208  -11.1583 F   0  0  0  0  0  0  0  0  0  0  0  0
    6.2060  -11.5297   -9.0760 F   0  0  0  0  0  0  0  0  0  0  0  0
    7.4374  -10.6482  -10.6314 F   0  0  0  0  0  0  0  0  0  0  0  0
    6.5833  -13.9330   -3.7301 C   0  0  0  0  0  0  0  0  0  0  0  0
    5.6812  -15.7634   -5.2257 C   0  0  0  0  0  0  0  0  0  0  0  0
    4.9879  -16.1858   -6.3545 C   0  0  0  0  0  0  0  0  0  0  0  0
    4.4367  -15.2514   -7.2247 C   0  0  0  0  0  0  0  0  0  0  0  0
    4.5776  -13.8926   -6.9669 C   0  0  0  0  0  0  0  0  0  0  0  0
    5.2717  -13.4713   -5.8382 C   0  0  0  0  0  0  0  0  0  0  0  0
    5.8233  -14.4057   -4.9672 C   0  0  0  0  0  0  0  0  0  0  0  0
 34 40  1  0  0  0
 34  8  1  0  0  0
 35 40  2  0  0  0
 35 36  1  0  0  0
 40 39  1  0  0  0
 36 37  2  0  0  0
 39 38  2  0  0  0
 37 38  1  0  0  0
  9  3  2  0  0  0
  8  4  2  0  0  0
  8  2  1  0  0  0
  4 11  1  0  0  0
  3  2  1  0  0  0
  3  5  1  0  0  0
  2  1  2  0  0  0
 11  1  1  0  0  0
 11 15  1  0  0  0
  1  7  1  0  0  0
  5 10  1  0  0  0
 28 27  2  0  0  0
 15 16  1  0  0  0
 15 17  1  0  0  0
 29 27  2  0  0  0
  7 10  2  0  0  0
 10  6  1  0  0  0
 16 21  1  0  0  0
 33 30  1  0  0  0
 27 30  1  0  0  0
 27 25  1  0  0  0
 17 18  1  0  0  0
 17 19  1  0  0  0
 30 31  1  0  0  0
 30 32  1  0  0  0
 21 24  1  0  0  0
 21 19  1  0  0  0
 25 24  1  0  0  0
 19 20  1  0  0  0
  5 12  1  0  0  0
  6 13  1  0  0  0
  6 14  1  0  0  0
 18 22  1  0  0  0
 20 23  1  0  0  0
 25 26  1  0  0  0
M  CHG 1   8   1
M  END
> <minimizedAffinity>
-8.31259

$$$$
5EI3_5O8_A_301


 40 43  0  0  0  0  0  0  0  0999 V2000
    5.7102  -13.5720   -6.2289 C   0  0  0  0  0  0  0  0  0  0  0  0
    5.9359  -13.1420   -4.9289 C   0  0  0  0  0  0  0  0  0  0  0  0
    5.7998  -14.0204   -3.8651 C   0  0  0  0  0  0  0  0  0  0  0  0
    6.2537  -11.4754   -6.2837 C   0  0  0  0  0  0  0  0  0  0  0  0
    5.4315  -15.3372   -4.1350 N   0  0  0  0  0  0  0  0  0  0  0  0
    4.8621  -16.9735   -5.7349 N   0  0  0  0  0  0  0  0  0  0  0  0
    5.3562  -14.8420   -6.4688 N   0  0  0  0  0  0  0  0  0  0  0  0
    6.2672  -11.8652   -5.0165 N   0  0  0  0  0  0  0  0  0  0  0  0
    5.9986  -13.6467   -2.7111 O   0  0  0  0  0  0  0  0  0  0  0  0
    5.2137  -15.7201   -5.4643 C   0  0  0  0  0  0  0  0  0  0  0  0
    5.9143  -12.5257   -7.0290 N   0  0  0  0  0  0  0  0  0  0  0  0
    5.3262  -15.9874   -3.4032 H   0  0  0  0  0  0  0  0  0  0  0  0
    4.7555  -17.6237   -5.0034 H   0  0  0  0  0  0  0  0  0  0  0  0
    4.7083  -17.2513   -6.6668 H   0  0  0  0  0  0  0  0  0  0  0  0
    5.7936  -12.4845   -8.5082 C   0  0  0  0  0  0  0  0  0  0  0  0
    6.7522  -13.4558   -9.0462 O   0  0  0  0  0  0  0  0  0  0  0  0
    6.0551  -11.1579   -9.1579 C   0  0  0  0  0  0  0  0  0  0  0  0
    5.3593  -11.0910  -10.4053 O   0  0  0  0  0  0  0  0  0  0  0  0
    7.5586  -11.2499   -9.4163 C   0  0  0  0  0  0  0  0  0  0  0  0
    7.8392  -10.5742  -10.6229 O   0  0  0  0  0  0  0  0  0  0  0  0
    7.8556  -12.7418   -9.6495 C   0  0  0  0  0  0  0  0  0  0  0  0
    5.6113  -11.8479  -10.9571 H   0  0  0  0  0  0  0  0  0  0  0  0
    7.3147  -10.9627  -11.3405 H   0  0  0  0  0  0  0  0  0  0  0  0
    9.2254  -13.2098   -9.0484 C   0  0  0  0  0  0  0  0  0  0  0  0
   10.2348  -12.1750   -9.3745 N   0  0  0  0  0  0  0  0  0  0  0  0
   10.7465  -12.4799  -10.2025 H   0  0  0  0  0  0  0  0  0  0  0  0
   11.3304  -11.8768   -8.1727 S   0  0  0  0  0  0  0  0  0  0  0  0
   12.5603  -11.2412   -8.7497 O   0  0  0  0  0  0  0  0  0  0  0  0
   11.6933  -13.1584   -7.4831 O   0  0  0  0  0  0  0  0  0  0  0  0
   10.5409  -10.7388   -6.9911 C   0  0  0  0  0  0  0  0  0  0  0  0
    9.6599  -11.4076   -6.2536 F   0  0  0  0  0  0  0  0  0  0  0  0
   11.4683  -10.2090   -6.2007 F   0  0  0  0  0  0  0  0  0  0  0  0
    9.9180   -9.7706   -7.6557 F   0  0  0  0  0  0  0  0  0  0  0  0
    6.5875  -10.9952   -3.8814 C   0  0  0  0  0  0  0  0  0  0  0  0
    5.3265   -9.3105   -2.4767 C   0  0  0  0  0  0  0  0  0  0  0  0
    4.1432   -8.7096   -2.0622 C   0  0  0  0  0  0  0  0  0  0  0  0
    2.9265   -9.1268   -2.5913 C   0  0  0  0  0  0  0  0  0  0  0  0
    2.8915  -10.1457   -3.5363 C   0  0  0  0  0  0  0  0  0  0  0  0
    4.0753  -10.7465   -3.9495 C   0  0  0  0  0  0  0  0  0  0  0  0
    5.2929  -10.3295   -3.4208 C   0  0  0  0  0  0  0  0  0  0  0  0
 34 40  1  0  0  0
 34  8  1  0  0  0
 35 40  2  0  0  0
 35 36  1  0  0  0
 40 39  1  0  0  0
 36 37  2  0  0  0
 39 38  2  0  0  0
 37 38  1  0  0  0
  9  3  2  0  0  0
  8  4  2  0  0  0
  8  2  1  0  0  0
  4 11  1  0  0  0
  3  2  1  0  0  0
  3  5  1  0  0  0
  2  1  2  0  0  0
 11  1  1  0  0  0
 11 15  1  0  0  0
  1  7  1  0  0  0
  5 10  1  0  0  0
 28 27  2  0  0  0
 15 16  1  0  0  0
 15 17  1  0  0  0
 29 27  2  0  0  0
  7 10  2  0  0  0
 10  6  1  0  0  0
 16 21  1  0  0  0
 33 30  1  0  0  0
 27 30  1  0  0  0
 27 25  1  0  0  0
 17 18  1  0  0  0
 17 19  1  0  0  0
 30 31  1  0  0  0
 30 32  1  0  0  0
 21 24  1  0  0  0
 21 19  1  0  0  0
 25 24  1  0  0  0
 19 20  1  0  0  0
  5 12  1  0  0  0
  6 13  1  0  0  0
  6 14  1  0  0  0
 18 22  1  0  0  0
 20 23  1  0  0  0
 25 26  1  0  0  0
M  CHG 1   8   1
M  END
> <minimizedAffinity>
-8.30333

$$$$
5EI3_5O8_A_301


 40 43  0  0  0  0  0  0  0  0999 V2000
    9.5927  -12.7108   -4.0946 C   0  0  0  0  0  0  0  0  0  0  0  0
    8.3237  -12.8245   -3.5446 C   0  0  0  0  0  0  0  0  0  0  0  0
    7.8951  -11.9295   -2.5767 C   0  0  0  0  0  0  0  0  0  0  0  0
    8.5971  -14.4038   -5.0093 C   0  0  0  0  0  0  0  0  0  0  0  0
    8.7678  -10.9205   -2.1730 N   0  0  0  0  0  0  0  0  0  0  0  0
   10.8799   -9.8926   -2.3817 N   0  0  0  0  0  0  0  0  0  0  0  0
   10.4181  -11.7342   -3.6935 N   0  0  0  0  0  0  0  0  0  0  0  0
    7.7587  -13.8632   -4.1359 N   0  0  0  0  0  0  0  0  0  0  0  0
    6.7723  -12.0238   -2.0855 O   0  0  0  0  0  0  0  0  0  0  0  0
   10.0382  -10.8506   -2.7580 C   0  0  0  0  0  0  0  0  0  0  0  0
    9.7234  -13.6932   -4.9859 N   0  0  0  0  0  0  0  0  0  0  0  0
    8.4956  -10.2678   -1.4881 H   0  0  0  0  0  0  0  0  0  0  0  0
   10.6086   -9.2404   -1.6959 H   0  0  0  0  0  0  0  0  0  0  0  0
   11.7745   -9.8354   -2.7888 H   0  0  0  0  0  0  0  0  0  0  0  0
   10.9055  -13.9908   -5.8334 C   0  0  0  0  0  0  0  0  0  0  0  0
   11.4321  -12.7055   -6.3053 O   0  0  0  0  0  0  0  0  0  0  0  0
   10.6618  -14.8650   -7.0278 C   0  0  0  0  0  0  0  0  0  0  0  0
   11.8722  -15.5385   -7.3823 O   0  0  0  0  0  0  0  0  0  0  0  0
   10.3284  -13.8201   -8.0921 C   0  0  0  0  0  0  0  0  0  0  0  0
   10.8316  -14.2767   -9.3288 O   0  0  0  0  0  0  0  0  0  0  0  0
   11.1274  -12.5612   -7.7116 C   0  0  0  0  0  0  0  0  0  0  0  0
   12.5773  -14.8863   -7.5182 H   0  0  0  0  0  0  0  0  0  0  0  0
   11.7853  -14.4360   -9.2509 H   0  0  0  0  0  0  0  0  0  0  0  0
   10.3585  -11.2235   -7.9869 C   0  0  0  0  0  0  0  0  0  0  0  0
    9.5457  -11.4175   -9.2108 N   0  0  0  0  0  0  0  0  0  0  0  0
   10.0976  -11.1088  -10.0111 H   0  0  0  0  0  0  0  0  0  0  0  0
    8.1123  -10.5938   -9.2251 S   0  0  0  0  0  0  0  0  0  0  0  0
    7.5922  -10.4991  -10.6288 O   0  0  0  0  0  0  0  0  0  0  0  0
    8.3080   -9.2186   -8.6590 O   0  0  0  0  0  0  0  0  0  0  0  0
    6.9407  -11.5289   -8.1918 C   0  0  0  0  0  0  0  0  0  0  0  0
    5.7280  -11.4694   -8.7331 F   0  0  0  0  0  0  0  0  0  0  0  0
    7.3310  -12.7969   -8.1182 F   0  0  0  0  0  0  0  0  0  0  0  0
    6.9075  -11.0030   -6.9714 F   0  0  0  0  0  0  0  0  0  0  0  0
    6.4086  -14.3620   -3.8597 C   0  0  0  0  0  0  0  0  0  0  0  0
    5.2035  -14.5599   -6.0755 C   0  0  0  0  0  0  0  0  0  0  0  0
    4.3535  -14.0520   -7.0516 C   0  0  0  0  0  0  0  0  0  0  0  0
    3.7759  -12.7974   -6.8894 C   0  0  0  0  0  0  0  0  0  0  0  0
    4.0473  -12.0485   -5.7500 C   0  0  0  0  0  0  0  0  0  0  0  0
    4.8980  -12.5569   -4.7749 C   0  0  0  0  0  0  0  0  0  0  0  0
    5.4761  -13.8122   -4.9365 C   0  0  0  0  0  0  0  0  0  0  0  0
 34 40  1  0  0  0
 34  8  1  0  0  0
 35 40  2  0  0  0
 35 36  1  0  0  0
 40 39  1  0  0  0
 36 37  2  0  0  0
 39 38  2  0  0  0
 37 38  1  0  0  0
  9  3  2  0  0  0
  8  4  2  0  0  0
  8  2  1  0  0  0
  4 11  1  0  0  0
  3  2  1  0  0  0
  3  5  1  0  0  0
  2  1  2  0  0  0
 11  1  1  0  0  0
 11 15  1  0  0  0
  1  7  1  0  0  0
  5 10  1  0  0  0
 28 27  2  0  0  0
 15 16  1  0  0  0
 15 17  1  0  0  0
 29 27  2  0  0  0
  7 10  2  0  0  0
 10  6  1  0  0  0
 16 21  1  0  0  0
 33 30  1  0  0  0
 27 30  1  0  0  0
 27 25  1  0  0  0
 17 18  1  0  0  0
 17 19  1  0  0  0
 30 31  1  0  0  0
 30 32  1  0  0  0
 21 24  1  0  0  0
 21 19  1  0  0  0
 25 24  1  0  0  0
 19 20  1  0  0  0
  5 12  1  0  0  0
  6 13  1  0  0  0
  6 14  1  0  0  0
 18 22  1  0  0  0
 20 23  1  0  0  0
 25 26  1  0  0  0
M  CHG 1   8   1
M  END
> <minimizedAffinity>
-8.24365

$$$$
5EI3_5O8_A_301


 40 43  0  0  0  0  0  0  0  0999 V2000
    7.3975  -10.2254   -4.6978 C   0  0  0  0  0  0  0  0  0  0  0  0
    6.0804  -10.6606   -4.7387 C   0  0  0  0  0  0  0  0  0  0  0  0
    5.1988  -10.3275   -3.7221 C   0  0  0  0  0  0  0  0  0  0  0  0
    7.1152  -11.3910   -6.5022 C   0  0  0  0  0  0  0  0  0  0  0  0
    5.6685   -9.5502   -2.6648 N   0  0  0  0  0  0  0  0  0  0  0  0
    7.4670   -8.3961   -1.6675 N   0  0  0  0  0  0  0  0  0  0  0  0
    7.8311   -9.4792   -3.6726 N   0  0  0  0  0  0  0  0  0  0  0  0
    5.9588  -11.3591   -5.8546 N   0  0  0  0  0  0  0  0  0  0  0  0
    4.0307  -10.7090   -3.7519 O   0  0  0  0  0  0  0  0  0  0  0  0
    7.0069   -9.1381   -2.6703 C   0  0  0  0  0  0  0  0  0  0  0  0
    7.9987  -10.6913   -5.7923 N   0  0  0  0  0  0  0  0  0  0  0  0
    5.0693   -9.2950   -1.9265 H   0  0  0  0  0  0  0  0  0  0  0  0
    6.8685   -8.1418   -0.9284 H   0  0  0  0  0  0  0  0  0  0  0  0
    8.4063   -8.1011   -1.6642 H   0  0  0  0  0  0  0  0  0  0  0  0
    9.4135  -10.4948   -6.1971 C   0  0  0  0  0  0  0  0  0  0  0  0
    9.5315  -10.9496   -7.5868 O   0  0  0  0  0  0  0  0  0  0  0  0
   10.4435  -11.2157   -5.3785 C   0  0  0  0  0  0  0  0  0  0  0  0
   11.6897  -10.5191   -5.4569 O   0  0  0  0  0  0  0  0  0  0  0  0
   10.5487  -12.5374   -6.1386 C   0  0  0  0  0  0  0  0  0  0  0  0
   11.8871  -12.9789   -6.0689 O   0  0  0  0  0  0  0  0  0  0  0  0
   10.2555  -12.2011   -7.6114 C   0  0  0  0  0  0  0  0  0  0  0  0
   11.9418  -10.4113   -6.3874 H   0  0  0  0  0  0  0  0  0  0  0  0
   12.4724  -12.2951   -6.4306 H   0  0  0  0  0  0  0  0  0  0  0  0
    9.4374  -13.3108   -8.3570 C   0  0  0  0  0  0  0  0  0  0  0  0
    9.1972  -12.8371   -9.7405 N   0  0  0  0  0  0  0  0  0  0  0  0
    9.2859  -11.8210   -9.7485 H   0  0  0  0  0  0  0  0  0  0  0  0
    7.7141  -13.2296  -10.3567 S   0  0  0  0  0  0  0  0  0  0  0  0
    7.1330  -14.3823   -9.5928 O   0  0  0  0  0  0  0  0  0  0  0  0
    7.8430  -13.5908  -11.8067 O   0  0  0  0  0  0  0  0  0  0  0  0
    6.6479  -11.7652  -10.1747 C   0  0  0  0  0  0  0  0  0  0  0  0
    6.0389  -11.5147  -11.3296 F   0  0  0  0  0  0  0  0  0  0  0  0
    5.7372  -11.9955   -9.2350 F   0  0  0  0  0  0  0  0  0  0  0  0
    7.3885  -10.7171   -9.8279 F   0  0  0  0  0  0  0  0  0  0  0  0
    4.7320  -12.0200   -6.3086 C   0  0  0  0  0  0  0  0  0  0  0  0
    4.5906  -14.4325   -7.0578 C   0  0  0  0  0  0  0  0  0  0  0  0
    4.7316  -15.7947   -6.8179 C   0  0  0  0  0  0  0  0  0  0  0  0
    5.1661  -16.2427   -5.5750 C   0  0  0  0  0  0  0  0  0  0  0  0
    5.4609  -15.3286   -4.5700 C   0  0  0  0  0  0  0  0  0  0  0  0
    5.3188  -13.9666   -4.8107 C   0  0  0  0  0  0  0  0  0  0  0  0
    4.8843  -13.5178   -6.0539 C   0  0  0  0  0  0  0  0  0  0  0  0
 34 40  1  0  0  0
 34  8  1  0  0  0
 35 40  2  0  0  0
 35 36  1  0  0  0
 40 39  1  0  0  0
 36 37  2  0  0  0
 39 38  2  0  0  0
 37 38  1  0  0  0
  9  3  2  0  0  0
  8  4  2  0  0  0
  8  2  1  0  0  0
  4 11  1  0  0  0
  3  2  1  0  0  0
  3  5  1  0  0  0
  2  1  2  0  0  0
 11  1  1  0  0  0
 11 15  1  0  0  0
  1  7  1  0  0  0
  5 10  1  0  0  0
 28 27  2  0  0  0
 15 16  1  0  0  0
 15 17  1  0  0  0
 29 27  2  0  0  0
  7 10  2  0  0  0
 10  6  1  0  0  0
 16 21  1  0  0  0
 33 30  1  0  0  0
 27 30  1  0  0  0
 27 25  1  0  0  0
 17 18  1  0  0  0
 17 19  1  0  0  0
 30 31  1  0  0  0
 30 32  1  0  0  0
 21 24  1  0  0  0
 21 19  1  0  0  0
 25 24  1  0  0  0
 19 20  1  0  0  0
  5 12  1  0  0  0
  6 13  1  0  0  0
  6 14  1  0  0  0
 18 22  1  0  0  0
 20 23  1  0  0  0
 25 26  1  0  0  0
M  CHG 1   8   1
M  END
> <minimizedAffinity>
-8.20002

$$$$
5EI3_5O8_A_301


 40 43  0  0  0  0  0  0  0  0999 V2000
    6.6599  -10.6983   -5.2925 C   0  0  0  0  0  0  0  0  0  0  0  0
    7.0553  -11.4240   -6.4074 C   0  0  0  0  0  0  0  0  0  0  0  0
    8.3819  -11.4261   -6.8096 C   0  0  0  0  0  0  0  0  0  0  0  0
    4.9190  -11.6862   -6.1217 C   0  0  0  0  0  0  0  0  0  0  0  0
    9.3007  -10.6839   -6.0697 N   0  0  0  0  0  0  0  0  0  0  0  0
    9.7167   -9.2558   -4.2397 N   0  0  0  0  0  0  0  0  0  0  0  0
    7.5577   -9.9901   -4.5938 N   0  0  0  0  0  0  0  0  0  0  0  0
    5.9641  -12.0085   -6.8713 N   0  0  0  0  0  0  0  0  0  0  0  0
    8.7395  -12.0669   -7.7957 O   0  0  0  0  0  0  0  0  0  0  0  0
    8.8500   -9.9676   -4.9539 C   0  0  0  0  0  0  0  0  0  0  0  0
    5.3477  -10.8833   -5.1494 N   0  0  0  0  0  0  0  0  0  0  0  0
   10.2508  -10.6635   -6.3271 H   0  0  0  0  0  0  0  0  0  0  0  0
   10.6666   -9.2341   -4.4975 H   0  0  0  0  0  0  0  0  0  0  0  0
    9.4085   -8.7503   -3.4531 H   0  0  0  0  0  0  0  0  0  0  0  0
    4.4652  -10.3107   -4.1017 C   0  0  0  0  0  0  0  0  0  0  0  0
    5.2762  -10.1634   -2.8882 O   0  0  0  0  0  0  0  0  0  0  0  0
    3.2432  -11.1088   -3.7554 C   0  0  0  0  0  0  0  0  0  0  0  0
    2.2344  -10.2381   -3.2371 O   0  0  0  0  0  0  0  0  0  0  0  0
    3.7806  -11.9938   -2.6311 C   0  0  0  0  0  0  0  0  0  0  0  0
    2.7425  -12.1962   -1.6970 O   0  0  0  0  0  0  0  0  0  0  0  0
    4.8713  -11.1664   -1.9284 C   0  0  0  0  0  0  0  0  0  0  0  0
    2.5936   -9.7368   -2.4883 H   0  0  0  0  0  0  0  0  0  0  0  0
    2.4257  -11.3380   -1.3747 H   0  0  0  0  0  0  0  0  0  0  0  0
    6.0976  -12.0196   -1.4541 C   0  0  0  0  0  0  0  0  0  0  0  0
    5.6549  -13.4312   -1.3678 N   0  0  0  0  0  0  0  0  0  0  0  0
    5.3970  -13.6249   -0.4001 H   0  0  0  0  0  0  0  0  0  0  0  0
    6.7907  -14.5401   -1.8300 S   0  0  0  0  0  0  0  0  0  0  0  0
    6.7727  -15.7103   -0.8918 O   0  0  0  0  0  0  0  0  0  0  0  0
    8.1507  -13.9076   -1.8317 O   0  0  0  0  0  0  0  0  0  0  0  0
    6.3592  -15.0876   -3.5118 C   0  0  0  0  0  0  0  0  0  0  0  0
    5.5362  -14.2037   -4.0676 F   0  0  0  0  0  0  0  0  0  0  0  0
    7.4648  -15.1836   -4.2427 F   0  0  0  0  0  0  0  0  0  0  0  0
    5.7615  -16.2735   -3.4531 F   0  0  0  0  0  0  0  0  0  0  0  0
    5.9060  -12.8747   -8.0521 C   0  0  0  0  0  0  0  0  0  0  0  0
    4.6393  -14.8373   -7.0798 C   0  0  0  0  0  0  0  0  0  0  0  0
    4.5812  -16.1556   -6.6419 C   0  0  0  0  0  0  0  0  0  0  0  0
    5.7158  -16.9583   -6.6932 C   0  0  0  0  0  0  0  0  0  0  0  0
    6.9106  -16.4436   -7.1833 C   0  0  0  0  0  0  0  0  0  0  0  0
    6.9678  -15.1250   -7.6202 C   0  0  0  0  0  0  0  0  0  0  0  0
    5.8331  -14.3215   -7.5693 C   0  0  0  0  0  0  0  0  0  0  0  0
 34 40  1  0  0  0
 34  8  1  0  0  0
 35 40  2  0  0  0
 35 36  1  0  0  0
 40 39  1  0  0  0
 36 37  2  0  0  0
 39 38  2  0  0  0
 37 38  1  0  0  0
  9  3  2  0  0  0
  8  4  2  0  0  0
  8  2  1  0  0  0
  4 11  1  0  0  0
  3  2  1  0  0  0
  3  5  1  0  0  0
  2  1  2  0  0  0
 11  1  1  0  0  0
 11 15  1  0  0  0
  1  7  1  0  0  0
  5 10  1  0  0  0
 28 27  2  0  0  0
 15 16  1  0  0  0
 15 17  1  0  0  0
 29 27  2  0  0  0
  7 10  2  0  0  0
 10  6  1  0  0  0
 16 21  1  0  0  0
 33 30  1  0  0  0
 27 30  1  0  0  0
 27 25  1  0  0  0
 17 18  1  0  0  0
 17 19  1  0  0  0
 30 31  1  0  0  0
 30 32  1  0  0  0
 21 24  1  0  0  0
 21 19  1  0  0  0
 25 24  1  0  0  0
 19 20  1  0  0  0
  5 12  1  0  0  0
  6 13  1  0  0  0
  6 14  1  0  0  0
 18 22  1  0  0  0
 20 23  1  0  0  0
 25 26  1  0  0  0
M  CHG 1   8   1
M  END
> <minimizedAffinity>
-8.17009

$$$$
5EI3_5O8_A_301


 40 43  0  0  0  0  0  0  0  0999 V2000
    5.2175  -10.6597   -4.4947 C   0  0  0  0  0  0  0  0  0  0  0  0
    4.5489  -11.3098   -5.5223 C   0  0  0  0  0  0  0  0  0  0  0  0
    3.1727  -11.4694   -5.4743 C   0  0  0  0  0  0  0  0  0  0  0  0
    6.6708  -11.2714   -5.9806 C   0  0  0  0  0  0  0  0  0  0  0  0
    2.4842  -10.9637   -4.3730 N   0  0  0  0  0  0  0  0  0  0  0  0
    2.5611   -9.8306   -2.3062 N   0  0  0  0  0  0  0  0  0  0  0  0
    4.5385  -10.1806   -3.4434 N   0  0  0  0  0  0  0  0  0  0  0  0
    5.4739  -11.6569   -6.4007 N   0  0  0  0  0  0  0  0  0  0  0  0
    2.5737  -12.0437   -6.3811 O   0  0  0  0  0  0  0  0  0  0  0  0
    3.2062  -10.3175   -3.3620 C   0  0  0  0  0  0  0  0  0  0  0  0
    6.5125  -10.6555   -4.8103 N   0  0  0  0  0  0  0  0  0  0  0  0
    1.5066  -11.0593   -4.3069 H   0  0  0  0  0  0  0  0  0  0  0  0
    1.5836   -9.9270   -2.2392 H   0  0  0  0  0  0  0  0  0  0  0  0
    3.0608   -9.3737   -1.5916 H   0  0  0  0  0  0  0  0  0  0  0  0
    7.6308  -10.0781   -4.0228 C   0  0  0  0  0  0  0  0  0  0  0  0
    8.5914  -11.1601   -3.7809 O   0  0  0  0  0  0  0  0  0  0  0  0
    7.2661   -9.4702   -2.7007 C   0  0  0  0  0  0  0  0  0  0  0  0
    8.2326   -8.4772   -2.3482 O   0  0  0  0  0  0  0  0  0  0  0  0
    7.4122  -10.6765   -1.7737 C   0  0  0  0  0  0  0  0  0  0  0  0
    7.8880  -10.2175   -0.5271 O   0  0  0  0  0  0  0  0  0  0  0  0
    8.5188  -11.5503   -2.3903 C   0  0  0  0  0  0  0  0  0  0  0  0
    9.1194   -8.8700   -2.3615 H   0  0  0  0  0  0  0  0  0  0  0  0
    8.7248   -9.7440   -0.6548 H   0  0  0  0  0  0  0  0  0  0  0  0
    8.2542  -13.0887   -2.2500 C   0  0  0  0  0  0  0  0  0  0  0  0
    6.9587  -13.2588   -1.5507 N   0  0  0  0  0  0  0  0  0  0  0  0
    7.0918  -13.0107   -0.5704 H   0  0  0  0  0  0  0  0  0  0  0  0
    6.3354  -14.7887   -1.6150 S   0  0  0  0  0  0  0  0  0  0  0  0
    5.1991  -14.9179   -0.6444 O   0  0  0  0  0  0  0  0  0  0  0  0
    7.4035  -15.7894   -1.2869 O   0  0  0  0  0  0  0  0  0  0  0  0
    5.7343  -15.0571   -3.3123 C   0  0  0  0  0  0  0  0  0  0  0  0
    4.8954  -16.0883   -3.3269 F   0  0  0  0  0  0  0  0  0  0  0  0
    5.1031  -13.9670   -3.7352 F   0  0  0  0  0  0  0  0  0  0  0  0
    6.7643  -15.3126   -4.1129 F   0  0  0  0  0  0  0  0  0  0  0  0
    5.2234  -12.3785   -7.6515 C   0  0  0  0  0  0  0  0  0  0  0  0
    6.7992  -14.3579   -7.6474 C   0  0  0  0  0  0  0  0  0  0  0  0
    7.0665  -15.7041   -7.4249 C   0  0  0  0  0  0  0  0  0  0  0  0
    6.0614  -16.5479   -6.9646 C   0  0  0  0  0  0  0  0  0  0  0  0
    4.7870  -16.0464   -6.7256 C   0  0  0  0  0  0  0  0  0  0  0  0
    4.5207  -14.7002   -6.9492 C   0  0  0  0  0  0  0  0  0  0  0  0
    5.5258  -13.8555   -7.4095 C   0  0  0  0  0  0  0  0  0  0  0  0
 34 40  1  0  0  0
 34  8  1  0  0  0
 35 40  2  0  0  0
 35 36  1  0  0  0
 40 39  1  0  0  0
 36 37  2  0  0  0
 39 38  2  0  0  0
 37 38  1  0  0  0
  9  3  2  0  0  0
  8  4  2  0  0  0
  8  2  1  0  0  0
  4 11  1  0  0  0
  3  2  1  0  0  0
  3  5  1  0  0  0
  2  1  2  0  0  0
 11  1  1  0  0  0
 11 15  1  0  0  0
  1  7  1  0  0  0
  5 10  1  0  0  0
 28 27  2  0  0  0
 15 16  1  0  0  0
 15 17  1  0  0  0
 29 27  2  0  0  0
  7 10  2  0  0  0
 10  6  1  0  0  0
 16 21  1  0  0  0
 33 30  1  0  0  0
 27 30  1  0  0  0
 27 25  1  0  0  0
 17 18  1  0  0  0
 17 19  1  0  0  0
 30 31  1  0  0  0
 30 32  1  0  0  0
 21 24  1  0  0  0
 21 19  1  0  0  0
 25 24  1  0  0  0
 19 20  1  0  0  0
  5 12  1  0  0  0
  6 13  1  0  0  0
  6 14  1  0  0  0
 18 22  1  0  0  0
 20 23  1  0  0  0
 25 26  1  0  0  0
M  CHG 1   8   1
M  END
> <minimizedAffinity>
-8.13757

$$$$
5EI3_5O8_A_301


 40 43  0  0  0  0  0  0  0  0999 V2000
    8.1996  -10.3002   -6.3544 C   0  0  0  0  0  0  0  0  0  0  0  0
    8.0290  -10.4578   -4.9862 C   0  0  0  0  0  0  0  0  0  0  0  0
    8.9095   -9.8635   -4.0956 C   0  0  0  0  0  0  0  0  0  0  0  0
    6.4520  -11.5359   -6.0181 C   0  0  0  0  0  0  0  0  0  0  0  0
    9.9639   -9.1098   -4.6084 N   0  0  0  0  0  0  0  0  0  0  0  0
   11.0941   -8.2668   -6.4987 N   0  0  0  0  0  0  0  0  0  0  0  0
    9.2198   -9.5722   -6.8287 N   0  0  0  0  0  0  0  0  0  0  0  0
    6.9532  -11.2111   -4.8345 N   0  0  0  0  0  0  0  0  0  0  0  0
    8.7644   -9.9983   -2.8825 O   0  0  0  0  0  0  0  0  0  0  0  0
   10.0926   -8.9832   -5.9971 C   0  0  0  0  0  0  0  0  0  0  0  0
    7.2167  -10.9732   -6.9523 N   0  0  0  0  0  0  0  0  0  0  0  0
   10.6075   -8.6738   -4.0043 H   0  0  0  0  0  0  0  0  0  0  0  0
   11.7386   -7.8316   -5.8950 H   0  0  0  0  0  0  0  0  0  0  0  0
   11.1911   -8.1716   -7.4737 H   0  0  0  0  0  0  0  0  0  0  0  0
    6.9726  -11.1073   -8.4106 C   0  0  0  0  0  0  0  0  0  0  0  0
    6.1911  -12.3333   -8.6059 O   0  0  0  0  0  0  0  0  0  0  0  0
    8.1909  -11.1835   -9.2824 C   0  0  0  0  0  0  0  0  0  0  0  0
    7.8688  -10.7194  -10.5959 O   0  0  0  0  0  0  0  0  0  0  0  0
    8.4307  -12.6925   -9.3188 C   0  0  0  0  0  0  0  0  0  0  0  0
    8.9376  -13.0262  -10.5927 O   0  0  0  0  0  0  0  0  0  0  0  0
    7.0415  -13.3431   -9.1961 C   0  0  0  0  0  0  0  0  0  0  0  0
    7.1147  -11.2226  -10.9407 H   0  0  0  0  0  0  0  0  0  0  0  0
    8.3144  -12.7328  -11.2757 H   0  0  0  0  0  0  0  0  0  0  0  0
    7.0370  -14.6549   -8.3384 C   0  0  0  0  0  0  0  0  0  0  0  0
    5.7383  -14.7213   -7.6278 N   0  0  0  0  0  0  0  0  0  0  0  0
    5.6110  -13.8482   -7.1162 H   0  0  0  0  0  0  0  0  0  0  0  0
    5.6019  -15.9718   -6.5548 S   0  0  0  0  0  0  0  0  0  0  0  0
    6.6348  -17.0170   -6.8554 O   0  0  0  0  0  0  0  0  0  0  0  0
    4.2294  -16.5705   -6.6404 O   0  0  0  0  0  0  0  0  0  0  0  0
    5.8779  -15.2886   -4.8900 C   0  0  0  0  0  0  0  0  0  0  0  0
    7.1306  -14.8547   -4.7916 F   0  0  0  0  0  0  0  0  0  0  0  0
    5.0415  -14.2769   -4.6833 F   0  0  0  0  0  0  0  0  0  0  0  0
    5.6639  -16.2345   -3.9808 F   0  0  0  0  0  0  0  0  0  0  0  0
    6.3984  -11.6432   -3.5487 C   0  0  0  0  0  0  0  0  0  0  0  0
    5.3460   -9.6363   -2.4235 C   0  0  0  0  0  0  0  0  0  0  0  0
    4.2469   -8.8327   -2.1414 C   0  0  0  0  0  0  0  0  0  0  0  0
    2.9993   -9.1469   -2.6695 C   0  0  0  0  0  0  0  0  0  0  0  0
    2.8489  -10.2655   -3.4811 C   0  0  0  0  0  0  0  0  0  0  0  0
    3.9484  -11.0689   -3.7618 C   0  0  0  0  0  0  0  0  0  0  0  0
    5.1969  -10.7550   -3.2340 C   0  0  0  0  0  0  0  0  0  0  0  0
 34 40  1  0  0  0
 34  8  1  0  0  0
 35 40  2  0  0  0
 35 36  1  0  0  0
 40 39  1  0  0  0
 36 37  2  0  0  0
 39 38  2  0  0  0
 37 38  1  0  0  0
  9  3  2  0  0  0
  8  4  2  0  0  0
  8  2  1  0  0  0
  4 11  1  0  0  0
  3  2  1  0  0  0
  3  5  1  0  0  0
  2  1  2  0  0  0
 11  1  1  0  0  0
 11 15  1  0  0  0
  1  7  1  0  0  0
  5 10  1  0  0  0
 28 27  2  0  0  0
 15 16  1  0  0  0
 15 17  1  0  0  0
 29 27  2  0  0  0
  7 10  2  0  0  0
 10  6  1  0  0  0
 16 21  1  0  0  0
 33 30  1  0  0  0
 27 30  1  0  0  0
 27 25  1  0  0  0
 17 18  1  0  0  0
 17 19  1  0  0  0
 30 31  1  0  0  0
 30 32  1  0  0  0
 21 24  1  0  0  0
 21 19  1  0  0  0
 25 24  1  0  0  0
 19 20  1  0  0  0
  5 12  1  0  0  0
  6 13  1  0  0  0
  6 14  1  0  0  0
 18 22  1  0  0  0
 20 23  1  0  0  0
 25 26  1  0  0  0
M  CHG 1   8   1
M  END
> <minimizedAffinity>
-8.13429

$$$$
5EI3_5O8_A_301


 40 43  0  0  0  0  0  0  0  0999 V2000
    6.1730  -14.1635   -7.3706 C   0  0  0  0  0  0  0  0  0  0  0  0
    5.5692  -14.0635   -6.1250 C   0  0  0  0  0  0  0  0  0  0  0  0
    5.3019  -15.2020   -5.3808 C   0  0  0  0  0  0  0  0  0  0  0  0
    5.8098  -12.0694   -6.9496 C   0  0  0  0  0  0  0  0  0  0  0  0
    5.6524  -16.4409   -5.9144 N   0  0  0  0  0  0  0  0  0  0  0  0
    6.5972  -17.6631   -7.6962 N   0  0  0  0  0  0  0  0  0  0  0  0
    6.5024  -15.3636   -7.8675 N   0  0  0  0  0  0  0  0  0  0  0  0
    5.3739  -12.7730   -5.9140 N   0  0  0  0  0  0  0  0  0  0  0  0
    4.7678  -15.1210   -4.2766 O   0  0  0  0  0  0  0  0  0  0  0  0
    6.2579  -16.4873   -7.1762 C   0  0  0  0  0  0  0  0  0  0  0  0
    6.3039  -12.9242   -7.8436 N   0  0  0  0  0  0  0  0  0  0  0  0
    5.4773  -17.2696   -5.4125 H   0  0  0  0  0  0  0  0  0  0  0  0
    6.4212  -18.4921   -7.1952 H   0  0  0  0  0  0  0  0  0  0  0  0
    7.0245  -17.7046   -8.5822 H   0  0  0  0  0  0  0  0  0  0  0  0
    6.8912  -12.5124   -9.1435 C   0  0  0  0  0  0  0  0  0  0  0  0
    8.0710  -13.3544   -9.3694 O   0  0  0  0  0  0  0  0  0  0  0  0
    7.3110  -11.0766   -9.2561 C   0  0  0  0  0  0  0  0  0  0  0  0
    7.2822  -10.6764  -10.6284 O   0  0  0  0  0  0  0  0  0  0  0  0
    8.7604  -11.1571   -8.7781 C   0  0  0  0  0  0  0  0  0  0  0  0
    9.5162  -10.2138   -9.5062 O   0  0  0  0  0  0  0  0  0  0  0  0
    9.2613  -12.5542   -9.1847 C   0  0  0  0  0  0  0  0  0  0  0  0
    7.8295  -11.2813  -11.1532 H   0  0  0  0  0  0  0  0  0  0  0  0
    9.4279  -10.3922  -10.4555 H   0  0  0  0  0  0  0  0  0  0  0  0
   10.2212  -13.2072   -8.1317 C   0  0  0  0  0  0  0  0  0  0  0  0
    9.6080  -14.4845   -7.6976 N   0  0  0  0  0  0  0  0  0  0  0  0
    8.6024  -14.3397   -7.6072 H   0  0  0  0  0  0  0  0  0  0  0  0
   10.1757  -15.0688   -6.2589 S   0  0  0  0  0  0  0  0  0  0  0  0
   11.6371  -14.7592   -6.1236 O   0  0  0  0  0  0  0  0  0  0  0  0
    9.9590  -16.5513   -6.1887 O   0  0  0  0  0  0  0  0  0  0  0  0
    9.2417  -14.2420   -4.9329 C   0  0  0  0  0  0  0  0  0  0  0  0
    8.3055  -15.0653   -4.4712 F   0  0  0  0  0  0  0  0  0  0  0  0
   10.0698  -13.9156   -3.9463 F   0  0  0  0  0  0  0  0  0  0  0  0
    8.6678  -13.1431   -5.4127 F   0  0  0  0  0  0  0  0  0  0  0  0
    4.7511  -12.1968   -4.7190 C   0  0  0  0  0  0  0  0  0  0  0  0
    6.6264  -12.3184   -3.0250 C   0  0  0  0  0  0  0  0  0  0  0  0
    7.6266  -11.7198   -2.2670 C   0  0  0  0  0  0  0  0  0  0  0  0
    7.8526  -10.3512   -2.3668 C   0  0  0  0  0  0  0  0  0  0  0  0
    7.0786   -9.5789   -3.2255 C   0  0  0  0  0  0  0  0  0  0  0  0
    6.0783  -10.1784   -3.9824 C   0  0  0  0  0  0  0  0  0  0  0  0
    5.8518  -11.5477   -3.8832 C   0  0  0  0  0  0  0  0  0  0  0  0
 34 40  1  0  0  0
 34  8  1  0  0  0
 35 40  2  0  0  0
 35 36  1  0  0  0
 40 39  1  0  0  0
 36 37  2  0  0  0
 39 38  2  0  0  0
 37 38  1  0  0  0
  9  3  2  0  0  0
  8  4  2  0  0  0
  8  2  1  0  0  0
  4 11  1  0  0  0
  3  2  1  0  0  0
  3  5  1  0  0  0
  2  1  2  0  0  0
 11  1  1  0  0  0
 11 15  1  0  0  0
  1  7  1  0  0  0
  5 10  1  0  0  0
 28 27  2  0  0  0
 15 16  1  0  0  0
 15 17  1  0  0  0
 29 27  2  0  0  0
  7 10  2  0  0  0
 10  6  1  0  0  0
 16 21  1  0  0  0
 33 30  1  0  0  0
 27 30  1  0  0  0
 27 25  1  0  0  0
 17 18  1  0  0  0
 17 19  1  0  0  0
 30 31  1  0  0  0
 30 32  1  0  0  0
 21 24  1  0  0  0
 21 19  1  0  0  0
 25 24  1  0  0  0
 19 20  1  0  0  0
  5 12  1  0  0  0
  6 13  1  0  0  0
  6 14  1  0  0  0
 18 22  1  0  0  0
 20 23  1  0  0  0
 25 26  1  0  0  0
M  CHG 1   8   1
M  END
> <minimizedAffinity>
-8.12556

$$$$
