4JE7_BB2_A_201


 31 31  0  0  0  0  0  0  0  0999 V2000
    9.1245   -6.2066  -17.6266 C   0  0  0  0  0  0  0  0  0  0  0  0
    8.7242   -5.2094  -17.0216 O   0  0  0  0  0  0  0  0  0  0  0  0
    9.5065   -6.1551  -18.9131 N   0  0  0  0  0  0  0  0  0  0  0  0
    9.8137   -6.9754  -19.3626 H   0  0  0  0  0  0  0  0  0  0  0  0
    9.2494   -7.5673  -16.8966 C   0  0  0  0  0  0  0  0  0  0  0  0
   10.3352   -7.4574  -15.7833 C   0  0  0  0  0  0  0  0  0  0  0  0
   10.9966   -8.8052  -15.4104 C   0  0  0  0  0  0  0  0  0  0  0  0
   11.8186   -9.3900  -16.1497 O   0  0  0  0  0  0  0  0  0  0  0  0
   10.5928   -9.2888  -14.2368 N   0  0  0  0  0  0  0  0  0  0  0  0
   11.0801  -10.4828  -13.7530 O   0  0  0  0  0  0  0  0  0  0  0  0
    9.9348   -8.7842  -13.7061 H   0  0  0  0  0  0  0  0  0  0  0  0
   11.7138  -10.8540  -14.3867 H   0  0  0  0  0  0  0  0  0  0  0  0
    7.8668   -8.0239  -16.3485 C   0  0  0  0  0  0  0  0  0  0  0  0
    7.2734   -9.1431  -17.2363 C   0  0  0  0  0  0  0  0  0  0  0  0
    5.9025   -9.5950  -16.7652 C   0  0  0  0  0  0  0  0  0  0  0  0
    5.0083  -10.0797  -17.9508 C   0  0  0  0  0  0  0  0  0  0  0  0
    4.1088   -8.9491  -18.4513 C   0  0  0  0  0  0  0  0  0  0  0  0
    9.4717   -4.8976  -19.6524 C   0  0  0  0  0  0  0  0  0  0  0  0
    8.6055   -5.0284  -20.9469 C   0  0  0  0  0  0  0  0  0  0  0  0
    9.1570   -5.5805  -21.9301 O   0  0  0  0  0  0  0  0  0  0  0  0
    7.2942   -4.5261  -20.9371 N   0  0  0  0  0  0  0  0  0  0  0  0
    6.3098   -4.5592  -22.0527 C   0  0  0  0  0  0  0  0  0  0  0  0
    6.6572   -3.8633  -19.7645 C   0  0  0  0  0  0  0  0  0  0  0  0
    5.1532   -3.7430  -20.0396 C   0  0  0  0  0  0  0  0  0  0  0  0
    4.9247   -4.1384  -21.4851 C   0  0  0  0  0  0  0  0  0  0  0  0
    6.6872   -3.5818  -23.1769 C   0  0  0  0  0  0  0  0  0  0  0  0
    7.5775   -4.2360  -24.1306 O   0  0  0  0  0  0  0  0  0  0  0  0
    8.3856   -4.5206  -23.6758 H   0  0  0  0  0  0  0  0  0  0  0  0
   10.8773   -4.3814  -19.9550 C   0  0  0  0  0  0  0  0  0  0  0  0
   11.2861   -3.1628  -19.1444 C   0  0  0  0  0  0  0  0  0  0  0  0
   11.9156   -5.4661  -19.8562 C   0  0  0  0  0  0  0  0  0  0  0  0
  6  7  1  0  0  0
  6  5  1  0  0  0
  7  8  2  0  0  0
  7  9  1  0  0  0
  9 10  1  0  0  0
  5  1  1  0  0  0
  5 13  1  0  0  0
  1  2  2  0  0  0
  1  3  1  0  0  0
 13 14  1  0  0  0
 14 15  1  0  0  0
 15 16  1  0  0  0
 16 17  1  0  0  0
  3 18  1  0  0  0
 18 29  1  0  0  0
 18 19  1  0  0  0
 29 30  1  0  0  0
 29 31  1  0  0  0
 19 20  2  0  0  0
 19 21  1  0  0  0
 21 22  1  0  0  0
 21 23  1  0  0  0
 22 25  1  0  0  0
 22 26  1  0  0  0
 23 24  1  0  0  0
 24 25  1  0  0  0
 26 27  1  0  0  0
  9 11  1  0  0  0
 10 12  1  0  0  0
  3  4  1  0  0  0
 27 28  1  0  0  0
M  END
> <minimizedAffinity>
-8.27873

$$$$
4JE7_BB2_A_201


 31 31  0  0  0  0  0  0  0  0999 V2000
    8.8556   -5.7666  -17.5906 C   0  0  0  0  0  0  0  0  0  0  0  0
    8.6111   -4.9592  -16.6912 O   0  0  0  0  0  0  0  0  0  0  0  0
    9.2000   -5.3739  -18.8278 N   0  0  0  0  0  0  0  0  0  0  0  0
    9.3808   -6.0501  -19.5202 H   0  0  0  0  0  0  0  0  0  0  0  0
    8.8216   -7.2891  -17.3062 C   0  0  0  0  0  0  0  0  0  0  0  0
    9.1456   -7.5401  -15.8020 C   0  0  0  0  0  0  0  0  0  0  0  0
   10.3560   -8.4735  -15.5635 C   0  0  0  0  0  0  0  0  0  0  0  0
   11.3618   -8.4905  -16.3067 O   0  0  0  0  0  0  0  0  0  0  0  0
   10.2147   -9.2668  -14.5030 N   0  0  0  0  0  0  0  0  0  0  0  0
   11.1985  -10.1632  -14.1481 O   0  0  0  0  0  0  0  0  0  0  0  0
    9.3930   -9.2116  -13.9635 H   0  0  0  0  0  0  0  0  0  0  0  0
   11.9373  -10.0967  -14.7732 H   0  0  0  0  0  0  0  0  0  0  0  0
    7.4565   -7.8969  -17.7392 C   0  0  0  0  0  0  0  0  0  0  0  0
    7.0213   -9.0097  -16.7568 C   0  0  0  0  0  0  0  0  0  0  0  0
    5.6490   -9.5714  -17.0838 C   0  0  0  0  0  0  0  0  0  0  0  0
    4.8283   -8.6101  -18.0016 C   0  0  0  0  0  0  0  0  0  0  0  0
    4.5695   -9.2495  -19.3660 C   0  0  0  0  0  0  0  0  0  0  0  0
    9.3093   -3.9568  -19.1579 C   0  0  0  0  0  0  0  0  0  0  0  0
    7.8985   -3.3129  -19.3528 C   0  0  0  0  0  0  0  0  0  0  0  0
    7.1620   -3.8421  -20.2207 O   0  0  0  0  0  0  0  0  0  0  0  0
    7.5480   -2.2015  -18.5692 N   0  0  0  0  0  0  0  0  0  0  0  0
    6.2614   -1.4539  -18.5928 C   0  0  0  0  0  0  0  0  0  0  0  0
    8.4382   -1.5779  -17.5499 C   0  0  0  0  0  0  0  0  0  0  0  0
    7.5981   -0.6113  -16.7059 C   0  0  0  0  0  0  0  0  0  0  0  0
    6.2412   -0.4921  -17.3711 C   0  0  0  0  0  0  0  0  0  0  0  0
    6.1125   -0.6133  -19.8706 C   0  0  0  0  0  0  0  0  0  0  0  0
    5.3499   -1.3540  -20.8705 O   0  0  0  0  0  0  0  0  0  0  0  0
    5.8148   -2.1773  -21.0871 H   0  0  0  0  0  0  0  0  0  0  0  0
   10.2144   -3.7269  -20.3669 C   0  0  0  0  0  0  0  0  0  0  0  0
   10.4995   -2.2650  -20.6681 C   0  0  0  0  0  0  0  0  0  0  0  0
   11.4920   -4.5172  -20.2800 C   0  0  0  0  0  0  0  0  0  0  0  0
  6  7  1  0  0  0
  6  5  1  0  0  0
  7  8  2  0  0  0
  7  9  1  0  0  0
  9 10  1  0  0  0
  5  1  1  0  0  0
  5 13  1  0  0  0
  1  2  2  0  0  0
  1  3  1  0  0  0
 13 14  1  0  0  0
 14 15  1  0  0  0
 15 16  1  0  0  0
 16 17  1  0  0  0
  3 18  1  0  0  0
 18 29  1  0  0  0
 18 19  1  0  0  0
 29 30  1  0  0  0
 29 31  1  0  0  0
 19 20  2  0  0  0
 19 21  1  0  0  0
 21 22  1  0  0  0
 21 23  1  0  0  0
 22 25  1  0  0  0
 22 26  1  0  0  0
 23 24  1  0  0  0
 24 25  1  0  0  0
 26 27  1  0  0  0
  9 11  1  0  0  0
 10 12  1  0  0  0
  3  4  1  0  0  0
 27 28  1  0  0  0
M  END
> <minimizedAffinity>
-7.78355

$$$$
4JE7_BB2_A_201


 31 31  0  0  0  0  0  0  0  0999 V2000
    8.5895   -4.9029  -19.1500 C   0  0  0  0  0  0  0  0  0  0  0  0
    9.6707   -4.4912  -19.5766 O   0  0  0  0  0  0  0  0  0  0  0  0
    7.4351   -4.2616  -19.3943 N   0  0  0  0  0  0  0  0  0  0  0  0
    6.5933   -4.6192  -19.0299 H   0  0  0  0  0  0  0  0  0  0  0  0
    8.5178   -6.2245  -18.3447 C   0  0  0  0  0  0  0  0  0  0  0  0
    9.0630   -5.9810  -16.9046 C   0  0  0  0  0  0  0  0  0  0  0  0
    9.9806   -7.1093  -16.3772 C   0  0  0  0  0  0  0  0  0  0  0  0
   11.0252   -7.4697  -16.9630 O   0  0  0  0  0  0  0  0  0  0  0  0
    9.5411   -7.6693  -15.2514 N   0  0  0  0  0  0  0  0  0  0  0  0
   10.2367   -8.6928  -14.6465 O   0  0  0  0  0  0  0  0  0  0  0  0
    8.7049   -7.3461  -14.8446 H   0  0  0  0  0  0  0  0  0  0  0  0
   11.0314   -8.8943  -15.1650 H   0  0  0  0  0  0  0  0  0  0  0  0
    7.0698   -6.7935  -18.3538 C   0  0  0  0  0  0  0  0  0  0  0  0
    7.0758   -8.2871  -18.7563 C   0  0  0  0  0  0  0  0  0  0  0  0
    7.2601   -9.2107  -17.5653 C   0  0  0  0  0  0  0  0  0  0  0  0
    5.8948   -9.6104  -16.9198 C   0  0  0  0  0  0  0  0  0  0  0  0
    4.9049  -10.0784  -17.9869 C   0  0  0  0  0  0  0  0  0  0  0  0
    7.4139   -3.0410  -20.1936 C   0  0  0  0  0  0  0  0  0  0  0  0
    6.5166   -1.9473  -19.5288 C   0  0  0  0  0  0  0  0  0  0  0  0
    5.2769   -2.0867  -19.6680 O   0  0  0  0  0  0  0  0  0  0  0  0
    7.1353   -0.8933  -18.8371 N   0  0  0  0  0  0  0  0  0  0  0  0
    6.4677    0.2341  -18.1315 C   0  0  0  0  0  0  0  0  0  0  0  0
    8.6097   -0.7361  -18.6899 C   0  0  0  0  0  0  0  0  0  0  0  0
    8.8741    0.3366  -17.6261 C   0  0  0  0  0  0  0  0  0  0  0  0
    7.5434    0.9825  -17.2945 C   0  0  0  0  0  0  0  0  0  0  0  0
    5.8417    1.2339  -19.1164 C   0  0  0  0  0  0  0  0  0  0  0  0
    4.4687    0.8433  -19.4206 O   0  0  0  0  0  0  0  0  0  0  0  0
    4.4652   -0.0395  -19.8225 H   0  0  0  0  0  0  0  0  0  0  0  0
    7.0007   -3.3190  -21.6378 C   0  0  0  0  0  0  0  0  0  0  0  0
    8.1390   -3.2426  -22.6417 C   0  0  0  0  0  0  0  0  0  0  0  0
    6.2482   -4.6149  -21.7753 C   0  0  0  0  0  0  0  0  0  0  0  0
  6  7  1  0  0  0
  6  5  1  0  0  0
  7  8  2  0  0  0
  7  9  1  0  0  0
  9 10  1  0  0  0
  5  1  1  0  0  0
  5 13  1  0  0  0
  1  2  2  0  0  0
  1  3  1  0  0  0
 13 14  1  0  0  0
 14 15  1  0  0  0
 15 16  1  0  0  0
 16 17  1  0  0  0
  3 18  1  0  0  0
 18 29  1  0  0  0
 18 19  1  0  0  0
 29 30  1  0  0  0
 29 31  1  0  0  0
 19 20  2  0  0  0
 19 21  1  0  0  0
 21 22  1  0  0  0
 21 23  1  0  0  0
 22 25  1  0  0  0
 22 26  1  0  0  0
 23 24  1  0  0  0
 24 25  1  0  0  0
 26 27  1  0  0  0
  9 11  1  0  0  0
 10 12  1  0  0  0
  3  4  1  0  0  0
 27 28  1  0  0  0
M  END
> <minimizedAffinity>
-7.37469

$$$$
4JE7_BB2_A_201


 31 31  0  0  0  0  0  0  0  0999 V2000
    8.7520   -6.0994  -18.2620 C   0  0  0  0  0  0  0  0  0  0  0  0
    9.6873   -5.8989  -19.0403 O   0  0  0  0  0  0  0  0  0  0  0  0
    7.7227   -5.2444  -18.1480 N   0  0  0  0  0  0  0  0  0  0  0  0
    6.9984   -5.4373  -17.5097 H   0  0  0  0  0  0  0  0  0  0  0  0
    8.7067   -7.3921  -17.4094 C   0  0  0  0  0  0  0  0  0  0  0  0
    9.3497   -7.1141  -16.0167 C   0  0  0  0  0  0  0  0  0  0  0  0
   10.4868   -8.0926  -15.6389 C   0  0  0  0  0  0  0  0  0  0  0  0
   11.5741   -8.1460  -16.2545 O   0  0  0  0  0  0  0  0  0  0  0  0
   10.1883   -8.8821  -14.6084 N   0  0  0  0  0  0  0  0  0  0  0  0
   11.0878   -9.8153  -14.1425 O   0  0  0  0  0  0  0  0  0  0  0  0
    9.3097   -8.7970  -14.1724 H   0  0  0  0  0  0  0  0  0  0  0  0
   11.8991   -9.7754  -14.6728 H   0  0  0  0  0  0  0  0  0  0  0  0
    7.2502   -7.9290  -17.3055 C   0  0  0  0  0  0  0  0  0  0  0  0
    6.7873   -8.5098  -18.6625 C   0  0  0  0  0  0  0  0  0  0  0  0
    5.3831   -8.0693  -19.0360 C   0  0  0  0  0  0  0  0  0  0  0  0
    4.2933   -8.9807  -18.3864 C   0  0  0  0  0  0  0  0  0  0  0  0
    4.8514  -10.3744  -18.0971 C   0  0  0  0  0  0  0  0  0  0  0  0
    7.6652   -4.0329  -18.9592 C   0  0  0  0  0  0  0  0  0  0  0  0
    8.1162   -2.7822  -18.1373 C   0  0  0  0  0  0  0  0  0  0  0  0
    7.9161   -2.8302  -16.8991 O   0  0  0  0  0  0  0  0  0  0  0  0
    8.6987   -1.7000  -18.8170 N   0  0  0  0  0  0  0  0  0  0  0  0
    9.2005   -0.4306  -18.2244 C   0  0  0  0  0  0  0  0  0  0  0  0
    8.9197   -1.6539  -20.2898 C   0  0  0  0  0  0  0  0  0  0  0  0
    9.8442   -0.4700  -20.5995 C   0  0  0  0  0  0  0  0  0  0  0  0
    9.9977    0.3305  -19.3213 C   0  0  0  0  0  0  0  0  0  0  0  0
    8.0509    0.4723  -17.7502 C   0  0  0  0  0  0  0  0  0  0  0  0
    7.8086    0.2670  -16.3257 O   0  0  0  0  0  0  0  0  0  0  0  0
    7.5673   -0.6593  -16.1690 H   0  0  0  0  0  0  0  0  0  0  0  0
    6.2858   -3.8379  -19.5860 C   0  0  0  0  0  0  0  0  0  0  0  0
    6.1029   -4.5283  -20.9273 C   0  0  0  0  0  0  0  0  0  0  0  0
    5.1739   -4.1996  -18.6388 C   0  0  0  0  0  0  0  0  0  0  0  0
  6  7  1  0  0  0
  6  5  1  0  0  0
  7  8  2  0  0  0
  7  9  1  0  0  0
  9 10  1  0  0  0
  5  1  1  0  0  0
  5 13  1  0  0  0
  1  2  2  0  0  0
  1  3  1  0  0  0
 13 14  1  0  0  0
 14 15  1  0  0  0
 15 16  1  0  0  0
 16 17  1  0  0  0
  3 18  1  0  0  0
 18 29  1  0  0  0
 18 19  1  0  0  0
 29 30  1  0  0  0
 29 31  1  0  0  0
 19 20  2  0  0  0
 19 21  1  0  0  0
 21 22  1  0  0  0
 21 23  1  0  0  0
 22 25  1  0  0  0
 22 26  1  0  0  0
 23 24  1  0  0  0
 24 25  1  0  0  0
 26 27  1  0  0  0
  9 11  1  0  0  0
 10 12  1  0  0  0
  3  4  1  0  0  0
 27 28  1  0  0  0
M  END
> <minimizedAffinity>
-7.32013

$$$$
4JE7_BB2_A_201


 31 31  0  0  0  0  0  0  0  0999 V2000
    5.3198   -3.8107  -19.1355 C   0  0  0  0  0  0  0  0  0  0  0  0
    4.4790   -3.7490  -18.2357 O   0  0  0  0  0  0  0  0  0  0  0  0
    6.2478   -2.8561  -19.3117 N   0  0  0  0  0  0  0  0  0  0  0  0
    6.8977   -2.9390  -20.0466 H   0  0  0  0  0  0  0  0  0  0  0  0
    5.3666   -5.0377  -20.0803 C   0  0  0  0  0  0  0  0  0  0  0  0
    5.9242   -4.5987  -21.4684 C   0  0  0  0  0  0  0  0  0  0  0  0
    4.8439   -4.4539  -22.5662 C   0  0  0  0  0  0  0  0  0  0  0  0
    4.0537   -3.4862  -22.6230 O   0  0  0  0  0  0  0  0  0  0  0  0
    4.8264   -5.4663  -23.4316 N   0  0  0  0  0  0  0  0  0  0  0  0
    3.9239   -5.4985  -24.4716 O   0  0  0  0  0  0  0  0  0  0  0  0
    5.4696   -6.2042  -23.3261 H   0  0  0  0  0  0  0  0  0  0  0  0
    3.3642   -4.7070  -24.4386 H   0  0  0  0  0  0  0  0  0  0  0  0
    6.1875   -6.1927  -19.4378 C   0  0  0  0  0  0  0  0  0  0  0  0
    6.0906   -7.4730  -20.3005 C   0  0  0  0  0  0  0  0  0  0  0  0
    5.2581   -8.5581  -19.6410 C   0  0  0  0  0  0  0  0  0  0  0  0
    4.9416   -8.2248  -18.1481 C   0  0  0  0  0  0  0  0  0  0  0  0
    5.6486   -9.2038  -17.2104 C   0  0  0  0  0  0  0  0  0  0  0  0
    6.3042   -1.6974  -18.4266 C   0  0  0  0  0  0  0  0  0  0  0  0
    5.9643   -0.3813  -19.1984 C   0  0  0  0  0  0  0  0  0  0  0  0
    5.2154    0.4324  -18.6046 O   0  0  0  0  0  0  0  0  0  0  0  0
    6.4982   -0.1936  -20.4836 N   0  0  0  0  0  0  0  0  0  0  0  0
    6.3060    0.9828  -21.3745 C   0  0  0  0  0  0  0  0  0  0  0  0
    7.3776   -1.1747  -21.1795 C   0  0  0  0  0  0  0  0  0  0  0  0
    7.9946   -0.4835  -22.4018 C   0  0  0  0  0  0  0  0  0  0  0  0
    7.3031    0.8561  -22.5609 C   0  0  0  0  0  0  0  0  0  0  0  0
    4.8808    1.0395  -21.9466 C   0  0  0  0  0  0  0  0  0  0  0  0
    4.0455    1.9081  -21.1232 O   0  0  0  0  0  0  0  0  0  0  0  0
    4.0087    1.5588  -20.2190 H   0  0  0  0  0  0  0  0  0  0  0  0
    7.6461   -1.6049  -17.7023 C   0  0  0  0  0  0  0  0  0  0  0  0
    7.6074   -0.8076  -16.4093 C   0  0  0  0  0  0  0  0  0  0  0  0
    8.2684   -2.9572  -17.4820 C   0  0  0  0  0  0  0  0  0  0  0  0
  6  7  1  0  0  0
  6  5  1  0  0  0
  7  8  2  0  0  0
  7  9  1  0  0  0
  9 10  1  0  0  0
  5  1  1  0  0  0
  5 13  1  0  0  0
  1  2  2  0  0  0
  1  3  1  0  0  0
 13 14  1  0  0  0
 14 15  1  0  0  0
 15 16  1  0  0  0
 16 17  1  0  0  0
  3 18  1  0  0  0
 18 29  1  0  0  0
 18 19  1  0  0  0
 29 30  1  0  0  0
 29 31  1  0  0  0
 19 20  2  0  0  0
 19 21  1  0  0  0
 21 22  1  0  0  0
 21 23  1  0  0  0
 22 25  1  0  0  0
 22 26  1  0  0  0
 23 24  1  0  0  0
 24 25  1  0  0  0
 26 27  1  0  0  0
  9 11  1  0  0  0
 10 12  1  0  0  0
  3  4  1  0  0  0
 27 28  1  0  0  0
M  END
> <minimizedAffinity>
-6.91274

$$$$
4JE7_BB2_A_201


 31 31  0  0  0  0  0  0  0  0999 V2000
    6.4316   -2.8421  -19.7177 C   0  0  0  0  0  0  0  0  0  0  0  0
    5.2548   -3.0034  -20.0489 O   0  0  0  0  0  0  0  0  0  0  0  0
    7.2844   -3.8716  -19.5893 N   0  0  0  0  0  0  0  0  0  0  0  0
    8.2148   -3.7014  -19.3161 H   0  0  0  0  0  0  0  0  0  0  0  0
    6.9900   -1.4163  -19.4820 C   0  0  0  0  0  0  0  0  0  0  0  0
    8.3352   -1.2553  -20.2533 C   0  0  0  0  0  0  0  0  0  0  0  0
    9.5904   -1.2971  -19.3501 C   0  0  0  0  0  0  0  0  0  0  0  0
    9.9680   -2.3293  -18.7533 O   0  0  0  0  0  0  0  0  0  0  0  0
   10.2174   -0.1256  -19.2567 N   0  0  0  0  0  0  0  0  0  0  0  0
   11.3528    0.0152  -18.4896 O   0  0  0  0  0  0  0  0  0  0  0  0
    9.8633    0.6529  -19.7443 H   0  0  0  0  0  0  0  0  0  0  0  0
   11.5716   -0.8349  -18.0769 H   0  0  0  0  0  0  0  0  0  0  0  0
    5.9354   -0.3428  -19.8770 C   0  0  0  0  0  0  0  0  0  0  0  0
    5.7692    0.6977  -18.7445 C   0  0  0  0  0  0  0  0  0  0  0  0
    6.6852    0.4256  -17.5644 C   0  0  0  0  0  0  0  0  0  0  0  0
    7.6617    1.6152  -17.2971 C   0  0  0  0  0  0  0  0  0  0  0  0
    7.1264    2.9077  -17.9141 C   0  0  0  0  0  0  0  0  0  0  0  0
    6.8480   -5.2393  -19.8500 C   0  0  0  0  0  0  0  0  0  0  0  0
    7.1966   -6.1804  -18.6517 C   0  0  0  0  0  0  0  0  0  0  0  0
    8.1823   -5.8445  -17.9508 O   0  0  0  0  0  0  0  0  0  0  0  0
    6.4097   -7.3238  -18.4382 N   0  0  0  0  0  0  0  0  0  0  0  0
    6.5666   -8.3350  -17.3577 C   0  0  0  0  0  0  0  0  0  0  0  0
    5.2486   -7.7147  -19.2862 C   0  0  0  0  0  0  0  0  0  0  0  0
    4.4754   -8.8226  -18.5602 C   0  0  0  0  0  0  0  0  0  0  0  0
    5.3098   -9.2504  -17.3690 C   0  0  0  0  0  0  0  0  0  0  0  0
    7.8068   -9.2161  -17.5755 C   0  0  0  0  0  0  0  0  0  0  0  0
    8.9746   -8.5979  -16.9557 O   0  0  0  0  0  0  0  0  0  0  0  0
    9.1312   -7.7286  -17.3565 H   0  0  0  0  0  0  0  0  0  0  0  0
    7.4036   -5.7671  -21.1715 C   0  0  0  0  0  0  0  0  0  0  0  0
    6.4107   -5.7480  -22.3218 C   0  0  0  0  0  0  0  0  0  0  0  0
    8.6896   -5.0888  -21.5598 C   0  0  0  0  0  0  0  0  0  0  0  0
  6  7  1  0  0  0
  6  5  1  0  0  0
  7  8  2  0  0  0
  7  9  1  0  0  0
  9 10  1  0  0  0
  5  1  1  0  0  0
  5 13  1  0  0  0
  1  2  2  0  0  0
  1  3  1  0  0  0
 13 14  1  0  0  0
 14 15  1  0  0  0
 15 16  1  0  0  0
 16 17  1  0  0  0
  3 18  1  0  0  0
 18 29  1  0  0  0
 18 19  1  0  0  0
 29 30  1  0  0  0
 29 31  1  0  0  0
 19 20  2  0  0  0
 19 21  1  0  0  0
 21 22  1  0  0  0
 21 23  1  0  0  0
 22 25  1  0  0  0
 22 26  1  0  0  0
 23 24  1  0  0  0
 24 25  1  0  0  0
 26 27  1  0  0  0
  9 11  1  0  0  0
 10 12  1  0  0  0
  3  4  1  0  0  0
 27 28  1  0  0  0
M  END
> <minimizedAffinity>
-6.73445

$$$$
4JE7_BB2_A_201


 31 31  0  0  0  0  0  0  0  0999 V2000
    8.2595   -4.1662  -21.0423 C   0  0  0  0  0  0  0  0  0  0  0  0
    8.8170   -4.8605  -21.8954 O   0  0  0  0  0  0  0  0  0  0  0  0
    8.3594   -4.4314  -19.7296 N   0  0  0  0  0  0  0  0  0  0  0  0
    7.8933   -3.8567  -19.0803 H   0  0  0  0  0  0  0  0  0  0  0  0
    7.4504   -2.9127  -21.4599 C   0  0  0  0  0  0  0  0  0  0  0  0
    7.5592   -1.8325  -20.3411 C   0  0  0  0  0  0  0  0  0  0  0  0
    6.1965   -1.3772  -19.7675 C   0  0  0  0  0  0  0  0  0  0  0  0
    5.3330   -2.1764  -19.3435 O   0  0  0  0  0  0  0  0  0  0  0  0
    6.0267   -0.0563  -19.7857 N   0  0  0  0  0  0  0  0  0  0  0  0
    4.8674    0.5191  -19.3143 O   0  0  0  0  0  0  0  0  0  0  0  0
    6.7420    0.5187  -20.1421 H   0  0  0  0  0  0  0  0  0  0  0  0
    4.2667   -0.1746  -19.0000 H   0  0  0  0  0  0  0  0  0  0  0  0
    7.9224   -2.3935  -22.8484 C   0  0  0  0  0  0  0  0  0  0  0  0
    6.8568   -2.6894  -23.9299 C   0  0  0  0  0  0  0  0  0  0  0  0
    7.2799   -3.7985  -24.8766 C   0  0  0  0  0  0  0  0  0  0  0  0
    6.5556   -5.1455  -24.5583 C   0  0  0  0  0  0  0  0  0  0  0  0
    5.2716   -4.8988  -23.7658 C   0  0  0  0  0  0  0  0  0  0  0  0
    9.1509   -5.5614  -19.2545 C   0  0  0  0  0  0  0  0  0  0  0  0
    8.3908   -6.3542  -18.1423 C   0  0  0  0  0  0  0  0  0  0  0  0
    8.7429   -6.1262  -16.9592 O   0  0  0  0  0  0  0  0  0  0  0  0
    7.3870   -7.2595  -18.5229 N   0  0  0  0  0  0  0  0  0  0  0  0
    6.5454   -8.0984  -17.6270 C   0  0  0  0  0  0  0  0  0  0  0  0
    6.9878   -7.5271  -19.9333 C   0  0  0  0  0  0  0  0  0  0  0  0
    5.6753   -8.3203  -19.9184 C   0  0  0  0  0  0  0  0  0  0  0  0
    5.4050   -8.7206  -18.4815 C   0  0  0  0  0  0  0  0  0  0  0  0
    7.3513   -9.2426  -16.9922 C   0  0  0  0  0  0  0  0  0  0  0  0
    7.8557   -8.8339  -15.6851 O   0  0  0  0  0  0  0  0  0  0  0  0
    8.4328   -8.0611  -15.7883 H   0  0  0  0  0  0  0  0  0  0  0  0
   10.5410   -5.1241  -18.7959 C   0  0  0  0  0  0  0  0  0  0  0  0
   11.6652   -5.5159  -19.7403 C   0  0  0  0  0  0  0  0  0  0  0  0
   10.5978   -3.6556  -18.4721 C   0  0  0  0  0  0  0  0  0  0  0  0
  6  7  1  0  0  0
  6  5  1  0  0  0
  7  8  2  0  0  0
  7  9  1  0  0  0
  9 10  1  0  0  0
  5  1  1  0  0  0
  5 13  1  0  0  0
  1  2  2  0  0  0
  1  3  1  0  0  0
 13 14  1  0  0  0
 14 15  1  0  0  0
 15 16  1  0  0  0
 16 17  1  0  0  0
  3 18  1  0  0  0
 18 29  1  0  0  0
 18 19  1  0  0  0
 29 30  1  0  0  0
 29 31  1  0  0  0
 19 20  2  0  0  0
 19 21  1  0  0  0
 21 22  1  0  0  0
 21 23  1  0  0  0
 22 25  1  0  0  0
 22 26  1  0  0  0
 23 24  1  0  0  0
 24 25  1  0  0  0
 26 27  1  0  0  0
  9 11  1  0  0  0
 10 12  1  0  0  0
  3  4  1  0  0  0
 27 28  1  0  0  0
M  END
> <minimizedAffinity>
-6.70086

$$$$
4JE7_BB2_A_201


 31 31  0  0  0  0  0  0  0  0999 V2000
    7.8223   -4.6204  -18.5768 C   0  0  0  0  0  0  0  0  0  0  0  0
    8.6681   -3.9861  -17.9422 O   0  0  0  0  0  0  0  0  0  0  0  0
    7.2078   -4.1089  -19.6558 N   0  0  0  0  0  0  0  0  0  0  0  0
    6.5329   -4.6452  -20.1313 H   0  0  0  0  0  0  0  0  0  0  0  0
    7.4687   -6.0739  -18.1735 C   0  0  0  0  0  0  0  0  0  0  0  0
    6.6997   -6.7609  -19.3428 C   0  0  0  0  0  0  0  0  0  0  0  0
    5.5691   -7.7115  -18.8833 C   0  0  0  0  0  0  0  0  0  0  0  0
    4.5864   -7.3287  -18.2110 O   0  0  0  0  0  0  0  0  0  0  0  0
    5.7533   -8.9765  -19.2575 N   0  0  0  0  0  0  0  0  0  0  0  0
    4.8424   -9.9561  -18.9288 O   0  0  0  0  0  0  0  0  0  0  0  0
    6.5541   -9.2154  -19.7778 H   0  0  0  0  0  0  0  0  0  0  0  0
    4.1156   -9.5642  -18.4198 H   0  0  0  0  0  0  0  0  0  0  0  0
    8.7483   -6.8524  -17.7528 C   0  0  0  0  0  0  0  0  0  0  0  0
    9.0219   -6.6711  -16.2411 C   0  0  0  0  0  0  0  0  0  0  0  0
    8.5987   -7.8786  -15.4236 C   0  0  0  0  0  0  0  0  0  0  0  0
    8.0020   -9.0103  -16.3200 C   0  0  0  0  0  0  0  0  0  0  0  0
    6.6036   -9.4024  -15.8420 C   0  0  0  0  0  0  0  0  0  0  0  0
    7.5289   -2.7674  -20.1317 C   0  0  0  0  0  0  0  0  0  0  0  0
    6.5854   -1.7001  -19.4884 C   0  0  0  0  0  0  0  0  0  0  0  0
    5.3528   -1.9062  -19.6060 O   0  0  0  0  0  0  0  0  0  0  0  0
    7.1581   -0.5951  -18.8380 N   0  0  0  0  0  0  0  0  0  0  0  0
    6.4427    0.5188  -18.1581 C   0  0  0  0  0  0  0  0  0  0  0  0
    8.6242   -0.3591  -18.7161 C   0  0  0  0  0  0  0  0  0  0  0  0
    8.8468    0.7584  -17.6895 C   0  0  0  0  0  0  0  0  0  0  0  0
    7.4891    1.3464  -17.3594 C   0  0  0  0  0  0  0  0  0  0  0  0
    5.7545    1.4543  -19.1645 C   0  0  0  0  0  0  0  0  0  0  0  0
    4.4508    0.9149  -19.5382 O   0  0  0  0  0  0  0  0  0  0  0  0
    4.5668    0.0429  -19.9468 H   0  0  0  0  0  0  0  0  0  0  0  0
    7.5202   -2.6925  -21.6575 C   0  0  0  0  0  0  0  0  0  0  0  0
    6.6022   -3.6998  -22.3299 C   0  0  0  0  0  0  0  0  0  0  0  0
    7.2482   -1.2995  -22.1575 C   0  0  0  0  0  0  0  0  0  0  0  0
  6  7  1  0  0  0
  6  5  1  0  0  0
  7  8  2  0  0  0
  7  9  1  0  0  0
  9 10  1  0  0  0
  5  1  1  0  0  0
  5 13  1  0  0  0
  1  2  2  0  0  0
  1  3  1  0  0  0
 13 14  1  0  0  0
 14 15  1  0  0  0
 15 16  1  0  0  0
 16 17  1  0  0  0
  3 18  1  0  0  0
 18 29  1  0  0  0
 18 19  1  0  0  0
 29 30  1  0  0  0
 29 31  1  0  0  0
 19 20  2  0  0  0
 19 21  1  0  0  0
 21 22  1  0  0  0
 21 23  1  0  0  0
 22 25  1  0  0  0
 22 26  1  0  0  0
 23 24  1  0  0  0
 24 25  1  0  0  0
 26 27  1  0  0  0
  9 11  1  0  0  0
 10 12  1  0  0  0
  3  4  1  0  0  0
 27 28  1  0  0  0
M  END
> <minimizedAffinity>
-6.67959

$$$$
4JE7_BB2_A_201


 31 31  0  0  0  0  0  0  0  0999 V2000
    7.9385   -5.0656  -20.3194 C   0  0  0  0  0  0  0  0  0  0  0  0
    8.7230   -4.7520  -21.2176 O   0  0  0  0  0  0  0  0  0  0  0  0
    6.7389   -4.4777  -20.1822 N   0  0  0  0  0  0  0  0  0  0  0  0
    6.1439   -4.7519  -19.4473 H   0  0  0  0  0  0  0  0  0  0  0  0
    8.2955   -6.2033  -19.3303 C   0  0  0  0  0  0  0  0  0  0  0  0
    9.2744   -5.6567  -18.2471 C   0  0  0  0  0  0  0  0  0  0  0  0
    8.9911   -4.1977  -17.8178 C   0  0  0  0  0  0  0  0  0  0  0  0
    7.9728   -3.8609  -17.1745 O   0  0  0  0  0  0  0  0  0  0  0  0
    9.9259   -3.3358  -18.2145 N   0  0  0  0  0  0  0  0  0  0  0  0
    9.8284   -1.9939  -17.9194 O   0  0  0  0  0  0  0  0  0  0  0  0
   10.6997   -3.6634  -18.7274 H   0  0  0  0  0  0  0  0  0  0  0  0
    9.0166   -1.8322  -17.4136 H   0  0  0  0  0  0  0  0  0  0  0  0
    7.0057   -6.8237  -18.7204 C   0  0  0  0  0  0  0  0  0  0  0  0
    6.5681   -8.0690  -19.5270 C   0  0  0  0  0  0  0  0  0  0  0  0
    6.7513   -9.3604  -18.7497 C   0  0  0  0  0  0  0  0  0  0  0  0
    5.3834   -9.9999  -18.3495 C   0  0  0  0  0  0  0  0  0  0  0  0
    4.2594   -8.9654  -18.4149 C   0  0  0  0  0  0  0  0  0  0  0  0
    6.3070   -3.4372  -21.1095 C   0  0  0  0  0  0  0  0  0  0  0  0
    6.1189   -2.0702  -20.3754 C   0  0  0  0  0  0  0  0  0  0  0  0
    5.3578   -2.0766  -19.3772 O   0  0  0  0  0  0  0  0  0  0  0  0
    6.7907   -0.9396  -20.8679 N   0  0  0  0  0  0  0  0  0  0  0  0
    6.7540    0.4410  -20.3137 C   0  0  0  0  0  0  0  0  0  0  0  0
    7.6829   -0.9462  -22.0612 C   0  0  0  0  0  0  0  0  0  0  0  0
    8.4578    0.3770  -22.0884 C   0  0  0  0  0  0  0  0  0  0  0  0
    7.8591    1.2738  -21.0229 C   0  0  0  0  0  0  0  0  0  0  0  0
    5.3999    1.1223  -20.5666 C   0  0  0  0  0  0  0  0  0  0  0  0
    4.4905    0.8549  -19.4569 O   0  0  0  0  0  0  0  0  0  0  0  0
    4.3518   -0.1018  -19.3758 H   0  0  0  0  0  0  0  0  0  0  0  0
    5.0530   -3.8507  -21.8778 C   0  0  0  0  0  0  0  0  0  0  0  0
    4.4412   -2.7449  -22.7217 C   0  0  0  0  0  0  0  0  0  0  0  0
    5.2713   -5.0941  -22.6969 C   0  0  0  0  0  0  0  0  0  0  0  0
  6  7  1  0  0  0
  6  5  1  0  0  0
  7  8  2  0  0  0
  7  9  1  0  0  0
  9 10  1  0  0  0
  5  1  1  0  0  0
  5 13  1  0  0  0
  1  2  2  0  0  0
  1  3  1  0  0  0
 13 14  1  0  0  0
 14 15  1  0  0  0
 15 16  1  0  0  0
 16 17  1  0  0  0
  3 18  1  0  0  0
 18 29  1  0  0  0
 18 19  1  0  0  0
 29 30  1  0  0  0
 29 31  1  0  0  0
 19 20  2  0  0  0
 19 21  1  0  0  0
 21 22  1  0  0  0
 21 23  1  0  0  0
 22 25  1  0  0  0
 22 26  1  0  0  0
 23 24  1  0  0  0
 24 25  1  0  0  0
 26 27  1  0  0  0
  9 11  1  0  0  0
 10 12  1  0  0  0
  3  4  1  0  0  0
 27 28  1  0  0  0
M  END
> <minimizedAffinity>
-6.65908

$$$$
4JE7_BB2_A_201


 31 31  0  0  0  0  0  0  0  0999 V2000
    9.1268   -4.7212  -18.2586 C   0  0  0  0  0  0  0  0  0  0  0  0
   10.2483   -4.2937  -17.9755 O   0  0  0  0  0  0  0  0  0  0  0  0
    8.2154   -3.9676  -18.8949 N   0  0  0  0  0  0  0  0  0  0  0  0
    7.3284   -4.3439  -19.0968 H   0  0  0  0  0  0  0  0  0  0  0  0
    8.7408   -6.1848  -17.9280 C   0  0  0  0  0  0  0  0  0  0  0  0
    8.9585   -6.4444  -16.4063 C   0  0  0  0  0  0  0  0  0  0  0  0
   10.0214   -7.5246  -16.0953 C   0  0  0  0  0  0  0  0  0  0  0  0
   11.0723   -7.6596  -16.7598 O   0  0  0  0  0  0  0  0  0  0  0  0
    9.7002   -8.3053  -15.0650 N   0  0  0  0  0  0  0  0  0  0  0  0
   10.5344   -9.3216  -14.6545 O   0  0  0  0  0  0  0  0  0  0  0  0
    8.8521   -8.1533  -14.5887 H   0  0  0  0  0  0  0  0  0  0  0  0
   11.3223   -9.3414  -15.2200 H   0  0  0  0  0  0  0  0  0  0  0  0
    7.2856   -6.4850  -18.3895 C   0  0  0  0  0  0  0  0  0  0  0  0
    7.2901   -7.3469  -19.6740 C   0  0  0  0  0  0  0  0  0  0  0  0
    6.5859   -6.6666  -20.8344 C   0  0  0  0  0  0  0  0  0  0  0  0
    5.5988   -5.5575  -20.3490 C   0  0  0  0  0  0  0  0  0  0  0  0
    5.2432   -4.6071  -21.4926 C   0  0  0  0  0  0  0  0  0  0  0  0
    8.5245   -2.5975  -19.2904 C   0  0  0  0  0  0  0  0  0  0  0  0
    7.3429   -1.6324  -18.9505 C   0  0  0  0  0  0  0  0  0  0  0  0
    6.1865   -2.1012  -19.0874 O   0  0  0  0  0  0  0  0  0  0  0  0
    7.6366   -0.3255  -18.5287 N   0  0  0  0  0  0  0  0  0  0  0  0
    6.6660    0.7374  -18.1510 C   0  0  0  0  0  0  0  0  0  0  0  0
    9.0155    0.2197  -18.3814 C   0  0  0  0  0  0  0  0  0  0  0  0
    8.9281    1.5454  -17.6152 C   0  0  0  0  0  0  0  0  0  0  0  0
    7.4599    1.9040  -17.4977 C   0  0  0  0  0  0  0  0  0  0  0  0
    5.9180    1.2892  -19.3748 C   0  0  0  0  0  0  0  0  0  0  0  0
    4.6052    0.6609  -19.4837 O   0  0  0  0  0  0  0  0  0  0  0  0
    4.7129   -0.2976  -19.5858 H   0  0  0  0  0  0  0  0  0  0  0  0
    8.9275   -2.5117  -20.7614 C   0  0  0  0  0  0  0  0  0  0  0  0
   10.2806   -1.8641  -21.0044 C   0  0  0  0  0  0  0  0  0  0  0  0
    8.8365   -3.8439  -21.4552 C   0  0  0  0  0  0  0  0  0  0  0  0
  6  7  1  0  0  0
  6  5  1  0  0  0
  7  8  2  0  0  0
  7  9  1  0  0  0
  9 10  1  0  0  0
  5  1  1  0  0  0
  5 13  1  0  0  0
  1  2  2  0  0  0
  1  3  1  0  0  0
 13 14  1  0  0  0
 14 15  1  0  0  0
 15 16  1  0  0  0
 16 17  1  0  0  0
  3 18  1  0  0  0
 18 29  1  0  0  0
 18 19  1  0  0  0
 29 30  1  0  0  0
 29 31  1  0  0  0
 19 20  2  0  0  0
 19 21  1  0  0  0
 21 22  1  0  0  0
 21 23  1  0  0  0
 22 25  1  0  0  0
 22 26  1  0  0  0
 23 24  1  0  0  0
 24 25  1  0  0  0
 26 27  1  0  0  0
  9 11  1  0  0  0
 10 12  1  0  0  0
  3  4  1  0  0  0
 27 28  1  0  0  0
M  END
> <minimizedAffinity>
-6.58691

$$$$
