1RBP_RTL_A_183


 22 22  0  0  0  0  0  0  0  0999 V2000
   30.6750   19.3541   47.2673 C   0  0  0  0  0  0  0  0  0  0  0  0
   31.7730   19.5906   48.0201 C   0  0  0  0  0  0  0  0  0  0  0  0
   29.6457   21.0911   45.6179 C   0  0  0  0  0  0  0  0  0  0  0  0
   29.2636   21.2185   44.1358 C   0  0  0  0  0  0  0  0  0  0  0  0
   30.2692   20.8067   43.1982 C   0  0  0  0  0  0  0  0  0  0  0  0
   30.6331   19.3387   43.3319 C   0  0  0  0  0  0  0  0  0  0  0  0
   30.9574   18.9819   44.7654 C   0  0  0  0  0  0  0  0  0  0  0  0
   30.5182   19.7548   45.8349 C   0  0  0  0  0  0  0  0  0  0  0  0
   28.3355   21.0627   46.4424 C   0  0  0  0  0  0  0  0  0  0  0  0
   30.4607   22.3215   46.0342 C   0  0  0  0  0  0  0  0  0  0  0  0
   31.8984   17.7745   44.8289 C   0  0  0  0  0  0  0  0  0  0  0  0
   31.9782   19.2284   49.3940 C   0  0  0  0  0  0  0  0  0  0  0  0
   33.2708   19.2340   49.8255 C   0  0  0  0  0  0  0  0  0  0  0  0
   30.7481   18.7969   50.2197 C   0  0  0  0  0  0  0  0  0  0  0  0
   33.7517   18.9761   51.1683 C   0  0  0  0  0  0  0  0  0  0  0  0
   35.0683   18.7751   51.4444 C   0  0  0  0  0  0  0  0  0  0  0  0
   35.6076   18.5611   52.7804 C   0  0  0  0  0  0  0  0  0  0  0  0
   36.7175   17.7942   52.9291 C   0  0  0  0  0  0  0  0  0  0  0  0
   34.8831   19.2357   53.9907 C   0  0  0  0  0  0  0  0  0  0  0  0
   37.2963   17.5341   54.2396 C   0  0  0  0  0  0  0  0  0  0  0  0
   37.6454   16.2339   54.6964 O   0  0  0  0  0  0  0  0  0  0  0  0
   36.8394   15.7113   54.8311 H   0  0  0  0  0  0  0  0  0  0  0  0
  3  4  1  0  0  0
  3  8  1  0  0  0
  3  9  1  0  0  0
  3 10  1  0  0  0
  4  5  1  0  0  0
  5  6  1  0  0  0
  6  7  1  0  0  0
  7  8  2  0  0  0
  7 11  1  0  0  0
  8  1  1  0  0  0
  1  2  2  0  0  0
  2 12  1  0  0  0
 12 13  2  0  0  0
 12 14  1  0  0  0
 13 15  1  0  0  0
 15 16  2  0  0  0
 16 17  1  0  0  0
 17 18  2  0  0  0
 17 19  1  0  0  0
 18 20  1  0  0  0
 20 21  1  0  0  0
 21 22  1  0  0  0
M  END
> <minimizedAffinity>
-9.97842

$$$$
1RBP_RTL_A_183


 22 22  0  0  0  0  0  0  0  0999 V2000
   30.9884   20.1438   46.8022 C   0  0  0  0  0  0  0  0  0  0  0  0
   30.5176   19.1422   47.5790 C   0  0  0  0  0  0  0  0  0  0  0  0
   29.6488   21.7486   45.2443 C   0  0  0  0  0  0  0  0  0  0  0  0
   28.9741   21.7521   43.8646 C   0  0  0  0  0  0  0  0  0  0  0  0
   29.7676   21.2389   42.7844 C   0  0  0  0  0  0  0  0  0  0  0  0
   30.1483   19.7814   42.9744 C   0  0  0  0  0  0  0  0  0  0  0  0
   30.7563   19.5462   44.3392 C   0  0  0  0  0  0  0  0  0  0  0  0
   30.5448   20.4194   45.4007 C   0  0  0  0  0  0  0  0  0  0  0  0
   28.5333   21.8197   46.3155 C   0  0  0  0  0  0  0  0  0  0  0  0
   30.5337   22.9942   45.3741 C   0  0  0  0  0  0  0  0  0  0  0  0
   31.6883   18.3304   44.3204 C   0  0  0  0  0  0  0  0  0  0  0  0
   30.9045   18.8332   48.9265 C   0  0  0  0  0  0  0  0  0  0  0  0
   32.2411   18.6791   49.1426 C   0  0  0  0  0  0  0  0  0  0  0  0
   29.7872   18.6288   49.9709 C   0  0  0  0  0  0  0  0  0  0  0  0
   32.9057   18.4321   50.4068 C   0  0  0  0  0  0  0  0  0  0  0  0
   34.1191   18.9673   50.7086 C   0  0  0  0  0  0  0  0  0  0  0  0
   34.8056   18.7898   51.9809 C   0  0  0  0  0  0  0  0  0  0  0  0
   34.1264   19.0145   53.1343 C   0  0  0  0  0  0  0  0  0  0  0  0
   36.3023   18.3377   51.9606 C   0  0  0  0  0  0  0  0  0  0  0  0
   34.7613   18.8654   54.4361 C   0  0  0  0  0  0  0  0  0  0  0  0
   34.2892   17.9756   55.4393 O   0  0  0  0  0  0  0  0  0  0  0  0
   33.4345   18.2895   55.7737 H   0  0  0  0  0  0  0  0  0  0  0  0
  3  4  1  0  0  0
  3  8  1  0  0  0
  3  9  1  0  0  0
  3 10  1  0  0  0
  4  5  1  0  0  0
  5  6  1  0  0  0
  6  7  1  0  0  0
  7  8  2  0  0  0
  7 11  1  0  0  0
  8  1  1  0  0  0
  1  2  2  0  0  0
  2 12  1  0  0  0
 12 13  2  0  0  0
 12 14  1  0  0  0
 13 15  1  0  0  0
 15 16  2  0  0  0
 16 17  1  0  0  0
 17 18  2  0  0  0
 17 19  1  0  0  0
 18 20  1  0  0  0
 20 21  1  0  0  0
 21 22  1  0  0  0
M  END
> <minimizedAffinity>
-9.59556

$$$$
1RBP_RTL_A_183


 22 22  0  0  0  0  0  0  0  0999 V2000
   31.3141   19.5592   47.0164 C   0  0  0  0  0  0  0  0  0  0  0  0
   30.6140   18.9600   48.0058 C   0  0  0  0  0  0  0  0  0  0  0  0
   31.2646   18.6345   44.5792 C   0  0  0  0  0  0  0  0  0  0  0  0
   30.9966   19.1176   43.1462 C   0  0  0  0  0  0  0  0  0  0  0  0
   29.7965   19.8833   42.9637 C   0  0  0  0  0  0  0  0  0  0  0  0
   29.7934   21.1730   43.7649 C   0  0  0  0  0  0  0  0  0  0  0  0
   30.1364   20.9188   45.2158 C   0  0  0  0  0  0  0  0  0  0  0  0
   30.8128   19.7742   45.6237 C   0  0  0  0  0  0  0  0  0  0  0  0
   32.7749   18.3144   44.6948 C   0  0  0  0  0  0  0  0  0  0  0  0
   30.4697   17.3479   44.8326 C   0  0  0  0  0  0  0  0  0  0  0  0
   29.5385   22.0038   46.1172 C   0  0  0  0  0  0  0  0  0  0  0  0
   31.0430   18.7292   49.3562 C   0  0  0  0  0  0  0  0  0  0  0  0
   32.3850   18.5774   49.5378 C   0  0  0  0  0  0  0  0  0  0  0  0
   29.9593   18.5972   50.4467 C   0  0  0  0  0  0  0  0  0  0  0  0
   33.0891   18.4013   50.7924 C   0  0  0  0  0  0  0  0  0  0  0  0
   34.3636   18.8377   50.9798 C   0  0  0  0  0  0  0  0  0  0  0  0
   35.0968   18.7290   52.2337 C   0  0  0  0  0  0  0  0  0  0  0  0
   36.2978   18.0969   52.2435 C   0  0  0  0  0  0  0  0  0  0  0  0
   34.4662   19.3566   53.5196 C   0  0  0  0  0  0  0  0  0  0  0  0
   37.0718   17.9461   53.4675 C   0  0  0  0  0  0  0  0  0  0  0  0
   37.3798   16.6853   54.0477 O   0  0  0  0  0  0  0  0  0  0  0  0
   36.5671   16.2776   54.3855 H   0  0  0  0  0  0  0  0  0  0  0  0
  3  4  1  0  0  0
  3  8  1  0  0  0
  3  9  1  0  0  0
  3 10  1  0  0  0
  4  5  1  0  0  0
  5  6  1  0  0  0
  6  7  1  0  0  0
  7  8  2  0  0  0
  7 11  1  0  0  0
  8  1  1  0  0  0
  1  2  2  0  0  0
  2 12  1  0  0  0
 12 13  2  0  0  0
 12 14  1  0  0  0
 13 15  1  0  0  0
 15 16  2  0  0  0
 16 17  1  0  0  0
 17 18  2  0  0  0
 17 19  1  0  0  0
 18 20  1  0  0  0
 20 21  1  0  0  0
 21 22  1  0  0  0
M  END
> <minimizedAffinity>
-8.73358

$$$$
1RBP_RTL_A_183


 22 22  0  0  0  0  0  0  0  0999 V2000
   31.1771   20.7224   47.5019 C   0  0  0  0  0  0  0  0  0  0  0  0
   30.4334   20.3865   48.5800 C   0  0  0  0  0  0  0  0  0  0  0  0
   29.6610   20.6252   45.3831 C   0  0  0  0  0  0  0  0  0  0  0  0
   29.4738   21.3466   44.0403 C   0  0  0  0  0  0  0  0  0  0  0  0
   29.4224   22.7794   44.1074 C   0  0  0  0  0  0  0  0  0  0  0  0
   30.7037   23.3897   44.6470 C   0  0  0  0  0  0  0  0  0  0  0  0
   31.1188   22.7357   45.9460 C   0  0  0  0  0  0  0  0  0  0  0  0
   30.6678   21.4722   46.3122 C   0  0  0  0  0  0  0  0  0  0  0  0
   30.2082   19.2078   45.0852 C   0  0  0  0  0  0  0  0  0  0  0  0
   28.2993   20.4899   46.0751 C   0  0  0  0  0  0  0  0  0  0  0  0
   31.9631   23.6921   46.7943 C   0  0  0  0  0  0  0  0  0  0  0  0
   30.8686   19.6717   49.7465 C   0  0  0  0  0  0  0  0  0  0  0  0
   32.1594   19.8837   50.1286 C   0  0  0  0  0  0  0  0  0  0  0  0
   29.8786   18.6863   50.4021 C   0  0  0  0  0  0  0  0  0  0  0  0
   32.8313   19.3472   51.2955 C   0  0  0  0  0  0  0  0  0  0  0  0
   34.1598   19.0557   51.3012 C   0  0  0  0  0  0  0  0  0  0  0  0
   34.8910   18.5618   52.4601 C   0  0  0  0  0  0  0  0  0  0  0  0
   36.1248   18.0249   52.2826 C   0  0  0  0  0  0  0  0  0  0  0  0
   34.2200   18.6804   53.8675 C   0  0  0  0  0  0  0  0  0  0  0  0
   36.8992   17.5037   53.4000 C   0  0  0  0  0  0  0  0  0  0  0  0
   37.6862   18.3222   54.2555 O   0  0  0  0  0  0  0  0  0  0  0  0
   38.4409   18.6763   53.7596 H   0  0  0  0  0  0  0  0  0  0  0  0
  3  4  1  0  0  0
  3  8  1  0  0  0
  3  9  1  0  0  0
  3 10  1  0  0  0
  4  5  1  0  0  0
  5  6  1  0  0  0
  6  7  1  0  0  0
  7  8  2  0  0  0
  7 11  1  0  0  0
  8  1  1  0  0  0
  1  2  2  0  0  0
  2 12  1  0  0  0
 12 13  2  0  0  0
 12 14  1  0  0  0
 13 15  1  0  0  0
 15 16  2  0  0  0
 16 17  1  0  0  0
 17 18  2  0  0  0
 17 19  1  0  0  0
 18 20  1  0  0  0
 20 21  1  0  0  0
 21 22  1  0  0  0
M  END
> <minimizedAffinity>
-8.50943

$$$$
1RBP_RTL_A_183


 22 22  0  0  0  0  0  0  0  0999 V2000
   29.9826   21.1673   47.6348 C   0  0  0  0  0  0  0  0  0  0  0  0
   30.0928   19.8469   47.9042 C   0  0  0  0  0  0  0  0  0  0  0  0
   30.6164   22.2712   45.3594 C   0  0  0  0  0  0  0  0  0  0  0  0
   29.9823   23.1291   44.2546 C   0  0  0  0  0  0  0  0  0  0  0  0
   28.7101   22.6752   43.7696 C   0  0  0  0  0  0  0  0  0  0  0  0
   27.6403   22.6610   44.8470 C   0  0  0  0  0  0  0  0  0  0  0  0
   28.1151   21.9291   46.0824 C   0  0  0  0  0  0  0  0  0  0  0  0
   29.4659   21.7379   46.3524 C   0  0  0  0  0  0  0  0  0  0  0  0
   31.6549   23.1481   46.1007 C   0  0  0  0  0  0  0  0  0  0  0  0
   31.3452   21.0843   44.7179 C   0  0  0  0  0  0  0  0  0  0  0  0
   26.9305   21.3595   46.8695 C   0  0  0  0  0  0  0  0  0  0  0  0
   30.5784   19.2452   49.1137 C   0  0  0  0  0  0  0  0  0  0  0  0
   31.9292   19.2708   49.2918 C   0  0  0  0  0  0  0  0  0  0  0  0
   29.5532   18.5663   50.0460 C   0  0  0  0  0  0  0  0  0  0  0  0
   32.6745   18.7989   50.4420 C   0  0  0  0  0  0  0  0  0  0  0  0
   33.8570   19.3538   50.8212 C   0  0  0  0  0  0  0  0  0  0  0  0
   34.6192   18.9494   51.9947 C   0  0  0  0  0  0  0  0  0  0  0  0
   34.0642   19.0951   53.2247 C   0  0  0  0  0  0  0  0  0  0  0  0
   36.0494   18.3540   51.7825 C   0  0  0  0  0  0  0  0  0  0  0  0
   34.7809   18.7203   54.4354 C   0  0  0  0  0  0  0  0  0  0  0  0
   34.2429   17.8546   55.4265 O   0  0  0  0  0  0  0  0  0  0  0  0
   33.5031   18.2950   55.8734 H   0  0  0  0  0  0  0  0  0  0  0  0
  3  4  1  0  0  0
  3  8  1  0  0  0
  3  9  1  0  0  0
  3 10  1  0  0  0
  4  5  1  0  0  0
  5  6  1  0  0  0
  6  7  1  0  0  0
  7  8  2  0  0  0
  7 11  1  0  0  0
  8  1  1  0  0  0
  1  2  2  0  0  0
  2 12  1  0  0  0
 12 13  2  0  0  0
 12 14  1  0  0  0
 13 15  1  0  0  0
 15 16  2  0  0  0
 16 17  1  0  0  0
 17 18  2  0  0  0
 17 19  1  0  0  0
 18 20  1  0  0  0
 20 21  1  0  0  0
 21 22  1  0  0  0
M  END
> <minimizedAffinity>
-8.02923

$$$$
1RBP_RTL_A_183


 22 22  0  0  0  0  0  0  0  0999 V2000
   32.3874   18.5988   49.9408 C   0  0  0  0  0  0  0  0  0  0  0  0
   32.7517   19.2568   51.0644 C   0  0  0  0  0  0  0  0  0  0  0  0
   31.8970   19.4037   47.5099 C   0  0  0  0  0  0  0  0  0  0  0  0
   30.8298   20.1794   46.7236 C   0  0  0  0  0  0  0  0  0  0  0  0
   29.4734   19.7653   46.9439 C   0  0  0  0  0  0  0  0  0  0  0  0
   29.0308   19.9419   48.3855 C   0  0  0  0  0  0  0  0  0  0  0  0
   30.0196   19.3165   49.3440 C   0  0  0  0  0  0  0  0  0  0  0  0
   31.3378   19.0621   48.9812 C   0  0  0  0  0  0  0  0  0  0  0  0
   33.1711   20.2813   47.5684 C   0  0  0  0  0  0  0  0  0  0  0  0
   32.2285   18.1067   46.7620 C   0  0  0  0  0  0  0  0  0  0  0  0
   29.3337   18.9189   50.6550 C   0  0  0  0  0  0  0  0  0  0  0  0
   33.7499   18.8612   52.0172 C   0  0  0  0  0  0  0  0  0  0  0  0
   34.9069   18.3636   51.4968 C   0  0  0  0  0  0  0  0  0  0  0  0
   33.3978   18.9590   53.5164 C   0  0  0  0  0  0  0  0  0  0  0  0
   36.0939   17.9550   52.2214 C   0  0  0  0  0  0  0  0  0  0  0  0
   36.1204   17.8532   53.5774 C   0  0  0  0  0  0  0  0  0  0  0  0
   37.2707   17.4011   54.3483 C   0  0  0  0  0  0  0  0  0  0  0  0
   37.1672   16.2653   55.0840 C   0  0  0  0  0  0  0  0  0  0  0  0
   38.5846   18.2466   54.2870 C   0  0  0  0  0  0  0  0  0  0  0  0
   38.2780   15.7696   55.8843 C   0  0  0  0  0  0  0  0  0  0  0  0
   38.1292   14.7995   56.9128 O   0  0  0  0  0  0  0  0  0  0  0  0
   37.6306   15.1842   57.6505 H   0  0  0  0  0  0  0  0  0  0  0  0
  3  4  1  0  0  0
  3  8  1  0  0  0
  3  9  1  0  0  0
  3 10  1  0  0  0
  4  5  1  0  0  0
  5  6  1  0  0  0
  6  7  1  0  0  0
  7  8  2  0  0  0
  7 11  1  0  0  0
  8  1  1  0  0  0
  1  2  2  0  0  0
  2 12  1  0  0  0
 12 13  2  0  0  0
 12 14  1  0  0  0
 13 15  1  0  0  0
 15 16  2  0  0  0
 16 17  1  0  0  0
 17 18  2  0  0  0
 17 19  1  0  0  0
 18 20  1  0  0  0
 20 21  1  0  0  0
 21 22  1  0  0  0
M  END
> <minimizedAffinity>
-7.38715

$$$$
