1G2K_NM1_B_501


 48 52  0  0  0  0  0  0  0  0999 V2000
   11.3332   23.6169    5.9938 N   0  0  0  0  0  0  0  0  0  0  0  0
   11.7584   22.1074    6.5149 S   0  0  0  0  0  0  0  0  0  0  0  0
   13.3924   22.1864    6.3553 N   0  0  0  0  0  0  0  0  0  0  0  0
   13.8736   22.1167    4.9559 C   0  0  0  0  0  0  0  0  0  0  0  0
   14.0816   23.4984    4.3142 C   0  0  0  0  0  0  0  0  0  0  0  0
   13.0947   24.5779    4.7439 C   0  0  0  0  0  0  0  0  0  0  0  0
   11.6020   24.2114    4.6731 C   0  0  0  0  0  0  0  0  0  0  0  0
   11.2194   21.0651    5.6421 O   0  0  0  0  0  0  0  0  0  0  0  0
   15.3704   23.9869    4.6225 O   0  0  0  0  0  0  0  0  0  0  0  0
   13.3627   25.7305    3.9554 O   0  0  0  0  0  0  0  0  0  0  0  0
   11.4729   22.0059    7.9456 O   0  0  0  0  0  0  0  0  0  0  0  0
   15.4428   24.1268    5.5796 H   0  0  0  0  0  0  0  0  0  0  0  0
   13.2023   25.5272    3.0206 H   0  0  0  0  0  0  0  0  0  0  0  0
   10.1332   24.1036    6.5195 C   0  0  0  0  0  0  0  0  0  0  0  0
    9.8379   25.3618    7.2291 C   0  0  0  0  0  0  0  0  0  0  0  0
    8.7740   26.1980    6.8184 C   0  0  0  0  0  0  0  0  0  0  0  0
    8.5322   27.4167    7.5044 C   0  0  0  0  0  0  0  0  0  0  0  0
    9.3681   27.8001    8.6152 C   0  0  0  0  0  0  0  0  0  0  0  0
   10.4360   26.9618    9.0279 C   0  0  0  0  0  0  0  0  0  0  0  0
   10.6709   25.7442    8.3318 C   0  0  0  0  0  0  0  0  0  0  0  0
    7.4227   28.3132    7.0567 C   0  0  0  0  0  0  0  0  0  0  0  0
    7.5653   29.5577    7.1671 O   0  0  0  0  0  0  0  0  0  0  0  0
    6.2612   27.7643    6.5492 N   0  0  0  0  0  0  0  0  0  0  0  0
    5.2074   28.6790    6.1595 C   0  0  0  0  0  0  0  0  0  0  0  0
    6.1537   26.7901    6.4560 H   0  0  0  0  0  0  0  0  0  0  0  0
   14.1877   22.7857    7.4829 C   0  0  0  0  0  0  0  0  0  0  0  0
   15.2957   21.9940    8.1369 C   0  0  0  0  0  0  0  0  0  0  0  0
   14.9843   20.8757    8.9701 C   0  0  0  0  0  0  0  0  0  0  0  0
   16.0330   20.1174    9.5858 C   0  0  0  0  0  0  0  0  0  0  0  0
   17.4044   20.4818    9.3664 C   0  0  0  0  0  0  0  0  0  0  0  0
   17.7259   21.6059    8.5336 C   0  0  0  0  0  0  0  0  0  0  0  0
   16.6719   22.3552    7.9239 C   0  0  0  0  0  0  0  0  0  0  0  0
   11.0042   23.3800    3.5047 C   0  0  0  0  0  0  0  0  0  0  0  0
   10.2798   24.2976    2.6407 O   0  0  0  0  0  0  0  0  0  0  0  0
    9.0186   24.7576    2.9361 C   0  0  0  0  0  0  0  0  0  0  0  0
    8.7134   26.1638    3.0529 C   0  0  0  0  0  0  0  0  0  0  0  0
    7.3944   26.6041    3.3676 C   0  0  0  0  0  0  0  0  0  0  0  0
    6.3594   25.6448    3.5769 C   0  0  0  0  0  0  0  0  0  0  0  0
    6.6394   24.2547    3.4668 C   0  0  0  0  0  0  0  0  0  0  0  0
    7.9649   23.8162    3.1445 C   0  0  0  0  0  0  0  0  0  0  0  0
   15.1064   21.2182    4.8124 C   0  0  0  0  0  0  0  0  0  0  0  0
   15.0093   20.3852    3.6315 O   0  0  0  0  0  0  0  0  0  0  0  0
   15.9895   19.4349    3.3776 C   0  0  0  0  0  0  0  0  0  0  0  0
   16.0157   18.6839    2.1446 C   0  0  0  0  0  0  0  0  0  0  0  0
   17.0312   17.7085    1.8943 C   0  0  0  0  0  0  0  0  0  0  0  0
   18.0407   17.4748    2.8803 C   0  0  0  0  0  0  0  0  0  0  0  0
   18.0321   18.2093    4.1065 C   0  0  0  0  0  0  0  0  0  0  0  0
   17.0097   19.1817    4.3506 C   0  0  0  0  0  0  0  0  0  0  0  0
  1  2  1  0  0  0
  1  7  1  0  0  0
  1 14  1  0  0  0
  2  3  1  0  0  0
  2  8  2  0  0  0
  2 11  2  0  0  0
  3  4  1  0  0  0
  3 26  1  0  0  0
  4  5  1  0  0  0
  4 41  1  0  0  0
  5  6  1  0  0  0
  5  9  1  0  0  0
  6  7  1  0  0  0
  6 10  1  0  0  0
  7 33  1  0  0  0
 14 15  1  0  0  0
 15 16  2  0  0  0
 15 20  1  0  0  0
 16 17  1  0  0  0
 17 18  2  0  0  0
 17 21  1  0  0  0
 18 19  1  0  0  0
 19 20  2  0  0  0
 42 43  1  0  0  0
 42 41  1  0  0  0
 43 44  2  0  0  0
 43 48  1  0  0  0
 44 45  1  0  0  0
 45 46  2  0  0  0
 46 47  1  0  0  0
 47 48  2  0  0  0
 26 27  1  0  0  0
 27 28  2  0  0  0
 27 32  1  0  0  0
 28 29  1  0  0  0
 29 30  2  0  0  0
 30 31  1  0  0  0
 31 32  2  0  0  0
 33 34  1  0  0  0
 34 35  1  0  0  0
 35 36  2  0  0  0
 35 40  1  0  0  0
 36 37  1  0  0  0
 37 38  2  0  0  0
 38 39  1  0  0  0
 39 40  2  0  0  0
 21 22  2  0  0  0
 21 23  1  0  0  0
 23 24  1  0  0  0
  9 12  1  0  0  0
 10 13  1  0  0  0
 23 25  1  0  0  0
M  END
> <minimizedAffinity>
-11.98484

$$$$
1G2K_NM1_B_501


 48 52  0  0  0  0  0  0  0  0999 V2000
   13.7199   21.7090    5.4095 N   0  0  0  0  0  0  0  0  0  0  0  0
   12.1451   21.6712    5.9089 S   0  0  0  0  0  0  0  0  0  0  0  0
   11.5729   23.0359    5.1934 N   0  0  0  0  0  0  0  0  0  0  0  0
   12.0135   24.2946    5.8385 C   0  0  0  0  0  0  0  0  0  0  0  0
   13.2777   24.8948    5.2016 C   0  0  0  0  0  0  0  0  0  0  0  0
   14.2986   23.8850    4.6896 C   0  0  0  0  0  0  0  0  0  0  0  0
   14.7100   22.7691    5.6658 C   0  0  0  0  0  0  0  0  0  0  0  0
   12.0387   21.7852    7.3629 O   0  0  0  0  0  0  0  0  0  0  0  0
   12.9270   25.7054    4.0994 O   0  0  0  0  0  0  0  0  0  0  0  0
   15.4391   24.6195    4.2632 O   0  0  0  0  0  0  0  0  0  0  0  0
   11.4755   20.5396    5.2685 O   0  0  0  0  0  0  0  0  0  0  0  0
   12.5198   25.1566    3.4110 H   0  0  0  0  0  0  0  0  0  0  0  0
   15.8261   25.0848    5.0213 H   0  0  0  0  0  0  0  0  0  0  0  0
   14.3423   20.4599    5.3335 C   0  0  0  0  0  0  0  0  0  0  0  0
   15.0894   19.8266    4.2314 C   0  0  0  0  0  0  0  0  0  0  0  0
   16.1847   18.9705    4.4904 C   0  0  0  0  0  0  0  0  0  0  0  0
   16.9015   18.3981    3.4075 C   0  0  0  0  0  0  0  0  0  0  0  0
   16.5141   18.6886    2.0491 C   0  0  0  0  0  0  0  0  0  0  0  0
   15.4153   19.5476    1.7881 C   0  0  0  0  0  0  0  0  0  0  0  0
   14.7058   20.1178    2.8807 C   0  0  0  0  0  0  0  0  0  0  0  0
   18.0743   17.5117    3.6793 C   0  0  0  0  0  0  0  0  0  0  0  0
   19.0870   17.6002    2.9392 O   0  0  0  0  0  0  0  0  0  0  0  0
   18.0206   16.6047    4.7198 N   0  0  0  0  0  0  0  0  0  0  0  0
   19.1734   15.7500    4.9182 C   0  0  0  0  0  0  0  0  0  0  0  0
   17.2303   16.5416    5.3034 H   0  0  0  0  0  0  0  0  0  0  0  0
   11.1087   22.9475    3.7652 C   0  0  0  0  0  0  0  0  0  0  0  0
    9.9044   23.7359    3.3066 C   0  0  0  0  0  0  0  0  0  0  0  0
   10.0693   24.8604    2.4404 C   0  0  0  0  0  0  0  0  0  0  0  0
    8.9286   25.6059    1.9969 C   0  0  0  0  0  0  0  0  0  0  0  0
    7.6122   25.2234    2.4243 C   0  0  0  0  0  0  0  0  0  0  0  0
    7.4380   24.0973    3.2973 C   0  0  0  0  0  0  0  0  0  0  0  0
    8.5829   23.3603    3.7333 C   0  0  0  0  0  0  0  0  0  0  0  0
   14.9351   23.0304    7.1806 C   0  0  0  0  0  0  0  0  0  0  0  0
   16.2533   22.5210    7.5212 O   0  0  0  0  0  0  0  0  0  0  0  0
   16.4491   21.5303    8.4539 C   0  0  0  0  0  0  0  0  0  0  0  0
   17.7643   21.1184    8.8837 C   0  0  0  0  0  0  0  0  0  0  0  0
   17.9291   20.0818    9.8487 C   0  0  0  0  0  0  0  0  0  0  0  0
   16.7809   19.4355   10.3957 C   0  0  0  0  0  0  0  0  0  0  0  0
   15.4764   19.8263    9.9854 C   0  0  0  0  0  0  0  0  0  0  0  0
   15.3145   20.8724    9.0198 C   0  0  0  0  0  0  0  0  0  0  0  0
   10.8772   25.3166    5.9484 C   0  0  0  0  0  0  0  0  0  0  0  0
   10.0020   25.0050    7.0595 O   0  0  0  0  0  0  0  0  0  0  0  0
    9.5998   26.0157    7.9227 C   0  0  0  0  0  0  0  0  0  0  0  0
    8.2154   26.4105    8.0347 C   0  0  0  0  0  0  0  0  0  0  0  0
    7.8134   27.4522    8.9283 C   0  0  0  0  0  0  0  0  0  0  0  0
    8.7986   28.1124    9.7279 C   0  0  0  0  0  0  0  0  0  0  0  0
   10.1738   27.7346    9.6319 C   0  0  0  0  0  0  0  0  0  0  0  0
   10.5682   26.6929    8.7321 C   0  0  0  0  0  0  0  0  0  0  0  0
  1  2  1  0  0  0
  1  7  1  0  0  0
  1 14  1  0  0  0
  2  3  1  0  0  0
  2  8  2  0  0  0
  2 11  2  0  0  0
  3  4  1  0  0  0
  3 26  1  0  0  0
  4  5  1  0  0  0
  4 41  1  0  0  0
  5  6  1  0  0  0
  5  9  1  0  0  0
  6  7  1  0  0  0
  6 10  1  0  0  0
  7 33  1  0  0  0
 14 15  1  0  0  0
 15 16  2  0  0  0
 15 20  1  0  0  0
 16 17  1  0  0  0
 17 18  2  0  0  0
 17 21  1  0  0  0
 18 19  1  0  0  0
 19 20  2  0  0  0
 42 43  1  0  0  0
 42 41  1  0  0  0
 43 44  2  0  0  0
 43 48  1  0  0  0
 44 45  1  0  0  0
 45 46  2  0  0  0
 46 47  1  0  0  0
 47 48  2  0  0  0
 26 27  1  0  0  0
 27 28  2  0  0  0
 27 32  1  0  0  0
 28 29  1  0  0  0
 29 30  2  0  0  0
 30 31  1  0  0  0
 31 32  2  0  0  0
 33 34  1  0  0  0
 34 35  1  0  0  0
 35 36  2  0  0  0
 35 40  1  0  0  0
 36 37  1  0  0  0
 37 38  2  0  0  0
 38 39  1  0  0  0
 39 40  2  0  0  0
 21 22  2  0  0  0
 21 23  1  0  0  0
 23 24  1  0  0  0
  9 12  1  0  0  0
 10 13  1  0  0  0
 23 25  1  0  0  0
M  END
> <minimizedAffinity>
-10.74533

$$$$
1G2K_NM1_B_501


 48 52  0  0  0  0  0  0  0  0999 V2000
   15.3254   21.5141    5.2730 N   0  0  0  0  0  0  0  0  0  0  0  0
   13.8126   20.9996    4.8514 S   0  0  0  0  0  0  0  0  0  0  0  0
   12.9126   22.2822    5.3484 N   0  0  0  0  0  0  0  0  0  0  0  0
   12.7472   22.3798    6.8174 C   0  0  0  0  0  0  0  0  0  0  0  0
   13.7939   23.2841    7.4890 C   0  0  0  0  0  0  0  0  0  0  0  0
   15.1838   23.2575    6.8633 C   0  0  0  0  0  0  0  0  0  0  0  0
   15.8015   21.8692    6.6210 C   0  0  0  0  0  0  0  0  0  0  0  0
   13.4264   19.7993    5.5921 O   0  0  0  0  0  0  0  0  0  0  0  0
   13.3645   24.6292    7.4565 O   0  0  0  0  0  0  0  0  0  0  0  0
   16.0325   24.0430    7.6909 O   0  0  0  0  0  0  0  0  0  0  0  0
   13.7212   20.9528    3.3926 O   0  0  0  0  0  0  0  0  0  0  0  0
   13.3089   24.9287    6.5356 H   0  0  0  0  0  0  0  0  0  0  0  0
   16.0882   23.6403    8.5716 H   0  0  0  0  0  0  0  0  0  0  0  0
   16.3637   20.9744    4.5088 C   0  0  0  0  0  0  0  0  0  0  0  0
   16.8614   19.5902    4.4094 C   0  0  0  0  0  0  0  0  0  0  0  0
   17.4994   18.9643    5.5053 C   0  0  0  0  0  0  0  0  0  0  0  0
   17.9927   17.6405    5.3697 C   0  0  0  0  0  0  0  0  0  0  0  0
   17.8437   16.9372    4.1196 C   0  0  0  0  0  0  0  0  0  0  0  0
   17.2039   17.5643    3.0194 C   0  0  0  0  0  0  0  0  0  0  0  0
   16.7156   18.8919    3.1654 C   0  0  0  0  0  0  0  0  0  0  0  0
   18.6884   16.9860    6.5199 C   0  0  0  0  0  0  0  0  0  0  0  0
   19.9003   16.6733    6.3984 O   0  0  0  0  0  0  0  0  0  0  0  0
   17.9901   16.7216    7.6820 N   0  0  0  0  0  0  0  0  0  0  0  0
   18.7060   16.0583    8.7527 C   0  0  0  0  0  0  0  0  0  0  0  0
   17.0434   16.9739    7.7788 H   0  0  0  0  0  0  0  0  0  0  0  0
   12.7626   23.4498    4.4118 C   0  0  0  0  0  0  0  0  0  0  0  0
   11.4599   23.6765    3.6814 C   0  0  0  0  0  0  0  0  0  0  0  0
   11.1751   24.9499    3.0989 C   0  0  0  0  0  0  0  0  0  0  0  0
    9.9438   25.1664    2.3983 C   0  0  0  0  0  0  0  0  0  0  0  0
    8.9894   24.1001    2.2804 C   0  0  0  0  0  0  0  0  0  0  0  0
    9.2660   22.8188    2.8657 C   0  0  0  0  0  0  0  0  0  0  0  0
   10.4978   22.6136    3.5620 C   0  0  0  0  0  0  0  0  0  0  0  0
   15.6548   20.7045    7.6386 C   0  0  0  0  0  0  0  0  0  0  0  0
   16.6748   20.8839    8.6588 O   0  0  0  0  0  0  0  0  0  0  0  0
   16.9340   19.9407    9.6246 C   0  0  0  0  0  0  0  0  0  0  0  0
   18.1617   19.9251   10.3840 C   0  0  0  0  0  0  0  0  0  0  0  0
   18.3990   18.9265   11.3736 C   0  0  0  0  0  0  0  0  0  0  0  0
   17.4145   17.9229   11.6162 C   0  0  0  0  0  0  0  0  0  0  0  0
   16.1984   17.9204   10.8786 C   0  0  0  0  0  0  0  0  0  0  0  0
   15.9610   18.9290    9.8890 C   0  0  0  0  0  0  0  0  0  0  0  0
   11.3156   22.7545    7.2145 C   0  0  0  0  0  0  0  0  0  0  0  0
   11.0183   24.1265    6.8580 O   0  0  0  0  0  0  0  0  0  0  0  0
   10.2416   24.9047    7.7063 C   0  0  0  0  0  0  0  0  0  0  0  0
   10.6505   26.2310    8.1045 C   0  0  0  0  0  0  0  0  0  0  0  0
    9.8413   27.0234    8.9779 C   0  0  0  0  0  0  0  0  0  0  0  0
    8.6037   26.4949    9.4628 C   0  0  0  0  0  0  0  0  0  0  0  0
    8.1815   25.1844    9.0787 C   0  0  0  0  0  0  0  0  0  0  0  0
    8.9994   24.3965    8.2066 C   0  0  0  0  0  0  0  0  0  0  0  0
  1  2  1  0  0  0
  1  7  1  0  0  0
  1 14  1  0  0  0
  2  3  1  0  0  0
  2  8  2  0  0  0
  2 11  2  0  0  0
  3  4  1  0  0  0
  3 26  1  0  0  0
  4  5  1  0  0  0
  4 41  1  0  0  0
  5  6  1  0  0  0
  5  9  1  0  0  0
  6  7  1  0  0  0
  6 10  1  0  0  0
  7 33  1  0  0  0
 14 15  1  0  0  0
 15 16  2  0  0  0
 15 20  1  0  0  0
 16 17  1  0  0  0
 17 18  2  0  0  0
 17 21  1  0  0  0
 18 19  1  0  0  0
 19 20  2  0  0  0
 42 43  1  0  0  0
 42 41  1  0  0  0
 43 44  2  0  0  0
 43 48  1  0  0  0
 44 45  1  0  0  0
 45 46  2  0  0  0
 46 47  1  0  0  0
 47 48  2  0  0  0
 26 27  1  0  0  0
 27 28  2  0  0  0
 27 32  1  0  0  0
 28 29  1  0  0  0
 29 30  2  0  0  0
 30 31  1  0  0  0
 31 32  2  0  0  0
 33 34  1  0  0  0
 34 35  1  0  0  0
 35 36  2  0  0  0
 35 40  1  0  0  0
 36 37  1  0  0  0
 37 38  2  0  0  0
 38 39  1  0  0  0
 39 40  2  0  0  0
 21 22  2  0  0  0
 21 23  1  0  0  0
 23 24  1  0  0  0
  9 12  1  0  0  0
 10 13  1  0  0  0
 23 25  1  0  0  0
M  END
> <minimizedAffinity>
-9.77802

$$$$
1G2K_NM1_B_501


 48 52  0  0  0  0  0  0  0  0999 V2000
   12.0455   22.4931    4.7423 N   0  0  0  0  0  0  0  0  0  0  0  0
   11.4538   22.1541    6.2476 S   0  0  0  0  0  0  0  0  0  0  0  0
   12.5487   22.9461    7.1833 N   0  0  0  0  0  0  0  0  0  0  0  0
   13.8694   22.2810    7.2741 C   0  0  0  0  0  0  0  0  0  0  0  0
   14.8833   22.7974    6.2399 C   0  0  0  0  0  0  0  0  0  0  0  0
   14.3007   23.1872    4.8862 C   0  0  0  0  0  0  0  0  0  0  0  0
   13.3782   22.1561    4.2129 C   0  0  0  0  0  0  0  0  0  0  0  0
   11.4956   20.7202    6.5319 O   0  0  0  0  0  0  0  0  0  0  0  0
   15.5430   23.9426    6.7380 O   0  0  0  0  0  0  0  0  0  0  0  0
   15.3935   23.5089    4.0350 O   0  0  0  0  0  0  0  0  0  0  0  0
   10.1729   22.8397    6.4149 O   0  0  0  0  0  0  0  0  0  0  0  0
   14.9004   24.6592    6.8583 H   0  0  0  0  0  0  0  0  0  0  0  0
   15.9493   22.7235    3.9117 H   0  0  0  0  0  0  0  0  0  0  0  0
   11.0918   22.4853    3.7206 C   0  0  0  0  0  0  0  0  0  0  0  0
   10.2404   23.5685    3.1958 C   0  0  0  0  0  0  0  0  0  0  0  0
    8.8306   23.4910    3.2748 C   0  0  0  0  0  0  0  0  0  0  0  0
    8.0374   24.5370    2.7354 C   0  0  0  0  0  0  0  0  0  0  0  0
    8.6668   25.6737    2.1097 C   0  0  0  0  0  0  0  0  0  0  0  0
   10.0813   25.7523    2.0298 C   0  0  0  0  0  0  0  0  0  0  0  0
   10.8664   24.6973    2.5712 C   0  0  0  0  0  0  0  0  0  0  0  0
    6.5464   24.4455    2.7970 C   0  0  0  0  0  0  0  0  0  0  0  0
    5.8682   24.9442    1.8630 O   0  0  0  0  0  0  0  0  0  0  0  0
    5.9419   23.8350    3.8786 N   0  0  0  0  0  0  0  0  0  0  0  0
    4.4936   23.8019    3.9009 C   0  0  0  0  0  0  0  0  0  0  0  0
    6.4741   23.4380    4.6056 H   0  0  0  0  0  0  0  0  0  0  0  0
   12.3325   24.4121    7.4425 C   0  0  0  0  0  0  0  0  0  0  0  0
   10.9875   25.0427    7.1682 C   0  0  0  0  0  0  0  0  0  0  0  0
    9.9376   24.9436    8.1324 C   0  0  0  0  0  0  0  0  0  0  0  0
    8.6628   25.5474    7.8792 C   0  0  0  0  0  0  0  0  0  0  0  0
    8.4367   26.2555    6.6507 C   0  0  0  0  0  0  0  0  0  0  0  0
    9.4848   26.3569    5.6751 C   0  0  0  0  0  0  0  0  0  0  0  0
   10.7529   25.7512    5.9382 C   0  0  0  0  0  0  0  0  0  0  0  0
   13.6720   20.6309    4.2453 C   0  0  0  0  0  0  0  0  0  0  0  0
   14.6761   20.3571    3.2304 O   0  0  0  0  0  0  0  0  0  0  0  0
   15.7870   19.5847    3.4733 C   0  0  0  0  0  0  0  0  0  0  0  0
   16.1947   18.5143    2.5946 C   0  0  0  0  0  0  0  0  0  0  0  0
   17.3495   17.7291    2.8823 C   0  0  0  0  0  0  0  0  0  0  0  0
   18.1126   17.9976    4.0574 C   0  0  0  0  0  0  0  0  0  0  0  0
   17.7277   19.0475    4.9363 C   0  0  0  0  0  0  0  0  0  0  0  0
   16.5699   19.8383    4.6407 C   0  0  0  0  0  0  0  0  0  0  0  0
   14.4312   22.3030    8.6994 C   0  0  0  0  0  0  0  0  0  0  0  0
   15.8325   21.9371    8.7127 O   0  0  0  0  0  0  0  0  0  0  0  0
   16.2024   20.6435    9.0561 C   0  0  0  0  0  0  0  0  0  0  0  0
   17.3642   20.0090    8.4793 C   0  0  0  0  0  0  0  0  0  0  0  0
   17.7356   18.6764    8.8419 C   0  0  0  0  0  0  0  0  0  0  0  0
   16.9450   17.9603    9.7949 C   0  0  0  0  0  0  0  0  0  0  0  0
   15.7921   18.5721   10.3777 C   0  0  0  0  0  0  0  0  0  0  0  0
   15.4254   19.9055   10.0065 C   0  0  0  0  0  0  0  0  0  0  0  0
  1  2  1  0  0  0
  1  7  1  0  0  0
  1 14  1  0  0  0
  2  3  1  0  0  0
  2  8  2  0  0  0
  2 11  2  0  0  0
  3  4  1  0  0  0
  3 26  1  0  0  0
  4  5  1  0  0  0
  4 41  1  0  0  0
  5  6  1  0  0  0
  5  9  1  0  0  0
  6  7  1  0  0  0
  6 10  1  0  0  0
  7 33  1  0  0  0
 14 15  1  0  0  0
 15 16  2  0  0  0
 15 20  1  0  0  0
 16 17  1  0  0  0
 17 18  2  0  0  0
 17 21  1  0  0  0
 18 19  1  0  0  0
 19 20  2  0  0  0
 42 43  1  0  0  0
 42 41  1  0  0  0
 43 44  2  0  0  0
 43 48  1  0  0  0
 44 45  1  0  0  0
 45 46  2  0  0  0
 46 47  1  0  0  0
 47 48  2  0  0  0
 26 27  1  0  0  0
 27 28  2  0  0  0
 27 32  1  0  0  0
 28 29  1  0  0  0
 29 30  2  0  0  0
 30 31  1  0  0  0
 31 32  2  0  0  0
 33 34  1  0  0  0
 34 35  1  0  0  0
 35 36  2  0  0  0
 35 40  1  0  0  0
 36 37  1  0  0  0
 37 38  2  0  0  0
 38 39  1  0  0  0
 39 40  2  0  0  0
 21 22  2  0  0  0
 21 23  1  0  0  0
 23 24  1  0  0  0
  9 12  1  0  0  0
 10 13  1  0  0  0
 23 25  1  0  0  0
M  END
> <minimizedAffinity>
-9.47418

$$$$
1G2K_NM1_B_501


 48 52  0  0  0  0  0  0  0  0999 V2000
   12.7238   23.7276    6.0901 N   0  0  0  0  0  0  0  0  0  0  0  0
   12.2381   25.1334    5.3698 S   0  0  0  0  0  0  0  0  0  0  0  0
   10.8223   24.6466    4.6911 N   0  0  0  0  0  0  0  0  0  0  0  0
   10.9819   23.7897    3.4933 C   0  0  0  0  0  0  0  0  0  0  0  0
   10.9562   22.2859    3.8130 C   0  0  0  0  0  0  0  0  0  0  0  0
   11.5830   21.8860    5.1438 C   0  0  0  0  0  0  0  0  0  0  0  0
   12.9904   22.4365    5.4331 C   0  0  0  0  0  0  0  0  0  0  0  0
   13.1739   25.5558    4.3285 O   0  0  0  0  0  0  0  0  0  0  0  0
    9.6235   21.8190    3.8403 O   0  0  0  0  0  0  0  0  0  0  0  0
   11.5827   20.4651    5.1986 O   0  0  0  0  0  0  0  0  0  0  0  0
   11.9018   26.1038    6.4110 O   0  0  0  0  0  0  0  0  0  0  0  0
    9.1443   22.2510    4.5646 H   0  0  0  0  0  0  0  0  0  0  0  0
   12.1369   20.1138    4.4843 H   0  0  0  0  0  0  0  0  0  0  0  0
   13.5491   23.8938    7.2057 C   0  0  0  0  0  0  0  0  0  0  0  0
   14.6771   23.0793    7.6934 C   0  0  0  0  0  0  0  0  0  0  0  0
   14.4589   21.9493    8.5151 C   0  0  0  0  0  0  0  0  0  0  0  0
   15.5672   21.2017    8.9917 C   0  0  0  0  0  0  0  0  0  0  0  0
   16.9096   21.5931    8.6392 C   0  0  0  0  0  0  0  0  0  0  0  0
   17.1296   22.7269    7.8150 C   0  0  0  0  0  0  0  0  0  0  0  0
   16.0121   23.4704    7.3452 C   0  0  0  0  0  0  0  0  0  0  0  0
   15.3394   20.0207    9.8797 C   0  0  0  0  0  0  0  0  0  0  0  0
   14.4984   20.1134   10.8098 O   0  0  0  0  0  0  0  0  0  0  0  0
   16.0630   18.8617    9.6769 N   0  0  0  0  0  0  0  0  0  0  0  0
   15.8235   17.7595   10.5861 C   0  0  0  0  0  0  0  0  0  0  0  0
   16.7157   18.7875    8.9435 H   0  0  0  0  0  0  0  0  0  0  0  0
    9.5822   24.6694    5.5424 C   0  0  0  0  0  0  0  0  0  0  0  0
    8.7814   25.9423    5.6860 C   0  0  0  0  0  0  0  0  0  0  0  0
    8.1465   26.2554    6.9272 C   0  0  0  0  0  0  0  0  0  0  0  0
    7.3926   27.4658    7.0696 C   0  0  0  0  0  0  0  0  0  0  0  0
    7.2726   28.3699    5.9606 C   0  0  0  0  0  0  0  0  0  0  0  0
    7.9044   28.0614    4.7091 C   0  0  0  0  0  0  0  0  0  0  0  0
    8.6545   26.8512    4.5781 C   0  0  0  0  0  0  0  0  0  0  0  0
   14.0873   22.5328    4.3371 C   0  0  0  0  0  0  0  0  0  0  0  0
   14.2305   21.2131    3.7444 O   0  0  0  0  0  0  0  0  0  0  0  0
   15.3340   20.4204    3.9531 C   0  0  0  0  0  0  0  0  0  0  0  0
   16.2077   20.5906    5.0897 C   0  0  0  0  0  0  0  0  0  0  0  0
   17.3478   19.7537    5.2700 C   0  0  0  0  0  0  0  0  0  0  0  0
   17.6366   18.7360    4.3129 C   0  0  0  0  0  0  0  0  0  0  0  0
   16.7886   18.5520    3.1859 C   0  0  0  0  0  0  0  0  0  0  0  0
   15.6405   19.3913    3.0112 C   0  0  0  0  0  0  0  0  0  0  0  0
    9.9983   24.1636    2.3796 C   0  0  0  0  0  0  0  0  0  0  0  0
    8.7266   23.4945    2.5614 O   0  0  0  0  0  0  0  0  0  0  0  0
    7.5553   24.2398    2.5913 C   0  0  0  0  0  0  0  0  0  0  0  0
    7.3199   25.3193    1.6617 C   0  0  0  0  0  0  0  0  0  0  0  0
    6.1089   26.0790    1.7018 C   0  0  0  0  0  0  0  0  0  0  0  0
    5.1117   25.7622    2.6771 C   0  0  0  0  0  0  0  0  0  0  0  0
    5.3260   24.6963    3.6050 C   0  0  0  0  0  0  0  0  0  0  0  0
    6.5429   23.9429    3.5601 C   0  0  0  0  0  0  0  0  0  0  0  0
  1  2  1  0  0  0
  1  7  1  0  0  0
  1 14  1  0  0  0
  2  3  1  0  0  0
  2  8  2  0  0  0
  2 11  2  0  0  0
  3  4  1  0  0  0
  3 26  1  0  0  0
  4  5  1  0  0  0
  4 41  1  0  0  0
  5  6  1  0  0  0
  5  9  1  0  0  0
  6  7  1  0  0  0
  6 10  1  0  0  0
  7 33  1  0  0  0
 14 15  1  0  0  0
 15 16  2  0  0  0
 15 20  1  0  0  0
 16 17  1  0  0  0
 17 18  2  0  0  0
 17 21  1  0  0  0
 18 19  1  0  0  0
 19 20  2  0  0  0
 42 43  1  0  0  0
 42 41  1  0  0  0
 43 44  2  0  0  0
 43 48  1  0  0  0
 44 45  1  0  0  0
 45 46  2  0  0  0
 46 47  1  0  0  0
 47 48  2  0  0  0
 26 27  1  0  0  0
 27 28  2  0  0  0
 27 32  1  0  0  0
 28 29  1  0  0  0
 29 30  2  0  0  0
 30 31  1  0  0  0
 31 32  2  0  0  0
 33 34  1  0  0  0
 34 35  1  0  0  0
 35 36  2  0  0  0
 35 40  1  0  0  0
 36 37  1  0  0  0
 37 38  2  0  0  0
 38 39  1  0  0  0
 39 40  2  0  0  0
 21 22  2  0  0  0
 21 23  1  0  0  0
 23 24  1  0  0  0
  9 12  1  0  0  0
 10 13  1  0  0  0
 23 25  1  0  0  0
M  END
> <minimizedAffinity>
-9.42921

$$$$
1G2K_NM1_B_501


 48 52  0  0  0  0  0  0  0  0999 V2000
   10.2463   24.4113    4.8614 N   0  0  0  0  0  0  0  0  0  0  0  0
   11.7256   24.5529    4.1386 S   0  0  0  0  0  0  0  0  0  0  0  0
   12.5434   23.3439    4.8946 N   0  0  0  0  0  0  0  0  0  0  0  0
   12.9165   23.6426    6.2968 C   0  0  0  0  0  0  0  0  0  0  0  0
   11.8898   23.1327    7.3216 C   0  0  0  0  0  0  0  0  0  0  0  0
   10.4329   23.1888    6.8761 C   0  0  0  0  0  0  0  0  0  0  0  0
    9.9425   24.5277    6.2981 C   0  0  0  0  0  0  0  0  0  0  0  0
   12.3488   25.8419    4.4361 O   0  0  0  0  0  0  0  0  0  0  0  0
   12.1585   21.7850    7.6475 O   0  0  0  0  0  0  0  0  0  0  0  0
    9.6374   22.8060    7.9908 O   0  0  0  0  0  0  0  0  0  0  0  0
   11.6007   24.1705    2.7325 O   0  0  0  0  0  0  0  0  0  0  0  0
   12.0414   21.2322    6.8591 H   0  0  0  0  0  0  0  0  0  0  0  0
    9.7598   23.4452    8.7101 H   0  0  0  0  0  0  0  0  0  0  0  0
    9.1705   24.8615    4.0910 C   0  0  0  0  0  0  0  0  0  0  0  0
    8.1953   25.9382    4.3430 C   0  0  0  0  0  0  0  0  0  0  0  0
    6.8295   25.6473    4.5661 C   0  0  0  0  0  0  0  0  0  0  0  0
    5.9101   26.7075    4.7781 C   0  0  0  0  0  0  0  0  0  0  0  0
    6.3672   28.0752    4.7660 C   0  0  0  0  0  0  0  0  0  0  0  0
    7.7374   28.3681    4.5420 C   0  0  0  0  0  0  0  0  0  0  0  0
    8.6495   27.2983    4.3282 C   0  0  0  0  0  0  0  0  0  0  0  0
    4.4619   26.4030    4.9906 C   0  0  0  0  0  0  0  0  0  0  0  0
    3.6037   27.2442    4.6205 O   0  0  0  0  0  0  0  0  0  0  0  0
    4.0933   25.2199    5.6010 N   0  0  0  0  0  0  0  0  0  0  0  0
    2.6779   24.9908    5.8091 C   0  0  0  0  0  0  0  0  0  0  0  0
    4.7657   24.5585    5.8834 H   0  0  0  0  0  0  0  0  0  0  0  0
   12.4210   21.9502    4.3417 C   0  0  0  0  0  0  0  0  0  0  0  0
   13.6546   21.1038    4.1326 C   0  0  0  0  0  0  0  0  0  0  0  0
   14.2297   20.9817    2.8302 C   0  0  0  0  0  0  0  0  0  0  0  0
   15.4047   20.1862    2.6293 C   0  0  0  0  0  0  0  0  0  0  0  0
   16.0085   19.5066    3.7408 C   0  0  0  0  0  0  0  0  0  0  0  0
   15.4352   19.6210    5.0518 C   0  0  0  0  0  0  0  0  0  0  0  0
   14.2632   20.4177    5.2410 C   0  0  0  0  0  0  0  0  0  0  0  0
   10.3683   25.8973    6.8953 C   0  0  0  0  0  0  0  0  0  0  0  0
    9.8728   25.9521    8.2609 O   0  0  0  0  0  0  0  0  0  0  0  0
    9.0827   26.9770    8.7243 C   0  0  0  0  0  0  0  0  0  0  0  0
    9.4179   27.7441    9.9004 C   0  0  0  0  0  0  0  0  0  0  0  0
    8.5703   28.7962   10.3558 C   0  0  0  0  0  0  0  0  0  0  0  0
    7.3696   29.0950    9.6456 C   0  0  0  0  0  0  0  0  0  0  0  0
    7.0210   28.3510    8.4846 C   0  0  0  0  0  0  0  0  0  0  0  0
    7.8784   27.2981    8.0266 C   0  0  0  0  0  0  0  0  0  0  0  0
   14.3415   23.1858    6.6258 C   0  0  0  0  0  0  0  0  0  0  0  0
   14.5148   23.0067    8.0527 O   0  0  0  0  0  0  0  0  0  0  0  0
   15.4389   22.0830    8.5227 C   0  0  0  0  0  0  0  0  0  0  0  0
   16.8382   22.1673    8.1763 C   0  0  0  0  0  0  0  0  0  0  0  0
   17.7807   21.2104    8.6677 C   0  0  0  0  0  0  0  0  0  0  0  0
   17.3308   20.1534    9.5199 C   0  0  0  0  0  0  0  0  0  0  0  0
   15.9498   20.0541    9.8749 C   0  0  0  0  0  0  0  0  0  0  0  0
   15.0122   21.0144    9.3758 C   0  0  0  0  0  0  0  0  0  0  0  0
  1  2  1  0  0  0
  1  7  1  0  0  0
  1 14  1  0  0  0
  2  3  1  0  0  0
  2  8  2  0  0  0
  2 11  2  0  0  0
  3  4  1  0  0  0
  3 26  1  0  0  0
  4  5  1  0  0  0
  4 41  1  0  0  0
  5  6  1  0  0  0
  5  9  1  0  0  0
  6  7  1  0  0  0
  6 10  1  0  0  0
  7 33  1  0  0  0
 14 15  1  0  0  0
 15 16  2  0  0  0
 15 20  1  0  0  0
 16 17  1  0  0  0
 17 18  2  0  0  0
 17 21  1  0  0  0
 18 19  1  0  0  0
 19 20  2  0  0  0
 42 43  1  0  0  0
 42 41  1  0  0  0
 43 44  2  0  0  0
 43 48  1  0  0  0
 44 45  1  0  0  0
 45 46  2  0  0  0
 46 47  1  0  0  0
 47 48  2  0  0  0
 26 27  1  0  0  0
 27 28  2  0  0  0
 27 32  1  0  0  0
 28 29  1  0  0  0
 29 30  2  0  0  0
 30 31  1  0  0  0
 31 32  2  0  0  0
 33 34  1  0  0  0
 34 35  1  0  0  0
 35 36  2  0  0  0
 35 40  1  0  0  0
 36 37  1  0  0  0
 37 38  2  0  0  0
 38 39  1  0  0  0
 39 40  2  0  0  0
 21 22  2  0  0  0
 21 23  1  0  0  0
 23 24  1  0  0  0
  9 12  1  0  0  0
 10 13  1  0  0  0
 23 25  1  0  0  0
M  END
> <minimizedAffinity>
-9.42365

$$$$
1G2K_NM1_B_501


 48 52  0  0  0  0  0  0  0  0999 V2000
   11.4150   23.3910    4.4237 N   0  0  0  0  0  0  0  0  0  0  0  0
   13.0452   23.4427    4.1577 S   0  0  0  0  0  0  0  0  0  0  0  0
   13.5900   22.6542    5.4931 N   0  0  0  0  0  0  0  0  0  0  0  0
   13.5118   23.4447    6.7437 C   0  0  0  0  0  0  0  0  0  0  0  0
   12.2190   23.1991    7.5390 C   0  0  0  0  0  0  0  0  0  0  0  0
   10.9709   22.9430    6.7020 C   0  0  0  0  0  0  0  0  0  0  0  0
   10.6825   23.9486    5.5736 C   0  0  0  0  0  0  0  0  0  0  0  0
   13.5456   24.8167    4.1479 O   0  0  0  0  0  0  0  0  0  0  0  0
   12.3745   22.0766    8.3820 O   0  0  0  0  0  0  0  0  0  0  0  0
    9.8702   22.8717    7.5994 O   0  0  0  0  0  0  0  0  0  0  0  0
   13.3607   22.5998    3.0050 O   0  0  0  0  0  0  0  0  0  0  0  0
   12.5067   21.2821    7.8414 H   0  0  0  0  0  0  0  0  0  0  0  0
    9.7642   23.7244    8.0495 H   0  0  0  0  0  0  0  0  0  0  0  0
   10.6295   23.4365    3.2686 C   0  0  0  0  0  0  0  0  0  0  0  0
    9.4902   24.3040    2.9177 C   0  0  0  0  0  0  0  0  0  0  0  0
    8.1577   23.8655    3.0965 C   0  0  0  0  0  0  0  0  0  0  0  0
    7.0823   24.7130    2.7231 C   0  0  0  0  0  0  0  0  0  0  0  0
    7.3477   26.0155    2.1639 C   0  0  0  0  0  0  0  0  0  0  0  0
    8.6844   26.4563    1.9839 C   0  0  0  0  0  0  0  0  0  0  0  0
    9.7544   25.5980    2.3591 C   0  0  0  0  0  0  0  0  0  0  0  0
    5.6733   24.2416    2.8896 C   0  0  0  0  0  0  0  0  0  0  0  0
    4.8617   24.4071    1.9435 O   0  0  0  0  0  0  0  0  0  0  0  0
    5.2840   23.6523    4.0767 N   0  0  0  0  0  0  0  0  0  0  0  0
    3.8993   23.2425    4.1940 C   0  0  0  0  0  0  0  0  0  0  0  0
    5.9222   23.5162    4.8139 H   0  0  0  0  0  0  0  0  0  0  0  0
   13.6448   21.1513    5.4573 C   0  0  0  0  0  0  0  0  0  0  0  0
   14.9011   20.4466    5.0022 C   0  0  0  0  0  0  0  0  0  0  0  0
   16.1154   20.5946    5.7407 C   0  0  0  0  0  0  0  0  0  0  0  0
   17.3073   19.9213    5.3166 C   0  0  0  0  0  0  0  0  0  0  0  0
   17.2838   19.0936    4.1435 C   0  0  0  0  0  0  0  0  0  0  0  0
   16.0690   18.9422    3.3938 C   0  0  0  0  0  0  0  0  0  0  0  0
   14.8857   19.6182    3.8261 C   0  0  0  0  0  0  0  0  0  0  0  0
   10.9025   25.4769    5.7452 C   0  0  0  0  0  0  0  0  0  0  0  0
    9.6106   26.0744    6.0405 O   0  0  0  0  0  0  0  0  0  0  0  0
    9.3551   26.7532    7.2082 C   0  0  0  0  0  0  0  0  0  0  0  0
   10.0976   26.5139    8.4229 C   0  0  0  0  0  0  0  0  0  0  0  0
    9.7999   27.2325    9.6178 C   0  0  0  0  0  0  0  0  0  0  0  0
    8.7502   28.1986    9.6194 C   0  0  0  0  0  0  0  0  0  0  0  0
    8.0065   28.4491    8.4332 C   0  0  0  0  0  0  0  0  0  0  0  0
    8.3125   27.7291    7.2327 C   0  0  0  0  0  0  0  0  0  0  0  0
   14.7658   23.2832    7.6092 C   0  0  0  0  0  0  0  0  0  0  0  0
   14.5821   22.2468    8.6042 O   0  0  0  0  0  0  0  0  0  0  0  0
   15.6698   21.4883    9.0161 C   0  0  0  0  0  0  0  0  0  0  0  0
   15.4996   20.2376    9.7174 C   0  0  0  0  0  0  0  0  0  0  0  0
   16.6279   19.4647   10.1356 C   0  0  0  0  0  0  0  0  0  0  0  0
   17.9480   19.9363    9.8514 C   0  0  0  0  0  0  0  0  0  0  0  0
   18.1367   21.1713    9.1570 C   0  0  0  0  0  0  0  0  0  0  0  0
   17.0015   21.9407    8.7449 C   0  0  0  0  0  0  0  0  0  0  0  0
  1  2  1  0  0  0
  1  7  1  0  0  0
  1 14  1  0  0  0
  2  3  1  0  0  0
  2  8  2  0  0  0
  2 11  2  0  0  0
  3  4  1  0  0  0
  3 26  1  0  0  0
  4  5  1  0  0  0
  4 41  1  0  0  0
  5  6  1  0  0  0
  5  9  1  0  0  0
  6  7  1  0  0  0
  6 10  1  0  0  0
  7 33  1  0  0  0
 14 15  1  0  0  0
 15 16  2  0  0  0
 15 20  1  0  0  0
 16 17  1  0  0  0
 17 18  2  0  0  0
 17 21  1  0  0  0
 18 19  1  0  0  0
 19 20  2  0  0  0
 42 43  1  0  0  0
 42 41  1  0  0  0
 43 44  2  0  0  0
 43 48  1  0  0  0
 44 45  1  0  0  0
 45 46  2  0  0  0
 46 47  1  0  0  0
 47 48  2  0  0  0
 26 27  1  0  0  0
 27 28  2  0  0  0
 27 32  1  0  0  0
 28 29  1  0  0  0
 29 30  2  0  0  0
 30 31  1  0  0  0
 31 32  2  0  0  0
 33 34  1  0  0  0
 34 35  1  0  0  0
 35 36  2  0  0  0
 35 40  1  0  0  0
 36 37  1  0  0  0
 37 38  2  0  0  0
 38 39  1  0  0  0
 39 40  2  0  0  0
 21 22  2  0  0  0
 21 23  1  0  0  0
 23 24  1  0  0  0
  9 12  1  0  0  0
 10 13  1  0  0  0
 23 25  1  0  0  0
M  END
> <minimizedAffinity>
-9.33622

$$$$
1G2K_NM1_B_501


 48 52  0  0  0  0  0  0  0  0999 V2000
   15.0449   21.9032    6.4502 N   0  0  0  0  0  0  0  0  0  0  0  0
   14.8768   23.5460    6.3878 S   0  0  0  0  0  0  0  0  0  0  0  0
   13.2423   23.6740    6.2706 N   0  0  0  0  0  0  0  0  0  0  0  0
   12.6949   23.3123    4.9423 C   0  0  0  0  0  0  0  0  0  0  0  0
   12.2494   21.8438    4.8470 C   0  0  0  0  0  0  0  0  0  0  0  0
   13.0912   20.8489    5.6379 C   0  0  0  0  0  0  0  0  0  0  0  0
   14.6146   20.9251    5.4362 C   0  0  0  0  0  0  0  0  0  0  0  0
   15.5102   24.1069    5.1951 O   0  0  0  0  0  0  0  0  0  0  0  0
   10.9233   21.7083    5.3139 O   0  0  0  0  0  0  0  0  0  0  0  0
   12.6113   19.5480    5.3226 O   0  0  0  0  0  0  0  0  0  0  0  0
   15.2579   24.1074    7.6834 O   0  0  0  0  0  0  0  0  0  0  0  0
   10.8877   21.9342    6.2565 H   0  0  0  0  0  0  0  0  0  0  0  0
   12.7443   19.3745    4.3775 H   0  0  0  0  0  0  0  0  0  0  0  0
   16.1896   21.4546    7.1147 C   0  0  0  0  0  0  0  0  0  0  0  0
   16.3364   20.5289    8.2529 C   0  0  0  0  0  0  0  0  0  0  0  0
   17.2622   19.4609    8.2094 C   0  0  0  0  0  0  0  0  0  0  0  0
   17.3605   18.5699    9.3097 C   0  0  0  0  0  0  0  0  0  0  0  0
   16.5197   18.7535   10.4669 C   0  0  0  0  0  0  0  0  0  0  0  0
   15.5903   19.8247   10.5115 C   0  0  0  0  0  0  0  0  0  0  0  0
   15.4983   20.7099    9.4023 C   0  0  0  0  0  0  0  0  0  0  0  0
   18.3220   17.4264    9.2555 C   0  0  0  0  0  0  0  0  0  0  0  0
   19.4162   17.5234    9.8675 O   0  0  0  0  0  0  0  0  0  0  0  0
   18.0033   16.2977    8.5258 N   0  0  0  0  0  0  0  0  0  0  0  0
   18.9852   15.2332    8.4831 C   0  0  0  0  0  0  0  0  0  0  0  0
   17.1431   16.2196    8.0534 H   0  0  0  0  0  0  0  0  0  0  0  0
   12.4356   23.6525    7.5403 C   0  0  0  0  0  0  0  0  0  0  0  0
   11.3597   24.6865    7.7754 C   0  0  0  0  0  0  0  0  0  0  0  0
    9.9905   24.3702    7.5161 C   0  0  0  0  0  0  0  0  0  0  0  0
    8.9662   25.3458    7.7456 C   0  0  0  0  0  0  0  0  0  0  0  0
    9.3150   26.6488    8.2378 C   0  0  0  0  0  0  0  0  0  0  0  0
   10.6884   26.9760    8.4977 C   0  0  0  0  0  0  0  0  0  0  0  0
   11.7022   25.9949    8.2657 C   0  0  0  0  0  0  0  0  0  0  0  0
   15.2578   21.1768    4.0446 C   0  0  0  0  0  0  0  0  0  0  0  0
   15.2200   19.9218    3.3118 O   0  0  0  0  0  0  0  0  0  0  0  0
   16.2711   19.0360    3.3003 C   0  0  0  0  0  0  0  0  0  0  0  0
   17.2351   18.9620    4.3724 C   0  0  0  0  0  0  0  0  0  0  0  0
   18.3171   18.0349    4.3228 C   0  0  0  0  0  0  0  0  0  0  0  0
   18.4565   17.1699    3.1969 C   0  0  0  0  0  0  0  0  0  0  0  0
   17.5177   17.2271    2.1300 C   0  0  0  0  0  0  0  0  0  0  0  0
   16.4283   18.1562    2.1861 C   0  0  0  0  0  0  0  0  0  0  0  0
   11.6007   24.2822    4.4843 C   0  0  0  0  0  0  0  0  0  0  0  0
   10.8935   23.7629    3.3319 O   0  0  0  0  0  0  0  0  0  0  0  0
    9.6470   24.2775    3.0005 C   0  0  0  0  0  0  0  0  0  0  0  0
    8.4254   23.6580    3.4576 C   0  0  0  0  0  0  0  0  0  0  0  0
    7.1475   24.1981    3.1105 C   0  0  0  0  0  0  0  0  0  0  0  0
    7.0775   25.3744    2.2996 C   0  0  0  0  0  0  0  0  0  0  0  0
    8.2758   26.0025    1.8387 C   0  0  0  0  0  0  0  0  0  0  0  0
    9.5512   25.4532    2.1880 C   0  0  0  0  0  0  0  0  0  0  0  0
  1  2  1  0  0  0
  1  7  1  0  0  0
  1 14  1  0  0  0
  2  3  1  0  0  0
  2  8  2  0  0  0
  2 11  2  0  0  0
  3  4  1  0  0  0
  3 26  1  0  0  0
  4  5  1  0  0  0
  4 41  1  0  0  0
  5  6  1  0  0  0
  5  9  1  0  0  0
  6  7  1  0  0  0
  6 10  1  0  0  0
  7 33  1  0  0  0
 14 15  1  0  0  0
 15 16  2  0  0  0
 15 20  1  0  0  0
 16 17  1  0  0  0
 17 18  2  0  0  0
 17 21  1  0  0  0
 18 19  1  0  0  0
 19 20  2  0  0  0
 42 43  1  0  0  0
 42 41  1  0  0  0
 43 44  2  0  0  0
 43 48  1  0  0  0
 44 45  1  0  0  0
 45 46  2  0  0  0
 46 47  1  0  0  0
 47 48  2  0  0  0
 26 27  1  0  0  0
 27 28  2  0  0  0
 27 32  1  0  0  0
 28 29  1  0  0  0
 29 30  2  0  0  0
 30 31  1  0  0  0
 31 32  2  0  0  0
 33 34  1  0  0  0
 34 35  1  0  0  0
 35 36  2  0  0  0
 35 40  1  0  0  0
 36 37  1  0  0  0
 37 38  2  0  0  0
 38 39  1  0  0  0
 39 40  2  0  0  0
 21 22  2  0  0  0
 21 23  1  0  0  0
 23 24  1  0  0  0
  9 12  1  0  0  0
 10 13  1  0  0  0
 23 25  1  0  0  0
M  END
> <minimizedAffinity>
-9.07092

$$$$
