3UCJ_AZM_A_229


 16 16  0  0  0  0  0  0  0  0999 V2000
   80.2577   52.6750  107.0804 C   0  0  0  0  0  0  0  0  0  0  0  0
   80.3471   54.5105  108.6489 C   0  0  0  0  0  0  0  0  0  0  0  0
   79.0785   54.2377  108.1929 N   0  0  0  0  0  0  0  0  0  0  0  0
   79.0028   53.0991  107.2322 N   0  0  0  0  0  0  0  0  0  0  0  0
   81.5358   53.4540  108.0417 S   0  0  0  0  0  0  0  0  0  0  0  0
   81.5424   50.2495  106.6763 N   0  0  0  0  0  0  0  0  0  0  0  0
   80.8860   51.6953  104.7421 O   0  0  0  0  0  0  0  0  0  0  0  0
   79.2678   50.6243  106.1714 O   0  0  0  0  0  0  0  0  0  0  0  0
   80.5856   51.3254  106.0226 S   0  0  0  0  0  0  0  0  0  0  0  0
   82.5039   50.5891  106.6504 H   0  0  0  0  0  0  0  0  0  0  0  0
   81.4766   49.3749  106.1556 H   0  0  0  0  0  0  0  0  0  0  0  0
   80.2701   55.6067  110.7662 C   0  0  0  0  0  0  0  0  0  0  0  0
   80.0168   56.9074  111.5058 C   0  0  0  0  0  0  0  0  0  0  0  0
   80.5333   55.6662  109.4590 N   0  0  0  0  0  0  0  0  0  0  0  0
   80.2233   54.4815  111.3318 O   0  0  0  0  0  0  0  0  0  0  0  0
   80.8547   56.5054  109.0569 H   0  0  0  0  0  0  0  0  0  0  0  0
  1  4  2  0  0  0
  1  9  1  0  0  0
  1  5  1  0  0  0
  2  3  2  0  0  0
  2 14  1  0  0  0
  2  5  1  0  0  0
 12 13  1  0  0  0
 12 14  1  0  0  0
 12 15  2  0  0  0
  6  9  1  0  0  0
  3  4  1  0  0  0
  7  9  2  0  0  0
  8  9  2  0  0  0
  6 10  1  0  0  0
  6 11  1  0  0  0
 14 16  1  0  0  0
M  END
> <minimizedAffinity>
-5.31623

$$$$
3UCJ_AZM_A_229


 16 16  0  0  0  0  0  0  0  0999 V2000
   81.0742   52.9636  106.1904 C   0  0  0  0  0  0  0  0  0  0  0  0
   81.2810   55.1481  107.2015 C   0  0  0  0  0  0  0  0  0  0  0  0
   81.3470   55.1691  105.8279 N   0  0  0  0  0  0  0  0  0  0  0  0
   81.2092   53.8298  105.1858 N   0  0  0  0  0  0  0  0  0  0  0  0
   81.0134   53.5977  107.8514 S   0  0  0  0  0  0  0  0  0  0  0  0
   81.5429   50.3291  106.9230 N   0  0  0  0  0  0  0  0  0  0  0  0
   81.1231   50.9446  104.5340 O   0  0  0  0  0  0  0  0  0  0  0  0
   79.4344   51.1416  106.2423 O   0  0  0  0  0  0  0  0  0  0  0  0
   80.8739   51.2654  105.8386 S   0  0  0  0  0  0  0  0  0  0  0  0
   82.5523   50.3082  106.7779 H   0  0  0  0  0  0  0  0  0  0  0  0
   81.1671   49.3849  106.8354 H   0  0  0  0  0  0  0  0  0  0  0  0
   80.5432   57.2107  108.1462 C   0  0  0  0  0  0  0  0  0  0  0  0
   80.8925   58.6556  108.4518 C   0  0  0  0  0  0  0  0  0  0  0  0
   81.5420   56.3591  107.9029 N   0  0  0  0  0  0  0  0  0  0  0  0
   79.3553   56.7932  108.0959 O   0  0  0  0  0  0  0  0  0  0  0  0
   82.4548   56.5675  108.2071 H   0  0  0  0  0  0  0  0  0  0  0  0
  1  4  2  0  0  0
  1  9  1  0  0  0
  1  5  1  0  0  0
  2  3  2  0  0  0
  2 14  1  0  0  0
  2  5  1  0  0  0
 12 13  1  0  0  0
 12 14  1  0  0  0
 12 15  2  0  0  0
  6  9  1  0  0  0
  3  4  1  0  0  0
  7  9  2  0  0  0
  8  9  2  0  0  0
  6 10  1  0  0  0
  6 11  1  0  0  0
 14 16  1  0  0  0
M  END
> <minimizedAffinity>
-5.15295

$$$$
3UCJ_AZM_A_229


 16 16  0  0  0  0  0  0  0  0999 V2000
   80.1456   55.5975  109.8152 C   0  0  0  0  0  0  0  0  0  0  0  0
   81.0683   54.4299  107.9119 C   0  0  0  0  0  0  0  0  0  0  0  0
   80.5039   55.6427  107.5926 N   0  0  0  0  0  0  0  0  0  0  0  0
   79.9395   56.3834  108.7580 N   0  0  0  0  0  0  0  0  0  0  0  0
   81.0301   54.0726  109.5758 S   0  0  0  0  0  0  0  0  0  0  0  0
   80.3490   57.4531  111.8675 N   0  0  0  0  0  0  0  0  0  0  0  0
   79.5569   55.1219  112.3151 O   0  0  0  0  0  0  0  0  0  0  0  0
   78.2940   56.6916  110.9923 O   0  0  0  0  0  0  0  0  0  0  0  0
   79.6252   56.1293  111.3945 S   0  0  0  0  0  0  0  0  0  0  0  0
   81.2940   57.2307  112.1806 H   0  0  0  0  0  0  0  0  0  0  0  0
   79.8254   57.8706  112.6369 H   0  0  0  0  0  0  0  0  0  0  0  0
   80.7128   52.6143  106.4059 C   0  0  0  0  0  0  0  0  0  0  0  0
   81.3468   51.4715  105.6344 C   0  0  0  0  0  0  0  0  0  0  0  0
   81.5058   53.5937  106.8461 N   0  0  0  0  0  0  0  0  0  0  0  0
   79.4794   52.6630  106.6599 O   0  0  0  0  0  0  0  0  0  0  0  0
   82.3891   53.7370  106.4356 H   0  0  0  0  0  0  0  0  0  0  0  0
  1  4  2  0  0  0
  1  9  1  0  0  0
  1  5  1  0  0  0
  2  3  2  0  0  0
  2 14  1  0  0  0
  2  5  1  0  0  0
 12 13  1  0  0  0
 12 14  1  0  0  0
 12 15  2  0  0  0
  6  9  1  0  0  0
  3  4  1  0  0  0
  7  9  2  0  0  0
  8  9  2  0  0  0
  6 10  1  0  0  0
  6 11  1  0  0  0
 14 16  1  0  0  0
M  END
> <minimizedAffinity>
-4.66142

$$$$
3UCJ_AZM_A_229


 16 16  0  0  0  0  0  0  0  0999 V2000
   77.9449   55.6558  109.3453 C   0  0  0  0  0  0  0  0  0  0  0  0
   76.1138   54.3784  108.4220 C   0  0  0  0  0  0  0  0  0  0  0  0
   77.3499   53.9619  107.9863 N   0  0  0  0  0  0  0  0  0  0  0  0
   78.4935   54.7320  108.5558 N   0  0  0  0  0  0  0  0  0  0  0  0
   76.1774   55.6538  109.5476 S   0  0  0  0  0  0  0  0  0  0  0  0
   80.4801   56.7154  109.7281 N   0  0  0  0  0  0  0  0  0  0  0  0
   78.7819   56.7470  111.5659 O   0  0  0  0  0  0  0  0  0  0  0  0
   78.5286   58.0290  109.5409 O   0  0  0  0  0  0  0  0  0  0  0  0
   78.9761   56.7651  110.2136 S   0  0  0  0  0  0  0  0  0  0  0  0
   80.9345   55.8874  110.1133 H   0  0  0  0  0  0  0  0  0  0  0  0
   80.9687   57.5514  110.0487 H   0  0  0  0  0  0  0  0  0  0  0  0
   75.0753   52.6460  107.1527 C   0  0  0  0  0  0  0  0  0  0  0  0
   73.9901   52.2907  106.1531 C   0  0  0  0  0  0  0  0  0  0  0  0
   74.9614   53.7936  107.8249 N   0  0  0  0  0  0  0  0  0  0  0  0
   76.0801   51.9132  107.3562 O   0  0  0  0  0  0  0  0  0  0  0  0
   74.0845   54.2335  107.9073 H   0  0  0  0  0  0  0  0  0  0  0  0
  1  4  2  0  0  0
  1  9  1  0  0  0
  1  5  1  0  0  0
  2  3  2  0  0  0
  2 14  1  0  0  0
  2  5  1  0  0  0
 12 13  1  0  0  0
 12 14  1  0  0  0
 12 15  2  0  0  0
  6  9  1  0  0  0
  3  4  1  0  0  0
  7  9  2  0  0  0
  8  9  2  0  0  0
  6 10  1  0  0  0
  6 11  1  0  0  0
 14 16  1  0  0  0
M  END
> <minimizedAffinity>
-4.47715

$$$$
3UCJ_AZM_A_229


 16 16  0  0  0  0  0  0  0  0999 V2000
   79.6212   55.6721  108.9994 C   0  0  0  0  0  0  0  0  0  0  0  0
   80.5422   53.8453  107.7142 C   0  0  0  0  0  0  0  0  0  0  0  0
   79.1767   53.7791  107.8639 N   0  0  0  0  0  0  0  0  0  0  0  0
   78.5891   54.9060  108.6451 N   0  0  0  0  0  0  0  0  0  0  0  0
   81.2434   55.2259  108.4214 S   0  0  0  0  0  0  0  0  0  0  0  0
   79.1263   56.8281  111.4724 N   0  0  0  0  0  0  0  0  0  0  0  0
   78.4359   57.9721  109.3565 O   0  0  0  0  0  0  0  0  0  0  0  0
   80.7455   57.6304  109.9546 O   0  0  0  0  0  0  0  0  0  0  0  0
   79.3352   57.1197  109.9324 S   0  0  0  0  0  0  0  0  0  0  0  0
   78.1858   56.4641  111.6250 H   0  0  0  0  0  0  0  0  0  0  0  0
   79.2466   57.6919  112.0014 H   0  0  0  0  0  0  0  0  0  0  0  0
   81.1703   52.6031  105.7769 C   0  0  0  0  0  0  0  0  0  0  0  0
   81.4492   51.2303  105.1933 C   0  0  0  0  0  0  0  0  0  0  0  0
   81.2031   52.7419  107.1041 N   0  0  0  0  0  0  0  0  0  0  0  0
   80.8933   53.6034  105.0623 O   0  0  0  0  0  0  0  0  0  0  0  0
   81.6821   52.0842  107.6584 H   0  0  0  0  0  0  0  0  0  0  0  0
  1  4  2  0  0  0
  1  9  1  0  0  0
  1  5  1  0  0  0
  2  3  2  0  0  0
  2 14  1  0  0  0
  2  5  1  0  0  0
 12 13  1  0  0  0
 12 14  1  0  0  0
 12 15  2  0  0  0
  6  9  1  0  0  0
  3  4  1  0  0  0
  7  9  2  0  0  0
  8  9  2  0  0  0
  6 10  1  0  0  0
  6 11  1  0  0  0
 14 16  1  0  0  0
M  END
> <minimizedAffinity>
-4.34695

$$$$
3UCJ_AZM_A_229


 16 16  0  0  0  0  0  0  0  0999 V2000
   75.4522   52.2798  106.7245 C   0  0  0  0  0  0  0  0  0  0  0  0
   74.6344   54.2028  107.9370 C   0  0  0  0  0  0  0  0  0  0  0  0
   73.6731   53.5858  107.1711 N   0  0  0  0  0  0  0  0  0  0  0  0
   74.1577   52.3888  106.4243 N   0  0  0  0  0  0  0  0  0  0  0  0
   76.1501   53.4295  107.8888 S   0  0  0  0  0  0  0  0  0  0  0  0
   77.9438   51.1746  106.2080 N   0  0  0  0  0  0  0  0  0  0  0  0
   75.9598   50.5882  104.8001 O   0  0  0  0  0  0  0  0  0  0  0  0
   76.1381   49.9593  107.1198 O   0  0  0  0  0  0  0  0  0  0  0  0
   76.3847   50.9718  106.0408 S   0  0  0  0  0  0  0  0  0  0  0  0
   78.2734   51.8555  105.5238 H   0  0  0  0  0  0  0  0  0  0  0  0
   78.4203   50.2851  106.0591 H   0  0  0  0  0  0  0  0  0  0  0  0
   74.9990   55.8424  109.6310 C   0  0  0  0  0  0  0  0  0  0  0  0
   74.3637   56.8608  110.5596 C   0  0  0  0  0  0  0  0  0  0  0  0
   74.2974   55.4314  108.5724 N   0  0  0  0  0  0  0  0  0  0  0  0
   76.1464   55.3613  109.8307 O   0  0  0  0  0  0  0  0  0  0  0  0
   73.5504   55.9753  108.2326 H   0  0  0  0  0  0  0  0  0  0  0  0
  1  4  2  0  0  0
  1  9  1  0  0  0
  1  5  1  0  0  0
  2  3  2  0  0  0
  2 14  1  0  0  0
  2  5  1  0  0  0
 12 13  1  0  0  0
 12 14  1  0  0  0
 12 15  2  0  0  0
  6  9  1  0  0  0
  3  4  1  0  0  0
  7  9  2  0  0  0
  8  9  2  0  0  0
  6 10  1  0  0  0
  6 11  1  0  0  0
 14 16  1  0  0  0
M  END
> <minimizedAffinity>
-4.18374

$$$$
3UCJ_AZM_A_229


 16 16  0  0  0  0  0  0  0  0999 V2000
   74.9848   52.9294  107.3308 C   0  0  0  0  0  0  0  0  0  0  0  0
   75.8831   54.7125  108.6913 C   0  0  0  0  0  0  0  0  0  0  0  0
   74.5099   54.7173  108.6147 N   0  0  0  0  0  0  0  0  0  0  0  0
   73.9370   53.6156  107.7881 N   0  0  0  0  0  0  0  0  0  0  0  0
   76.6119   53.4202  107.8566 S   0  0  0  0  0  0  0  0  0  0  0  0
   75.8357   51.3575  105.2091 N   0  0  0  0  0  0  0  0  0  0  0  0
   73.4282   51.4049  105.8902 O   0  0  0  0  0  0  0  0  0  0  0  0
   75.1574   50.4840  107.2938 O   0  0  0  0  0  0  0  0  0  0  0  0
   74.7202   51.5339  106.3157 S   0  0  0  0  0  0  0  0  0  0  0  0
   75.6721   52.0217  104.4525 H   0  0  0  0  0  0  0  0  0  0  0  0
   75.8016   50.4070  104.8405 H   0  0  0  0  0  0  0  0  0  0  0  0
   77.8521   55.8307  109.4421 C   0  0  0  0  0  0  0  0  0  0  0  0
   78.4739   56.7116  110.5099 C   0  0  0  0  0  0  0  0  0  0  0  0
   76.5212   55.8060  109.3422 N   0  0  0  0  0  0  0  0  0  0  0  0
   78.5387   55.1141  108.6655 O   0  0  0  0  0  0  0  0  0  0  0  0
   75.9834   56.5405  109.7170 H   0  0  0  0  0  0  0  0  0  0  0  0
  1  4  2  0  0  0
  1  9  1  0  0  0
  1  5  1  0  0  0
  2  3  2  0  0  0
  2 14  1  0  0  0
  2  5  1  0  0  0
 12 13  1  0  0  0
 12 14  1  0  0  0
 12 15  2  0  0  0
  6  9  1  0  0  0
  3  4  1  0  0  0
  7  9  2  0  0  0
  8  9  2  0  0  0
  6 10  1  0  0  0
  6 11  1  0  0  0
 14 16  1  0  0  0
M  END
> <minimizedAffinity>
-4.16695

$$$$
3UCJ_AZM_A_229


 16 16  0  0  0  0  0  0  0  0999 V2000
   78.2123   55.8189  109.3402 C   0  0  0  0  0  0  0  0  0  0  0  0
   76.2839   54.5900  108.5601 C   0  0  0  0  0  0  0  0  0  0  0  0
   77.4754   54.1196  108.0596 N   0  0  0  0  0  0  0  0  0  0  0  0
   78.6783   54.8594  108.5402 N   0  0  0  0  0  0  0  0  0  0  0  0
   76.4617   55.8855  109.6500 S   0  0  0  0  0  0  0  0  0  0  0  0
   79.1426   56.9708  111.6863 N   0  0  0  0  0  0  0  0  0  0  0  0
   79.4585   58.1100  109.4807 O   0  0  0  0  0  0  0  0  0  0  0  0
   80.5520   56.0364  110.0402 O   0  0  0  0  0  0  0  0  0  0  0  0
   79.3335   56.9079  110.1179 S   0  0  0  0  0  0  0  0  0  0  0  0
   78.3289   57.5448  111.9070 H   0  0  0  0  0  0  0  0  0  0  0  0
   79.9734   57.3800  112.1137 H   0  0  0  0  0  0  0  0  0  0  0  0
   75.1267   52.9625  107.2552 C   0  0  0  0  0  0  0  0  0  0  0  0
   73.9343   52.6772  106.3608 C   0  0  0  0  0  0  0  0  0  0  0  0
   75.0770   54.0351  108.0482 N   0  0  0  0  0  0  0  0  0  0  0  0
   76.1599   52.2411  107.2633 O   0  0  0  0  0  0  0  0  0  0  0  0
   74.2098   54.4405  108.2780 H   0  0  0  0  0  0  0  0  0  0  0  0
  1  4  2  0  0  0
  1  9  1  0  0  0
  1  5  1  0  0  0
  2  3  2  0  0  0
  2 14  1  0  0  0
  2  5  1  0  0  0
 12 13  1  0  0  0
 12 14  1  0  0  0
 12 15  2  0  0  0
  6  9  1  0  0  0
  3  4  1  0  0  0
  7  9  2  0  0  0
  8  9  2  0  0  0
  6 10  1  0  0  0
  6 11  1  0  0  0
 14 16  1  0  0  0
M  END
> <minimizedAffinity>
-4.09628

$$$$
3UCJ_AZM_A_229


 16 16  0  0  0  0  0  0  0  0999 V2000
   79.5495   56.8761  108.7356 C   0  0  0  0  0  0  0  0  0  0  0  0
   77.5933   55.5844  109.3202 C   0  0  0  0  0  0  0  0  0  0  0  0
   78.5201   54.8789  108.5889 N   0  0  0  0  0  0  0  0  0  0  0  0
   79.7404   55.6576  108.2291 N   0  0  0  0  0  0  0  0  0  0  0  0
   78.0743   57.1764  109.6834 S   0  0  0  0  0  0  0  0  0  0  0  0
   80.2586   59.5568  108.8237 N   0  0  0  0  0  0  0  0  0  0  0  0
   81.5181   57.9397  107.3881 O   0  0  0  0  0  0  0  0  0  0  0  0
   81.5430   57.8321  109.7957 O   0  0  0  0  0  0  0  0  0  0  0  0
   80.7828   58.0944  108.5293 S   0  0  0  0  0  0  0  0  0  0  0  0
   79.7070   59.8862  108.0314 H   0  0  0  0  0  0  0  0  0  0  0  0
   81.0530   60.1802  108.9675 H   0  0  0  0  0  0  0  0  0  0  0  0
   75.2407   55.7159  109.6928 C   0  0  0  0  0  0  0  0  0  0  0  0
   74.0440   55.1352  110.4234 C   0  0  0  0  0  0  0  0  0  0  0  0
   76.3395   54.9654  109.5876 N   0  0  0  0  0  0  0  0  0  0  0  0
   75.2417   56.8768  109.2026 O   0  0  0  0  0  0  0  0  0  0  0  0
   76.2831   53.9883  109.6943 H   0  0  0  0  0  0  0  0  0  0  0  0
  1  4  2  0  0  0
  1  9  1  0  0  0
  1  5  1  0  0  0
  2  3  2  0  0  0
  2 14  1  0  0  0
  2  5  1  0  0  0
 12 13  1  0  0  0
 12 14  1  0  0  0
 12 15  2  0  0  0
  6  9  1  0  0  0
  3  4  1  0  0  0
  7  9  2  0  0  0
  8  9  2  0  0  0
  6 10  1  0  0  0
  6 11  1  0  0  0
 14 16  1  0  0  0
M  END
> <minimizedAffinity>
-3.91454

$$$$
3UCJ_AZM_A_229


 16 16  0  0  0  0  0  0  0  0999 V2000
   80.8965   53.9633  108.3099 C   0  0  0  0  0  0  0  0  0  0  0  0
   81.0754   55.9948  109.6053 C   0  0  0  0  0  0  0  0  0  0  0  0
   80.9666   54.8598  110.3743 N   0  0  0  0  0  0  0  0  0  0  0  0
   80.8672   53.5943  109.5908 N   0  0  0  0  0  0  0  0  0  0  0  0
   81.1143   55.6878  107.9313 S   0  0  0  0  0  0  0  0  0  0  0  0
   80.9850   51.2763  107.6250 N   0  0  0  0  0  0  0  0  0  0  0  0
   81.5414   53.0498  105.9494 O   0  0  0  0  0  0  0  0  0  0  0  0
   79.3259   52.7677  106.8555 O   0  0  0  0  0  0  0  0  0  0  0  0
   80.8114   52.7441  107.0632 S   0  0  0  0  0  0  0  0  0  0  0  0
   81.9707   51.1018  107.8212 H   0  0  0  0  0  0  0  0  0  0  0  0
   80.6522   50.6056  106.9324 H   0  0  0  0  0  0  0  0  0  0  0  0
   79.8665   57.8817  110.4234 C   0  0  0  0  0  0  0  0  0  0  0  0
   79.8839   59.3772  110.6808 C   0  0  0  0  0  0  0  0  0  0  0  0
   81.0349   57.2562  110.2640 N   0  0  0  0  0  0  0  0  0  0  0  0
   78.7987   57.2179  110.3371 O   0  0  0  0  0  0  0  0  0  0  0  0
   81.8648   57.6654  110.6003 H   0  0  0  0  0  0  0  0  0  0  0  0
  1  4  2  0  0  0
  1  9  1  0  0  0
  1  5  1  0  0  0
  2  3  2  0  0  0
  2 14  1  0  0  0
  2  5  1  0  0  0
 12 13  1  0  0  0
 12 14  1  0  0  0
 12 15  2  0  0  0
  6  9  1  0  0  0
  3  4  1  0  0  0
  7  9  2  0  0  0
  8  9  2  0  0  0
  6 10  1  0  0  0
  6 11  1  0  0  0
 14 16  1  0  0  0
M  END
> <minimizedAffinity>
-3.64758

$$$$
