3ZT3_ZT4_A_1216


 25 28  0  0  0  0  0  0  0  0999 V2000
  -33.1022   32.0363    2.0334 C   0  0  0  0  0  0  0  0  0  0  0  0
  -32.3510   32.7745    2.9700 C   0  0  0  0  0  0  0  0  0  0  0  0
  -33.3621   32.5624    0.7699 C   0  0  0  0  0  0  0  0  0  0  0  0
  -32.8849   33.8531    0.4036 C   0  0  0  0  0  0  0  0  0  0  0  0
  -31.8738   33.9978    2.5490 C   0  0  0  0  0  0  0  0  0  0  0  0
  -32.1477   34.5290    1.3407 C   0  0  0  0  0  0  0  0  0  0  0  0
  -30.7581   35.8182    2.4148 C   0  0  0  0  0  0  0  0  0  0  0  0
  -31.1335   34.8407    3.3333 O   0  0  0  0  0  0  0  0  0  0  0  0
  -31.5873   35.7835    1.2361 O   0  0  0  0  0  0  0  0  0  0  0  0
  -30.5771   28.8355    0.7598 C   0  0  0  0  0  0  0  0  0  0  0  0
  -30.7038   27.6152    0.1530 C   0  0  0  0  0  0  0  0  0  0  0  0
  -31.5286   29.8203    0.5603 C   0  0  0  0  0  0  0  0  0  0  0  0
  -31.8070   27.3563   -0.6345 C   0  0  0  0  0  0  0  0  0  0  0  0
  -32.6361   29.5683   -0.2167 C   0  0  0  0  0  0  0  0  0  0  0  0
  -32.7546   28.3385   -0.8072 C   0  0  0  0  0  0  0  0  0  0  0  0
  -33.7723   30.4606   -0.5894 C   0  0  0  0  0  0  0  0  0  0  0  0
  -34.1280   31.7495   -0.2216 C   0  0  0  0  0  0  0  0  0  0  0  0
  -34.0027   28.2435   -1.6320 C   0  0  0  0  0  0  0  0  0  0  0  0
  -34.5085   29.6920   -1.6790 C   0  0  0  0  0  0  0  0  0  0  0  0
  -35.8831   29.8118   -1.4398 O   0  0  0  0  0  0  0  0  0  0  0  0
  -36.0874   29.4764   -0.5528 H   0  0  0  0  0  0  0  0  0  0  0  0
  -33.1541   34.4740   -0.9469 C   0  0  0  0  0  0  0  0  0  0  0  0
  -34.2680   34.3549   -1.5313 O   0  0  0  0  0  0  0  0  0  0  0  0
  -32.1802   35.0846   -1.5005 O   0  0  0  0  0  0  0  0  0  0  0  0
  -31.3611   35.1635   -1.0524 H   0  0  0  0  0  0  0  0  0  0  0  0
 10 11  1  0  0  0
 10 12  2  0  0  0
 11 13  2  0  0  0
 12 14  1  0  0  0
  1  2  2  0  0  0
  1  3  1  0  0  0
 13 15  1  0  0  0
  2  5  1  0  0  0
 14 15  2  0  0  0
 14 16  1  0  0  0
  3  4  2  0  0  0
  3 17  1  0  0  0
  4  6  1  0  0  0
  4 22  1  0  0  0
 15 18  1  0  0  0
  5  6  2  0  0  0
  5  8  1  0  0  0
  6  9  1  0  0  0
 16 17  2  0  0  0
 16 19  1  0  0  0
 22 23  2  0  0  0
 22 24  1  0  0  0
 18 19  1  0  0  0
  7  8  1  0  0  0
  7  9  1  0  0  0
 19 20  1  0  0  0
 24 25  1  0  0  0
 20 21  1  0  0  0
M  END
> <minimizedAffinity>
-9.85592

$$$$
3ZT3_ZT4_A_1216


 25 28  0  0  0  0  0  0  0  0999 V2000
  -35.2815   31.9577    1.0746 C   0  0  0  0  0  0  0  0  0  0  0  0
  -36.4991   32.4611    0.5742 C   0  0  0  0  0  0  0  0  0  0  0  0
  -34.0883   32.6339    0.8304 C   0  0  0  0  0  0  0  0  0  0  0  0
  -34.0728   33.8359    0.0668 C   0  0  0  0  0  0  0  0  0  0  0  0
  -36.4344   33.6515   -0.1188 C   0  0  0  0  0  0  0  0  0  0  0  0
  -35.2811   34.2955   -0.3880 C   0  0  0  0  0  0  0  0  0  0  0  0
  -36.9692   35.4855   -1.0816 C   0  0  0  0  0  0  0  0  0  0  0  0
  -37.5204   34.2731   -0.6735 O   0  0  0  0  0  0  0  0  0  0  0  0
  -35.5308   35.4175   -1.1481 O   0  0  0  0  0  0  0  0  0  0  0  0
  -34.2443   28.4219   -1.1395 C   0  0  0  0  0  0  0  0  0  0  0  0
  -33.3354   27.3986   -1.1560 C   0  0  0  0  0  0  0  0  0  0  0  0
  -33.9878   29.5763   -0.4207 C   0  0  0  0  0  0  0  0  0  0  0  0
  -32.1409   27.5362   -0.4789 C   0  0  0  0  0  0  0  0  0  0  0  0
  -32.7959   29.7255    0.2508 C   0  0  0  0  0  0  0  0  0  0  0  0
  -31.8917   28.6977    0.2147 C   0  0  0  0  0  0  0  0  0  0  0  0
  -32.3034   30.8516    1.0967 C   0  0  0  0  0  0  0  0  0  0  0  0
  -32.8133   32.1049    1.4005 C   0  0  0  0  0  0  0  0  0  0  0  0
  -30.6645   29.0178    1.0138 C   0  0  0  0  0  0  0  0  0  0  0  0
  -31.0566   30.2941    1.7710 C   0  0  0  0  0  0  0  0  0  0  0  0
  -30.0689   31.2864    1.7425 O   0  0  0  0  0  0  0  0  0  0  0  0
  -29.9020   31.5502    0.8241 H   0  0  0  0  0  0  0  0  0  0  0  0
  -32.8040   34.5965   -0.2393 C   0  0  0  0  0  0  0  0  0  0  0  0
  -32.0757   35.0830    0.6715 O   0  0  0  0  0  0  0  0  0  0  0  0
  -32.5261   34.7736   -1.4718 O   0  0  0  0  0  0  0  0  0  0  0  0
  -33.0774   34.4056   -2.1340 H   0  0  0  0  0  0  0  0  0  0  0  0
 10 11  1  0  0  0
 10 12  2  0  0  0
 11 13  2  0  0  0
 12 14  1  0  0  0
  1  2  2  0  0  0
  1  3  1  0  0  0
 13 15  1  0  0  0
  2  5  1  0  0  0
 14 15  2  0  0  0
 14 16  1  0  0  0
  3  4  2  0  0  0
  3 17  1  0  0  0
  4  6  1  0  0  0
  4 22  1  0  0  0
 15 18  1  0  0  0
  5  6  2  0  0  0
  5  8  1  0  0  0
  6  9  1  0  0  0
 16 17  2  0  0  0
 16 19  1  0  0  0
 22 23  2  0  0  0
 22 24  1  0  0  0
 18 19  1  0  0  0
  7  8  1  0  0  0
  7  9  1  0  0  0
 19 20  1  0  0  0
 24 25  1  0  0  0
 20 21  1  0  0  0
M  END
> <minimizedAffinity>
-8.75635

$$$$
3ZT3_ZT4_A_1216


 25 28  0  0  0  0  0  0  0  0999 V2000
  -35.6060   31.5747    0.1545 C   0  0  0  0  0  0  0  0  0  0  0  0
  -36.7078   31.6580   -0.7205 C   0  0  0  0  0  0  0  0  0  0  0  0
  -34.6085   32.5466    0.1227 C   0  0  0  0  0  0  0  0  0  0  0  0
  -34.6761   33.6333   -0.7953 C   0  0  0  0  0  0  0  0  0  0  0  0
  -36.7480   32.7538   -1.5566 C   0  0  0  0  0  0  0  0  0  0  0  0
  -35.7716   33.6813   -1.6173 C   0  0  0  0  0  0  0  0  0  0  0  0
  -37.4251   34.2658   -2.9101 C   0  0  0  0  0  0  0  0  0  0  0  0
  -37.7428   32.9836   -2.4682 O   0  0  0  0  0  0  0  0  0  0  0  0
  -36.0639   34.6147   -2.5880 O   0  0  0  0  0  0  0  0  0  0  0  0
  -33.0992   28.3193   -1.1011 C   0  0  0  0  0  0  0  0  0  0  0  0
  -31.9969   27.6067   -0.7129 C   0  0  0  0  0  0  0  0  0  0  0  0
  -33.3688   29.5552   -0.5399 C   0  0  0  0  0  0  0  0  0  0  0  0
  -31.1316   28.1425    0.2190 C   0  0  0  0  0  0  0  0  0  0  0  0
  -32.5072   30.1009    0.3841 C   0  0  0  0  0  0  0  0  0  0  0  0
  -31.4024   29.3810    0.7531 C   0  0  0  0  0  0  0  0  0  0  0  0
  -32.5898   31.3892    1.1321 C   0  0  0  0  0  0  0  0  0  0  0  0
  -33.4679   32.4614    1.0832 C   0  0  0  0  0  0  0  0  0  0  0  0
  -30.5894   30.1106    1.7797 C   0  0  0  0  0  0  0  0  0  0  0  0
  -31.4988   31.2775    2.1890 C   0  0  0  0  0  0  0  0  0  0  0  0
  -30.8331   32.5078    2.2555 O   0  0  0  0  0  0  0  0  0  0  0  0
  -30.4755   32.7296    1.3815 H   0  0  0  0  0  0  0  0  0  0  0  0
  -33.6124   34.7025   -0.8800 C   0  0  0  0  0  0  0  0  0  0  0  0
  -32.5628   34.5533   -1.5676 O   0  0  0  0  0  0  0  0  0  0  0  0
  -33.7976   35.7511   -0.1773 O   0  0  0  0  0  0  0  0  0  0  0  0
  -34.5820   35.8449    0.3266 H   0  0  0  0  0  0  0  0  0  0  0  0
 10 11  1  0  0  0
 10 12  2  0  0  0
 11 13  2  0  0  0
 12 14  1  0  0  0
  1  2  2  0  0  0
  1  3  1  0  0  0
 13 15  1  0  0  0
  2  5  1  0  0  0
 14 15  2  0  0  0
 14 16  1  0  0  0
  3  4  2  0  0  0
  3 17  1  0  0  0
  4  6  1  0  0  0
  4 22  1  0  0  0
 15 18  1  0  0  0
  5  6  2  0  0  0
  5  8  1  0  0  0
  6  9  1  0  0  0
 16 17  2  0  0  0
 16 19  1  0  0  0
 22 23  2  0  0  0
 22 24  1  0  0  0
 18 19  1  0  0  0
  7  8  1  0  0  0
  7  9  1  0  0  0
 19 20  1  0  0  0
 24 25  1  0  0  0
 20 21  1  0  0  0
M  END
> <minimizedAffinity>
-8.72592

$$$$
3ZT3_ZT4_A_1216


 25 28  0  0  0  0  0  0  0  0999 V2000
  -33.3736   31.3020   -1.0796 C   0  0  0  0  0  0  0  0  0  0  0  0
  -32.8015   30.0335   -0.8553 C   0  0  0  0  0  0  0  0  0  0  0  0
  -33.1746   32.3341   -0.1654 C   0  0  0  0  0  0  0  0  0  0  0  0
  -32.4011   32.1278    1.0125 C   0  0  0  0  0  0  0  0  0  0  0  0
  -32.0243   29.9004    0.2759 C   0  0  0  0  0  0  0  0  0  0  0  0
  -31.8531   30.8833    1.1825 C   0  0  0  0  0  0  0  0  0  0  0  0
  -30.6228   29.1659    1.7157 C   0  0  0  0  0  0  0  0  0  0  0  0
  -31.4019   28.7380    0.6433 O   0  0  0  0  0  0  0  0  0  0  0  0
  -31.0807   30.4321    2.2308 O   0  0  0  0  0  0  0  0  0  0  0  0
  -37.5772   31.3284    0.9531 C   0  0  0  0  0  0  0  0  0  0  0  0
  -38.6881   32.1222    1.0505 C   0  0  0  0  0  0  0  0  0  0  0  0
  -36.3694   31.8601    0.5366 C   0  0  0  0  0  0  0  0  0  0  0  0
  -38.5914   33.4686    0.7643 C   0  0  0  0  0  0  0  0  0  0  0  0
  -36.2618   33.2033    0.2570 C   0  0  0  0  0  0  0  0  0  0  0  0
  -37.3793   33.9866    0.3708 C   0  0  0  0  0  0  0  0  0  0  0  0
  -35.0905   33.9954   -0.2190 C   0  0  0  0  0  0  0  0  0  0  0  0
  -33.7578   33.6815   -0.4391 C   0  0  0  0  0  0  0  0  0  0  0  0
  -37.0897   35.4121    0.0087 C   0  0  0  0  0  0  0  0  0  0  0  0
  -35.6839   35.3444   -0.6039 C   0  0  0  0  0  0  0  0  0  0  0  0
  -34.8224   36.3450   -0.1374 O   0  0  0  0  0  0  0  0  0  0  0  0
  -34.7105   36.2540    0.8219 H   0  0  0  0  0  0  0  0  0  0  0  0
  -32.1702   33.2092    2.0416 C   0  0  0  0  0  0  0  0  0  0  0  0
  -31.5378   34.2694    1.7721 O   0  0  0  0  0  0  0  0  0  0  0  0
  -32.5999   32.9786    3.2206 O   0  0  0  0  0  0  0  0  0  0  0  0
  -33.0671   32.1869    3.4024 H   0  0  0  0  0  0  0  0  0  0  0  0
 10 11  1  0  0  0
 10 12  2  0  0  0
 11 13  2  0  0  0
 12 14  1  0  0  0
  1  2  2  0  0  0
  1  3  1  0  0  0
 13 15  1  0  0  0
  2  5  1  0  0  0
 14 15  2  0  0  0
 14 16  1  0  0  0
  3  4  2  0  0  0
  3 17  1  0  0  0
  4  6  1  0  0  0
  4 22  1  0  0  0
 15 18  1  0  0  0
  5  6  2  0  0  0
  5  8  1  0  0  0
  6  9  1  0  0  0
 16 17  2  0  0  0
 16 19  1  0  0  0
 22 23  2  0  0  0
 22 24  1  0  0  0
 18 19  1  0  0  0
  7  8  1  0  0  0
  7  9  1  0  0  0
 19 20  1  0  0  0
 24 25  1  0  0  0
 20 21  1  0  0  0
M  END
> <minimizedAffinity>
-8.30100

$$$$
3ZT3_ZT4_A_1216


 25 28  0  0  0  0  0  0  0  0999 V2000
  -36.9901   29.8010    0.6895 C   0  0  0  0  0  0  0  0  0  0  0  0
  -37.7153   30.8375    1.3111 C   0  0  0  0  0  0  0  0  0  0  0  0
  -36.1499   30.0787   -0.3864 C   0  0  0  0  0  0  0  0  0  0  0  0
  -36.0138   31.4062   -0.8835 C   0  0  0  0  0  0  0  0  0  0  0  0
  -37.5123   32.1102    0.8208 C   0  0  0  0  0  0  0  0  0  0  0  0
  -36.7269   32.3838   -0.2401 C   0  0  0  0  0  0  0  0  0  0  0  0
  -37.4744   34.2399    0.6219 C   0  0  0  0  0  0  0  0  0  0  0  0
  -38.1399   33.2256    1.3063 O   0  0  0  0  0  0  0  0  0  0  0  0
  -36.7742   33.7301   -0.5305 O   0  0  0  0  0  0  0  0  0  0  0  0
  -32.1539   30.8402    1.8715 C   0  0  0  0  0  0  0  0  0  0  0  0
  -30.9806   30.1356    1.8934 C   0  0  0  0  0  0  0  0  0  0  0  0
  -33.1993   30.4369    1.0595 C   0  0  0  0  0  0  0  0  0  0  0  0
  -30.8551   28.9957    1.1258 C   0  0  0  0  0  0  0  0  0  0  0  0
  -33.0861   29.2968    0.2970 C   0  0  0  0  0  0  0  0  0  0  0  0
  -31.9103   28.5961    0.3390 C   0  0  0  0  0  0  0  0  0  0  0  0
  -34.0526   28.6778   -0.6563 C   0  0  0  0  0  0  0  0  0  0  0  0
  -35.3612   28.9731   -1.0078 C   0  0  0  0  0  0  0  0  0  0  0  0
  -31.9511   27.4008   -0.5648 C   0  0  0  0  0  0  0  0  0  0  0  0
  -33.2358   27.6136   -1.3775 C   0  0  0  0  0  0  0  0  0  0  0  0
  -34.0253   26.4621   -1.4863 O   0  0  0  0  0  0  0  0  0  0  0  0
  -34.3020   26.1750   -0.6021 H   0  0  0  0  0  0  0  0  0  0  0  0
  -35.1291   31.7557   -2.0570 C   0  0  0  0  0  0  0  0  0  0  0  0
  -33.8744   31.8554   -1.9465 O   0  0  0  0  0  0  0  0  0  0  0  0
  -35.7157   32.0003   -3.1633 O   0  0  0  0  0  0  0  0  0  0  0  0
  -36.6472   31.9212   -3.2271 H   0  0  0  0  0  0  0  0  0  0  0  0
 10 11  1  0  0  0
 10 12  2  0  0  0
 11 13  2  0  0  0
 12 14  1  0  0  0
  1  2  2  0  0  0
  1  3  1  0  0  0
 13 15  1  0  0  0
  2  5  1  0  0  0
 14 15  2  0  0  0
 14 16  1  0  0  0
  3  4  2  0  0  0
  3 17  1  0  0  0
  4  6  1  0  0  0
  4 22  1  0  0  0
 15 18  1  0  0  0
  5  6  2  0  0  0
  5  8  1  0  0  0
  6  9  1  0  0  0
 16 17  2  0  0  0
 16 19  1  0  0  0
 22 23  2  0  0  0
 22 24  1  0  0  0
 18 19  1  0  0  0
  7  8  1  0  0  0
  7  9  1  0  0  0
 19 20  1  0  0  0
 24 25  1  0  0  0
 20 21  1  0  0  0
M  END
> <minimizedAffinity>
-8.25252

$$$$
3ZT3_ZT4_A_1216


 25 28  0  0  0  0  0  0  0  0999 V2000
  -33.4454   32.2429   -1.2689 C   0  0  0  0  0  0  0  0  0  0  0  0
  -33.1175   33.3136   -0.4130 C   0  0  0  0  0  0  0  0  0  0  0  0
  -33.2757   30.9269   -0.8447 C   0  0  0  0  0  0  0  0  0  0  0  0
  -32.7620   30.6376    0.4517 C   0  0  0  0  0  0  0  0  0  0  0  0
  -32.6681   32.9788    0.8469 C   0  0  0  0  0  0  0  0  0  0  0  0
  -32.4698   31.7092    1.2545 C   0  0  0  0  0  0  0  0  0  0  0  0
  -32.1117   33.0795    2.9101 C   0  0  0  0  0  0  0  0  0  0  0  0
  -32.3033   33.8943    1.7968 O   0  0  0  0  0  0  0  0  0  0  0  0
  -31.9578   31.6964    2.5338 O   0  0  0  0  0  0  0  0  0  0  0  0
  -37.6403   30.3975    0.6773 C   0  0  0  0  0  0  0  0  0  0  0  0
  -38.6634   29.6067    0.2285 C   0  0  0  0  0  0  0  0  0  0  0  0
  -36.3919   30.3333    0.0837 C   0  0  0  0  0  0  0  0  0  0  0  0
  -38.4550   28.7661   -0.8458 C   0  0  0  0  0  0  0  0  0  0  0  0
  -36.1772   29.5040   -0.9934 C   0  0  0  0  0  0  0  0  0  0  0  0
  -37.2141   28.7280   -1.4383 C   0  0  0  0  0  0  0  0  0  0  0  0
  -34.9343   29.2506   -1.7789 C   0  0  0  0  0  0  0  0  0  0  0  0
  -33.6638   29.8060   -1.7521 C   0  0  0  0  0  0  0  0  0  0  0  0
  -36.8015   27.8730   -2.5983 C   0  0  0  0  0  0  0  0  0  0  0  0
  -35.2762   28.0403   -2.6381 C   0  0  0  0  0  0  0  0  0  0  0  0
  -34.7723   28.2669   -3.9249 O   0  0  0  0  0  0  0  0  0  0  0  0
  -35.1496   29.0869   -4.2801 H   0  0  0  0  0  0  0  0  0  0  0  0
  -32.5443   29.2290    0.9518 C   0  0  0  0  0  0  0  0  0  0  0  0
  -33.5030   28.4858    1.3057 O   0  0  0  0  0  0  0  0  0  0  0  0
  -31.3341   28.8380    1.0525 O   0  0  0  0  0  0  0  0  0  0  0  0
  -30.6356   29.4024    0.7852 H   0  0  0  0  0  0  0  0  0  0  0  0
 10 11  1  0  0  0
 10 12  2  0  0  0
 11 13  2  0  0  0
 12 14  1  0  0  0
  1  2  2  0  0  0
  1  3  1  0  0  0
 13 15  1  0  0  0
  2  5  1  0  0  0
 14 15  2  0  0  0
 14 16  1  0  0  0
  3  4  2  0  0  0
  3 17  1  0  0  0
  4  6  1  0  0  0
  4 22  1  0  0  0
 15 18  1  0  0  0
  5  6  2  0  0  0
  5  8  1  0  0  0
  6  9  1  0  0  0
 16 17  2  0  0  0
 16 19  1  0  0  0
 22 23  2  0  0  0
 22 24  1  0  0  0
 18 19  1  0  0  0
  7  8  1  0  0  0
  7  9  1  0  0  0
 19 20  1  0  0  0
 24 25  1  0  0  0
 20 21  1  0  0  0
M  END
> <minimizedAffinity>
-8.18149

$$$$
3ZT3_ZT4_A_1216


 25 28  0  0  0  0  0  0  0  0999 V2000
  -35.3800   29.4245    1.0117 C   0  0  0  0  0  0  0  0  0  0  0  0
  -36.7300   29.6587    0.6813 C   0  0  0  0  0  0  0  0  0  0  0  0
  -34.4998   28.9218    0.0561 C   0  0  0  0  0  0  0  0  0  0  0  0
  -34.9450   28.6272   -1.2642 C   0  0  0  0  0  0  0  0  0  0  0  0
  -37.0981   29.4005   -0.6223 C   0  0  0  0  0  0  0  0  0  0  0  0
  -36.2618   28.8833   -1.5445 C   0  0  0  0  0  0  0  0  0  0  0  0
  -38.1766   29.3578   -2.4694 C   0  0  0  0  0  0  0  0  0  0  0  0
  -38.3675   29.5691   -1.1059 O   0  0  0  0  0  0  0  0  0  0  0  0
  -36.9323   28.6783   -2.7308 O   0  0  0  0  0  0  0  0  0  0  0  0
  -33.4896   33.3450    1.0859 C   0  0  0  0  0  0  0  0  0  0  0  0
  -32.3594   33.9156    1.6060 C   0  0  0  0  0  0  0  0  0  0  0  0
  -33.5273   31.9898    0.8083 C   0  0  0  0  0  0  0  0  0  0  0  0
  -31.2637   33.1253    1.8871 C   0  0  0  0  0  0  0  0  0  0  0  0
  -32.4422   31.1926    1.0930 C   0  0  0  0  0  0  0  0  0  0  0  0
  -31.3232   31.7762    1.6245 C   0  0  0  0  0  0  0  0  0  0  0  0
  -32.2385   29.7312    0.8714 C   0  0  0  0  0  0  0  0  0  0  0  0
  -33.0647   28.7155    0.4146 C   0  0  0  0  0  0  0  0  0  0  0  0
  -30.2344   30.7711    1.8503 C   0  0  0  0  0  0  0  0  0  0  0  0
  -30.7528   29.5182    1.1307 C   0  0  0  0  0  0  0  0  0  0  0  0
  -30.6083   28.3437    1.8797 O   0  0  0  0  0  0  0  0  0  0  0  0
  -31.1166   28.4203    2.7023 H   0  0  0  0  0  0  0  0  0  0  0  0
  -34.0342   28.0656   -2.3304 C   0  0  0  0  0  0  0  0  0  0  0  0
  -33.4627   26.9458   -2.2045 O   0  0  0  0  0  0  0  0  0  0  0  0
  -33.8234   28.8033   -3.3498 O   0  0  0  0  0  0  0  0  0  0  0  0
  -34.2559   29.6309   -3.4267 H   0  0  0  0  0  0  0  0  0  0  0  0
 10 11  1  0  0  0
 10 12  2  0  0  0
 11 13  2  0  0  0
 12 14  1  0  0  0
  1  2  2  0  0  0
  1  3  1  0  0  0
 13 15  1  0  0  0
  2  5  1  0  0  0
 14 15  2  0  0  0
 14 16  1  0  0  0
  3  4  2  0  0  0
  3 17  1  0  0  0
  4  6  1  0  0  0
  4 22  1  0  0  0
 15 18  1  0  0  0
  5  6  2  0  0  0
  5  8  1  0  0  0
  6  9  1  0  0  0
 16 17  2  0  0  0
 16 19  1  0  0  0
 22 23  2  0  0  0
 22 24  1  0  0  0
 18 19  1  0  0  0
  7  8  1  0  0  0
  7  9  1  0  0  0
 19 20  1  0  0  0
 24 25  1  0  0  0
 20 21  1  0  0  0
M  END
> <minimizedAffinity>
-8.02985

$$$$
3ZT3_ZT4_A_1216


 25 28  0  0  0  0  0  0  0  0999 V2000
  -34.6097   32.4551   -1.7386 C   0  0  0  0  0  0  0  0  0  0  0  0
  -35.0172   33.7579   -1.3879 C   0  0  0  0  0  0  0  0  0  0  0  0
  -35.2137   31.3472   -1.1483 C   0  0  0  0  0  0  0  0  0  0  0  0
  -36.2431   31.5070   -0.1773 C   0  0  0  0  0  0  0  0  0  0  0  0
  -36.0486   33.8560   -0.4778 C   0  0  0  0  0  0  0  0  0  0  0  0
  -36.6164   32.7911    0.1228 C   0  0  0  0  0  0  0  0  0  0  0  0
  -37.6640   34.6108    0.7042 C   0  0  0  0  0  0  0  0  0  0  0  0
  -36.5602   35.0429   -0.0272 O   0  0  0  0  0  0  0  0  0  0  0  0
  -37.5705   33.2085    1.0252 O   0  0  0  0  0  0  0  0  0  0  0  0
  -31.4148   31.0470    1.5207 C   0  0  0  0  0  0  0  0  0  0  0  0
  -30.5566   30.0070    1.7563 C   0  0  0  0  0  0  0  0  0  0  0  0
  -32.4581   30.9058    0.6226 C   0  0  0  0  0  0  0  0  0  0  0  0
  -30.7567   28.7997    1.1186 C   0  0  0  0  0  0  0  0  0  0  0  0
  -32.6701   29.7030   -0.0117 C   0  0  0  0  0  0  0  0  0  0  0  0
  -31.8101   28.6684    0.2437 C   0  0  0  0  0  0  0  0  0  0  0  0
  -33.7000   29.3160   -1.0195 C   0  0  0  0  0  0  0  0  0  0  0  0
  -34.7941   29.9743   -1.5604 C   0  0  0  0  0  0  0  0  0  0  0  0
  -32.1726   27.4460   -0.5445 C   0  0  0  0  0  0  0  0  0  0  0  0
  -33.2311   27.9599   -1.5302 C   0  0  0  0  0  0  0  0  0  0  0  0
  -34.3509   27.1253   -1.6328 O   0  0  0  0  0  0  0  0  0  0  0  0
  -34.7864   27.0609   -0.7684 H   0  0  0  0  0  0  0  0  0  0  0  0
  -36.9170   30.3388    0.5031 C   0  0  0  0  0  0  0  0  0  0  0  0
  -36.2607   29.4374    1.0976 O   0  0  0  0  0  0  0  0  0  0  0  0
  -38.1873   30.2737    0.4041 O   0  0  0  0  0  0  0  0  0  0  0  0
  -38.6578   30.9512   -0.0403 H   0  0  0  0  0  0  0  0  0  0  0  0
 10 11  1  0  0  0
 10 12  2  0  0  0
 11 13  2  0  0  0
 12 14  1  0  0  0
  1  2  2  0  0  0
  1  3  1  0  0  0
 13 15  1  0  0  0
  2  5  1  0  0  0
 14 15  2  0  0  0
 14 16  1  0  0  0
  3  4  2  0  0  0
  3 17  1  0  0  0
  4  6  1  0  0  0
  4 22  1  0  0  0
 15 18  1  0  0  0
  5  6  2  0  0  0
  5  8  1  0  0  0
  6  9  1  0  0  0
 16 17  2  0  0  0
 16 19  1  0  0  0
 22 23  2  0  0  0
 22 24  1  0  0  0
 18 19  1  0  0  0
  7  8  1  0  0  0
  7  9  1  0  0  0
 19 20  1  0  0  0
 24 25  1  0  0  0
 20 21  1  0  0  0
M  END
> <minimizedAffinity>
-7.92121

$$$$
3ZT3_ZT4_A_1216


 25 28  0  0  0  0  0  0  0  0999 V2000
  -36.1859   30.1273    0.5972 C   0  0  0  0  0  0  0  0  0  0  0  0
  -37.0250   29.3029   -0.1791 C   0  0  0  0  0  0  0  0  0  0  0  0
  -35.7082   31.3293    0.0801 C   0  0  0  0  0  0  0  0  0  0  0  0
  -36.0483   31.7435   -1.2393 C   0  0  0  0  0  0  0  0  0  0  0  0
  -37.3607   29.7721   -1.4316 C   0  0  0  0  0  0  0  0  0  0  0  0
  -36.8772   30.9175   -1.9526 C   0  0  0  0  0  0  0  0  0  0  0  0
  -38.3347   30.0446   -3.3166 C   0  0  0  0  0  0  0  0  0  0  0  0
  -38.1600   29.0950   -2.3127 O   0  0  0  0  0  0  0  0  0  0  0  0
  -37.3409   31.0860   -3.2393 O   0  0  0  0  0  0  0  0  0  0  0  0
  -32.0249   28.4999    0.3517 C   0  0  0  0  0  0  0  0  0  0  0  0
  -30.7828   28.6844    0.8965 C   0  0  0  0  0  0  0  0  0  0  0  0
  -32.9881   29.4886    0.4507 C   0  0  0  0  0  0  0  0  0  0  0  0
  -30.4809   29.8791    1.5174 C   0  0  0  0  0  0  0  0  0  0  0  0
  -32.6933   30.6864    1.0609 C   0  0  0  0  0  0  0  0  0  0  0  0
  -31.4424   30.8603    1.5903 C   0  0  0  0  0  0  0  0  0  0  0  0
  -33.5554   31.8798    1.3031 C   0  0  0  0  0  0  0  0  0  0  0  0
  -34.8507   32.2070    0.9315 C   0  0  0  0  0  0  0  0  0  0  0  0
  -31.3008   32.2068    2.2335 C   0  0  0  0  0  0  0  0  0  0  0  0
  -32.7392   32.7422    2.2571 C   0  0  0  0  0  0  0  0  0  0  0  0
  -32.8468   34.0736    1.8364 O   0  0  0  0  0  0  0  0  0  0  0  0
  -32.5388   34.1489    0.9197 H   0  0  0  0  0  0  0  0  0  0  0  0
  -35.5428   33.0289   -1.8511 C   0  0  0  0  0  0  0  0  0  0  0  0
  -35.8457   34.1617   -1.3807 O   0  0  0  0  0  0  0  0  0  0  0  0
  -34.8332   32.9205   -2.9059 O   0  0  0  0  0  0  0  0  0  0  0  0
  -34.6182   32.0722   -3.2408 H   0  0  0  0  0  0  0  0  0  0  0  0
 10 11  1  0  0  0
 10 12  2  0  0  0
 11 13  2  0  0  0
 12 14  1  0  0  0
  1  2  2  0  0  0
  1  3  1  0  0  0
 13 15  1  0  0  0
  2  5  1  0  0  0
 14 15  2  0  0  0
 14 16  1  0  0  0
  3  4  2  0  0  0
  3 17  1  0  0  0
  4  6  1  0  0  0
  4 22  1  0  0  0
 15 18  1  0  0  0
  5  6  2  0  0  0
  5  8  1  0  0  0
  6  9  1  0  0  0
 16 17  2  0  0  0
 16 19  1  0  0  0
 22 23  2  0  0  0
 22 24  1  0  0  0
 18 19  1  0  0  0
  7  8  1  0  0  0
  7  9  1  0  0  0
 19 20  1  0  0  0
 24 25  1  0  0  0
 20 21  1  0  0  0
M  END
> <minimizedAffinity>
-7.82808

$$$$
3ZT3_ZT4_A_1216


 25 28  0  0  0  0  0  0  0  0999 V2000
  -37.2789   31.7003    0.6992 C   0  0  0  0  0  0  0  0  0  0  0  0
  -38.1022   32.6600    1.3218 C   0  0  0  0  0  0  0  0  0  0  0  0
  -36.4216   32.0737   -0.3334 C   0  0  0  0  0  0  0  0  0  0  0  0
  -36.3662   33.4231   -0.7850 C   0  0  0  0  0  0  0  0  0  0  0  0
  -37.9762   33.9595    0.8781 C   0  0  0  0  0  0  0  0  0  0  0  0
  -37.1739   34.3243   -0.1419 C   0  0  0  0  0  0  0  0  0  0  0  0
  -38.0896   36.0916    0.7443 C   0  0  0  0  0  0  0  0  0  0  0  0
  -38.7030   35.0094    1.3710 O   0  0  0  0  0  0  0  0  0  0  0  0
  -37.3104   35.6723   -0.3938 O   0  0  0  0  0  0  0  0  0  0  0  0
  -32.7561   32.6797    2.4670 C   0  0  0  0  0  0  0  0  0  0  0  0
  -31.5735   31.9977    2.5668 C   0  0  0  0  0  0  0  0  0  0  0  0
  -33.6819   32.3400    1.4962 C   0  0  0  0  0  0  0  0  0  0  0  0
  -31.3208   30.9422    1.7147 C   0  0  0  0  0  0  0  0  0  0  0  0
  -33.4419   31.2836    0.6475 C   0  0  0  0  0  0  0  0  0  0  0  0
  -32.2595   30.6035    0.7678 C   0  0  0  0  0  0  0  0  0  0  0  0
  -34.2657   30.7448   -0.4738 C   0  0  0  0  0  0  0  0  0  0  0  0
  -35.5299   31.0497   -0.9554 C   0  0  0  0  0  0  0  0  0  0  0  0
  -32.1534   29.5033   -0.2448 C   0  0  0  0  0  0  0  0  0  0  0  0
  -33.3351   29.7724   -1.1867 C   0  0  0  0  0  0  0  0  0  0  0  0
  -34.0702   28.6233   -1.5033 O   0  0  0  0  0  0  0  0  0  0  0  0
  -34.4440   28.2449   -0.6922 H   0  0  0  0  0  0  0  0  0  0  0  0
  -35.4663   33.8745   -1.9113 C   0  0  0  0  0  0  0  0  0  0  0  0
  -35.8116   33.7873   -3.1236 O   0  0  0  0  0  0  0  0  0  0  0  0
  -34.3099   34.3023   -1.5835 O   0  0  0  0  0  0  0  0  0  0  0  0
  -34.0707   34.3603   -0.6794 H   0  0  0  0  0  0  0  0  0  0  0  0
 10 11  1  0  0  0
 10 12  2  0  0  0
 11 13  2  0  0  0
 12 14  1  0  0  0
  1  2  2  0  0  0
  1  3  1  0  0  0
 13 15  1  0  0  0
  2  5  1  0  0  0
 14 15  2  0  0  0
 14 16  1  0  0  0
  3  4  2  0  0  0
  3 17  1  0  0  0
  4  6  1  0  0  0
  4 22  1  0  0  0
 15 18  1  0  0  0
  5  6  2  0  0  0
  5  8  1  0  0  0
  6  9  1  0  0  0
 16 17  2  0  0  0
 16 19  1  0  0  0
 22 23  2  0  0  0
 22 24  1  0  0  0
 18 19  1  0  0  0
  7  8  1  0  0  0
  7  9  1  0  0  0
 19 20  1  0  0  0
 24 25  1  0  0  0
 20 21  1  0  0  0
M  END
> <minimizedAffinity>
-7.67409

$$$$
