4FXP_ADX_A_301


 33 35  0  0  0  0  0  0  0  0999 V2000
  -13.6357   -8.1867   10.0695 C   0  0  0  0  0  0  0  0  0  0  0  0
  -14.0251   -9.3197    9.2973 O   0  0  0  0  0  0  0  0  0  0  0  0
  -14.6563   -8.0634   11.1548 C   0  0  0  0  0  0  0  0  0  0  0  0
  -14.9690   -6.7208   11.3910 O   0  0  0  0  0  0  0  0  0  0  0  0
  -15.8088   -8.6817   10.6116 C   0  0  0  0  0  0  0  0  0  0  0  0
  -16.5226   -7.7197    9.8915 O   0  0  0  0  0  0  0  0  0  0  0  0
  -15.3416   -9.6633    9.6118 C   0  0  0  0  0  0  0  0  0  0  0  0
  -15.2850   -6.3131   10.5695 H   0  0  0  0  0  0  0  0  0  0  0  0
  -15.9537   -7.3444    9.2013 H   0  0  0  0  0  0  0  0  0  0  0  0
  -15.4450  -11.0351   10.0203 N   0  0  0  0  0  0  0  0  0  0  0  0
  -16.0330  -12.0216    9.3067 C   0  0  0  0  0  0  0  0  0  0  0  0
  -15.8084  -13.1900    9.9301 N   0  0  0  0  0  0  0  0  0  0  0  0
  -15.0642  -12.9485   11.0341 C   0  0  0  0  0  0  0  0  0  0  0  0
  -14.5329  -13.7603   12.0528 C   0  0  0  0  0  0  0  0  0  0  0  0
  -14.7362  -15.1714   12.0010 N   0  0  0  0  0  0  0  0  0  0  0  0
  -13.8108  -13.2010   13.0577 N   0  0  0  0  0  0  0  0  0  0  0  0
  -13.6017  -11.8718   13.0876 C   0  0  0  0  0  0  0  0  0  0  0  0
  -14.0915  -11.0658   12.1144 N   0  0  0  0  0  0  0  0  0  0  0  0
  -14.8237  -11.5712   11.0939 C   0  0  0  0  0  0  0  0  0  0  0  0
  -15.2614  -15.5665   11.2680 H   0  0  0  0  0  0  0  0  0  0  0  0
  -14.3513  -15.7500   12.6983 H   0  0  0  0  0  0  0  0  0  0  0  0
  -12.3024   -8.4183   10.5868 C   0  0  0  0  0  0  0  0  0  0  0  0
  -11.2676   -8.4775    9.6336 O   0  0  0  0  0  0  0  0  0  0  0  0
   -9.7877   -8.0481    9.9761 P   0  0  0  0  0  0  0  0  0  0  0  0
   -9.1081   -7.5213    8.7536 O   0  0  0  0  0  0  0  0  0  0  0  0
   -9.8088   -7.0424   11.1133 O   0  0  0  0  0  0  0  0  0  0  0  0
   -8.9007   -6.7763   11.3265 H   0  0  0  0  0  0  0  0  0  0  0  0
   -9.0553   -9.3879   10.4157 O   0  0  0  0  0  0  0  0  0  0  0  0
   -8.0963   -9.5642   11.5620 S   0  0  0  0  0  0  0  0  0  0  0  0
   -8.7744  -10.1617   12.6815 O   0  0  0  0  0  0  0  0  0  0  0  0
   -7.6270   -8.2108   11.9413 O   0  0  0  0  0  0  0  0  0  0  0  0
   -6.9440  -10.4064   11.1809 O   0  0  0  0  0  0  0  0  0  0  0  0
   -6.3470  -10.5001   11.9397 H   0  0  0  0  0  0  0  0  0  0  0  0
 29 30  2  0  0  0
 29 31  2  0  0  0
 29 32  1  0  0  0
 29 28  1  0  0  0
 24 25  2  0  0  0
 24 26  1  0  0  0
 24 28  1  0  0  0
 24 23  1  0  0  0
 23 22  1  0  0  0
 22  1  1  0  0  0
  1  2  1  0  0  0
  1  3  1  0  0  0
  2  7  1  0  0  0
  3  4  1  0  0  0
  3  5  1  0  0  0
  5  6  1  0  0  0
  5  7  1  0  0  0
  7 10  1  0  0  0
 10 11  1  0  0  0
 10 19  1  0  0  0
 11 12  2  0  0  0
 12 13  1  0  0  0
 13 14  1  0  0  0
 13 19  2  0  0  0
 14 15  1  0  0  0
 14 16  2  0  0  0
 16 17  1  0  0  0
 17 18  2  0  0  0
 18 19  1  0  0  0
 32 33  1  0  0  0
 26 27  1  0  0  0
  4  8  1  0  0  0
  6  9  1  0  0  0
 15 20  1  0  0  0
 15 21  1  0  0  0
M  END
> <minimizedAffinity>
-9.83357

$$$$
4FXP_ADX_A_301


 33 35  0  0  0  0  0  0  0  0999 V2000
  -13.6929   -8.3654    9.7863 C   0  0  0  0  0  0  0  0  0  0  0  0
  -14.2869   -9.6496    9.6131 O   0  0  0  0  0  0  0  0  0  0  0  0
  -13.7851   -8.0681   11.2484 C   0  0  0  0  0  0  0  0  0  0  0  0
  -14.0960   -6.7213   11.4618 O   0  0  0  0  0  0  0  0  0  0  0  0
  -14.8919   -8.8367   11.6841 C   0  0  0  0  0  0  0  0  0  0  0  0
  -16.0507   -8.0769   11.5015 O   0  0  0  0  0  0  0  0  0  0  0  0
  -15.0146   -9.9806   10.7580 C   0  0  0  0  0  0  0  0  0  0  0  0
  -14.9274   -6.5060   11.0109 H   0  0  0  0  0  0  0  0  0  0  0  0
  -16.1290   -7.8261   10.5678 H   0  0  0  0  0  0  0  0  0  0  0  0
  -14.5984  -11.2423   11.3005 N   0  0  0  0  0  0  0  0  0  0  0  0
  -13.8924  -11.4084   12.4416 C   0  0  0  0  0  0  0  0  0  0  0  0
  -13.8170  -12.7228   12.7081 N   0  0  0  0  0  0  0  0  0  0  0  0
  -14.4883  -13.3931   11.7432 C   0  0  0  0  0  0  0  0  0  0  0  0
  -14.7470  -14.7536   11.4962 C   0  0  0  0  0  0  0  0  0  0  0  0
  -14.2684  -15.7351   12.4141 N   0  0  0  0  0  0  0  0  0  0  0  0
  -15.4703  -15.1189   10.4064 N   0  0  0  0  0  0  0  0  0  0  0  0
  -15.9401  -14.1863    9.5573 C   0  0  0  0  0  0  0  0  0  0  0  0
  -15.7163  -12.8676    9.7751 N   0  0  0  0  0  0  0  0  0  0  0  0
  -14.9956  -12.4499   10.8424 C   0  0  0  0  0  0  0  0  0  0  0  0
  -13.7450  -15.4594   13.2010 H   0  0  0  0  0  0  0  0  0  0  0  0
  -14.4616  -16.6882   12.2608 H   0  0  0  0  0  0  0  0  0  0  0  0
  -12.3231   -8.4248    9.3185 C   0  0  0  0  0  0  0  0  0  0  0  0
  -11.3346   -8.5847   10.3087 O   0  0  0  0  0  0  0  0  0  0  0  0
  -10.0721   -7.6409   10.3919 P   0  0  0  0  0  0  0  0  0  0  0  0
   -9.2944   -7.7072    9.1173 O   0  0  0  0  0  0  0  0  0  0  0  0
  -10.5225   -6.2310   10.7300 O   0  0  0  0  0  0  0  0  0  0  0  0
   -9.7489   -5.6481   10.7819 H   0  0  0  0  0  0  0  0  0  0  0  0
   -9.1748   -8.2454   11.5556 O   0  0  0  0  0  0  0  0  0  0  0  0
   -8.5571   -9.6167   11.6065 S   0  0  0  0  0  0  0  0  0  0  0  0
   -8.7855  -10.2101   12.8972 O   0  0  0  0  0  0  0  0  0  0  0  0
   -7.1002   -9.4392   11.4020 O   0  0  0  0  0  0  0  0  0  0  0  0
   -9.1073  -10.4991   10.5573 O   0  0  0  0  0  0  0  0  0  0  0  0
   -8.6895  -11.3725   10.6175 H   0  0  0  0  0  0  0  0  0  0  0  0
 29 30  2  0  0  0
 29 31  2  0  0  0
 29 32  1  0  0  0
 29 28  1  0  0  0
 24 25  2  0  0  0
 24 26  1  0  0  0
 24 28  1  0  0  0
 24 23  1  0  0  0
 23 22  1  0  0  0
 22  1  1  0  0  0
  1  2  1  0  0  0
  1  3  1  0  0  0
  2  7  1  0  0  0
  3  4  1  0  0  0
  3  5  1  0  0  0
  5  6  1  0  0  0
  5  7  1  0  0  0
  7 10  1  0  0  0
 10 11  1  0  0  0
 10 19  1  0  0  0
 11 12  2  0  0  0
 12 13  1  0  0  0
 13 14  1  0  0  0
 13 19  2  0  0  0
 14 15  1  0  0  0
 14 16  2  0  0  0
 16 17  1  0  0  0
 17 18  2  0  0  0
 18 19  1  0  0  0
 32 33  1  0  0  0
 26 27  1  0  0  0
  4  8  1  0  0  0
  6  9  1  0  0  0
 15 20  1  0  0  0
 15 21  1  0  0  0
M  END
> <minimizedAffinity>
-9.65073

$$$$
4FXP_ADX_A_301


 33 35  0  0  0  0  0  0  0  0999 V2000
  -12.2065   -7.9924    9.6099 C   0  0  0  0  0  0  0  0  0  0  0  0
  -12.3737   -6.5917    9.4050 O   0  0  0  0  0  0  0  0  0  0  0  0
  -11.4850   -8.1302   10.9119 C   0  0  0  0  0  0  0  0  0  0  0  0
  -10.5364   -9.1558   10.8468 O   0  0  0  0  0  0  0  0  0  0  0  0
  -10.7839   -6.9070   11.0448 C   0  0  0  0  0  0  0  0  0  0  0  0
   -9.5515   -7.0371   10.3985 O   0  0  0  0  0  0  0  0  0  0  0  0
  -11.5333   -5.8936   10.2748 C   0  0  0  0  0  0  0  0  0  0  0  0
   -9.9156   -8.9766   10.1233 H   0  0  0  0  0  0  0  0  0  0  0  0
   -9.6972   -7.2717    9.4687 H   0  0  0  0  0  0  0  0  0  0  0  0
  -12.2654   -4.9513   11.0718 N   0  0  0  0  0  0  0  0  0  0  0  0
  -11.9928   -3.6304   11.1689 C   0  0  0  0  0  0  0  0  0  0  0  0
  -12.9704   -3.0451   11.8802 N   0  0  0  0  0  0  0  0  0  0  0  0
  -13.8737   -3.9921   12.2239 C   0  0  0  0  0  0  0  0  0  0  0  0
  -15.0777   -3.9777   12.9514 C   0  0  0  0  0  0  0  0  0  0  0  0
  -15.5695   -2.7417   13.4666 N   0  0  0  0  0  0  0  0  0  0  0  0
  -15.7735   -5.1297   13.1332 N   0  0  0  0  0  0  0  0  0  0  0  0
  -15.3166   -6.2885   12.6235 C   0  0  0  0  0  0  0  0  0  0  0  0
  -14.1659   -6.3316   11.9090 N   0  0  0  0  0  0  0  0  0  0  0  0
  -13.4304   -5.2135   11.7042 C   0  0  0  0  0  0  0  0  0  0  0  0
  -15.0571   -1.9123   13.3291 H   0  0  0  0  0  0  0  0  0  0  0  0
  -16.4213   -2.7180   13.9597 H   0  0  0  0  0  0  0  0  0  0  0  0
  -13.5151   -8.6136    9.6334 C   0  0  0  0  0  0  0  0  0  0  0  0
  -13.6221   -9.8096   10.3691 O   0  0  0  0  0  0  0  0  0  0  0  0
  -15.0041  -10.3284   10.9281 P   0  0  0  0  0  0  0  0  0  0  0  0
  -15.9597   -9.1889   11.0777 O   0  0  0  0  0  0  0  0  0  0  0  0
  -15.5343  -11.4210   10.0170 O   0  0  0  0  0  0  0  0  0  0  0  0
  -16.3838  -11.7422   10.3576 H   0  0  0  0  0  0  0  0  0  0  0  0
  -14.6810  -10.9015   12.3744 O   0  0  0  0  0  0  0  0  0  0  0  0
  -13.5317  -11.7924   12.7620 S   0  0  0  0  0  0  0  0  0  0  0  0
  -13.6894  -13.0881   12.1566 O   0  0  0  0  0  0  0  0  0  0  0  0
  -13.5764  -11.9339   14.2363 O   0  0  0  0  0  0  0  0  0  0  0  0
  -12.2352  -11.2149   12.3524 O   0  0  0  0  0  0  0  0  0  0  0  0
  -11.5176  -11.8118   12.6161 H   0  0  0  0  0  0  0  0  0  0  0  0
 29 30  2  0  0  0
 29 31  2  0  0  0
 29 32  1  0  0  0
 29 28  1  0  0  0
 24 25  2  0  0  0
 24 26  1  0  0  0
 24 28  1  0  0  0
 24 23  1  0  0  0
 23 22  1  0  0  0
 22  1  1  0  0  0
  1  2  1  0  0  0
  1  3  1  0  0  0
  2  7  1  0  0  0
  3  4  1  0  0  0
  3  5  1  0  0  0
  5  6  1  0  0  0
  5  7  1  0  0  0
  7 10  1  0  0  0
 10 11  1  0  0  0
 10 19  1  0  0  0
 11 12  2  0  0  0
 12 13  1  0  0  0
 13 14  1  0  0  0
 13 19  2  0  0  0
 14 15  1  0  0  0
 14 16  2  0  0  0
 16 17  1  0  0  0
 17 18  2  0  0  0
 18 19  1  0  0  0
 32 33  1  0  0  0
 26 27  1  0  0  0
  4  8  1  0  0  0
  6  9  1  0  0  0
 15 20  1  0  0  0
 15 21  1  0  0  0
M  END
> <minimizedAffinity>
-8.66667

$$$$
4FXP_ADX_A_301


 33 35  0  0  0  0  0  0  0  0999 V2000
  -15.3175   -8.4914   10.0482 C   0  0  0  0  0  0  0  0  0  0  0  0
  -14.6517   -9.7041    9.7048 O   0  0  0  0  0  0  0  0  0  0  0  0
  -16.7794   -8.7879    9.9505 C   0  0  0  0  0  0  0  0  0  0  0  0
  -17.4688   -7.7049    9.3956 O   0  0  0  0  0  0  0  0  0  0  0  0
  -16.8498   -9.8585    9.0262 C   0  0  0  0  0  0  0  0  0  0  0  0
  -16.9178   -9.3202    7.7381 O   0  0  0  0  0  0  0  0  0  0  0  0
  -15.5584  -10.5721    9.0928 C   0  0  0  0  0  0  0  0  0  0  0  0
  -17.0977   -7.4979    8.5236 H   0  0  0  0  0  0  0  0  0  0  0  0
  -16.1436   -8.7570    7.5818 H   0  0  0  0  0  0  0  0  0  0  0  0
  -15.6053  -11.8416    9.7603 N   0  0  0  0  0  0  0  0  0  0  0  0
  -16.1569  -12.9694    9.2582 C   0  0  0  0  0  0  0  0  0  0  0  0
  -15.8832  -13.9854   10.0932 N   0  0  0  0  0  0  0  0  0  0  0  0
  -15.1442  -13.5063   11.1206 C   0  0  0  0  0  0  0  0  0  0  0  0
  -14.5766  -14.0843   12.2706 C   0  0  0  0  0  0  0  0  0  0  0  0
  -14.7239  -15.4853   12.4954 N   0  0  0  0  0  0  0  0  0  0  0  0
  -13.8728  -13.3136   13.1395 N   0  0  0  0  0  0  0  0  0  0  0  0
  -13.7166  -11.9969   12.9090 C   0  0  0  0  0  0  0  0  0  0  0  0
  -14.2424  -11.4142   11.8042 N   0  0  0  0  0  0  0  0  0  0  0  0
  -14.9584  -12.1354   10.9097 C   0  0  0  0  0  0  0  0  0  0  0  0
  -15.2362  -16.0348   11.8591 H   0  0  0  0  0  0  0  0  0  0  0  0
  -14.3132  -15.9027   13.2868 H   0  0  0  0  0  0  0  0  0  0  0  0
  -14.9180   -8.1102   11.3875 C   0  0  0  0  0  0  0  0  0  0  0  0
  -14.1423   -6.9398   11.4952 O   0  0  0  0  0  0  0  0  0  0  0  0
  -14.7785   -5.5450   11.8714 P   0  0  0  0  0  0  0  0  0  0  0  0
  -16.1531   -5.4336   11.2953 O   0  0  0  0  0  0  0  0  0  0  0  0
  -14.7610   -5.3776   13.3803 O   0  0  0  0  0  0  0  0  0  0  0  0
  -15.1514   -4.5212   13.6151 H   0  0  0  0  0  0  0  0  0  0  0  0
  -13.8537   -4.4610   11.1685 O   0  0  0  0  0  0  0  0  0  0  0  0
  -12.4261   -4.6355   10.7254 S   0  0  0  0  0  0  0  0  0  0  0  0
  -11.5621   -4.7127   11.8732 O   0  0  0  0  0  0  0  0  0  0  0  0
  -12.0741   -3.4363    9.9293 O   0  0  0  0  0  0  0  0  0  0  0  0
  -12.2579   -5.8510    9.9029 O   0  0  0  0  0  0  0  0  0  0  0  0
  -11.3295   -5.9338    9.6345 H   0  0  0  0  0  0  0  0  0  0  0  0
 29 30  2  0  0  0
 29 31  2  0  0  0
 29 32  1  0  0  0
 29 28  1  0  0  0
 24 25  2  0  0  0
 24 26  1  0  0  0
 24 28  1  0  0  0
 24 23  1  0  0  0
 23 22  1  0  0  0
 22  1  1  0  0  0
  1  2  1  0  0  0
  1  3  1  0  0  0
  2  7  1  0  0  0
  3  4  1  0  0  0
  3  5  1  0  0  0
  5  6  1  0  0  0
  5  7  1  0  0  0
  7 10  1  0  0  0
 10 11  1  0  0  0
 10 19  1  0  0  0
 11 12  2  0  0  0
 12 13  1  0  0  0
 13 14  1  0  0  0
 13 19  2  0  0  0
 14 15  1  0  0  0
 14 16  2  0  0  0
 16 17  1  0  0  0
 17 18  2  0  0  0
 18 19  1  0  0  0
 32 33  1  0  0  0
 26 27  1  0  0  0
  4  8  1  0  0  0
  6  9  1  0  0  0
 15 20  1  0  0  0
 15 21  1  0  0  0
M  END
> <minimizedAffinity>
-8.65060

$$$$
4FXP_ADX_A_301


 33 35  0  0  0  0  0  0  0  0999 V2000
  -14.7665   -8.5473    9.9227 C   0  0  0  0  0  0  0  0  0  0  0  0
  -14.4433   -9.8316    9.3955 O   0  0  0  0  0  0  0  0  0  0  0  0
  -16.2099   -8.6158   10.3056 C   0  0  0  0  0  0  0  0  0  0  0  0
  -16.8634   -7.4198    9.9917 O   0  0  0  0  0  0  0  0  0  0  0  0
  -16.7387   -9.6254    9.4651 C   0  0  0  0  0  0  0  0  0  0  0  0
  -17.1315   -9.0315    8.2624 O   0  0  0  0  0  0  0  0  0  0  0  0
  -15.6218  -10.5277    9.1186 C   0  0  0  0  0  0  0  0  0  0  0  0
  -16.7641   -7.2361    9.0445 H   0  0  0  0  0  0  0  0  0  0  0  0
  -16.3707   -8.5857    7.8583 H   0  0  0  0  0  0  0  0  0  0  0  0
  -15.6492  -11.8014    9.7789 N   0  0  0  0  0  0  0  0  0  0  0  0
  -16.2007  -12.9301    9.2788 C   0  0  0  0  0  0  0  0  0  0  0  0
  -15.9067  -13.9491   10.1031 N   0  0  0  0  0  0  0  0  0  0  0  0
  -15.1548  -13.4709   11.1215 C   0  0  0  0  0  0  0  0  0  0  0  0
  -14.5649  -14.0518   12.2588 C   0  0  0  0  0  0  0  0  0  0  0  0
  -14.6987  -15.4552   12.4773 N   0  0  0  0  0  0  0  0  0  0  0  0
  -13.8527  -13.2814   13.1211 N   0  0  0  0  0  0  0  0  0  0  0  0
  -13.7095  -11.9622   12.8962 C   0  0  0  0  0  0  0  0  0  0  0  0
  -14.2569  -11.3766   11.8035 N   0  0  0  0  0  0  0  0  0  0  0  0
  -14.9820  -12.0975   10.9161 C   0  0  0  0  0  0  0  0  0  0  0  0
  -15.2172  -16.0044   11.8459 H   0  0  0  0  0  0  0  0  0  0  0  0
  -14.2725  -15.8744   13.2595 H   0  0  0  0  0  0  0  0  0  0  0  0
  -13.9044   -8.2849   11.0570 C   0  0  0  0  0  0  0  0  0  0  0  0
  -13.3686   -6.9855   11.1429 O   0  0  0  0  0  0  0  0  0  0  0  0
  -11.9210   -6.6398   10.6169 P   0  0  0  0  0  0  0  0  0  0  0  0
  -10.9101   -7.5249   11.2716 O   0  0  0  0  0  0  0  0  0  0  0  0
  -11.8997   -6.7474    9.1026 O   0  0  0  0  0  0  0  0  0  0  0  0
  -11.0114   -6.5356    8.7758 H   0  0  0  0  0  0  0  0  0  0  0  0
  -11.6526   -5.1452   11.0843 O   0  0  0  0  0  0  0  0  0  0  0  0
  -12.5251   -3.9449   10.8333 S   0  0  0  0  0  0  0  0  0  0  0  0
  -12.5582   -3.6480    9.4259 O   0  0  0  0  0  0  0  0  0  0  0  0
  -11.9098   -2.8080   11.5576 O   0  0  0  0  0  0  0  0  0  0  0  0
  -13.9024   -4.1638   11.3204 O   0  0  0  0  0  0  0  0  0  0  0  0
  -14.4372   -3.3740   11.1439 H   0  0  0  0  0  0  0  0  0  0  0  0
 29 30  2  0  0  0
 29 31  2  0  0  0
 29 32  1  0  0  0
 29 28  1  0  0  0
 24 25  2  0  0  0
 24 26  1  0  0  0
 24 28  1  0  0  0
 24 23  1  0  0  0
 23 22  1  0  0  0
 22  1  1  0  0  0
  1  2  1  0  0  0
  1  3  1  0  0  0
  2  7  1  0  0  0
  3  4  1  0  0  0
  3  5  1  0  0  0
  5  6  1  0  0  0
  5  7  1  0  0  0
  7 10  1  0  0  0
 10 11  1  0  0  0
 10 19  1  0  0  0
 11 12  2  0  0  0
 12 13  1  0  0  0
 13 14  1  0  0  0
 13 19  2  0  0  0
 14 15  1  0  0  0
 14 16  2  0  0  0
 16 17  1  0  0  0
 17 18  2  0  0  0
 18 19  1  0  0  0
 32 33  1  0  0  0
 26 27  1  0  0  0
  4  8  1  0  0  0
  6  9  1  0  0  0
 15 20  1  0  0  0
 15 21  1  0  0  0
M  END
> <minimizedAffinity>
-8.53411

$$$$
4FXP_ADX_A_301


 33 35  0  0  0  0  0  0  0  0999 V2000
  -13.7423   -8.2426   10.1662 C   0  0  0  0  0  0  0  0  0  0  0  0
  -14.1312   -9.2196    9.2038 O   0  0  0  0  0  0  0  0  0  0  0  0
  -14.8446   -8.2038   11.1752 C   0  0  0  0  0  0  0  0  0  0  0  0
  -15.0942   -6.8906   11.5865 O   0  0  0  0  0  0  0  0  0  0  0  0
  -15.9807   -8.6503   10.4572 C   0  0  0  0  0  0  0  0  0  0  0  0
  -16.5686   -7.5441    9.8376 O   0  0  0  0  0  0  0  0  0  0  0  0
  -15.4886   -9.5077    9.3599 C   0  0  0  0  0  0  0  0  0  0  0  0
  -15.3115   -6.3457   10.8141 H   0  0  0  0  0  0  0  0  0  0  0  0
  -15.9196   -7.1152    9.2581 H   0  0  0  0  0  0  0  0  0  0  0  0
  -15.7110  -10.9130    9.5473 N   0  0  0  0  0  0  0  0  0  0  0  0
  -15.6901  -11.5565   10.7363 C   0  0  0  0  0  0  0  0  0  0  0  0
  -16.0849  -12.8254   10.5407 N   0  0  0  0  0  0  0  0  0  0  0  0
  -16.3714  -12.9856    9.2279 C   0  0  0  0  0  0  0  0  0  0  0  0
  -16.8202  -14.0680    8.4495 C   0  0  0  0  0  0  0  0  0  0  0  0
  -17.0944  -15.3178    9.0802 N   0  0  0  0  0  0  0  0  0  0  0  0
  -17.0147  -13.9082    7.1149 N   0  0  0  0  0  0  0  0  0  0  0  0
  -16.7776  -12.7195    6.5300 C   0  0  0  0  0  0  0  0  0  0  0  0
  -16.3553  -11.6559    7.2559 N   0  0  0  0  0  0  0  0  0  0  0  0
  -16.1392  -11.7629    8.5881 C   0  0  0  0  0  0  0  0  0  0  0  0
  -16.9500  -15.4227   10.0484 H   0  0  0  0  0  0  0  0  0  0  0  0
  -17.4282  -16.0753    8.5473 H   0  0  0  0  0  0  0  0  0  0  0  0
  -12.4761   -8.6443   10.7443 C   0  0  0  0  0  0  0  0  0  0  0  0
  -11.3406   -8.4817    9.9275 O   0  0  0  0  0  0  0  0  0  0  0  0
  -10.1373   -7.5480   10.3421 P   0  0  0  0  0  0  0  0  0  0  0  0
   -9.0999   -7.5362    9.2662 O   0  0  0  0  0  0  0  0  0  0  0  0
  -10.6665   -6.1610   10.6600 O   0  0  0  0  0  0  0  0  0  0  0  0
   -9.9294   -5.5844   10.9153 H   0  0  0  0  0  0  0  0  0  0  0  0
   -9.5082   -8.2263   11.6339 O   0  0  0  0  0  0  0  0  0  0  0  0
   -8.5567   -9.3915   11.6755 S   0  0  0  0  0  0  0  0  0  0  0  0
   -8.8158  -10.1953   12.8402 O   0  0  0  0  0  0  0  0  0  0  0  0
   -7.1898   -8.8265   11.7666 O   0  0  0  0  0  0  0  0  0  0  0  0
   -8.6731  -10.2306   10.4653 O   0  0  0  0  0  0  0  0  0  0  0  0
   -8.0484  -10.9704   10.5234 H   0  0  0  0  0  0  0  0  0  0  0  0
 29 30  2  0  0  0
 29 31  2  0  0  0
 29 32  1  0  0  0
 29 28  1  0  0  0
 24 25  2  0  0  0
 24 26  1  0  0  0
 24 28  1  0  0  0
 24 23  1  0  0  0
 23 22  1  0  0  0
 22  1  1  0  0  0
  1  2  1  0  0  0
  1  3  1  0  0  0
  2  7  1  0  0  0
  3  4  1  0  0  0
  3  5  1  0  0  0
  5  6  1  0  0  0
  5  7  1  0  0  0
  7 10  1  0  0  0
 10 11  1  0  0  0
 10 19  1  0  0  0
 11 12  2  0  0  0
 12 13  1  0  0  0
 13 14  1  0  0  0
 13 19  2  0  0  0
 14 15  1  0  0  0
 14 16  2  0  0  0
 16 17  1  0  0  0
 17 18  2  0  0  0
 18 19  1  0  0  0
 32 33  1  0  0  0
 26 27  1  0  0  0
  4  8  1  0  0  0
  6  9  1  0  0  0
 15 20  1  0  0  0
 15 21  1  0  0  0
M  END
> <minimizedAffinity>
-8.50391

$$$$
4FXP_ADX_A_301


 33 35  0  0  0  0  0  0  0  0999 V2000
  -13.2046   -8.6878   11.0740 C   0  0  0  0  0  0  0  0  0  0  0  0
  -14.6133   -8.7136   10.8580 O   0  0  0  0  0  0  0  0  0  0  0  0
  -12.7766  -10.1185   11.1409 C   0  0  0  0  0  0  0  0  0  0  0  0
  -11.8017  -10.2988   12.1273 O   0  0  0  0  0  0  0  0  0  0  0  0
  -13.9422  -10.8043   11.5612 C   0  0  0  0  0  0  0  0  0  0  0  0
  -13.9750  -10.7948   12.9584 O   0  0  0  0  0  0  0  0  0  0  0  0
  -15.0993   -9.9944   11.1293 C   0  0  0  0  0  0  0  0  0  0  0  0
  -12.1481   -9.9999   12.9827 H   0  0  0  0  0  0  0  0  0  0  0  0
  -13.9598   -9.8783   13.2760 H   0  0  0  0  0  0  0  0  0  0  0  0
  -15.8263  -10.5294   10.0137 N   0  0  0  0  0  0  0  0  0  0  0  0
  -16.3652   -9.8015    9.0097 C   0  0  0  0  0  0  0  0  0  0  0  0
  -16.8349  -10.6457    8.0764 N   0  0  0  0  0  0  0  0  0  0  0  0
  -16.5816  -11.9122    8.4802 C   0  0  0  0  0  0  0  0  0  0  0  0
  -16.8341  -13.1829    7.9321 C   0  0  0  0  0  0  0  0  0  0  0  0
  -17.4683  -13.2824    6.6582 N   0  0  0  0  0  0  0  0  0  0  0  0
  -16.4493  -14.2991    8.6033 N   0  0  0  0  0  0  0  0  0  0  0  0
  -15.8292  -14.1978    9.7935 C   0  0  0  0  0  0  0  0  0  0  0  0
  -15.5627  -12.9873   10.3413 N   0  0  0  0  0  0  0  0  0  0  0  0
  -15.9309  -11.8436    9.7173 C   0  0  0  0  0  0  0  0  0  0  0  0
  -17.7432  -12.4668    6.1802 H   0  0  0  0  0  0  0  0  0  0  0  0
  -17.6311  -14.1666    6.2570 H   0  0  0  0  0  0  0  0  0  0  0  0
  -12.5836   -7.9746    9.9765 C   0  0  0  0  0  0  0  0  0  0  0  0
  -11.4019   -8.5388    9.4583 O   0  0  0  0  0  0  0  0  0  0  0  0
   -9.9722   -8.0955    9.9594 P   0  0  0  0  0  0  0  0  0  0  0  0
   -9.1823   -7.5268    8.8252 O   0  0  0  0  0  0  0  0  0  0  0  0
  -10.1263   -7.1200   11.1125 O   0  0  0  0  0  0  0  0  0  0  0  0
   -9.2493   -6.8454   11.4230 H   0  0  0  0  0  0  0  0  0  0  0  0
   -9.2639   -9.4346   10.4386 O   0  0  0  0  0  0  0  0  0  0  0  0
   -8.2470   -9.5804   11.5383 S   0  0  0  0  0  0  0  0  0  0  0  0
   -7.7577   -8.2851   11.9291 O   0  0  0  0  0  0  0  0  0  0  0  0
   -7.1277  -10.3784   10.9850 O   0  0  0  0  0  0  0  0  0  0  0  0
   -8.8166  -10.2650   12.7169 O   0  0  0  0  0  0  0  0  0  0  0  0
   -8.1376  -10.3427   13.4052 H   0  0  0  0  0  0  0  0  0  0  0  0
 29 30  2  0  0  0
 29 31  2  0  0  0
 29 32  1  0  0  0
 29 28  1  0  0  0
 24 25  2  0  0  0
 24 26  1  0  0  0
 24 28  1  0  0  0
 24 23  1  0  0  0
 23 22  1  0  0  0
 22  1  1  0  0  0
  1  2  1  0  0  0
  1  3  1  0  0  0
  2  7  1  0  0  0
  3  4  1  0  0  0
  3  5  1  0  0  0
  5  6  1  0  0  0
  5  7  1  0  0  0
  7 10  1  0  0  0
 10 11  1  0  0  0
 10 19  1  0  0  0
 11 12  2  0  0  0
 12 13  1  0  0  0
 13 14  1  0  0  0
 13 19  2  0  0  0
 14 15  1  0  0  0
 14 16  2  0  0  0
 16 17  1  0  0  0
 17 18  2  0  0  0
 18 19  1  0  0  0
 32 33  1  0  0  0
 26 27  1  0  0  0
  4  8  1  0  0  0
  6  9  1  0  0  0
 15 20  1  0  0  0
 15 21  1  0  0  0
M  END
> <minimizedAffinity>
-8.06107

$$$$
4FXP_ADX_A_301


 33 35  0  0  0  0  0  0  0  0999 V2000
  -12.1397   -8.0937    9.5628 C   0  0  0  0  0  0  0  0  0  0  0  0
  -12.2999   -6.6887    9.3836 O   0  0  0  0  0  0  0  0  0  0  0  0
  -11.4814   -8.2618   10.8944 C   0  0  0  0  0  0  0  0  0  0  0  0
  -10.5284   -9.2844   10.8507 O   0  0  0  0  0  0  0  0  0  0  0  0
  -10.7902   -7.0413   11.0902 C   0  0  0  0  0  0  0  0  0  0  0  0
   -9.5278   -7.1545   10.5011 O   0  0  0  0  0  0  0  0  0  0  0  0
  -11.5040   -6.0107   10.3093 C   0  0  0  0  0  0  0  0  0  0  0  0
   -9.8739   -9.0873   10.1624 H   0  0  0  0  0  0  0  0  0  0  0  0
   -9.6281   -7.3670    9.5600 H   0  0  0  0  0  0  0  0  0  0  0  0
  -12.2758   -5.0885   11.0924 N   0  0  0  0  0  0  0  0  0  0  0  0
  -12.0183   -3.7677   11.2242 C   0  0  0  0  0  0  0  0  0  0  0  0
  -13.0289   -3.2027   11.9052 N   0  0  0  0  0  0  0  0  0  0  0  0
  -13.9377   -4.1626   12.1946 C   0  0  0  0  0  0  0  0  0  0  0  0
  -15.1705   -4.1704   12.8722 C   0  0  0  0  0  0  0  0  0  0  0  0
  -15.6931   -2.9477   13.3889 N   0  0  0  0  0  0  0  0  0  0  0  0
  -15.8636   -5.3307   13.0047 N   0  0  0  0  0  0  0  0  0  0  0  0
  -15.3768   -6.4766   12.4935 C   0  0  0  0  0  0  0  0  0  0  0  0
  -14.1975   -6.4980   11.8261 N   0  0  0  0  0  0  0  0  0  0  0  0
  -13.4635   -5.3709   11.6717 C   0  0  0  0  0  0  0  0  0  0  0  0
  -15.1823   -2.1122   13.2874 H   0  0  0  0  0  0  0  0  0  0  0  0
  -16.5645   -2.9394   13.8470 H   0  0  0  0  0  0  0  0  0  0  0  0
  -13.4464   -8.7167    9.5084 C   0  0  0  0  0  0  0  0  0  0  0  0
  -13.7520   -9.6119   10.5517 O   0  0  0  0  0  0  0  0  0  0  0  0
  -15.0980  -10.4359   10.5811 P   0  0  0  0  0  0  0  0  0  0  0  0
  -14.8387  -11.8292   11.0558 O   0  0  0  0  0  0  0  0  0  0  0  0
  -16.1140   -9.7045   11.4400 O   0  0  0  0  0  0  0  0  0  0  0  0
  -16.9427  -10.2083   11.4603 H   0  0  0  0  0  0  0  0  0  0  0  0
  -15.5780  -10.5058    9.0681 O   0  0  0  0  0  0  0  0  0  0  0  0
  -16.8571   -9.9576    8.4952 S   0  0  0  0  0  0  0  0  0  0  0  0
  -17.9725  -10.7523    8.9361 O   0  0  0  0  0  0  0  0  0  0  0  0
  -16.7427  -10.0528    7.0208 O   0  0  0  0  0  0  0  0  0  0  0  0
  -17.0706   -8.5508    8.8922 O   0  0  0  0  0  0  0  0  0  0  0  0
  -17.9008   -8.2287    8.5077 H   0  0  0  0  0  0  0  0  0  0  0  0
 29 30  2  0  0  0
 29 31  2  0  0  0
 29 32  1  0  0  0
 29 28  1  0  0  0
 24 25  2  0  0  0
 24 26  1  0  0  0
 24 28  1  0  0  0
 24 23  1  0  0  0
 23 22  1  0  0  0
 22  1  1  0  0  0
  1  2  1  0  0  0
  1  3  1  0  0  0
  2  7  1  0  0  0
  3  4  1  0  0  0
  3  5  1  0  0  0
  5  6  1  0  0  0
  5  7  1  0  0  0
  7 10  1  0  0  0
 10 11  1  0  0  0
 10 19  1  0  0  0
 11 12  2  0  0  0
 12 13  1  0  0  0
 13 14  1  0  0  0
 13 19  2  0  0  0
 14 15  1  0  0  0
 14 16  2  0  0  0
 16 17  1  0  0  0
 17 18  2  0  0  0
 18 19  1  0  0  0
 32 33  1  0  0  0
 26 27  1  0  0  0
  4  8  1  0  0  0
  6  9  1  0  0  0
 15 20  1  0  0  0
 15 21  1  0  0  0
M  END
> <minimizedAffinity>
-7.89044

$$$$
4FXP_ADX_A_301


 33 35  0  0  0  0  0  0  0  0999 V2000
  -10.8639   -6.7300   10.6636 C   0  0  0  0  0  0  0  0  0  0  0  0
  -11.7433   -7.4554   11.5193 O   0  0  0  0  0  0  0  0  0  0  0  0
  -10.6160   -7.6184    9.4872 C   0  0  0  0  0  0  0  0  0  0  0  0
   -9.2809   -7.5386    9.0784 O   0  0  0  0  0  0  0  0  0  0  0  0
  -10.8309   -8.9234    9.9934 C   0  0  0  0  0  0  0  0  0  0  0  0
   -9.6293   -9.3841   10.5387 O   0  0  0  0  0  0  0  0  0  0  0  0
  -11.7633   -8.7969   11.1318 C   0  0  0  0  0  0  0  0  0  0  0  0
   -8.7012   -7.7743    9.8195 H   0  0  0  0  0  0  0  0  0  0  0  0
   -9.3323   -8.7719   11.2300 H   0  0  0  0  0  0  0  0  0  0  0  0
  -13.0995   -9.2498   10.8694 N   0  0  0  0  0  0  0  0  0  0  0  0
  -13.9705   -8.6645   10.0168 C   0  0  0  0  0  0  0  0  0  0  0  0
  -15.0596   -9.4446    9.9187 N   0  0  0  0  0  0  0  0  0  0  0  0
  -14.8753  -10.5348   10.6988 C   0  0  0  0  0  0  0  0  0  0  0  0
  -15.6515  -11.6709   10.9916 C   0  0  0  0  0  0  0  0  0  0  0  0
  -16.9225  -11.8312   10.3639 N   0  0  0  0  0  0  0  0  0  0  0  0
  -15.1759  -12.6153   11.8438 N   0  0  0  0  0  0  0  0  0  0  0  0
  -13.9654  -12.4701   12.4139 C   0  0  0  0  0  0  0  0  0  0  0  0
  -13.1904  -11.3921   12.1423 N   0  0  0  0  0  0  0  0  0  0  0  0
  -13.6197  -10.4182   11.3055 C   0  0  0  0  0  0  0  0  0  0  0  0
  -17.2578  -11.1404    9.7477 H   0  0  0  0  0  0  0  0  0  0  0  0
  -17.4643  -12.6326   10.5468 H   0  0  0  0  0  0  0  0  0  0  0  0
  -11.5057   -5.4854   10.2922 C   0  0  0  0  0  0  0  0  0  0  0  0
  -12.7362   -5.2096   10.9189 O   0  0  0  0  0  0  0  0  0  0  0  0
  -13.2088   -3.7347   11.2240 P   0  0  0  0  0  0  0  0  0  0  0  0
  -12.0641   -2.9230   11.7384 O   0  0  0  0  0  0  0  0  0  0  0  0
  -13.8327   -3.1403    9.9740 O   0  0  0  0  0  0  0  0  0  0  0  0
  -14.1243   -2.2337   10.1579 H   0  0  0  0  0  0  0  0  0  0  0  0
  -14.2842   -3.8726   12.3855 O   0  0  0  0  0  0  0  0  0  0  0  0
  -15.4305   -4.8455   12.4507 S   0  0  0  0  0  0  0  0  0  0  0  0
  -16.2345   -4.7369   11.2625 O   0  0  0  0  0  0  0  0  0  0  0  0
  -16.2469   -4.4688   13.6285 O   0  0  0  0  0  0  0  0  0  0  0  0
  -14.9541   -6.2365   12.5944 O   0  0  0  0  0  0  0  0  0  0  0  0
  -15.7153   -6.8365   12.6333 H   0  0  0  0  0  0  0  0  0  0  0  0
 29 30  2  0  0  0
 29 31  2  0  0  0
 29 32  1  0  0  0
 29 28  1  0  0  0
 24 25  2  0  0  0
 24 26  1  0  0  0
 24 28  1  0  0  0
 24 23  1  0  0  0
 23 22  1  0  0  0
 22  1  1  0  0  0
  1  2  1  0  0  0
  1  3  1  0  0  0
  2  7  1  0  0  0
  3  4  1  0  0  0
  3  5  1  0  0  0
  5  6  1  0  0  0
  5  7  1  0  0  0
  7 10  1  0  0  0
 10 11  1  0  0  0
 10 19  1  0  0  0
 11 12  2  0  0  0
 12 13  1  0  0  0
 13 14  1  0  0  0
 13 19  2  0  0  0
 14 15  1  0  0  0
 14 16  2  0  0  0
 16 17  1  0  0  0
 17 18  2  0  0  0
 18 19  1  0  0  0
 32 33  1  0  0  0
 26 27  1  0  0  0
  4  8  1  0  0  0
  6  9  1  0  0  0
 15 20  1  0  0  0
 15 21  1  0  0  0
M  END
> <minimizedAffinity>
-7.78563

$$$$
4FXP_ADX_A_301


 33 35  0  0  0  0  0  0  0  0999 V2000
  -14.0521   -4.6567   11.9672 C   0  0  0  0  0  0  0  0  0  0  0  0
  -14.6999   -5.4436   10.9707 O   0  0  0  0  0  0  0  0  0  0  0  0
  -14.5311   -5.1874   13.2800 C   0  0  0  0  0  0  0  0  0  0  0  0
  -14.7498   -4.1447   14.1862 O   0  0  0  0  0  0  0  0  0  0  0  0
  -15.7896   -5.7619   12.9774 C   0  0  0  0  0  0  0  0  0  0  0  0
  -16.7616   -4.7625   13.0768 O   0  0  0  0  0  0  0  0  0  0  0  0
  -15.7572   -6.1468   11.5518 C   0  0  0  0  0  0  0  0  0  0  0  0
  -15.3888   -3.5189   13.8109 H   0  0  0  0  0  0  0  0  0  0  0  0
  -16.5409   -4.0357   12.4735 H   0  0  0  0  0  0  0  0  0  0  0  0
  -15.6476   -7.5572   11.3109 N   0  0  0  0  0  0  0  0  0  0  0  0
  -14.9294   -8.4250   12.0587 C   0  0  0  0  0  0  0  0  0  0  0  0
  -15.1815   -9.6710   11.6248 N   0  0  0  0  0  0  0  0  0  0  0  0
  -16.0725   -9.5970   10.6090 C   0  0  0  0  0  0  0  0  0  0  0  0
  -16.6953  -10.5499    9.7825 C   0  0  0  0  0  0  0  0  0  0  0  0
  -16.4253  -11.9358    9.9854 N   0  0  0  0  0  0  0  0  0  0  0  0
  -17.5655  -10.1473    8.8207 N   0  0  0  0  0  0  0  0  0  0  0  0
  -17.8347   -8.8396    8.6504 C   0  0  0  0  0  0  0  0  0  0  0  0
  -17.2586   -7.8997    9.4386 N   0  0  0  0  0  0  0  0  0  0  0  0
  -16.3788   -8.2465   10.4075 C   0  0  0  0  0  0  0  0  0  0  0  0
  -15.7927  -12.2168   10.6855 H   0  0  0  0  0  0  0  0  0  0  0  0
  -16.8717  -12.6114    9.4254 H   0  0  0  0  0  0  0  0  0  0  0  0
  -12.6193   -4.7949   11.8035 C   0  0  0  0  0  0  0  0  0  0  0  0
  -12.1122   -6.1078   11.8506 O   0  0  0  0  0  0  0  0  0  0  0  0
  -11.2853   -6.7297   10.6584 P   0  0  0  0  0  0  0  0  0  0  0  0
  -12.1186   -6.7675    9.4181 O   0  0  0  0  0  0  0  0  0  0  0  0
  -10.0002   -5.9421   10.4762 O   0  0  0  0  0  0  0  0  0  0  0  0
   -9.4894   -6.3216    9.7441 H   0  0  0  0  0  0  0  0  0  0  0  0
  -10.9780   -8.2251   11.0986 O   0  0  0  0  0  0  0  0  0  0  0  0
   -9.6256   -8.8691   11.2435 S   0  0  0  0  0  0  0  0  0  0  0  0
   -9.1901   -9.3869    9.9738 O   0  0  0  0  0  0  0  0  0  0  0  0
   -9.7842   -9.9902   12.1993 O   0  0  0  0  0  0  0  0  0  0  0  0
   -8.6212   -7.9133   11.7533 O   0  0  0  0  0  0  0  0  0  0  0  0
   -7.7633   -8.3586   11.8349 H   0  0  0  0  0  0  0  0  0  0  0  0
 29 30  2  0  0  0
 29 31  2  0  0  0
 29 32  1  0  0  0
 29 28  1  0  0  0
 24 25  2  0  0  0
 24 26  1  0  0  0
 24 28  1  0  0  0
 24 23  1  0  0  0
 23 22  1  0  0  0
 22  1  1  0  0  0
  1  2  1  0  0  0
  1  3  1  0  0  0
  2  7  1  0  0  0
  3  4  1  0  0  0
  3  5  1  0  0  0
  5  6  1  0  0  0
  5  7  1  0  0  0
  7 10  1  0  0  0
 10 11  1  0  0  0
 10 19  1  0  0  0
 11 12  2  0  0  0
 12 13  1  0  0  0
 13 14  1  0  0  0
 13 19  2  0  0  0
 14 15  1  0  0  0
 14 16  2  0  0  0
 16 17  1  0  0  0
 17 18  2  0  0  0
 18 19  1  0  0  0
 32 33  1  0  0  0
 26 27  1  0  0  0
  4  8  1  0  0  0
  6  9  1  0  0  0
 15 20  1  0  0  0
 15 21  1  0  0  0
M  END
> <minimizedAffinity>
-7.48394

$$$$
