3UP2_0C8_A_1


 31 33  0  0  0  0  0  0  0  0999 V2000
    3.6848   31.7415    9.1589 N   0  0  0  0  0  0  0  0  0  0  0  0
    4.4793   30.8308    7.1334 N   0  0  0  0  0  0  0  0  0  0  0  0
    4.2490   30.7433    9.8728 C   0  0  0  0  0  0  0  0  0  0  0  0
    3.8005   31.7725    7.8178 C   0  0  0  0  0  0  0  0  0  0  0  0
    5.0600   29.8004    7.8052 C   0  0  0  0  0  0  0  0  0  0  0  0
    4.9489   29.7359    9.2010 C   0  0  0  0  0  0  0  0  0  0  0  0
    5.7699   28.7668    7.0940 N   0  0  0  0  0  0  0  0  0  0  0  0
    5.3349   27.8946    6.9550 H   0  0  0  0  0  0  0  0  0  0  0  0
    7.0981   28.9774    6.5820 C   0  0  0  0  0  0  0  0  0  0  0  0
    8.2122   28.7224    7.3761 C   0  0  0  0  0  0  0  0  0  0  0  0
    9.4942   28.9252    6.8808 C   0  0  0  0  0  0  0  0  0  0  0  0
    9.6660   29.3979    5.5881 C   0  0  0  0  0  0  0  0  0  0  0  0
    8.5550   29.6684    4.7982 C   0  0  0  0  0  0  0  0  0  0  0  0
    7.2659   29.4499    5.2850 C   0  0  0  0  0  0  0  0  0  0  0  0
    6.1608   29.7475    4.4958 O   0  0  0  0  0  0  0  0  0  0  0  0
    5.4767   28.8007    3.7572 C   0  0  0  0  0  0  0  0  0  0  0  0
    6.0892   27.6071    3.8018 F   0  0  0  0  0  0  0  0  0  0  0  0
    5.4305   29.2194    2.4971 F   0  0  0  0  0  0  0  0  0  0  0  0
    4.2230   28.7143    4.2229 F   0  0  0  0  0  0  0  0  0  0  0  0
    3.1903   32.8810    7.1514 N   0  0  0  0  0  0  0  0  0  0  0  0
    2.9969   33.6719    7.7048 H   0  0  0  0  0  0  0  0  0  0  0  0
    2.8279   32.9686    5.7631 C   0  0  0  0  0  0  0  0  0  0  0  0
    1.7155   33.7367    5.4371 C   0  0  0  0  0  0  0  0  0  0  0  0
    1.3277   33.9014    4.1173 C   0  0  0  0  0  0  0  0  0  0  0  0
    2.0643   33.2747    3.1099 C   0  0  0  0  0  0  0  0  0  0  0  0
    3.1764   32.4921    3.4127 C   0  0  0  0  0  0  0  0  0  0  0  0
    3.5647   32.3626    4.7505 C   0  0  0  0  0  0  0  0  0  0  0  0
    1.5981   33.4524    1.7109 C   0  0  0  0  0  0  0  0  0  0  0  0
    0.6378   34.2414    1.4440 O   0  0  0  0  0  0  0  0  0  0  0  0
    2.1894   32.7720    0.8139 O   0  0  0  0  0  0  0  0  0  0  0  0
    2.8939   32.2002    1.0479 H   0  0  0  0  0  0  0  0  0  0  0  0
 29 28  2  0  0  0
 30 28  1  0  0  0
 28 25  1  0  0  0
 12 11  2  0  0  0
 12 13  1  0  0  0
 25 26  2  0  0  0
 25 24  1  0  0  0
 11 10  1  0  0  0
 26 27  1  0  0  0
 13 14  2  0  0  0
 24 23  2  0  0  0
 10  9  2  0  0  0
 27 22  2  0  0  0
 14  9  1  0  0  0
 14 15  1  0  0  0
 18 16  1  0  0  0
  9  7  1  0  0  0
 23 22  1  0  0  0
 15 16  1  0  0  0
 22 20  1  0  0  0
 16 17  1  0  0  0
 16 19  1  0  0  0
  7  5  1  0  0  0
  2  5  2  0  0  0
  2  4  1  0  0  0
 20  4  1  0  0  0
  5  6  1  0  0  0
  4  1  2  0  0  0
  6  3  2  0  0  0
  1  3  1  0  0  0
  7  8  1  0  0  0
 20 21  1  0  0  0
 30 31  1  0  0  0
M  END
> <minimizedAffinity>
-9.72850

$$$$
3UP2_0C8_A_1


 31 33  0  0  0  0  0  0  0  0999 V2000
    3.6078   31.6683    9.0668 N   0  0  0  0  0  0  0  0  0  0  0  0
    4.4935   30.8970    7.0213 N   0  0  0  0  0  0  0  0  0  0  0  0
    4.2117   30.6704    9.7479 C   0  0  0  0  0  0  0  0  0  0  0  0
    3.7494   31.7675    7.7315 C   0  0  0  0  0  0  0  0  0  0  0  0
    5.1165   29.8698    7.6594 C   0  0  0  0  0  0  0  0  0  0  0  0
    4.9803   29.7348    9.0479 C   0  0  0  0  0  0  0  0  0  0  0  0
    5.8973   28.9104    6.9190 N   0  0  0  0  0  0  0  0  0  0  0  0
    5.4776   28.0657    6.6370 H   0  0  0  0  0  0  0  0  0  0  0  0
    7.2744   29.1560    6.5818 C   0  0  0  0  0  0  0  0  0  0  0  0
    7.6064   29.8680    5.4329 C   0  0  0  0  0  0  0  0  0  0  0  0
    8.9362   30.1054    5.1084 C   0  0  0  0  0  0  0  0  0  0  0  0
    9.9426   29.6181    5.9292 C   0  0  0  0  0  0  0  0  0  0  0  0
    9.6145   28.8932    7.0687 C   0  0  0  0  0  0  0  0  0  0  0  0
    8.2803   28.6671    7.4081 C   0  0  0  0  0  0  0  0  0  0  0  0
    7.9630   27.9192    8.5363 O   0  0  0  0  0  0  0  0  0  0  0  0
    7.7776   26.5499    8.5135 C   0  0  0  0  0  0  0  0  0  0  0  0
    8.2231   26.0134    7.3665 F   0  0  0  0  0  0  0  0  0  0  0  0
    6.4757   26.3110    8.6288 F   0  0  0  0  0  0  0  0  0  0  0  0
    8.4038   26.0127    9.5695 F   0  0  0  0  0  0  0  0  0  0  0  0
    3.0926   32.8708    7.1017 N   0  0  0  0  0  0  0  0  0  0  0  0
    2.8636   33.6328    7.6815 H   0  0  0  0  0  0  0  0  0  0  0  0
    2.7296   32.9906    5.7160 C   0  0  0  0  0  0  0  0  0  0  0  0
    1.6330   33.7876    5.4061 C   0  0  0  0  0  0  0  0  0  0  0  0
    1.2463   33.9838    4.0903 C   0  0  0  0  0  0  0  0  0  0  0  0
    1.9678   33.3598    3.0703 C   0  0  0  0  0  0  0  0  0  0  0  0
    3.0637   32.5488    3.3567 C   0  0  0  0  0  0  0  0  0  0  0  0
    3.4516   32.3874    4.6911 C   0  0  0  0  0  0  0  0  0  0  0  0
    1.5028   33.5720    1.6757 C   0  0  0  0  0  0  0  0  0  0  0  0
    0.5477   34.3730    1.4267 O   0  0  0  0  0  0  0  0  0  0  0  0
    2.0898   32.9083    0.7635 O   0  0  0  0  0  0  0  0  0  0  0  0
    2.7905   32.3268    0.9845 H   0  0  0  0  0  0  0  0  0  0  0  0
 29 28  2  0  0  0
 30 28  1  0  0  0
 28 25  1  0  0  0
 12 11  2  0  0  0
 12 13  1  0  0  0
 25 26  2  0  0  0
 25 24  1  0  0  0
 11 10  1  0  0  0
 26 27  1  0  0  0
 13 14  2  0  0  0
 24 23  2  0  0  0
 10  9  2  0  0  0
 27 22  2  0  0  0
 14  9  1  0  0  0
 14 15  1  0  0  0
 18 16  1  0  0  0
  9  7  1  0  0  0
 23 22  1  0  0  0
 15 16  1  0  0  0
 22 20  1  0  0  0
 16 17  1  0  0  0
 16 19  1  0  0  0
  7  5  1  0  0  0
  2  5  2  0  0  0
  2  4  1  0  0  0
 20  4  1  0  0  0
  5  6  1  0  0  0
  4  1  2  0  0  0
  6  3  2  0  0  0
  1  3  1  0  0  0
  7  8  1  0  0  0
 20 21  1  0  0  0
 30 31  1  0  0  0
M  END
> <minimizedAffinity>
-9.62342

$$$$
3UP2_0C8_A_1


 31 33  0  0  0  0  0  0  0  0999 V2000
    3.7914   31.5782    9.0832 N   0  0  0  0  0  0  0  0  0  0  0  0
    4.6158   30.7622    7.0294 N   0  0  0  0  0  0  0  0  0  0  0  0
    4.3617   30.5582    9.7605 C   0  0  0  0  0  0  0  0  0  0  0  0
    3.9189   31.6662    7.7457 C   0  0  0  0  0  0  0  0  0  0  0  0
    5.2034   29.7121    7.6636 C   0  0  0  0  0  0  0  0  0  0  0  0
    5.0804   29.5882    9.0544 C   0  0  0  0  0  0  0  0  0  0  0  0
    5.9328   28.7176    6.9170 N   0  0  0  0  0  0  0  0  0  0  0  0
    6.1638   27.8651    7.3519 H   0  0  0  0  0  0  0  0  0  0  0  0
    6.3318   28.9394    5.5524 C   0  0  0  0  0  0  0  0  0  0  0  0
    5.4778   28.6142    4.5027 C   0  0  0  0  0  0  0  0  0  0  0  0
    5.8634   28.8294    3.1855 C   0  0  0  0  0  0  0  0  0  0  0  0
    7.1153   29.3610    2.9129 C   0  0  0  0  0  0  0  0  0  0  0  0
    7.9764   29.6719    3.9584 C   0  0  0  0  0  0  0  0  0  0  0  0
    7.5870   29.4739    5.2834 C   0  0  0  0  0  0  0  0  0  0  0  0
    8.4654   29.7645    6.3211 O   0  0  0  0  0  0  0  0  0  0  0  0
    9.5277   28.9516    6.6683 C   0  0  0  0  0  0  0  0  0  0  0  0
    9.5062   27.7970    5.9839 F   0  0  0  0  0  0  0  0  0  0  0  0
    9.4350   28.6892    7.9674 F   0  0  0  0  0  0  0  0  0  0  0  0
   10.6696   29.6179    6.4494 F   0  0  0  0  0  0  0  0  0  0  0  0
    3.3008   32.7939    7.1199 N   0  0  0  0  0  0  0  0  0  0  0  0
    3.1246   33.5723    7.6964 H   0  0  0  0  0  0  0  0  0  0  0  0
    2.9082   32.9170    5.7426 C   0  0  0  0  0  0  0  0  0  0  0  0
    1.7745   33.6722    5.4632 C   0  0  0  0  0  0  0  0  0  0  0  0
    1.3563   33.8697    4.1572 C   0  0  0  0  0  0  0  0  0  0  0  0
    2.0841   33.2894    3.1161 C   0  0  0  0  0  0  0  0  0  0  0  0
    3.2172   32.5204    3.3719 C   0  0  0  0  0  0  0  0  0  0  0  0
    3.6355   32.3575    4.6969 C   0  0  0  0  0  0  0  0  0  0  0  0
    1.5856   33.5007    1.7329 C   0  0  0  0  0  0  0  0  0  0  0  0
    0.6163   34.2918    1.5081 O   0  0  0  0  0  0  0  0  0  0  0  0
    2.1594   32.8465    0.8057 O   0  0  0  0  0  0  0  0  0  0  0  0
    2.8713   32.2722    1.0090 H   0  0  0  0  0  0  0  0  0  0  0  0
 29 28  2  0  0  0
 30 28  1  0  0  0
 28 25  1  0  0  0
 12 11  2  0  0  0
 12 13  1  0  0  0
 25 26  2  0  0  0
 25 24  1  0  0  0
 11 10  1  0  0  0
 26 27  1  0  0  0
 13 14  2  0  0  0
 24 23  2  0  0  0
 10  9  2  0  0  0
 27 22  2  0  0  0
 14  9  1  0  0  0
 14 15  1  0  0  0
 18 16  1  0  0  0
  9  7  1  0  0  0
 23 22  1  0  0  0
 15 16  1  0  0  0
 22 20  1  0  0  0
 16 17  1  0  0  0
 16 19  1  0  0  0
  7  5  1  0  0  0
  2  5  2  0  0  0
  2  4  1  0  0  0
 20  4  1  0  0  0
  5  6  1  0  0  0
  4  1  2  0  0  0
  6  3  2  0  0  0
  1  3  1  0  0  0
  7  8  1  0  0  0
 20 21  1  0  0  0
 30 31  1  0  0  0
M  END
> <minimizedAffinity>
-9.58965

$$$$
3UP2_0C8_A_1


 31 33  0  0  0  0  0  0  0  0999 V2000
    8.3747   28.9396    3.3192 N   0  0  0  0  0  0  0  0  0  0  0  0
    6.9279   28.6257    5.1555 N   0  0  0  0  0  0  0  0  0  0  0  0
    7.3830   29.4868    2.5833 C   0  0  0  0  0  0  0  0  0  0  0  0
    8.1398   28.5179    4.5762 C   0  0  0  0  0  0  0  0  0  0  0  0
    5.8940   29.1632    4.4539 C   0  0  0  0  0  0  0  0  0  0  0  0
    6.1052   29.6028    3.1398 C   0  0  0  0  0  0  0  0  0  0  0  0
    4.5818   29.2662    5.0420 N   0  0  0  0  0  0  0  0  0  0  0  0
    3.9044   28.5853    4.8260 H   0  0  0  0  0  0  0  0  0  0  0  0
    4.2369   30.3390    5.9369 C   0  0  0  0  0  0  0  0  0  0  0  0
    3.8615   31.5835    5.4395 C   0  0  0  0  0  0  0  0  0  0  0  0
    3.5279   32.6185    6.3041 C   0  0  0  0  0  0  0  0  0  0  0  0
    3.5813   32.4145    7.6751 C   0  0  0  0  0  0  0  0  0  0  0  0
    3.9711   31.1776    8.1748 C   0  0  0  0  0  0  0  0  0  0  0  0
    4.2903   30.1299    7.3106 C   0  0  0  0  0  0  0  0  0  0  0  0
    4.7034   28.9043    7.8204 O   0  0  0  0  0  0  0  0  0  0  0  0
    5.8598   28.7386    8.5587 C   0  0  0  0  0  0  0  0  0  0  0  0
    6.8202   29.5893    8.1638 F   0  0  0  0  0  0  0  0  0  0  0  0
    6.2834   27.4917    8.3820 F   0  0  0  0  0  0  0  0  0  0  0  0
    5.5710   28.9099    9.8561 F   0  0  0  0  0  0  0  0  0  0  0  0
    9.2571   27.9749    5.2850 N   0  0  0  0  0  0  0  0  0  0  0  0
   10.0961   27.8862    4.7775 H   0  0  0  0  0  0  0  0  0  0  0  0
    9.2909   27.5443    6.6559 C   0  0  0  0  0  0  0  0  0  0  0  0
    9.1865   26.1798    6.9031 C   0  0  0  0  0  0  0  0  0  0  0  0
    9.2511   25.6847    8.1954 C   0  0  0  0  0  0  0  0  0  0  0  0
    9.4126   26.5774    9.2572 C   0  0  0  0  0  0  0  0  0  0  0  0
    9.5095   27.9493    9.0352 C   0  0  0  0  0  0  0  0  0  0  0  0
    9.4687   28.4232    7.7196 C   0  0  0  0  0  0  0  0  0  0  0  0
    9.4475   26.0087   10.6290 C   0  0  0  0  0  0  0  0  0  0  0  0
    9.2821   24.7626   10.8174 O   0  0  0  0  0  0  0  0  0  0  0  0
    9.6312   26.8237   11.5877 O   0  0  0  0  0  0  0  0  0  0  0  0
    9.7496   27.7362   11.4108 H   0  0  0  0  0  0  0  0  0  0  0  0
 29 28  2  0  0  0
 30 28  1  0  0  0
 28 25  1  0  0  0
 12 11  2  0  0  0
 12 13  1  0  0  0
 25 26  2  0  0  0
 25 24  1  0  0  0
 11 10  1  0  0  0
 26 27  1  0  0  0
 13 14  2  0  0  0
 24 23  2  0  0  0
 10  9  2  0  0  0
 27 22  2  0  0  0
 14  9  1  0  0  0
 14 15  1  0  0  0
 18 16  1  0  0  0
  9  7  1  0  0  0
 23 22  1  0  0  0
 15 16  1  0  0  0
 22 20  1  0  0  0
 16 17  1  0  0  0
 16 19  1  0  0  0
  7  5  1  0  0  0
  2  5  2  0  0  0
  2  4  1  0  0  0
 20  4  1  0  0  0
  5  6  1  0  0  0
  4  1  2  0  0  0
  6  3  2  0  0  0
  1  3  1  0  0  0
  7  8  1  0  0  0
 20 21  1  0  0  0
 30 31  1  0  0  0
M  END
> <minimizedAffinity>
-9.55576

$$$$
3UP2_0C8_A_1


 31 33  0  0  0  0  0  0  0  0999 V2000
    8.5509   29.5378    1.7322 N   0  0  0  0  0  0  0  0  0  0  0  0
    7.0836   29.3244    3.5666 N   0  0  0  0  0  0  0  0  0  0  0  0
    7.5310   29.8535    0.9048 C   0  0  0  0  0  0  0  0  0  0  0  0
    8.3200   29.2769    3.0327 C   0  0  0  0  0  0  0  0  0  0  0  0
    6.0215   29.6306    2.7738 C   0  0  0  0  0  0  0  0  0  0  0  0
    6.2290   29.8981    1.4136 C   0  0  0  0  0  0  0  0  0  0  0  0
    4.6858   29.6629    3.3152 N   0  0  0  0  0  0  0  0  0  0  0  0
    4.0575   28.9406    3.0856 H   0  0  0  0  0  0  0  0  0  0  0  0
    4.2474   30.7241    4.1825 C   0  0  0  0  0  0  0  0  0  0  0  0
    3.8140   31.9370    3.6551 C   0  0  0  0  0  0  0  0  0  0  0  0
    3.3902   32.9607    4.4931 C   0  0  0  0  0  0  0  0  0  0  0  0
    3.4108   32.7780    5.8679 C   0  0  0  0  0  0  0  0  0  0  0  0
    3.8581   31.5736    6.3981 C   0  0  0  0  0  0  0  0  0  0  0  0
    4.2682   30.5363    5.5602 C   0  0  0  0  0  0  0  0  0  0  0  0
    4.7376   29.3447    6.1011 O   0  0  0  0  0  0  0  0  0  0  0  0
    5.9086   29.2492    6.8289 C   0  0  0  0  0  0  0  0  0  0  0  0
    5.6894   29.4438    8.1388 F   0  0  0  0  0  0  0  0  0  0  0  0
    6.7442   30.1816    6.3844 F   0  0  0  0  0  0  0  0  0  0  0  0
    6.4566   28.0465    6.6075 F   0  0  0  0  0  0  0  0  0  0  0  0
    9.4652   28.9761    3.8350 N   0  0  0  0  0  0  0  0  0  0  0  0
   10.3383   29.2498    3.4715 H   0  0  0  0  0  0  0  0  0  0  0  0
    9.4829   28.3184    5.1130 C   0  0  0  0  0  0  0  0  0  0  0  0
    9.7260   29.1027    6.2353 C   0  0  0  0  0  0  0  0  0  0  0  0
    9.7192   28.5480    7.5048 C   0  0  0  0  0  0  0  0  0  0  0  0
    9.4744   27.1805    7.6470 C   0  0  0  0  0  0  0  0  0  0  0  0
    9.2382   26.3727    6.5368 C   0  0  0  0  0  0  0  0  0  0  0  0
    9.2234   26.9603    5.2673 C   0  0  0  0  0  0  0  0  0  0  0  0
    9.5050   26.6199    9.0222 C   0  0  0  0  0  0  0  0  0  0  0  0
    9.7311   25.3836    9.2123 O   0  0  0  0  0  0  0  0  0  0  0  0
    9.2800   27.4259    9.9798 O   0  0  0  0  0  0  0  0  0  0  0  0
    9.1173   28.3313    9.8016 H   0  0  0  0  0  0  0  0  0  0  0  0
 29 28  2  0  0  0
 30 28  1  0  0  0
 28 25  1  0  0  0
 12 11  2  0  0  0
 12 13  1  0  0  0
 25 26  2  0  0  0
 25 24  1  0  0  0
 11 10  1  0  0  0
 26 27  1  0  0  0
 13 14  2  0  0  0
 24 23  2  0  0  0
 10  9  2  0  0  0
 27 22  2  0  0  0
 14  9  1  0  0  0
 14 15  1  0  0  0
 18 16  1  0  0  0
  9  7  1  0  0  0
 23 22  1  0  0  0
 15 16  1  0  0  0
 22 20  1  0  0  0
 16 17  1  0  0  0
 16 19  1  0  0  0
  7  5  1  0  0  0
  2  5  2  0  0  0
  2  4  1  0  0  0
 20  4  1  0  0  0
  5  6  1  0  0  0
  4  1  2  0  0  0
  6  3  2  0  0  0
  1  3  1  0  0  0
  7  8  1  0  0  0
 20 21  1  0  0  0
 30 31  1  0  0  0
M  END
> <minimizedAffinity>
-9.26184

$$$$
3UP2_0C8_A_1


 31 33  0  0  0  0  0  0  0  0999 V2000
    7.9601   29.2988    2.5436 N   0  0  0  0  0  0  0  0  0  0  0  0
    6.6817   29.9432    4.4181 N   0  0  0  0  0  0  0  0  0  0  0  0
    6.9027   29.4620    1.7192 C   0  0  0  0  0  0  0  0  0  0  0  0
    7.8397   29.5336    3.8639 C   0  0  0  0  0  0  0  0  0  0  0  0
    5.5852   30.1156    3.6318 C   0  0  0  0  0  0  0  0  0  0  0  0
    5.6770   29.8701    2.2549 C   0  0  0  0  0  0  0  0  0  0  0  0
    4.3281   30.5285    4.2042 N   0  0  0  0  0  0  0  0  0  0  0  0
    3.5385   30.6073    3.6215 H   0  0  0  0  0  0  0  0  0  0  0  0
    4.1981   30.8284    5.6055 C   0  0  0  0  0  0  0  0  0  0  0  0
    4.5051   29.8698    6.5667 C   0  0  0  0  0  0  0  0  0  0  0  0
    4.3801   30.1603    7.9194 C   0  0  0  0  0  0  0  0  0  0  0  0
    3.9336   31.4121    8.3162 C   0  0  0  0  0  0  0  0  0  0  0  0
    3.6112   32.3662    7.3584 C   0  0  0  0  0  0  0  0  0  0  0  0
    3.7516   32.0851    5.9991 C   0  0  0  0  0  0  0  0  0  0  0  0
    3.4024   33.0376    5.0486 O   0  0  0  0  0  0  0  0  0  0  0  0
    2.0947   33.3349    4.7148 C   0  0  0  0  0  0  0  0  0  0  0  0
    1.9654   34.6142    4.3295 F   0  0  0  0  0  0  0  0  0  0  0  0
    1.3403   33.1253    5.7882 F   0  0  0  0  0  0  0  0  0  0  0  0
    1.6968   32.4993    3.7455 F   0  0  0  0  0  0  0  0  0  0  0  0
    9.0198   29.3570    4.6523 N   0  0  0  0  0  0  0  0  0  0  0  0
    9.8109   29.8749    4.3780 H   0  0  0  0  0  0  0  0  0  0  0  0
    9.1790   28.5074    5.8008 C   0  0  0  0  0  0  0  0  0  0  0  0
    9.3776   29.1227    7.0320 C   0  0  0  0  0  0  0  0  0  0  0  0
    9.4995   28.3721    8.1901 C   0  0  0  0  0  0  0  0  0  0  0  0
    9.4312   26.9797    8.1070 C   0  0  0  0  0  0  0  0  0  0  0  0
    9.2429   26.3403    6.8837 C   0  0  0  0  0  0  0  0  0  0  0  0
    9.0955   27.1204    5.7318 C   0  0  0  0  0  0  0  0  0  0  0  0
    9.5959   26.2109    9.3673 C   0  0  0  0  0  0  0  0  0  0  0  0
   10.0461   25.0223    9.3461 O   0  0  0  0  0  0  0  0  0  0  0  0
    9.2524   26.7896   10.4462 O   0  0  0  0  0  0  0  0  0  0  0  0
    8.9246   27.6671   10.4233 H   0  0  0  0  0  0  0  0  0  0  0  0
 29 28  2  0  0  0
 30 28  1  0  0  0
 28 25  1  0  0  0
 12 11  2  0  0  0
 12 13  1  0  0  0
 25 26  2  0  0  0
 25 24  1  0  0  0
 11 10  1  0  0  0
 26 27  1  0  0  0
 13 14  2  0  0  0
 24 23  2  0  0  0
 10  9  2  0  0  0
 27 22  2  0  0  0
 14  9  1  0  0  0
 14 15  1  0  0  0
 18 16  1  0  0  0
  9  7  1  0  0  0
 23 22  1  0  0  0
 15 16  1  0  0  0
 22 20  1  0  0  0
 16 17  1  0  0  0
 16 19  1  0  0  0
  7  5  1  0  0  0
  2  5  2  0  0  0
  2  4  1  0  0  0
 20  4  1  0  0  0
  5  6  1  0  0  0
  4  1  2  0  0  0
  6  3  2  0  0  0
  1  3  1  0  0  0
  7  8  1  0  0  0
 20 21  1  0  0  0
 30 31  1  0  0  0
M  END
> <minimizedAffinity>
-9.03184

$$$$
3UP2_0C8_A_1


 31 33  0  0  0  0  0  0  0  0999 V2000
    4.0526   33.8986    2.0739 N   0  0  0  0  0  0  0  0  0  0  0  0
    4.3534   31.5646    2.2331 N   0  0  0  0  0  0  0  0  0  0  0  0
    4.7036   33.9398    0.8911 C   0  0  0  0  0  0  0  0  0  0  0  0
    3.8902   32.7309    2.7242 C   0  0  0  0  0  0  0  0  0  0  0  0
    5.0223   31.5534    1.0487 C   0  0  0  0  0  0  0  0  0  0  0  0
    5.2153   32.7547    0.3528 C   0  0  0  0  0  0  0  0  0  0  0  0
    5.5499   30.3227    0.5145 N   0  0  0  0  0  0  0  0  0  0  0  0
    4.9330   29.6741    0.1047 H   0  0  0  0  0  0  0  0  0  0  0  0
    6.9554   30.0182    0.5650 C   0  0  0  0  0  0  0  0  0  0  0  0
    7.8629   30.7291   -0.2147 C   0  0  0  0  0  0  0  0  0  0  0  0
    9.2197   30.4351   -0.1648 C   0  0  0  0  0  0  0  0  0  0  0  0
    9.6733   29.4158    0.6595 C   0  0  0  0  0  0  0  0  0  0  0  0
    8.7675   28.6936    1.4274 C   0  0  0  0  0  0  0  0  0  0  0  0
    7.4061   28.9966    1.3939 C   0  0  0  0  0  0  0  0  0  0  0  0
    6.5053   28.2518    2.1465 O   0  0  0  0  0  0  0  0  0  0  0  0
    6.2411   28.4997    3.4802 C   0  0  0  0  0  0  0  0  0  0  0  0
    6.8646   27.6170    4.2763 F   0  0  0  0  0  0  0  0  0  0  0  0
    4.9289   28.3997    3.6632 F   0  0  0  0  0  0  0  0  0  0  0  0
    6.6163   29.7537    3.7678 F   0  0  0  0  0  0  0  0  0  0  0  0
    3.1670   32.7837    3.9569 N   0  0  0  0  0  0  0  0  0  0  0  0
    2.3218   33.2885    3.9472 H   0  0  0  0  0  0  0  0  0  0  0  0
    3.5373   32.1815    5.2085 C   0  0  0  0  0  0  0  0  0  0  0  0
    3.2137   32.8697    6.3727 C   0  0  0  0  0  0  0  0  0  0  0  0
    3.5020   32.3349    7.6178 C   0  0  0  0  0  0  0  0  0  0  0  0
    4.1358   31.0927    7.6930 C   0  0  0  0  0  0  0  0  0  0  0  0
    4.4787   30.3891    6.5405 C   0  0  0  0  0  0  0  0  0  0  0  0
    4.1531   30.9369    5.2951 C   0  0  0  0  0  0  0  0  0  0  0  0
    4.4538   30.5683    9.0459 C   0  0  0  0  0  0  0  0  0  0  0  0
    4.9427   29.4039    9.1902 O   0  0  0  0  0  0  0  0  0  0  0  0
    4.1989   31.3269   10.0341 O   0  0  0  0  0  0  0  0  0  0  0  0
    3.8385   32.1796    9.8895 H   0  0  0  0  0  0  0  0  0  0  0  0
 29 28  2  0  0  0
 30 28  1  0  0  0
 28 25  1  0  0  0
 12 11  2  0  0  0
 12 13  1  0  0  0
 25 26  2  0  0  0
 25 24  1  0  0  0
 11 10  1  0  0  0
 26 27  1  0  0  0
 13 14  2  0  0  0
 24 23  2  0  0  0
 10  9  2  0  0  0
 27 22  2  0  0  0
 14  9  1  0  0  0
 14 15  1  0  0  0
 18 16  1  0  0  0
  9  7  1  0  0  0
 23 22  1  0  0  0
 15 16  1  0  0  0
 22 20  1  0  0  0
 16 17  1  0  0  0
 16 19  1  0  0  0
  7  5  1  0  0  0
  2  5  2  0  0  0
  2  4  1  0  0  0
 20  4  1  0  0  0
  5  6  1  0  0  0
  4  1  2  0  0  0
  6  3  2  0  0  0
  1  3  1  0  0  0
  7  8  1  0  0  0
 20 21  1  0  0  0
 30 31  1  0  0  0
M  END
> <minimizedAffinity>
-8.86142

$$$$
3UP2_0C8_A_1


 31 33  0  0  0  0  0  0  0  0999 V2000
    6.0609   28.5244    4.7424 N   0  0  0  0  0  0  0  0  0  0  0  0
    8.1449   29.5736    4.3969 N   0  0  0  0  0  0  0  0  0  0  0  0
    5.8974   28.3280    3.4161 C   0  0  0  0  0  0  0  0  0  0  0  0
    7.1634   29.1388    5.2114 C   0  0  0  0  0  0  0  0  0  0  0  0
    8.0249   29.4062    3.0524 C   0  0  0  0  0  0  0  0  0  0  0  0
    6.8842   28.7784    2.5333 C   0  0  0  0  0  0  0  0  0  0  0  0
    9.0491   29.8853    2.1580 N   0  0  0  0  0  0  0  0  0  0  0  0
    9.4052   30.7951    2.2798 H   0  0  0  0  0  0  0  0  0  0  0  0
    9.5642   29.0677    1.0918 C   0  0  0  0  0  0  0  0  0  0  0  0
   10.5271   28.0956    1.3462 C   0  0  0  0  0  0  0  0  0  0  0  0
   11.0233   27.3061    0.3165 C   0  0  0  0  0  0  0  0  0  0  0  0
   10.5648   27.4961   -0.9788 C   0  0  0  0  0  0  0  0  0  0  0  0
    9.6149   28.4768   -1.2385 C   0  0  0  0  0  0  0  0  0  0  0  0
    9.1008   29.2604   -0.2051 C   0  0  0  0  0  0  0  0  0  0  0  0
    8.1696   30.2557   -0.4791 O   0  0  0  0  0  0  0  0  0  0  0  0
    8.5044   31.4816   -1.0221 C   0  0  0  0  0  0  0  0  0  0  0  0
    7.4876   32.3531   -0.9306 F   0  0  0  0  0  0  0  0  0  0  0  0
    8.8030   31.2943   -2.3032 F   0  0  0  0  0  0  0  0  0  0  0  0
    9.5935   31.9474   -0.3954 F   0  0  0  0  0  0  0  0  0  0  0  0
    7.2585   29.2797    6.6315 N   0  0  0  0  0  0  0  0  0  0  0  0
    6.8549   30.0898    7.0189 H   0  0  0  0  0  0  0  0  0  0  0  0
    7.8781   28.3698    7.5558 C   0  0  0  0  0  0  0  0  0  0  0  0
    7.8666   28.7159    8.9026 C   0  0  0  0  0  0  0  0  0  0  0  0
    8.4085   27.8714    9.8579 C   0  0  0  0  0  0  0  0  0  0  0  0
    8.9806   26.6642    9.4509 C   0  0  0  0  0  0  0  0  0  0  0  0
    9.0128   26.3005    8.1065 C   0  0  0  0  0  0  0  0  0  0  0  0
    8.4353   27.1570    7.1631 C   0  0  0  0  0  0  0  0  0  0  0  0
    9.5766   25.8013   10.5029 C   0  0  0  0  0  0  0  0  0  0  0  0
    9.6200   24.5393   10.3570 O   0  0  0  0  0  0  0  0  0  0  0  0
   10.0172   26.3817   11.5451 O   0  0  0  0  0  0  0  0  0  0  0  0
    9.9686   27.3146   11.6178 H   0  0  0  0  0  0  0  0  0  0  0  0
 29 28  2  0  0  0
 30 28  1  0  0  0
 28 25  1  0  0  0
 12 11  2  0  0  0
 12 13  1  0  0  0
 25 26  2  0  0  0
 25 24  1  0  0  0
 11 10  1  0  0  0
 26 27  1  0  0  0
 13 14  2  0  0  0
 24 23  2  0  0  0
 10  9  2  0  0  0
 27 22  2  0  0  0
 14  9  1  0  0  0
 14 15  1  0  0  0
 18 16  1  0  0  0
  9  7  1  0  0  0
 23 22  1  0  0  0
 15 16  1  0  0  0
 22 20  1  0  0  0
 16 17  1  0  0  0
 16 19  1  0  0  0
  7  5  1  0  0  0
  2  5  2  0  0  0
  2  4  1  0  0  0
 20  4  1  0  0  0
  5  6  1  0  0  0
  4  1  2  0  0  0
  6  3  2  0  0  0
  1  3  1  0  0  0
  7  8  1  0  0  0
 20 21  1  0  0  0
 30 31  1  0  0  0
M  END
> <minimizedAffinity>
-8.79122

$$$$
3UP2_0C8_A_1


 31 33  0  0  0  0  0  0  0  0999 V2000
    8.2601   30.5213    4.7745 N   0  0  0  0  0  0  0  0  0  0  0  0
    7.2150   28.4710    5.2916 N   0  0  0  0  0  0  0  0  0  0  0  0
    9.2931   30.2461    5.6001 C   0  0  0  0  0  0  0  0  0  0  0  0
    7.2461   29.6468    4.6340 C   0  0  0  0  0  0  0  0  0  0  0  0
    8.2280   28.1498    6.1406 C   0  0  0  0  0  0  0  0  0  0  0  0
    9.2932   29.0441    6.3150 C   0  0  0  0  0  0  0  0  0  0  0  0
    8.2056   26.9096    6.8753 N   0  0  0  0  0  0  0  0  0  0  0  0
    7.8940   26.0912    6.4256 H   0  0  0  0  0  0  0  0  0  0  0  0
    8.6273   26.8375    8.2492 C   0  0  0  0  0  0  0  0  0  0  0  0
    9.5385   25.8694    8.6609 C   0  0  0  0  0  0  0  0  0  0  0  0
    9.9457   25.8010    9.9873 C   0  0  0  0  0  0  0  0  0  0  0  0
    9.4305   26.6968   10.9126 C   0  0  0  0  0  0  0  0  0  0  0  0
    8.5083   27.6545   10.5077 C   0  0  0  0  0  0  0  0  0  0  0  0
    8.1095   27.7384    9.1734 C   0  0  0  0  0  0  0  0  0  0  0  0
    7.1676   28.6836    8.7834 O   0  0  0  0  0  0  0  0  0  0  0  0
    5.8040   28.4916    8.9009 C   0  0  0  0  0  0  0  0  0  0  0  0
    5.4804   27.1932    8.7960 F   0  0  0  0  0  0  0  0  0  0  0  0
    5.2095   29.1686    7.9244 F   0  0  0  0  0  0  0  0  0  0  0  0
    5.3979   28.9940   10.0751 F   0  0  0  0  0  0  0  0  0  0  0  0
    6.2099   30.0148    3.7195 N   0  0  0  0  0  0  0  0  0  0  0  0
    6.2569   29.6152    2.8209 H   0  0  0  0  0  0  0  0  0  0  0  0
    5.1074   30.9034    3.9667 C   0  0  0  0  0  0  0  0  0  0  0  0
    4.6345   30.9923    5.2714 C   0  0  0  0  0  0  0  0  0  0  0  0
    3.6013   31.8565    5.5954 C   0  0  0  0  0  0  0  0  0  0  0  0
    3.0271   32.6360    4.5888 C   0  0  0  0  0  0  0  0  0  0  0  0
    3.4771   32.5568    3.2727 C   0  0  0  0  0  0  0  0  0  0  0  0
    4.5397   31.6969    2.9749 C   0  0  0  0  0  0  0  0  0  0  0  0
    1.9026   33.5275    4.9722 C   0  0  0  0  0  0  0  0  0  0  0  0
    1.2106   34.1154    4.0827 O   0  0  0  0  0  0  0  0  0  0  0  0
    1.6850   33.6809    6.2157 O   0  0  0  0  0  0  0  0  0  0  0  0
    2.2158   33.2309    6.8432 H   0  0  0  0  0  0  0  0  0  0  0  0
 29 28  2  0  0  0
 30 28  1  0  0  0
 28 25  1  0  0  0
 12 11  2  0  0  0
 12 13  1  0  0  0
 25 26  2  0  0  0
 25 24  1  0  0  0
 11 10  1  0  0  0
 26 27  1  0  0  0
 13 14  2  0  0  0
 24 23  2  0  0  0
 10  9  2  0  0  0
 27 22  2  0  0  0
 14  9  1  0  0  0
 14 15  1  0  0  0
 18 16  1  0  0  0
  9  7  1  0  0  0
 23 22  1  0  0  0
 15 16  1  0  0  0
 22 20  1  0  0  0
 16 17  1  0  0  0
 16 19  1  0  0  0
  7  5  1  0  0  0
  2  5  2  0  0  0
  2  4  1  0  0  0
 20  4  1  0  0  0
  5  6  1  0  0  0
  4  1  2  0  0  0
  6  3  2  0  0  0
  1  3  1  0  0  0
  7  8  1  0  0  0
 20 21  1  0  0  0
 30 31  1  0  0  0
M  END
> <minimizedAffinity>
-8.69540

$$$$
3UP2_0C8_A_1


 31 33  0  0  0  0  0  0  0  0999 V2000
   10.5635   28.9480    5.4204 N   0  0  0  0  0  0  0  0  0  0  0  0
    8.6010   27.6530    5.2333 N   0  0  0  0  0  0  0  0  0  0  0  0
    9.8886   29.9525    6.0202 C   0  0  0  0  0  0  0  0  0  0  0  0
    9.9225   27.8282    5.0358 C   0  0  0  0  0  0  0  0  0  0  0  0
    7.8747   28.6381    5.8269 C   0  0  0  0  0  0  0  0  0  0  0  0
    8.5123   29.8194    6.2300 C   0  0  0  0  0  0  0  0  0  0  0  0
    6.4550   28.4856    6.0265 N   0  0  0  0  0  0  0  0  0  0  0  0
    5.9305   27.9731    5.3696 H   0  0  0  0  0  0  0  0  0  0  0  0
    5.7852   29.0634    7.1614 C   0  0  0  0  0  0  0  0  0  0  0  0
    4.8761   30.1038    6.9935 C   0  0  0  0  0  0  0  0  0  0  0  0
    4.2292   30.6605    8.0895 C   0  0  0  0  0  0  0  0  0  0  0  0
    4.5005   30.1846    9.3639 C   0  0  0  0  0  0  0  0  0  0  0  0
    5.4196   29.1565    9.5362 C   0  0  0  0  0  0  0  0  0  0  0  0
    6.0588   28.5823    8.4370 C   0  0  0  0  0  0  0  0  0  0  0  0
    6.9953   27.5716    8.6222 O   0  0  0  0  0  0  0  0  0  0  0  0
    8.2267   27.7754    9.2155 C   0  0  0  0  0  0  0  0  0  0  0  0
    8.2471   27.3124   10.4753 F   0  0  0  0  0  0  0  0  0  0  0  0
    8.4637   29.0827    9.2284 F   0  0  0  0  0  0  0  0  0  0  0  0
    9.1679   27.1798    8.4702 F   0  0  0  0  0  0  0  0  0  0  0  0
   10.7252   26.8105    4.4313 N   0  0  0  0  0  0  0  0  0  0  0  0
   10.9419   26.0322    4.9939 H   0  0  0  0  0  0  0  0  0  0  0  0
   11.2508   26.7980    3.0934 C   0  0  0  0  0  0  0  0  0  0  0  0
   12.3320   25.9621    2.8362 C   0  0  0  0  0  0  0  0  0  0  0  0
   12.8682   25.8655    1.5624 C   0  0  0  0  0  0  0  0  0  0  0  0
   12.3148   26.6301    0.5330 C   0  0  0  0  0  0  0  0  0  0  0  0
   11.2381   27.4821    0.7686 C   0  0  0  0  0  0  0  0  0  0  0  0
   10.6964   27.5424    2.0571 C   0  0  0  0  0  0  0  0  0  0  0  0
   12.9376   26.5197   -0.8110 C   0  0  0  0  0  0  0  0  0  0  0  0
   12.4059   25.7995   -1.7135 O   0  0  0  0  0  0  0  0  0  0  0  0
   14.0203   27.1592   -1.0004 O   0  0  0  0  0  0  0  0  0  0  0  0
   14.3831   27.6805   -0.3115 H   0  0  0  0  0  0  0  0  0  0  0  0
 29 28  2  0  0  0
 30 28  1  0  0  0
 28 25  1  0  0  0
 12 11  2  0  0  0
 12 13  1  0  0  0
 25 26  2  0  0  0
 25 24  1  0  0  0
 11 10  1  0  0  0
 26 27  1  0  0  0
 13 14  2  0  0  0
 24 23  2  0  0  0
 10  9  2  0  0  0
 27 22  2  0  0  0
 14  9  1  0  0  0
 14 15  1  0  0  0
 18 16  1  0  0  0
  9  7  1  0  0  0
 23 22  1  0  0  0
 15 16  1  0  0  0
 22 20  1  0  0  0
 16 17  1  0  0  0
 16 19  1  0  0  0
  7  5  1  0  0  0
  2  5  2  0  0  0
  2  4  1  0  0  0
 20  4  1  0  0  0
  5  6  1  0  0  0
  4  1  2  0  0  0
  6  3  2  0  0  0
  1  3  1  0  0  0
  7  8  1  0  0  0
 20 21  1  0  0  0
 30 31  1  0  0  0
M  END
> <minimizedAffinity>
-8.67711

$$$$
