5NK3_92Q_A_1001


 35 38  0  0  0  0  0  0  0  0999 V2000
  126.7068   32.3063  -22.9620 N   0  0  0  0  0  0  0  0  0  0  0  0
  126.8977   31.6089  -22.2939 H   0  0  0  0  0  0  0  0  0  0  0  0
  123.4388   33.9477  -23.5154 C   0  0  0  0  0  0  0  0  0  0  0  0
  124.7881   33.7943  -23.1881 C   0  0  0  0  0  0  0  0  0  0  0  0
  122.6985   32.8393  -23.9084 C   0  0  0  0  0  0  0  0  0  0  0  0
  123.2997   31.5857  -23.9832 C   0  0  0  0  0  0  0  0  0  0  0  0
  124.6505   31.4445  -23.6583 C   0  0  0  0  0  0  0  0  0  0  0  0
  125.4081   32.5427  -23.2712 C   0  0  0  0  0  0  0  0  0  0  0  0
  123.5030   36.1576  -22.8142 N   0  0  0  0  0  0  0  0  0  0  0  0
  122.8074   35.1972  -23.4397 C   0  0  0  0  0  0  0  0  0  0  0  0
  121.7175   35.3965  -23.9738 O   0  0  0  0  0  0  0  0  0  0  0  0
  124.3789   35.9297  -22.4267 H   0  0  0  0  0  0  0  0  0  0  0  0
  122.2912   37.7669  -21.3771 C   0  0  0  0  0  0  0  0  0  0  0  0
  122.2530   39.3016  -21.3363 C   0  0  0  0  0  0  0  0  0  0  0  0
  123.4408   39.7429  -22.1048 N   0  0  0  0  0  0  0  0  0  0  0  0
  124.1556   38.4913  -22.4447 C   0  0  0  0  0  0  0  0  0  0  0  0
  123.0072   37.5500  -22.6818 C   0  0  0  0  0  0  0  0  0  0  0  0
  123.1583   40.2369  -22.9513 H   0  0  0  0  0  0  0  0  0  0  0  0
  127.7455   32.9511  -23.4984 C   0  0  0  0  0  0  0  0  0  0  0  0
  127.7905   34.4470  -24.3010 S   0  0  0  0  0  0  0  0  0  0  0  0
  128.9885   32.4497  -23.4586 N   0  0  0  0  0  0  0  0  0  0  0  0
  129.9444   33.2350  -24.0351 C   0  0  0  0  0  0  0  0  0  0  0  0
  129.4731   34.3777  -24.5774 C   0  0  0  0  0  0  0  0  0  0  0  0
  130.1709   35.3538  -25.2062 C   0  0  0  0  0  0  0  0  0  0  0  0
  129.5834   36.3731  -25.5704 O   0  0  0  0  0  0  0  0  0  0  0  0
  131.5151   35.1926  -25.3658 N   0  0  0  0  0  0  0  0  0  0  0  0
  131.9418   34.3537  -25.0771 H   0  0  0  0  0  0  0  0  0  0  0  0
  132.2774   36.1811  -25.9217 C   0  0  0  0  0  0  0  0  0  0  0  0
  132.4199   36.2922  -27.3139 C   0  0  0  0  0  0  0  0  0  0  0  0
  131.6292   35.2251  -28.4275 Cl  0  0  0  0  0  0  0  0  0  0  0  0
  133.2243   37.3026  -27.8443 C   0  0  0  0  0  0  0  0  0  0  0  0
  133.8907   38.1911  -27.0105 C   0  0  0  0  0  0  0  0  0  0  0  0
  133.7550   38.0743  -25.6325 C   0  0  0  0  0  0  0  0  0  0  0  0
  132.9575   37.0691  -25.0798 C   0  0  0  0  0  0  0  0  0  0  0  0
  132.8610   36.9969  -23.6900 C   0  0  0  0  0  0  0  0  0  0  0  0
 30 29  1  0  0  0
 31 29  2  0  0  0
 31 32  1  0  0  0
 29 28  1  0  0  0
 32 33  2  0  0  0
 28 26  1  0  0  0
 28 34  2  0  0  0
 33 34  1  0  0  0
 25 24  2  0  0  0
 26 24  1  0  0  0
 34 35  1  0  0  0
 24 23  1  0  0  0
 23 20  1  0  0  0
 23 22  2  0  0  0
 20 19  1  0  0  0
 16 15  1  0  0  0
 16 17  1  0  0  0
 22 21  1  0  0  0
 15 14  1  0  0  0
 14 13  1  0  0  0
 13 17  1  0  0  0
 19 21  2  0  0  0
 19  1  1  0  0  0
  9 17  1  0  0  0
  9 10  1  0  0  0
  7  6  2  0  0  0
  7  8  1  0  0  0
  6  5  1  0  0  0
  1  8  1  0  0  0
  8  4  2  0  0  0
  5  3  2  0  0  0
  4  3  1  0  0  0
  3 10  1  0  0  0
 10 11  2  0  0  0
 15 18  1  0  0  0
  9 12  1  0  0  0
  1  2  1  0  0  0
 26 27  1  0  0  0
M  END
> <minimizedAffinity>
-9.61850

$$$$
5NK3_92Q_A_1001


 35 38  0  0  0  0  0  0  0  0999 V2000
  126.7932   32.3714  -22.9074 N   0  0  0  0  0  0  0  0  0  0  0  0
  126.9829   31.7017  -22.2111 H   0  0  0  0  0  0  0  0  0  0  0  0
  123.5107   33.9649  -23.5133 C   0  0  0  0  0  0  0  0  0  0  0  0
  124.8576   33.8318  -23.1678 C   0  0  0  0  0  0  0  0  0  0  0  0
  122.7905   32.8440  -23.9085 C   0  0  0  0  0  0  0  0  0  0  0  0
  123.4096   31.5982  -23.9674 C   0  0  0  0  0  0  0  0  0  0  0  0
  124.7578   31.4774  -23.6243 C   0  0  0  0  0  0  0  0  0  0  0  0
  125.4955   32.5882  -23.2347 C   0  0  0  0  0  0  0  0  0  0  0  0
  123.5350   36.1791  -22.8235 N   0  0  0  0  0  0  0  0  0  0  0  0
  122.8617   35.2061  -23.4539 C   0  0  0  0  0  0  0  0  0  0  0  0
  121.7773   35.3880  -24.0052 O   0  0  0  0  0  0  0  0  0  0  0  0
  124.4080   35.9650  -22.4218 H   0  0  0  0  0  0  0  0  0  0  0  0
  122.2747   37.7776  -21.4165 C   0  0  0  0  0  0  0  0  0  0  0  0
  122.2158   39.3118  -21.3824 C   0  0  0  0  0  0  0  0  0  0  0  0
  123.4126   39.7658  -22.1292 N   0  0  0  0  0  0  0  0  0  0  0  0
  124.1501   38.5224  -22.4503 C   0  0  0  0  0  0  0  0  0  0  0  0
  123.0188   37.5654  -22.7061 C   0  0  0  0  0  0  0  0  0  0  0  0
  123.1403   40.2531  -22.9829 H   0  0  0  0  0  0  0  0  0  0  0  0
  127.8322   33.0006  -23.4612 C   0  0  0  0  0  0  0  0  0  0  0  0
  127.8975   34.5210  -24.2148 S   0  0  0  0  0  0  0  0  0  0  0  0
  129.0584   32.4585  -23.4854 N   0  0  0  0  0  0  0  0  0  0  0  0
  130.0181   33.2321  -24.0715 C   0  0  0  0  0  0  0  0  0  0  0  0
  129.5654   34.4074  -24.5572 C   0  0  0  0  0  0  0  0  0  0  0  0
  130.2717   35.3816  -25.1793 C   0  0  0  0  0  0  0  0  0  0  0  0
  129.7408   36.4749  -25.3781 O   0  0  0  0  0  0  0  0  0  0  0  0
  131.5685   35.1306  -25.5164 N   0  0  0  0  0  0  0  0  0  0  0  0
  131.9480   34.2363  -25.3567 H   0  0  0  0  0  0  0  0  0  0  0  0
  132.3480   36.1049  -26.0733 C   0  0  0  0  0  0  0  0  0  0  0  0
  133.0172   37.0450  -25.2737 C   0  0  0  0  0  0  0  0  0  0  0  0
  132.9401   37.0304  -23.5423 Cl  0  0  0  0  0  0  0  0  0  0  0  0
  133.7877   38.0390  -25.8799 C   0  0  0  0  0  0  0  0  0  0  0  0
  133.8914   38.1127  -27.2629 C   0  0  0  0  0  0  0  0  0  0  0  0
  133.2216   37.1863  -28.0529 C   0  0  0  0  0  0  0  0  0  0  0  0
  132.4427   36.1850  -27.4678 C   0  0  0  0  0  0  0  0  0  0  0  0
  131.7895   35.2846  -28.3098 C   0  0  0  0  0  0  0  0  0  0  0  0
 30 29  1  0  0  0
 31 29  2  0  0  0
 31 32  1  0  0  0
 29 28  1  0  0  0
 32 33  2  0  0  0
 28 26  1  0  0  0
 28 34  2  0  0  0
 33 34  1  0  0  0
 25 24  2  0  0  0
 26 24  1  0  0  0
 34 35  1  0  0  0
 24 23  1  0  0  0
 23 20  1  0  0  0
 23 22  2  0  0  0
 20 19  1  0  0  0
 16 15  1  0  0  0
 16 17  1  0  0  0
 22 21  1  0  0  0
 15 14  1  0  0  0
 14 13  1  0  0  0
 13 17  1  0  0  0
 19 21  2  0  0  0
 19  1  1  0  0  0
  9 17  1  0  0  0
  9 10  1  0  0  0
  7  6  2  0  0  0
  7  8  1  0  0  0
  6  5  1  0  0  0
  1  8  1  0  0  0
  8  4  2  0  0  0
  5  3  2  0  0  0
  4  3  1  0  0  0
  3 10  1  0  0  0
 10 11  2  0  0  0
 15 18  1  0  0  0
  9 12  1  0  0  0
  1  2  1  0  0  0
 26 27  1  0  0  0
M  END
> <minimizedAffinity>
-9.61078

$$$$
5NK3_92Q_A_1001


 35 38  0  0  0  0  0  0  0  0999 V2000
  126.9063   32.4449  -23.7458 N   0  0  0  0  0  0  0  0  0  0  0  0
  126.7695   31.4795  -23.8818 H   0  0  0  0  0  0  0  0  0  0  0  0
  124.7213   35.2391  -22.6977 C   0  0  0  0  0  0  0  0  0  0  0  0
  125.8780   34.5505  -23.0705 C   0  0  0  0  0  0  0  0  0  0  0  0
  123.5129   34.5573  -22.6194 C   0  0  0  0  0  0  0  0  0  0  0  0
  123.4541   33.1987  -22.9186 C   0  0  0  0  0  0  0  0  0  0  0  0
  124.6157   32.5212  -23.2949 C   0  0  0  0  0  0  0  0  0  0  0  0
  125.8310   33.1880  -23.3862 C   0  0  0  0  0  0  0  0  0  0  0  0
  125.9240   37.2204  -22.6114 N   0  0  0  0  0  0  0  0  0  0  0  0
  124.7551   36.6048  -22.3827 C   0  0  0  0  0  0  0  0  0  0  0  0
  123.7514   37.1948  -21.9860 O   0  0  0  0  0  0  0  0  0  0  0  0
  126.6802   36.6873  -22.9480 H   0  0  0  0  0  0  0  0  0  0  0  0
  127.5747   39.0078  -22.1603 C   0  0  0  0  0  0  0  0  0  0  0  0
  127.5346   40.5318  -22.3450 C   0  0  0  0  0  0  0  0  0  0  0  0
  126.4026   40.7844  -23.2674 N   0  0  0  0  0  0  0  0  0  0  0  0
  125.9270   39.4372  -23.6574 C   0  0  0  0  0  0  0  0  0  0  0  0
  126.1250   38.6720  -22.3782 C   0  0  0  0  0  0  0  0  0  0  0  0
  125.6629   41.3041  -22.7950 H   0  0  0  0  0  0  0  0  0  0  0  0
  128.1374   32.9278  -23.9286 C   0  0  0  0  0  0  0  0  0  0  0  0
  128.6339   34.3524  -24.7083 S   0  0  0  0  0  0  0  0  0  0  0  0
  129.2246   32.2888  -23.4728 N   0  0  0  0  0  0  0  0  0  0  0  0
  130.4094   32.9181  -23.7240 C   0  0  0  0  0  0  0  0  0  0  0  0
  130.2916   34.0699  -24.4180 C   0  0  0  0  0  0  0  0  0  0  0  0
  131.2762   34.9147  -24.8075 C   0  0  0  0  0  0  0  0  0  0  0  0
  132.4022   34.7883  -24.3248 O   0  0  0  0  0  0  0  0  0  0  0  0
  130.9948   35.8447  -25.7636 N   0  0  0  0  0  0  0  0  0  0  0  0
  130.0764   35.9243  -26.1090 H   0  0  0  0  0  0  0  0  0  0  0  0
  131.9720   36.6678  -26.2484 C   0  0  0  0  0  0  0  0  0  0  0  0
  132.3982   37.7932  -25.5256 C   0  0  0  0  0  0  0  0  0  0  0  0
  131.7570   38.2090  -23.9700 Cl  0  0  0  0  0  0  0  0  0  0  0  0
  133.3842   38.6228  -26.0631 C   0  0  0  0  0  0  0  0  0  0  0  0
  133.9398   38.3518  -27.3068 C   0  0  0  0  0  0  0  0  0  0  0  0
  133.5106   37.2420  -28.0244 C   0  0  0  0  0  0  0  0  0  0  0  0
  132.5232   36.3998  -27.5071 C   0  0  0  0  0  0  0  0  0  0  0  0
  132.1284   35.3026  -28.2730 C   0  0  0  0  0  0  0  0  0  0  0  0
 30 29  1  0  0  0
 31 29  2  0  0  0
 31 32  1  0  0  0
 29 28  1  0  0  0
 32 33  2  0  0  0
 28 26  1  0  0  0
 28 34  2  0  0  0
 33 34  1  0  0  0
 25 24  2  0  0  0
 26 24  1  0  0  0
 34 35  1  0  0  0
 24 23  1  0  0  0
 23 20  1  0  0  0
 23 22  2  0  0  0
 20 19  1  0  0  0
 16 15  1  0  0  0
 16 17  1  0  0  0
 22 21  1  0  0  0
 15 14  1  0  0  0
 14 13  1  0  0  0
 13 17  1  0  0  0
 19 21  2  0  0  0
 19  1  1  0  0  0
  9 17  1  0  0  0
  9 10  1  0  0  0
  7  6  2  0  0  0
  7  8  1  0  0  0
  6  5  1  0  0  0
  1  8  1  0  0  0
  8  4  2  0  0  0
  5  3  2  0  0  0
  4  3  1  0  0  0
  3 10  1  0  0  0
 10 11  2  0  0  0
 15 18  1  0  0  0
  9 12  1  0  0  0
  1  2  1  0  0  0
 26 27  1  0  0  0
M  END
> <minimizedAffinity>
-9.59301

$$$$
5NK3_92Q_A_1001


 35 38  0  0  0  0  0  0  0  0999 V2000
  126.7966   32.1275  -22.9892 N   0  0  0  0  0  0  0  0  0  0  0  0
  127.0047   31.3930  -22.3676 H   0  0  0  0  0  0  0  0  0  0  0  0
  123.2099   31.7480  -23.8092 C   0  0  0  0  0  0  0  0  0  0  0  0
  124.5355   31.3991  -23.5406 C   0  0  0  0  0  0  0  0  0  0  0  0
  122.8400   33.0875  -23.8079 C   0  0  0  0  0  0  0  0  0  0  0  0
  123.7826   34.0746  -23.5325 C   0  0  0  0  0  0  0  0  0  0  0  0
  125.1041   33.7143  -23.2606 C   0  0  0  0  0  0  0  0  0  0  0  0
  125.4903   32.3799  -23.2498 C   0  0  0  0  0  0  0  0  0  0  0  0
  121.1632   31.2129  -24.7601 N   0  0  0  0  0  0  0  0  0  0  0  0
  122.2436   30.7743  -24.0982 C   0  0  0  0  0  0  0  0  0  0  0  0
  122.4226   29.5912  -23.8134 O   0  0  0  0  0  0  0  0  0  0  0  0
  121.0966   32.1720  -24.9717 H   0  0  0  0  0  0  0  0  0  0  0  0
  118.9115   31.0774  -25.7774 C   0  0  0  0  0  0  0  0  0  0  0  0
  118.1472   29.9363  -26.4646 C   0  0  0  0  0  0  0  0  0  0  0  0
  119.1764   28.9260  -26.8056 N   0  0  0  0  0  0  0  0  0  0  0  0
  120.4617   29.5539  -26.4226 C   0  0  0  0  0  0  0  0  0  0  0  0
  120.0637   30.3122  -25.1867 C   0  0  0  0  0  0  0  0  0  0  0  0
  119.0249   28.0662  -26.2781 H   0  0  0  0  0  0  0  0  0  0  0  0
  127.8210   32.8032  -23.5149 C   0  0  0  0  0  0  0  0  0  0  0  0
  127.8310   34.3047  -24.3082 S   0  0  0  0  0  0  0  0  0  0  0  0
  129.0767   32.3351  -23.4699 N   0  0  0  0  0  0  0  0  0  0  0  0
  130.0149   33.1493  -24.0354 C   0  0  0  0  0  0  0  0  0  0  0  0
  129.5165   34.2823  -24.5740 C   0  0  0  0  0  0  0  0  0  0  0  0
  130.1919   35.2805  -25.1922 C   0  0  0  0  0  0  0  0  0  0  0  0
  129.5783   36.2826  -25.5611 O   0  0  0  0  0  0  0  0  0  0  0  0
  131.5421   35.1603  -25.3365 N   0  0  0  0  0  0  0  0  0  0  0  0
  131.9906   34.3339  -25.0447 H   0  0  0  0  0  0  0  0  0  0  0  0
  132.2807   36.1727  -25.8812 C   0  0  0  0  0  0  0  0  0  0  0  0
  132.4341   36.2931  -27.2714 C   0  0  0  0  0  0  0  0  0  0  0  0
  131.6863   35.2075  -28.3967 Cl  0  0  0  0  0  0  0  0  0  0  0  0
  133.2138   37.3286  -27.7901 C   0  0  0  0  0  0  0  0  0  0  0  0
  133.8453   38.2332  -26.9464 C   0  0  0  0  0  0  0  0  0  0  0  0
  133.6991   38.1074  -25.5703 C   0  0  0  0  0  0  0  0  0  0  0  0
  132.9259   37.0772  -25.0293 C   0  0  0  0  0  0  0  0  0  0  0  0
  132.8174   36.9970  -23.6407 C   0  0  0  0  0  0  0  0  0  0  0  0
 30 29  1  0  0  0
 31 29  2  0  0  0
 31 32  1  0  0  0
 29 28  1  0  0  0
 32 33  2  0  0  0
 28 26  1  0  0  0
 28 34  2  0  0  0
 33 34  1  0  0  0
 25 24  2  0  0  0
 26 24  1  0  0  0
 34 35  1  0  0  0
 24 23  1  0  0  0
 23 20  1  0  0  0
 23 22  2  0  0  0
 20 19  1  0  0  0
 16 15  1  0  0  0
 16 17  1  0  0  0
 22 21  1  0  0  0
 15 14  1  0  0  0
 14 13  1  0  0  0
 13 17  1  0  0  0
 19 21  2  0  0  0
 19  1  1  0  0  0
  9 17  1  0  0  0
  9 10  1  0  0  0
  7  6  2  0  0  0
  7  8  1  0  0  0
  6  5  1  0  0  0
  1  8  1  0  0  0
  8  4  2  0  0  0
  5  3  2  0  0  0
  4  3  1  0  0  0
  3 10  1  0  0  0
 10 11  2  0  0  0
 15 18  1  0  0  0
  9 12  1  0  0  0
  1  2  1  0  0  0
 26 27  1  0  0  0
M  END
> <minimizedAffinity>
-9.10116

$$$$
5NK3_92Q_A_1001


 35 38  0  0  0  0  0  0  0  0999 V2000
  124.6276   35.1635  -24.2782 N   0  0  0  0  0  0  0  0  0  0  0  0
  124.1863   34.5967  -24.9514 H   0  0  0  0  0  0  0  0  0  0  0  0
  122.6105   35.1916  -21.1781 C   0  0  0  0  0  0  0  0  0  0  0  0
  123.3693   34.6979  -22.2419 C   0  0  0  0  0  0  0  0  0  0  0  0
  122.3549   36.5549  -21.0931 C   0  0  0  0  0  0  0  0  0  0  0  0
  122.8586   37.4238  -22.0575 C   0  0  0  0  0  0  0  0  0  0  0  0
  123.6199   36.9201  -23.1142 C   0  0  0  0  0  0  0  0  0  0  0  0
  123.8923   35.5612  -23.2110 C   0  0  0  0  0  0  0  0  0  0  0  0
  121.6974   33.1298  -20.6353 N   0  0  0  0  0  0  0  0  0  0  0  0
  122.0844   34.3371  -20.1991 C   0  0  0  0  0  0  0  0  0  0  0  0
  122.0489   34.6666  -19.0146 O   0  0  0  0  0  0  0  0  0  0  0  0
  121.7728   32.9287  -21.5961 H   0  0  0  0  0  0  0  0  0  0  0  0
  119.6915   31.8503  -19.9551 C   0  0  0  0  0  0  0  0  0  0  0  0
  119.5095   30.5156  -19.2175 C   0  0  0  0  0  0  0  0  0  0  0  0
  120.8264   29.8407  -19.2994 N   0  0  0  0  0  0  0  0  0  0  0  0
  121.6513   30.7272  -20.1518 C   0  0  0  0  0  0  0  0  0  0  0  0
  121.1600   32.0842  -19.7297 C   0  0  0  0  0  0  0  0  0  0  0  0
  121.2404   29.7465  -18.3720 H   0  0  0  0  0  0  0  0  0  0  0  0
  125.9072   35.4851  -24.4822 C   0  0  0  0  0  0  0  0  0  0  0  0
  126.5772   36.6303  -25.5422 S   0  0  0  0  0  0  0  0  0  0  0  0
  126.9034   34.8908  -23.8096 N   0  0  0  0  0  0  0  0  0  0  0  0
  128.1545   35.3408  -24.1181 C   0  0  0  0  0  0  0  0  0  0  0  0
  128.1833   36.2934  -25.0740 C   0  0  0  0  0  0  0  0  0  0  0  0
  129.2631   36.9341  -25.5824 C   0  0  0  0  0  0  0  0  0  0  0  0
  129.1384   38.0884  -25.9933 O   0  0  0  0  0  0  0  0  0  0  0  0
  130.4654   36.2918  -25.5714 N   0  0  0  0  0  0  0  0  0  0  0  0
  130.5171   35.3622  -25.2515 H   0  0  0  0  0  0  0  0  0  0  0  0
  131.5997   36.9225  -25.9989 C   0  0  0  0  0  0  0  0  0  0  0  0
  132.2210   37.9088  -25.2166 C   0  0  0  0  0  0  0  0  0  0  0  0
  131.6323   38.3790  -23.6557 Cl  0  0  0  0  0  0  0  0  0  0  0  0
  133.3668   38.5462  -25.6963 C   0  0  0  0  0  0  0  0  0  0  0  0
  133.8918   38.2218  -26.9405 C   0  0  0  0  0  0  0  0  0  0  0  0
  133.2706   37.2512  -27.7169 C   0  0  0  0  0  0  0  0  0  0  0  0
  132.1215   36.6025  -27.2580 C   0  0  0  0  0  0  0  0  0  0  0  0
  131.5378   35.6394  -28.0814 C   0  0  0  0  0  0  0  0  0  0  0  0
 30 29  1  0  0  0
 31 29  2  0  0  0
 31 32  1  0  0  0
 29 28  1  0  0  0
 32 33  2  0  0  0
 28 26  1  0  0  0
 28 34  2  0  0  0
 33 34  1  0  0  0
 25 24  2  0  0  0
 26 24  1  0  0  0
 34 35  1  0  0  0
 24 23  1  0  0  0
 23 20  1  0  0  0
 23 22  2  0  0  0
 20 19  1  0  0  0
 16 15  1  0  0  0
 16 17  1  0  0  0
 22 21  1  0  0  0
 15 14  1  0  0  0
 14 13  1  0  0  0
 13 17  1  0  0  0
 19 21  2  0  0  0
 19  1  1  0  0  0
  9 17  1  0  0  0
  9 10  1  0  0  0
  7  6  2  0  0  0
  7  8  1  0  0  0
  6  5  1  0  0  0
  1  8  1  0  0  0
  8  4  2  0  0  0
  5  3  2  0  0  0
  4  3  1  0  0  0
  3 10  1  0  0  0
 10 11  2  0  0  0
 15 18  1  0  0  0
  9 12  1  0  0  0
  1  2  1  0  0  0
 26 27  1  0  0  0
M  END
> <minimizedAffinity>
-8.49534

$$$$
5NK3_92Q_A_1001


 35 38  0  0  0  0  0  0  0  0999 V2000
  131.0091   34.3909  -24.9014 N   0  0  0  0  0  0  0  0  0  0  0  0
  131.7223   33.7132  -24.8641 H   0  0  0  0  0  0  0  0  0  0  0  0
  131.4392   38.0096  -25.5340 C   0  0  0  0  0  0  0  0  0  0  0  0
  131.1199   36.8267  -24.8632 C   0  0  0  0  0  0  0  0  0  0  0  0
  131.9253   37.9504  -26.8345 C   0  0  0  0  0  0  0  0  0  0  0  0
  132.1006   36.7197  -27.4617 C   0  0  0  0  0  0  0  0  0  0  0  0
  131.7828   35.5431  -26.7802 C   0  0  0  0  0  0  0  0  0  0  0  0
  131.3032   35.5826  -25.4770 C   0  0  0  0  0  0  0  0  0  0  0  0
  130.1691   39.3836  -24.1635 N   0  0  0  0  0  0  0  0  0  0  0  0
  131.2635   39.2617  -24.9284 C   0  0  0  0  0  0  0  0  0  0  0  0
  132.1010   40.1543  -25.0499 O   0  0  0  0  0  0  0  0  0  0  0  0
  129.5519   38.6195  -24.0976 H   0  0  0  0  0  0  0  0  0  0  0  0
  128.6164   41.2981  -23.9458 C   0  0  0  0  0  0  0  0  0  0  0  0
  128.3099   42.2630  -22.7910 C   0  0  0  0  0  0  0  0  0  0  0  0
  128.8496   41.6050  -21.5778 N   0  0  0  0  0  0  0  0  0  0  0  0
  129.3223   40.2820  -22.0458 C   0  0  0  0  0  0  0  0  0  0  0  0
  129.8497   40.6228  -23.4121 C   0  0  0  0  0  0  0  0  0  0  0  0
  129.6219   42.1459  -21.1887 H   0  0  0  0  0  0  0  0  0  0  0  0
  129.8220   34.0701  -24.3815 C   0  0  0  0  0  0  0  0  0  0  0  0
  128.3545   34.9231  -24.4326 S   0  0  0  0  0  0  0  0  0  0  0  0
  129.6311   32.9312  -23.7000 N   0  0  0  0  0  0  0  0  0  0  0  0
  128.3583   32.7387  -23.2463 C   0  0  0  0  0  0  0  0  0  0  0  0
  127.5063   33.7450  -23.5354 C   0  0  0  0  0  0  0  0  0  0  0  0
  126.1901   33.8391  -23.2291 C   0  0  0  0  0  0  0  0  0  0  0  0
  125.8308   34.6347  -22.3604 O   0  0  0  0  0  0  0  0  0  0  0  0
  125.3024   33.0829  -23.9351 N   0  0  0  0  0  0  0  0  0  0  0  0
  125.6340   32.4455  -24.6081 H   0  0  0  0  0  0  0  0  0  0  0  0
  123.9579   33.1989  -23.7200 C   0  0  0  0  0  0  0  0  0  0  0  0
  123.2449   34.3217  -24.1691 C   0  0  0  0  0  0  0  0  0  0  0  0
  123.9886   35.6175  -25.0475 Cl  0  0  0  0  0  0  0  0  0  0  0  0
  121.8757   34.4147  -23.9121 C   0  0  0  0  0  0  0  0  0  0  0  0
  121.2153   33.4146  -23.2104 C   0  0  0  0  0  0  0  0  0  0  0  0
  121.9245   32.3080  -22.7595 C   0  0  0  0  0  0  0  0  0  0  0  0
  123.2956   32.1954  -23.0029 C   0  0  0  0  0  0  0  0  0  0  0  0
  123.9572   31.0646  -22.5234 C   0  0  0  0  0  0  0  0  0  0  0  0
 30 29  1  0  0  0
 31 29  2  0  0  0
 31 32  1  0  0  0
 29 28  1  0  0  0
 32 33  2  0  0  0
 28 26  1  0  0  0
 28 34  2  0  0  0
 33 34  1  0  0  0
 25 24  2  0  0  0
 26 24  1  0  0  0
 34 35  1  0  0  0
 24 23  1  0  0  0
 23 20  1  0  0  0
 23 22  2  0  0  0
 20 19  1  0  0  0
 16 15  1  0  0  0
 16 17  1  0  0  0
 22 21  1  0  0  0
 15 14  1  0  0  0
 14 13  1  0  0  0
 13 17  1  0  0  0
 19 21  2  0  0  0
 19  1  1  0  0  0
  9 17  1  0  0  0
  9 10  1  0  0  0
  7  6  2  0  0  0
  7  8  1  0  0  0
  6  5  1  0  0  0
  1  8  1  0  0  0
  8  4  2  0  0  0
  5  3  2  0  0  0
  4  3  1  0  0  0
  3 10  1  0  0  0
 10 11  2  0  0  0
 15 18  1  0  0  0
  9 12  1  0  0  0
  1  2  1  0  0  0
 26 27  1  0  0  0
M  END
> <minimizedAffinity>
-8.45097

$$$$
5NK3_92Q_A_1001


 35 38  0  0  0  0  0  0  0  0999 V2000
  126.0181   35.8302  -22.9366 N   0  0  0  0  0  0  0  0  0  0  0  0
  125.7622   36.3196  -22.1215 H   0  0  0  0  0  0  0  0  0  0  0  0
  123.8095   32.8684  -23.1118 C   0  0  0  0  0  0  0  0  0  0  0  0
  124.2057   34.1986  -22.9540 C   0  0  0  0  0  0  0  0  0  0  0  0
  124.7648   31.8960  -23.3815 C   0  0  0  0  0  0  0  0  0  0  0  0
  126.1070   32.2465  -23.5017 C   0  0  0  0  0  0  0  0  0  0  0  0
  126.4915   33.5800  -23.3468 C   0  0  0  0  0  0  0  0  0  0  0  0
  125.5494   34.5667  -23.0847 C   0  0  0  0  0  0  0  0  0  0  0  0
  121.9875   32.4645  -21.7346 N   0  0  0  0  0  0  0  0  0  0  0  0
  122.4660   32.4880  -22.9868 C   0  0  0  0  0  0  0  0  0  0  0  0
  121.7716   32.2582  -23.9757 O   0  0  0  0  0  0  0  0  0  0  0  0
  122.5976   32.6788  -20.9922 H   0  0  0  0  0  0  0  0  0  0  0  0
  120.4374   30.7230  -20.9052 C   0  0  0  0  0  0  0  0  0  0  0  0
  119.0224   30.7868  -20.3118 C   0  0  0  0  0  0  0  0  0  0  0  0
  118.8278   32.2015  -19.9157 N   0  0  0  0  0  0  0  0  0  0  0  0
  120.1337   32.8488  -20.1776 C   0  0  0  0  0  0  0  0  0  0  0  0
  120.5764   32.1288  -21.4213 C   0  0  0  0  0  0  0  0  0  0  0  0
  118.0932   32.6340  -20.4759 H   0  0  0  0  0  0  0  0  0  0  0  0
  126.8015   36.4586  -23.8162 C   0  0  0  0  0  0  0  0  0  0  0  0
  128.4812   36.3465  -24.0394 S   0  0  0  0  0  0  0  0  0  0  0  0
  126.3084   37.3273  -24.7107 N   0  0  0  0  0  0  0  0  0  0  0  0
  127.2335   37.8740  -25.5522 C   0  0  0  0  0  0  0  0  0  0  0  0
  128.5009   37.4693  -25.3243 C   0  0  0  0  0  0  0  0  0  0  0  0
  129.6244   37.8259  -25.9919 C   0  0  0  0  0  0  0  0  0  0  0  0
  129.6211   38.8567  -26.6658 O   0  0  0  0  0  0  0  0  0  0  0  0
  130.7385   37.0536  -25.8492 N   0  0  0  0  0  0  0  0  0  0  0  0
  130.6923   36.2271  -25.3163 H   0  0  0  0  0  0  0  0  0  0  0  0
  131.9188   37.4125  -26.4369 C   0  0  0  0  0  0  0  0  0  0  0  0
  132.6814   38.4817  -25.9409 C   0  0  0  0  0  0  0  0  0  0  0  0
  132.2166   39.4000  -24.5464 Cl  0  0  0  0  0  0  0  0  0  0  0  0
  133.8717   38.8325  -26.5809 C   0  0  0  0  0  0  0  0  0  0  0  0
  134.3033   38.1421  -27.7060 C   0  0  0  0  0  0  0  0  0  0  0  0
  133.5427   37.0894  -28.2004 C   0  0  0  0  0  0  0  0  0  0  0  0
  132.3471   36.7230  -27.5776 C   0  0  0  0  0  0  0  0  0  0  0  0
  131.6227   35.6611  -28.1197 C   0  0  0  0  0  0  0  0  0  0  0  0
 30 29  1  0  0  0
 31 29  2  0  0  0
 31 32  1  0  0  0
 29 28  1  0  0  0
 32 33  2  0  0  0
 28 26  1  0  0  0
 28 34  2  0  0  0
 33 34  1  0  0  0
 25 24  2  0  0  0
 26 24  1  0  0  0
 34 35  1  0  0  0
 24 23  1  0  0  0
 23 20  1  0  0  0
 23 22  2  0  0  0
 20 19  1  0  0  0
 16 15  1  0  0  0
 16 17  1  0  0  0
 22 21  1  0  0  0
 15 14  1  0  0  0
 14 13  1  0  0  0
 13 17  1  0  0  0
 19 21  2  0  0  0
 19  1  1  0  0  0
  9 17  1  0  0  0
  9 10  1  0  0  0
  7  6  2  0  0  0
  7  8  1  0  0  0
  6  5  1  0  0  0
  1  8  1  0  0  0
  8  4  2  0  0  0
  5  3  2  0  0  0
  4  3  1  0  0  0
  3 10  1  0  0  0
 10 11  2  0  0  0
 15 18  1  0  0  0
  9 12  1  0  0  0
  1  2  1  0  0  0
 26 27  1  0  0  0
M  END
> <minimizedAffinity>
-8.34166

$$$$
5NK3_92Q_A_1001


 35 38  0  0  0  0  0  0  0  0999 V2000
  125.7720   34.7871  -22.9958 N   0  0  0  0  0  0  0  0  0  0  0  0
  125.5835   35.3272  -22.1945 H   0  0  0  0  0  0  0  0  0  0  0  0
  122.6733   33.0698  -24.0586 C   0  0  0  0  0  0  0  0  0  0  0  0
  123.5465   34.1081  -23.7259 C   0  0  0  0  0  0  0  0  0  0  0  0
  123.1149   31.7540  -23.9891 C   0  0  0  0  0  0  0  0  0  0  0  0
  124.4215   31.4730  -23.5984 C   0  0  0  0  0  0  0  0  0  0  0  0
  125.2875   32.5189  -23.2726 C   0  0  0  0  0  0  0  0  0  0  0  0
  124.8659   33.8407  -23.3439 C   0  0  0  0  0  0  0  0  0  0  0  0
  120.7461   32.3364  -25.1203 N   0  0  0  0  0  0  0  0  0  0  0  0
  121.3505   33.3253  -24.4463 C   0  0  0  0  0  0  0  0  0  0  0  0
  120.7791   34.3658  -24.1241 O   0  0  0  0  0  0  0  0  0  0  0  0
  121.2606   31.5227  -25.3266 H   0  0  0  0  0  0  0  0  0  0  0  0
  119.2295   32.7302  -27.0355 C   0  0  0  0  0  0  0  0  0  0  0  0
  117.7592   32.3671  -27.2902 C   0  0  0  0  0  0  0  0  0  0  0  0
  117.4367   31.3194  -26.2929 N   0  0  0  0  0  0  0  0  0  0  0  0
  118.7199   31.0454  -25.6064 C   0  0  0  0  0  0  0  0  0  0  0  0
  119.3336   32.4175  -25.5681 C   0  0  0  0  0  0  0  0  0  0  0  0
  116.7390   31.6568  -25.6297 H   0  0  0  0  0  0  0  0  0  0  0  0
  126.9016   35.0395  -23.6612 C   0  0  0  0  0  0  0  0  0  0  0  0
  127.4301   36.4827  -24.3835 S   0  0  0  0  0  0  0  0  0  0  0  0
  127.8381   34.0987  -23.8505 N   0  0  0  0  0  0  0  0  0  0  0  0
  128.9428   34.5161  -24.5348 C   0  0  0  0  0  0  0  0  0  0  0  0
  128.8961   35.8047  -24.9341 C   0  0  0  0  0  0  0  0  0  0  0  0
  129.8349   36.5017  -25.6181 C   0  0  0  0  0  0  0  0  0  0  0  0
  129.5373   37.5935  -26.1041 O   0  0  0  0  0  0  0  0  0  0  0  0
  131.0956   35.9893  -25.6979 N   0  0  0  0  0  0  0  0  0  0  0  0
  131.2860   35.1040  -25.3117 H   0  0  0  0  0  0  0  0  0  0  0  0
  132.0983   36.6895  -26.3075 C   0  0  0  0  0  0  0  0  0  0  0  0
  132.7372   37.7574  -25.6579 C   0  0  0  0  0  0  0  0  0  0  0  0
  132.3392   38.2491  -24.0443 Cl  0  0  0  0  0  0  0  0  0  0  0  0
  133.7432   38.4629  -26.3210 C   0  0  0  0  0  0  0  0  0  0  0  0
  134.1110   38.1256  -27.6171 C   0  0  0  0  0  0  0  0  0  0  0  0
  133.4716   37.0735  -28.2614 C   0  0  0  0  0  0  0  0  0  0  0  0
  132.4605   36.3557  -27.6181 C   0  0  0  0  0  0  0  0  0  0  0  0
  131.8507   35.3120  -28.3146 C   0  0  0  0  0  0  0  0  0  0  0  0
 30 29  1  0  0  0
 31 29  2  0  0  0
 31 32  1  0  0  0
 29 28  1  0  0  0
 32 33  2  0  0  0
 28 26  1  0  0  0
 28 34  2  0  0  0
 33 34  1  0  0  0
 25 24  2  0  0  0
 26 24  1  0  0  0
 34 35  1  0  0  0
 24 23  1  0  0  0
 23 20  1  0  0  0
 23 22  2  0  0  0
 20 19  1  0  0  0
 16 15  1  0  0  0
 16 17  1  0  0  0
 22 21  1  0  0  0
 15 14  1  0  0  0
 14 13  1  0  0  0
 13 17  1  0  0  0
 19 21  2  0  0  0
 19  1  1  0  0  0
  9 17  1  0  0  0
  9 10  1  0  0  0
  7  6  2  0  0  0
  7  8  1  0  0  0
  6  5  1  0  0  0
  1  8  1  0  0  0
  8  4  2  0  0  0
  5  3  2  0  0  0
  4  3  1  0  0  0
  3 10  1  0  0  0
 10 11  2  0  0  0
 15 18  1  0  0  0
  9 12  1  0  0  0
  1  2  1  0  0  0
 26 27  1  0  0  0
M  END
> <minimizedAffinity>
-8.28521

$$$$
5NK3_92Q_A_1001


 35 38  0  0  0  0  0  0  0  0999 V2000
  125.4594   34.2347  -23.6647 N   0  0  0  0  0  0  0  0  0  0  0  0
  124.8861   33.4436  -23.5431 H   0  0  0  0  0  0  0  0  0  0  0  0
  129.0330   34.6723  -24.5123 C   0  0  0  0  0  0  0  0  0  0  0  0
  127.6771   34.9722  -24.3609 C   0  0  0  0  0  0  0  0  0  0  0  0
  129.5007   33.4136  -24.1545 C   0  0  0  0  0  0  0  0  0  0  0  0
  128.6252   32.4606  -23.6407 C   0  0  0  0  0  0  0  0  0  0  0  0
  127.2725   32.7727  -23.4890 C   0  0  0  0  0  0  0  0  0  0  0  0
  126.7885   34.0283  -23.8340 C   0  0  0  0  0  0  0  0  0  0  0  0
  129.9404   36.8050  -24.4261 N   0  0  0  0  0  0  0  0  0  0  0  0
  129.9335   35.6108  -25.0355 C   0  0  0  0  0  0  0  0  0  0  0  0
  130.7028   35.3186  -25.9496 O   0  0  0  0  0  0  0  0  0  0  0  0
  129.3086   36.9616  -23.6875 H   0  0  0  0  0  0  0  0  0  0  0  0
  130.3603   39.2428  -24.3611 C   0  0  0  0  0  0  0  0  0  0  0  0
  131.6335   40.0842  -24.5325 C   0  0  0  0  0  0  0  0  0  0  0  0
  132.7570   39.1339  -24.3565 N   0  0  0  0  0  0  0  0  0  0  0  0
  132.1122   37.8531  -23.9864 C   0  0  0  0  0  0  0  0  0  0  0  0
  130.8609   37.9006  -24.8190 C   0  0  0  0  0  0  0  0  0  0  0  0
  133.2829   39.0340  -25.2247 H   0  0  0  0  0  0  0  0  0  0  0  0
  124.8718   35.4334  -23.6509 C   0  0  0  0  0  0  0  0  0  0  0  0
  125.0755   36.7236  -22.5657 S   0  0  0  0  0  0  0  0  0  0  0  0
  123.9738   35.7935  -24.5794 N   0  0  0  0  0  0  0  0  0  0  0  0
  123.4758   37.0564  -24.4389 C   0  0  0  0  0  0  0  0  0  0  0  0
  123.9506   37.7258  -23.3672 C   0  0  0  0  0  0  0  0  0  0  0  0
  123.6539   38.9869  -22.9714 C   0  0  0  0  0  0  0  0  0  0  0  0
  122.8030   39.6265  -23.5908 O   0  0  0  0  0  0  0  0  0  0  0  0
  124.2743   39.4840  -21.8641 N   0  0  0  0  0  0  0  0  0  0  0  0
  124.9625   38.9463  -21.4097 H   0  0  0  0  0  0  0  0  0  0  0  0
  123.9526   40.7195  -21.3770 C   0  0  0  0  0  0  0  0  0  0  0  0
  122.8073   40.9138  -20.5888 C   0  0  0  0  0  0  0  0  0  0  0  0
  121.7408   39.6212  -20.1464 Cl  0  0  0  0  0  0  0  0  0  0  0  0
  122.4998   42.1949  -20.1266 C   0  0  0  0  0  0  0  0  0  0  0  0
  123.3084   43.2780  -20.4457 C   0  0  0  0  0  0  0  0  0  0  0  0
  124.4371   43.0851  -21.2329 C   0  0  0  0  0  0  0  0  0  0  0  0
  124.7624   41.8124  -21.7085 C   0  0  0  0  0  0  0  0  0  0  0  0
  125.9049   41.6783  -22.4978 C   0  0  0  0  0  0  0  0  0  0  0  0
 30 29  1  0  0  0
 31 29  2  0  0  0
 31 32  1  0  0  0
 29 28  1  0  0  0
 32 33  2  0  0  0
 28 26  1  0  0  0
 28 34  2  0  0  0
 33 34  1  0  0  0
 25 24  2  0  0  0
 26 24  1  0  0  0
 34 35  1  0  0  0
 24 23  1  0  0  0
 23 20  1  0  0  0
 23 22  2  0  0  0
 20 19  1  0  0  0
 16 15  1  0  0  0
 16 17  1  0  0  0
 22 21  1  0  0  0
 15 14  1  0  0  0
 14 13  1  0  0  0
 13 17  1  0  0  0
 19 21  2  0  0  0
 19  1  1  0  0  0
  9 17  1  0  0  0
  9 10  1  0  0  0
  7  6  2  0  0  0
  7  8  1  0  0  0
  6  5  1  0  0  0
  1  8  1  0  0  0
  8  4  2  0  0  0
  5  3  2  0  0  0
  4  3  1  0  0  0
  3 10  1  0  0  0
 10 11  2  0  0  0
 15 18  1  0  0  0
  9 12  1  0  0  0
  1  2  1  0  0  0
 26 27  1  0  0  0
M  END
> <minimizedAffinity>
-8.14658

$$$$
5NK3_92Q_A_1001


 35 38  0  0  0  0  0  0  0  0999 V2000
  125.8211   35.6380  -23.0649 N   0  0  0  0  0  0  0  0  0  0  0  0
  125.7763   36.2662  -22.3081 H   0  0  0  0  0  0  0  0  0  0  0  0
  123.3561   32.9889  -23.8309 C   0  0  0  0  0  0  0  0  0  0  0  0
  124.5628   33.5867  -23.4597 C   0  0  0  0  0  0  0  0  0  0  0  0
  122.2707   33.7881  -24.1688 C   0  0  0  0  0  0  0  0  0  0  0  0
  122.3828   35.1754  -24.1298 C   0  0  0  0  0  0  0  0  0  0  0  0
  123.5923   35.7625  -23.7527 C   0  0  0  0  0  0  0  0  0  0  0  0
  124.6856   34.9795  -23.4039 C   0  0  0  0  0  0  0  0  0  0  0  0
  122.0179   31.1484  -24.2791 N   0  0  0  0  0  0  0  0  0  0  0  0
  123.2198   31.5948  -23.8869 C   0  0  0  0  0  0  0  0  0  0  0  0
  124.1693   30.8492  -23.6513 O   0  0  0  0  0  0  0  0  0  0  0  0
  121.3097   31.8051  -24.4696 H   0  0  0  0  0  0  0  0  0  0  0  0
  121.0562   29.1344  -23.2103 C   0  0  0  0  0  0  0  0  0  0  0  0
  120.5123   27.8148  -23.7773 C   0  0  0  0  0  0  0  0  0  0  0  0
  120.2706   28.0773  -25.2156 N   0  0  0  0  0  0  0  0  0  0  0  0
  120.5617   29.5188  -25.3893 C   0  0  0  0  0  0  0  0  0  0  0  0
  121.7111   29.7052  -24.4380 C   0  0  0  0  0  0  0  0  0  0  0  0
  120.8930   27.5126  -25.7937 H   0  0  0  0  0  0  0  0  0  0  0  0
  126.9958   35.4960  -23.6832 C   0  0  0  0  0  0  0  0  0  0  0  0
  128.2201   36.6417  -23.9522 S   0  0  0  0  0  0  0  0  0  0  0  0
  127.3835   34.3247  -24.2082 N   0  0  0  0  0  0  0  0  0  0  0  0
  128.6172   34.3361  -24.7920 C   0  0  0  0  0  0  0  0  0  0  0  0
  129.2325   35.5373  -24.7692 C   0  0  0  0  0  0  0  0  0  0  0  0
  130.4549   35.8590  -25.2564 C   0  0  0  0  0  0  0  0  0  0  0  0
  131.4000   35.0938  -25.0610 O   0  0  0  0  0  0  0  0  0  0  0  0
  130.5818   36.9983  -25.9940 N   0  0  0  0  0  0  0  0  0  0  0  0
  129.8048   37.5916  -26.1099 H   0  0  0  0  0  0  0  0  0  0  0  0
  131.7744   37.3270  -26.5744 C   0  0  0  0  0  0  0  0  0  0  0  0
  132.2433   36.6439  -27.7077 C   0  0  0  0  0  0  0  0  0  0  0  0
  131.3507   35.3707  -28.4734 Cl  0  0  0  0  0  0  0  0  0  0  0  0
  133.4767   36.9940  -28.2603 C   0  0  0  0  0  0  0  0  0  0  0  0
  134.2470   38.0026  -27.6962 C   0  0  0  0  0  0  0  0  0  0  0  0
  133.7850   38.6719  -26.5695 C   0  0  0  0  0  0  0  0  0  0  0  0
  132.5551   38.3363  -25.9982 C   0  0  0  0  0  0  0  0  0  0  0  0
  132.1433   39.0389  -24.8655 C   0  0  0  0  0  0  0  0  0  0  0  0
 30 29  1  0  0  0
 31 29  2  0  0  0
 31 32  1  0  0  0
 29 28  1  0  0  0
 32 33  2  0  0  0
 28 26  1  0  0  0
 28 34  2  0  0  0
 33 34  1  0  0  0
 25 24  2  0  0  0
 26 24  1  0  0  0
 34 35  1  0  0  0
 24 23  1  0  0  0
 23 20  1  0  0  0
 23 22  2  0  0  0
 20 19  1  0  0  0
 16 15  1  0  0  0
 16 17  1  0  0  0
 22 21  1  0  0  0
 15 14  1  0  0  0
 14 13  1  0  0  0
 13 17  1  0  0  0
 19 21  2  0  0  0
 19  1  1  0  0  0
  9 17  1  0  0  0
  9 10  1  0  0  0
  7  6  2  0  0  0
  7  8  1  0  0  0
  6  5  1  0  0  0
  1  8  1  0  0  0
  8  4  2  0  0  0
  5  3  2  0  0  0
  4  3  1  0  0  0
  3 10  1  0  0  0
 10 11  2  0  0  0
 15 18  1  0  0  0
  9 12  1  0  0  0
  1  2  1  0  0  0
 26 27  1  0  0  0
M  END
> <minimizedAffinity>
-8.12626

$$$$
