1BM7_FLF_A_501


 22 23  0  0  0  0  0  0  0  0999 V2000
   20.8090   41.8527    6.8608 N   0  0  0  0  0  0  0  0  0  0  0  0
   20.3233   41.0152    7.0397 H   0  0  0  0  0  0  0  0  0  0  0  0
   21.6699   41.8697    9.1157 C   0  0  0  0  0  0  0  0  0  0  0  0
   21.9976   42.5364   10.3095 C   0  0  0  0  0  0  0  0  0  0  0  0
   21.7939   43.9041   10.4507 C   0  0  0  0  0  0  0  0  0  0  0  0
   21.2600   44.6252    9.3822 C   0  0  0  0  0  0  0  0  0  0  0  0
   20.9359   43.9704    8.1956 C   0  0  0  0  0  0  0  0  0  0  0  0
   21.1362   42.5746    8.0518 C   0  0  0  0  0  0  0  0  0  0  0  0
   22.7034   39.9105    8.0605 O   0  0  0  0  0  0  0  0  0  0  0  0
   21.6302   39.5916    9.8439 O   0  0  0  0  0  0  0  0  0  0  0  0
   21.8831   40.4262    8.9871 C   0  0  0  0  0  0  0  0  0  0  0  0
   21.0660   39.8106   10.5592 H   0  0  0  0  0  0  0  0  0  0  0  0
   21.0309   42.0796    5.4815 C   0  0  0  0  0  0  0  0  0  0  0  0
   22.1261   42.8870    5.2194 C   0  0  0  0  0  0  0  0  0  0  0  0
   22.4564   43.1902    3.9318 C   0  0  0  0  0  0  0  0  0  0  0  0
   21.7099   42.7040    2.8389 C   0  0  0  0  0  0  0  0  0  0  0  0
   20.5978   41.8854    3.0943 C   0  0  0  0  0  0  0  0  0  0  0  0
   20.2554   41.5706    4.4107 C   0  0  0  0  0  0  0  0  0  0  0  0
   23.6462   44.0662    3.6853 C   0  0  0  0  0  0  0  0  0  0  0  0
   24.2447   44.4961    4.8089 F   0  0  0  0  0  0  0  0  0  0  0  0
   24.6259   43.4885    2.9830 F   0  0  0  0  0  0  0  0  0  0  0  0
   23.3486   45.1886    3.0165 F   0  0  0  0  0  0  0  0  0  0  0  0
  3  4  2  0  0  0
  3  8  1  0  0  0
  3 11  1  0  0  0
  9 11  2  0  0  0
  4  5  1  0  0  0
  5  6  2  0  0  0
 10 11  1  0  0  0
  6  7  1  0  0  0
  7  8  2  0  0  0
  8  1  1  0  0  0
  1 13  1  0  0  0
 13 14  2  0  0  0
 13 18  1  0  0  0
 14 15  1  0  0  0
 15 16  2  0  0  0
 15 19  1  0  0  0
 16 17  1  0  0  0
 17 18  2  0  0  0
 19 20  1  0  0  0
 19 21  1  0  0  0
 19 22  1  0  0  0
 10 12  1  0  0  0
  1  2  1  0  0  0
M  END
> <minimizedAffinity>
-8.68683

$$$$
1BM7_FLF_A_501


 22 23  0  0  0  0  0  0  0  0999 V2000
   22.3794   43.4747    6.8527 N   0  0  0  0  0  0  0  0  0  0  0  0
   22.8690   44.3084    7.0386 H   0  0  0  0  0  0  0  0  0  0  0  0
   21.5081   43.4471    9.1034 C   0  0  0  0  0  0  0  0  0  0  0  0
   21.1730   42.7745   10.2919 C   0  0  0  0  0  0  0  0  0  0  0  0
   21.3721   41.4054   10.4261 C   0  0  0  0  0  0  0  0  0  0  0  0
   21.9090   40.6890    9.3560 C   0  0  0  0  0  0  0  0  0  0  0  0
   22.2405   41.3497    8.1747 C   0  0  0  0  0  0  0  0  0  0  0  0
   22.0446   42.7468    8.0380 C   0  0  0  0  0  0  0  0  0  0  0  0
   20.4966   45.4161    8.0451 O   0  0  0  0  0  0  0  0  0  0  0  0
   21.5383   45.7195    9.8498 O   0  0  0  0  0  0  0  0  0  0  0  0
   21.2994   44.8919    8.9822 C   0  0  0  0  0  0  0  0  0  0  0  0
   22.0892   45.4940   10.5734 H   0  0  0  0  0  0  0  0  0  0  0  0
   22.1605   43.2579    5.4713 C   0  0  0  0  0  0  0  0  0  0  0  0
   21.0734   42.4423    5.2012 C   0  0  0  0  0  0  0  0  0  0  0  0
   20.7468   42.1474    3.9108 C   0  0  0  0  0  0  0  0  0  0  0  0
   21.4892   42.6504    2.8228 C   0  0  0  0  0  0  0  0  0  0  0  0
   22.5933   43.4773    3.0862 C   0  0  0  0  0  0  0  0  0  0  0  0
   22.9318   43.7838    4.4056 C   0  0  0  0  0  0  0  0  0  0  0  0
   19.5656   41.2622    3.6557 C   0  0  0  0  0  0  0  0  0  0  0  0
   18.9601   40.8306    4.7749 F   0  0  0  0  0  0  0  0  0  0  0  0
   18.5881   41.8312    2.9432 F   0  0  0  0  0  0  0  0  0  0  0  0
   19.8773   40.1405    2.9923 F   0  0  0  0  0  0  0  0  0  0  0  0
  3  4  2  0  0  0
  3  8  1  0  0  0
  3 11  1  0  0  0
  9 11  2  0  0  0
  4  5  1  0  0  0
  5  6  2  0  0  0
 10 11  1  0  0  0
  6  7  1  0  0  0
  7  8  2  0  0  0
  8  1  1  0  0  0
  1 13  1  0  0  0
 13 14  2  0  0  0
 13 18  1  0  0  0
 14 15  1  0  0  0
 15 16  2  0  0  0
 15 19  1  0  0  0
 16 17  1  0  0  0
 17 18  2  0  0  0
 19 20  1  0  0  0
 19 21  1  0  0  0
 19 22  1  0  0  0
 10 12  1  0  0  0
  1  2  1  0  0  0
M  END
> <minimizedAffinity>
-8.68117

$$$$
1BM7_FLF_A_501


 22 23  0  0  0  0  0  0  0  0999 V2000
   21.9772   41.9118    7.4020 N   0  0  0  0  0  0  0  0  0  0  0  0
   22.2266   40.9641    7.4971 H   0  0  0  0  0  0  0  0  0  0  0  0
   21.5662   41.9279    9.7803 C   0  0  0  0  0  0  0  0  0  0  0  0
   21.5301   42.5812   11.0249 C   0  0  0  0  0  0  0  0  0  0  0  0
   21.8883   43.9186   11.1477 C   0  0  0  0  0  0  0  0  0  0  0  0
   22.2967   44.6194   10.0125 C   0  0  0  0  0  0  0  0  0  0  0  0
   22.3371   43.9765    8.7768 C   0  0  0  0  0  0  0  0  0  0  0  0
   21.9657   42.6146    8.6480 C   0  0  0  0  0  0  0  0  0  0  0  0
   21.9822   39.6045    9.1102 O   0  0  0  0  0  0  0  0  0  0  0  0
   20.2917   39.9742   10.3100 O   0  0  0  0  0  0  0  0  0  0  0  0
   21.1770   40.5202    9.6676 C   0  0  0  0  0  0  0  0  0  0  0  0
   19.6509   40.4909   10.7577 H   0  0  0  0  0  0  0  0  0  0  0  0
   21.7083   42.2813    6.0624 C   0  0  0  0  0  0  0  0  0  0  0  0
   20.6689   41.5686    5.4864 C   0  0  0  0  0  0  0  0  0  0  0  0
   20.3024   41.8202    4.1974 C   0  0  0  0  0  0  0  0  0  0  0  0
   20.9554   42.7955    3.4162 C   0  0  0  0  0  0  0  0  0  0  0  0
   22.0105   43.5226    3.9908 C   0  0  0  0  0  0  0  0  0  0  0  0
   22.3894   43.2702    5.3107 C   0  0  0  0  0  0  0  0  0  0  0  0
   19.1749   41.0306    3.6066 C   0  0  0  0  0  0  0  0  0  0  0  0
   18.3920   40.4355    4.5223 F   0  0  0  0  0  0  0  0  0  0  0  0
   18.3303   41.7442    2.8555 F   0  0  0  0  0  0  0  0  0  0  0  0
   19.5860   40.0282    2.8182 F   0  0  0  0  0  0  0  0  0  0  0  0
  3  4  2  0  0  0
  3  8  1  0  0  0
  3 11  1  0  0  0
  9 11  2  0  0  0
  4  5  1  0  0  0
  5  6  2  0  0  0
 10 11  1  0  0  0
  6  7  1  0  0  0
  7  8  2  0  0  0
  8  1  1  0  0  0
  1 13  1  0  0  0
 13 14  2  0  0  0
 13 18  1  0  0  0
 14 15  1  0  0  0
 15 16  2  0  0  0
 15 19  1  0  0  0
 16 17  1  0  0  0
 17 18  2  0  0  0
 19 20  1  0  0  0
 19 21  1  0  0  0
 19 22  1  0  0  0
 10 12  1  0  0  0
  1  2  1  0  0  0
M  END
> <minimizedAffinity>
-8.38182

$$$$
1BM7_FLF_A_501


 22 23  0  0  0  0  0  0  0  0999 V2000
   21.3090   43.4321    7.3485 N   0  0  0  0  0  0  0  0  0  0  0  0
   21.1231   44.3919    7.4645 H   0  0  0  0  0  0  0  0  0  0  0  0
   21.6437   43.3703    9.7381 C   0  0  0  0  0  0  0  0  0  0  0  0
   21.6423   42.6927   10.9701 C   0  0  0  0  0  0  0  0  0  0  0  0
   21.2854   41.3519   11.0550 C   0  0  0  0  0  0  0  0  0  0  0  0
   20.9162   40.6725    9.8936 C   0  0  0  0  0  0  0  0  0  0  0  0
   20.9130   41.3395    8.6702 C   0  0  0  0  0  0  0  0  0  0  0  0
   21.2832   42.7048    8.5802 C   0  0  0  0  0  0  0  0  0  0  0  0
   21.2359   45.7069    9.1103 O   0  0  0  0  0  0  0  0  0  0  0  0
   22.8995   45.3151   10.3401 O   0  0  0  0  0  0  0  0  0  0  0  0
   22.0309   44.7812    9.6656 C   0  0  0  0  0  0  0  0  0  0  0  0
   23.5315   44.7902   10.7908 H   0  0  0  0  0  0  0  0  0  0  0  0
   21.5436   43.0731    5.9996 C   0  0  0  0  0  0  0  0  0  0  0  0
   22.5950   43.7610    5.4153 C   0  0  0  0  0  0  0  0  0  0  0  0
   22.9315   43.5161    4.1170 C   0  0  0  0  0  0  0  0  0  0  0  0
   22.2352   42.5726    3.3341 C   0  0  0  0  0  0  0  0  0  0  0  0
   21.1676   41.8708    3.9171 C   0  0  0  0  0  0  0  0  0  0  0  0
   20.8192   42.1165    5.2466 C   0  0  0  0  0  0  0  0  0  0  0  0
   24.0732   44.2783    3.5174 C   0  0  0  0  0  0  0  0  0  0  0  0
   24.8311   44.9199    4.4225 F   0  0  0  0  0  0  0  0  0  0  0  0
   24.9380   43.5305    2.8248 F   0  0  0  0  0  0  0  0  0  0  0  0
   23.6817   45.2395    2.6699 F   0  0  0  0  0  0  0  0  0  0  0  0
  3  4  2  0  0  0
  3  8  1  0  0  0
  3 11  1  0  0  0
  9 11  2  0  0  0
  4  5  1  0  0  0
  5  6  2  0  0  0
 10 11  1  0  0  0
  6  7  1  0  0  0
  7  8  2  0  0  0
  8  1  1  0  0  0
  1 13  1  0  0  0
 13 14  2  0  0  0
 13 18  1  0  0  0
 14 15  1  0  0  0
 15 16  2  0  0  0
 15 19  1  0  0  0
 16 17  1  0  0  0
 17 18  2  0  0  0
 19 20  1  0  0  0
 19 21  1  0  0  0
 19 22  1  0  0  0
 10 12  1  0  0  0
  1  2  1  0  0  0
M  END
> <minimizedAffinity>
-8.33186

$$$$
1BM7_FLF_A_501


 22 23  0  0  0  0  0  0  0  0999 V2000
   21.1946   42.3174    5.6802 N   0  0  0  0  0  0  0  0  0  0  0  0
   20.6689   41.5194    5.4437 H   0  0  0  0  0  0  0  0  0  0  0  0
   21.3869   42.5907    3.2898 C   0  0  0  0  0  0  0  0  0  0  0  0
   22.0048   43.1425    2.1537 C   0  0  0  0  0  0  0  0  0  0  0  0
   23.0836   44.0113    2.2702 C   0  0  0  0  0  0  0  0  0  0  0  0
   23.5538   44.3436    3.5410 C   0  0  0  0  0  0  0  0  0  0  0  0
   22.9437   43.8021    4.6708 C   0  0  0  0  0  0  0  0  0  0  0  0
   21.8479   42.9105    4.5541 C   0  0  0  0  0  0  0  0  0  0  0  0
   20.4071   40.3416    3.2488 O   0  0  0  0  0  0  0  0  0  0  0  0
   19.0762   41.9734    3.2476 O   0  0  0  0  0  0  0  0  0  0  0  0
   20.2564   41.6700    3.1484 C   0  0  0  0  0  0  0  0  0  0  0  0
   18.8178   42.8726    3.1963 H   0  0  0  0  0  0  0  0  0  0  0  0
   21.1390   42.6274    7.0601 C   0  0  0  0  0  0  0  0  0  0  0  0
   21.1171   41.5113    7.8809 C   0  0  0  0  0  0  0  0  0  0  0  0
   21.0623   41.6622    9.2349 C   0  0  0  0  0  0  0  0  0  0  0  0
   21.0252   42.9352    9.8398 C   0  0  0  0  0  0  0  0  0  0  0  0
   21.0463   44.0726    9.0164 C   0  0  0  0  0  0  0  0  0  0  0  0
   21.1036   43.9243    7.6292 C   0  0  0  0  0  0  0  0  0  0  0  0
   21.0395   40.4337   10.0917 C   0  0  0  0  0  0  0  0  0  0  0  0
   19.8558   40.2102   10.6871 F   0  0  0  0  0  0  0  0  0  0  0  0
   21.3081   39.2972    9.4413 F   0  0  0  0  0  0  0  0  0  0  0  0
   21.9177   40.4764   11.1028 F   0  0  0  0  0  0  0  0  0  0  0  0
  3  4  2  0  0  0
  3  8  1  0  0  0
  3 11  1  0  0  0
  9 11  2  0  0  0
  4  5  1  0  0  0
  5  6  2  0  0  0
 10 11  1  0  0  0
  6  7  1  0  0  0
  7  8  2  0  0  0
  8  1  1  0  0  0
  1 13  1  0  0  0
 13 14  2  0  0  0
 13 18  1  0  0  0
 14 15  1  0  0  0
 15 16  2  0  0  0
 15 19  1  0  0  0
 16 17  1  0  0  0
 17 18  2  0  0  0
 19 20  1  0  0  0
 19 21  1  0  0  0
 19 22  1  0  0  0
 10 12  1  0  0  0
  1  2  1  0  0  0
M  END
> <minimizedAffinity>
-7.64589

$$$$
1BM7_FLF_A_501


 22 23  0  0  0  0  0  0  0  0999 V2000
   21.9640   43.0333    5.7385 N   0  0  0  0  0  0  0  0  0  0  0  0
   22.4959   43.8339    5.5257 H   0  0  0  0  0  0  0  0  0  0  0  0
   21.8264   42.7994    3.3401 C   0  0  0  0  0  0  0  0  0  0  0  0
   21.2379   42.2624    2.1815 C   0  0  0  0  0  0  0  0  0  0  0  0
   20.1638   41.3836    2.2594 C   0  0  0  0  0  0  0  0  0  0  0  0
   19.6685   41.0260    3.5138 C   0  0  0  0  0  0  0  0  0  0  0  0
   20.2493   41.5528    4.6657 C   0  0  0  0  0  0  0  0  0  0  0  0
   21.3403   42.4545    4.5884 C   0  0  0  0  0  0  0  0  0  0  0  0
   22.7959   45.0525    3.4028 O   0  0  0  0  0  0  0  0  0  0  0  0
   24.1340   43.4287    3.3207 O   0  0  0  0  0  0  0  0  0  0  0  0
   22.9523   43.7310    3.2392 C   0  0  0  0  0  0  0  0  0  0  0  0
   24.3964   42.5341    3.2262 H   0  0  0  0  0  0  0  0  0  0  0  0
   21.9834   42.7061    7.1154 C   0  0  0  0  0  0  0  0  0  0  0  0
   22.0611   43.8104    7.9488 C   0  0  0  0  0  0  0  0  0  0  0  0
   22.0896   43.6424    9.3016 C   0  0  0  0  0  0  0  0  0  0  0  0
   22.0429   42.3632    9.8926 C   0  0  0  0  0  0  0  0  0  0  0  0
   21.9647   41.2377    9.0564 C   0  0  0  0  0  0  0  0  0  0  0  0
   21.9341   41.4036    7.6704 C   0  0  0  0  0  0  0  0  0  0  0  0
   22.1745   44.8583   10.1723 C   0  0  0  0  0  0  0  0  0  0  0  0
   22.0560   46.0156    9.5000 F   0  0  0  0  0  0  0  0  0  0  0  0
   21.2393   44.9262   11.1250 F   0  0  0  0  0  0  0  0  0  0  0  0
   23.3434   44.9670   10.8183 F   0  0  0  0  0  0  0  0  0  0  0  0
  3  4  2  0  0  0
  3  8  1  0  0  0
  3 11  1  0  0  0
  9 11  2  0  0  0
  4  5  1  0  0  0
  5  6  2  0  0  0
 10 11  1  0  0  0
  6  7  1  0  0  0
  7  8  2  0  0  0
  8  1  1  0  0  0
  1 13  1  0  0  0
 13 14  2  0  0  0
 13 18  1  0  0  0
 14 15  1  0  0  0
 15 16  2  0  0  0
 15 19  1  0  0  0
 16 17  1  0  0  0
 17 18  2  0  0  0
 19 20  1  0  0  0
 19 21  1  0  0  0
 19 22  1  0  0  0
 10 12  1  0  0  0
  1  2  1  0  0  0
M  END
> <minimizedAffinity>
-7.58014

$$$$
1BM7_FLF_A_501


 22 23  0  0  0  0  0  0  0  0999 V2000
   21.1980   42.4158    5.7502 N   0  0  0  0  0  0  0  0  0  0  0  0
   20.3256   42.0303    5.5060 H   0  0  0  0  0  0  0  0  0  0  0  0
   21.4558   42.6642    3.3632 C   0  0  0  0  0  0  0  0  0  0  0  0
   22.1082   43.2000    2.2388 C   0  0  0  0  0  0  0  0  0  0  0  0
   23.1906   44.0614    2.3756 C   0  0  0  0  0  0  0  0  0  0  0  0
   23.6296   44.4023    3.6553 C   0  0  0  0  0  0  0  0  0  0  0  0
   22.9853   43.8767    4.7735 C   0  0  0  0  0  0  0  0  0  0  0  0
   21.8858   42.9927    4.6363 C   0  0  0  0  0  0  0  0  0  0  0  0
   20.4570   40.4234    3.3282 O   0  0  0  0  0  0  0  0  0  0  0  0
   19.1422   42.0665    3.2561 O   0  0  0  0  0  0  0  0  0  0  0  0
   20.3220   41.7511    3.2005 C   0  0  0  0  0  0  0  0  0  0  0  0
   18.8939   42.9670    3.1812 H   0  0  0  0  0  0  0  0  0  0  0  0
   21.4978   42.2782    7.1266 C   0  0  0  0  0  0  0  0  0  0  0  0
   21.5755   43.4852    7.8027 C   0  0  0  0  0  0  0  0  0  0  0  0
   21.8594   43.5022    9.1361 C   0  0  0  0  0  0  0  0  0  0  0  0
   22.0817   42.3150    9.8637 C   0  0  0  0  0  0  0  0  0  0  0  0
   22.0058   41.0867    9.1873 C   0  0  0  0  0  0  0  0  0  0  0  0
   21.7142   41.0631    7.8220 C   0  0  0  0  0  0  0  0  0  0  0  0
   21.9362   44.8249    9.8350 C   0  0  0  0  0  0  0  0  0  0  0  0
   23.1783   45.1631   10.2200 F   0  0  0  0  0  0  0  0  0  0  0  0
   21.5160   45.8637    9.1062 F   0  0  0  0  0  0  0  0  0  0  0  0
   21.2141   44.8711   10.9627 F   0  0  0  0  0  0  0  0  0  0  0  0
  3  4  2  0  0  0
  3  8  1  0  0  0
  3 11  1  0  0  0
  9 11  2  0  0  0
  4  5  1  0  0  0
  5  6  2  0  0  0
 10 11  1  0  0  0
  6  7  1  0  0  0
  7  8  2  0  0  0
  8  1  1  0  0  0
  1 13  1  0  0  0
 13 14  2  0  0  0
 13 18  1  0  0  0
 14 15  1  0  0  0
 15 16  2  0  0  0
 15 19  1  0  0  0
 16 17  1  0  0  0
 17 18  2  0  0  0
 19 20  1  0  0  0
 19 21  1  0  0  0
 19 22  1  0  0  0
 10 12  1  0  0  0
  1  2  1  0  0  0
M  END
> <minimizedAffinity>
-7.45819

$$$$
1BM7_FLF_A_501


 22 23  0  0  0  0  0  0  0  0999 V2000
   21.9510   42.7585    5.7180 N   0  0  0  0  0  0  0  0  0  0  0  0
   22.8486   43.0741    5.4650 H   0  0  0  0  0  0  0  0  0  0  0  0
   21.6326   42.5302    3.3364 C   0  0  0  0  0  0  0  0  0  0  0  0
   20.9387   42.0212    2.2244 C   0  0  0  0  0  0  0  0  0  0  0  0
   19.8325   41.1943    2.3817 C   0  0  0  0  0  0  0  0  0  0  0  0
   19.4111   40.8612    3.6694 C   0  0  0  0  0  0  0  0  0  0  0  0
   20.0965   41.3604    4.7752 C   0  0  0  0  0  0  0  0  0  0  0  0
   21.2206   42.2094    4.6173 C   0  0  0  0  0  0  0  0  0  0  0  0
   22.7149   44.7322    3.3428 O   0  0  0  0  0  0  0  0  0  0  0  0
   23.9592   43.0467    3.1320 O   0  0  0  0  0  0  0  0  0  0  0  0
   22.7913   43.4074    3.1523 C   0  0  0  0  0  0  0  0  0  0  0  0
   24.1681   42.1420    3.0062 H   0  0  0  0  0  0  0  0  0  0  0  0
   21.6650   42.9471    7.0913 C   0  0  0  0  0  0  0  0  0  0  0  0
   21.5854   41.7655    7.8107 C   0  0  0  0  0  0  0  0  0  0  0  0
   21.3138   41.7980    9.1464 C   0  0  0  0  0  0  0  0  0  0  0  0
   21.1065   43.0118    9.8332 C   0  0  0  0  0  0  0  0  0  0  0  0
   21.1845   44.2147    9.1128 C   0  0  0  0  0  0  0  0  0  0  0  0
   21.4634   44.1877    7.7450 C   0  0  0  0  0  0  0  0  0  0  0  0
   21.2346   40.5016    9.8926 C   0  0  0  0  0  0  0  0  0  0  0  0
   21.6396   39.4388    9.1770 F   0  0  0  0  0  0  0  0  0  0  0  0
   21.9708   40.4560   11.0074 F   0  0  0  0  0  0  0  0  0  0  0  0
   19.9906   40.1878   10.2793 F   0  0  0  0  0  0  0  0  0  0  0  0
  3  4  2  0  0  0
  3  8  1  0  0  0
  3 11  1  0  0  0
  9 11  2  0  0  0
  4  5  1  0  0  0
  5  6  2  0  0  0
 10 11  1  0  0  0
  6  7  1  0  0  0
  7  8  2  0  0  0
  8  1  1  0  0  0
  1 13  1  0  0  0
 13 14  2  0  0  0
 13 18  1  0  0  0
 14 15  1  0  0  0
 15 16  2  0  0  0
 15 19  1  0  0  0
 16 17  1  0  0  0
 17 18  2  0  0  0
 19 20  1  0  0  0
 19 21  1  0  0  0
 19 22  1  0  0  0
 10 12  1  0  0  0
  1  2  1  0  0  0
M  END
> <minimizedAffinity>
-7.44883

$$$$
1BM7_FLF_A_501


 22 23  0  0  0  0  0  0  0  0999 V2000
   22.7927   44.5258    2.1828 N   0  0  0  0  0  0  0  0  0  0  0  0
   22.2508   45.3391    2.0641 H   0  0  0  0  0  0  0  0  0  0  0  0
   24.0174   44.7283    0.1129 C   0  0  0  0  0  0  0  0  0  0  0  0
   25.2210   44.7768   -0.6125 C   0  0  0  0  0  0  0  0  0  0  0  0
   26.4518   44.6757    0.0255 C   0  0  0  0  0  0  0  0  0  0  0  0
   26.4879   44.5300    1.4126 C   0  0  0  0  0  0  0  0  0  0  0  0
   25.2984   44.4841    2.1372 C   0  0  0  0  0  0  0  0  0  0  0  0
   24.0420   44.5800    1.4880 C   0  0  0  0  0  0  0  0  0  0  0  0
   21.9440   43.7583   -0.7703 O   0  0  0  0  0  0  0  0  0  0  0  0
   22.0955   45.8584   -0.7537 O   0  0  0  0  0  0  0  0  0  0  0  0
   22.7288   44.8278   -0.5766 C   0  0  0  0  0  0  0  0  0  0  0  0
   22.5158   46.6898   -0.6528 H   0  0  0  0  0  0  0  0  0  0  0  0
   22.1656   43.5582    3.0037 C   0  0  0  0  0  0  0  0  0  0  0  0
   22.3144   43.7983    4.3603 C   0  0  0  0  0  0  0  0  0  0  0  0
   21.7620   42.9442    5.2681 C   0  0  0  0  0  0  0  0  0  0  0  0
   21.0331   41.8052    4.8688 C   0  0  0  0  0  0  0  0  0  0  0  0
   20.8773   41.5527    3.4962 C   0  0  0  0  0  0  0  0  0  0  0  0
   21.4398   42.4246    2.5619 C   0  0  0  0  0  0  0  0  0  0  0  0
   21.9432   43.2342    6.7264 C   0  0  0  0  0  0  0  0  0  0  0  0
   23.0928   43.8675    7.0142 F   0  0  0  0  0  0  0  0  0  0  0  0
   20.9918   44.0054    7.2622 F   0  0  0  0  0  0  0  0  0  0  0  0
   21.9716   42.1312    7.4867 F   0  0  0  0  0  0  0  0  0  0  0  0
  3  4  2  0  0  0
  3  8  1  0  0  0
  3 11  1  0  0  0
  9 11  2  0  0  0
  4  5  1  0  0  0
  5  6  2  0  0  0
 10 11  1  0  0  0
  6  7  1  0  0  0
  7  8  2  0  0  0
  8  1  1  0  0  0
  1 13  1  0  0  0
 13 14  2  0  0  0
 13 18  1  0  0  0
 14 15  1  0  0  0
 15 16  2  0  0  0
 15 19  1  0  0  0
 16 17  1  0  0  0
 17 18  2  0  0  0
 19 20  1  0  0  0
 19 21  1  0  0  0
 19 22  1  0  0  0
 10 12  1  0  0  0
  1  2  1  0  0  0
M  END
> <minimizedAffinity>
-7.06638

$$$$
1BM7_FLF_A_501


 22 23  0  0  0  0  0  0  0  0999 V2000
   22.7876   44.4583    2.1725 N   0  0  0  0  0  0  0  0  0  0  0  0
   22.1331   45.1244    1.8607 H   0  0  0  0  0  0  0  0  0  0  0  0
   24.0240   44.7257    0.1169 C   0  0  0  0  0  0  0  0  0  0  0  0
   25.2319   44.8050   -0.5986 C   0  0  0  0  0  0  0  0  0  0  0  0
   26.4594   44.7008    0.0453 C   0  0  0  0  0  0  0  0  0  0  0  0
   26.4876   44.5206    1.4285 C   0  0  0  0  0  0  0  0  0  0  0  0
   25.2939   44.4440    2.1433 C   0  0  0  0  0  0  0  0  0  0  0  0
   24.0409   44.5431    1.4880 C   0  0  0  0  0  0  0  0  0  0  0  0
   21.9684   43.7561   -0.8074 O   0  0  0  0  0  0  0  0  0  0  0  0
   22.0949   45.8567   -0.7323 O   0  0  0  0  0  0  0  0  0  0  0  0
   22.7391   44.8290   -0.5789 C   0  0  0  0  0  0  0  0  0  0  0  0
   22.5046   46.6898   -0.6057 H   0  0  0  0  0  0  0  0  0  0  0  0
   22.2831   43.6260    3.2001 C   0  0  0  0  0  0  0  0  0  0  0  0
   21.3891   42.6672    2.7513 C   0  0  0  0  0  0  0  0  0  0  0  0
   20.8228   41.7968    3.6349 C   0  0  0  0  0  0  0  0  0  0  0  0
   21.1188   41.8392    5.0128 C   0  0  0  0  0  0  0  0  0  0  0  0
   22.0231   42.8078    5.4776 C   0  0  0  0  0  0  0  0  0  0  0  0
   22.6070   43.7009    4.5772 C   0  0  0  0  0  0  0  0  0  0  0  0
   19.8603   40.7737    3.1149 C   0  0  0  0  0  0  0  0  0  0  0  0
   18.8592   40.4900    3.9651 F   0  0  0  0  0  0  0  0  0  0  0  0
   19.2478   41.1146    1.9767 F   0  0  0  0  0  0  0  0  0  0  0  0
   20.4312   39.5874    2.8655 F   0  0  0  0  0  0  0  0  0  0  0  0
  3  4  2  0  0  0
  3  8  1  0  0  0
  3 11  1  0  0  0
  9 11  2  0  0  0
  4  5  1  0  0  0
  5  6  2  0  0  0
 10 11  1  0  0  0
  6  7  1  0  0  0
  7  8  2  0  0  0
  8  1  1  0  0  0
  1 13  1  0  0  0
 13 14  2  0  0  0
 13 18  1  0  0  0
 14 15  1  0  0  0
 15 16  2  0  0  0
 15 19  1  0  0  0
 16 17  1  0  0  0
 17 18  2  0  0  0
 19 20  1  0  0  0
 19 21  1  0  0  0
 19 22  1  0  0  0
 10 12  1  0  0  0
  1  2  1  0  0  0
M  END
> <minimizedAffinity>
-6.94219

$$$$
