2VH0_GSI_A_1247


 35 38  0  0  0  0  0  0  0  0999 V2000
    5.7323    7.1696   22.1507 C   0  0  0  0  0  0  0  0  0  0  0  0
    4.4595    6.9533   21.3309 C   0  0  0  0  0  0  0  0  0  0  0  0
    4.7115    5.5676   20.7283 C   0  0  0  0  0  0  0  0  0  0  0  0
    6.7779    6.3010   21.4739 C   0  0  0  0  0  0  0  0  0  0  0  0
    7.9928    6.4112   21.5841 O   0  0  0  0  0  0  0  0  0  0  0  0
    6.1558    5.3901   20.7178 N   0  0  0  0  0  0  0  0  0  0  0  0
    6.7906    4.3975   20.0246 C   0  0  0  0  0  0  0  0  0  0  0  0
    6.8313    3.0886   20.5710 C   0  0  0  0  0  0  0  0  0  0  0  0
    7.4946    2.0809   19.8406 C   0  0  0  0  0  0  0  0  0  0  0  0
    8.0837    2.3567   18.5930 C   0  0  0  0  0  0  0  0  0  0  0  0
    8.0460    3.6652   18.0545 C   0  0  0  0  0  0  0  0  0  0  0  0
    7.4003    4.6634   18.7930 C   0  0  0  0  0  0  0  0  0  0  0  0
    7.3393    5.9164   18.3048 F   0  0  0  0  0  0  0  0  0  0  0  0
    8.7382    1.3611   17.8541 N   0  0  0  0  0  0  0  0  0  0  0  0
   10.0473    1.0223   18.0748 C   0  0  0  0  0  0  0  0  0  0  0  0
   10.3831    0.0083   17.1454 C   0  0  0  0  0  0  0  0  0  0  0  0
    9.2594   -0.2224   16.4152 N   0  0  0  0  0  0  0  0  0  0  0  0
    8.2661    0.5919   16.8412 C   0  0  0  0  0  0  0  0  0  0  0  0
    6.8683    0.6211   16.2382 C   0  0  0  0  0  0  0  0  0  0  0  0
    6.7888    1.4194   14.9941 N   0  0  0  0  0  0  0  0  0  0  0  0
    6.2404    0.6242   13.8822 C   0  0  0  0  0  0  0  0  0  0  0  0
    5.9528    2.6051   15.2310 C   0  0  0  0  0  0  0  0  0  0  0  0
    6.1047    8.5623   22.1209 N   0  0  0  0  0  0  0  0  0  0  0  0
    6.9496    8.6192   21.5524 H   0  0  0  0  0  0  0  0  0  0  0  0
    6.4096    9.3971   23.4653 S   0  0  0  0  0  0  0  0  0  0  0  0
    7.2673   10.4044   22.9380 O   0  0  0  0  0  0  0  0  0  0  0  0
    5.1854    9.6394   24.1356 O   0  0  0  0  0  0  0  0  0  0  0  0
    7.3831    8.4171   24.5233 C   0  0  0  0  0  0  0  0  0  0  0  0
    8.3862    9.1006   25.1126 C   0  0  0  0  0  0  0  0  0  0  0  0
   13.5758    7.2757   26.0723 Cl  0  0  0  0  0  0  0  0  0  0  0  0
   11.8848    7.6780   26.0814 C   0  0  0  0  0  0  0  0  0  0  0  0
   10.9623    7.1824   27.0720 C   0  0  0  0  0  0  0  0  0  0  0  0
    9.6482    7.6776   26.7792 C   0  0  0  0  0  0  0  0  0  0  0  0
   11.1817    8.6661   24.8875 S   0  0  0  0  0  0  0  0  0  0  0  0
    9.6257    8.5026   25.6032 C   0  0  0  0  0  0  0  0  0  0  0  0
 30 31  1  0  0  0
 31 32  2  0  0  0
 31 34  1  0  0  0
 32 33  1  0  0  0
 33 35  2  0  0  0
 34 35  1  0  0  0
 35 29  1  0  0  0
 29 28  1  0  0  0
 28 25  1  0  0  0
 25 26  2  0  0  0
 25 27  2  0  0  0
 25 23  1  0  0  0
 23  1  1  0  0  0
  1  2  1  0  0  0
  1  4  1  0  0  0
  2  3  1  0  0  0
  3  6  1  0  0  0
  4  5  2  0  0  0
  4  6  1  0  0  0
  6  7  1  0  0  0
  7  8  1  0  0  0
  7 12  2  0  0  0
  8  9  2  0  0  0
  9 10  1  0  0  0
 10 11  2  0  0  0
 10 14  1  0  0  0
 11 12  1  0  0  0
 12 13  1  0  0  0
 14 15  1  0  0  0
 14 18  1  0  0  0
 15 16  2  0  0  0
 16 17  1  0  0  0
 17 18  2  0  0  0
 18 19  1  0  0  0
 19 20  1  0  0  0
 20 21  1  0  0  0
 20 22  1  0  0  0
 23 24  1  0  0  0
M  END
> <minimizedAffinity>
-8.51431

$$$$
2VH0_GSI_A_1247


 35 38  0  0  0  0  0  0  0  0999 V2000
    6.6767    7.1317   21.3852 C   0  0  0  0  0  0  0  0  0  0  0  0
    8.0878    7.3710   20.8461 C   0  0  0  0  0  0  0  0  0  0  0  0
    8.0648    6.5582   19.5478 C   0  0  0  0  0  0  0  0  0  0  0  0
    6.2532    5.8056   20.7788 C   0  0  0  0  0  0  0  0  0  0  0  0
    5.3540    5.0786   21.1828 O   0  0  0  0  0  0  0  0  0  0  0  0
    7.0349    5.5456   19.7253 N   0  0  0  0  0  0  0  0  0  0  0  0
    6.8842    4.4673   18.8987 C   0  0  0  0  0  0  0  0  0  0  0  0
    6.3623    4.6629   17.5937 C   0  0  0  0  0  0  0  0  0  0  0  0
    6.2120    3.5360   16.7593 C   0  0  0  0  0  0  0  0  0  0  0  0
    6.5877    2.2528   17.1973 C   0  0  0  0  0  0  0  0  0  0  0  0
    7.1021    2.0613   18.5021 C   0  0  0  0  0  0  0  0  0  0  0  0
    7.2328    3.1820   19.3300 C   0  0  0  0  0  0  0  0  0  0  0  0
    7.7269    3.0352   20.5735 F   0  0  0  0  0  0  0  0  0  0  0  0
    6.4508    1.1266   16.3736 N   0  0  0  0  0  0  0  0  0  0  0  0
    5.2308    0.5838   16.0669 C   0  0  0  0  0  0  0  0  0  0  0  0
    5.4656   -0.5425   15.2416 C   0  0  0  0  0  0  0  0  0  0  0  0
    6.8139   -0.6199   15.0824 N   0  0  0  0  0  0  0  0  0  0  0  0
    7.4099    0.3859   15.7637 C   0  0  0  0  0  0  0  0  0  0  0  0
    8.9161    0.6001   15.8257 C   0  0  0  0  0  0  0  0  0  0  0  0
    9.5867   -0.2723   16.8158 N   0  0  0  0  0  0  0  0  0  0  0  0
   10.3282   -1.3601   16.1552 C   0  0  0  0  0  0  0  0  0  0  0  0
   10.4980    0.5374   17.6374 C   0  0  0  0  0  0  0  0  0  0  0  0
    6.7059    7.0673   22.8254 N   0  0  0  0  0  0  0  0  0  0  0  0
    6.4130    6.1224   23.0743 H   0  0  0  0  0  0  0  0  0  0  0  0
    5.8371    8.0649   23.7459 S   0  0  0  0  0  0  0  0  0  0  0  0
    5.1170    8.7645   22.7357 O   0  0  0  0  0  0  0  0  0  0  0  0
    5.2486    7.3165   24.7948 O   0  0  0  0  0  0  0  0  0  0  0  0
    6.9088    9.2196   24.4846 C   0  0  0  0  0  0  0  0  0  0  0  0
    7.6575    8.6953   25.4771 C   0  0  0  0  0  0  0  0  0  0  0  0
   13.0434    7.4218   26.2213 Cl  0  0  0  0  0  0  0  0  0  0  0  0
   11.4801    7.9535   25.6784 C   0  0  0  0  0  0  0  0  0  0  0  0
   11.2814    8.7076   24.4661 C   0  0  0  0  0  0  0  0  0  0  0  0
    9.8862    9.0091   24.3240 C   0  0  0  0  0  0  0  0  0  0  0  0
   10.0608    7.6514   26.5675 S   0  0  0  0  0  0  0  0  0  0  0  0
    9.1028    8.4910   25.4111 C   0  0  0  0  0  0  0  0  0  0  0  0
 30 31  1  0  0  0
 31 32  2  0  0  0
 31 34  1  0  0  0
 32 33  1  0  0  0
 33 35  2  0  0  0
 34 35  1  0  0  0
 35 29  1  0  0  0
 29 28  1  0  0  0
 28 25  1  0  0  0
 25 26  2  0  0  0
 25 27  2  0  0  0
 25 23  1  0  0  0
 23  1  1  0  0  0
  1  2  1  0  0  0
  1  4  1  0  0  0
  2  3  1  0  0  0
  3  6  1  0  0  0
  4  5  2  0  0  0
  4  6  1  0  0  0
  6  7  1  0  0  0
  7  8  1  0  0  0
  7 12  2  0  0  0
  8  9  2  0  0  0
  9 10  1  0  0  0
 10 11  2  0  0  0
 10 14  1  0  0  0
 11 12  1  0  0  0
 12 13  1  0  0  0
 14 15  1  0  0  0
 14 18  1  0  0  0
 15 16  2  0  0  0
 16 17  1  0  0  0
 17 18  2  0  0  0
 18 19  1  0  0  0
 19 20  1  0  0  0
 20 21  1  0  0  0
 20 22  1  0  0  0
 23 24  1  0  0  0
M  END
> <minimizedAffinity>
-7.75491

$$$$
2VH0_GSI_A_1247


 35 38  0  0  0  0  0  0  0  0999 V2000
    5.3493    4.1889   17.7277 C   0  0  0  0  0  0  0  0  0  0  0  0
    5.7862    3.4302   18.9816 C   0  0  0  0  0  0  0  0  0  0  0  0
    5.9658    4.5720   19.9871 C   0  0  0  0  0  0  0  0  0  0  0  0
    5.9190    5.5852   17.9050 C   0  0  0  0  0  0  0  0  0  0  0  0
    6.0965    6.4130   17.0198 O   0  0  0  0  0  0  0  0  0  0  0  0
    6.2124    5.7688   19.1968 N   0  0  0  0  0  0  0  0  0  0  0  0
    6.6758    6.9414   19.7249 C   0  0  0  0  0  0  0  0  0  0  0  0
    8.0714    7.1979   19.7227 C   0  0  0  0  0  0  0  0  0  0  0  0
    8.5275    8.4123   20.2759 C   0  0  0  0  0  0  0  0  0  0  0  0
    7.6249    9.3567   20.7983 C   0  0  0  0  0  0  0  0  0  0  0  0
    6.2340    9.0940   20.8040 C   0  0  0  0  0  0  0  0  0  0  0  0
    5.7904    7.8796   20.2684 C   0  0  0  0  0  0  0  0  0  0  0  0
    4.4731    7.6030   20.2508 F   0  0  0  0  0  0  0  0  0  0  0  0
    8.0662   10.5709   21.3429 N   0  0  0  0  0  0  0  0  0  0  0  0
    7.6765   11.7857   20.8434 C   0  0  0  0  0  0  0  0  0  0  0  0
    8.3224   12.7845   21.6115 C   0  0  0  0  0  0  0  0  0  0  0  0
    9.0629   12.1256   22.5425 N   0  0  0  0  0  0  0  0  0  0  0  0
    8.9095   10.7906   22.3827 C   0  0  0  0  0  0  0  0  0  0  0  0
    9.6063    9.7426   23.2396 C   0  0  0  0  0  0  0  0  0  0  0  0
    9.0733    9.6718   24.6188 N   0  0  0  0  0  0  0  0  0  0  0  0
    7.7417    9.0429   24.6462 C   0  0  0  0  0  0  0  0  0  0  0  0
   10.0096    8.9152   25.4625 C   0  0  0  0  0  0  0  0  0  0  0  0
    5.8852    3.5463   16.5534 N   0  0  0  0  0  0  0  0  0  0  0  0
    6.0469    4.2876   15.8717 H   0  0  0  0  0  0  0  0  0  0  0  0
    5.0877    2.3833   15.7732 S   0  0  0  0  0  0  0  0  0  0  0  0
    3.8226    2.4783   16.4204 O   0  0  0  0  0  0  0  0  0  0  0  0
    5.3042    2.5403   14.3821 O   0  0  0  0  0  0  0  0  0  0  0  0
    5.7632    0.8440   16.2223 C   0  0  0  0  0  0  0  0  0  0  0  0
    6.9899    0.6268   15.7039 C   0  0  0  0  0  0  0  0  0  0  0  0
   11.9562   -0.6079   17.9387 Cl  0  0  0  0  0  0  0  0  0  0  0  0
   10.3883    0.0100   17.5131 C   0  0  0  0  0  0  0  0  0  0  0  0
    9.6694    0.9608   18.3237 C   0  0  0  0  0  0  0  0  0  0  0  0
    8.4046    1.2414   17.7080 C   0  0  0  0  0  0  0  0  0  0  0  0
    9.5637   -0.4967   16.1133 S   0  0  0  0  0  0  0  0  0  0  0  0
    8.2162    0.5048   16.4890 C   0  0  0  0  0  0  0  0  0  0  0  0
 30 31  1  0  0  0
 31 32  2  0  0  0
 31 34  1  0  0  0
 32 33  1  0  0  0
 33 35  2  0  0  0
 34 35  1  0  0  0
 35 29  1  0  0  0
 29 28  1  0  0  0
 28 25  1  0  0  0
 25 26  2  0  0  0
 25 27  2  0  0  0
 25 23  1  0  0  0
 23  1  1  0  0  0
  1  2  1  0  0  0
  1  4  1  0  0  0
  2  3  1  0  0  0
  3  6  1  0  0  0
  4  5  2  0  0  0
  4  6  1  0  0  0
  6  7  1  0  0  0
  7  8  1  0  0  0
  7 12  2  0  0  0
  8  9  2  0  0  0
  9 10  1  0  0  0
 10 11  2  0  0  0
 10 14  1  0  0  0
 11 12  1  0  0  0
 12 13  1  0  0  0
 14 15  1  0  0  0
 14 18  1  0  0  0
 15 16  2  0  0  0
 16 17  1  0  0  0
 17 18  2  0  0  0
 18 19  1  0  0  0
 19 20  1  0  0  0
 20 21  1  0  0  0
 20 22  1  0  0  0
 23 24  1  0  0  0
M  END
> <minimizedAffinity>
-7.29688

$$$$
2VH0_GSI_A_1247


 35 38  0  0  0  0  0  0  0  0999 V2000
    6.5530    7.6697   21.4682 C   0  0  0  0  0  0  0  0  0  0  0  0
    8.0276    7.9653   21.1906 C   0  0  0  0  0  0  0  0  0  0  0  0
    8.2976    7.0752   19.9733 C   0  0  0  0  0  0  0  0  0  0  0  0
    6.3228    6.2848   20.8896 C   0  0  0  0  0  0  0  0  0  0  0  0
    5.4008    5.5278   21.1671 O   0  0  0  0  0  0  0  0  0  0  0  0
    7.3057    6.0116   20.0248 N   0  0  0  0  0  0  0  0  0  0  0  0
    7.3730    4.8776   19.2644 C   0  0  0  0  0  0  0  0  0  0  0  0
    7.9402    3.7027   19.8222 C   0  0  0  0  0  0  0  0  0  0  0  0
    8.0027    2.5455   19.0187 C   0  0  0  0  0  0  0  0  0  0  0  0
    7.4982    2.5453   17.7052 C   0  0  0  0  0  0  0  0  0  0  0  0
    6.9387    3.7214   17.1507 C   0  0  0  0  0  0  0  0  0  0  0  0
    6.8953    4.8702   17.9486 C   0  0  0  0  0  0  0  0  0  0  0  0
    6.3617    6.0028   17.4540 F   0  0  0  0  0  0  0  0  0  0  0  0
    7.5472    1.3985   16.9001 N   0  0  0  0  0  0  0  0  0  0  0  0
    8.6631    0.6085   16.8126 C   0  0  0  0  0  0  0  0  0  0  0  0
    8.3698   -0.4369   15.9039 C   0  0  0  0  0  0  0  0  0  0  0  0
    7.0892   -0.2332   15.4940 N   0  0  0  0  0  0  0  0  0  0  0  0
    6.5911    0.8728   16.0938 C   0  0  0  0  0  0  0  0  0  0  0  0
    5.1881    1.4144   15.8562 C   0  0  0  0  0  0  0  0  0  0  0  0
    4.1579    0.7391   16.6771 N   0  0  0  0  0  0  0  0  0  0  0  0
    3.9982    1.3989   17.9843 C   0  0  0  0  0  0  0  0  0  0  0  0
    2.8808    0.7388   15.9491 C   0  0  0  0  0  0  0  0  0  0  0  0
    6.3063    7.6949   22.8887 N   0  0  0  0  0  0  0  0  0  0  0  0
    5.3571    7.3449   23.0192 H   0  0  0  0  0  0  0  0  0  0  0  0
    6.4085    9.0516   23.7525 S   0  0  0  0  0  0  0  0  0  0  0  0
    6.1315   10.0099   22.7360 O   0  0  0  0  0  0  0  0  0  0  0  0
    5.6586    8.8882   24.9432 O   0  0  0  0  0  0  0  0  0  0  0  0
    8.0661    9.2903   24.2245 C   0  0  0  0  0  0  0  0  0  0  0  0
    8.3480    8.8040   25.4512 C   0  0  0  0  0  0  0  0  0  0  0  0
   13.6928    7.3343   26.1265 Cl  0  0  0  0  0  0  0  0  0  0  0  0
   11.9755    7.5906   26.2072 C   0  0  0  0  0  0  0  0  0  0  0  0
   11.1232    6.9236   27.1593 C   0  0  0  0  0  0  0  0  0  0  0  0
    9.7658    7.3336   26.9422 C   0  0  0  0  0  0  0  0  0  0  0  0
   11.1627    8.6298   25.1322 S   0  0  0  0  0  0  0  0  0  0  0  0
    9.6448    8.2663   25.8561 C   0  0  0  0  0  0  0  0  0  0  0  0
 30 31  1  0  0  0
 31 32  2  0  0  0
 31 34  1  0  0  0
 32 33  1  0  0  0
 33 35  2  0  0  0
 34 35  1  0  0  0
 35 29  1  0  0  0
 29 28  1  0  0  0
 28 25  1  0  0  0
 25 26  2  0  0  0
 25 27  2  0  0  0
 25 23  1  0  0  0
 23  1  1  0  0  0
  1  2  1  0  0  0
  1  4  1  0  0  0
  2  3  1  0  0  0
  3  6  1  0  0  0
  4  5  2  0  0  0
  4  6  1  0  0  0
  6  7  1  0  0  0
  7  8  1  0  0  0
  7 12  2  0  0  0
  8  9  2  0  0  0
  9 10  1  0  0  0
 10 11  2  0  0  0
 10 14  1  0  0  0
 11 12  1  0  0  0
 12 13  1  0  0  0
 14 15  1  0  0  0
 14 18  1  0  0  0
 15 16  2  0  0  0
 16 17  1  0  0  0
 17 18  2  0  0  0
 18 19  1  0  0  0
 19 20  1  0  0  0
 20 21  1  0  0  0
 20 22  1  0  0  0
 23 24  1  0  0  0
M  END
> <minimizedAffinity>
-7.13595

$$$$
2VH0_GSI_A_1247


 35 38  0  0  0  0  0  0  0  0999 V2000
    3.3874    3.2328   20.6190 C   0  0  0  0  0  0  0  0  0  0  0  0
    3.6773    2.9069   22.0848 C   0  0  0  0  0  0  0  0  0  0  0  0
    4.0812    4.2793   22.6327 C   0  0  0  0  0  0  0  0  0  0  0  0
    4.2178    4.4704   20.3287 C   0  0  0  0  0  0  0  0  0  0  0  0
    4.5463    4.8791   19.2217 O   0  0  0  0  0  0  0  0  0  0  0  0
    4.5495    5.0472   21.4887 N   0  0  0  0  0  0  0  0  0  0  0  0
    5.2346    6.2251   21.5981 C   0  0  0  0  0  0  0  0  0  0  0  0
    4.5500    7.3853   22.0436 C   0  0  0  0  0  0  0  0  0  0  0  0
    5.2754    8.5904   22.1455 C   0  0  0  0  0  0  0  0  0  0  0  0
    6.6467    8.6410   21.8346 C   0  0  0  0  0  0  0  0  0  0  0  0
    7.3243    7.4825   21.3846 C   0  0  0  0  0  0  0  0  0  0  0  0
    6.5937    6.2943   21.2704 C   0  0  0  0  0  0  0  0  0  0  0  0
    7.2106    5.1728   20.8535 F   0  0  0  0  0  0  0  0  0  0  0  0
    7.3800    9.8313   21.9402 N   0  0  0  0  0  0  0  0  0  0  0  0
    7.4208   10.7615   20.9352 C   0  0  0  0  0  0  0  0  0  0  0  0
    8.2631   11.8139   21.3684 C   0  0  0  0  0  0  0  0  0  0  0  0
    8.6826   11.4731   22.6163 N   0  0  0  0  0  0  0  0  0  0  0  0
    8.1508   10.2781   22.9633 C   0  0  0  0  0  0  0  0  0  0  0  0
    8.4187    9.5767   24.2879 C   0  0  0  0  0  0  0  0  0  0  0  0
    9.5315    8.6032   24.2151 N   0  0  0  0  0  0  0  0  0  0  0  0
   10.7561    9.2288   23.6876 C   0  0  0  0  0  0  0  0  0  0  0  0
    9.7803    8.0497   25.5541 C   0  0  0  0  0  0  0  0  0  0  0  0
    3.7811    2.1259   19.7829 N   0  0  0  0  0  0  0  0  0  0  0  0
    4.7866    2.2204   19.6399 H   0  0  0  0  0  0  0  0  0  0  0  0
    3.1400    1.8828   18.3244 S   0  0  0  0  0  0  0  0  0  0  0  0
    2.9919    0.4666   18.3558 O   0  0  0  0  0  0  0  0  0  0  0  0
    2.0841    2.8077   18.1337 O   0  0  0  0  0  0  0  0  0  0  0  0
    4.3451    2.2315   17.1188 C   0  0  0  0  0  0  0  0  0  0  0  0
    5.2139    1.2179   16.9225 C   0  0  0  0  0  0  0  0  0  0  0  0
   10.6980    0.6303   17.7958 Cl  0  0  0  0  0  0  0  0  0  0  0  0
    8.9946    0.9734   17.8438 C   0  0  0  0  0  0  0  0  0  0  0  0
    8.3394    1.5522   18.9899 C   0  0  0  0  0  0  0  0  0  0  0  0
    6.9374    1.6795   18.7146 C   0  0  0  0  0  0  0  0  0  0  0  0
    7.9603    0.6123   16.5415 S   0  0  0  0  0  0  0  0  0  0  0  0
    6.5926    1.1973   17.4060 C   0  0  0  0  0  0  0  0  0  0  0  0
 30 31  1  0  0  0
 31 32  2  0  0  0
 31 34  1  0  0  0
 32 33  1  0  0  0
 33 35  2  0  0  0
 34 35  1  0  0  0
 35 29  1  0  0  0
 29 28  1  0  0  0
 28 25  1  0  0  0
 25 26  2  0  0  0
 25 27  2  0  0  0
 25 23  1  0  0  0
 23  1  1  0  0  0
  1  2  1  0  0  0
  1  4  1  0  0  0
  2  3  1  0  0  0
  3  6  1  0  0  0
  4  5  2  0  0  0
  4  6  1  0  0  0
  6  7  1  0  0  0
  7  8  1  0  0  0
  7 12  2  0  0  0
  8  9  2  0  0  0
  9 10  1  0  0  0
 10 11  2  0  0  0
 10 14  1  0  0  0
 11 12  1  0  0  0
 12 13  1  0  0  0
 14 15  1  0  0  0
 14 18  1  0  0  0
 15 16  2  0  0  0
 16 17  1  0  0  0
 17 18  2  0  0  0
 18 19  1  0  0  0
 19 20  1  0  0  0
 20 21  1  0  0  0
 20 22  1  0  0  0
 23 24  1  0  0  0
M  END
> <minimizedAffinity>
-6.84338

$$$$
2VH0_GSI_A_1247


 35 38  0  0  0  0  0  0  0  0999 V2000
    6.1680    9.9580   22.1237 C   0  0  0  0  0  0  0  0  0  0  0  0
    7.3011   10.9850   22.1096 C   0  0  0  0  0  0  0  0  0  0  0  0
    7.0893   11.6606   20.7511 C   0  0  0  0  0  0  0  0  0  0  0  0
    5.8706    9.6935   20.6584 C   0  0  0  0  0  0  0  0  0  0  0  0
    5.2803    8.7216   20.2030 O   0  0  0  0  0  0  0  0  0  0  0  0
    6.3717   10.6970   19.9302 N   0  0  0  0  0  0  0  0  0  0  0  0
    6.2214   10.8199   18.5770 C   0  0  0  0  0  0  0  0  0  0  0  0
    5.0314   11.3964   18.0622 C   0  0  0  0  0  0  0  0  0  0  0  0
    4.8961   11.5100   16.6631 C   0  0  0  0  0  0  0  0  0  0  0  0
    5.9200   11.0836   15.7974 C   0  0  0  0  0  0  0  0  0  0  0  0
    7.1029   10.5035   16.3151 C   0  0  0  0  0  0  0  0  0  0  0  0
    7.2227   10.3790   17.7039 C   0  0  0  0  0  0  0  0  0  0  0  0
    8.3388    9.8396   18.2286 F   0  0  0  0  0  0  0  0  0  0  0  0
    5.8002   11.1995   14.4054 N   0  0  0  0  0  0  0  0  0  0  0  0
    5.6212   12.4055   13.7805 C   0  0  0  0  0  0  0  0  0  0  0  0
    5.5196   12.1501   12.3915 C   0  0  0  0  0  0  0  0  0  0  0  0
    5.6511   10.8046   12.2440 N   0  0  0  0  0  0  0  0  0  0  0  0
    5.8209   10.2294   13.4571 C   0  0  0  0  0  0  0  0  0  0  0  0
    5.9831    8.7315   13.6765 C   0  0  0  0  0  0  0  0  0  0  0  0
    4.8688    8.1329   14.4454 N   0  0  0  0  0  0  0  0  0  0  0  0
    3.5763    8.3545   13.7747 C   0  0  0  0  0  0  0  0  0  0  0  0
    5.1134    6.6932   14.6132 C   0  0  0  0  0  0  0  0  0  0  0  0
    6.6003    8.7593   22.7985 N   0  0  0  0  0  0  0  0  0  0  0  0
    6.3649    7.9834   22.1797 H   0  0  0  0  0  0  0  0  0  0  0  0
    6.0528    8.3526   24.2587 S   0  0  0  0  0  0  0  0  0  0  0  0
    4.9835    9.2847   24.3869 O   0  0  0  0  0  0  0  0  0  0  0  0
    5.9157    6.9438   24.3149 O   0  0  0  0  0  0  0  0  0  0  0  0
    7.2451    8.7951   25.4461 C   0  0  0  0  0  0  0  0  0  0  0  0
    8.4746    8.9854   24.9239 C   0  0  0  0  0  0  0  0  0  0  0  0
   13.6690    7.3316   26.1348 Cl  0  0  0  0  0  0  0  0  0  0  0  0
   11.9690    7.6877   26.0675 C   0  0  0  0  0  0  0  0  0  0  0  0
   11.0220    7.1959   27.0366 C   0  0  0  0  0  0  0  0  0  0  0  0
    9.7078    7.6463   26.6793 C   0  0  0  0  0  0  0  0  0  0  0  0
   11.2872    8.6213   24.8186 S   0  0  0  0  0  0  0  0  0  0  0  0
    9.7094    8.4360   25.4791 C   0  0  0  0  0  0  0  0  0  0  0  0
 30 31  1  0  0  0
 31 32  2  0  0  0
 31 34  1  0  0  0
 32 33  1  0  0  0
 33 35  2  0  0  0
 34 35  1  0  0  0
 35 29  1  0  0  0
 29 28  1  0  0  0
 28 25  1  0  0  0
 25 26  2  0  0  0
 25 27  2  0  0  0
 25 23  1  0  0  0
 23  1  1  0  0  0
  1  2  1  0  0  0
  1  4  1  0  0  0
  2  3  1  0  0  0
  3  6  1  0  0  0
  4  5  2  0  0  0
  4  6  1  0  0  0
  6  7  1  0  0  0
  7  8  1  0  0  0
  7 12  2  0  0  0
  8  9  2  0  0  0
  9 10  1  0  0  0
 10 11  2  0  0  0
 10 14  1  0  0  0
 11 12  1  0  0  0
 12 13  1  0  0  0
 14 15  1  0  0  0
 14 18  1  0  0  0
 15 16  2  0  0  0
 16 17  1  0  0  0
 17 18  2  0  0  0
 18 19  1  0  0  0
 19 20  1  0  0  0
 20 21  1  0  0  0
 20 22  1  0  0  0
 23 24  1  0  0  0
M  END
> <minimizedAffinity>
-6.81161

$$$$
2VH0_GSI_A_1247


 35 38  0  0  0  0  0  0  0  0999 V2000
    6.5159    3.5674   18.0674 C   0  0  0  0  0  0  0  0  0  0  0  0
    7.4438    2.9016   19.0846 C   0  0  0  0  0  0  0  0  0  0  0  0
    7.5885    4.0035   20.1390 C   0  0  0  0  0  0  0  0  0  0  0  0
    6.7418    5.0568   18.2581 C   0  0  0  0  0  0  0  0  0  0  0  0
    6.4658    5.9400   17.4556 O   0  0  0  0  0  0  0  0  0  0  0  0
    7.3088    5.2559   19.4528 N   0  0  0  0  0  0  0  0  0  0  0  0
    7.5843    6.4859   19.9821 C   0  0  0  0  0  0  0  0  0  0  0  0
    8.7275    7.1941   19.5292 C   0  0  0  0  0  0  0  0  0  0  0  0
    8.9945    8.4595   20.0914 C   0  0  0  0  0  0  0  0  0  0  0  0
    8.1415    9.0181   21.0608 C   0  0  0  0  0  0  0  0  0  0  0  0
    7.0055    8.3055   21.5142 C   0  0  0  0  0  0  0  0  0  0  0  0
    6.7564    7.0433   20.9635 C   0  0  0  0  0  0  0  0  0  0  0  0
    5.6795    6.3434   21.3668 F   0  0  0  0  0  0  0  0  0  0  0  0
    8.3922   10.2789   21.6206 N   0  0  0  0  0  0  0  0  0  0  0  0
    7.8139   11.4246   21.1410 C   0  0  0  0  0  0  0  0  0  0  0  0
    8.3021   12.5015   21.9198 C   0  0  0  0  0  0  0  0  0  0  0  0
    9.1437   11.9538   22.8369 N   0  0  0  0  0  0  0  0  0  0  0  0
    9.1991   10.6135   22.6586 C   0  0  0  0  0  0  0  0  0  0  0  0
   10.0576    9.6756   23.4961 C   0  0  0  0  0  0  0  0  0  0  0  0
    9.5475    9.4959   24.8740 N   0  0  0  0  0  0  0  0  0  0  0  0
    8.5044    8.4574   24.9272 C   0  0  0  0  0  0  0  0  0  0  0  0
   10.6636    9.1404   25.7622 C   0  0  0  0  0  0  0  0  0  0  0  0
    6.8677    3.1476   16.7336 N   0  0  0  0  0  0  0  0  0  0  0  0
    7.1758    3.9869   16.2427 H   0  0  0  0  0  0  0  0  0  0  0  0
    5.8126    2.4174   15.7584 S   0  0  0  0  0  0  0  0  0  0  0  0
    6.7125    1.7097   14.9112 O   0  0  0  0  0  0  0  0  0  0  0  0
    4.8010    1.8210   16.5507 O   0  0  0  0  0  0  0  0  0  0  0  0
    5.0395    3.6220   14.7691 C   0  0  0  0  0  0  0  0  0  0  0  0
    5.9092    4.4700   14.1817 C   0  0  0  0  0  0  0  0  0  0  0  0
    3.6489    8.9016   11.6450 Cl  0  0  0  0  0  0  0  0  0  0  0  0
    4.6074    7.7538   12.5311 C   0  0  0  0  0  0  0  0  0  0  0  0
    5.8889    8.0756   13.1073 C   0  0  0  0  0  0  0  0  0  0  0  0
    6.4248    6.9066   13.7428 C   0  0  0  0  0  0  0  0  0  0  0  0
    4.1140    6.1402   12.7526 S   0  0  0  0  0  0  0  0  0  0  0  0
    5.5533    5.7710   13.6199 C   0  0  0  0  0  0  0  0  0  0  0  0
 30 31  1  0  0  0
 31 32  2  0  0  0
 31 34  1  0  0  0
 32 33  1  0  0  0
 33 35  2  0  0  0
 34 35  1  0  0  0
 35 29  1  0  0  0
 29 28  1  0  0  0
 28 25  1  0  0  0
 25 26  2  0  0  0
 25 27  2  0  0  0
 25 23  1  0  0  0
 23  1  1  0  0  0
  1  2  1  0  0  0
  1  4  1  0  0  0
  2  3  1  0  0  0
  3  6  1  0  0  0
  4  5  2  0  0  0
  4  6  1  0  0  0
  6  7  1  0  0  0
  7  8  1  0  0  0
  7 12  2  0  0  0
  8  9  2  0  0  0
  9 10  1  0  0  0
 10 11  2  0  0  0
 10 14  1  0  0  0
 11 12  1  0  0  0
 12 13  1  0  0  0
 14 15  1  0  0  0
 14 18  1  0  0  0
 15 16  2  0  0  0
 16 17  1  0  0  0
 17 18  2  0  0  0
 18 19  1  0  0  0
 19 20  1  0  0  0
 20 21  1  0  0  0
 20 22  1  0  0  0
 23 24  1  0  0  0
M  END
> <minimizedAffinity>
-6.64079

$$$$
2VH0_GSI_A_1247


 35 38  0  0  0  0  0  0  0  0999 V2000
    4.8429    3.0935   17.8344 C   0  0  0  0  0  0  0  0  0  0  0  0
    5.5126    2.0720   18.7547 C   0  0  0  0  0  0  0  0  0  0  0  0
    5.7607    2.9070   20.0149 C   0  0  0  0  0  0  0  0  0  0  0  0
    5.3351    4.4407   18.3326 C   0  0  0  0  0  0  0  0  0  0  0  0
    5.3214    5.4936   17.7067 O   0  0  0  0  0  0  0  0  0  0  0  0
    5.8039    4.2939   19.5764 N   0  0  0  0  0  0  0  0  0  0  0  0
    6.2587    5.3199   20.3569 C   0  0  0  0  0  0  0  0  0  0  0  0
    5.4030    5.8684   21.3471 C   0  0  0  0  0  0  0  0  0  0  0  0
    5.8916    6.9285   22.1384 C   0  0  0  0  0  0  0  0  0  0  0  0
    7.1994    7.4187   21.9683 C   0  0  0  0  0  0  0  0  0  0  0  0
    8.0476    6.8726   20.9753 C   0  0  0  0  0  0  0  0  0  0  0  0
    7.5498    5.8320   20.1829 C   0  0  0  0  0  0  0  0  0  0  0  0
    8.3340    5.2850   19.2354 F   0  0  0  0  0  0  0  0  0  0  0  0
    7.6988    8.4664   22.7548 N   0  0  0  0  0  0  0  0  0  0  0  0
    8.4241    8.2477   23.8964 C   0  0  0  0  0  0  0  0  0  0  0  0
    8.7442    9.5145   24.4420 C   0  0  0  0  0  0  0  0  0  0  0  0
    8.2053   10.4360   23.5996 N   0  0  0  0  0  0  0  0  0  0  0  0
    7.5748    9.8062   22.5812 C   0  0  0  0  0  0  0  0  0  0  0  0
    6.8405   10.5243   21.4572 C   0  0  0  0  0  0  0  0  0  0  0  0
    7.7520   11.1969   20.5044 N   0  0  0  0  0  0  0  0  0  0  0  0
    7.4657   10.7962   19.1163 C   0  0  0  0  0  0  0  0  0  0  0  0
    7.6177   12.6535   20.6504 C   0  0  0  0  0  0  0  0  0  0  0  0
    5.2412    2.8590   16.4686 N   0  0  0  0  0  0  0  0  0  0  0  0
    4.9541    3.6843   15.9424 H   0  0  0  0  0  0  0  0  0  0  0  0
    4.7188    1.5860   15.6297 S   0  0  0  0  0  0  0  0  0  0  0  0
    3.6069    1.2035   16.4334 O   0  0  0  0  0  0  0  0  0  0  0  0
    4.6490    1.9433   14.2606 O   0  0  0  0  0  0  0  0  0  0  0  0
    5.8929    0.3088   15.7625 C   0  0  0  0  0  0  0  0  0  0  0  0
    7.1310    0.6783   15.3738 C   0  0  0  0  0  0  0  0  0  0  0  0
   11.8976   -0.5951   17.9895 Cl  0  0  0  0  0  0  0  0  0  0  0  0
   10.4163    0.0881   17.3890 C   0  0  0  0  0  0  0  0  0  0  0  0
    9.8045    1.2641   17.9553 C   0  0  0  0  0  0  0  0  0  0  0  0
    8.5871    1.5455   17.2507 C   0  0  0  0  0  0  0  0  0  0  0  0
    9.5528   -0.6110   16.0999 S   0  0  0  0  0  0  0  0  0  0  0  0
    8.3268    0.5911   16.2089 C   0  0  0  0  0  0  0  0  0  0  0  0
 30 31  1  0  0  0
 31 32  2  0  0  0
 31 34  1  0  0  0
 32 33  1  0  0  0
 33 35  2  0  0  0
 34 35  1  0  0  0
 35 29  1  0  0  0
 29 28  1  0  0  0
 28 25  1  0  0  0
 25 26  2  0  0  0
 25 27  2  0  0  0
 25 23  1  0  0  0
 23  1  1  0  0  0
  1  2  1  0  0  0
  1  4  1  0  0  0
  2  3  1  0  0  0
  3  6  1  0  0  0
  4  5  2  0  0  0
  4  6  1  0  0  0
  6  7  1  0  0  0
  7  8  1  0  0  0
  7 12  2  0  0  0
  8  9  2  0  0  0
  9 10  1  0  0  0
 10 11  2  0  0  0
 10 14  1  0  0  0
 11 12  1  0  0  0
 12 13  1  0  0  0
 14 15  1  0  0  0
 14 18  1  0  0  0
 15 16  2  0  0  0
 16 17  1  0  0  0
 17 18  2  0  0  0
 18 19  1  0  0  0
 19 20  1  0  0  0
 20 21  1  0  0  0
 20 22  1  0  0  0
 23 24  1  0  0  0
M  END
> <minimizedAffinity>
-6.62843

$$$$
2VH0_GSI_A_1247


 35 38  0  0  0  0  0  0  0  0999 V2000
    5.2116    3.9387   16.6467 C   0  0  0  0  0  0  0  0  0  0  0  0
    5.2500    2.9624   17.8232 C   0  0  0  0  0  0  0  0  0  0  0  0
    5.2753    3.9197   19.0189 C   0  0  0  0  0  0  0  0  0  0  0  0
    5.8433    5.2114   17.1824 C   0  0  0  0  0  0  0  0  0  0  0  0
    6.3110    6.1249   16.5138 O   0  0  0  0  0  0  0  0  0  0  0  0
    5.8194    5.1734   18.5190 N   0  0  0  0  0  0  0  0  0  0  0  0
    6.2405    6.1911   19.3286 C   0  0  0  0  0  0  0  0  0  0  0  0
    5.2926    7.1327   19.8069 C   0  0  0  0  0  0  0  0  0  0  0  0
    5.7497    8.1764   20.6377 C   0  0  0  0  0  0  0  0  0  0  0  0
    7.1051    8.2737   21.0025 C   0  0  0  0  0  0  0  0  0  0  0  0
    8.0483    7.3358   20.5182 C   0  0  0  0  0  0  0  0  0  0  0  0
    7.5898    6.3125   19.6808 C   0  0  0  0  0  0  0  0  0  0  0  0
    8.4598    5.3994   19.2102 F   0  0  0  0  0  0  0  0  0  0  0  0
    7.5694    9.3020   21.8347 N   0  0  0  0  0  0  0  0  0  0  0  0
    7.9806   10.5142   21.3464 C   0  0  0  0  0  0  0  0  0  0  0  0
    8.4003   11.2938   22.4513 C   0  0  0  0  0  0  0  0  0  0  0  0
    8.2139   10.5190   23.5532 N   0  0  0  0  0  0  0  0  0  0  0  0
    7.7125    9.3176   23.1838 C   0  0  0  0  0  0  0  0  0  0  0  0
    7.3959    8.1893   24.1557 C   0  0  0  0  0  0  0  0  0  0  0  0
    5.9956    8.2112   24.6352 N   0  0  0  0  0  0  0  0  0  0  0  0
    5.3474    9.4993   24.3351 C   0  0  0  0  0  0  0  0  0  0  0  0
    5.2507    7.1098   24.0084 C   0  0  0  0  0  0  0  0  0  0  0  0
    5.9636    3.4028   15.5393 N   0  0  0  0  0  0  0  0  0  0  0  0
    6.1843    4.1945   14.9351 H   0  0  0  0  0  0  0  0  0  0  0  0
    5.3715    2.2536   14.5771 S   0  0  0  0  0  0  0  0  0  0  0  0
    4.2521    1.8380   15.3533 O   0  0  0  0  0  0  0  0  0  0  0  0
    5.3030    2.7597   13.2558 O   0  0  0  0  0  0  0  0  0  0  0  0
    6.4849    0.9167   14.5522 C   0  0  0  0  0  0  0  0  0  0  0  0
    6.6796    0.3604   15.7660 C   0  0  0  0  0  0  0  0  0  0  0  0
   11.8232   -0.2989   17.8375 Cl  0  0  0  0  0  0  0  0  0  0  0  0
   10.1879    0.1483   17.4539 C   0  0  0  0  0  0  0  0  0  0  0  0
    9.4121    1.0614   18.2553 C   0  0  0  0  0  0  0  0  0  0  0  0
    8.1036    1.1936   17.6825 C   0  0  0  0  0  0  0  0  0  0  0  0
    9.3634   -0.4951   16.1113 S   0  0  0  0  0  0  0  0  0  0  0  0
    7.9408    0.3897   16.5030 C   0  0  0  0  0  0  0  0  0  0  0  0
 30 31  1  0  0  0
 31 32  2  0  0  0
 31 34  1  0  0  0
 32 33  1  0  0  0
 33 35  2  0  0  0
 34 35  1  0  0  0
 35 29  1  0  0  0
 29 28  1  0  0  0
 28 25  1  0  0  0
 25 26  2  0  0  0
 25 27  2  0  0  0
 25 23  1  0  0  0
 23  1  1  0  0  0
  1  2  1  0  0  0
  1  4  1  0  0  0
  2  3  1  0  0  0
  3  6  1  0  0  0
  4  5  2  0  0  0
  4  6  1  0  0  0
  6  7  1  0  0  0
  7  8  1  0  0  0
  7 12  2  0  0  0
  8  9  2  0  0  0
  9 10  1  0  0  0
 10 11  2  0  0  0
 10 14  1  0  0  0
 11 12  1  0  0  0
 12 13  1  0  0  0
 14 15  1  0  0  0
 14 18  1  0  0  0
 15 16  2  0  0  0
 16 17  1  0  0  0
 17 18  2  0  0  0
 18 19  1  0  0  0
 19 20  1  0  0  0
 20 21  1  0  0  0
 20 22  1  0  0  0
 23 24  1  0  0  0
M  END
> <minimizedAffinity>
-6.57025

$$$$
2VH0_GSI_A_1247


 35 38  0  0  0  0  0  0  0  0999 V2000
    7.4802    0.2960   15.9021 C   0  0  0  0  0  0  0  0  0  0  0  0
    8.9609    0.6690   15.8161 C   0  0  0  0  0  0  0  0  0  0  0  0
    9.1375    1.5261   17.0735 C   0  0  0  0  0  0  0  0  0  0  0  0
    6.8510    1.4066   16.7245 C   0  0  0  0  0  0  0  0  0  0  0  0
    5.6604    1.6909   16.7671 O   0  0  0  0  0  0  0  0  0  0  0  0
    7.8162    2.0432   17.3966 N   0  0  0  0  0  0  0  0  0  0  0  0
    7.5973    3.0516   18.2933 C   0  0  0  0  0  0  0  0  0  0  0  0
    7.4352    4.3784   17.8171 C   0  0  0  0  0  0  0  0  0  0  0  0
    7.2141    5.4034   18.7600 C   0  0  0  0  0  0  0  0  0  0  0  0
    7.1348    5.1198   20.1358 C   0  0  0  0  0  0  0  0  0  0  0  0
    7.3032    3.7956   20.6070 C   0  0  0  0  0  0  0  0  0  0  0  0
    7.5387    2.7864   19.6665 C   0  0  0  0  0  0  0  0  0  0  0  0
    7.6947    1.5153   20.0811 F   0  0  0  0  0  0  0  0  0  0  0  0
    6.9069    6.1293   21.0816 N   0  0  0  0  0  0  0  0  0  0  0  0
    7.8816    7.0136   21.4627 C   0  0  0  0  0  0  0  0  0  0  0  0
    7.3159    7.8706   22.4376 C   0  0  0  0  0  0  0  0  0  0  0  0
    6.0258    7.4688   22.5913 N   0  0  0  0  0  0  0  0  0  0  0  0
    5.7769    6.4193   21.7742 C   0  0  0  0  0  0  0  0  0  0  0  0
    4.4382    5.6984   21.6940 C   0  0  0  0  0  0  0  0  0  0  0  0
    4.1279    4.9123   22.9093 N   0  0  0  0  0  0  0  0  0  0  0  0
    2.8550    5.3411   23.5135 C   0  0  0  0  0  0  0  0  0  0  0  0
    4.0698    3.4850   22.5622 C   0  0  0  0  0  0  0  0  0  0  0  0
    6.9120    0.2338   14.5783 N   0  0  0  0  0  0  0  0  0  0  0  0
    6.3488    1.0773   14.4701 H   0  0  0  0  0  0  0  0  0  0  0  0
    5.9817   -0.9927   14.1015 S   0  0  0  0  0  0  0  0  0  0  0  0
    4.7424   -0.5997   14.6830 O   0  0  0  0  0  0  0  0  0  0  0  0
    6.1981   -1.2149   12.7193 O   0  0  0  0  0  0  0  0  0  0  0  0
    6.4878   -2.4347   14.9334 C   0  0  0  0  0  0  0  0  0  0  0  0
    7.2027   -3.2762   14.1580 C   0  0  0  0  0  0  0  0  0  0  0  0
   12.6901   -3.1297   15.1828 Cl  0  0  0  0  0  0  0  0  0  0  0  0
   11.0780   -3.3683   14.5783 C   0  0  0  0  0  0  0  0  0  0  0  0
   10.7950   -4.0225   13.3253 C   0  0  0  0  0  0  0  0  0  0  0  0
    9.3768   -4.0317   13.1102 C   0  0  0  0  0  0  0  0  0  0  0  0
    9.7048   -2.8075   15.4127 S   0  0  0  0  0  0  0  0  0  0  0  0
    8.6590   -3.3934   14.1786 C   0  0  0  0  0  0  0  0  0  0  0  0
 30 31  1  0  0  0
 31 32  2  0  0  0
 31 34  1  0  0  0
 32 33  1  0  0  0
 33 35  2  0  0  0
 34 35  1  0  0  0
 35 29  1  0  0  0
 29 28  1  0  0  0
 28 25  1  0  0  0
 25 26  2  0  0  0
 25 27  2  0  0  0
 25 23  1  0  0  0
 23  1  1  0  0  0
  1  2  1  0  0  0
  1  4  1  0  0  0
  2  3  1  0  0  0
  3  6  1  0  0  0
  4  5  2  0  0  0
  4  6  1  0  0  0
  6  7  1  0  0  0
  7  8  1  0  0  0
  7 12  2  0  0  0
  8  9  2  0  0  0
  9 10  1  0  0  0
 10 11  2  0  0  0
 10 14  1  0  0  0
 11 12  1  0  0  0
 12 13  1  0  0  0
 14 15  1  0  0  0
 14 18  1  0  0  0
 15 16  2  0  0  0
 16 17  1  0  0  0
 17 18  2  0  0  0
 18 19  1  0  0  0
 19 20  1  0  0  0
 20 21  1  0  0  0
 20 22  1  0  0  0
 23 24  1  0  0  0
M  END
> <minimizedAffinity>
-6.56628

$$$$
