1P1O_QUS_A_301


 17 17  0  0  0  0  0  0  0  0999 V2000
   16.4026    1.4428   16.6855 C   0  0  0  0  0  0  0  0  0  0  0  0
   17.2316    0.2572   14.6031 C   0  0  0  0  0  0  0  0  0  0  0  0
   16.1208    1.5415   13.1275 C   0  0  0  0  0  0  0  0  0  0  0  0
   16.7349    1.3434   15.2622 N   0  0  0  0  0  0  0  0  0  0  0  0
   16.8506    0.4090   13.3119 N   0  0  0  0  0  0  0  0  0  0  0  0
   17.8662   -0.6087   15.1237 O   0  0  0  0  0  0  0  0  0  0  0  0
   15.6125    1.9985   12.1199 O   0  0  0  0  0  0  0  0  0  0  0  0
   16.0127    2.1748   14.3447 O   0  0  0  0  0  0  0  0  0  0  0  0
   17.0752   -0.2250   12.5930 H   0  0  0  0  0  0  0  0  0  0  0  0
   14.8883    1.5993   16.8858 C   0  0  0  0  0  0  0  0  0  0  0  0
   14.2866    2.9421   16.5852 N   0  0  0  0  0  0  0  0  0  0  0  0
   14.6937    3.6433   17.2041 H   0  0  0  0  0  0  0  0  0  0  0  0
   13.2780    2.9033   16.7323 H   0  0  0  0  0  0  0  0  0  0  0  0
   14.6787    1.3707   18.3875 C   0  0  0  0  0  0  0  0  0  0  0  0
   15.3679    0.5159   18.9692 O   0  0  0  0  0  0  0  0  0  0  0  0
   13.8100    2.0713   18.9571 O   0  0  0  0  0  0  0  0  0  0  0  0
   13.3202    2.7013   18.4660 H   0  0  0  0  0  0  0  0  0  0  0  0
 14 10  1  0  0  0
 14 15  2  0  0  0
 14 16  1  0  0  0
 10  1  1  0  0  0
 10 11  1  0  0  0
  1  4  1  0  0  0
  2  4  1  0  0  0
  2  5  1  0  0  0
  2  6  2  0  0  0
  3  5  1  0  0  0
  3  7  2  0  0  0
  3  8  1  0  0  0
  4  8  1  0  0  0
 11 12  1  0  0  0
 11 13  1  0  0  0
  5  9  1  0  0  0
 16 17  1  0  0  0
M  END
> <minimizedAffinity>
-8.19237

$$$$
1P1O_QUS_A_301


 17 17  0  0  0  0  0  0  0  0999 V2000
   15.5947    2.4605   15.6586 C   0  0  0  0  0  0  0  0  0  0  0  0
   17.1469    2.9655   13.7183 C   0  0  0  0  0  0  0  0  0  0  0  0
   17.0085    0.9371   12.7554 C   0  0  0  0  0  0  0  0  0  0  0  0
   16.1279    2.2754   14.3068 N   0  0  0  0  0  0  0  0  0  0  0  0
   17.6555    2.1329   12.7783 N   0  0  0  0  0  0  0  0  0  0  0  0
   17.4660    4.0747   14.0208 O   0  0  0  0  0  0  0  0  0  0  0  0
   17.1878   -0.0449   12.0583 O   0  0  0  0  0  0  0  0  0  0  0  0
   16.0244    0.9730   13.7170 O   0  0  0  0  0  0  0  0  0  0  0  0
   18.4042    2.3659   12.1830 H   0  0  0  0  0  0  0  0  0  0  0  0
   15.9056    1.2441   16.5425 C   0  0  0  0  0  0  0  0  0  0  0  0
   15.6348   -0.1162   15.9663 N   0  0  0  0  0  0  0  0  0  0  0  0
   14.6400   -0.2060   15.7596 H   0  0  0  0  0  0  0  0  0  0  0  0
   15.9080   -0.8314   16.6402 H   0  0  0  0  0  0  0  0  0  0  0  0
   14.9568    1.3913   17.7380 C   0  0  0  0  0  0  0  0  0  0  0  0
   15.1545    0.7024   18.7530 O   0  0  0  0  0  0  0  0  0  0  0  0
   14.0181    2.2137   17.6255 O   0  0  0  0  0  0  0  0  0  0  0  0
   13.9188    2.7060   16.8345 H   0  0  0  0  0  0  0  0  0  0  0  0
 14 10  1  0  0  0
 14 15  2  0  0  0
 14 16  1  0  0  0
 10  1  1  0  0  0
 10 11  1  0  0  0
  1  4  1  0  0  0
  2  4  1  0  0  0
  2  5  1  0  0  0
  2  6  2  0  0  0
  3  5  1  0  0  0
  3  7  2  0  0  0
  3  8  1  0  0  0
  4  8  1  0  0  0
 11 12  1  0  0  0
 11 13  1  0  0  0
  5  9  1  0  0  0
 16 17  1  0  0  0
M  END
> <minimizedAffinity>
-8.11149

$$$$
1P1O_QUS_A_301


 17 17  0  0  0  0  0  0  0  0999 V2000
   15.5846    2.2826   15.3360 C   0  0  0  0  0  0  0  0  0  0  0  0
   16.5722    2.5433   13.0152 C   0  0  0  0  0  0  0  0  0  0  0  0
   18.4973    3.5046   13.6712 C   0  0  0  0  0  0  0  0  0  0  0  0
   16.6770    2.4222   14.3700 N   0  0  0  0  0  0  0  0  0  0  0  0
   17.6920    3.1954   12.6201 N   0  0  0  0  0  0  0  0  0  0  0  0
   15.6530    2.1312   12.3759 O   0  0  0  0  0  0  0  0  0  0  0  0
   19.5678    4.0839   13.7028 O   0  0  0  0  0  0  0  0  0  0  0  0
   17.8929    3.0366   14.8158 O   0  0  0  0  0  0  0  0  0  0  0  0
   17.8981    3.4188   11.6837 H   0  0  0  0  0  0  0  0  0  0  0  0
   15.8675    1.1410   16.3230 C   0  0  0  0  0  0  0  0  0  0  0  0
   15.6564   -0.2633   15.8344 N   0  0  0  0  0  0  0  0  0  0  0  0
   14.6770   -0.3911   15.5796 H   0  0  0  0  0  0  0  0  0  0  0  0
   15.9041   -0.9213   16.5734 H   0  0  0  0  0  0  0  0  0  0  0  0
   14.8488    1.3523   17.4495 C   0  0  0  0  0  0  0  0  0  0  0  0
   15.0240    0.7765   18.5366 O   0  0  0  0  0  0  0  0  0  0  0  0
   13.8790    2.1086   17.2095 O   0  0  0  0  0  0  0  0  0  0  0  0
   13.7992    2.5159   16.3694 H   0  0  0  0  0  0  0  0  0  0  0  0
 14 10  1  0  0  0
 14 15  2  0  0  0
 14 16  1  0  0  0
 10  1  1  0  0  0
 10 11  1  0  0  0
  1  4  1  0  0  0
  2  4  1  0  0  0
  2  5  1  0  0  0
  2  6  2  0  0  0
  3  5  1  0  0  0
  3  7  2  0  0  0
  3  8  1  0  0  0
  4  8  1  0  0  0
 11 12  1  0  0  0
 11 13  1  0  0  0
  5  9  1  0  0  0
 16 17  1  0  0  0
M  END
> <minimizedAffinity>
-7.44060

$$$$
1P1O_QUS_A_301


 17 17  0  0  0  0  0  0  0  0999 V2000
   16.5217    2.4468   14.4193 C   0  0  0  0  0  0  0  0  0  0  0  0
   15.9649    0.5552   16.0133 C   0  0  0  0  0  0  0  0  0  0  0  0
   14.7101    1.7796   17.4228 C   0  0  0  0  0  0  0  0  0  0  0  0
   15.7125    1.7627   15.4308 N   0  0  0  0  0  0  0  0  0  0  0  0
   15.3389    0.5921   17.2142 N   0  0  0  0  0  0  0  0  0  0  0  0
   16.6116   -0.3100   15.5064 O   0  0  0  0  0  0  0  0  0  0  0  0
   14.0593    2.1726   18.3739 O   0  0  0  0  0  0  0  0  0  0  0  0
   14.9212    2.5676   16.3142 O   0  0  0  0  0  0  0  0  0  0  0  0
   15.3392   -0.1519   17.8588 H   0  0  0  0  0  0  0  0  0  0  0  0
   15.9828    2.1724   13.0079 C   0  0  0  0  0  0  0  0  0  0  0  0
   16.0131    0.7522   12.5206 N   0  0  0  0  0  0  0  0  0  0  0  0
   16.9786    0.4248   12.4868 H   0  0  0  0  0  0  0  0  0  0  0  0
   15.6049    0.7042   11.5871 H   0  0  0  0  0  0  0  0  0  0  0  0
   16.9238    2.9547   12.0838 C   0  0  0  0  0  0  0  0  0  0  0  0
   16.4405    3.6035   11.1407 O   0  0  0  0  0  0  0  0  0  0  0  0
   18.1500    2.8979   12.3350 O   0  0  0  0  0  0  0  0  0  0  0  0
   18.4566    2.3914   13.0612 H   0  0  0  0  0  0  0  0  0  0  0  0
 14 10  1  0  0  0
 14 15  2  0  0  0
 14 16  1  0  0  0
 10  1  1  0  0  0
 10 11  1  0  0  0
  1  4  1  0  0  0
  2  4  1  0  0  0
  2  5  1  0  0  0
  2  6  2  0  0  0
  3  5  1  0  0  0
  3  7  2  0  0  0
  3  8  1  0  0  0
  4  8  1  0  0  0
 11 12  1  0  0  0
 11 13  1  0  0  0
  5  9  1  0  0  0
 16 17  1  0  0  0
M  END
> <minimizedAffinity>
-7.35460

$$$$
1P1O_QUS_A_301


 17 17  0  0  0  0  0  0  0  0999 V2000
   17.0278    2.2606   15.4183 C   0  0  0  0  0  0  0  0  0  0  0  0
   17.3961    1.0934   13.1977 C   0  0  0  0  0  0  0  0  0  0  0  0
   17.1388    2.9207   11.9111 C   0  0  0  0  0  0  0  0  0  0  0  0
   17.4009    2.1943   14.0032 N   0  0  0  0  0  0  0  0  0  0  0  0
   17.2438    1.5652   11.9369 N   0  0  0  0  0  0  0  0  0  0  0  0
   17.5106   -0.0261   13.5941 O   0  0  0  0  0  0  0  0  0  0  0  0
   16.9900    3.6839   10.9742 O   0  0  0  0  0  0  0  0  0  0  0  0
   17.2282    3.3741   13.2076 O   0  0  0  0  0  0  0  0  0  0  0  0
   17.2130    0.9948   11.1351 H   0  0  0  0  0  0  0  0  0  0  0  0
   15.5417    1.9253   15.6102 C   0  0  0  0  0  0  0  0  0  0  0  0
   14.7148    2.8866   16.4150 N   0  0  0  0  0  0  0  0  0  0  0  0
   15.0830    2.9395   17.3647 H   0  0  0  0  0  0  0  0  0  0  0  0
   13.7479    2.5627   16.4428 H   0  0  0  0  0  0  0  0  0  0  0  0
   15.5483    0.6114   16.4007 C   0  0  0  0  0  0  0  0  0  0  0  0
   15.5486    0.6550   17.6426 O   0  0  0  0  0  0  0  0  0  0  0  0
   15.5513   -0.4535   15.7405 O   0  0  0  0  0  0  0  0  0  0  0  0
   15.5509   -0.4241   14.8040 H   0  0  0  0  0  0  0  0  0  0  0  0
 14 10  1  0  0  0
 14 15  2  0  0  0
 14 16  1  0  0  0
 10  1  1  0  0  0
 10 11  1  0  0  0
  1  4  1  0  0  0
  2  4  1  0  0  0
  2  5  1  0  0  0
  2  6  2  0  0  0
  3  5  1  0  0  0
  3  7  2  0  0  0
  3  8  1  0  0  0
  4  8  1  0  0  0
 11 12  1  0  0  0
 11 13  1  0  0  0
  5  9  1  0  0  0
 16 17  1  0  0  0
M  END
> <minimizedAffinity>
-6.94112

$$$$
1P1O_QUS_A_301


 17 17  0  0  0  0  0  0  0  0999 V2000
   17.7092    1.3031   15.6726 C   0  0  0  0  0  0  0  0  0  0  0  0
   15.4648    2.3955   16.1178 C   0  0  0  0  0  0  0  0  0  0  0  0
   14.9382    1.1556   17.9194 C   0  0  0  0  0  0  0  0  0  0  0  0
   16.5748    1.7052   16.5078 N   0  0  0  0  0  0  0  0  0  0  0  0
   14.4929    2.0485   16.9955 N   0  0  0  0  0  0  0  0  0  0  0  0
   15.4325    3.1383   15.1846 O   0  0  0  0  0  0  0  0  0  0  0  0
   14.3571    0.6226   18.8472 O   0  0  0  0  0  0  0  0  0  0  0  0
   16.2632    0.8978   17.6505 O   0  0  0  0  0  0  0  0  0  0  0  0
   13.5740    2.4008   16.9678 H   0  0  0  0  0  0  0  0  0  0  0  0
   17.4430   -0.0515   15.0006 C   0  0  0  0  0  0  0  0  0  0  0  0
   18.4728   -1.1290   15.1854 N   0  0  0  0  0  0  0  0  0  0  0  0
   19.3603   -0.8230   14.7864 H   0  0  0  0  0  0  0  0  0  0  0  0
   18.1635   -1.9793   14.7145 H   0  0  0  0  0  0  0  0  0  0  0  0
   17.4297    0.2653   13.5004 C   0  0  0  0  0  0  0  0  0  0  0  0
   16.7189    1.1971   13.0873 O   0  0  0  0  0  0  0  0  0  0  0  0
   18.1499   -0.4435   12.7595 O   0  0  0  0  0  0  0  0  0  0  0  0
   18.6655   -1.1334   13.1284 H   0  0  0  0  0  0  0  0  0  0  0  0
 14 10  1  0  0  0
 14 15  2  0  0  0
 14 16  1  0  0  0
 10  1  1  0  0  0
 10 11  1  0  0  0
  1  4  1  0  0  0
  2  4  1  0  0  0
  2  5  1  0  0  0
  2  6  2  0  0  0
  3  5  1  0  0  0
  3  7  2  0  0  0
  3  8  1  0  0  0
  4  8  1  0  0  0
 11 12  1  0  0  0
 11 13  1  0  0  0
  5  9  1  0  0  0
 16 17  1  0  0  0
M  END
> <minimizedAffinity>
-6.79394

$$$$
1P1O_QUS_A_301


 17 17  0  0  0  0  0  0  0  0999 V2000
   16.3161    1.6554   16.6334 C   0  0  0  0  0  0  0  0  0  0  0  0
   16.8228    1.0307   14.2288 C   0  0  0  0  0  0  0  0  0  0  0  0
   18.0351   -0.8049   14.6994 C   0  0  0  0  0  0  0  0  0  0  0  0
   16.6608    0.7317   15.5499 N   0  0  0  0  0  0  0  0  0  0  0  0
   17.6532    0.0789   13.7391 N   0  0  0  0  0  0  0  0  0  0  0  0
   16.3044    1.9571   13.6840 O   0  0  0  0  0  0  0  0  0  0  0  0
   18.7677   -1.7751   14.6338 O   0  0  0  0  0  0  0  0  0  0  0  0
   17.4322   -0.4307   15.8788 O   0  0  0  0  0  0  0  0  0  0  0  0
   17.9453    0.0326   12.8001 H   0  0  0  0  0  0  0  0  0  0  0  0
   14.8009    1.6690   16.8818 C   0  0  0  0  0  0  0  0  0  0  0  0
   14.0736    2.9618   16.6468 N   0  0  0  0  0  0  0  0  0  0  0  0
   14.4362    3.6756   17.2789 H   0  0  0  0  0  0  0  0  0  0  0  0
   13.0775    2.8279   16.8207 H   0  0  0  0  0  0  0  0  0  0  0  0
   14.6594    1.3725   18.3795 C   0  0  0  0  0  0  0  0  0  0  0  0
   13.7995    1.9834   19.0364 O   0  0  0  0  0  0  0  0  0  0  0  0
   15.4304    0.5142   18.8683 O   0  0  0  0  0  0  0  0  0  0  0  0
   16.0602    0.0854   18.3229 H   0  0  0  0  0  0  0  0  0  0  0  0
 14 10  1  0  0  0
 14 15  2  0  0  0
 14 16  1  0  0  0
 10  1  1  0  0  0
 10 11  1  0  0  0
  1  4  1  0  0  0
  2  4  1  0  0  0
  2  5  1  0  0  0
  2  6  2  0  0  0
  3  5  1  0  0  0
  3  7  2  0  0  0
  3  8  1  0  0  0
  4  8  1  0  0  0
 11 12  1  0  0  0
 11 13  1  0  0  0
  5  9  1  0  0  0
 16 17  1  0  0  0
M  END
> <minimizedAffinity>
-6.71661

$$$$
1P1O_QUS_A_301


 17 17  0  0  0  0  0  0  0  0999 V2000
   17.3757    3.0715   13.7646 C   0  0  0  0  0  0  0  0  0  0  0  0
   16.3064    1.8741   15.7273 C   0  0  0  0  0  0  0  0  0  0  0  0
   17.4643   -0.0423   15.5095 C   0  0  0  0  0  0  0  0  0  0  0  0
   17.3243    2.0812   14.8429 N   0  0  0  0  0  0  0  0  0  0  0  0
   16.4218    0.5825   16.1194 N   0  0  0  0  0  0  0  0  0  0  0  0
   15.5157    2.7092   16.0447 O   0  0  0  0  0  0  0  0  0  0  0  0
   17.8665   -1.1873   15.6083 O   0  0  0  0  0  0  0  0  0  0  0  0
   18.0732    0.8702   14.6783 O   0  0  0  0  0  0  0  0  0  0  0  0
   15.8225    0.1480   16.7685 H   0  0  0  0  0  0  0  0  0  0  0  0
   17.4514    2.3857   12.3929 C   0  0  0  0  0  0  0  0  0  0  0  0
   17.8096    3.2410   11.2115 N   0  0  0  0  0  0  0  0  0  0  0  0
   17.1022    3.9655   11.0892 H   0  0  0  0  0  0  0  0  0  0  0  0
   17.8518    2.6620   10.3728 H   0  0  0  0  0  0  0  0  0  0  0  0
   16.0228    1.8911   12.1367 C   0  0  0  0  0  0  0  0  0  0  0  0
   15.1948    2.6719   11.6378 O   0  0  0  0  0  0  0  0  0  0  0  0
   15.7633    0.7054   12.4481 O   0  0  0  0  0  0  0  0  0  0  0  0
   16.4295    0.1626   12.8216 H   0  0  0  0  0  0  0  0  0  0  0  0
 14 10  1  0  0  0
 14 15  2  0  0  0
 14 16  1  0  0  0
 10  1  1  0  0  0
 10 11  1  0  0  0
  1  4  1  0  0  0
  2  4  1  0  0  0
  2  5  1  0  0  0
  2  6  2  0  0  0
  3  5  1  0  0  0
  3  7  2  0  0  0
  3  8  1  0  0  0
  4  8  1  0  0  0
 11 12  1  0  0  0
 11 13  1  0  0  0
  5  9  1  0  0  0
 16 17  1  0  0  0
M  END
> <minimizedAffinity>
-6.54189

$$$$
1P1O_QUS_A_301


 17 17  0  0  0  0  0  0  0  0999 V2000
   17.5921    0.3664   14.1684 C   0  0  0  0  0  0  0  0  0  0  0  0
   17.5784    2.8255   13.5504 C   0  0  0  0  0  0  0  0  0  0  0  0
   15.9505    2.6838   12.0043 C   0  0  0  0  0  0  0  0  0  0  0  0
   16.9913    1.5982   13.6510 N   0  0  0  0  0  0  0  0  0  0  0  0
   16.9221    3.4624   12.5509 N   0  0  0  0  0  0  0  0  0  0  0  0
   18.4802    3.1941   14.2392 O   0  0  0  0  0  0  0  0  0  0  0  0
   15.1716    2.9130   11.0970 O   0  0  0  0  0  0  0  0  0  0  0  0
   15.9549    1.4781   12.6681 O   0  0  0  0  0  0  0  0  0  0  0  0
   17.1245    4.3795   12.2556 H   0  0  0  0  0  0  0  0  0  0  0  0
   16.8838   -0.0929   15.4509 C   0  0  0  0  0  0  0  0  0  0  0  0
   15.3979   -0.3005   15.3833 N   0  0  0  0  0  0  0  0  0  0  0  0
   14.9417    0.5811   15.1487 H   0  0  0  0  0  0  0  0  0  0  0  0
   15.0589   -0.6286   16.2877 H   0  0  0  0  0  0  0  0  0  0  0  0
   17.1034    1.0590   16.4389 C   0  0  0  0  0  0  0  0  0  0  0  0
   16.1169    1.5810   16.9853 O   0  0  0  0  0  0  0  0  0  0  0  0
   18.2860    1.4169   16.6468 O   0  0  0  0  0  0  0  0  0  0  0  0
   18.9907    0.9854   16.2049 H   0  0  0  0  0  0  0  0  0  0  0  0
 14 10  1  0  0  0
 14 15  2  0  0  0
 14 16  1  0  0  0
 10  1  1  0  0  0
 10 11  1  0  0  0
  1  4  1  0  0  0
  2  4  1  0  0  0
  2  5  1  0  0  0
  2  6  2  0  0  0
  3  5  1  0  0  0
  3  7  2  0  0  0
  3  8  1  0  0  0
  4  8  1  0  0  0
 11 12  1  0  0  0
 11 13  1  0  0  0
  5  9  1  0  0  0
 16 17  1  0  0  0
M  END
> <minimizedAffinity>
-6.47745

$$$$
1P1O_QUS_A_301


 17 17  0  0  0  0  0  0  0  0999 V2000
   15.7782    2.3773   15.6141 C   0  0  0  0  0  0  0  0  0  0  0  0
   17.0963    2.8870   13.5088 C   0  0  0  0  0  0  0  0  0  0  0  0
   16.6895    0.9278   12.4809 C   0  0  0  0  0  0  0  0  0  0  0  0
   16.1161    2.2328   14.1960 N   0  0  0  0  0  0  0  0  0  0  0  0
   17.4175    2.0764   12.4720 N   0  0  0  0  0  0  0  0  0  0  0  0
   17.5302    3.9551   13.8165 O   0  0  0  0  0  0  0  0  0  0  0  0
   16.7061   -0.0239   11.7217 O   0  0  0  0  0  0  0  0  0  0  0  0
   15.8442    0.9742   13.5661 O   0  0  0  0  0  0  0  0  0  0  0  0
   18.0968    2.2929   11.7932 H   0  0  0  0  0  0  0  0  0  0  0  0
   15.8100    1.0179   16.3270 C   0  0  0  0  0  0  0  0  0  0  0  0
   15.6064    1.0129   17.8150 N   0  0  0  0  0  0  0  0  0  0  0  0
   16.3521    1.5463   18.2620 H   0  0  0  0  0  0  0  0  0  0  0  0
   15.6233    0.0522   18.1573 H   0  0  0  0  0  0  0  0  0  0  0  0
   17.2350    0.5013   16.0954 C   0  0  0  0  0  0  0  0  0  0  0  0
   18.1964    1.2116   16.4349 O   0  0  0  0  0  0  0  0  0  0  0  0
   17.3552   -0.6294   15.5690 O   0  0  0  0  0  0  0  0  0  0  0  0
   16.5925   -1.1201   15.3336 H   0  0  0  0  0  0  0  0  0  0  0  0
 14 10  1  0  0  0
 14 15  2  0  0  0
 14 16  1  0  0  0
 10  1  1  0  0  0
 10 11  1  0  0  0
  1  4  1  0  0  0
  2  4  1  0  0  0
  2  5  1  0  0  0
  2  6  2  0  0  0
  3  5  1  0  0  0
  3  7  2  0  0  0
  3  8  1  0  0  0
  4  8  1  0  0  0
 11 12  1  0  0  0
 11 13  1  0  0  0
  5  9  1  0  0  0
 16 17  1  0  0  0
M  END
> <minimizedAffinity>
-6.31050

$$$$
