5L3A_6DP_A_1201


 16 17  0  0  0  0  0  0  0  0999 V2000
   12.2893  -18.7219  -20.0000 C   0  0  0  0  0  0  0  0  0  0  0  0
   13.3975  -19.6205  -19.8274 C   0  0  0  0  0  0  0  0  0  0  0  0
   11.1511  -19.4107  -19.6735 C   0  0  0  0  0  0  0  0  0  0  0  0
   14.7317  -19.2002  -20.1265 C   0  0  0  0  0  0  0  0  0  0  0  0
   14.8995  -17.9077  -20.5786 C   0  0  0  0  0  0  0  0  0  0  0  0
   13.7807  -17.0058  -20.7520 C   0  0  0  0  0  0  0  0  0  0  0  0
   12.4940  -17.4195  -20.4697 C   0  0  0  0  0  0  0  0  0  0  0  0
   12.9131  -20.8295  -19.4023 N   0  0  0  0  0  0  0  0  0  0  0  0
   11.5739  -20.6425  -19.3475 N   0  0  0  0  0  0  0  0  0  0  0  0
   13.4212  -21.6448  -19.1868 H   0  0  0  0  0  0  0  0  0  0  0  0
   11.3004  -16.6683  -20.6927 N   0  0  0  0  0  0  0  0  0  0  0  0
   10.5743  -17.1440  -21.1571 H   0  0  0  0  0  0  0  0  0  0  0  0
   11.2922  -15.0941  -18.8960 O   0  0  0  0  0  0  0  0  0  0  0  0
   10.9884  -15.1344  -20.2796 S   0  0  0  0  0  0  0  0  0  0  0  0
   11.7027  -14.3076  -21.1879 O   0  0  0  0  0  0  0  0  0  0  0  0
    9.3283  -14.8268  -20.4374 C   0  0  0  0  0  0  0  0  0  0  0  0
 13 14  2  0  0  0
 11 14  1  0  0  0
 11  7  1  0  0  0
 14 15  2  0  0  0
 14 16  1  0  0  0
  7  6  2  0  0  0
  7  1  1  0  0  0
  6  5  1  0  0  0
  1  3  1  0  0  0
  1  2  2  0  0  0
  5  4  2  0  0  0
  3  9  2  0  0  0
  2  4  1  0  0  0
  2  8  1  0  0  0
  9  8  1  0  0  0
 11 12  1  0  0  0
  8 10  1  0  0  0
M  END
> <minimizedAffinity>
-6.49389

$$$$
5L3A_6DP_A_1201


 16 17  0  0  0  0  0  0  0  0999 V2000
   12.8121  -18.8013  -20.0519 C   0  0  0  0  0  0  0  0  0  0  0  0
   11.4361  -18.4958  -19.7718 C   0  0  0  0  0  0  0  0  0  0  0  0
   13.0479  -20.0726  -19.5993 C   0  0  0  0  0  0  0  0  0  0  0  0
   10.8917  -17.2138  -20.0980 C   0  0  0  0  0  0  0  0  0  0  0  0
   11.7398  -16.3003  -20.6894 C   0  0  0  0  0  0  0  0  0  0  0  0
   13.1255  -16.6115  -20.9691 C   0  0  0  0  0  0  0  0  0  0  0  0
   13.6478  -17.8477  -20.6445 C   0  0  0  0  0  0  0  0  0  0  0  0
   10.8673  -19.5809  -19.1584 N   0  0  0  0  0  0  0  0  0  0  0  0
   11.8804  -20.4738  -19.0716 N   0  0  0  0  0  0  0  0  0  0  0  0
    9.9376  -19.6864  -18.8521 H   0  0  0  0  0  0  0  0  0  0  0  0
   15.0134  -18.2443  -20.7724 N   0  0  0  0  0  0  0  0  0  0  0  0
   15.2349  -18.7675  -21.5764 H   0  0  0  0  0  0  0  0  0  0  0  0
   15.7854  -16.8435  -18.9981 O   0  0  0  0  0  0  0  0  0  0  0  0
   16.2441  -17.9438  -19.7645 S   0  0  0  0  0  0  0  0  0  0  0  0
   16.5640  -19.1712  -19.1241 O   0  0  0  0  0  0  0  0  0  0  0  0
   17.5899  -17.4124  -20.6488 C   0  0  0  0  0  0  0  0  0  0  0  0
 13 14  2  0  0  0
 11 14  1  0  0  0
 11  7  1  0  0  0
 14 15  2  0  0  0
 14 16  1  0  0  0
  7  6  2  0  0  0
  7  1  1  0  0  0
  6  5  1  0  0  0
  1  3  1  0  0  0
  1  2  2  0  0  0
  5  4  2  0  0  0
  3  9  2  0  0  0
  2  4  1  0  0  0
  2  8  1  0  0  0
  9  8  1  0  0  0
 11 12  1  0  0  0
  8 10  1  0  0  0
M  END
> <minimizedAffinity>
-6.34205

$$$$
5L3A_6DP_A_1201


 16 17  0  0  0  0  0  0  0  0999 V2000
   13.6747  -19.0141  -20.0802 C   0  0  0  0  0  0  0  0  0  0  0  0
   12.7766  -19.9972  -19.5398 C   0  0  0  0  0  0  0  0  0  0  0  0
   14.9276  -19.5680  -20.0901 C   0  0  0  0  0  0  0  0  0  0  0  0
   11.3878  -19.7010  -19.3672 C   0  0  0  0  0  0  0  0  0  0  0  0
   10.9593  -18.4447  -19.7433 C   0  0  0  0  0  0  0  0  0  0  0  0
   11.8672  -17.4568  -20.2864 C   0  0  0  0  0  0  0  0  0  0  0  0
   13.2084  -17.7453  -20.4429 C   0  0  0  0  0  0  0  0  0  0  0  0
   13.4976  -21.1215  -19.2341 N   0  0  0  0  0  0  0  0  0  0  0  0
   14.7674  -20.7949  -19.5691 N   0  0  0  0  0  0  0  0  0  0  0  0
   13.1684  -21.9697  -18.8581 H   0  0  0  0  0  0  0  0  0  0  0  0
   14.2214  -16.8334  -20.8681 N   0  0  0  0  0  0  0  0  0  0  0  0
   14.5074  -16.9164  -21.8064 H   0  0  0  0  0  0  0  0  0  0  0  0
   13.9263  -14.7465  -19.7437 O   0  0  0  0  0  0  0  0  0  0  0  0
   14.9599  -15.6803  -20.0044 S   0  0  0  0  0  0  0  0  0  0  0  0
   15.6194  -16.3292  -18.9260 O   0  0  0  0  0  0  0  0  0  0  0  0
   16.1133  -14.8952  -20.9682 C   0  0  0  0  0  0  0  0  0  0  0  0
 13 14  2  0  0  0
 11 14  1  0  0  0
 11  7  1  0  0  0
 14 15  2  0  0  0
 14 16  1  0  0  0
  7  6  2  0  0  0
  7  1  1  0  0  0
  6  5  1  0  0  0
  1  3  1  0  0  0
  1  2  2  0  0  0
  5  4  2  0  0  0
  3  9  2  0  0  0
  2  4  1  0  0  0
  2  8  1  0  0  0
  9  8  1  0  0  0
 11 12  1  0  0  0
  8 10  1  0  0  0
M  END
> <minimizedAffinity>
-6.21177

$$$$
5L3A_6DP_A_1201


 16 17  0  0  0  0  0  0  0  0999 V2000
   12.6154  -18.8609  -19.7898 C   0  0  0  0  0  0  0  0  0  0  0  0
   13.4737  -20.0058  -19.6567 C   0  0  0  0  0  0  0  0  0  0  0  0
   11.3324  -19.2847  -19.5641 C   0  0  0  0  0  0  0  0  0  0  0  0
   14.8833  -19.8905  -19.8716 C   0  0  0  0  0  0  0  0  0  0  0  0
   15.3708  -18.6435  -20.2044 C   0  0  0  0  0  0  0  0  0  0  0  0
   14.5028  -17.4929  -20.3384 C   0  0  0  0  0  0  0  0  0  0  0  0
   13.1419  -17.6117  -20.1380 C   0  0  0  0  0  0  0  0  0  0  0  0
   12.6997  -21.0951  -19.3547 N   0  0  0  0  0  0  0  0  0  0  0  0
   11.4395  -20.6024  -19.3309 N   0  0  0  0  0  0  0  0  0  0  0  0
   12.9922  -22.0211  -19.1927 H   0  0  0  0  0  0  0  0  0  0  0  0
   12.1692  -16.5857  -20.3371 N   0  0  0  0  0  0  0  0  0  0  0  0
   11.2510  -16.8046  -20.0574 H   0  0  0  0  0  0  0  0  0  0  0  0
   13.1901  -15.3446  -22.1045 O   0  0  0  0  0  0  0  0  0  0  0  0
   12.3830  -15.1085  -20.9639 S   0  0  0  0  0  0  0  0  0  0  0  0
   11.0931  -14.5317  -21.1137 O   0  0  0  0  0  0  0  0  0  0  0  0
   13.2936  -14.1600  -19.8931 C   0  0  0  0  0  0  0  0  0  0  0  0
 13 14  2  0  0  0
 11 14  1  0  0  0
 11  7  1  0  0  0
 14 15  2  0  0  0
 14 16  1  0  0  0
  7  6  2  0  0  0
  7  1  1  0  0  0
  6  5  1  0  0  0
  1  3  1  0  0  0
  1  2  2  0  0  0
  5  4  2  0  0  0
  3  9  2  0  0  0
  2  4  1  0  0  0
  2  8  1  0  0  0
  9  8  1  0  0  0
 11 12  1  0  0  0
  8 10  1  0  0  0
M  END
> <minimizedAffinity>
-6.12465

$$$$
5L3A_6DP_A_1201


 16 17  0  0  0  0  0  0  0  0999 V2000
   11.9078  -17.6097  -20.1597 C   0  0  0  0  0  0  0  0  0  0  0  0
   11.0384  -18.6646  -19.7165 C   0  0  0  0  0  0  0  0  0  0  0  0
   11.1303  -16.5015  -20.3695 C   0  0  0  0  0  0  0  0  0  0  0  0
   11.5545  -19.9711  -19.4461 C   0  0  0  0  0  0  0  0  0  0  0  0
   12.9086  -20.1640  -19.6258 C   0  0  0  0  0  0  0  0  0  0  0  0
   13.7810  -19.0991  -20.0732 C   0  0  0  0  0  0  0  0  0  0  0  0
   13.2760  -17.8422  -20.3408 C   0  0  0  0  0  0  0  0  0  0  0  0
    9.7582  -18.1790  -19.6664 N   0  0  0  0  0  0  0  0  0  0  0  0
    9.8801  -16.8967  -20.0813 N   0  0  0  0  0  0  0  0  0  0  0  0
    8.9399  -18.6529  -19.3922 H   0  0  0  0  0  0  0  0  0  0  0  0
   14.0048  -16.7400  -20.8817 N   0  0  0  0  0  0  0  0  0  0  0  0
   13.9503  -16.6271  -21.8582 H   0  0  0  0  0  0  0  0  0  0  0  0
   15.7291  -15.1029  -21.1118 O   0  0  0  0  0  0  0  0  0  0  0  0
   14.9093  -15.6522  -20.0947 S   0  0  0  0  0  0  0  0  0  0  0  0
   14.0161  -14.8153  -19.3732 O   0  0  0  0  0  0  0  0  0  0  0  0
   15.9328  -16.4454  -18.9998 C   0  0  0  0  0  0  0  0  0  0  0  0
 13 14  2  0  0  0
 11 14  1  0  0  0
 11  7  1  0  0  0
 14 15  2  0  0  0
 14 16  1  0  0  0
  7  6  2  0  0  0
  7  1  1  0  0  0
  6  5  1  0  0  0
  1  3  1  0  0  0
  1  2  2  0  0  0
  5  4  2  0  0  0
  3  9  2  0  0  0
  2  4  1  0  0  0
  2  8  1  0  0  0
  9  8  1  0  0  0
 11 12  1  0  0  0
  8 10  1  0  0  0
M  END
> <minimizedAffinity>
-6.09245

$$$$
5L3A_6DP_A_1201


 16 17  0  0  0  0  0  0  0  0999 V2000
   14.1226  -16.9351  -20.8093 C   0  0  0  0  0  0  0  0  0  0  0  0
   12.7362  -17.3121  -20.7797 C   0  0  0  0  0  0  0  0  0  0  0  0
   14.1834  -15.6392  -21.2492 C   0  0  0  0  0  0  0  0  0  0  0  0
   12.3469  -18.6331  -20.3927 C   0  0  0  0  0  0  0  0  0  0  0  0
   13.3533  -19.5127  -20.0508 C   0  0  0  0  0  0  0  0  0  0  0  0
   14.7487  -19.1294  -20.0827 C   0  0  0  0  0  0  0  0  0  0  0  0
   15.1193  -17.8554  -20.4652 C   0  0  0  0  0  0  0  0  0  0  0  0
   11.9874  -16.2444  -21.1997 N   0  0  0  0  0  0  0  0  0  0  0  0
   12.9071  -15.2914  -21.4780 N   0  0  0  0  0  0  0  0  0  0  0  0
   11.0081  -16.1843  -21.2803 H   0  0  0  0  0  0  0  0  0  0  0  0
   16.4559  -17.3835  -20.6365 N   0  0  0  0  0  0  0  0  0  0  0  0
   16.8043  -17.4057  -21.5570 H   0  0  0  0  0  0  0  0  0  0  0  0
   18.2190  -17.9593  -19.1311 O   0  0  0  0  0  0  0  0  0  0  0  0
   17.4717  -16.8166  -19.5107 S   0  0  0  0  0  0  0  0  0  0  0  0
   18.1313  -15.6925  -20.0766 O   0  0  0  0  0  0  0  0  0  0  0  0
   16.5937  -16.3168  -18.1488 C   0  0  0  0  0  0  0  0  0  0  0  0
 13 14  2  0  0  0
 11 14  1  0  0  0
 11  7  1  0  0  0
 14 15  2  0  0  0
 14 16  1  0  0  0
  7  6  2  0  0  0
  7  1  1  0  0  0
  6  5  1  0  0  0
  1  3  1  0  0  0
  1  2  2  0  0  0
  5  4  2  0  0  0
  3  9  2  0  0  0
  2  4  1  0  0  0
  2  8  1  0  0  0
  9  8  1  0  0  0
 11 12  1  0  0  0
  8 10  1  0  0  0
M  END
> <minimizedAffinity>
-5.88080

$$$$
5L3A_6DP_A_1201


 16 17  0  0  0  0  0  0  0  0999 V2000
   12.9148  -17.1712  -20.5654 C   0  0  0  0  0  0  0  0  0  0  0  0
   11.5061  -17.2033  -20.2834 C   0  0  0  0  0  0  0  0  0  0  0  0
   13.1912  -15.9511  -21.1237 C   0  0  0  0  0  0  0  0  0  0  0  0
   10.9001  -18.3716  -19.7228 C   0  0  0  0  0  0  0  0  0  0  0  0
   11.7238  -19.4483  -19.4668 C   0  0  0  0  0  0  0  0  0  0  0  0
   13.1423  -19.4124  -19.7531 C   0  0  0  0  0  0  0  0  0  0  0  0
   13.7203  -18.2850  -20.3020 C   0  0  0  0  0  0  0  0  0  0  0  0
   10.9584  -16.0097  -20.6738 N   0  0  0  0  0  0  0  0  0  0  0  0
   12.0077  -15.3197  -21.1782 N   0  0  0  0  0  0  0  0  0  0  0  0
   10.0198  -15.7210  -20.6037 H   0  0  0  0  0  0  0  0  0  0  0  0
   15.0782  -18.1560  -20.7239 N   0  0  0  0  0  0  0  0  0  0  0  0
   15.2369  -18.2410  -21.6918 H   0  0  0  0  0  0  0  0  0  0  0  0
   16.0548  -16.7216  -19.0822 O   0  0  0  0  0  0  0  0  0  0  0  0
   16.3903  -17.8877  -19.8144 S   0  0  0  0  0  0  0  0  0  0  0  0
   16.6737  -19.0996  -19.1290 O   0  0  0  0  0  0  0  0  0  0  0  0
   17.7048  -17.4933  -20.8104 C   0  0  0  0  0  0  0  0  0  0  0  0
 13 14  2  0  0  0
 11 14  1  0  0  0
 11  7  1  0  0  0
 14 15  2  0  0  0
 14 16  1  0  0  0
  7  6  2  0  0  0
  7  1  1  0  0  0
  6  5  1  0  0  0
  1  3  1  0  0  0
  1  2  2  0  0  0
  5  4  2  0  0  0
  3  9  2  0  0  0
  2  4  1  0  0  0
  2  8  1  0  0  0
  9  8  1  0  0  0
 11 12  1  0  0  0
  8 10  1  0  0  0
M  END
> <minimizedAffinity>
-5.84533

$$$$
5L3A_6DP_A_1201


 16 17  0  0  0  0  0  0  0  0999 V2000
   13.3100  -17.6004  -20.4581 C   0  0  0  0  0  0  0  0  0  0  0  0
   13.3325  -18.9884  -20.0862 C   0  0  0  0  0  0  0  0  0  0  0  0
   14.5993  -17.2328  -20.7396 C   0  0  0  0  0  0  0  0  0  0  0  0
   12.1305  -19.6597  -19.6976 C   0  0  0  0  0  0  0  0  0  0  0  0
   10.9657  -18.9205  -19.7013 C   0  0  0  0  0  0  0  0  0  0  0  0
   10.9473  -17.5224  -20.0757 C   0  0  0  0  0  0  0  0  0  0  0  0
   12.1119  -16.8772  -20.4419 C   0  0  0  0  0  0  0  0  0  0  0  0
   14.6269  -19.4331  -20.1487 N   0  0  0  0  0  0  0  0  0  0  0  0
   15.3288  -18.3393  -20.5261 N   0  0  0  0  0  0  0  0  0  0  0  0
   14.9672  -20.3379  -19.9625 H   0  0  0  0  0  0  0  0  0  0  0  0
   12.2475  -15.4861  -20.7328 N   0  0  0  0  0  0  0  0  0  0  0  0
   12.2647  -15.2469  -21.6877 H   0  0  0  0  0  0  0  0  0  0  0  0
   11.4937  -14.6068  -18.6436 O   0  0  0  0  0  0  0  0  0  0  0  0
   12.3767  -14.2516  -19.6935 S   0  0  0  0  0  0  0  0  0  0  0  0
   13.7616  -14.0769  -19.4282 O   0  0  0  0  0  0  0  0  0  0  0  0
   11.7660  -12.8390  -20.4057 C   0  0  0  0  0  0  0  0  0  0  0  0
 13 14  2  0  0  0
 11 14  1  0  0  0
 11  7  1  0  0  0
 14 15  2  0  0  0
 14 16  1  0  0  0
  7  6  2  0  0  0
  7  1  1  0  0  0
  6  5  1  0  0  0
  1  3  1  0  0  0
  1  2  2  0  0  0
  5  4  2  0  0  0
  3  9  2  0  0  0
  2  4  1  0  0  0
  2  8  1  0  0  0
  9  8  1  0  0  0
 11 12  1  0  0  0
  8 10  1  0  0  0
M  END
> <minimizedAffinity>
-5.75403

$$$$
5L3A_6DP_A_1201


 16 17  0  0  0  0  0  0  0  0999 V2000
   10.4005  -16.5508  -20.2329 C   0  0  0  0  0  0  0  0  0  0  0  0
    9.5145  -17.6426  -19.9358 C   0  0  0  0  0  0  0  0  0  0  0  0
   11.6796  -16.9958  -20.0266 C   0  0  0  0  0  0  0  0  0  0  0  0
    8.0964  -17.4769  -20.0241 C   0  0  0  0  0  0  0  0  0  0  0  0
    7.6288  -16.2366  -20.4065 C   0  0  0  0  0  0  0  0  0  0  0  0
    8.5244  -15.1390  -20.7041 C   0  0  0  0  0  0  0  0  0  0  0  0
    9.8922  -15.3022  -20.6091 C   0  0  0  0  0  0  0  0  0  0  0  0
   10.2685  -18.7221  -19.5573 N   0  0  0  0  0  0  0  0  0  0  0  0
   11.5416  -18.2668  -19.6167 N   0  0  0  0  0  0  0  0  0  0  0  0
    9.9568  -19.6202  -19.3016 H   0  0  0  0  0  0  0  0  0  0  0  0
   10.8752  -14.2801  -20.7747 N   0  0  0  0  0  0  0  0  0  0  0  0
   11.3292  -14.2586  -21.6480 H   0  0  0  0  0  0  0  0  0  0  0  0
   11.6882  -12.0476  -20.5266 O   0  0  0  0  0  0  0  0  0  0  0  0
   11.3387  -13.1519  -19.7101 S   0  0  0  0  0  0  0  0  0  0  0  0
   10.2923  -13.0273  -18.7570 O   0  0  0  0  0  0  0  0  0  0  0  0
   12.7512  -13.6581  -18.9201 C   0  0  0  0  0  0  0  0  0  0  0  0
 13 14  2  0  0  0
 11 14  1  0  0  0
 11  7  1  0  0  0
 14 15  2  0  0  0
 14 16  1  0  0  0
  7  6  2  0  0  0
  7  1  1  0  0  0
  6  5  1  0  0  0
  1  3  1  0  0  0
  1  2  2  0  0  0
  5  4  2  0  0  0
  3  9  2  0  0  0
  2  4  1  0  0  0
  2  8  1  0  0  0
  9  8  1  0  0  0
 11 12  1  0  0  0
  8 10  1  0  0  0
M  END
> <minimizedAffinity>
-5.62120

$$$$
5L3A_6DP_A_1201


 16 17  0  0  0  0  0  0  0  0999 V2000
   12.9131  -17.3738  -20.1237 C   0  0  0  0  0  0  0  0  0  0  0  0
   13.3946  -18.7269  -20.1756 C   0  0  0  0  0  0  0  0  0  0  0  0
   11.5533  -17.4307  -19.9674 C   0  0  0  0  0  0  0  0  0  0  0  0
   14.7852  -19.0000  -20.3705 C   0  0  0  0  0  0  0  0  0  0  0  0
   15.6288  -17.9161  -20.5004 C   0  0  0  0  0  0  0  0  0  0  0  0
   15.1398  -16.5547  -20.4484 C   0  0  0  0  0  0  0  0  0  0  0  0
   13.7953  -16.2970  -20.2684 C   0  0  0  0  0  0  0  0  0  0  0  0
   12.3243  -19.5730  -20.0508 N   0  0  0  0  0  0  0  0  0  0  0  0
   11.2620  -18.7410  -19.9476 N   0  0  0  0  0  0  0  0  0  0  0  0
   12.3274  -20.5575  -20.0389 H   0  0  0  0  0  0  0  0  0  0  0  0
   13.1729  -15.0124  -20.3004 N   0  0  0  0  0  0  0  0  0  0  0  0
   12.7842  -14.7452  -21.1645 H   0  0  0  0  0  0  0  0  0  0  0  0
   11.7379  -14.2083  -18.5682 O   0  0  0  0  0  0  0  0  0  0  0  0
   13.0247  -13.9392  -19.0975 S   0  0  0  0  0  0  0  0  0  0  0  0
   14.1745  -14.0784  -18.2744 O   0  0  0  0  0  0  0  0  0  0  0  0
   12.9860  -12.3684  -19.7351 C   0  0  0  0  0  0  0  0  0  0  0  0
 13 14  2  0  0  0
 11 14  1  0  0  0
 11  7  1  0  0  0
 14 15  2  0  0  0
 14 16  1  0  0  0
  7  6  2  0  0  0
  7  1  1  0  0  0
  6  5  1  0  0  0
  1  3  1  0  0  0
  1  2  2  0  0  0
  5  4  2  0  0  0
  3  9  2  0  0  0
  2  4  1  0  0  0
  2  8  1  0  0  0
  9  8  1  0  0  0
 11 12  1  0  0  0
  8 10  1  0  0  0
M  END
> <minimizedAffinity>
-5.59800

$$$$
