4RVR_3WQ_A_2001


 26 28  0  0  0  0  0  0  0  0999 V2000
   67.8313   38.4582   -0.8370 C   0  0  0  0  0  0  0  0  0  0  0  0
   69.2133   38.1576   -0.7531 C   0  0  0  0  0  0  0  0  0  0  0  0
   70.1300   39.1383   -0.8957 C   0  0  0  0  0  0  0  0  0  0  0  0
   67.4079   39.7697   -1.0531 C   0  0  0  0  0  0  0  0  0  0  0  0
   68.3465   40.7726   -1.1770 C   0  0  0  0  0  0  0  0  0  0  0  0
   69.7121   40.4020   -1.1018 N   0  0  0  0  0  0  0  0  0  0  0  0
   70.7912   41.2377   -1.1751 C   0  0  0  0  0  0  0  0  0  0  0  0
   71.8937   40.4549   -1.0335 C   0  0  0  0  0  0  0  0  0  0  0  0
   71.4721   39.1580   -0.8408 C   0  0  0  0  0  0  0  0  0  0  0  0
   72.2700   38.0751   -0.5638 C   0  0  0  0  0  0  0  0  0  0  0  0
   72.4994   37.1651   -1.5972 C   0  0  0  0  0  0  0  0  0  0  0  0
   73.2530   35.9999   -1.4390 C   0  0  0  0  0  0  0  0  0  0  0  0
   73.8041   35.6719   -0.2075 C   0  0  0  0  0  0  0  0  0  0  0  0
   73.5877   36.5630    0.8368 C   0  0  0  0  0  0  0  0  0  0  0  0
   72.8440   37.7359    0.6779 C   0  0  0  0  0  0  0  0  0  0  0  0
   72.6436   38.7296    2.1215 S   0  0  0  0  0  0  0  0  0  0  0  0
   73.5984   39.8607    1.8876 O   0  0  0  0  0  0  0  0  0  0  0  0
   71.2595   39.1952    2.2193 O   0  0  0  0  0  0  0  0  0  0  0  0
   73.1569   37.7751    3.5353 C   0  0  0  0  0  0  0  0  0  0  0  0
   70.6951   42.6146   -1.3980 C   0  0  0  0  0  0  0  0  0  0  0  0
   69.6738   43.1896   -1.8433 O   0  0  0  0  0  0  0  0  0  0  0  0
   71.9211   43.4779   -1.1017 C   0  0  0  0  0  0  0  0  0  0  0  0
   66.8313   37.5119   -0.7000 O   0  0  0  0  0  0  0  0  0  0  0  0
   65.4794   37.8705   -1.0763 C   0  0  0  0  0  0  0  0  0  0  0  0
   65.2477   36.2985    0.8920 C   0  0  0  0  0  0  0  0  0  0  0  0
   64.4748   37.1304   -0.1470 C   0  0  0  0  0  0  0  0  0  0  0  0
 12 11  2  0  0  0
 12 13  1  0  0  0
 11 10  1  0  0  0
 21 20  2  0  0  0
  4  5  2  0  0  0
  4  1  1  0  0  0
  5  6  1  0  0  0
 23  1  1  0  0  0
 23 24  1  0  0  0
 20 22  1  0  0  0
 20  7  1  0  0  0
  1  2  2  0  0  0
  6  7  1  0  0  0
  6  3  1  0  0  0
  7  8  2  0  0  0
 24 26  1  0  0  0
  2  3  1  0  0  0
 26 25  1  0  0  0
  3  9  2  0  0  0
  8  9  1  0  0  0
  9 10  1  0  0  0
 13 14  2  0  0  0
 10 15  2  0  0  0
 14 15  1  0  0  0
 15 16  1  0  0  0
 16 19  1  0  0  0
 16 18  2  0  0  0
 16 17  2  0  0  0
M  END
> <minimizedAffinity>
-7.25946

$$$$
4RVR_3WQ_A_2001


 26 28  0  0  0  0  0  0  0  0999 V2000
   67.6794   38.3038   -0.8586 C   0  0  0  0  0  0  0  0  0  0  0  0
   68.9795   38.1707   -0.3114 C   0  0  0  0  0  0  0  0  0  0  0  0
   69.8496   39.2010   -0.3734 C   0  0  0  0  0  0  0  0  0  0  0  0
   67.2848   39.5029   -1.4521 C   0  0  0  0  0  0  0  0  0  0  0  0
   68.1690   40.5607   -1.4948 C   0  0  0  0  0  0  0  0  0  0  0  0
   69.4592   40.3558   -0.9462 N   0  0  0  0  0  0  0  0  0  0  0  0
   70.4687   41.2739   -0.8661 C   0  0  0  0  0  0  0  0  0  0  0  0
   71.5073   40.6501   -0.2493 C   0  0  0  0  0  0  0  0  0  0  0  0
   71.1062   39.3718    0.0699 C   0  0  0  0  0  0  0  0  0  0  0  0
   71.8273   38.4467    0.7842 C   0  0  0  0  0  0  0  0  0  0  0  0
   71.6974   38.4650    2.1740 C   0  0  0  0  0  0  0  0  0  0  0  0
   72.4070   37.6109    3.0212 C   0  0  0  0  0  0  0  0  0  0  0  0
   73.3164   36.6956    2.5083 C   0  0  0  0  0  0  0  0  0  0  0  0
   73.4633   36.6604    1.1267 C   0  0  0  0  0  0  0  0  0  0  0  0
   72.7452   37.5057    0.2759 C   0  0  0  0  0  0  0  0  0  0  0  0
   73.0862   37.3446   -1.4473 S   0  0  0  0  0  0  0  0  0  0  0  0
   73.9068   36.0925   -1.5131 O   0  0  0  0  0  0  0  0  0  0  0  0
   71.8342   37.2166   -2.1945 O   0  0  0  0  0  0  0  0  0  0  0  0
   74.0607   38.7451   -1.9596 C   0  0  0  0  0  0  0  0  0  0  0  0
   70.3839   42.5704   -1.3827 C   0  0  0  0  0  0  0  0  0  0  0  0
   69.3314   43.0881   -1.8253 O   0  0  0  0  0  0  0  0  0  0  0  0
   71.6610   43.4085   -1.4337 C   0  0  0  0  0  0  0  0  0  0  0  0
   66.7304   37.2974   -0.8334 O   0  0  0  0  0  0  0  0  0  0  0  0
   65.3303   37.6641   -0.7800 C   0  0  0  0  0  0  0  0  0  0  0  0
   65.5737   36.0112    1.1194 C   0  0  0  0  0  0  0  0  0  0  0  0
   64.5757   36.6737    0.1529 C   0  0  0  0  0  0  0  0  0  0  0  0
 12 11  2  0  0  0
 12 13  1  0  0  0
 11 10  1  0  0  0
 21 20  2  0  0  0
  4  5  2  0  0  0
  4  1  1  0  0  0
  5  6  1  0  0  0
 23  1  1  0  0  0
 23 24  1  0  0  0
 20 22  1  0  0  0
 20  7  1  0  0  0
  1  2  2  0  0  0
  6  7  1  0  0  0
  6  3  1  0  0  0
  7  8  2  0  0  0
 24 26  1  0  0  0
  2  3  1  0  0  0
 26 25  1  0  0  0
  3  9  2  0  0  0
  8  9  1  0  0  0
  9 10  1  0  0  0
 13 14  2  0  0  0
 10 15  2  0  0  0
 14 15  1  0  0  0
 15 16  1  0  0  0
 16 19  1  0  0  0
 16 18  2  0  0  0
 16 17  2  0  0  0
M  END
> <minimizedAffinity>
-7.19867

$$$$
4RVR_3WQ_A_2001


 26 28  0  0  0  0  0  0  0  0999 V2000
   70.6921   42.3518   -1.1698 C   0  0  0  0  0  0  0  0  0  0  0  0
   71.1873   41.0384   -0.9769 C   0  0  0  0  0  0  0  0  0  0  0  0
   70.3332   39.9949   -0.9130 C   0  0  0  0  0  0  0  0  0  0  0  0
   69.3221   42.5744   -1.3089 C   0  0  0  0  0  0  0  0  0  0  0  0
   68.4541   41.5035   -1.2645 C   0  0  0  0  0  0  0  0  0  0  0  0
   69.0123   40.2188   -1.0507 N   0  0  0  0  0  0  0  0  0  0  0  0
   68.3360   39.0322   -0.9978 C   0  0  0  0  0  0  0  0  0  0  0  0
   69.2711   38.0656   -0.7985 C   0  0  0  0  0  0  0  0  0  0  0  0
   70.5079   38.6708   -0.7674 C   0  0  0  0  0  0  0  0  0  0  0  0
   71.7228   38.0365   -0.6799 C   0  0  0  0  0  0  0  0  0  0  0  0
   72.3818   37.7429   -1.8749 C   0  0  0  0  0  0  0  0  0  0  0  0
   73.5999   37.0619   -1.9310 C   0  0  0  0  0  0  0  0  0  0  0  0
   74.2167   36.6123   -0.7711 C   0  0  0  0  0  0  0  0  0  0  0  0
   73.5779   36.8922    0.4310 C   0  0  0  0  0  0  0  0  0  0  0  0
   72.3648   37.5845    0.4906 C   0  0  0  0  0  0  0  0  0  0  0  0
   71.6829   37.8187    2.1004 S   0  0  0  0  0  0  0  0  0  0  0  0
   71.5000   39.3041    2.1764 O   0  0  0  0  0  0  0  0  0  0  0  0
   70.4097   37.1057    2.2123 O   0  0  0  0  0  0  0  0  0  0  0  0
   72.8853   37.2858    3.3019 C   0  0  0  0  0  0  0  0  0  0  0  0
   66.9455   38.9242   -1.0951 C   0  0  0  0  0  0  0  0  0  0  0  0
   66.1548   39.8956   -1.0393 O   0  0  0  0  0  0  0  0  0  0  0  0
   66.3427   37.5292   -1.2582 C   0  0  0  0  0  0  0  0  0  0  0  0
   71.5005   43.4719   -1.2482 O   0  0  0  0  0  0  0  0  0  0  0  0
   72.8991   43.3454   -0.8935 C   0  0  0  0  0  0  0  0  0  0  0  0
   72.3877   45.7972   -0.5383 C   0  0  0  0  0  0  0  0  0  0  0  0
   73.3790   44.6635   -0.2205 C   0  0  0  0  0  0  0  0  0  0  0  0
 12 11  2  0  0  0
 12 13  1  0  0  0
 11 10  1  0  0  0
 21 20  2  0  0  0
  4  5  2  0  0  0
  4  1  1  0  0  0
  5  6  1  0  0  0
 23  1  1  0  0  0
 23 24  1  0  0  0
 20 22  1  0  0  0
 20  7  1  0  0  0
  1  2  2  0  0  0
  6  7  1  0  0  0
  6  3  1  0  0  0
  7  8  2  0  0  0
 24 26  1  0  0  0
  2  3  1  0  0  0
 26 25  1  0  0  0
  3  9  2  0  0  0
  8  9  1  0  0  0
  9 10  1  0  0  0
 13 14  2  0  0  0
 10 15  2  0  0  0
 14 15  1  0  0  0
 15 16  1  0  0  0
 16 19  1  0  0  0
 16 18  2  0  0  0
 16 17  2  0  0  0
M  END
> <minimizedAffinity>
-7.17508

$$$$
4RVR_3WQ_A_2001


 26 28  0  0  0  0  0  0  0  0999 V2000
   70.7399   42.6264   -1.3499 C   0  0  0  0  0  0  0  0  0  0  0  0
   71.2483   41.5026   -0.6528 C   0  0  0  0  0  0  0  0  0  0  0  0
   70.4746   40.4116   -0.4701 C   0  0  0  0  0  0  0  0  0  0  0  0
   69.4433   42.6086   -1.8639 C   0  0  0  0  0  0  0  0  0  0  0  0
   68.6628   41.4841   -1.6940 C   0  0  0  0  0  0  0  0  0  0  0  0
   69.2247   40.4022   -0.9718 N   0  0  0  0  0  0  0  0  0  0  0  0
   68.6339   39.1969   -0.7140 C   0  0  0  0  0  0  0  0  0  0  0  0
   69.5426   38.4652   -0.0160 C   0  0  0  0  0  0  0  0  0  0  0  0
   70.6875   39.2199    0.1125 C   0  0  0  0  0  0  0  0  0  0  0  0
   71.8741   38.8108    0.6698 C   0  0  0  0  0  0  0  0  0  0  0  0
   72.0623   39.0552    2.0312 C   0  0  0  0  0  0  0  0  0  0  0  0
   73.2381   38.7321    2.7123 C   0  0  0  0  0  0  0  0  0  0  0  0
   74.3119   38.1592    2.0440 C   0  0  0  0  0  0  0  0  0  0  0  0
   74.1476   37.9079    0.6871 C   0  0  0  0  0  0  0  0  0  0  0  0
   72.9673   38.2190    0.0057 C   0  0  0  0  0  0  0  0  0  0  0  0
   72.9507   37.8614   -1.7215 S   0  0  0  0  0  0  0  0  0  0  0  0
   74.0360   36.8381   -1.8645 O   0  0  0  0  0  0  0  0  0  0  0  0
   71.6438   37.3286   -2.1089 O   0  0  0  0  0  0  0  0  0  0  0  0
   73.3856   39.3454   -2.6058 C   0  0  0  0  0  0  0  0  0  0  0  0
   67.3272   38.8742   -1.0923 C   0  0  0  0  0  0  0  0  0  0  0  0
   66.3847   39.6987   -1.1546 O   0  0  0  0  0  0  0  0  0  0  0  0
   67.0166   37.4169   -1.4322 C   0  0  0  0  0  0  0  0  0  0  0  0
   71.4688   43.7796   -1.5802 O   0  0  0  0  0  0  0  0  0  0  0  0
   72.7194   43.9638   -0.8731 C   0  0  0  0  0  0  0  0  0  0  0  0
   71.7350   46.2914   -0.9843 C   0  0  0  0  0  0  0  0  0  0  0  0
   72.7589   45.3952   -0.2649 C   0  0  0  0  0  0  0  0  0  0  0  0
 12 11  2  0  0  0
 12 13  1  0  0  0
 11 10  1  0  0  0
 21 20  2  0  0  0
  4  5  2  0  0  0
  4  1  1  0  0  0
  5  6  1  0  0  0
 23  1  1  0  0  0
 23 24  1  0  0  0
 20 22  1  0  0  0
 20  7  1  0  0  0
  1  2  2  0  0  0
  6  7  1  0  0  0
  6  3  1  0  0  0
  7  8  2  0  0  0
 24 26  1  0  0  0
  2  3  1  0  0  0
 26 25  1  0  0  0
  3  9  2  0  0  0
  8  9  1  0  0  0
  9 10  1  0  0  0
 13 14  2  0  0  0
 10 15  2  0  0  0
 14 15  1  0  0  0
 15 16  1  0  0  0
 16 19  1  0  0  0
 16 18  2  0  0  0
 16 17  2  0  0  0
M  END
> <minimizedAffinity>
-6.73908

$$$$
4RVR_3WQ_A_2001


 26 28  0  0  0  0  0  0  0  0999 V2000
   69.2199   41.0724   -1.2402 C   0  0  0  0  0  0  0  0  0  0  0  0
   70.2731   40.1471   -1.0351 C   0  0  0  0  0  0  0  0  0  0  0  0
   71.5522   40.5761   -0.9872 C   0  0  0  0  0  0  0  0  0  0  0  0
   69.4952   42.4327   -1.3799 C   0  0  0  0  0  0  0  0  0  0  0  0
   70.8013   42.8702   -1.3092 C   0  0  0  0  0  0  0  0  0  0  0  0
   71.8085   41.8916   -1.1207 N   0  0  0  0  0  0  0  0  0  0  0  0
   73.1517   42.1137   -0.9999 C   0  0  0  0  0  0  0  0  0  0  0  0
   73.7271   40.8963   -0.8120 C   0  0  0  0  0  0  0  0  0  0  0  0
   72.7248   39.9521   -0.7857 C   0  0  0  0  0  0  0  0  0  0  0  0
   72.8750   38.6123   -0.5242 C   0  0  0  0  0  0  0  0  0  0  0  0
   72.8876   37.7422   -1.6158 C   0  0  0  0  0  0  0  0  0  0  0  0
   72.9879   36.3550   -1.4888 C   0  0  0  0  0  0  0  0  0  0  0  0
   73.0577   35.7593   -0.2365 C   0  0  0  0  0  0  0  0  0  0  0  0
   73.0456   36.6061    0.8653 C   0  0  0  0  0  0  0  0  0  0  0  0
   72.9576   37.9957    0.7405 C   0  0  0  0  0  0  0  0  0  0  0  0
   72.9201   38.9098    2.2486 S   0  0  0  0  0  0  0  0  0  0  0  0
   74.1714   39.7312    2.1763 O   0  0  0  0  0  0  0  0  0  0  0  0
   71.7202   39.7465    2.2960 O   0  0  0  0  0  0  0  0  0  0  0  0
   73.0184   37.7590    3.6047 C   0  0  0  0  0  0  0  0  0  0  0  0
   73.7441   43.3758   -1.1049 C   0  0  0  0  0  0  0  0  0  0  0  0
   74.0155   43.9418   -2.1902 O   0  0  0  0  0  0  0  0  0  0  0  0
   74.1072   44.1089    0.1861 C   0  0  0  0  0  0  0  0  0  0  0  0
   67.8851   40.7135   -1.2996 O   0  0  0  0  0  0  0  0  0  0  0  0
   67.5298   39.3238   -1.0990 C   0  0  0  0  0  0  0  0  0  0  0  0
   65.4511   37.8833   -1.1550 C   0  0  0  0  0  0  0  0  0  0  0  0
   66.0315   39.2310   -0.6904 C   0  0  0  0  0  0  0  0  0  0  0  0
 12 11  2  0  0  0
 12 13  1  0  0  0
 11 10  1  0  0  0
 21 20  2  0  0  0
  4  5  2  0  0  0
  4  1  1  0  0  0
  5  6  1  0  0  0
 23  1  1  0  0  0
 23 24  1  0  0  0
 20 22  1  0  0  0
 20  7  1  0  0  0
  1  2  2  0  0  0
  6  7  1  0  0  0
  6  3  1  0  0  0
  7  8  2  0  0  0
 24 26  1  0  0  0
  2  3  1  0  0  0
 26 25  1  0  0  0
  3  9  2  0  0  0
  8  9  1  0  0  0
  9 10  1  0  0  0
 13 14  2  0  0  0
 10 15  2  0  0  0
 14 15  1  0  0  0
 15 16  1  0  0  0
 16 19  1  0  0  0
 16 18  2  0  0  0
 16 17  2  0  0  0
M  END
> <minimizedAffinity>
-6.35195

$$$$
4RVR_3WQ_A_2001


 26 28  0  0  0  0  0  0  0  0999 V2000
   69.3829   40.5137   -0.4072 C   0  0  0  0  0  0  0  0  0  0  0  0
   70.4120   39.7181    0.1542 C   0  0  0  0  0  0  0  0  0  0  0  0
   71.6899   40.1531    0.1383 C   0  0  0  0  0  0  0  0  0  0  0  0
   69.6797   41.7564   -0.9670 C   0  0  0  0  0  0  0  0  0  0  0  0
   70.9832   42.2073   -0.9625 C   0  0  0  0  0  0  0  0  0  0  0  0
   71.9670   41.3553   -0.4022 N   0  0  0  0  0  0  0  0  0  0  0  0
   73.3022   41.6195   -0.2778 C   0  0  0  0  0  0  0  0  0  0  0  0
   73.8527   40.5370    0.3334 C   0  0  0  0  0  0  0  0  0  0  0  0
   72.8414   39.6424    0.6050 C   0  0  0  0  0  0  0  0  0  0  0  0
   72.9619   38.4636    1.2992 C   0  0  0  0  0  0  0  0  0  0  0  0
   72.8436   38.5215    2.6889 C   0  0  0  0  0  0  0  0  0  0  0  0
   72.9897   37.4067    3.5175 C   0  0  0  0  0  0  0  0  0  0  0  0
   73.2909   36.1602    2.9852 C   0  0  0  0  0  0  0  0  0  0  0  0
   73.4147   36.0788    1.6034 C   0  0  0  0  0  0  0  0  0  0  0  0
   73.2568   37.1906    0.7709 C   0  0  0  0  0  0  0  0  0  0  0  0
   73.4841   36.9066   -0.9552 S   0  0  0  0  0  0  0  0  0  0  0  0
   74.5524   37.8917   -1.3212 O   0  0  0  0  0  0  0  0  0  0  0  0
   73.9138   35.5261   -1.1820 O   0  0  0  0  0  0  0  0  0  0  0  0
   71.9650   37.3080   -1.7946 C   0  0  0  0  0  0  0  0  0  0  0  0
   73.9125   42.7842   -0.7530 C   0  0  0  0  0  0  0  0  0  0  0  0
   74.2753   42.9588   -1.9404 O   0  0  0  0  0  0  0  0  0  0  0  0
   74.1771   43.9141    0.2416 C   0  0  0  0  0  0  0  0  0  0  0  0
   68.0508   40.1405   -0.4284 O   0  0  0  0  0  0  0  0  0  0  0  0
   67.5641   39.3664   -1.5517 C   0  0  0  0  0  0  0  0  0  0  0  0
   65.5872   37.8694   -1.0519 C   0  0  0  0  0  0  0  0  0  0  0  0
   67.1237   37.9599   -1.0532 C   0  0  0  0  0  0  0  0  0  0  0  0
 12 11  2  0  0  0
 12 13  1  0  0  0
 11 10  1  0  0  0
 21 20  2  0  0  0
  4  5  2  0  0  0
  4  1  1  0  0  0
  5  6  1  0  0  0
 23  1  1  0  0  0
 23 24  1  0  0  0
 20 22  1  0  0  0
 20  7  1  0  0  0
  1  2  2  0  0  0
  6  7  1  0  0  0
  6  3  1  0  0  0
  7  8  2  0  0  0
 24 26  1  0  0  0
  2  3  1  0  0  0
 26 25  1  0  0  0
  3  9  2  0  0  0
  8  9  1  0  0  0
  9 10  1  0  0  0
 13 14  2  0  0  0
 10 15  2  0  0  0
 14 15  1  0  0  0
 15 16  1  0  0  0
 16 19  1  0  0  0
 16 18  2  0  0  0
 16 17  2  0  0  0
M  END
> <minimizedAffinity>
-6.21397

$$$$
4RVR_3WQ_A_2001


 26 28  0  0  0  0  0  0  0  0999 V2000
   72.8116   42.2798   -0.7340 C   0  0  0  0  0  0  0  0  0  0  0  0
   72.7457   41.0315   -0.0671 C   0  0  0  0  0  0  0  0  0  0  0  0
   71.5878   40.3379   -0.0401 C   0  0  0  0  0  0  0  0  0  0  0  0
   71.6864   42.7939   -1.3786 C   0  0  0  0  0  0  0  0  0  0  0  0
   70.5108   42.0726   -1.3673 C   0  0  0  0  0  0  0  0  0  0  0  0
   70.5070   40.8407   -0.6672 N   0  0  0  0  0  0  0  0  0  0  0  0
   69.4615   39.9675   -0.5547 C   0  0  0  0  0  0  0  0  0  0  0  0
   69.9150   38.9181    0.1811 C   0  0  0  0  0  0  0  0  0  0  0  0
   71.2400   39.1482    0.4781 C   0  0  0  0  0  0  0  0  0  0  0  0
   72.0911   38.2862    1.1250 C   0  0  0  0  0  0  0  0  0  0  0  0
   72.1742   38.3879    2.5148 C   0  0  0  0  0  0  0  0  0  0  0  0
   73.0319   37.6046    3.2904 C   0  0  0  0  0  0  0  0  0  0  0  0
   73.8814   36.6804    2.6973 C   0  0  0  0  0  0  0  0  0  0  0  0
   73.8169   36.5626    1.3140 C   0  0  0  0  0  0  0  0  0  0  0  0
   72.9506   37.3367    0.5365 C   0  0  0  0  0  0  0  0  0  0  0  0
   73.0296   37.0767   -1.2063 S   0  0  0  0  0  0  0  0  0  0  0  0
   73.6295   35.7078   -1.3162 O   0  0  0  0  0  0  0  0  0  0  0  0
   71.6847   37.1309   -1.7811 O   0  0  0  0  0  0  0  0  0  0  0  0
   74.1329   38.2884   -1.9048 C   0  0  0  0  0  0  0  0  0  0  0  0
   68.1903   40.2034   -1.0866 C   0  0  0  0  0  0  0  0  0  0  0  0
   67.7507   39.6694   -2.1323 O   0  0  0  0  0  0  0  0  0  0  0  0
   67.2801   41.1939   -0.3611 C   0  0  0  0  0  0  0  0  0  0  0  0
   73.9589   43.0494   -0.8085 O   0  0  0  0  0  0  0  0  0  0  0  0
   74.9587   42.9081    0.2299 C   0  0  0  0  0  0  0  0  0  0  0  0
   76.8602   44.1379    1.3572 C   0  0  0  0  0  0  0  0  0  0  0  0
   75.5514   44.3070    0.5651 C   0  0  0  0  0  0  0  0  0  0  0  0
 12 11  2  0  0  0
 12 13  1  0  0  0
 11 10  1  0  0  0
 21 20  2  0  0  0
  4  5  2  0  0  0
  4  1  1  0  0  0
  5  6  1  0  0  0
 23  1  1  0  0  0
 23 24  1  0  0  0
 20 22  1  0  0  0
 20  7  1  0  0  0
  1  2  2  0  0  0
  6  7  1  0  0  0
  6  3  1  0  0  0
  7  8  2  0  0  0
 24 26  1  0  0  0
  2  3  1  0  0  0
 26 25  1  0  0  0
  3  9  2  0  0  0
  8  9  1  0  0  0
  9 10  1  0  0  0
 13 14  2  0  0  0
 10 15  2  0  0  0
 14 15  1  0  0  0
 15 16  1  0  0  0
 16 19  1  0  0  0
 16 18  2  0  0  0
 16 17  2  0  0  0
M  END
> <minimizedAffinity>
-6.12574

$$$$
4RVR_3WQ_A_2001


 26 28  0  0  0  0  0  0  0  0999 V2000
   70.4444   38.3376   -1.0004 C   0  0  0  0  0  0  0  0  0  0  0  0
   71.7020   37.6914   -1.0927 C   0  0  0  0  0  0  0  0  0  0  0  0
   72.8136   38.3032   -0.6318 C   0  0  0  0  0  0  0  0  0  0  0  0
   70.3437   39.6024   -0.4209 C   0  0  0  0  0  0  0  0  0  0  0  0
   71.4781   40.2156    0.0683 C   0  0  0  0  0  0  0  0  0  0  0  0
   72.7066   39.5234   -0.0717 N   0  0  0  0  0  0  0  0  0  0  0  0
   73.9336   39.9397    0.3634 C   0  0  0  0  0  0  0  0  0  0  0  0
   74.8117   38.9548    0.0361 C   0  0  0  0  0  0  0  0  0  0  0  0
   74.1040   37.9361   -0.5625 C   0  0  0  0  0  0  0  0  0  0  0  0
   74.6041   36.7192   -0.9562 C   0  0  0  0  0  0  0  0  0  0  0  0
   75.2179   36.6516   -2.2082 C   0  0  0  0  0  0  0  0  0  0  0  0
   75.7277   35.4690   -2.7488 C   0  0  0  0  0  0  0  0  0  0  0  0
   75.6238   34.2691   -2.0579 C   0  0  0  0  0  0  0  0  0  0  0  0
   75.0150   34.3121   -0.8093 C   0  0  0  0  0  0  0  0  0  0  0  0
   74.5149   35.4966   -0.2607 C   0  0  0  0  0  0  0  0  0  0  0  0
   73.7436   35.3554    1.3194 S   0  0  0  0  0  0  0  0  0  0  0  0
   74.3719   36.4682    2.1021 O   0  0  0  0  0  0  0  0  0  0  0  0
   72.2967   35.5308    1.1865 O   0  0  0  0  0  0  0  0  0  0  0  0
   74.1906   33.7811    2.0232 C   0  0  0  0  0  0  0  0  0  0  0  0
   74.1634   41.1741    0.9784 C   0  0  0  0  0  0  0  0  0  0  0  0
   74.1271   42.2779    0.3849 O   0  0  0  0  0  0  0  0  0  0  0  0
   74.5035   41.1823    2.4685 C   0  0  0  0  0  0  0  0  0  0  0  0
   69.2605   37.7779   -1.4469 O   0  0  0  0  0  0  0  0  0  0  0  0
   68.0138   38.4406   -1.1240 C   0  0  0  0  0  0  0  0  0  0  0  0
   65.5039   38.1412   -1.0234 C   0  0  0  0  0  0  0  0  0  0  0  0
   66.8465   37.4174   -1.2298 C   0  0  0  0  0  0  0  0  0  0  0  0
 12 11  2  0  0  0
 12 13  1  0  0  0
 11 10  1  0  0  0
 21 20  2  0  0  0
  4  5  2  0  0  0
  4  1  1  0  0  0
  5  6  1  0  0  0
 23  1  1  0  0  0
 23 24  1  0  0  0
 20 22  1  0  0  0
 20  7  1  0  0  0
  1  2  2  0  0  0
  6  7  1  0  0  0
  6  3  1  0  0  0
  7  8  2  0  0  0
 24 26  1  0  0  0
  2  3  1  0  0  0
 26 25  1  0  0  0
  3  9  2  0  0  0
  8  9  1  0  0  0
  9 10  1  0  0  0
 13 14  2  0  0  0
 10 15  2  0  0  0
 14 15  1  0  0  0
 15 16  1  0  0  0
 16 19  1  0  0  0
 16 18  2  0  0  0
 16 17  2  0  0  0
M  END
> <minimizedAffinity>
-6.02774

$$$$
4RVR_3WQ_A_2001


 26 28  0  0  0  0  0  0  0  0999 V2000
   70.0561   38.3962   -0.1246 C   0  0  0  0  0  0  0  0  0  0  0  0
   71.0618   38.9014   -0.9852 C   0  0  0  0  0  0  0  0  0  0  0  0
   72.3553   38.8848   -0.5990 C   0  0  0  0  0  0  0  0  0  0  0  0
   70.3957   37.8660    1.1201 C   0  0  0  0  0  0  0  0  0  0  0  0
   71.7204   37.8311    1.5028 C   0  0  0  0  0  0  0  0  0  0  0  0
   72.6743   38.3690    0.6036 N   0  0  0  0  0  0  0  0  0  0  0  0
   74.0294   38.4100    0.7776 C   0  0  0  0  0  0  0  0  0  0  0  0
   74.5428   38.9887   -0.3404 C   0  0  0  0  0  0  0  0  0  0  0  0
   73.4985   39.2610   -1.1960 C   0  0  0  0  0  0  0  0  0  0  0  0
   73.5996   39.7599   -2.4714 C   0  0  0  0  0  0  0  0  0  0  0  0
   73.8574   38.8504   -3.4985 C   0  0  0  0  0  0  0  0  0  0  0  0
   74.0285   39.2287   -4.8320 C   0  0  0  0  0  0  0  0  0  0  0  0
   73.9722   40.5651   -5.2044 C   0  0  0  0  0  0  0  0  0  0  0  0
   73.7178   41.4891   -4.1979 C   0  0  0  0  0  0  0  0  0  0  0  0
   73.5340   41.1119   -2.8645 C   0  0  0  0  0  0  0  0  0  0  0  0
   73.2555   42.4232   -1.7180 S   0  0  0  0  0  0  0  0  0  0  0  0
   73.1879   43.6332   -2.5996 O   0  0  0  0  0  0  0  0  0  0  0  0
   72.0000   42.2006   -0.9996 O   0  0  0  0  0  0  0  0  0  0  0  0
   74.6658   42.5305   -0.6351 C   0  0  0  0  0  0  0  0  0  0  0  0
   74.6796   37.9619    1.9313 C   0  0  0  0  0  0  0  0  0  0  0  0
   75.0012   36.7689    2.1440 O   0  0  0  0  0  0  0  0  0  0  0  0
   75.0023   38.9866    3.0183 C   0  0  0  0  0  0  0  0  0  0  0  0
   68.7108   38.3757   -0.4470 O   0  0  0  0  0  0  0  0  0  0  0  0
   68.2098   39.3452   -1.3993 C   0  0  0  0  0  0  0  0  0  0  0  0
   68.2117   41.6764   -0.4174 C   0  0  0  0  0  0  0  0  0  0  0  0
   67.3637   40.4128   -0.6477 C   0  0  0  0  0  0  0  0  0  0  0  0
 12 11  2  0  0  0
 12 13  1  0  0  0
 11 10  1  0  0  0
 21 20  2  0  0  0
  4  5  2  0  0  0
  4  1  1  0  0  0
  5  6  1  0  0  0
 23  1  1  0  0  0
 23 24  1  0  0  0
 20 22  1  0  0  0
 20  7  1  0  0  0
  1  2  2  0  0  0
  6  7  1  0  0  0
  6  3  1  0  0  0
  7  8  2  0  0  0
 24 26  1  0  0  0
  2  3  1  0  0  0
 26 25  1  0  0  0
  3  9  2  0  0  0
  8  9  1  0  0  0
  9 10  1  0  0  0
 13 14  2  0  0  0
 10 15  2  0  0  0
 14 15  1  0  0  0
 15 16  1  0  0  0
 16 19  1  0  0  0
 16 18  2  0  0  0
 16 17  2  0  0  0
M  END
> <minimizedAffinity>
-5.89288

$$$$
4RVR_3WQ_A_2001


 26 28  0  0  0  0  0  0  0  0999 V2000
   70.5722   39.1128    0.5392 C   0  0  0  0  0  0  0  0  0  0  0  0
   71.8444   39.7189    0.6856 C   0  0  0  0  0  0  0  0  0  0  0  0
   72.7983   39.1208    1.4306 C   0  0  0  0  0  0  0  0  0  0  0  0
   70.3008   37.8890    1.1511 C   0  0  0  0  0  0  0  0  0  0  0  0
   71.2845   37.2702    1.8939 C   0  0  0  0  0  0  0  0  0  0  0  0
   72.5282   37.9381    2.0158 N   0  0  0  0  0  0  0  0  0  0  0  0
   73.6348   37.4903    2.6815 C   0  0  0  0  0  0  0  0  0  0  0  0
   74.5937   38.4395    2.5148 C   0  0  0  0  0  0  0  0  0  0  0  0
   74.0713   39.4366    1.7211 C   0  0  0  0  0  0  0  0  0  0  0  0
   74.7460   40.5315    1.2395 C   0  0  0  0  0  0  0  0  0  0  0  0
   74.6655   41.7124    1.9796 C   0  0  0  0  0  0  0  0  0  0  0  0
   75.2652   42.9090    1.5809 C   0  0  0  0  0  0  0  0  0  0  0  0
   75.9683   42.9879    0.3862 C   0  0  0  0  0  0  0  0  0  0  0  0
   76.0606   41.8244   -0.3682 C   0  0  0  0  0  0  0  0  0  0  0  0
   75.4717   40.6223    0.0347 C   0  0  0  0  0  0  0  0  0  0  0  0
   75.6625   39.2571   -1.0659 S   0  0  0  0  0  0  0  0  0  0  0  0
   76.7541   39.7148   -1.9849 O   0  0  0  0  0  0  0  0  0  0  0  0
   76.0466   38.0605   -0.3158 O   0  0  0  0  0  0  0  0  0  0  0  0
   74.1429   39.0506   -1.9723 C   0  0  0  0  0  0  0  0  0  0  0  0
   73.6762   36.2955    3.4062 C   0  0  0  0  0  0  0  0  0  0  0  0
   73.5108   36.2142    4.6464 O   0  0  0  0  0  0  0  0  0  0  0  0
   73.9637   35.0023    2.6441 C   0  0  0  0  0  0  0  0  0  0  0  0
   69.5439   39.6599   -0.2075 O   0  0  0  0  0  0  0  0  0  0  0  0
   69.6983   41.0052   -0.7214 C   0  0  0  0  0  0  0  0  0  0  0  0
   67.1925   40.6602   -0.6925 C   0  0  0  0  0  0  0  0  0  0  0  0
   68.3371   41.4950   -1.2940 C   0  0  0  0  0  0  0  0  0  0  0  0
 12 11  2  0  0  0
 12 13  1  0  0  0
 11 10  1  0  0  0
 21 20  2  0  0  0
  4  5  2  0  0  0
  4  1  1  0  0  0
  5  6  1  0  0  0
 23  1  1  0  0  0
 23 24  1  0  0  0
 20 22  1  0  0  0
 20  7  1  0  0  0
  1  2  2  0  0  0
  6  7  1  0  0  0
  6  3  1  0  0  0
  7  8  2  0  0  0
 24 26  1  0  0  0
  2  3  1  0  0  0
 26 25  1  0  0  0
  3  9  2  0  0  0
  8  9  1  0  0  0
  9 10  1  0  0  0
 13 14  2  0  0  0
 10 15  2  0  0  0
 14 15  1  0  0  0
 15 16  1  0  0  0
 16 19  1  0  0  0
 16 18  2  0  0  0
 16 17  2  0  0  0
M  END
> <minimizedAffinity>
-5.70059

$$$$
