5MPZ_4I8_A_1201


 15 16  0  0  0  0  0  0  0  0999 V2000
    1.5440   22.0490   73.6527 C   0  0  0  0  0  0  0  0  0  0  0  0
    1.3960   21.2420   72.5392 C   0  0  0  0  0  0  0  0  0  0  0  0
   -0.3827   21.0019   74.5966 C   0  0  0  0  0  0  0  0  0  0  0  0
    0.6444   21.9363   74.6999 C   0  0  0  0  0  0  0  0  0  0  0  0
   -0.9853   18.8461   71.9180 C   0  0  0  0  0  0  0  0  0  0  0  0
    0.3999   20.3671   72.4809 C   0  0  0  0  0  0  0  0  0  0  0  0
   -0.4730   20.2473   73.4942 C   0  0  0  0  0  0  0  0  0  0  0  0
    0.0867   19.5027   71.5107 N   0  0  0  0  0  0  0  0  0  0  0  0
   -1.5514   17.9700   71.2681 O   0  0  0  0  0  0  0  0  0  0  0  0
   -1.3603   19.2864   73.1529 O   0  0  0  0  0  0  0  0  0  0  0  0
    0.5625   19.3791   70.6577 H   0  0  0  0  0  0  0  0  0  0  0  0
    0.8367   22.7532   75.8171 C   0  0  0  0  0  0  0  0  0  0  0  0
    1.7808   23.5418   75.9267 O   0  0  0  0  0  0  0  0  0  0  0  0
   -0.2265   23.6850   77.6993 C   0  0  0  0  0  0  0  0  0  0  0  0
   -0.1993   22.6663   76.7011 O   0  0  0  0  0  0  0  0  0  0  0  0
 14 15  1  0  0  0
 15 12  1  0  0  0
 13 12  2  0  0  0
 12  4  1  0  0  0
  4  1  2  0  0  0
  4  3  1  0  0  0
  1  2  1  0  0  0
  3  7  2  0  0  0
  2  6  2  0  0  0
  7  6  1  0  0  0
  7 10  1  0  0  0
  6  8  1  0  0  0
 10  5  1  0  0  0
  8  5  1  0  0  0
  5  9  2  0  0  0
  8 11  1  0  0  0
M  END
> <minimizedAffinity>
-6.42346

$$$$
5MPZ_4I8_A_1201


 15 16  0  0  0  0  0  0  0  0999 V2000
    1.4344   22.0122   73.7435 C   0  0  0  0  0  0  0  0  0  0  0  0
    1.3866   21.2352   72.6002 C   0  0  0  0  0  0  0  0  0  0  0  0
   -0.5255   20.8906   74.5184 C   0  0  0  0  0  0  0  0  0  0  0  0
    0.4666   21.8464   74.7205 C   0  0  0  0  0  0  0  0  0  0  0  0
   -0.8805   18.8010   71.7447 C   0  0  0  0  0  0  0  0  0  0  0  0
    0.4207   20.3383   72.4468 C   0  0  0  0  0  0  0  0  0  0  0  0
   -0.5179   20.1670   73.3918 C   0  0  0  0  0  0  0  0  0  0  0  0
    0.1997   19.4956   71.4331 N   0  0  0  0  0  0  0  0  0  0  0  0
   -1.3759   17.9309   71.0321 O   0  0  0  0  0  0  0  0  0  0  0  0
   -1.3530   19.1952   72.9616 O   0  0  0  0  0  0  0  0  0  0  0  0
    0.7375   19.4090   70.6131 H   0  0  0  0  0  0  0  0  0  0  0  0
    0.5579   22.6344   75.8708 C   0  0  0  0  0  0  0  0  0  0  0  0
   -0.2687   22.5954   76.7875 O   0  0  0  0  0  0  0  0  0  0  0  0
    2.1890   23.6577   77.2250 C   0  0  0  0  0  0  0  0  0  0  0  0
    1.7208   23.3472   75.9137 O   0  0  0  0  0  0  0  0  0  0  0  0
 14 15  1  0  0  0
 15 12  1  0  0  0
 13 12  2  0  0  0
 12  4  1  0  0  0
  4  1  2  0  0  0
  4  3  1  0  0  0
  1  2  1  0  0  0
  3  7  2  0  0  0
  2  6  2  0  0  0
  7  6  1  0  0  0
  7 10  1  0  0  0
  6  8  1  0  0  0
 10  5  1  0  0  0
  8  5  1  0  0  0
  5  9  2  0  0  0
  8 11  1  0  0  0
M  END
> <minimizedAffinity>
-6.39687

$$$$
5MPZ_4I8_A_1201


 15 16  0  0  0  0  0  0  0  0999 V2000
    0.9477   20.8729   72.6556 C   0  0  0  0  0  0  0  0  0  0  0  0
    1.5216   21.8292   73.4737 C   0  0  0  0  0  0  0  0  0  0  0  0
   -0.7315   20.5399   74.3197 C   0  0  0  0  0  0  0  0  0  0  0  0
   -0.1937   20.2115   73.0781 C   0  0  0  0  0  0  0  0  0  0  0  0
    0.5028   22.9031   76.5730 C   0  0  0  0  0  0  0  0  0  0  0  0
    0.9778   22.1084   74.6516 C   0  0  0  0  0  0  0  0  0  0  0  0
   -0.1321   21.4761   75.0660 C   0  0  0  0  0  0  0  0  0  0  0  0
    1.3680   22.9893   75.5779 N   0  0  0  0  0  0  0  0  0  0  0  0
    0.5587   23.5733   77.6016 O   0  0  0  0  0  0  0  0  0  0  0  0
   -0.4470   21.9680   76.2850 O   0  0  0  0  0  0  0  0  0  0  0  0
    2.1490   23.5867   75.5285 H   0  0  0  0  0  0  0  0  0  0  0  0
   -0.7574   19.2663   72.2171 C   0  0  0  0  0  0  0  0  0  0  0  0
   -1.8114   18.6703   72.4601 O   0  0  0  0  0  0  0  0  0  0  0  0
   -0.0277   17.8705   70.4676 C   0  0  0  0  0  0  0  0  0  0  0  0
   -0.0784   19.1777   71.0367 O   0  0  0  0  0  0  0  0  0  0  0  0
 14 15  1  0  0  0
 15 12  1  0  0  0
 13 12  2  0  0  0
 12  4  1  0  0  0
  4  1  2  0  0  0
  4  3  1  0  0  0
  1  2  1  0  0  0
  3  7  2  0  0  0
  2  6  2  0  0  0
  7  6  1  0  0  0
  7 10  1  0  0  0
  6  8  1  0  0  0
 10  5  1  0  0  0
  8  5  1  0  0  0
  5  9  2  0  0  0
  8 11  1  0  0  0
M  END
> <minimizedAffinity>
-6.33642

$$$$
5MPZ_4I8_A_1201


 15 16  0  0  0  0  0  0  0  0999 V2000
   -0.9040   20.6650   74.9394 C   0  0  0  0  0  0  0  0  0  0  0  0
   -0.3845   21.4754   75.9326 C   0  0  0  0  0  0  0  0  0  0  0  0
    0.9284   21.2963   73.5454 C   0  0  0  0  0  0  0  0  0  0  0  0
   -0.2464   20.5706   73.7240 C   0  0  0  0  0  0  0  0  0  0  0  0
    2.4573   23.4034   75.8710 C   0  0  0  0  0  0  0  0  0  0  0  0
    0.7363   22.1528   75.7183 C   0  0  0  0  0  0  0  0  0  0  0  0
    1.3834   22.0621   74.5451 C   0  0  0  0  0  0  0  0  0  0  0  0
    1.3984   22.9766   76.5365 N   0  0  0  0  0  0  0  0  0  0  0  0
    3.2923   24.1843   76.3218 O   0  0  0  0  0  0  0  0  0  0  0  0
    2.4781   22.8510   74.6245 O   0  0  0  0  0  0  0  0  0  0  0  0
    1.1461   23.2186   77.4568 H   0  0  0  0  0  0  0  0  0  0  0  0
   -0.7892   19.7269   72.7513 C   0  0  0  0  0  0  0  0  0  0  0  0
   -1.8632   19.1334   72.8906 O   0  0  0  0  0  0  0  0  0  0  0  0
    0.3127   18.4529   71.1069 C   0  0  0  0  0  0  0  0  0  0  0  0
   -0.0615   19.7393   71.5970 O   0  0  0  0  0  0  0  0  0  0  0  0
 14 15  1  0  0  0
 15 12  1  0  0  0
 13 12  2  0  0  0
 12  4  1  0  0  0
  4  1  2  0  0  0
  4  3  1  0  0  0
  1  2  1  0  0  0
  3  7  2  0  0  0
  2  6  2  0  0  0
  7  6  1  0  0  0
  7 10  1  0  0  0
  6  8  1  0  0  0
 10  5  1  0  0  0
  8  5  1  0  0  0
  5  9  2  0  0  0
  8 11  1  0  0  0
M  END
> <minimizedAffinity>
-6.08540

$$$$
5MPZ_4I8_A_1201


 15 16  0  0  0  0  0  0  0  0999 V2000
    0.5123   22.0150   75.7291 C   0  0  0  0  0  0  0  0  0  0  0  0
   -0.4989   21.1456   75.3617 C   0  0  0  0  0  0  0  0  0  0  0  0
    1.5649   21.5872   73.6295 C   0  0  0  0  0  0  0  0  0  0  0  0
    1.5649   22.2426   74.8580 C   0  0  0  0  0  0  0  0  0  0  0  0
   -0.8476   19.3566   72.4506 C   0  0  0  0  0  0  0  0  0  0  0  0
   -0.4569   20.5391   74.1822 C   0  0  0  0  0  0  0  0  0  0  0  0
    0.5567   20.7587   73.3293 C   0  0  0  0  0  0  0  0  0  0  0  0
   -1.3237   19.6776   73.6408 N   0  0  0  0  0  0  0  0  0  0  0  0
   -1.3923   18.5771   71.6722 O   0  0  0  0  0  0  0  0  0  0  0  0
    0.3251   20.0147   72.2248 O   0  0  0  0  0  0  0  0  0  0  0  0
   -2.1558   19.3463   74.0496 H   0  0  0  0  0  0  0  0  0  0  0  0
    2.5578   23.1423   75.2541 C   0  0  0  0  0  0  0  0  0  0  0  0
    2.3245   24.1708   75.8967 O   0  0  0  0  0  0  0  0  0  0  0  0
    4.8667   23.6013   75.2481 C   0  0  0  0  0  0  0  0  0  0  0  0
    3.8101   22.6875   74.9587 O   0  0  0  0  0  0  0  0  0  0  0  0
 14 15  1  0  0  0
 15 12  1  0  0  0
 13 12  2  0  0  0
 12  4  1  0  0  0
  4  1  2  0  0  0
  4  3  1  0  0  0
  1  2  1  0  0  0
  3  7  2  0  0  0
  2  6  2  0  0  0
  7  6  1  0  0  0
  7 10  1  0  0  0
  6  8  1  0  0  0
 10  5  1  0  0  0
  8  5  1  0  0  0
  5  9  2  0  0  0
  8 11  1  0  0  0
M  END
> <minimizedAffinity>
-5.95017

$$$$
5MPZ_4I8_A_1201


 15 16  0  0  0  0  0  0  0  0999 V2000
    2.2464   22.8709   75.6704 C   0  0  0  0  0  0  0  0  0  0  0  0
    2.4968   22.2754   74.4473 C   0  0  0  0  0  0  0  0  0  0  0  0
   -0.0180   22.1336   75.5011 C   0  0  0  0  0  0  0  0  0  0  0  0
    0.9727   22.8067   76.2111 C   0  0  0  0  0  0  0  0  0  0  0  0
    0.3370   20.5457   72.4127 C   0  0  0  0  0  0  0  0  0  0  0  0
    1.5217   21.6472   73.8027 C   0  0  0  0  0  0  0  0  0  0  0  0
    0.2857   21.5752   74.3226 C   0  0  0  0  0  0  0  0  0  0  0  0
    1.5549   21.0112   72.6275 N   0  0  0  0  0  0  0  0  0  0  0  0
    0.0034   19.9074   71.4169 O   0  0  0  0  0  0  0  0  0  0  0  0
   -0.4798   20.8799   73.4522 O   0  0  0  0  0  0  0  0  0  0  0  0
    2.3356   20.9093   72.0364 H   0  0  0  0  0  0  0  0  0  0  0  0
    0.7614   23.4019   77.4575 C   0  0  0  0  0  0  0  0  0  0  0  0
   -0.3328   23.8436   77.8218 O   0  0  0  0  0  0  0  0  0  0  0  0
    2.0332   24.4132   79.1608 C   0  0  0  0  0  0  0  0  0  0  0  0
    1.8636   23.3216   78.2582 O   0  0  0  0  0  0  0  0  0  0  0  0
 14 15  1  0  0  0
 15 12  1  0  0  0
 13 12  2  0  0  0
 12  4  1  0  0  0
  4  1  2  0  0  0
  4  3  1  0  0  0
  1  2  1  0  0  0
  3  7  2  0  0  0
  2  6  2  0  0  0
  7  6  1  0  0  0
  7 10  1  0  0  0
  6  8  1  0  0  0
 10  5  1  0  0  0
  8  5  1  0  0  0
  5  9  2  0  0  0
  8 11  1  0  0  0
M  END
> <minimizedAffinity>
-5.90846

$$$$
5MPZ_4I8_A_1201


 15 16  0  0  0  0  0  0  0  0999 V2000
    1.5572   21.5866   73.6135 C   0  0  0  0  0  0  0  0  0  0  0  0
    2.3627   22.3557   74.4338 C   0  0  0  0  0  0  0  0  0  0  0  0
   -0.1485   21.6984   75.2801 C   0  0  0  0  0  0  0  0  0  0  0  0
    0.2830   21.2456   74.0361 C   0  0  0  0  0  0  0  0  0  0  0  0
    1.6646   23.6463   77.5392 C   0  0  0  0  0  0  0  0  0  0  0  0
    1.9124   22.7628   75.6138 C   0  0  0  0  0  0  0  0  0  0  0  0
    0.6762   22.4417   76.0285 C   0  0  0  0  0  0  0  0  0  0  0  0
    2.5210   23.5069   76.5425 N   0  0  0  0  0  0  0  0  0  0  0  0
    1.8955   24.2742   78.5701 O   0  0  0  0  0  0  0  0  0  0  0  0
    0.5027   22.9939   77.2500 O   0  0  0  0  0  0  0  0  0  0  0  0
    3.4312   23.8790   76.4935 H   0  0  0  0  0  0  0  0  0  0  0  0
   -0.5098   20.4847   73.1729 C   0  0  0  0  0  0  0  0  0  0  0  0
   -1.6457   20.0951   73.4611 O   0  0  0  0  0  0  0  0  0  0  0  0
   -0.0518   19.0315   71.3785 C   0  0  0  0  0  0  0  0  0  0  0  0
    0.0659   20.3356   71.9447 O   0  0  0  0  0  0  0  0  0  0  0  0
 14 15  1  0  0  0
 15 12  1  0  0  0
 13 12  2  0  0  0
 12  4  1  0  0  0
  4  1  2  0  0  0
  4  3  1  0  0  0
  1  2  1  0  0  0
  3  7  2  0  0  0
  2  6  2  0  0  0
  7  6  1  0  0  0
  7 10  1  0  0  0
  6  8  1  0  0  0
 10  5  1  0  0  0
  8  5  1  0  0  0
  5  9  2  0  0  0
  8 11  1  0  0  0
M  END
> <minimizedAffinity>
-5.90231

$$$$
5MPZ_4I8_A_1201


 15 16  0  0  0  0  0  0  0  0999 V2000
    2.0096   21.7222   74.3415 C   0  0  0  0  0  0  0  0  0  0  0  0
    3.0784   22.4802   74.7845 C   0  0  0  0  0  0  0  0  0  0  0  0
    0.6433   22.7967   75.9779 C   0  0  0  0  0  0  0  0  0  0  0  0
    0.7713   21.8739   74.9432 C   0  0  0  0  0  0  0  0  0  0  0  0
    3.1591   24.8329   77.2855 C   0  0  0  0  0  0  0  0  0  0  0  0
    2.9126   23.3457   75.7767 C   0  0  0  0  0  0  0  0  0  0  0  0
    1.7141   23.5032   76.3615 C   0  0  0  0  0  0  0  0  0  0  0  0
    3.8026   24.1662   76.3435 N   0  0  0  0  0  0  0  0  0  0  0  0
    3.6752   25.6772   78.0143 O   0  0  0  0  0  0  0  0  0  0  0  0
    1.8529   24.4433   77.3227 O   0  0  0  0  0  0  0  0  0  0  0  0
    4.7536   24.2563   76.1052 H   0  0  0  0  0  0  0  0  0  0  0  0
   -0.2900   21.1063   74.4563 C   0  0  0  0  0  0  0  0  0  0  0  0
   -1.3309   20.9078   75.0906 O   0  0  0  0  0  0  0  0  0  0  0  0
   -0.8905   19.6142   72.7375 C   0  0  0  0  0  0  0  0  0  0  0  0
   -0.0903   20.7155   73.1642 O   0  0  0  0  0  0  0  0  0  0  0  0
 14 15  1  0  0  0
 15 12  1  0  0  0
 13 12  2  0  0  0
 12  4  1  0  0  0
  4  1  2  0  0  0
  4  3  1  0  0  0
  1  2  1  0  0  0
  3  7  2  0  0  0
  2  6  2  0  0  0
  7  6  1  0  0  0
  7 10  1  0  0  0
  6  8  1  0  0  0
 10  5  1  0  0  0
  8  5  1  0  0  0
  5  9  2  0  0  0
  8 11  1  0  0  0
M  END
> <minimizedAffinity>
-5.22656

$$$$
5MPZ_4I8_A_1201


 15 16  0  0  0  0  0  0  0  0999 V2000
    2.6798   22.2963   74.7637 C   0  0  0  0  0  0  0  0  0  0  0  0
    1.3504   22.1974   75.1326 C   0  0  0  0  0  0  0  0  0  0  0  0
    2.9999   23.8498   76.5479 C   0  0  0  0  0  0  0  0  0  0  0  0
    3.5232   23.1346   75.4740 C   0  0  0  0  0  0  0  0  0  0  0  0
   -0.2970   23.7867   77.6932 C   0  0  0  0  0  0  0  0  0  0  0  0
    0.8926   22.9004   76.1608 C   0  0  0  0  0  0  0  0  0  0  0  0
    1.7049   23.7108   76.8585 C   0  0  0  0  0  0  0  0  0  0  0  0
   -0.3400   22.9446   76.6758 N   0  0  0  0  0  0  0  0  0  0  0  0
   -1.2616   24.0724   78.3991 O   0  0  0  0  0  0  0  0  0  0  0  0
    0.9653   24.2825   77.8348 O   0  0  0  0  0  0  0  0  0  0  0  0
   -1.1275   22.4461   76.3585 H   0  0  0  0  0  0  0  0  0  0  0  0
    4.8641   23.1939   75.0857 C   0  0  0  0  0  0  0  0  0  0  0  0
    5.5536   22.1919   74.8717 O   0  0  0  0  0  0  0  0  0  0  0  0
    6.5851   24.5956   74.3016 C   0  0  0  0  0  0  0  0  0  0  0  0
    5.2749   24.4742   74.8526 O   0  0  0  0  0  0  0  0  0  0  0  0
 14 15  1  0  0  0
 15 12  1  0  0  0
 13 12  2  0  0  0
 12  4  1  0  0  0
  4  1  2  0  0  0
  4  3  1  0  0  0
  1  2  1  0  0  0
  3  7  2  0  0  0
  2  6  2  0  0  0
  7  6  1  0  0  0
  7 10  1  0  0  0
  6  8  1  0  0  0
 10  5  1  0  0  0
  8  5  1  0  0  0
  5  9  2  0  0  0
  8 11  1  0  0  0
M  END
> <minimizedAffinity>
-4.94353

$$$$
5MPZ_4I8_A_1201


 15 16  0  0  0  0  0  0  0  0999 V2000
    2.6890   23.7263   76.8041 C   0  0  0  0  0  0  0  0  0  0  0  0
    3.0399   23.1463   75.5984 C   0  0  0  0  0  0  0  0  0  0  0  0
    0.4661   22.9179   76.4804 C   0  0  0  0  0  0  0  0  0  0  0  0
    1.3847   23.6182   77.2579 C   0  0  0  0  0  0  0  0  0  0  0  0
    1.0782   21.3602   73.4171 C   0  0  0  0  0  0  0  0  0  0  0  0
    2.1310   22.4909   74.8875 C   0  0  0  0  0  0  0  0  0  0  0  0
    0.8659   22.3763   75.3230 C   0  0  0  0  0  0  0  0  0  0  0  0
    2.2633   21.8632   73.7149 N   0  0  0  0  0  0  0  0  0  0  0  0
    0.8329   20.7173   72.3988 O   0  0  0  0  0  0  0  0  0  0  0  0
    0.1833   21.6620   74.4006 O   0  0  0  0  0  0  0  0  0  0  0  0
    3.0848   21.7898   73.1772 H   0  0  0  0  0  0  0  0  0  0  0  0
    1.0713   24.1990   78.4894 C   0  0  0  0  0  0  0  0  0  0  0  0
    1.9048   24.3935   79.3798 O   0  0  0  0  0  0  0  0  0  0  0  0
   -0.4721   25.6741   79.4812 C   0  0  0  0  0  0  0  0  0  0  0  0
   -0.2214   24.6338   78.5378 O   0  0  0  0  0  0  0  0  0  0  0  0
 14 15  1  0  0  0
 15 12  1  0  0  0
 13 12  2  0  0  0
 12  4  1  0  0  0
  4  1  2  0  0  0
  4  3  1  0  0  0
  1  2  1  0  0  0
  3  7  2  0  0  0
  2  6  2  0  0  0
  7  6  1  0  0  0
  7 10  1  0  0  0
  6  8  1  0  0  0
 10  5  1  0  0  0
  8  5  1  0  0  0
  5  9  2  0  0  0
  8 11  1  0  0  0
M  END
> <minimizedAffinity>
-4.81394

$$$$
