4C2V_YJA_A_1357


 41 44  0  0  0  0  0  0  0  0999 V2000
   11.1069  -26.3700    4.8156 C   0  0  0  0  0  0  0  0  0  0  0  0
   12.2335  -25.6069    5.0336 N   0  0  0  0  0  0  0  0  0  0  0  0
   12.0711  -24.3520    5.3930 C   0  0  0  0  0  0  0  0  0  0  0  0
   10.9472  -23.6875    5.6733 N   0  0  0  0  0  0  0  0  0  0  0  0
    9.7741  -24.3893    5.4915 C   0  0  0  0  0  0  0  0  0  0  0  0
    8.5543  -23.6857    5.6746 C   0  0  0  0  0  0  0  0  0  0  0  0
    9.8358  -25.7482    5.0527 C   0  0  0  0  0  0  0  0  0  0  0  0
    8.5662  -26.3465    4.8983 C   0  0  0  0  0  0  0  0  0  0  0  0
    7.3460  -25.6644    5.1199 C   0  0  0  0  0  0  0  0  0  0  0  0
    7.3275  -24.3158    5.5592 C   0  0  0  0  0  0  0  0  0  0  0  0
   11.2093  -27.6699    4.3416 N   0  0  0  0  0  0  0  0  0  0  0  0
   10.4151  -28.2470    4.4148 H   0  0  0  0  0  0  0  0  0  0  0  0
   13.9741  -29.2257    2.7008 C   0  0  0  0  0  0  0  0  0  0  0  0
   12.6115  -29.0194    2.7047 C   0  0  0  0  0  0  0  0  0  0  0  0
   14.5114  -28.5838    3.7154 N   0  0  0  0  0  0  0  0  0  0  0  0
   13.5526  -28.0020    4.3596 N   0  0  0  0  0  0  0  0  0  0  0  0
   12.3590  -28.2181    3.7678 C   0  0  0  0  0  0  0  0  0  0  0  0
   13.6775  -27.4690    5.1779 H   0  0  0  0  0  0  0  0  0  0  0  0
   14.8182  -30.0844    1.7094 C   0  0  0  0  0  0  0  0  0  0  0  0
   17.0671  -29.3024    2.0997 N   0  0  0  0  0  0  0  0  0  0  0  0
   16.2413  -30.3427    2.3449 C   0  0  0  0  0  0  0  0  0  0  0  0
   16.4134  -31.3024    3.1157 O   0  0  0  0  0  0  0  0  0  0  0  0
   16.6721  -28.4939    1.7003 H   0  0  0  0  0  0  0  0  0  0  0  0
   19.0494  -28.5393    3.3770 C   0  0  0  0  0  0  0  0  0  0  0  0
   20.4013  -28.6314    3.5763 C   0  0  0  0  0  0  0  0  0  0  0  0
   20.9896  -27.7337    4.6053 F   0  0  0  0  0  0  0  0  0  0  0  0
   21.1724  -29.5296    2.8397 C   0  0  0  0  0  0  0  0  0  0  0  0
   20.5815  -30.3498    1.8963 C   0  0  0  0  0  0  0  0  0  0  0  0
   19.2218  -30.2323    1.6698 C   0  0  0  0  0  0  0  0  0  0  0  0
   18.4412  -29.2842    2.3692 C   0  0  0  0  0  0  0  0  0  0  0  0
    6.1447  -23.6734    5.8364 O   0  0  0  0  0  0  0  0  0  0  0  0
    5.8047  -23.4804    7.2264 C   0  0  0  0  0  0  0  0  0  0  0  0
    4.3595  -23.0462    7.3130 C   0  0  0  0  0  0  0  0  0  0  0  0
    4.2770  -21.5456    7.1249 C   0  0  0  0  0  0  0  0  0  0  0  0
    2.9092  -21.0482    6.7885 N   0  0  0  0  0  0  0  0  0  0  0  0
    2.8428  -19.5714    6.8438 C   0  0  0  0  0  0  0  0  0  0  0  0
    3.9255  -19.0866    7.8303 C   0  0  0  0  0  0  0  0  0  0  0  0
    1.7122  -21.5956    7.4763 C   0  0  0  0  0  0  0  0  0  0  0  0
    0.5428  -21.9327    6.5110 C   0  0  0  0  0  0  0  0  0  0  0  0
   -0.4606  -22.3341    7.4582 O   0  0  0  0  0  0  0  0  0  0  0  0
   -0.1180  -23.0586    8.0047 H   0  0  0  0  0  0  0  0  0  0  0  0
 24 25  1  0  0  0
 24 30  2  0  0  0
 25 26  1  0  0  0
 25 27  2  0  0  0
 27 28  1  0  0  0
 28 29  2  0  0  0
 29 30  1  0  0  0
 30 20  1  0  0  0
 20 21  1  0  0  0
 21 22  2  0  0  0
 21 19  1  0  0  0
 19 13  1  0  0  0
 13 14  1  0  0  0
 13 15  2  0  0  0
 14 17  2  0  0  0
 15 16  1  0  0  0
 16 17  1  0  0  0
 17 11  1  0  0  0
 11  1  1  0  0  0
  1  2  1  0  0  0
  1  7  2  0  0  0
  2  3  2  0  0  0
  3  4  1  0  0  0
  4  5  2  0  0  0
  5  6  1  0  0  0
  5  7  1  0  0  0
  6 10  2  0  0  0
  7  8  1  0  0  0
  8  9  2  0  0  0
  9 10  1  0  0  0
 10 31  1  0  0  0
 31 32  1  0  0  0
 32 33  1  0  0  0
 33 34  1  0  0  0
 34 35  1  0  0  0
 35 36  1  0  0  0
 35 38  1  0  0  0
 36 37  1  0  0  0
 38 39  1  0  0  0
 39 40  1  0  0  0
 20 23  1  0  0  0
 16 18  1  0  0  0
 11 12  1  0  0  0
 40 41  1  0  0  0
M  END
> <minimizedAffinity>
-9.18812

$$$$
4C2V_YJA_A_1357


 41 44  0  0  0  0  0  0  0  0999 V2000
    9.5965  -24.8153    4.9587 C   0  0  0  0  0  0  0  0  0  0  0  0
   10.2260  -23.7705    5.5999 N   0  0  0  0  0  0  0  0  0  0  0  0
   11.5039  -23.8987    5.8846 C   0  0  0  0  0  0  0  0  0  0  0  0
   12.3496  -24.8829    5.5692 N   0  0  0  0  0  0  0  0  0  0  0  0
   11.7963  -25.9620    4.9127 C   0  0  0  0  0  0  0  0  0  0  0  0
   12.6394  -27.0755    4.6558 C   0  0  0  0  0  0  0  0  0  0  0  0
   10.4018  -25.9470    4.5994 C   0  0  0  0  0  0  0  0  0  0  0  0
    9.9628  -27.1138    3.9364 C   0  0  0  0  0  0  0  0  0  0  0  0
   10.8063  -28.2106    3.6387 C   0  0  0  0  0  0  0  0  0  0  0  0
   12.1870  -28.1849    3.9630 C   0  0  0  0  0  0  0  0  0  0  0  0
    8.2306  -24.7823    4.7178 N   0  0  0  0  0  0  0  0  0  0  0  0
    7.9167  -25.0592    3.8267 H   0  0  0  0  0  0  0  0  0  0  0  0
    5.5784  -23.7644    6.8828 C   0  0  0  0  0  0  0  0  0  0  0  0
    5.9238  -24.2211    5.6292 C   0  0  0  0  0  0  0  0  0  0  0  0
    6.6643  -23.6539    7.6169 N   0  0  0  0  0  0  0  0  0  0  0  0
    7.6689  -24.0028    6.8808 N   0  0  0  0  0  0  0  0  0  0  0  0
    7.2688  -24.3842    5.6495 C   0  0  0  0  0  0  0  0  0  0  0  0
    8.6066  -23.9915    7.1806 H   0  0  0  0  0  0  0  0  0  0  0  0
    4.1619  -23.3914    7.4185 C   0  0  0  0  0  0  0  0  0  0  0  0
    2.7174  -21.4735    7.6568 N   0  0  0  0  0  0  0  0  0  0  0  0
    3.8824  -21.8694    7.0999 C   0  0  0  0  0  0  0  0  0  0  0  0
    4.7679  -21.1703    6.5786 O   0  0  0  0  0  0  0  0  0  0  0  0
    2.2742  -22.0989    8.2747 H   0  0  0  0  0  0  0  0  0  0  0  0
    2.3530  -19.0664    8.1219 C   0  0  0  0  0  0  0  0  0  0  0  0
    1.7073  -17.9080    7.7794 C   0  0  0  0  0  0  0  0  0  0  0  0
    1.9678  -16.7184    8.6324 F   0  0  0  0  0  0  0  0  0  0  0  0
    0.8505  -17.8660    6.6803 C   0  0  0  0  0  0  0  0  0  0  0  0
    0.6423  -18.9962    5.9114 C   0  0  0  0  0  0  0  0  0  0  0  0
    1.2666  -20.1751    6.2777 C   0  0  0  0  0  0  0  0  0  0  0  0
    2.0906  -20.2430    7.4239 C   0  0  0  0  0  0  0  0  0  0  0  0
   13.0193  -29.2221    3.6164 O   0  0  0  0  0  0  0  0  0  0  0  0
   14.3878  -28.8946    3.2926 C   0  0  0  0  0  0  0  0  0  0  0  0
   14.6896  -29.4064    1.9027 C   0  0  0  0  0  0  0  0  0  0  0  0
   14.3196  -30.8727    1.8195 C   0  0  0  0  0  0  0  0  0  0  0  0
   13.1466  -31.1559    0.9391 N   0  0  0  0  0  0  0  0  0  0  0  0
   12.6635  -29.9276    0.2710 C   0  0  0  0  0  0  0  0  0  0  0  0
   12.8970  -30.0917   -1.2453 C   0  0  0  0  0  0  0  0  0  0  0  0
   11.9700  -31.8987    1.4582 C   0  0  0  0  0  0  0  0  0  0  0  0
   12.2322  -32.6032    2.8175 C   0  0  0  0  0  0  0  0  0  0  0  0
   11.4759  -31.7522    3.6946 O   0  0  0  0  0  0  0  0  0  0  0  0
   11.7868  -30.8378    3.6053 H   0  0  0  0  0  0  0  0  0  0  0  0
 24 25  1  0  0  0
 24 30  2  0  0  0
 25 26  1  0  0  0
 25 27  2  0  0  0
 27 28  1  0  0  0
 28 29  2  0  0  0
 29 30  1  0  0  0
 30 20  1  0  0  0
 20 21  1  0  0  0
 21 22  2  0  0  0
 21 19  1  0  0  0
 19 13  1  0  0  0
 13 14  1  0  0  0
 13 15  2  0  0  0
 14 17  2  0  0  0
 15 16  1  0  0  0
 16 17  1  0  0  0
 17 11  1  0  0  0
 11  1  1  0  0  0
  1  2  1  0  0  0
  1  7  2  0  0  0
  2  3  2  0  0  0
  3  4  1  0  0  0
  4  5  2  0  0  0
  5  6  1  0  0  0
  5  7  1  0  0  0
  6 10  2  0  0  0
  7  8  1  0  0  0
  8  9  2  0  0  0
  9 10  1  0  0  0
 10 31  1  0  0  0
 31 32  1  0  0  0
 32 33  1  0  0  0
 33 34  1  0  0  0
 34 35  1  0  0  0
 35 36  1  0  0  0
 35 38  1  0  0  0
 36 37  1  0  0  0
 38 39  1  0  0  0
 39 40  1  0  0  0
 20 23  1  0  0  0
 16 18  1  0  0  0
 11 12  1  0  0  0
 40 41  1  0  0  0
M  END
> <minimizedAffinity>
-9.02149

$$$$
4C2V_YJA_A_1357


 41 44  0  0  0  0  0  0  0  0999 V2000
    9.3624  -24.6345    5.2481 C   0  0  0  0  0  0  0  0  0  0  0  0
    9.9720  -23.6423    5.9850 N   0  0  0  0  0  0  0  0  0  0  0  0
   11.2558  -23.7641    6.2444 C   0  0  0  0  0  0  0  0  0  0  0  0
   12.1230  -24.6890    5.8252 N   0  0  0  0  0  0  0  0  0  0  0  0
   11.5903  -25.7118    5.0689 C   0  0  0  0  0  0  0  0  0  0  0  0
   12.4587  -26.7713    4.6949 C   0  0  0  0  0  0  0  0  0  0  0  0
   10.1924  -25.7029    4.7707 C   0  0  0  0  0  0  0  0  0  0  0  0
    9.7761  -26.8091    3.9983 C   0  0  0  0  0  0  0  0  0  0  0  0
   10.6441  -27.8480    3.5853 C   0  0  0  0  0  0  0  0  0  0  0  0
   12.0272  -27.8178    3.8987 C   0  0  0  0  0  0  0  0  0  0  0  0
    7.9934  -24.6141    5.0235 N   0  0  0  0  0  0  0  0  0  0  0  0
    7.6682  -24.1387    4.2250 H   0  0  0  0  0  0  0  0  0  0  0  0
    5.6408  -26.4171    7.0162 C   0  0  0  0  0  0  0  0  0  0  0  0
    6.7012  -26.4984    6.1398 C   0  0  0  0  0  0  0  0  0  0  0  0
    5.3578  -25.1515    7.2361 N   0  0  0  0  0  0  0  0  0  0  0  0
    6.1764  -24.4413    6.5301 N   0  0  0  0  0  0  0  0  0  0  0  0
    7.0436  -25.2199    5.8495 C   0  0  0  0  0  0  0  0  0  0  0  0
    6.1679  -23.4575    6.4938 H   0  0  0  0  0  0  0  0  0  0  0  0
    4.8346  -27.5826    7.6679 C   0  0  0  0  0  0  0  0  0  0  0  0
    4.2123  -29.4215    6.2352 N   0  0  0  0  0  0  0  0  0  0  0  0
    3.8384  -28.1743    6.5939 C   0  0  0  0  0  0  0  0  0  0  0  0
    2.7783  -27.5795    6.3346 O   0  0  0  0  0  0  0  0  0  0  0  0
    4.9343  -29.8454    6.7532 H   0  0  0  0  0  0  0  0  0  0  0  0
    3.6175  -29.7528    3.8519 C   0  0  0  0  0  0  0  0  0  0  0  0
    3.0806  -30.5768    2.8987 C   0  0  0  0  0  0  0  0  0  0  0  0
    2.9902  -30.0337    1.5175 F   0  0  0  0  0  0  0  0  0  0  0  0
    2.6451  -31.8600    3.2268 C   0  0  0  0  0  0  0  0  0  0  0  0
    2.7539  -32.3258    4.5241 C   0  0  0  0  0  0  0  0  0  0  0  0
    3.2635  -31.4814    5.4943 C   0  0  0  0  0  0  0  0  0  0  0  0
    3.6533  -30.1588    5.1840 C   0  0  0  0  0  0  0  0  0  0  0  0
   12.8819  -28.7928    3.4431 O   0  0  0  0  0  0  0  0  0  0  0  0
   14.2753  -28.6742    3.8027 C   0  0  0  0  0  0  0  0  0  0  0  0
   15.1062  -29.3625    2.7441 C   0  0  0  0  0  0  0  0  0  0  0  0
   14.8643  -30.8561    2.8126 C   0  0  0  0  0  0  0  0  0  0  0  0
   14.1133  -31.4058    1.6443 N   0  0  0  0  0  0  0  0  0  0  0  0
   14.0476  -30.4281    0.5360 C   0  0  0  0  0  0  0  0  0  0  0  0
   12.5596  -30.1852    0.2081 C   0  0  0  0  0  0  0  0  0  0  0  0
   12.7648  -32.0022    1.8215 C   0  0  0  0  0  0  0  0  0  0  0  0
   12.4374  -32.3673    3.2954 C   0  0  0  0  0  0  0  0  0  0  0  0
   11.4617  -31.3561    3.5967 O   0  0  0  0  0  0  0  0  0  0  0  0
   11.8439  -30.4795    3.4346 H   0  0  0  0  0  0  0  0  0  0  0  0
 24 25  1  0  0  0
 24 30  2  0  0  0
 25 26  1  0  0  0
 25 27  2  0  0  0
 27 28  1  0  0  0
 28 29  2  0  0  0
 29 30  1  0  0  0
 30 20  1  0  0  0
 20 21  1  0  0  0
 21 22  2  0  0  0
 21 19  1  0  0  0
 19 13  1  0  0  0
 13 14  1  0  0  0
 13 15  2  0  0  0
 14 17  2  0  0  0
 15 16  1  0  0  0
 16 17  1  0  0  0
 17 11  1  0  0  0
 11  1  1  0  0  0
  1  2  1  0  0  0
  1  7  2  0  0  0
  2  3  2  0  0  0
  3  4  1  0  0  0
  4  5  2  0  0  0
  5  6  1  0  0  0
  5  7  1  0  0  0
  6 10  2  0  0  0
  7  8  1  0  0  0
  8  9  2  0  0  0
  9 10  1  0  0  0
 10 31  1  0  0  0
 31 32  1  0  0  0
 32 33  1  0  0  0
 33 34  1  0  0  0
 34 35  1  0  0  0
 35 36  1  0  0  0
 35 38  1  0  0  0
 36 37  1  0  0  0
 38 39  1  0  0  0
 39 40  1  0  0  0
 20 23  1  0  0  0
 16 18  1  0  0  0
 11 12  1  0  0  0
 40 41  1  0  0  0
M  END
> <minimizedAffinity>
-9.01426

$$$$
4C2V_YJA_A_1357


 41 44  0  0  0  0  0  0  0  0999 V2000
   11.1367  -26.2990    4.6317 C   0  0  0  0  0  0  0  0  0  0  0  0
   12.3092  -25.6787    5.0052 N   0  0  0  0  0  0  0  0  0  0  0  0
   12.2329  -24.4736    5.5269 C   0  0  0  0  0  0  0  0  0  0  0  0
   11.1549  -23.7521    5.8440 N   0  0  0  0  0  0  0  0  0  0  0  0
    9.9392  -24.3125    5.5127 C   0  0  0  0  0  0  0  0  0  0  0  0
    8.7748  -23.5306    5.7347 C   0  0  0  0  0  0  0  0  0  0  0  0
    9.9112  -25.6004    4.8934 C   0  0  0  0  0  0  0  0  0  0  0  0
    8.6067  -26.0534    4.5989 C   0  0  0  0  0  0  0  0  0  0  0  0
    7.4378  -25.2979    4.8560 C   0  0  0  0  0  0  0  0  0  0  0  0
    7.5079  -24.0242    5.4763 C   0  0  0  0  0  0  0  0  0  0  0  0
   11.1562  -27.5277    3.9876 N   0  0  0  0  0  0  0  0  0  0  0  0
   10.2960  -27.9875    3.8541 H   0  0  0  0  0  0  0  0  0  0  0  0
   13.9340  -29.2899    2.5966 C   0  0  0  0  0  0  0  0  0  0  0  0
   12.5899  -29.0038    2.4936 C   0  0  0  0  0  0  0  0  0  0  0  0
   14.4336  -28.6518    3.6327 N   0  0  0  0  0  0  0  0  0  0  0  0
   13.4673  -27.9963    4.1890 N   0  0  0  0  0  0  0  0  0  0  0  0
   12.3093  -28.1589    3.5150 C   0  0  0  0  0  0  0  0  0  0  0  0
   13.5642  -27.4483    5.0011 H   0  0  0  0  0  0  0  0  0  0  0  0
   14.7947  -30.2249    1.6923 C   0  0  0  0  0  0  0  0  0  0  0  0
   17.0383  -29.4177    2.0614 N   0  0  0  0  0  0  0  0  0  0  0  0
   16.2048  -30.4337    2.3734 C   0  0  0  0  0  0  0  0  0  0  0  0
   16.3595  -31.3288    3.2216 O   0  0  0  0  0  0  0  0  0  0  0  0
   16.6534  -28.6431    1.5912 H   0  0  0  0  0  0  0  0  0  0  0  0
   18.9912  -28.6011    3.3510 C   0  0  0  0  0  0  0  0  0  0  0  0
   20.3400  -28.6760    3.5769 C   0  0  0  0  0  0  0  0  0  0  0  0
   20.9025  -27.7440    4.5896 F   0  0  0  0  0  0  0  0  0  0  0  0
   21.1313  -29.5888    2.8807 C   0  0  0  0  0  0  0  0  0  0  0  0
   20.5639  -30.4409    1.9512 C   0  0  0  0  0  0  0  0  0  0  0  0
   19.2077  -30.3415    1.6972 C   0  0  0  0  0  0  0  0  0  0  0  0
   18.4072  -29.3801    2.3547 C   0  0  0  0  0  0  0  0  0  0  0  0
    6.3695  -23.3187    5.7847 O   0  0  0  0  0  0  0  0  0  0  0  0
    5.9267  -23.3420    7.1588 C   0  0  0  0  0  0  0  0  0  0  0  0
    4.4619  -23.7139    7.1865 C   0  0  0  0  0  0  0  0  0  0  0  0
    4.3184  -25.1414    7.6718 C   0  0  0  0  0  0  0  0  0  0  0  0
    4.7784  -26.1680    6.6891 N   0  0  0  0  0  0  0  0  0  0  0  0
    3.8456  -26.2781    5.5462 C   0  0  0  0  0  0  0  0  0  0  0  0
    4.0828  -27.6460    4.8731 C   0  0  0  0  0  0  0  0  0  0  0  0
    5.1347  -27.5392    7.1349 C   0  0  0  0  0  0  0  0  0  0  0  0
    4.9818  -27.7525    8.6659 C   0  0  0  0  0  0  0  0  0  0  0  0
    5.8319  -28.8967    8.8489 O   0  0  0  0  0  0  0  0  0  0  0  0
    5.5333  -29.6170    8.2719 H   0  0  0  0  0  0  0  0  0  0  0  0
 24 25  1  0  0  0
 24 30  2  0  0  0
 25 26  1  0  0  0
 25 27  2  0  0  0
 27 28  1  0  0  0
 28 29  2  0  0  0
 29 30  1  0  0  0
 30 20  1  0  0  0
 20 21  1  0  0  0
 21 22  2  0  0  0
 21 19  1  0  0  0
 19 13  1  0  0  0
 13 14  1  0  0  0
 13 15  2  0  0  0
 14 17  2  0  0  0
 15 16  1  0  0  0
 16 17  1  0  0  0
 17 11  1  0  0  0
 11  1  1  0  0  0
  1  2  1  0  0  0
  1  7  2  0  0  0
  2  3  2  0  0  0
  3  4  1  0  0  0
  4  5  2  0  0  0
  5  6  1  0  0  0
  5  7  1  0  0  0
  6 10  2  0  0  0
  7  8  1  0  0  0
  8  9  2  0  0  0
  9 10  1  0  0  0
 10 31  1  0  0  0
 31 32  1  0  0  0
 32 33  1  0  0  0
 33 34  1  0  0  0
 34 35  1  0  0  0
 35 36  1  0  0  0
 35 38  1  0  0  0
 36 37  1  0  0  0
 38 39  1  0  0  0
 39 40  1  0  0  0
 20 23  1  0  0  0
 16 18  1  0  0  0
 11 12  1  0  0  0
 40 41  1  0  0  0
M  END
> <minimizedAffinity>
-8.95015

$$$$
4C2V_YJA_A_1357


 41 44  0  0  0  0  0  0  0  0999 V2000
    9.3728  -24.5680    5.2351 C   0  0  0  0  0  0  0  0  0  0  0  0
   10.1681  -23.6804    5.9271 N   0  0  0  0  0  0  0  0  0  0  0  0
   11.4104  -24.0304    6.1809 C   0  0  0  0  0  0  0  0  0  0  0  0
   12.0832  -25.1163    5.7918 N   0  0  0  0  0  0  0  0  0  0  0  0
   11.3575  -26.0490    5.0811 C   0  0  0  0  0  0  0  0  0  0  0  0
   12.0071  -27.2656    4.7427 C   0  0  0  0  0  0  0  0  0  0  0  0
    9.9815  -25.7900    4.7940 C   0  0  0  0  0  0  0  0  0  0  0  0
    9.3543  -26.8271    4.0696 C   0  0  0  0  0  0  0  0  0  0  0  0
   10.0067  -28.0247    3.6914 C   0  0  0  0  0  0  0  0  0  0  0  0
   11.3758  -28.2421    3.9922 C   0  0  0  0  0  0  0  0  0  0  0  0
    8.0284  -24.3003    5.0207 N   0  0  0  0  0  0  0  0  0  0  0  0
    7.8001  -23.5055    4.4865 H   0  0  0  0  0  0  0  0  0  0  0  0
    5.4815  -26.3054    6.5207 C   0  0  0  0  0  0  0  0  0  0  0  0
    6.6378  -25.5827    6.7203 C   0  0  0  0  0  0  0  0  0  0  0  0
    5.1457  -26.2416    5.2504 N   0  0  0  0  0  0  0  0  0  0  0  0
    6.0413  -25.5302    4.6464 N   0  0  0  0  0  0  0  0  0  0  0  0
    6.9757  -25.0781    5.5090 C   0  0  0  0  0  0  0  0  0  0  0  0
    6.0413  -25.3424    3.6800 H   0  0  0  0  0  0  0  0  0  0  0  0
    4.6564  -27.1161    7.5669 C   0  0  0  0  0  0  0  0  0  0  0  0
    4.2798  -29.0897    6.2310 N   0  0  0  0  0  0  0  0  0  0  0  0
    3.6365  -28.0469    6.7991 C   0  0  0  0  0  0  0  0  0  0  0  0
    2.4132  -27.8714    6.9314 O   0  0  0  0  0  0  0  0  0  0  0  0
    5.2279  -29.2188    6.4627 H   0  0  0  0  0  0  0  0  0  0  0  0
    3.3714  -31.3196    5.6429 C   0  0  0  0  0  0  0  0  0  0  0  0
    2.7719  -32.1110    4.6994 C   0  0  0  0  0  0  0  0  0  0  0  0
    2.5372  -33.5322    5.0680 F   0  0  0  0  0  0  0  0  0  0  0  0
    2.4067  -31.5911    3.4583 C   0  0  0  0  0  0  0  0  0  0  0  0
    2.6394  -30.2609    3.1607 C   0  0  0  0  0  0  0  0  0  0  0  0
    3.2766  -29.4700    4.0999 C   0  0  0  0  0  0  0  0  0  0  0  0
    3.7036  -30.0016    5.3378 C   0  0  0  0  0  0  0  0  0  0  0  0
   12.0265  -29.3762    3.5690 O   0  0  0  0  0  0  0  0  0  0  0  0
   11.2230  -30.4206    2.9786 C   0  0  0  0  0  0  0  0  0  0  0  0
   11.9139  -31.7458    3.2047 C   0  0  0  0  0  0  0  0  0  0  0  0
   13.1641  -31.8088    2.3522 C   0  0  0  0  0  0  0  0  0  0  0  0
   14.3545  -32.3717    3.0573 N   0  0  0  0  0  0  0  0  0  0  0  0
   13.9673  -33.4465    3.9972 C   0  0  0  0  0  0  0  0  0  0  0  0
   14.0549  -34.7888    3.2415 C   0  0  0  0  0  0  0  0  0  0  0  0
   15.3231  -31.4785    3.7427 C   0  0  0  0  0  0  0  0  0  0  0  0
   15.3479  -30.0351    3.1695 C   0  0  0  0  0  0  0  0  0  0  0  0
   15.0151  -29.2871    4.3507 O   0  0  0  0  0  0  0  0  0  0  0  0
   14.1709  -29.6049    4.7074 H   0  0  0  0  0  0  0  0  0  0  0  0
 24 25  1  0  0  0
 24 30  2  0  0  0
 25 26  1  0  0  0
 25 27  2  0  0  0
 27 28  1  0  0  0
 28 29  2  0  0  0
 29 30  1  0  0  0
 30 20  1  0  0  0
 20 21  1  0  0  0
 21 22  2  0  0  0
 21 19  1  0  0  0
 19 13  1  0  0  0
 13 14  1  0  0  0
 13 15  2  0  0  0
 14 17  2  0  0  0
 15 16  1  0  0  0
 16 17  1  0  0  0
 17 11  1  0  0  0
 11  1  1  0  0  0
  1  2  1  0  0  0
  1  7  2  0  0  0
  2  3  2  0  0  0
  3  4  1  0  0  0
  4  5  2  0  0  0
  5  6  1  0  0  0
  5  7  1  0  0  0
  6 10  2  0  0  0
  7  8  1  0  0  0
  8  9  2  0  0  0
  9 10  1  0  0  0
 10 31  1  0  0  0
 31 32  1  0  0  0
 32 33  1  0  0  0
 33 34  1  0  0  0
 34 35  1  0  0  0
 35 36  1  0  0  0
 35 38  1  0  0  0
 36 37  1  0  0  0
 38 39  1  0  0  0
 39 40  1  0  0  0
 20 23  1  0  0  0
 16 18  1  0  0  0
 11 12  1  0  0  0
 40 41  1  0  0  0
M  END
> <minimizedAffinity>
-8.83821

$$$$
4C2V_YJA_A_1357


 41 44  0  0  0  0  0  0  0  0999 V2000
    9.4491  -24.6997    5.1504 C   0  0  0  0  0  0  0  0  0  0  0  0
   10.0485  -23.6938    5.8770 N   0  0  0  0  0  0  0  0  0  0  0  0
   11.3331  -23.8006    6.1391 C   0  0  0  0  0  0  0  0  0  0  0  0
   12.2094  -24.7220    5.7310 N   0  0  0  0  0  0  0  0  0  0  0  0
   11.6872  -25.7580    4.9855 C   0  0  0  0  0  0  0  0  0  0  0  0
   12.5659  -26.8133    4.6242 C   0  0  0  0  0  0  0  0  0  0  0  0
   10.2897  -25.7654    4.6857 C   0  0  0  0  0  0  0  0  0  0  0  0
    9.8846  -26.8840    3.9252 C   0  0  0  0  0  0  0  0  0  0  0  0
   10.7628  -27.9191    3.5246 C   0  0  0  0  0  0  0  0  0  0  0  0
   12.1453  -27.8726    3.8391 C   0  0  0  0  0  0  0  0  0  0  0  0
    8.0803  -24.6946    4.9241 N   0  0  0  0  0  0  0  0  0  0  0  0
    7.7554  -24.2725    4.0961 H   0  0  0  0  0  0  0  0  0  0  0  0
    5.7280  -26.3651    7.0296 C   0  0  0  0  0  0  0  0  0  0  0  0
    6.7909  -26.5026    6.1633 C   0  0  0  0  0  0  0  0  0  0  0  0
    5.4405  -25.0884    7.1620 N   0  0  0  0  0  0  0  0  0  0  0  0
    6.2588  -24.4253    6.4111 N   0  0  0  0  0  0  0  0  0  0  0  0
    7.1301  -25.2458    5.7872 C   0  0  0  0  0  0  0  0  0  0  0  0
    6.2474  -23.4463    6.3078 H   0  0  0  0  0  0  0  0  0  0  0  0
    4.9238  -27.4860    7.7573 C   0  0  0  0  0  0  0  0  0  0  0  0
    4.2838  -29.2809    6.2774 N   0  0  0  0  0  0  0  0  0  0  0  0
    3.8650  -28.0873    6.7507 C   0  0  0  0  0  0  0  0  0  0  0  0
    2.7461  -27.5587    6.6356 O   0  0  0  0  0  0  0  0  0  0  0  0
    5.0822  -29.6793    6.6936 H   0  0  0  0  0  0  0  0  0  0  0  0
    3.5357  -29.5467    3.9294 C   0  0  0  0  0  0  0  0  0  0  0  0
    2.9537  -30.3513    2.9860 C   0  0  0  0  0  0  0  0  0  0  0  0
    2.7574  -29.7646    1.6340 F   0  0  0  0  0  0  0  0  0  0  0  0
    2.5703  -31.6551    3.2974 C   0  0  0  0  0  0  0  0  0  0  0  0
    2.7776  -32.1613    4.5674 C   0  0  0  0  0  0  0  0  0  0  0  0
    3.3330  -31.3376    5.5301 C   0  0  0  0  0  0  0  0  0  0  0  0
    3.6711  -29.9962    5.2409 C   0  0  0  0  0  0  0  0  0  0  0  0
   13.0096  -28.8444    3.3952 O   0  0  0  0  0  0  0  0  0  0  0  0
   14.4056  -28.6948    3.7324 C   0  0  0  0  0  0  0  0  0  0  0  0
   15.2192  -29.5856    2.8219 C   0  0  0  0  0  0  0  0  0  0  0  0
   16.4293  -28.8213    2.3266 C   0  0  0  0  0  0  0  0  0  0  0  0
   17.3146  -29.6065    1.4152 N   0  0  0  0  0  0  0  0  0  0  0  0
   16.7092  -30.9101    1.0649 C   0  0  0  0  0  0  0  0  0  0  0  0
   17.5826  -32.0190    1.6879 C   0  0  0  0  0  0  0  0  0  0  0  0
   18.7435  -29.8308    1.7525 C   0  0  0  0  0  0  0  0  0  0  0  0
   19.2661  -28.9033    2.8836 C   0  0  0  0  0  0  0  0  0  0  0  0
   19.6805  -29.8862    3.8467 O   0  0  0  0  0  0  0  0  0  0  0  0
   18.9316  -30.4640    4.0617 H   0  0  0  0  0  0  0  0  0  0  0  0
 24 25  1  0  0  0
 24 30  2  0  0  0
 25 26  1  0  0  0
 25 27  2  0  0  0
 27 28  1  0  0  0
 28 29  2  0  0  0
 29 30  1  0  0  0
 30 20  1  0  0  0
 20 21  1  0  0  0
 21 22  2  0  0  0
 21 19  1  0  0  0
 19 13  1  0  0  0
 13 14  1  0  0  0
 13 15  2  0  0  0
 14 17  2  0  0  0
 15 16  1  0  0  0
 16 17  1  0  0  0
 17 11  1  0  0  0
 11  1  1  0  0  0
  1  2  1  0  0  0
  1  7  2  0  0  0
  2  3  2  0  0  0
  3  4  1  0  0  0
  4  5  2  0  0  0
  5  6  1  0  0  0
  5  7  1  0  0  0
  6 10  2  0  0  0
  7  8  1  0  0  0
  8  9  2  0  0  0
  9 10  1  0  0  0
 10 31  1  0  0  0
 31 32  1  0  0  0
 32 33  1  0  0  0
 33 34  1  0  0  0
 34 35  1  0  0  0
 35 36  1  0  0  0
 35 38  1  0  0  0
 36 37  1  0  0  0
 38 39  1  0  0  0
 39 40  1  0  0  0
 20 23  1  0  0  0
 16 18  1  0  0  0
 11 12  1  0  0  0
 40 41  1  0  0  0
M  END
> <minimizedAffinity>
-8.83658

$$$$
4C2V_YJA_A_1357


 41 44  0  0  0  0  0  0  0  0999 V2000
    9.6655  -24.8870    5.2698 C   0  0  0  0  0  0  0  0  0  0  0  0
   10.3514  -23.8620    5.8847 N   0  0  0  0  0  0  0  0  0  0  0  0
   11.6596  -23.9620    5.9792 C   0  0  0  0  0  0  0  0  0  0  0  0
   12.4781  -24.8940    5.4846 N   0  0  0  0  0  0  0  0  0  0  0  0
   11.8664  -25.9495    4.8416 C   0  0  0  0  0  0  0  0  0  0  0  0
   12.6939  -27.0143    4.3966 C   0  0  0  0  0  0  0  0  0  0  0  0
   10.4417  -25.9649    4.7276 C   0  0  0  0  0  0  0  0  0  0  0  0
    9.9444  -27.1034    4.0566 C   0  0  0  0  0  0  0  0  0  0  0  0
   10.7662  -28.1490    3.5722 C   0  0  0  0  0  0  0  0  0  0  0  0
   12.1777  -28.0942    3.7017 C   0  0  0  0  0  0  0  0  0  0  0  0
    8.2788  -24.8879    5.2245 N   0  0  0  0  0  0  0  0  0  0  0  0
    7.8444  -25.4371    4.5326 H   0  0  0  0  0  0  0  0  0  0  0  0
    6.3596  -22.8185    7.4134 C   0  0  0  0  0  0  0  0  0  0  0  0
    7.4120  -22.8825    6.5260 C   0  0  0  0  0  0  0  0  0  0  0  0
    5.8025  -24.0062    7.5097 N   0  0  0  0  0  0  0  0  0  0  0  0
    6.4630  -24.8093    6.7406 N   0  0  0  0  0  0  0  0  0  0  0  0
    7.4551  -24.1649    6.0908 C   0  0  0  0  0  0  0  0  0  0  0  0
    6.2671  -25.7691    6.6417 H   0  0  0  0  0  0  0  0  0  0  0  0
    5.8593  -21.5883    8.2315 C   0  0  0  0  0  0  0  0  0  0  0  0
    4.3320  -19.7900    7.7267 N   0  0  0  0  0  0  0  0  0  0  0  0
    4.4588  -21.1330    7.6594 C   0  0  0  0  0  0  0  0  0  0  0  0
    3.7334  -21.9501    7.0671 O   0  0  0  0  0  0  0  0  0  0  0  0
    5.1298  -19.2708    7.9779 H   0  0  0  0  0  0  0  0  0  0  0  0
    2.2604  -19.3585    6.4360 C   0  0  0  0  0  0  0  0  0  0  0  0
    1.1152  -18.6192    6.3020 C   0  0  0  0  0  0  0  0  0  0  0  0
    0.2613  -18.9147    5.1212 F   0  0  0  0  0  0  0  0  0  0  0  0
    0.7830  -17.6408    7.2380 C   0  0  0  0  0  0  0  0  0  0  0  0
    1.6047  -17.4038    8.3246 C   0  0  0  0  0  0  0  0  0  0  0  0
    2.7790  -18.1257    8.4414 C   0  0  0  0  0  0  0  0  0  0  0  0
    3.1540  -19.0784    7.4672 C   0  0  0  0  0  0  0  0  0  0  0  0
   12.9799  -29.0777    3.1746 O   0  0  0  0  0  0  0  0  0  0  0  0
   14.4008  -28.9705    3.4077 C   0  0  0  0  0  0  0  0  0  0  0  0
   15.0874  -30.1428    2.7451 C   0  0  0  0  0  0  0  0  0  0  0  0
   14.0481  -31.0137    2.0704 C   0  0  0  0  0  0  0  0  0  0  0  0
   14.0462  -32.4326    2.5375 N   0  0  0  0  0  0  0  0  0  0  0  0
   12.7081  -33.0469    2.3936 C   0  0  0  0  0  0  0  0  0  0  0  0
   11.7128  -32.2108    3.2249 C   0  0  0  0  0  0  0  0  0  0  0  0
   14.5839  -32.7921    3.8744 C   0  0  0  0  0  0  0  0  0  0  0  0
   15.0826  -34.2603    3.9673 C   0  0  0  0  0  0  0  0  0  0  0  0
   14.2782  -34.7329    5.0605 O   0  0  0  0  0  0  0  0  0  0  0  0
   14.4230  -34.1686    5.8361 H   0  0  0  0  0  0  0  0  0  0  0  0
 24 25  1  0  0  0
 24 30  2  0  0  0
 25 26  1  0  0  0
 25 27  2  0  0  0
 27 28  1  0  0  0
 28 29  2  0  0  0
 29 30  1  0  0  0
 30 20  1  0  0  0
 20 21  1  0  0  0
 21 22  2  0  0  0
 21 19  1  0  0  0
 19 13  1  0  0  0
 13 14  1  0  0  0
 13 15  2  0  0  0
 14 17  2  0  0  0
 15 16  1  0  0  0
 16 17  1  0  0  0
 17 11  1  0  0  0
 11  1  1  0  0  0
  1  2  1  0  0  0
  1  7  2  0  0  0
  2  3  2  0  0  0
  3  4  1  0  0  0
  4  5  2  0  0  0
  5  6  1  0  0  0
  5  7  1  0  0  0
  6 10  2  0  0  0
  7  8  1  0  0  0
  8  9  2  0  0  0
  9 10  1  0  0  0
 10 31  1  0  0  0
 31 32  1  0  0  0
 32 33  1  0  0  0
 33 34  1  0  0  0
 34 35  1  0  0  0
 35 36  1  0  0  0
 35 38  1  0  0  0
 36 37  1  0  0  0
 38 39  1  0  0  0
 39 40  1  0  0  0
 20 23  1  0  0  0
 16 18  1  0  0  0
 11 12  1  0  0  0
 40 41  1  0  0  0
M  END
> <minimizedAffinity>
-8.71200

$$$$
4C2V_YJA_A_1357


 41 44  0  0  0  0  0  0  0  0999 V2000
    9.0954  -25.1370    4.8198 C   0  0  0  0  0  0  0  0  0  0  0  0
    9.3743  -23.9752    5.5064 N   0  0  0  0  0  0  0  0  0  0  0  0
   10.6178  -23.7580    5.8761 C   0  0  0  0  0  0  0  0  0  0  0  0
   11.7180  -24.4682    5.6146 N   0  0  0  0  0  0  0  0  0  0  0  0
   11.5227  -25.6421    4.9177 C   0  0  0  0  0  0  0  0  0  0  0  0
   12.6518  -26.4788    4.7138 C   0  0  0  0  0  0  0  0  0  0  0  0
   10.1998  -25.9992    4.5110 C   0  0  0  0  0  0  0  0  0  0  0  0
   10.1385  -27.2262    3.8151 C   0  0  0  0  0  0  0  0  0  0  0  0
   11.2661  -28.0459    3.5705 C   0  0  0  0  0  0  0  0  0  0  0  0
   12.5639  -27.6535    3.9874 C   0  0  0  0  0  0  0  0  0  0  0  0
    7.7904  -25.4707    4.4873 N   0  0  0  0  0  0  0  0  0  0  0  0
    7.6543  -26.0821    3.7277 H   0  0  0  0  0  0  0  0  0  0  0  0
    5.0530  -24.2506    6.4303 C   0  0  0  0  0  0  0  0  0  0  0  0
    6.4106  -24.4830    6.3813 C   0  0  0  0  0  0  0  0  0  0  0  0
    4.5103  -24.6168    5.2893 N   0  0  0  0  0  0  0  0  0  0  0  0
    5.4568  -25.0796    4.5390 N   0  0  0  0  0  0  0  0  0  0  0  0
    6.6559  -25.0012    5.1535 C   0  0  0  0  0  0  0  0  0  0  0  0
    5.3199  -25.4431    3.6344 H   0  0  0  0  0  0  0  0  0  0  0  0
    4.2136  -23.6750    7.6121 C   0  0  0  0  0  0  0  0  0  0  0  0
    2.7805  -21.7349    7.5533 N   0  0  0  0  0  0  0  0  0  0  0  0
    4.0702  -22.1134    7.4207 C   0  0  0  0  0  0  0  0  0  0  0  0
    5.0848  -21.3979    7.3644 O   0  0  0  0  0  0  0  0  0  0  0  0
    2.1397  -22.4108    7.8723 H   0  0  0  0  0  0  0  0  0  0  0  0
    1.3902  -20.1515    6.2481 C   0  0  0  0  0  0  0  0  0  0  0  0
    0.9381  -18.8681    6.0921 C   0  0  0  0  0  0  0  0  0  0  0  0
    0.0642  -18.6035    4.9186 F   0  0  0  0  0  0  0  0  0  0  0  0
    1.2913  -17.8710    7.0004 C   0  0  0  0  0  0  0  0  0  0  0  0
    2.1023  -18.1640    8.0813 C   0  0  0  0  0  0  0  0  0  0  0  0
    2.5878  -19.4520    8.2197 C   0  0  0  0  0  0  0  0  0  0  0  0
    2.2836  -20.4560    7.2725 C   0  0  0  0  0  0  0  0  0  0  0  0
   13.6676  -28.4178    3.6936 O   0  0  0  0  0  0  0  0  0  0  0  0
   13.4363  -29.7366    3.1530 C   0  0  0  0  0  0  0  0  0  0  0  0
   14.1198  -29.8326    1.8082 C   0  0  0  0  0  0  0  0  0  0  0  0
   13.5099  -30.9719    1.0184 C   0  0  0  0  0  0  0  0  0  0  0  0
   12.2010  -30.6388    0.3804 N   0  0  0  0  0  0  0  0  0  0  0  0
   11.2417  -31.7587    0.4988 C   0  0  0  0  0  0  0  0  0  0  0  0
   10.5126  -31.6150    1.8509 C   0  0  0  0  0  0  0  0  0  0  0  0
   12.1448  -30.1208   -1.0104 C   0  0  0  0  0  0  0  0  0  0  0  0
   13.3442  -30.5713   -1.8885 C   0  0  0  0  0  0  0  0  0  0  0  0
   13.6071  -29.3527   -2.6036 O   0  0  0  0  0  0  0  0  0  0  0  0
   12.8034  -29.0702   -3.0674 H   0  0  0  0  0  0  0  0  0  0  0  0
 24 25  1  0  0  0
 24 30  2  0  0  0
 25 26  1  0  0  0
 25 27  2  0  0  0
 27 28  1  0  0  0
 28 29  2  0  0  0
 29 30  1  0  0  0
 30 20  1  0  0  0
 20 21  1  0  0  0
 21 22  2  0  0  0
 21 19  1  0  0  0
 19 13  1  0  0  0
 13 14  1  0  0  0
 13 15  2  0  0  0
 14 17  2  0  0  0
 15 16  1  0  0  0
 16 17  1  0  0  0
 17 11  1  0  0  0
 11  1  1  0  0  0
  1  2  1  0  0  0
  1  7  2  0  0  0
  2  3  2  0  0  0
  3  4  1  0  0  0
  4  5  2  0  0  0
  5  6  1  0  0  0
  5  7  1  0  0  0
  6 10  2  0  0  0
  7  8  1  0  0  0
  8  9  2  0  0  0
  9 10  1  0  0  0
 10 31  1  0  0  0
 31 32  1  0  0  0
 32 33  1  0  0  0
 33 34  1  0  0  0
 34 35  1  0  0  0
 35 36  1  0  0  0
 35 38  1  0  0  0
 36 37  1  0  0  0
 38 39  1  0  0  0
 39 40  1  0  0  0
 20 23  1  0  0  0
 16 18  1  0  0  0
 11 12  1  0  0  0
 40 41  1  0  0  0
M  END
> <minimizedAffinity>
-8.68618

$$$$
4C2V_YJA_A_1357


 41 44  0  0  0  0  0  0  0  0999 V2000
   10.4057  -25.8409    5.1371 C   0  0  0  0  0  0  0  0  0  0  0  0
   11.5914  -25.1952    5.4133 N   0  0  0  0  0  0  0  0  0  0  0  0
   11.5392  -23.9291    5.7661 C   0  0  0  0  0  0  0  0  0  0  0  0
   10.4758  -23.1530    5.9900 N   0  0  0  0  0  0  0  0  0  0  0  0
    9.2482  -23.7329    5.7477 C   0  0  0  0  0  0  0  0  0  0  0  0
    8.0984  -22.9085    5.8698 C   0  0  0  0  0  0  0  0  0  0  0  0
    9.1939  -25.0926    5.3104 C   0  0  0  0  0  0  0  0  0  0  0  0
    7.8796  -25.5595    5.0907 C   0  0  0  0  0  0  0  0  0  0  0  0
    6.7253  -24.7564    5.2512 C   0  0  0  0  0  0  0  0  0  0  0  0
    6.8215  -23.4113    5.6911 C   0  0  0  0  0  0  0  0  0  0  0  0
   10.3995  -27.1461    4.6668 N   0  0  0  0  0  0  0  0  0  0  0  0
    9.5576  -27.6520    4.7332 H   0  0  0  0  0  0  0  0  0  0  0  0
   13.0334  -28.9836    3.1037 C   0  0  0  0  0  0  0  0  0  0  0  0
   11.6739  -28.7732    3.1851 C   0  0  0  0  0  0  0  0  0  0  0  0
   13.6470  -28.1734    3.9388 N   0  0  0  0  0  0  0  0  0  0  0  0
   12.7394  -27.4812    4.5470 N   0  0  0  0  0  0  0  0  0  0  0  0
   11.5028  -27.7937    4.1056 C   0  0  0  0  0  0  0  0  0  0  0  0
   12.9268  -26.8112    5.2436 H   0  0  0  0  0  0  0  0  0  0  0  0
   13.8005  -30.0098    2.2141 C   0  0  0  0  0  0  0  0  0  0  0  0
   13.6839  -32.3353    2.8463 N   0  0  0  0  0  0  0  0  0  0  0  0
   14.3282  -31.1830    3.1311 C   0  0  0  0  0  0  0  0  0  0  0  0
   15.3365  -31.0145    3.8380 O   0  0  0  0  0  0  0  0  0  0  0  0
   13.0973  -32.3438    2.0557 H   0  0  0  0  0  0  0  0  0  0  0  0
   14.9216  -34.3209    3.6642 C   0  0  0  0  0  0  0  0  0  0  0  0
   14.9198  -35.4382    4.4564 C   0  0  0  0  0  0  0  0  0  0  0  0
   16.1345  -36.2944    4.4099 F   0  0  0  0  0  0  0  0  0  0  0  0
   13.8223  -35.7417    5.2609 C   0  0  0  0  0  0  0  0  0  0  0  0
   12.7155  -34.9130    5.2767 C   0  0  0  0  0  0  0  0  0  0  0  0
   12.7024  -33.8036    4.4504 C   0  0  0  0  0  0  0  0  0  0  0  0
   13.7851  -33.5191    3.5877 C   0  0  0  0  0  0  0  0  0  0  0  0
    5.6974  -22.6513    5.9090 O   0  0  0  0  0  0  0  0  0  0  0  0
    4.8186  -23.0588    6.9798 C   0  0  0  0  0  0  0  0  0  0  0  0
    4.1709  -21.8257    7.5669 C   0  0  0  0  0  0  0  0  0  0  0  0
    2.6734  -22.0384    7.6468 C   0  0  0  0  0  0  0  0  0  0  0  0
    1.8678  -20.8167    7.3474 N   0  0  0  0  0  0  0  0  0  0  0  0
    0.7191  -21.1289    6.4691 C   0  0  0  0  0  0  0  0  0  0  0  0
    0.4263  -19.8794    5.6125 C   0  0  0  0  0  0  0  0  0  0  0  0
    2.5206  -19.5823    6.8415 C   0  0  0  0  0  0  0  0  0  0  0  0
    3.0116  -18.6340    7.9695 C   0  0  0  0  0  0  0  0  0  0  0  0
    2.0271  -18.9100    8.9795 O   0  0  0  0  0  0  0  0  0  0  0  0
    1.1410  -18.7458    8.6207 H   0  0  0  0  0  0  0  0  0  0  0  0
 24 25  1  0  0  0
 24 30  2  0  0  0
 25 26  1  0  0  0
 25 27  2  0  0  0
 27 28  1  0  0  0
 28 29  2  0  0  0
 29 30  1  0  0  0
 30 20  1  0  0  0
 20 21  1  0  0  0
 21 22  2  0  0  0
 21 19  1  0  0  0
 19 13  1  0  0  0
 13 14  1  0  0  0
 13 15  2  0  0  0
 14 17  2  0  0  0
 15 16  1  0  0  0
 16 17  1  0  0  0
 17 11  1  0  0  0
 11  1  1  0  0  0
  1  2  1  0  0  0
  1  7  2  0  0  0
  2  3  2  0  0  0
  3  4  1  0  0  0
  4  5  2  0  0  0
  5  6  1  0  0  0
  5  7  1  0  0  0
  6 10  2  0  0  0
  7  8  1  0  0  0
  8  9  2  0  0  0
  9 10  1  0  0  0
 10 31  1  0  0  0
 31 32  1  0  0  0
 32 33  1  0  0  0
 33 34  1  0  0  0
 34 35  1  0  0  0
 35 36  1  0  0  0
 35 38  1  0  0  0
 36 37  1  0  0  0
 38 39  1  0  0  0
 39 40  1  0  0  0
 20 23  1  0  0  0
 16 18  1  0  0  0
 11 12  1  0  0  0
 40 41  1  0  0  0
M  END
> <minimizedAffinity>
-8.62455

$$$$
4C2V_YJA_A_1357


 41 44  0  0  0  0  0  0  0  0999 V2000
   10.6872  -26.0752    4.8948 C   0  0  0  0  0  0  0  0  0  0  0  0
   11.8336  -25.4245    5.2966 N   0  0  0  0  0  0  0  0  0  0  0  0
   11.7243  -24.1855    5.7248 C   0  0  0  0  0  0  0  0  0  0  0  0
   10.6284  -23.4480    5.9202 N   0  0  0  0  0  0  0  0  0  0  0  0
    9.4362  -24.0361    5.5533 C   0  0  0  0  0  0  0  0  0  0  0  0
    8.2601  -23.2455    5.6442 C   0  0  0  0  0  0  0  0  0  0  0  0
    9.4476  -25.3651    5.0274 C   0  0  0  0  0  0  0  0  0  0  0  0
    8.1644  -25.8439    4.6838 C   0  0  0  0  0  0  0  0  0  0  0  0
    6.9816  -25.0771    4.8113 C   0  0  0  0  0  0  0  0  0  0  0  0
    7.0122  -23.7620    5.3420 C   0  0  0  0  0  0  0  0  0  0  0  0
   10.7475  -27.3467    4.3430 N   0  0  0  0  0  0  0  0  0  0  0  0
    9.9110  -27.8632    4.2923 H   0  0  0  0  0  0  0  0  0  0  0  0
   13.5517  -29.0408    2.9204 C   0  0  0  0  0  0  0  0  0  0  0  0
   12.1944  -28.8124    2.8514 C   0  0  0  0  0  0  0  0  0  0  0  0
   14.0561  -28.3494    3.9194 N   0  0  0  0  0  0  0  0  0  0  0  0
   13.0811  -27.7153    4.4852 N   0  0  0  0  0  0  0  0  0  0  0  0
   11.9107  -27.9463    3.8540 C   0  0  0  0  0  0  0  0  0  0  0  0
   13.1801  -27.1374    5.2761 H   0  0  0  0  0  0  0  0  0  0  0  0
   14.4221  -29.9697    2.0192 C   0  0  0  0  0  0  0  0  0  0  0  0
   13.7209  -32.2514    2.3708 N   0  0  0  0  0  0  0  0  0  0  0  0
   14.6400  -31.3444    2.7667 C   0  0  0  0  0  0  0  0  0  0  0  0
   15.6632  -31.5263    3.4484 O   0  0  0  0  0  0  0  0  0  0  0  0
   13.1456  -32.0116    1.6087 H   0  0  0  0  0  0  0  0  0  0  0  0
   13.1555  -33.7189    4.2867 C   0  0  0  0  0  0  0  0  0  0  0  0
   12.9480  -34.9930    4.7446 C   0  0  0  0  0  0  0  0  0  0  0  0
   12.6544  -35.1443    6.1943 F   0  0  0  0  0  0  0  0  0  0  0  0
   13.0133  -36.0831    3.8778 C   0  0  0  0  0  0  0  0  0  0  0  0
   13.2839  -35.8944    2.5350 C   0  0  0  0  0  0  0  0  0  0  0  0
   13.5283  -34.6115    2.0787 C   0  0  0  0  0  0  0  0  0  0  0  0
   13.5224  -33.5065    2.9597 C   0  0  0  0  0  0  0  0  0  0  0  0
    5.8566  -23.0414    5.5260 O   0  0  0  0  0  0  0  0  0  0  0  0
    5.5263  -22.6510    6.8764 C   0  0  0  0  0  0  0  0  0  0  0  0
    5.2707  -23.8991    7.6897 C   0  0  0  0  0  0  0  0  0  0  0  0
    3.9142  -24.4645    7.3235 C   0  0  0  0  0  0  0  0  0  0  0  0
    3.9738  -25.7658    6.5926 N   0  0  0  0  0  0  0  0  0  0  0  0
    2.8329  -25.9159    5.6629 C   0  0  0  0  0  0  0  0  0  0  0  0
    2.1030  -27.2279    6.0190 C   0  0  0  0  0  0  0  0  0  0  0  0
    4.1463  -27.0433    7.3302 C   0  0  0  0  0  0  0  0  0  0  0  0
    5.6064  -27.5732    7.3187 C   0  0  0  0  0  0  0  0  0  0  0  0
    5.5099  -28.6049    8.3145 O   0  0  0  0  0  0  0  0  0  0  0  0
    5.1866  -28.2230    9.1455 H   0  0  0  0  0  0  0  0  0  0  0  0
 24 25  1  0  0  0
 24 30  2  0  0  0
 25 26  1  0  0  0
 25 27  2  0  0  0
 27 28  1  0  0  0
 28 29  2  0  0  0
 29 30  1  0  0  0
 30 20  1  0  0  0
 20 21  1  0  0  0
 21 22  2  0  0  0
 21 19  1  0  0  0
 19 13  1  0  0  0
 13 14  1  0  0  0
 13 15  2  0  0  0
 14 17  2  0  0  0
 15 16  1  0  0  0
 16 17  1  0  0  0
 17 11  1  0  0  0
 11  1  1  0  0  0
  1  2  1  0  0  0
  1  7  2  0  0  0
  2  3  2  0  0  0
  3  4  1  0  0  0
  4  5  2  0  0  0
  5  6  1  0  0  0
  5  7  1  0  0  0
  6 10  2  0  0  0
  7  8  1  0  0  0
  8  9  2  0  0  0
  9 10  1  0  0  0
 10 31  1  0  0  0
 31 32  1  0  0  0
 32 33  1  0  0  0
 33 34  1  0  0  0
 34 35  1  0  0  0
 35 36  1  0  0  0
 35 38  1  0  0  0
 36 37  1  0  0  0
 38 39  1  0  0  0
 39 40  1  0  0  0
 20 23  1  0  0  0
 16 18  1  0  0  0
 11 12  1  0  0  0
 40 41  1  0  0  0
M  END
> <minimizedAffinity>
-8.57789

$$$$
