4JSA_FB2_A_303


 12 12  0  0  0  0  0  0  0  0999 V2000
   15.5819    5.1935   14.4464 C   0  0  0  0  0  0  0  0  0  0  0  0
   14.5098    4.3053   14.4980 C   0  0  0  0  0  0  0  0  0  0  0  0
   14.6483    2.9312   14.7269 C   0  0  0  0  0  0  0  0  0  0  0  0
   15.9738    2.4846   14.9342 C   0  0  0  0  0  0  0  0  0  0  0  0
   17.0335    3.3922   14.9308 C   0  0  0  0  0  0  0  0  0  0  0  0
   16.8559    4.7763   14.6803 C   0  0  0  0  0  0  0  0  0  0  0  0
   16.0711    0.7343   15.2384 S   0  0  0  0  0  0  0  0  0  0  0  0
   14.9318    0.3415   16.1480 O   0  0  0  0  0  0  0  0  0  0  0  0
   17.3339    0.3615   15.9749 O   0  0  0  0  0  0  0  0  0  0  0  0
   16.0863   -0.1033   13.7042 N   0  0  0  0  0  0  0  0  0  0  0  0
   16.8813    0.2156   13.1506 H   0  0  0  0  0  0  0  0  0  0  0  0
   15.2210    0.0930   13.2011 H   0  0  0  0  0  0  0  0  0  0  0  0
  1  2  1  0  0  0
  1  6  2  0  0  0
  2  3  2  0  0  0
  3  4  1  0  0  0
  4  5  2  0  0  0
  4  7  1  0  0  0
  5  6  1  0  0  0
  7  9  2  0  0  0
  7  8  2  0  0  0
  7 10  1  0  0  0
 10 11  1  0  0  0
 10 12  1  0  0  0
M  END
> <minimizedAffinity>
-6.32969

$$$$
4JSA_FB2_A_303


 12 12  0  0  0  0  0  0  0  0999 V2000
   16.0729    5.6052   14.4149 C   0  0  0  0  0  0  0  0  0  0  0  0
   17.2274    4.8327   14.5215 C   0  0  0  0  0  0  0  0  0  0  0  0
   17.2459    3.5269   15.0257 C   0  0  0  0  0  0  0  0  0  0  0  0
   15.9867    3.0102   15.4091 C   0  0  0  0  0  0  0  0  0  0  0  0
   14.8310    3.7755   15.2496 C   0  0  0  0  0  0  0  0  0  0  0  0
   14.8535    5.1016   14.7484 C   0  0  0  0  0  0  0  0  0  0  0  0
   16.0839    1.3421   16.0203 S   0  0  0  0  0  0  0  0  0  0  0  0
   15.5361    1.3140   17.4269 O   0  0  0  0  0  0  0  0  0  0  0  0
   17.5111    0.8642   16.1241 O   0  0  0  0  0  0  0  0  0  0  0  0
   15.2515    0.2849   14.9045 N   0  0  0  0  0  0  0  0  0  0  0  0
   15.6785    0.3608   13.9813 H   0  0  0  0  0  0  0  0  0  0  0  0
   14.2696    0.5552   14.8483 H   0  0  0  0  0  0  0  0  0  0  0  0
  1  2  1  0  0  0
  1  6  2  0  0  0
  2  3  2  0  0  0
  3  4  1  0  0  0
  4  5  2  0  0  0
  4  7  1  0  0  0
  5  6  1  0  0  0
  7  9  2  0  0  0
  7  8  2  0  0  0
  7 10  1  0  0  0
 10 11  1  0  0  0
 10 12  1  0  0  0
M  END
> <minimizedAffinity>
-6.21972

$$$$
4JSA_FB2_A_303


 12 12  0  0  0  0  0  0  0  0999 V2000
   16.6513   -0.1615   10.4417 C   0  0  0  0  0  0  0  0  0  0  0  0
   16.3643    1.1251   10.8924 C   0  0  0  0  0  0  0  0  0  0  0  0
   16.2410    1.4663   12.2445 C   0  0  0  0  0  0  0  0  0  0  0  0
   16.4552    0.4068   13.1561 C   0  0  0  0  0  0  0  0  0  0  0  0
   16.7924   -0.8656   12.6935 C   0  0  0  0  0  0  0  0  0  0  0  0
   16.8936   -1.1773   11.3141 C   0  0  0  0  0  0  0  0  0  0  0  0
   16.3026    0.9174   14.8536 S   0  0  0  0  0  0  0  0  0  0  0  0
   16.7703    2.3484   14.9679 O   0  0  0  0  0  0  0  0  0  0  0  0
   17.2001    0.1164   15.7640 O   0  0  0  0  0  0  0  0  0  0  0  0
   14.6539    0.6575   15.3731 N   0  0  0  0  0  0  0  0  0  0  0  0
   14.4149   -0.3283   15.2656 H   0  0  0  0  0  0  0  0  0  0  0  0
   14.0248    1.2239   14.8040 H   0  0  0  0  0  0  0  0  0  0  0  0
  1  2  1  0  0  0
  1  6  2  0  0  0
  2  3  2  0  0  0
  3  4  1  0  0  0
  4  5  2  0  0  0
  4  7  1  0  0  0
  5  6  1  0  0  0
  7  9  2  0  0  0
  7  8  2  0  0  0
  7 10  1  0  0  0
 10 11  1  0  0  0
 10 12  1  0  0  0
M  END
> <minimizedAffinity>
-5.95248

$$$$
4JSA_FB2_A_303


 12 12  0  0  0  0  0  0  0  0999 V2000
   15.0449    2.1868   16.4049 C   0  0  0  0  0  0  0  0  0  0  0  0
   14.8493    2.8664   15.2045 C   0  0  0  0  0  0  0  0  0  0  0  0
   15.3355    2.4204   13.9699 C   0  0  0  0  0  0  0  0  0  0  0  0
   16.0356    1.1923   14.0050 C   0  0  0  0  0  0  0  0  0  0  0  0
   16.1804    0.4961   15.2055 C   0  0  0  0  0  0  0  0  0  0  0  0
   15.6865    0.9873   16.4403 C   0  0  0  0  0  0  0  0  0  0  0  0
   16.6057    0.6784   12.3999 S   0  0  0  0  0  0  0  0  0  0  0  0
   16.6379   -0.8306   12.3628 O   0  0  0  0  0  0  0  0  0  0  0  0
   18.0216    1.1276   12.1364 O   0  0  0  0  0  0  0  0  0  0  0  0
   15.5845    1.4048   11.1812 N   0  0  0  0  0  0  0  0  0  0  0  0
   15.6164    2.4203   11.2721 H   0  0  0  0  0  0  0  0  0  0  0  0
   14.6248    1.0823   11.3055 H   0  0  0  0  0  0  0  0  0  0  0  0
  1  2  1  0  0  0
  1  6  2  0  0  0
  2  3  2  0  0  0
  3  4  1  0  0  0
  4  5  2  0  0  0
  4  7  1  0  0  0
  5  6  1  0  0  0
  7  9  2  0  0  0
  7  8  2  0  0  0
  7 10  1  0  0  0
 10 11  1  0  0  0
 10 12  1  0  0  0
M  END
> <minimizedAffinity>
-5.44306

$$$$
4JSA_FB2_A_303


 12 12  0  0  0  0  0  0  0  0999 V2000
   14.0731    1.5630   17.6628 C   0  0  0  0  0  0  0  0  0  0  0  0
   13.8965    2.7541   16.9621 C   0  0  0  0  0  0  0  0  0  0  0  0
   14.6714    3.1295   15.8583 C   0  0  0  0  0  0  0  0  0  0  0  0
   15.6563    2.1938   15.4662 C   0  0  0  0  0  0  0  0  0  0  0  0
   15.7890    0.9819   16.1447 C   0  0  0  0  0  0  0  0  0  0  0  0
   14.9948    0.6426   17.2691 C   0  0  0  0  0  0  0  0  0  0  0  0
   16.5873    2.7277   14.0471 S   0  0  0  0  0  0  0  0  0  0  0  0
   17.0686    1.5061   13.3018 O   0  0  0  0  0  0  0  0  0  0  0  0
   17.8304    3.4851   14.4434 O   0  0  0  0  0  0  0  0  0  0  0  0
   15.5927    3.8042   13.0944 N   0  0  0  0  0  0  0  0  0  0  0  0
   15.3095    4.6003   13.6658 H   0  0  0  0  0  0  0  0  0  0  0  0
   14.7637    3.3050   12.7720 H   0  0  0  0  0  0  0  0  0  0  0  0
  1  2  1  0  0  0
  1  6  2  0  0  0
  2  3  2  0  0  0
  3  4  1  0  0  0
  4  5  2  0  0  0
  4  7  1  0  0  0
  5  6  1  0  0  0
  7  9  2  0  0  0
  7  8  2  0  0  0
  7 10  1  0  0  0
 10 11  1  0  0  0
 10 12  1  0  0  0
M  END
> <minimizedAffinity>
-5.43436

$$$$
4JSA_FB2_A_303


 12 12  0  0  0  0  0  0  0  0999 V2000
   14.6434    4.0081   15.5656 C   0  0  0  0  0  0  0  0  0  0  0  0
   15.2770    4.4238   14.3965 C   0  0  0  0  0  0  0  0  0  0  0  0
   15.8603    3.5472   13.4740 C   0  0  0  0  0  0  0  0  0  0  0  0
   15.7458    2.1739   13.7909 C   0  0  0  0  0  0  0  0  0  0  0  0
   15.0643    1.7684   14.9388 C   0  0  0  0  0  0  0  0  0  0  0  0
   14.4985    2.6872   15.8585 C   0  0  0  0  0  0  0  0  0  0  0  0
   16.4908    1.1201   12.5661 S   0  0  0  0  0  0  0  0  0  0  0  0
   16.5158   -0.2921   13.0996 O   0  0  0  0  0  0  0  0  0  0  0  0
   17.9308    1.4890   12.3087 O   0  0  0  0  0  0  0  0  0  0  0  0
   15.6202    1.3037   11.0615 N   0  0  0  0  0  0  0  0  0  0  0  0
   15.6491    2.2804   10.7689 H   0  0  0  0  0  0  0  0  0  0  0  0
   14.6503    1.0167   11.1926 H   0  0  0  0  0  0  0  0  0  0  0  0
  1  2  1  0  0  0
  1  6  2  0  0  0
  2  3  2  0  0  0
  3  4  1  0  0  0
  4  5  2  0  0  0
  4  7  1  0  0  0
  5  6  1  0  0  0
  7  9  2  0  0  0
  7  8  2  0  0  0
  7 10  1  0  0  0
 10 11  1  0  0  0
 10 12  1  0  0  0
M  END
> <minimizedAffinity>
-5.30765

$$$$
4JSA_FB2_A_303


 12 12  0  0  0  0  0  0  0  0999 V2000
   14.1598    2.7066   16.6128 C   0  0  0  0  0  0  0  0  0  0  0  0
   14.5365    3.5220   15.5478 C   0  0  0  0  0  0  0  0  0  0  0  0
   15.2163    3.0581   14.4154 C   0  0  0  0  0  0  0  0  0  0  0  0
   15.4857    1.6701   14.3997 C   0  0  0  0  0  0  0  0  0  0  0  0
   15.0580    0.8558   15.4489 C   0  0  0  0  0  0  0  0  0  0  0  0
   14.3841    1.3647   16.5879 C   0  0  0  0  0  0  0  0  0  0  0  0
   16.3323    1.1494   12.9240 S   0  0  0  0  0  0  0  0  0  0  0  0
   17.6439    1.8921   12.8362 O   0  0  0  0  0  0  0  0  0  0  0  0
   15.5661    1.5171   11.6776 O   0  0  0  0  0  0  0  0  0  0  0  0
   16.4934   -0.5909   12.9524 N   0  0  0  0  0  0  0  0  0  0  0  0
   15.5687   -1.0171   13.0122 H   0  0  0  0  0  0  0  0  0  0  0  0
   17.0485   -0.8679   13.7621 H   0  0  0  0  0  0  0  0  0  0  0  0
  1  2  1  0  0  0
  1  6  2  0  0  0
  2  3  2  0  0  0
  3  4  1  0  0  0
  4  5  2  0  0  0
  4  7  1  0  0  0
  5  6  1  0  0  0
  7  9  2  0  0  0
  7  8  2  0  0  0
  7 10  1  0  0  0
 10 11  1  0  0  0
 10 12  1  0  0  0
M  END
> <minimizedAffinity>
-5.09488

$$$$
4JSA_FB2_A_303


 12 12  0  0  0  0  0  0  0  0999 V2000
   15.0216    4.8459   15.1457 C   0  0  0  0  0  0  0  0  0  0  0  0
   14.5851    3.5461   15.3931 C   0  0  0  0  0  0  0  0  0  0  0  0
   15.0138    2.4298   14.6653 C   0  0  0  0  0  0  0  0  0  0  0  0
   15.9619    2.6983   13.6512 C   0  0  0  0  0  0  0  0  0  0  0  0
   16.4293    3.9971   13.4474 C   0  0  0  0  0  0  0  0  0  0  0  0
   15.9601    5.1063   14.1955 C   0  0  0  0  0  0  0  0  0  0  0  0
   16.4754    1.2327   12.7829 S   0  0  0  0  0  0  0  0  0  0  0  0
   17.9180    1.4004   12.3703 O   0  0  0  0  0  0  0  0  0  0  0  0
   15.7006    1.0375   11.5033 O   0  0  0  0  0  0  0  0  0  0  0  0
   16.1766   -0.1572   13.7999 N   0  0  0  0  0  0  0  0  0  0  0  0
   15.1847   -0.2003   14.0340 H   0  0  0  0  0  0  0  0  0  0  0  0
   16.7248   -0.0761   14.6562 H   0  0  0  0  0  0  0  0  0  0  0  0
  1  2  1  0  0  0
  1  6  2  0  0  0
  2  3  2  0  0  0
  3  4  1  0  0  0
  4  5  2  0  0  0
  4  7  1  0  0  0
  5  6  1  0  0  0
  7  9  2  0  0  0
  7  8  2  0  0  0
  7 10  1  0  0  0
 10 11  1  0  0  0
 10 12  1  0  0  0
M  END
> <minimizedAffinity>
-5.06502

$$$$
4JSA_FB2_A_303


 12 12  0  0  0  0  0  0  0  0999 V2000
   17.1758    5.0551   13.1062 C   0  0  0  0  0  0  0  0  0  0  0  0
   17.1680    3.9104   12.3120 C   0  0  0  0  0  0  0  0  0  0  0  0
   16.8682    2.6309   12.7945 C   0  0  0  0  0  0  0  0  0  0  0  0
   16.5392    2.5658   14.1682 C   0  0  0  0  0  0  0  0  0  0  0  0
   16.5008    3.7268   14.9410 C   0  0  0  0  0  0  0  0  0  0  0  0
   16.8255    5.0048   14.4202 C   0  0  0  0  0  0  0  0  0  0  0  0
   16.1509    0.9148   14.7057 S   0  0  0  0  0  0  0  0  0  0  0  0
   16.2333   -0.0093   13.5146 O   0  0  0  0  0  0  0  0  0  0  0  0
   14.7342    0.8079   15.2131 O   0  0  0  0  0  0  0  0  0  0  0  0
   17.2183    0.4861   16.0219 N   0  0  0  0  0  0  0  0  0  0  0  0
   17.1039    1.1545   16.7839 H   0  0  0  0  0  0  0  0  0  0  0  0
   18.1846    0.5045   15.6958 H   0  0  0  0  0  0  0  0  0  0  0  0
  1  2  1  0  0  0
  1  6  2  0  0  0
  2  3  2  0  0  0
  3  4  1  0  0  0
  4  5  2  0  0  0
  4  7  1  0  0  0
  5  6  1  0  0  0
  7  9  2  0  0  0
  7  8  2  0  0  0
  7 10  1  0  0  0
 10 11  1  0  0  0
 10 12  1  0  0  0
M  END
> <minimizedAffinity>
-4.99329

$$$$
4JSA_FB2_A_303


 12 12  0  0  0  0  0  0  0  0999 V2000
   14.4913    2.5387   16.5579 C   0  0  0  0  0  0  0  0  0  0  0  0
   14.4292    3.7096   15.8053 C   0  0  0  0  0  0  0  0  0  0  0  0
   15.4999    4.2096   15.0548 C   0  0  0  0  0  0  0  0  0  0  0  0
   16.6754    3.4242   15.0830 C   0  0  0  0  0  0  0  0  0  0  0  0
   16.7081    2.2274   15.7993 C   0  0  0  0  0  0  0  0  0  0  0  0
   15.6072    1.7600   16.5608 C   0  0  0  0  0  0  0  0  0  0  0  0
   17.9850    4.1091   14.0923 S   0  0  0  0  0  0  0  0  0  0  0  0
   17.6088    5.5201   13.7090 O   0  0  0  0  0  0  0  0  0  0  0  0
   18.1569    3.3610   12.7936 O   0  0  0  0  0  0  0  0  0  0  0  0
   19.4862    3.9822   14.9790 N   0  0  0  0  0  0  0  0  0  0  0  0
   19.6690    3.0033   15.1996 H   0  0  0  0  0  0  0  0  0  0  0  0
   19.4165    4.5183   15.8439 H   0  0  0  0  0  0  0  0  0  0  0  0
  1  2  1  0  0  0
  1  6  2  0  0  0
  2  3  2  0  0  0
  3  4  1  0  0  0
  4  5  2  0  0  0
  4  7  1  0  0  0
  5  6  1  0  0  0
  7  9  2  0  0  0
  7  8  2  0  0  0
  7 10  1  0  0  0
 10 11  1  0  0  0
 10 12  1  0  0  0
M  END
> <minimizedAffinity>
-4.97549

$$$$
