1BCD_FMS_A_500


 10  9  0  0  0  0  0  0  0  0999 V2000
   -5.1495    0.9310   16.7592 S   0  0  0  0  0  0  0  0  0  0  0  0
   -3.7469    1.7126   16.5572 N   0  0  0  0  0  0  0  0  0  0  0  0
   -5.1398   -0.1448   15.7798 O   0  0  0  0  0  0  0  0  0  0  0  0
   -5.2961    0.4807   18.1476 O   0  0  0  0  0  0  0  0  0  0  0  0
   -3.6639    2.0171   15.5873 H   0  0  0  0  0  0  0  0  0  0  0  0
   -2.9736    1.0876   16.7847 H   0  0  0  0  0  0  0  0  0  0  0  0
   -6.5283    1.9810   16.4846 C   0  0  0  0  0  0  0  0  0  0  0  0
   -6.6594    2.7778   17.4797 F   0  0  0  0  0  0  0  0  0  0  0  0
   -7.6201    1.1628   16.5661 F   0  0  0  0  0  0  0  0  0  0  0  0
   -6.4080    2.5733   15.3424 F   0  0  0  0  0  0  0  0  0  0  0  0
  7  8  1  0  0  0
  7  9  1  0  0  0
  7 10  1  0  0  0
  7  1  1  0  0  0
  1  2  1  0  0  0
  1  3  2  0  0  0
  1  4  2  0  0  0
  2  5  1  0  0  0
  2  6  1  0  0  0
M  END
> <minimizedAffinity>
-5.44815

$$$$
1BCD_FMS_A_500


 10  9  0  0  0  0  0  0  0  0999 V2000
   -4.9456    1.1133   16.2068 S   0  0  0  0  0  0  0  0  0  0  0  0
   -4.7353   -0.3246   15.4946 N   0  0  0  0  0  0  0  0  0  0  0  0
   -3.6289    1.5071   16.6843 O   0  0  0  0  0  0  0  0  0  0  0  0
   -5.5594    2.0671   15.2765 O   0  0  0  0  0  0  0  0  0  0  0  0
   -4.3082   -0.9726   16.1564 H   0  0  0  0  0  0  0  0  0  0  0  0
   -4.1263   -0.2164   14.6835 H   0  0  0  0  0  0  0  0  0  0  0  0
   -6.0689    1.0185   17.5515 C   0  0  0  0  0  0  0  0  0  0  0  0
   -5.9693   -0.1321   18.1069 F   0  0  0  0  0  0  0  0  0  0  0  0
   -7.3096    1.0062   16.9781 F   0  0  0  0  0  0  0  0  0  0  0  0
   -5.8779    2.0136   18.3535 F   0  0  0  0  0  0  0  0  0  0  0  0
  7  8  1  0  0  0
  7  9  1  0  0  0
  7 10  1  0  0  0
  7  1  1  0  0  0
  1  2  1  0  0  0
  1  3  2  0  0  0
  1  4  2  0  0  0
  2  5  1  0  0  0
  2  6  1  0  0  0
M  END
> <minimizedAffinity>
-5.33193

$$$$
1BCD_FMS_A_500


 10  9  0  0  0  0  0  0  0  0999 V2000
   -4.9841    0.9859   16.0992 S   0  0  0  0  0  0  0  0  0  0  0  0
   -3.5607    1.5967   16.5678 N   0  0  0  0  0  0  0  0  0  0  0  0
   -5.4749    1.8891   15.0696 O   0  0  0  0  0  0  0  0  0  0  0  0
   -4.8308   -0.4046   15.6578 O   0  0  0  0  0  0  0  0  0  0  0  0
   -3.6881    2.5624   16.8704 H   0  0  0  0  0  0  0  0  0  0  0  0
   -2.9051    1.5689   15.7869 H   0  0  0  0  0  0  0  0  0  0  0  0
   -6.1301    0.9074   17.4256 C   0  0  0  0  0  0  0  0  0  0  0  0
   -7.3135    1.1077   16.9761 F   0  0  0  0  0  0  0  0  0  0  0  0
   -5.8703    2.0132   18.1859 F   0  0  0  0  0  0  0  0  0  0  0  0
   -5.9862   -0.2067   18.0643 F   0  0  0  0  0  0  0  0  0  0  0  0
  7  8  1  0  0  0
  7  9  1  0  0  0
  7 10  1  0  0  0
  7  1  1  0  0  0
  1  2  1  0  0  0
  1  3  2  0  0  0
  1  4  2  0  0  0
  2  5  1  0  0  0
  2  6  1  0  0  0
M  END
> <minimizedAffinity>
-5.32012

$$$$
1BCD_FMS_A_500


 10  9  0  0  0  0  0  0  0  0999 V2000
   -4.8141    0.9530   16.0258 S   0  0  0  0  0  0  0  0  0  0  0  0
   -5.1556    1.8716   14.7379 N   0  0  0  0  0  0  0  0  0  0  0  0
   -4.7444   -0.4106   15.5234 O   0  0  0  0  0  0  0  0  0  0  0  0
   -3.5869    1.4170   16.6819 O   0  0  0  0  0  0  0  0  0  0  0  0
   -6.0107    1.5336   14.2964 H   0  0  0  0  0  0  0  0  0  0  0  0
   -4.3857    1.8216   14.0708 H   0  0  0  0  0  0  0  0  0  0  0  0
   -6.0527    1.0751   17.2626 C   0  0  0  0  0  0  0  0  0  0  0  0
   -5.7954    2.0738   18.0234 F   0  0  0  0  0  0  0  0  0  0  0  0
   -5.8617   -0.0142   18.0658 F   0  0  0  0  0  0  0  0  0  0  0  0
   -7.2207    1.1147   16.7113 F   0  0  0  0  0  0  0  0  0  0  0  0
  7  8  1  0  0  0
  7  9  1  0  0  0
  7 10  1  0  0  0
  7  1  1  0  0  0
  1  2  1  0  0  0
  1  3  2  0  0  0
  1  4  2  0  0  0
  2  5  1  0  0  0
  2  6  1  0  0  0
M  END
> <minimizedAffinity>
-5.25379

$$$$
1BCD_FMS_A_500


 10  9  0  0  0  0  0  0  0  0999 V2000
   -4.9329    1.0264   16.6138 S   0  0  0  0  0  0  0  0  0  0  0  0
   -4.8865   -0.2076   15.5679 N   0  0  0  0  0  0  0  0  0  0  0  0
   -5.1733    0.4238   17.9160 O   0  0  0  0  0  0  0  0  0  0  0  0
   -3.7009    1.8188   16.5347 O   0  0  0  0  0  0  0  0  0  0  0  0
   -5.7504   -0.7454   15.6381 H   0  0  0  0  0  0  0  0  0  0  0  0
   -4.0927   -0.8094   15.7870 H   0  0  0  0  0  0  0  0  0  0  0  0
   -6.2159    2.1603   16.2304 C   0  0  0  0  0  0  0  0  0  0  0  0
   -6.3128    3.0251   17.1712 F   0  0  0  0  0  0  0  0  0  0  0  0
   -7.3708    1.4352   16.3235 F   0  0  0  0  0  0  0  0  0  0  0  0
   -6.0160    2.6694   15.0597 F   0  0  0  0  0  0  0  0  0  0  0  0
  7  8  1  0  0  0
  7  9  1  0  0  0
  7 10  1  0  0  0
  7  1  1  0  0  0
  1  2  1  0  0  0
  1  3  2  0  0  0
  1  4  2  0  0  0
  2  5  1  0  0  0
  2  6  1  0  0  0
M  END
> <minimizedAffinity>
-5.09054

$$$$
1BCD_FMS_A_500


 10  9  0  0  0  0  0  0  0  0999 V2000
   -4.6601    0.9829   15.9448 S   0  0  0  0  0  0  0  0  0  0  0  0
   -4.5291    1.0679   14.3340 N   0  0  0  0  0  0  0  0  0  0  0  0
   -5.1528   -0.3571   16.2247 O   0  0  0  0  0  0  0  0  0  0  0  0
   -3.3795    1.3003   16.5860 O   0  0  0  0  0  0  0  0  0  0  0  0
   -5.4282    0.8443   13.9075 H   0  0  0  0  0  0  0  0  0  0  0  0
   -3.8260    0.4015   14.0144 H   0  0  0  0  0  0  0  0  0  0  0  0
   -5.7802    2.1784   16.5734 C   0  0  0  0  0  0  0  0  0  0  0  0
   -6.9214    2.0278   16.0101 F   0  0  0  0  0  0  0  0  0  0  0  0
   -5.3273    3.3760   16.0950 F   0  0  0  0  0  0  0  0  0  0  0  0
   -5.8122    2.1138   17.8636 F   0  0  0  0  0  0  0  0  0  0  0  0
  7  8  1  0  0  0
  7  9  1  0  0  0
  7 10  1  0  0  0
  7  1  1  0  0  0
  1  2  1  0  0  0
  1  3  2  0  0  0
  1  4  2  0  0  0
  2  5  1  0  0  0
  2  6  1  0  0  0
M  END
> <minimizedAffinity>
-4.90051

$$$$
1BCD_FMS_A_500


 10  9  0  0  0  0  0  0  0  0999 V2000
   -4.8123    1.1086   15.8391 S   0  0  0  0  0  0  0  0  0  0  0  0
   -5.8218    0.2215   16.7409 N   0  0  0  0  0  0  0  0  0  0  0  0
   -3.5926    1.2273   16.6233 O   0  0  0  0  0  0  0  0  0  0  0  0
   -4.6232    0.4965   14.5195 O   0  0  0  0  0  0  0  0  0  0  0  0
   -5.9401    0.6629   17.6528 H   0  0  0  0  0  0  0  0  0  0  0  0
   -5.4349   -0.7142   16.8637 H   0  0  0  0  0  0  0  0  0  0  0  0
   -5.4664    2.7012   15.5007 C   0  0  0  0  0  0  0  0  0  0  0  0
   -6.4058    2.9596   16.3333 F   0  0  0  0  0  0  0  0  0  0  0  0
   -6.1092    2.5740   14.3011 F   0  0  0  0  0  0  0  0  0  0  0  0
   -4.5130    3.5734   15.4883 F   0  0  0  0  0  0  0  0  0  0  0  0
  7  8  1  0  0  0
  7  9  1  0  0  0
  7 10  1  0  0  0
  7  1  1  0  0  0
  1  2  1  0  0  0
  1  3  2  0  0  0
  1  4  2  0  0  0
  2  5  1  0  0  0
  2  6  1  0  0  0
M  END
> <minimizedAffinity>
-4.52290

$$$$
1BCD_FMS_A_500


 10  9  0  0  0  0  0  0  0  0999 V2000
   -4.3787    2.2723   15.4758 S   0  0  0  0  0  0  0  0  0  0  0  0
   -3.7902    1.2585   16.5914 N   0  0  0  0  0  0  0  0  0  0  0  0
   -3.5896    3.4883   15.6003 O   0  0  0  0  0  0  0  0  0  0  0  0
   -4.3345    1.6590   14.1439 O   0  0  0  0  0  0  0  0  0  0  0  0
   -3.8294    1.7025   17.5088 H   0  0  0  0  0  0  0  0  0  0  0  0
   -2.8222    1.0293   16.3657 H   0  0  0  0  0  0  0  0  0  0  0  0
   -6.0759    2.6272   15.7455 C   0  0  0  0  0  0  0  0  0  0  0  0
   -6.1977    3.3342   16.8074 F   0  0  0  0  0  0  0  0  0  0  0  0
   -6.6416    1.4277   16.0764 F   0  0  0  0  0  0  0  0  0  0  0  0
   -6.5848    3.1664   14.6872 F   0  0  0  0  0  0  0  0  0  0  0  0
  7  8  1  0  0  0
  7  9  1  0  0  0
  7 10  1  0  0  0
  7  1  1  0  0  0
  1  2  1  0  0  0
  1  3  2  0  0  0
  1  4  2  0  0  0
  2  5  1  0  0  0
  2  6  1  0  0  0
M  END
> <minimizedAffinity>
-4.42627

$$$$
1BCD_FMS_A_500


 10  9  0  0  0  0  0  0  0  0999 V2000
   -6.1530    1.3289   17.5106 S   0  0  0  0  0  0  0  0  0  0  0  0
   -7.6861    1.1109   17.0405 N   0  0  0  0  0  0  0  0  0  0  0  0
   -6.2220    2.2123   18.6646 O   0  0  0  0  0  0  0  0  0  0  0  0
   -5.5045    0.0402   17.7760 O   0  0  0  0  0  0  0  0  0  0  0  0
   -8.1189    2.0169   16.8611 H   0  0  0  0  0  0  0  0  0  0  0  0
   -8.2018    0.6274   17.7758 H   0  0  0  0  0  0  0  0  0  0  0  0
   -5.1807    2.0641   16.2485 C   0  0  0  0  0  0  0  0  0  0  0  0
   -5.2107    1.3225   15.2038 F   0  0  0  0  0  0  0  0  0  0  0  0
   -3.8910    1.9659   16.6906 F   0  0  0  0  0  0  0  0  0  0  0  0
   -5.5690    3.2802   16.0479 F   0  0  0  0  0  0  0  0  0  0  0  0
  7  8  1  0  0  0
  7  9  1  0  0  0
  7 10  1  0  0  0
  7  1  1  0  0  0
  1  2  1  0  0  0
  1  3  2  0  0  0
  1  4  2  0  0  0
  2  5  1  0  0  0
  2  6  1  0  0  0
M  END
> <minimizedAffinity>
-4.41345

$$$$
1BCD_FMS_A_500


 10  9  0  0  0  0  0  0  0  0999 V2000
   -4.8231    1.1485   15.6037 S   0  0  0  0  0  0  0  0  0  0  0  0
   -3.5713    1.5606   16.5431 N   0  0  0  0  0  0  0  0  0  0  0  0
   -4.7528   -0.2990   15.4751 O   0  0  0  0  0  0  0  0  0  0  0  0
   -6.0818    1.6427   16.1722 O   0  0  0  0  0  0  0  0  0  0  0  0
   -2.7070    1.2085   16.1315 H   0  0  0  0  0  0  0  0  0  0  0  0
   -3.6952    1.1563   17.4713 H   0  0  0  0  0  0  0  0  0  0  0  0
   -4.7263    1.8979   14.0201 C   0  0  0  0  0  0  0  0  0  0  0  0
   -3.7427    2.7191   13.9989 F   0  0  0  0  0  0  0  0  0  0  0  0
   -5.8312    2.6982   13.9373 F   0  0  0  0  0  0  0  0  0  0  0  0
   -4.6765    0.9861   13.1057 F   0  0  0  0  0  0  0  0  0  0  0  0
  7  8  1  0  0  0
  7  9  1  0  0  0
  7 10  1  0  0  0
  7  1  1  0  0  0
  1  2  1  0  0  0
  1  3  2  0  0  0
  1  4  2  0  0  0
  2  5  1  0  0  0
  2  6  1  0  0  0
M  END
> <minimizedAffinity>
-4.41205

$$$$
