5FCK_5WC_A_301


 37 41  0  0  0  0  0  0  0  0999 V2000
   -2.2123  -11.4895   10.1547 C   0  0  0  0  0  0  0  0  0  0  0  0
   -1.0517  -11.1407   11.1408 C   0  0  0  0  0  0  0  0  0  0  0  0
   -2.0753  -10.5524    8.9482 C   0  0  0  0  0  0  0  0  0  0  0  0
   -0.5016   -8.7598    8.5168 C   0  0  0  0  0  0  0  0  0  0  0  0
   -0.8757   -9.7848    9.2912 N   0  0  0  0  0  0  0  0  0  0  0  0
   -0.1419  -10.0309   10.5193 C   0  0  0  0  0  0  0  0  0  0  0  0
    0.4747   -8.0338    8.7407 O   0  0  0  0  0  0  0  0  0  0  0  0
   -3.2530  -10.3840    9.9101 C   0  0  0  0  0  0  0  0  0  0  0  0
    1.2134  -10.6766   10.3072 C   0  0  0  0  0  0  0  0  0  0  0  0
    1.9561  -10.7997   11.4129 N   0  0  0  0  0  0  0  0  0  0  0  0
    1.5072  -11.1094    9.2129 O   0  0  0  0  0  0  0  0  0  0  0  0
    1.6333  -10.3984   12.2520 H   0  0  0  0  0  0  0  0  0  0  0  0
    3.2311  -11.5114   11.4130 C   0  0  0  0  0  0  0  0  0  0  0  0
    3.3795  -12.0459   12.8825 C   0  0  0  0  0  0  0  0  0  0  0  0
    4.4526  -10.7260   10.9447 C   0  0  0  0  0  0  0  0  0  0  0  0
    5.2309  -11.2046    9.8984 C   0  0  0  0  0  0  0  0  0  0  0  0
    6.3089  -10.5035    9.4344 C   0  0  0  0  0  0  0  0  0  0  0  0
    6.6405   -9.2583    9.9668 C   0  0  0  0  0  0  0  0  0  0  0  0
    5.8784   -8.7709   11.0274 C   0  0  0  0  0  0  0  0  0  0  0  0
    4.7570   -9.4899   11.5192 C   0  0  0  0  0  0  0  0  0  0  0  0
    4.9350  -12.3611    9.3223 F   0  0  0  0  0  0  0  0  0  0  0  0
    7.1903  -11.2249    8.0811 Cl  0  0  0  0  0  0  0  0  0  0  0  0
   -1.3885   -8.4869    7.3555 C   0  0  0  0  0  0  0  0  0  0  0  0
   -0.0363   -7.7317    5.3878 C   0  0  0  0  0  0  0  0  0  0  0  0
    0.3436   -6.5668    4.7338 C   0  0  0  0  0  0  0  0  0  0  0  0
   -0.3128   -5.5445    5.5952 C   0  0  0  0  0  0  0  0  0  0  0  0
    0.3994   -9.0255    4.9274 C   0  0  0  0  0  0  0  0  0  0  0  0
    1.5892   -7.8713    3.1592 C   0  0  0  0  0  0  0  0  0  0  0  0
    1.1769   -6.5654    3.5756 C   0  0  0  0  0  0  0  0  0  0  0  0
   -0.7851   -7.4567    6.5004 N   0  0  0  0  0  0  0  0  0  0  0  0
   -0.9995   -6.1269    6.5387 N   0  0  0  0  0  0  0  0  0  0  0  0
    1.1945   -9.0247    3.8167 N   0  0  0  0  0  0  0  0  0  0  0  0
   -0.2653   -4.1112    5.3350 C   0  0  0  0  0  0  0  0  0  0  0  0
   -1.0586   -3.2474    6.0749 N   0  0  0  0  0  0  0  0  0  0  0  0
    0.4400   -3.7534    4.4184 O   0  0  0  0  0  0  0  0  0  0  0  0
   -1.0276   -2.2790    5.9003 H   0  0  0  0  0  0  0  0  0  0  0  0
   -1.6528   -3.6026    6.7749 H   0  0  0  0  0  0  0  0  0  0  0  0
 28 29  2  0  0  0
 28 32  1  0  0  0
 29 25  1  0  0  0
 32 27  2  0  0  0
 35 33  2  0  0  0
 25 24  2  0  0  0
 25 26  1  0  0  0
 27 24  1  0  0  0
 33 26  1  0  0  0
 33 34  1  0  0  0
 24 30  1  0  0  0
 26 31  2  0  0  0
 30 31  1  0  0  0
 30 23  1  0  0  0
 23  4  1  0  0  0
  7  4  2  0  0  0
  4  5  1  0  0  0
 19 18  2  0  0  0
 19 20  1  0  0  0
 11  9  2  0  0  0
 18 17  1  0  0  0
 20 15  2  0  0  0
  5  3  1  0  0  0
  5  6  1  0  0  0
  3  8  1  0  0  0
  3  1  1  0  0  0
  9  6  1  0  0  0
  9 10  1  0  0  0
 17 16  2  0  0  0
 17 22  1  0  0  0
 15 16  1  0  0  0
 15 13  1  0  0  0
  6  2  1  0  0  0
  8  1  1  0  0  0
  1  2  1  0  0  0
 16 21  1  0  0  0
 13 10  1  0  0  0
 13 14  1  0  0  0
 10 12  1  0  0  0
 34 36  1  0  0  0
 34 37  1  0  0  0
M  END
> <minimizedAffinity>
-9.87560

$$$$
5FCK_5WC_A_301


 37 41  0  0  0  0  0  0  0  0999 V2000
   -2.2968  -10.5534   10.5712 C   0  0  0  0  0  0  0  0  0  0  0  0
   -0.9481  -10.3597   11.3359 C   0  0  0  0  0  0  0  0  0  0  0  0
   -2.1589   -9.8316    9.2249 C   0  0  0  0  0  0  0  0  0  0  0  0
   -0.3334   -8.5168    8.3221 C   0  0  0  0  0  0  0  0  0  0  0  0
   -0.7865   -9.3232    9.2889 N   0  0  0  0  0  0  0  0  0  0  0  0
    0.0639   -9.5754   10.4379 C   0  0  0  0  0  0  0  0  0  0  0  0
    0.7959   -8.0123    8.3042 O   0  0  0  0  0  0  0  0  0  0  0  0
   -3.1085   -9.2781   10.2890 C   0  0  0  0  0  0  0  0  0  0  0  0
    1.2034  -10.5363   10.1607 C   0  0  0  0  0  0  0  0  0  0  0  0
    2.1852  -10.5203   11.0692 N   0  0  0  0  0  0  0  0  0  0  0  0
    1.1298  -11.2993    9.2207 O   0  0  0  0  0  0  0  0  0  0  0  0
    2.1591   -9.8487   11.7886 H   0  0  0  0  0  0  0  0  0  0  0  0
    3.2945  -11.4689   11.0260 C   0  0  0  0  0  0  0  0  0  0  0  0
    3.5608  -11.8265   12.5321 C   0  0  0  0  0  0  0  0  0  0  0  0
    4.5547  -11.0144   10.2957 C   0  0  0  0  0  0  0  0  0  0  0  0
    5.3202  -11.9321    9.5875 C   0  0  0  0  0  0  0  0  0  0  0  0
    6.4332  -11.5461    8.8940 C   0  0  0  0  0  0  0  0  0  0  0  0
    6.8162  -10.2067    8.8360 C   0  0  0  0  0  0  0  0  0  0  0  0
    6.0672   -9.2755    9.5535 C   0  0  0  0  0  0  0  0  0  0  0  0
    4.9097   -9.6637   10.2787 C   0  0  0  0  0  0  0  0  0  0  0  0
    4.9773  -13.2123    9.5684 F   0  0  0  0  0  0  0  0  0  0  0  0
    7.2934  -12.8204    8.0193 Cl  0  0  0  0  0  0  0  0  0  0  0  0
   -1.3156   -8.1954    7.2536 C   0  0  0  0  0  0  0  0  0  0  0  0
   -0.4251   -6.3523    5.8111 C   0  0  0  0  0  0  0  0  0  0  0  0
    0.3342   -6.1629    4.6637 C   0  0  0  0  0  0  0  0  0  0  0  0
    0.6080   -7.5761    4.2820 C   0  0  0  0  0  0  0  0  0  0  0  0
   -0.9664   -5.2361    6.5438 C   0  0  0  0  0  0  0  0  0  0  0  0
    0.0685   -3.7945    4.8932 C   0  0  0  0  0  0  0  0  0  0  0  0
    0.6316   -4.8709    4.1363 C   0  0  0  0  0  0  0  0  0  0  0  0
   -0.6127   -7.6834    6.0701 N   0  0  0  0  0  0  0  0  0  0  0  0
    0.1012   -8.3866    5.1692 N   0  0  0  0  0  0  0  0  0  0  0  0
   -0.6792   -3.9990    6.0410 N   0  0  0  0  0  0  0  0  0  0  0  0
    1.4190   -7.9655    3.1352 C   0  0  0  0  0  0  0  0  0  0  0  0
    0.8197   -8.5561    2.0330 N   0  0  0  0  0  0  0  0  0  0  0  0
    2.6139   -7.8015    3.2402 O   0  0  0  0  0  0  0  0  0  0  0  0
    1.3663   -8.8196    1.2577 H   0  0  0  0  0  0  0  0  0  0  0  0
   -0.1524   -8.7119    2.0258 H   0  0  0  0  0  0  0  0  0  0  0  0
 28 29  2  0  0  0
 28 32  1  0  0  0
 29 25  1  0  0  0
 32 27  2  0  0  0
 35 33  2  0  0  0
 25 24  2  0  0  0
 25 26  1  0  0  0
 27 24  1  0  0  0
 33 26  1  0  0  0
 33 34  1  0  0  0
 24 30  1  0  0  0
 26 31  2  0  0  0
 30 31  1  0  0  0
 30 23  1  0  0  0
 23  4  1  0  0  0
  7  4  2  0  0  0
  4  5  1  0  0  0
 19 18  2  0  0  0
 19 20  1  0  0  0
 11  9  2  0  0  0
 18 17  1  0  0  0
 20 15  2  0  0  0
  5  3  1  0  0  0
  5  6  1  0  0  0
  3  8  1  0  0  0
  3  1  1  0  0  0
  9  6  1  0  0  0
  9 10  1  0  0  0
 17 16  2  0  0  0
 17 22  1  0  0  0
 15 16  1  0  0  0
 15 13  1  0  0  0
  6  2  1  0  0  0
  8  1  1  0  0  0
  1  2  1  0  0  0
 16 21  1  0  0  0
 13 10  1  0  0  0
 13 14  1  0  0  0
 10 12  1  0  0  0
 34 36  1  0  0  0
 34 37  1  0  0  0
M  END
> <minimizedAffinity>
-9.51031

$$$$
5FCK_5WC_A_301


 37 41  0  0  0  0  0  0  0  0999 V2000
   -1.5784  -12.3170   10.0032 C   0  0  0  0  0  0  0  0  0  0  0  0
   -0.6323  -11.7846   11.1268 C   0  0  0  0  0  0  0  0  0  0  0  0
   -1.5526  -11.2869    8.8670 C   0  0  0  0  0  0  0  0  0  0  0  0
   -0.4134   -9.1537    8.7003 C   0  0  0  0  0  0  0  0  0  0  0  0
   -0.6065  -10.2916    9.3773 N   0  0  0  0  0  0  0  0  0  0  0  0
    0.0443  -10.4526   10.6647 C   0  0  0  0  0  0  0  0  0  0  0  0
    0.3379   -8.2414    9.0658 O   0  0  0  0  0  0  0  0  0  0  0  0
   -2.8227  -11.4653    9.7009 C   0  0  0  0  0  0  0  0  0  0  0  0
    1.5277  -10.7519   10.5709 C   0  0  0  0  0  0  0  0  0  0  0  0
    1.8996  -11.9210   11.1044 N   0  0  0  0  0  0  0  0  0  0  0  0
    2.2560   -9.9932    9.9668 O   0  0  0  0  0  0  0  0  0  0  0  0
    1.2322  -12.4582   11.5895 H   0  0  0  0  0  0  0  0  0  0  0  0
    3.2655  -12.4242   10.9890 C   0  0  0  0  0  0  0  0  0  0  0  0
    3.1854  -13.5148    9.8614 C   0  0  0  0  0  0  0  0  0  0  0  0
    3.9126  -12.9452   12.2688 C   0  0  0  0  0  0  0  0  0  0  0  0
    5.2948  -13.0497   12.3594 C   0  0  0  0  0  0  0  0  0  0  0  0
    5.9027  -13.4784   13.5063 C   0  0  0  0  0  0  0  0  0  0  0  0
    5.1576  -13.7846   14.6443 C   0  0  0  0  0  0  0  0  0  0  0  0
    3.7685  -13.6992   14.5652 C   0  0  0  0  0  0  0  0  0  0  0  0
    3.1248  -13.2564   13.3794 C   0  0  0  0  0  0  0  0  0  0  0  0
    6.0569  -12.7274   11.3239 F   0  0  0  0  0  0  0  0  0  0  0  0
    7.6704  -13.5369   13.4823 Cl  0  0  0  0  0  0  0  0  0  0  0  0
   -1.2250   -9.0070    7.4637 C   0  0  0  0  0  0  0  0  0  0  0  0
   -0.1212   -7.7922    5.5725 C   0  0  0  0  0  0  0  0  0  0  0  0
    0.0542   -6.5034    5.0856 C   0  0  0  0  0  0  0  0  0  0  0  0
   -0.6741   -5.7194    6.1213 C   0  0  0  0  0  0  0  0  0  0  0  0
    0.4523   -8.9310    4.9017 C   0  0  0  0  0  0  0  0  0  0  0  0
    1.3552   -7.3773    3.2755 C   0  0  0  0  0  0  0  0  0  0  0  0
    0.8003   -6.2170    3.9035 C   0  0  0  0  0  0  0  0  0  0  0  0
   -0.8239   -7.7893    6.7474 N   0  0  0  0  0  0  0  0  0  0  0  0
   -1.2117   -6.5231    6.9965 N   0  0  0  0  0  0  0  0  0  0  0  0
    1.1638   -8.6575    3.7683 N   0  0  0  0  0  0  0  0  0  0  0  0
   -0.8369   -4.2716    6.0792 C   0  0  0  0  0  0  0  0  0  0  0  0
   -0.0892   -3.4669    6.9255 N   0  0  0  0  0  0  0  0  0  0  0  0
   -1.6858   -3.8468    5.3279 O   0  0  0  0  0  0  0  0  0  0  0  0
   -0.1981   -2.4888    6.8982 H   0  0  0  0  0  0  0  0  0  0  0  0
    0.5505   -3.8736    7.5537 H   0  0  0  0  0  0  0  0  0  0  0  0
 28 29  2  0  0  0
 28 32  1  0  0  0
 29 25  1  0  0  0
 32 27  2  0  0  0
 35 33  2  0  0  0
 25 24  2  0  0  0
 25 26  1  0  0  0
 27 24  1  0  0  0
 33 26  1  0  0  0
 33 34  1  0  0  0
 24 30  1  0  0  0
 26 31  2  0  0  0
 30 31  1  0  0  0
 30 23  1  0  0  0
 23  4  1  0  0  0
  7  4  2  0  0  0
  4  5  1  0  0  0
 19 18  2  0  0  0
 19 20  1  0  0  0
 11  9  2  0  0  0
 18 17  1  0  0  0
 20 15  2  0  0  0
  5  3  1  0  0  0
  5  6  1  0  0  0
  3  8  1  0  0  0
  3  1  1  0  0  0
  9  6  1  0  0  0
  9 10  1  0  0  0
 17 16  2  0  0  0
 17 22  1  0  0  0
 15 16  1  0  0  0
 15 13  1  0  0  0
  6  2  1  0  0  0
  8  1  1  0  0  0
  1  2  1  0  0  0
 16 21  1  0  0  0
 13 10  1  0  0  0
 13 14  1  0  0  0
 10 12  1  0  0  0
 34 36  1  0  0  0
 34 37  1  0  0  0
M  END
> <minimizedAffinity>
-8.18797

$$$$
5FCK_5WC_A_301


 37 41  0  0  0  0  0  0  0  0999 V2000
   -0.0270   -5.8636    5.8396 C   0  0  0  0  0  0  0  0  0  0  0  0
    0.0368   -6.0544    4.2902 C   0  0  0  0  0  0  0  0  0  0  0  0
    0.0057   -7.2626    6.4675 C   0  0  0  0  0  0  0  0  0  0  0  0
    0.0481   -9.4537    5.4314 C   0  0  0  0  0  0  0  0  0  0  0  0
    0.1167   -8.1250    5.2886 N   0  0  0  0  0  0  0  0  0  0  0  0
    0.1819   -7.5734    3.9475 C   0  0  0  0  0  0  0  0  0  0  0  0
    0.0989  -10.2613    4.4957 O   0  0  0  0  0  0  0  0  0  0  0  0
   -1.2729   -6.4260    6.5440 C   0  0  0  0  0  0  0  0  0  0  0  0
    1.5384   -7.7216    3.2866 C   0  0  0  0  0  0  0  0  0  0  0  0
    1.5643   -8.5507    2.2372 N   0  0  0  0  0  0  0  0  0  0  0  0
    2.4694   -7.0450    3.6693 O   0  0  0  0  0  0  0  0  0  0  0  0
    0.7559   -9.0678    2.0173 H   0  0  0  0  0  0  0  0  0  0  0  0
    2.7554   -8.7120    1.4081 C   0  0  0  0  0  0  0  0  0  0  0  0
    2.1961   -8.8767   -0.0504 C   0  0  0  0  0  0  0  0  0  0  0  0
    3.7160   -9.8303    1.8014 C   0  0  0  0  0  0  0  0  0  0  0  0
    5.0866   -9.6556    1.6582 C   0  0  0  0  0  0  0  0  0  0  0  0
    5.9715  -10.6264    2.0368 C   0  0  0  0  0  0  0  0  0  0  0  0
    5.5310  -11.8123    2.6230 C   0  0  0  0  0  0  0  0  0  0  0  0
    4.1579  -12.0094    2.7600 C   0  0  0  0  0  0  0  0  0  0  0  0
    3.2284  -11.0093    2.3697 C   0  0  0  0  0  0  0  0  0  0  0  0
    5.5654   -8.5289    1.1500 F   0  0  0  0  0  0  0  0  0  0  0  0
    7.6865  -10.2529    1.8180 Cl  0  0  0  0  0  0  0  0  0  0  0  0
   -0.1602   -9.9310    6.8236 C   0  0  0  0  0  0  0  0  0  0  0  0
   -1.9243  -11.2326    8.0337 C   0  0  0  0  0  0  0  0  0  0  0  0
   -3.2687  -11.5655    7.9307 C   0  0  0  0  0  0  0  0  0  0  0  0
   -3.6201  -10.8865    6.6526 C   0  0  0  0  0  0  0  0  0  0  0  0
   -1.1174  -11.7051    9.1299 C   0  0  0  0  0  0  0  0  0  0  0  0
   -3.0975  -12.8336    9.9543 C   0  0  0  0  0  0  0  0  0  0  0  0
   -3.9396  -12.3836    8.8880 C   0  0  0  0  0  0  0  0  0  0  0  0
   -1.5116  -10.4892    6.9608 N   0  0  0  0  0  0  0  0  0  0  0  0
   -2.5896  -10.2314    6.1946 N   0  0  0  0  0  0  0  0  0  0  0  0
   -1.7602  -12.4856   10.0482 N   0  0  0  0  0  0  0  0  0  0  0  0
   -4.9586  -10.8833    6.0756 C   0  0  0  0  0  0  0  0  0  0  0  0
   -6.0490  -10.5392    6.8603 N   0  0  0  0  0  0  0  0  0  0  0  0
   -5.0503  -11.2517    4.9261 O   0  0  0  0  0  0  0  0  0  0  0  0
   -6.9536  -10.5366    6.4719 H   0  0  0  0  0  0  0  0  0  0  0  0
   -5.9184  -10.2976    7.8057 H   0  0  0  0  0  0  0  0  0  0  0  0
 28 29  2  0  0  0
 28 32  1  0  0  0
 29 25  1  0  0  0
 32 27  2  0  0  0
 35 33  2  0  0  0
 25 24  2  0  0  0
 25 26  1  0  0  0
 27 24  1  0  0  0
 33 26  1  0  0  0
 33 34  1  0  0  0
 24 30  1  0  0  0
 26 31  2  0  0  0
 30 31  1  0  0  0
 30 23  1  0  0  0
 23  4  1  0  0  0
  7  4  2  0  0  0
  4  5  1  0  0  0
 19 18  2  0  0  0
 19 20  1  0  0  0
 11  9  2  0  0  0
 18 17  1  0  0  0
 20 15  2  0  0  0
  5  3  1  0  0  0
  5  6  1  0  0  0
  3  8  1  0  0  0
  3  1  1  0  0  0
  9  6  1  0  0  0
  9 10  1  0  0  0
 17 16  2  0  0  0
 17 22  1  0  0  0
 15 16  1  0  0  0
 15 13  1  0  0  0
  6  2  1  0  0  0
  8  1  1  0  0  0
  1  2  1  0  0  0
 16 21  1  0  0  0
 13 10  1  0  0  0
 13 14  1  0  0  0
 10 12  1  0  0  0
 34 36  1  0  0  0
 34 37  1  0  0  0
M  END
> <minimizedAffinity>
-8.11055

$$$$
5FCK_5WC_A_301


 37 41  0  0  0  0  0  0  0  0999 V2000
   -1.2879  -12.3848   10.0166 C   0  0  0  0  0  0  0  0  0  0  0  0
   -0.0697  -12.0900   10.9493 C   0  0  0  0  0  0  0  0  0  0  0  0
   -1.3903  -11.2176    9.0267 C   0  0  0  0  0  0  0  0  0  0  0  0
   -0.0810   -9.1855    8.8466 C   0  0  0  0  0  0  0  0  0  0  0  0
   -0.2514  -10.3834    9.4178 N   0  0  0  0  0  0  0  0  0  0  0  0
    0.6376  -10.7701   10.4983 C   0  0  0  0  0  0  0  0  0  0  0  0
    0.8286   -8.3973    9.1324 O   0  0  0  0  0  0  0  0  0  0  0  0
   -2.4644  -11.3980   10.1010 C   0  0  0  0  0  0  0  0  0  0  0  0
    2.0233  -11.1787   10.0383 C   0  0  0  0  0  0  0  0  0  0  0  0
    3.0259  -10.7054   10.7869 N   0  0  0  0  0  0  0  0  0  0  0  0
    2.1444  -11.9504    9.1105 O   0  0  0  0  0  0  0  0  0  0  0  0
    2.8224  -10.0697   11.5106 H   0  0  0  0  0  0  0  0  0  0  0  0
    4.4129  -11.1031   10.5629 C   0  0  0  0  0  0  0  0  0  0  0  0
    4.5851  -12.4131   11.4124 C   0  0  0  0  0  0  0  0  0  0  0  0
    5.4817  -10.0576   10.8676 C   0  0  0  0  0  0  0  0  0  0  0  0
    6.2600  -10.1685   12.0129 C   0  0  0  0  0  0  0  0  0  0  0  0
    7.2489   -9.2668   12.2916 C   0  0  0  0  0  0  0  0  0  0  0  0
    7.5423   -8.2259   11.4116 C   0  0  0  0  0  0  0  0  0  0  0  0
    6.7607   -8.0920   10.2653 C   0  0  0  0  0  0  0  0  0  0  0  0
    5.7297   -9.0212    9.9648 C   0  0  0  0  0  0  0  0  0  0  0  0
    6.0571  -11.1653   12.8627 F   0  0  0  0  0  0  0  0  0  0  0  0
    8.1737   -9.5499   13.7726 Cl  0  0  0  0  0  0  0  0  0  0  0  0
   -1.1167   -8.8061    7.8501 C   0  0  0  0  0  0  0  0  0  0  0  0
   -0.2204   -7.5201    5.8973 C   0  0  0  0  0  0  0  0  0  0  0  0
    0.4134   -7.7276    4.6790 C   0  0  0  0  0  0  0  0  0  0  0  0
    0.4954   -9.2145    4.6645 C   0  0  0  0  0  0  0  0  0  0  0  0
   -0.5554   -6.1944    6.3512 C   0  0  0  0  0  0  0  0  0  0  0  0
    0.4183   -5.3646    4.2928 C   0  0  0  0  0  0  0  0  0  0  0  0
    0.7760   -6.6612    3.8031 C   0  0  0  0  0  0  0  0  0  0  0  0
   -0.5102   -8.7062    6.5163 N   0  0  0  0  0  0  0  0  0  0  0  0
    0.0173   -9.7010    5.7761 N   0  0  0  0  0  0  0  0  0  0  0  0
   -0.2055   -5.1731    5.5144 N   0  0  0  0  0  0  0  0  0  0  0  0
    1.1217   -9.9833    3.5962 C   0  0  0  0  0  0  0  0  0  0  0  0
    2.3713   -9.6155    3.1208 N   0  0  0  0  0  0  0  0  0  0  0  0
    0.4677  -10.8890    3.1299 O   0  0  0  0  0  0  0  0  0  0  0  0
    2.7956  -10.1338    2.3993 H   0  0  0  0  0  0  0  0  0  0  0  0
    2.8343   -8.8361    3.5047 H   0  0  0  0  0  0  0  0  0  0  0  0
 28 29  2  0  0  0
 28 32  1  0  0  0
 29 25  1  0  0  0
 32 27  2  0  0  0
 35 33  2  0  0  0
 25 24  2  0  0  0
 25 26  1  0  0  0
 27 24  1  0  0  0
 33 26  1  0  0  0
 33 34  1  0  0  0
 24 30  1  0  0  0
 26 31  2  0  0  0
 30 31  1  0  0  0
 30 23  1  0  0  0
 23  4  1  0  0  0
  7  4  2  0  0  0
  4  5  1  0  0  0
 19 18  2  0  0  0
 19 20  1  0  0  0
 11  9  2  0  0  0
 18 17  1  0  0  0
 20 15  2  0  0  0
  5  3  1  0  0  0
  5  6  1  0  0  0
  3  8  1  0  0  0
  3  1  1  0  0  0
  9  6  1  0  0  0
  9 10  1  0  0  0
 17 16  2  0  0  0
 17 22  1  0  0  0
 15 16  1  0  0  0
 15 13  1  0  0  0
  6  2  1  0  0  0
  8  1  1  0  0  0
  1  2  1  0  0  0
 16 21  1  0  0  0
 13 10  1  0  0  0
 13 14  1  0  0  0
 10 12  1  0  0  0
 34 36  1  0  0  0
 34 37  1  0  0  0
M  END
> <minimizedAffinity>
-8.09894

$$$$
5FCK_5WC_A_301


 37 41  0  0  0  0  0  0  0  0999 V2000
   -1.1397  -12.3726   10.1425 C   0  0  0  0  0  0  0  0  0  0  0  0
   -0.0147  -11.9241   11.1295 C   0  0  0  0  0  0  0  0  0  0  0  0
   -1.3209  -11.2420    9.1219 C   0  0  0  0  0  0  0  0  0  0  0  0
   -0.2432   -9.0766    8.9622 C   0  0  0  0  0  0  0  0  0  0  0  0
   -0.3067  -10.2762    9.5516 N   0  0  0  0  0  0  0  0  0  0  0  0
    0.5612  -10.5397   10.6849 C   0  0  0  0  0  0  0  0  0  0  0  0
    0.5543   -8.1845    9.2760 O   0  0  0  0  0  0  0  0  0  0  0  0
   -2.4236  -11.5260   10.1436 C   0  0  0  0  0  0  0  0  0  0  0  0
    2.0070  -10.7945   10.3062 C   0  0  0  0  0  0  0  0  0  0  0  0
    2.9049  -10.3800   11.2070 N   0  0  0  0  0  0  0  0  0  0  0  0
    2.2624  -11.4118    9.2939 O   0  0  0  0  0  0  0  0  0  0  0  0
    2.5950   -9.8715   11.9910 H   0  0  0  0  0  0  0  0  0  0  0  0
    4.3310  -10.6589   11.0625 C   0  0  0  0  0  0  0  0  0  0  0  0
    4.7701   -9.8106    9.8156 C   0  0  0  0  0  0  0  0  0  0  0  0
    4.7325  -12.1266   10.9487 C   0  0  0  0  0  0  0  0  0  0  0  0
    4.4139  -13.0181   11.9653 C   0  0  0  0  0  0  0  0  0  0  0  0
    4.7289  -14.3452   11.8730 C   0  0  0  0  0  0  0  0  0  0  0  0
    5.3432  -14.8611   10.7326 C   0  0  0  0  0  0  0  0  0  0  0  0
    5.6829  -13.9771    9.7098 C   0  0  0  0  0  0  0  0  0  0  0  0
    5.3623  -12.5962    9.7940 C   0  0  0  0  0  0  0  0  0  0  0  0
    3.7877  -12.5924   13.0531 F   0  0  0  0  0  0  0  0  0  0  0  0
    4.2386  -15.3640   13.2333 Cl  0  0  0  0  0  0  0  0  0  0  0  0
   -1.2603   -8.8356    7.9054 C   0  0  0  0  0  0  0  0  0  0  0  0
   -0.2876   -7.6157    5.9468 C   0  0  0  0  0  0  0  0  0  0  0  0
    0.3858   -7.8644    4.7578 C   0  0  0  0  0  0  0  0  0  0  0  0
    0.4564   -9.3516    4.7908 C   0  0  0  0  0  0  0  0  0  0  0  0
   -0.6273   -6.2745    6.3489 C   0  0  0  0  0  0  0  0  0  0  0  0
    0.4228   -5.5143    4.3011 C   0  0  0  0  0  0  0  0  0  0  0  0
    0.7866   -6.8275    3.8632 C   0  0  0  0  0  0  0  0  0  0  0  0
   -0.6078   -8.7804    6.5909 N   0  0  0  0  0  0  0  0  0  0  0  0
   -0.0633   -9.8008    5.8994 N   0  0  0  0  0  0  0  0  0  0  0  0
   -0.2409   -5.2815    5.4943 N   0  0  0  0  0  0  0  0  0  0  0  0
    1.1127  -10.1567    3.7683 C   0  0  0  0  0  0  0  0  0  0  0  0
    2.2539   -9.6810    3.1406 N   0  0  0  0  0  0  0  0  0  0  0  0
    0.5716  -11.1990    3.4742 O   0  0  0  0  0  0  0  0  0  0  0  0
    2.6983  -10.2237    2.4497 H   0  0  0  0  0  0  0  0  0  0  0  0
    2.6198   -8.8005    3.3857 H   0  0  0  0  0  0  0  0  0  0  0  0
 28 29  2  0  0  0
 28 32  1  0  0  0
 29 25  1  0  0  0
 32 27  2  0  0  0
 35 33  2  0  0  0
 25 24  2  0  0  0
 25 26  1  0  0  0
 27 24  1  0  0  0
 33 26  1  0  0  0
 33 34  1  0  0  0
 24 30  1  0  0  0
 26 31  2  0  0  0
 30 31  1  0  0  0
 30 23  1  0  0  0
 23  4  1  0  0  0
  7  4  2  0  0  0
  4  5  1  0  0  0
 19 18  2  0  0  0
 19 20  1  0  0  0
 11  9  2  0  0  0
 18 17  1  0  0  0
 20 15  2  0  0  0
  5  3  1  0  0  0
  5  6  1  0  0  0
  3  8  1  0  0  0
  3  1  1  0  0  0
  9  6  1  0  0  0
  9 10  1  0  0  0
 17 16  2  0  0  0
 17 22  1  0  0  0
 15 16  1  0  0  0
 15 13  1  0  0  0
  6  2  1  0  0  0
  8  1  1  0  0  0
  1  2  1  0  0  0
 16 21  1  0  0  0
 13 10  1  0  0  0
 13 14  1  0  0  0
 10 12  1  0  0  0
 34 36  1  0  0  0
 34 37  1  0  0  0
M  END
> <minimizedAffinity>
-8.09147

$$$$
5FCK_5WC_A_301


 37 41  0  0  0  0  0  0  0  0999 V2000
   -0.8162  -14.6824    9.1997 C   0  0  0  0  0  0  0  0  0  0  0  0
    0.0656  -14.3207   10.4377 C   0  0  0  0  0  0  0  0  0  0  0  0
   -1.0176  -13.3909    8.3972 C   0  0  0  0  0  0  0  0  0  0  0  0
   -0.2795  -11.1261    8.8463 C   0  0  0  0  0  0  0  0  0  0  0  0
   -0.2420  -12.4223    9.1759 N   0  0  0  0  0  0  0  0  0  0  0  0
    0.4781  -12.8135   10.3740 C   0  0  0  0  0  0  0  0  0  0  0  0
    0.3134  -10.2308    9.4605 O   0  0  0  0  0  0  0  0  0  0  0  0
   -2.2021  -14.0192    9.1340 C   0  0  0  0  0  0  0  0  0  0  0  0
    1.9860  -12.8027   10.2165 C   0  0  0  0  0  0  0  0  0  0  0  0
    2.6679  -12.6127   11.3517 N   0  0  0  0  0  0  0  0  0  0  0  0
    2.4781  -13.0438    9.1345 O   0  0  0  0  0  0  0  0  0  0  0  0
    2.1726  -12.4076   12.1774 H   0  0  0  0  0  0  0  0  0  0  0  0
    4.1246  -12.7003   11.4028 C   0  0  0  0  0  0  0  0  0  0  0  0
    4.4554  -12.8074   12.9345 C   0  0  0  0  0  0  0  0  0  0  0  0
    4.9014  -11.5860   10.7079 C   0  0  0  0  0  0  0  0  0  0  0  0
    5.7158  -11.8762    9.6206 C   0  0  0  0  0  0  0  0  0  0  0  0
    6.3941  -10.8924    8.9566 C   0  0  0  0  0  0  0  0  0  0  0  0
    6.2577   -9.5533    9.3200 C   0  0  0  0  0  0  0  0  0  0  0  0
    5.4559   -9.2469   10.4183 C   0  0  0  0  0  0  0  0  0  0  0  0
    4.7470  -10.2596   11.1173 C   0  0  0  0  0  0  0  0  0  0  0  0
    5.8469  -13.1266    9.2010 F   0  0  0  0  0  0  0  0  0  0  0  0
    7.3724  -11.4088    7.5763 Cl  0  0  0  0  0  0  0  0  0  0  0  0
   -1.1531  -10.7914    7.6911 C   0  0  0  0  0  0  0  0  0  0  0  0
   -0.1911   -9.3789    5.8608 C   0  0  0  0  0  0  0  0  0  0  0  0
    0.0364   -8.0458    5.5447 C   0  0  0  0  0  0  0  0  0  0  0  0
   -0.4835   -7.3823    6.7726 C   0  0  0  0  0  0  0  0  0  0  0  0
    0.1898  -10.4376    4.9609 C   0  0  0  0  0  0  0  0  0  0  0  0
    1.0169   -8.7181    3.4665 C   0  0  0  0  0  0  0  0  0  0  0  0
    0.6509   -7.6329    4.3250 C   0  0  0  0  0  0  0  0  0  0  0  0
   -0.7378   -9.5086    7.1092 N   0  0  0  0  0  0  0  0  0  0  0  0
   -0.9767   -8.2721    7.5886 N   0  0  0  0  0  0  0  0  0  0  0  0
    0.7752  -10.0426    3.7917 N   0  0  0  0  0  0  0  0  0  0  0  0
   -0.5203   -5.9376    6.9618 C   0  0  0  0  0  0  0  0  0  0  0  0
   -1.4849   -5.1799    6.3150 N   0  0  0  0  0  0  0  0  0  0  0  0
    0.3583   -5.4615    7.6452 O   0  0  0  0  0  0  0  0  0  0  0  0
   -1.5110   -4.2039    6.4419 H   0  0  0  0  0  0  0  0  0  0  0  0
   -2.1436   -5.6179    5.7289 H   0  0  0  0  0  0  0  0  0  0  0  0
 28 29  2  0  0  0
 28 32  1  0  0  0
 29 25  1  0  0  0
 32 27  2  0  0  0
 35 33  2  0  0  0
 25 24  2  0  0  0
 25 26  1  0  0  0
 27 24  1  0  0  0
 33 26  1  0  0  0
 33 34  1  0  0  0
 24 30  1  0  0  0
 26 31  2  0  0  0
 30 31  1  0  0  0
 30 23  1  0  0  0
 23  4  1  0  0  0
  7  4  2  0  0  0
  4  5  1  0  0  0
 19 18  2  0  0  0
 19 20  1  0  0  0
 11  9  2  0  0  0
 18 17  1  0  0  0
 20 15  2  0  0  0
  5  3  1  0  0  0
  5  6  1  0  0  0
  3  8  1  0  0  0
  3  1  1  0  0  0
  9  6  1  0  0  0
  9 10  1  0  0  0
 17 16  2  0  0  0
 17 22  1  0  0  0
 15 16  1  0  0  0
 15 13  1  0  0  0
  6  2  1  0  0  0
  8  1  1  0  0  0
  1  2  1  0  0  0
 16 21  1  0  0  0
 13 10  1  0  0  0
 13 14  1  0  0  0
 10 12  1  0  0  0
 34 36  1  0  0  0
 34 37  1  0  0  0
M  END
> <minimizedAffinity>
-7.57560

$$$$
5FCK_5WC_A_301


 37 41  0  0  0  0  0  0  0  0999 V2000
   -2.1258  -10.9631   10.4356 C   0  0  0  0  0  0  0  0  0  0  0  0
   -0.8327  -10.6399   11.2508 C   0  0  0  0  0  0  0  0  0  0  0  0
   -1.9518  -10.3348    9.0472 C   0  0  0  0  0  0  0  0  0  0  0  0
   -0.1496   -8.9904    8.1411 C   0  0  0  0  0  0  0  0  0  0  0  0
   -0.6129   -9.7480    9.1420 N   0  0  0  0  0  0  0  0  0  0  0  0
    0.1853   -9.8684   10.3485 C   0  0  0  0  0  0  0  0  0  0  0  0
    0.9516   -8.4269    8.1423 O   0  0  0  0  0  0  0  0  0  0  0  0
   -2.9853   -9.7585   10.0169 C   0  0  0  0  0  0  0  0  0  0  0  0
    1.3860  -10.7825   10.2029 C   0  0  0  0  0  0  0  0  0  0  0  0
    2.1331  -10.9083   11.3055 N   0  0  0  0  0  0  0  0  0  0  0  0
    1.5522  -11.3950    9.1693 O   0  0  0  0  0  0  0  0  0  0  0  0
    1.9231  -10.3524   12.0904 H   0  0  0  0  0  0  0  0  0  0  0  0
    3.2506  -11.8453   11.3799 C   0  0  0  0  0  0  0  0  0  0  0  0
    3.5770  -11.9421   12.9133 C   0  0  0  0  0  0  0  0  0  0  0  0
    4.4775  -11.5146   10.5351 C   0  0  0  0  0  0  0  0  0  0  0  0
    5.0486  -10.2500   10.5992 C   0  0  0  0  0  0  0  0  0  0  0  0
    6.1694   -9.9379    9.8814 C   0  0  0  0  0  0  0  0  0  0  0  0
    6.8070  -10.8935    9.0913 C   0  0  0  0  0  0  0  0  0  0  0  0
    6.2380  -12.1630    9.0046 C   0  0  0  0  0  0  0  0  0  0  0  0
    5.0734  -12.4995    9.7442 C   0  0  0  0  0  0  0  0  0  0  0  0
    4.5124   -9.3147   11.3703 F   0  0  0  0  0  0  0  0  0  0  0  0
    6.7976   -8.2966   10.0824 Cl  0  0  0  0  0  0  0  0  0  0  0  0
   -1.0871   -8.8025    7.0029 C   0  0  0  0  0  0  0  0  0  0  0  0
    0.2591   -8.7004    4.8939 C   0  0  0  0  0  0  0  0  0  0  0  0
    0.7213   -9.5269    3.8781 C   0  0  0  0  0  0  0  0  0  0  0  0
    0.1400  -10.8308    4.3022 C   0  0  0  0  0  0  0  0  0  0  0  0
    0.5479   -7.2888    4.9010 C   0  0  0  0  0  0  0  0  0  0  0  0
    1.7614   -7.6406    2.8327 C   0  0  0  0  0  0  0  0  0  0  0  0
    1.5054   -9.0481    2.7863 C   0  0  0  0  0  0  0  0  0  0  0  0
   -0.5155   -9.3925    5.7856 N   0  0  0  0  0  0  0  0  0  0  0  0
   -0.4894  -10.6936    5.4362 N   0  0  0  0  0  0  0  0  0  0  0  0
    1.3011   -6.8307    3.8577 N   0  0  0  0  0  0  0  0  0  0  0  0
    0.3502  -12.0845    3.5892 C   0  0  0  0  0  0  0  0  0  0  0  0
    0.2273  -12.1237    2.2085 N   0  0  0  0  0  0  0  0  0  0  0  0
    0.5662  -13.0617    4.2703 O   0  0  0  0  0  0  0  0  0  0  0  0
    0.3690  -12.9698    1.7255 H   0  0  0  0  0  0  0  0  0  0  0  0
   -0.0017  -11.3054    1.7112 H   0  0  0  0  0  0  0  0  0  0  0  0
 28 29  2  0  0  0
 28 32  1  0  0  0
 29 25  1  0  0  0
 32 27  2  0  0  0
 35 33  2  0  0  0
 25 24  2  0  0  0
 25 26  1  0  0  0
 27 24  1  0  0  0
 33 26  1  0  0  0
 33 34  1  0  0  0
 24 30  1  0  0  0
 26 31  2  0  0  0
 30 31  1  0  0  0
 30 23  1  0  0  0
 23  4  1  0  0  0
  7  4  2  0  0  0
  4  5  1  0  0  0
 19 18  2  0  0  0
 19 20  1  0  0  0
 11  9  2  0  0  0
 18 17  1  0  0  0
 20 15  2  0  0  0
  5  3  1  0  0  0
  5  6  1  0  0  0
  3  8  1  0  0  0
  3  1  1  0  0  0
  9  6  1  0  0  0
  9 10  1  0  0  0
 17 16  2  0  0  0
 17 22  1  0  0  0
 15 16  1  0  0  0
 15 13  1  0  0  0
  6  2  1  0  0  0
  8  1  1  0  0  0
  1  2  1  0  0  0
 16 21  1  0  0  0
 13 10  1  0  0  0
 13 14  1  0  0  0
 10 12  1  0  0  0
 34 36  1  0  0  0
 34 37  1  0  0  0
M  END
> <minimizedAffinity>
-7.46310

$$$$
5FCK_5WC_A_301


 37 41  0  0  0  0  0  0  0  0999 V2000
   -2.7928  -11.8257   10.4266 C   0  0  0  0  0  0  0  0  0  0  0  0
   -1.4881  -11.6285   11.2632 C   0  0  0  0  0  0  0  0  0  0  0  0
   -2.4174  -11.6263    8.9529 C   0  0  0  0  0  0  0  0  0  0  0  0
   -0.3017  -11.0253    7.9337 C   0  0  0  0  0  0  0  0  0  0  0  0
   -0.9768  -11.3736    9.0352 N   0  0  0  0  0  0  0  0  0  0  0  0
   -0.2769  -11.3755   10.3069 C   0  0  0  0  0  0  0  0  0  0  0  0
    0.9064  -10.7607    7.9081 O   0  0  0  0  0  0  0  0  0  0  0  0
   -3.3006  -10.5948    9.6573 C   0  0  0  0  0  0  0  0  0  0  0  0
    0.6538  -12.5575   10.4950 C   0  0  0  0  0  0  0  0  0  0  0  0
    1.9551  -12.2729   10.3713 N   0  0  0  0  0  0  0  0  0  0  0  0
    0.1989  -13.6337   10.8204 O   0  0  0  0  0  0  0  0  0  0  0  0
    2.2211  -11.3688   10.0864 H   0  0  0  0  0  0  0  0  0  0  0  0
    2.9928  -13.2629   10.6460 C   0  0  0  0  0  0  0  0  0  0  0  0
    2.9761  -14.2046    9.3890 C   0  0  0  0  0  0  0  0  0  0  0  0
    2.8753  -14.0301   11.9596 C   0  0  0  0  0  0  0  0  0  0  0  0
    3.1331  -13.3916   13.1661 C   0  0  0  0  0  0  0  0  0  0  0  0
    2.9999  -14.0445   14.3598 C   0  0  0  0  0  0  0  0  0  0  0  0
    2.5565  -15.3654   14.4117 C   0  0  0  0  0  0  0  0  0  0  0  0
    2.3079  -16.0249   13.2091 C   0  0  0  0  0  0  0  0  0  0  0  0
    2.4436  -15.3583   11.9626 C   0  0  0  0  0  0  0  0  0  0  0  0
    3.5128  -12.1218   13.1804 F   0  0  0  0  0  0  0  0  0  0  0  0
    3.3380  -13.0964   15.8142 Cl  0  0  0  0  0  0  0  0  0  0  0  0
   -1.1212  -10.9095    6.6989 C   0  0  0  0  0  0  0  0  0  0  0  0
   -0.5892   -8.5358    6.1043 C   0  0  0  0  0  0  0  0  0  0  0  0
    0.0831   -7.7995    5.1375 C   0  0  0  0  0  0  0  0  0  0  0  0
    0.5576   -8.8924    4.2440 C   0  0  0  0  0  0  0  0  0  0  0  0
   -1.2670   -7.8912    7.2001 C   0  0  0  0  0  0  0  0  0  0  0  0
   -0.5385   -5.7788    6.2613 C   0  0  0  0  0  0  0  0  0  0  0  0
    0.1535   -6.3745    5.1591 C   0  0  0  0  0  0  0  0  0  0  0  0
   -0.5563   -9.8751    5.8226 N   0  0  0  0  0  0  0  0  0  0  0  0
    0.2205  -10.0522    4.7359 N   0  0  0  0  0  0  0  0  0  0  0  0
   -1.1970   -6.5272    7.2229 N   0  0  0  0  0  0  0  0  0  0  0  0
    1.3712   -8.6738    3.0545 C   0  0  0  0  0  0  0  0  0  0  0  0
    2.6129   -8.0669    3.1680 N   0  0  0  0  0  0  0  0  0  0  0  0
    0.8740   -8.9890    1.9967 O   0  0  0  0  0  0  0  0  0  0  0  0
    3.1635   -7.9186    2.3655 H   0  0  0  0  0  0  0  0  0  0  0  0
    2.9437   -7.7843    4.0512 H   0  0  0  0  0  0  0  0  0  0  0  0
 28 29  2  0  0  0
 28 32  1  0  0  0
 29 25  1  0  0  0
 32 27  2  0  0  0
 35 33  2  0  0  0
 25 24  2  0  0  0
 25 26  1  0  0  0
 27 24  1  0  0  0
 33 26  1  0  0  0
 33 34  1  0  0  0
 24 30  1  0  0  0
 26 31  2  0  0  0
 30 31  1  0  0  0
 30 23  1  0  0  0
 23  4  1  0  0  0
  7  4  2  0  0  0
  4  5  1  0  0  0
 19 18  2  0  0  0
 19 20  1  0  0  0
 11  9  2  0  0  0
 18 17  1  0  0  0
 20 15  2  0  0  0
  5  3  1  0  0  0
  5  6  1  0  0  0
  3  8  1  0  0  0
  3  1  1  0  0  0
  9  6  1  0  0  0
  9 10  1  0  0  0
 17 16  2  0  0  0
 17 22  1  0  0  0
 15 16  1  0  0  0
 15 13  1  0  0  0
  6  2  1  0  0  0
  8  1  1  0  0  0
  1  2  1  0  0  0
 16 21  1  0  0  0
 13 10  1  0  0  0
 13 14  1  0  0  0
 10 12  1  0  0  0
 34 36  1  0  0  0
 34 37  1  0  0  0
M  END
> <minimizedAffinity>
-6.96811

$$$$
5FCK_5WC_A_301


 37 41  0  0  0  0  0  0  0  0999 V2000
   -2.2582  -12.2395    9.7189 C   0  0  0  0  0  0  0  0  0  0  0  0
   -1.1720  -11.8963   10.7881 C   0  0  0  0  0  0  0  0  0  0  0  0
   -2.0532  -11.2763    8.5430 C   0  0  0  0  0  0  0  0  0  0  0  0
   -0.4793   -9.4553    8.2545 C   0  0  0  0  0  0  0  0  0  0  0  0
   -0.8904  -10.5006    8.9816 N   0  0  0  0  0  0  0  0  0  0  0  0
   -0.2379  -10.7625   10.2516 C   0  0  0  0  0  0  0  0  0  0  0  0
    0.4693   -8.7217    8.5582 O   0  0  0  0  0  0  0  0  0  0  0  0
   -3.2954  -11.1426    9.4258 C   0  0  0  0  0  0  0  0  0  0  0  0
    1.1376  -11.3864   10.1193 C   0  0  0  0  0  0  0  0  0  0  0  0
    1.9856  -11.0917   11.1110 N   0  0  0  0  0  0  0  0  0  0  0  0
    1.3622  -12.1568    9.2099 O   0  0  0  0  0  0  0  0  0  0  0  0
    1.7114  -10.4397   11.7958 H   0  0  0  0  0  0  0  0  0  0  0  0
    3.3059  -11.7078   11.2084 C   0  0  0  0  0  0  0  0  0  0  0  0
    3.4537  -12.0755   12.7283 C   0  0  0  0  0  0  0  0  0  0  0  0
    4.4822  -10.8909   10.6819 C   0  0  0  0  0  0  0  0  0  0  0  0
    5.2892  -11.4002    9.6724 C   0  0  0  0  0  0  0  0  0  0  0  0
    6.3270  -10.6750    9.1567 C   0  0  0  0  0  0  0  0  0  0  0  0
    6.5860   -9.3773    9.5956 C   0  0  0  0  0  0  0  0  0  0  0  0
    5.7946   -8.8573   10.6185 C   0  0  0  0  0  0  0  0  0  0  0  0
    4.7144   -9.6006   11.1635 C   0  0  0  0  0  0  0  0  0  0  0  0
    5.0609  -12.6108    9.1834 F   0  0  0  0  0  0  0  0  0  0  0  0
    7.2516  -11.4429    7.8588 Cl  0  0  0  0  0  0  0  0  0  0  0  0
   -1.2894   -9.1701    7.0412 C   0  0  0  0  0  0  0  0  0  0  0  0
   -0.2286  -10.3950    5.1320 C   0  0  0  0  0  0  0  0  0  0  0  0
    0.5577  -10.1568    4.0122 C   0  0  0  0  0  0  0  0  0  0  0  0
    0.7669   -8.6873    4.1339 C   0  0  0  0  0  0  0  0  0  0  0  0
   -0.6724  -11.7242    5.4668 C   0  0  0  0  0  0  0  0  0  0  0  0
    0.5154  -12.4953    3.4999 C   0  0  0  0  0  0  0  0  0  0  0  0
    0.9747  -11.1928    3.1241 C   0  0  0  0  0  0  0  0  0  0  0  0
   -0.4389   -9.2463    5.8464 N   0  0  0  0  0  0  0  0  0  0  0  0
    0.1089   -8.2241    5.1602 N   0  0  0  0  0  0  0  0  0  0  0  0
   -0.2761  -12.7157    4.6150 N   0  0  0  0  0  0  0  0  0  0  0  0
    1.5158   -7.8907    3.1701 C   0  0  0  0  0  0  0  0  0  0  0  0
    1.4251   -8.1779    1.8166 N   0  0  0  0  0  0  0  0  0  0  0  0
    2.2435   -7.0376    3.6264 O   0  0  0  0  0  0  0  0  0  0  0  0
    1.9304   -7.6407    1.1644 H   0  0  0  0  0  0  0  0  0  0  0  0
    0.8554   -8.9191    1.5077 H   0  0  0  0  0  0  0  0  0  0  0  0
 28 29  2  0  0  0
 28 32  1  0  0  0
 29 25  1  0  0  0
 32 27  2  0  0  0
 35 33  2  0  0  0
 25 24  2  0  0  0
 25 26  1  0  0  0
 27 24  1  0  0  0
 33 26  1  0  0  0
 33 34  1  0  0  0
 24 30  1  0  0  0
 26 31  2  0  0  0
 30 31  1  0  0  0
 30 23  1  0  0  0
 23  4  1  0  0  0
  7  4  2  0  0  0
  4  5  1  0  0  0
 19 18  2  0  0  0
 19 20  1  0  0  0
 11  9  2  0  0  0
 18 17  1  0  0  0
 20 15  2  0  0  0
  5  3  1  0  0  0
  5  6  1  0  0  0
  3  8  1  0  0  0
  3  1  1  0  0  0
  9  6  1  0  0  0
  9 10  1  0  0  0
 17 16  2  0  0  0
 17 22  1  0  0  0
 15 16  1  0  0  0
 15 13  1  0  0  0
  6  2  1  0  0  0
  8  1  1  0  0  0
  1  2  1  0  0  0
 16 21  1  0  0  0
 13 10  1  0  0  0
 13 14  1  0  0  0
 10 12  1  0  0  0
 34 36  1  0  0  0
 34 37  1  0  0  0
M  END
> <minimizedAffinity>
-6.88434

$$$$
