5NKC_90T_A_1001


 36 39  0  0  0  0  0  0  0  0999 V2000
  -86.4854  -12.5230    5.4073 N   0  0  0  0  0  0  0  0  0  0  0  0
  -86.6507  -11.9271    4.6413 H   0  0  0  0  0  0  0  0  0  0  0  0
  -82.9399  -13.0185    4.8464 C   0  0  0  0  0  0  0  0  0  0  0  0
  -84.3117  -12.8162    4.6672 C   0  0  0  0  0  0  0  0  0  0  0  0
  -82.4654  -13.1583    6.1510 C   0  0  0  0  0  0  0  0  0  0  0  0
  -83.3353  -13.1060    7.2322 C   0  0  0  0  0  0  0  0  0  0  0  0
  -84.6979  -12.8917    7.0330 C   0  0  0  0  0  0  0  0  0  0  0  0
  -85.1960  -12.7617    5.7426 C   0  0  0  0  0  0  0  0  0  0  0  0
  -80.4914   -9.8062    2.9642 C   0  0  0  0  0  0  0  0  0  0  0  0
  -81.6175  -10.4942    3.7082 C   0  0  0  0  0  0  0  0  0  0  0  0
  -80.5575  -10.5138    1.6373 C   0  0  0  0  0  0  0  0  0  0  0  0
  -80.5765  -11.9599    2.0929 C   0  0  0  0  0  0  0  0  0  0  0  0
  -81.4916  -11.9041    3.2754 N   0  0  0  0  0  0  0  0  0  0  0  0
  -82.0687  -13.0206    3.7334 C   0  0  0  0  0  0  0  0  0  0  0  0
  -81.8279  -14.0902    3.1634 O   0  0  0  0  0  0  0  0  0  0  0  0
  -79.2917  -10.3523    4.9027 O   0  0  0  0  0  0  0  0  0  0  0  0
  -79.1896  -10.1228    3.6787 C   0  0  0  0  0  0  0  0  0  0  0  0
  -78.1309  -10.1214    3.0034 O   0  0  0  0  0  0  0  0  0  0  0  0
  -80.1327  -10.3289    5.3151 H   0  0  0  0  0  0  0  0  0  0  0  0
  -87.5575  -13.0332    6.0347 C   0  0  0  0  0  0  0  0  0  0  0  0
  -87.6947  -13.7767    7.5706 S   0  0  0  0  0  0  0  0  0  0  0  0
  -88.7755  -13.0169    5.4536 N   0  0  0  0  0  0  0  0  0  0  0  0
  -89.7714  -13.5849    6.1984 C   0  0  0  0  0  0  0  0  0  0  0  0
  -89.3803  -14.0596    7.4000 C   0  0  0  0  0  0  0  0  0  0  0  0
  -90.1014  -14.6850    8.3850 C   0  0  0  0  0  0  0  0  0  0  0  0
  -89.5537  -14.8665    9.4702 O   0  0  0  0  0  0  0  0  0  0  0  0
  -91.3606  -15.1244    8.1329 N   0  0  0  0  0  0  0  0  0  0  0  0
  -91.7520  -14.9893    7.2397 H   0  0  0  0  0  0  0  0  0  0  0  0
  -92.1031  -15.7608    9.1153 C   0  0  0  0  0  0  0  0  0  0  0  0
  -92.8470  -15.0150   10.0303 C   0  0  0  0  0  0  0  0  0  0  0  0
  -92.8229  -13.2816    9.9953 Cl  0  0  0  0  0  0  0  0  0  0  0  0
  -93.6180  -15.6717   10.9950 C   0  0  0  0  0  0  0  0  0  0  0  0
  -93.6588  -17.0696   11.0362 C   0  0  0  0  0  0  0  0  0  0  0  0
  -92.9283  -17.8236   10.1148 C   0  0  0  0  0  0  0  0  0  0  0  0
  -92.1566  -17.1551    9.1563 C   0  0  0  0  0  0  0  0  0  0  0  0
  -91.4312  -17.9047    8.2247 C   0  0  0  0  0  0  0  0  0  0  0  0
 18 17  2  0  0  0
 17 16  1  0  0  0
 17  9  1  0  0  0
 12 11  1  0  0  0
 12 13  1  0  0  0
 11  9  1  0  0  0
  9 10  1  0  0  0
 13 10  1  0  0  0
 13 14  1  0  0  0
 15 14  2  0  0  0
 14  3  1  0  0  0
  4  3  2  0  0  0
  4  8  1  0  0  0
  3  5  1  0  0  0
  1  8  1  0  0  0
  1 20  1  0  0  0
 22 20  2  0  0  0
 22 23  1  0  0  0
  8  7  2  0  0  0
 20 21  1  0  0  0
 23 24  2  0  0  0
  5  6  2  0  0  0
  7  6  1  0  0  0
 24 21  1  0  0  0
 24 25  1  0  0  0
 36 35  1  0  0  0
 27 25  1  0  0  0
 27 29  1  0  0  0
 25 26  2  0  0  0
 35 29  2  0  0  0
 35 34  1  0  0  0
 29 30  1  0  0  0
 34 33  2  0  0  0
 30 31  1  0  0  0
 30 32  2  0  0  0
 33 32  1  0  0  0
 16 19  1  0  0  0
  1  2  1  0  0  0
 27 28  1  0  0  0
M  END
> <minimizedAffinity>
-10.63248

$$$$
5NKC_90T_A_1001


 36 39  0  0  0  0  0  0  0  0999 V2000
  -86.8191  -12.6539    5.2765 N   0  0  0  0  0  0  0  0  0  0  0  0
  -87.0119  -12.2200    4.4140 H   0  0  0  0  0  0  0  0  0  0  0  0
  -84.0054  -12.2261    7.5195 C   0  0  0  0  0  0  0  0  0  0  0  0
  -85.2821  -12.2104    6.9498 C   0  0  0  0  0  0  0  0  0  0  0  0
  -82.9619  -12.7679    6.7685 C   0  0  0  0  0  0  0  0  0  0  0  0
  -83.1897  -13.2661    5.4924 C   0  0  0  0  0  0  0  0  0  0  0  0
  -84.4722  -13.2519    4.9471 C   0  0  0  0  0  0  0  0  0  0  0  0
  -85.5252  -12.7065    5.6707 C   0  0  0  0  0  0  0  0  0  0  0  0
  -85.9158  -13.3152   11.3952 C   0  0  0  0  0  0  0  0  0  0  0  0
  -85.7307  -13.0751    9.9109 C   0  0  0  0  0  0  0  0  0  0  0  0
  -85.6247  -11.9428   11.9405 C   0  0  0  0  0  0  0  0  0  0  0  0
  -84.3152  -11.6363   11.2403 C   0  0  0  0  0  0  0  0  0  0  0  0
  -84.5653  -12.1638    9.8627 N   0  0  0  0  0  0  0  0  0  0  0  0
  -83.8078  -11.7566    8.8379 C   0  0  0  0  0  0  0  0  0  0  0  0
  -82.9027  -10.9438    9.0549 O   0  0  0  0  0  0  0  0  0  0  0  0
  -84.5361  -14.2340   13.0528 O   0  0  0  0  0  0  0  0  0  0  0  0
  -84.8613  -14.3092   11.8487 C   0  0  0  0  0  0  0  0  0  0  0  0
  -84.3989  -15.1079   10.9972 O   0  0  0  0  0  0  0  0  0  0  0  0
  -84.9429  -13.5993   13.6092 H   0  0  0  0  0  0  0  0  0  0  0  0
  -87.8609  -13.1455    5.9665 C   0  0  0  0  0  0  0  0  0  0  0  0
  -87.9015  -14.0628    7.4112 S   0  0  0  0  0  0  0  0  0  0  0  0
  -89.1279  -12.9513    5.5437 N   0  0  0  0  0  0  0  0  0  0  0  0
  -90.0873  -13.5215    6.3334 C   0  0  0  0  0  0  0  0  0  0  0  0
  -89.6155  -14.1762    7.4154 C   0  0  0  0  0  0  0  0  0  0  0  0
  -90.2824  -14.8570    8.4019 C   0  0  0  0  0  0  0  0  0  0  0  0
  -89.6460  -15.1942    9.3978 O   0  0  0  0  0  0  0  0  0  0  0  0
  -91.5909  -15.1801    8.2415 N   0  0  0  0  0  0  0  0  0  0  0  0
  -92.0570  -14.9207    7.4140 H   0  0  0  0  0  0  0  0  0  0  0  0
  -92.2802  -15.8701    9.2266 C   0  0  0  0  0  0  0  0  0  0  0  0
  -92.9818  -15.1763   10.2131 C   0  0  0  0  0  0  0  0  0  0  0  0
  -92.9691  -13.4431   10.2631 Cl  0  0  0  0  0  0  0  0  0  0  0  0
  -93.7003  -15.8859   11.1808 C   0  0  0  0  0  0  0  0  0  0  0  0
  -93.7314  -17.2844   11.1544 C   0  0  0  0  0  0  0  0  0  0  0  0
  -93.0433  -17.9862   10.1618 C   0  0  0  0  0  0  0  0  0  0  0  0
  -92.3239  -17.2650    9.2008 C   0  0  0  0  0  0  0  0  0  0  0  0
  -91.6416  -17.9620    8.1984 C   0  0  0  0  0  0  0  0  0  0  0  0
 18 17  2  0  0  0
 17 16  1  0  0  0
 17  9  1  0  0  0
 12 11  1  0  0  0
 12 13  1  0  0  0
 11  9  1  0  0  0
  9 10  1  0  0  0
 13 10  1  0  0  0
 13 14  1  0  0  0
 15 14  2  0  0  0
 14  3  1  0  0  0
  4  3  2  0  0  0
  4  8  1  0  0  0
  3  5  1  0  0  0
  1  8  1  0  0  0
  1 20  1  0  0  0
 22 20  2  0  0  0
 22 23  1  0  0  0
  8  7  2  0  0  0
 20 21  1  0  0  0
 23 24  2  0  0  0
  5  6  2  0  0  0
  7  6  1  0  0  0
 24 21  1  0  0  0
 24 25  1  0  0  0
 36 35  1  0  0  0
 27 25  1  0  0  0
 27 29  1  0  0  0
 25 26  2  0  0  0
 35 29  2  0  0  0
 35 34  1  0  0  0
 29 30  1  0  0  0
 34 33  2  0  0  0
 30 31  1  0  0  0
 30 32  2  0  0  0
 33 32  1  0  0  0
 16 19  1  0  0  0
  1  2  1  0  0  0
 27 28  1  0  0  0
M  END
> <minimizedAffinity>
-10.14034

$$$$
5NKC_90T_A_1001


 36 39  0  0  0  0  0  0  0  0999 V2000
  -86.2536  -13.0173    5.9307 N   0  0  0  0  0  0  0  0  0  0  0  0
  -86.0838  -12.8388    4.9775 H   0  0  0  0  0  0  0  0  0  0  0  0
  -84.4789  -13.3624    9.0710 C   0  0  0  0  0  0  0  0  0  0  0  0
  -85.4710  -13.3325    8.0864 C   0  0  0  0  0  0  0  0  0  0  0  0
  -83.1800  -13.0131    8.7002 C   0  0  0  0  0  0  0  0  0  0  0  0
  -82.8907  -12.6398    7.3942 C   0  0  0  0  0  0  0  0  0  0  0  0
  -83.8918  -12.6278    6.4247 C   0  0  0  0  0  0  0  0  0  0  0  0
  -85.1952  -12.9599    6.7724 C   0  0  0  0  0  0  0  0  0  0  0  0
  -86.6834  -11.4034   12.4117 C   0  0  0  0  0  0  0  0  0  0  0  0
  -85.8226  -11.5812   11.1777 C   0  0  0  0  0  0  0  0  0  0  0  0
  -85.9035  -12.2079   13.4168 C   0  0  0  0  0  0  0  0  0  0  0  0
  -85.7011  -13.4975   12.6454 C   0  0  0  0  0  0  0  0  0  0  0  0
  -85.3948  -12.9953   11.2697 N   0  0  0  0  0  0  0  0  0  0  0  0
  -84.7887  -13.7913   10.3817 C   0  0  0  0  0  0  0  0  0  0  0  0
  -84.4931  -14.9422   10.7209 O   0  0  0  0  0  0  0  0  0  0  0  0
  -88.6932  -12.3516   13.1578 O   0  0  0  0  0  0  0  0  0  0  0  0
  -88.0341  -12.0426   12.1423 C   0  0  0  0  0  0  0  0  0  0  0  0
  -88.3759  -12.2171   10.9467 O   0  0  0  0  0  0  0  0  0  0  0  0
  -88.3476  -12.1781   14.0113 H   0  0  0  0  0  0  0  0  0  0  0  0
  -87.5166  -13.2981    6.2904 C   0  0  0  0  0  0  0  0  0  0  0  0
  -88.1199  -14.1694    7.6348 S   0  0  0  0  0  0  0  0  0  0  0  0
  -88.5606  -12.8810    5.5436 N   0  0  0  0  0  0  0  0  0  0  0  0
  -89.7875  -13.2525    6.0189 C   0  0  0  0  0  0  0  0  0  0  0  0
  -89.7594  -13.9656    7.1647 C   0  0  0  0  0  0  0  0  0  0  0  0
  -90.7846  -14.4966    7.9053 C   0  0  0  0  0  0  0  0  0  0  0  0
  -91.9220  -14.0832    7.6907 O   0  0  0  0  0  0  0  0  0  0  0  0
  -90.5232  -15.4125    8.8722 N   0  0  0  0  0  0  0  0  0  0  0  0
  -89.5940  -15.6935    9.0361 H   0  0  0  0  0  0  0  0  0  0  0  0
  -91.5462  -15.9579    9.6321 C   0  0  0  0  0  0  0  0  0  0  0  0
  -92.1121  -15.2290   10.6787 C   0  0  0  0  0  0  0  0  0  0  0  0
  -91.5207  -13.6509   11.0869 Cl  0  0  0  0  0  0  0  0  0  0  0  0
  -93.1663  -15.7789   11.4152 C   0  0  0  0  0  0  0  0  0  0  0  0
  -93.6648  -17.0470   11.0978 C   0  0  0  0  0  0  0  0  0  0  0  0
  -93.1133  -17.7774   10.0425 C   0  0  0  0  0  0  0  0  0  0  0  0
  -92.0554  -17.2182    9.3149 C   0  0  0  0  0  0  0  0  0  0  0  0
  -91.5062  -17.9405    8.2507 C   0  0  0  0  0  0  0  0  0  0  0  0
 18 17  2  0  0  0
 17 16  1  0  0  0
 17  9  1  0  0  0
 12 11  1  0  0  0
 12 13  1  0  0  0
 11  9  1  0  0  0
  9 10  1  0  0  0
 13 10  1  0  0  0
 13 14  1  0  0  0
 15 14  2  0  0  0
 14  3  1  0  0  0
  4  3  2  0  0  0
  4  8  1  0  0  0
  3  5  1  0  0  0
  1  8  1  0  0  0
  1 20  1  0  0  0
 22 20  2  0  0  0
 22 23  1  0  0  0
  8  7  2  0  0  0
 20 21  1  0  0  0
 23 24  2  0  0  0
  5  6  2  0  0  0
  7  6  1  0  0  0
 24 21  1  0  0  0
 24 25  1  0  0  0
 36 35  1  0  0  0
 27 25  1  0  0  0
 27 29  1  0  0  0
 25 26  2  0  0  0
 35 29  2  0  0  0
 35 34  1  0  0  0
 29 30  1  0  0  0
 34 33  2  0  0  0
 30 31  1  0  0  0
 30 32  2  0  0  0
 33 32  1  0  0  0
 16 19  1  0  0  0
  1  2  1  0  0  0
 27 28  1  0  0  0
M  END
> <minimizedAffinity>
-9.76346

$$$$
5NKC_90T_A_1001


 36 39  0  0  0  0  0  0  0  0999 V2000
  -86.1119  -12.6557    5.5388 N   0  0  0  0  0  0  0  0  0  0  0  0
  -86.4564  -12.1671    4.7566 H   0  0  0  0  0  0  0  0  0  0  0  0
  -82.6396  -12.2159    4.6007 C   0  0  0  0  0  0  0  0  0  0  0  0
  -84.0377  -12.2165    4.6096 C   0  0  0  0  0  0  0  0  0  0  0  0
  -81.9794  -12.7801    5.6926 C   0  0  0  0  0  0  0  0  0  0  0  0
  -82.6948  -13.3313    6.7476 C   0  0  0  0  0  0  0  0  0  0  0  0
  -84.0884  -13.3114    6.7428 C   0  0  0  0  0  0  0  0  0  0  0  0
  -84.7684  -12.7660    5.6610 C   0  0  0  0  0  0  0  0  0  0  0  0
  -79.9210   -8.6881    4.4552 C   0  0  0  0  0  0  0  0  0  0  0  0
  -81.0460   -9.6086    4.8819 C   0  0  0  0  0  0  0  0  0  0  0  0
  -80.2835   -8.4504    3.0138 C   0  0  0  0  0  0  0  0  0  0  0  0
  -80.5015   -9.8749    2.5423 C   0  0  0  0  0  0  0  0  0  0  0  0
  -81.2310  -10.4802    3.7000 N   0  0  0  0  0  0  0  0  0  0  0  0
  -81.9343  -11.6067    3.5381 C   0  0  0  0  0  0  0  0  0  0  0  0
  -81.9642  -12.1323    2.4202 O   0  0  0  0  0  0  0  0  0  0  0  0
  -77.6917   -9.0481    3.8260 O   0  0  0  0  0  0  0  0  0  0  0  0
  -78.6153   -9.4558    4.5622 C   0  0  0  0  0  0  0  0  0  0  0  0
  -78.5654  -10.4264    5.3574 O   0  0  0  0  0  0  0  0  0  0  0  0
  -77.8307   -8.3107    3.2649 H   0  0  0  0  0  0  0  0  0  0  0  0
  -87.0130  -13.1588    6.3980 C   0  0  0  0  0  0  0  0  0  0  0  0
  -88.6100  -13.7149    6.1319 S   0  0  0  0  0  0  0  0  0  0  0  0
  -86.7246  -13.2889    7.7101 N   0  0  0  0  0  0  0  0  0  0  0  0
  -87.7401  -13.7987    8.4704 C   0  0  0  0  0  0  0  0  0  0  0  0
  -88.8633  -14.1021    7.7861 C   0  0  0  0  0  0  0  0  0  0  0  0
  -90.0571  -14.6176    8.2228 C   0  0  0  0  0  0  0  0  0  0  0  0
  -91.0605  -14.3918    7.5500 O   0  0  0  0  0  0  0  0  0  0  0  0
  -90.1141  -15.3108    9.3883 N   0  0  0  0  0  0  0  0  0  0  0  0
  -89.2932  -15.4419    9.9157 H   0  0  0  0  0  0  0  0  0  0  0  0
  -91.3121  -15.8367    9.8464 C   0  0  0  0  0  0  0  0  0  0  0  0
  -91.7356  -17.0972    9.4238 C   0  0  0  0  0  0  0  0  0  0  0  0
  -90.8057  -18.0128    8.2819 Cl  0  0  0  0  0  0  0  0  0  0  0  0
  -92.9300  -17.6292    9.9205 C   0  0  0  0  0  0  0  0  0  0  0  0
  -93.6917  -16.9115   10.8490 C   0  0  0  0  0  0  0  0  0  0  0  0
  -93.2675  -15.6551   11.2881 C   0  0  0  0  0  0  0  0  0  0  0  0
  -92.0722  -15.1309   10.7805 C   0  0  0  0  0  0  0  0  0  0  0  0
  -91.6371  -13.8780   11.2243 C   0  0  0  0  0  0  0  0  0  0  0  0
 18 17  2  0  0  0
 17 16  1  0  0  0
 17  9  1  0  0  0
 12 11  1  0  0  0
 12 13  1  0  0  0
 11  9  1  0  0  0
  9 10  1  0  0  0
 13 10  1  0  0  0
 13 14  1  0  0  0
 15 14  2  0  0  0
 14  3  1  0  0  0
  4  3  2  0  0  0
  4  8  1  0  0  0
  3  5  1  0  0  0
  1  8  1  0  0  0
  1 20  1  0  0  0
 22 20  2  0  0  0
 22 23  1  0  0  0
  8  7  2  0  0  0
 20 21  1  0  0  0
 23 24  2  0  0  0
  5  6  2  0  0  0
  7  6  1  0  0  0
 24 21  1  0  0  0
 24 25  1  0  0  0
 36 35  1  0  0  0
 27 25  1  0  0  0
 27 29  1  0  0  0
 25 26  2  0  0  0
 35 29  2  0  0  0
 35 34  1  0  0  0
 29 30  1  0  0  0
 34 33  2  0  0  0
 30 31  1  0  0  0
 30 32  2  0  0  0
 33 32  1  0  0  0
 16 19  1  0  0  0
  1  2  1  0  0  0
 27 28  1  0  0  0
M  END
> <minimizedAffinity>
-9.58714

$$$$
5NKC_90T_A_1001


 36 39  0  0  0  0  0  0  0  0999 V2000
  -85.4806  -13.1885    7.1315 N   0  0  0  0  0  0  0  0  0  0  0  0
  -85.0289  -13.4013    6.2830 H   0  0  0  0  0  0  0  0  0  0  0  0
  -84.4751  -12.5009   10.5442 C   0  0  0  0  0  0  0  0  0  0  0  0
  -85.1638  -12.9459    9.4117 C   0  0  0  0  0  0  0  0  0  0  0  0
  -83.3132  -11.7534   10.3502 C   0  0  0  0  0  0  0  0  0  0  0  0
  -82.8656  -11.4567    9.0695 C   0  0  0  0  0  0  0  0  0  0  0  0
  -83.5601  -11.9196    7.9534 C   0  0  0  0  0  0  0  0  0  0  0  0
  -84.7264  -12.6556    8.1211 C   0  0  0  0  0  0  0  0  0  0  0  0
  -87.9568  -11.1452   12.9725 C   0  0  0  0  0  0  0  0  0  0  0  0
  -86.8170  -11.1277   11.9748 C   0  0  0  0  0  0  0  0  0  0  0  0
  -87.2145  -11.4663   14.2420 C   0  0  0  0  0  0  0  0  0  0  0  0
  -86.3998  -12.6638   13.7935 C   0  0  0  0  0  0  0  0  0  0  0  0
  -85.9632  -12.2507   12.4233 N   0  0  0  0  0  0  0  0  0  0  0  0
  -84.9245  -12.8559   11.8364 C   0  0  0  0  0  0  0  0  0  0  0  0
  -84.3411  -13.7584   12.4465 O   0  0  0  0  0  0  0  0  0  0  0  0
  -89.6229  -12.6999   13.5222 O   0  0  0  0  0  0  0  0  0  0  0  0
  -88.8964  -12.2774   12.5975 C   0  0  0  0  0  0  0  0  0  0  0  0
  -88.8673  -12.7009   11.4157 O   0  0  0  0  0  0  0  0  0  0  0  0
  -89.5686  -12.3139   14.3743 H   0  0  0  0  0  0  0  0  0  0  0  0
  -86.7952  -13.4505    7.2133 C   0  0  0  0  0  0  0  0  0  0  0  0
  -87.6705  -14.3938    8.3422 S   0  0  0  0  0  0  0  0  0  0  0  0
  -87.6616  -12.9458    6.3098 N   0  0  0  0  0  0  0  0  0  0  0  0
  -88.9655  -13.3077    6.5048 C   0  0  0  0  0  0  0  0  0  0  0  0
  -89.1796  -14.1009    7.5758 C   0  0  0  0  0  0  0  0  0  0  0  0
  -90.3417  -14.6476    8.0576 C   0  0  0  0  0  0  0  0  0  0  0  0
  -91.3671  -14.4890    7.3988 O   0  0  0  0  0  0  0  0  0  0  0  0
  -90.3462  -15.2971    9.2493 N   0  0  0  0  0  0  0  0  0  0  0  0
  -89.5101  -15.3741    9.7632 H   0  0  0  0  0  0  0  0  0  0  0  0
  -91.5117  -15.8535    9.7530 C   0  0  0  0  0  0  0  0  0  0  0  0
  -91.8727  -17.1583    9.4153 C   0  0  0  0  0  0  0  0  0  0  0  0
  -90.9057  -18.0957    8.3231 Cl  0  0  0  0  0  0  0  0  0  0  0  0
  -93.0340  -17.7181    9.9578 C   0  0  0  0  0  0  0  0  0  0  0  0
  -93.8245  -16.9828   10.8477 C   0  0  0  0  0  0  0  0  0  0  0  0
  -93.4625  -15.6811   11.2020 C   0  0  0  0  0  0  0  0  0  0  0  0
  -92.3000  -15.1296   10.6491 C   0  0  0  0  0  0  0  0  0  0  0  0
  -91.9269  -13.8305   11.0082 C   0  0  0  0  0  0  0  0  0  0  0  0
 18 17  2  0  0  0
 17 16  1  0  0  0
 17  9  1  0  0  0
 12 11  1  0  0  0
 12 13  1  0  0  0
 11  9  1  0  0  0
  9 10  1  0  0  0
 13 10  1  0  0  0
 13 14  1  0  0  0
 15 14  2  0  0  0
 14  3  1  0  0  0
  4  3  2  0  0  0
  4  8  1  0  0  0
  3  5  1  0  0  0
  1  8  1  0  0  0
  1 20  1  0  0  0
 22 20  2  0  0  0
 22 23  1  0  0  0
  8  7  2  0  0  0
 20 21  1  0  0  0
 23 24  2  0  0  0
  5  6  2  0  0  0
  7  6  1  0  0  0
 24 21  1  0  0  0
 24 25  1  0  0  0
 36 35  1  0  0  0
 27 25  1  0  0  0
 27 29  1  0  0  0
 25 26  2  0  0  0
 35 29  2  0  0  0
 35 34  1  0  0  0
 29 30  1  0  0  0
 34 33  2  0  0  0
 30 31  1  0  0  0
 30 32  2  0  0  0
 33 32  1  0  0  0
 16 19  1  0  0  0
  1  2  1  0  0  0
 27 28  1  0  0  0
M  END
> <minimizedAffinity>
-9.39948

$$$$
5NKC_90T_A_1001


 36 39  0  0  0  0  0  0  0  0999 V2000
  -85.1679  -11.9505   10.9537 N   0  0  0  0  0  0  0  0  0  0  0  0
  -85.4756  -11.0754   11.2837 H   0  0  0  0  0  0  0  0  0  0  0  0
  -82.2179  -11.5696    8.8841 C   0  0  0  0  0  0  0  0  0  0  0  0
  -83.5312  -11.5606    9.3638 C   0  0  0  0  0  0  0  0  0  0  0  0
  -81.2246  -12.0962    9.7103 C   0  0  0  0  0  0  0  0  0  0  0  0
  -81.5390  -12.6020   10.9648 C   0  0  0  0  0  0  0  0  0  0  0  0
  -82.8527  -12.5732   11.4292 C   0  0  0  0  0  0  0  0  0  0  0  0
  -83.8611  -12.0649   10.6201 C   0  0  0  0  0  0  0  0  0  0  0  0
  -82.7064  -13.1078    4.7305 C   0  0  0  0  0  0  0  0  0  0  0  0
  -82.4825  -13.0845    6.2286 C   0  0  0  0  0  0  0  0  0  0  0  0
  -81.5645  -12.2463    4.2621 C   0  0  0  0  0  0  0  0  0  0  0  0
  -81.7293  -11.0452    5.1727 C   0  0  0  0  0  0  0  0  0  0  0  0
  -82.0630  -11.6878    6.4820 N   0  0  0  0  0  0  0  0  0  0  0  0
  -81.9160  -11.0060    7.6236 C   0  0  0  0  0  0  0  0  0  0  0  0
  -81.5045   -9.8420    7.5711 O   0  0  0  0  0  0  0  0  0  0  0  0
  -84.0685  -11.7245    3.4166 O   0  0  0  0  0  0  0  0  0  0  0  0
  -84.0387  -12.4395    4.4409 C   0  0  0  0  0  0  0  0  0  0  0  0
  -84.9864  -12.6433    5.2391 O   0  0  0  0  0  0  0  0  0  0  0  0
  -83.3027  -11.6370    2.8839 H   0  0  0  0  0  0  0  0  0  0  0  0
  -86.0787  -12.9338   10.8712 C   0  0  0  0  0  0  0  0  0  0  0  0
  -87.6663  -13.0318   11.5039 S   0  0  0  0  0  0  0  0  0  0  0  0
  -85.8064  -14.0793   10.2113 N   0  0  0  0  0  0  0  0  0  0  0  0
  -86.8179  -14.9990   10.2222 C   0  0  0  0  0  0  0  0  0  0  0  0
  -87.9307  -14.6100   10.8796 C   0  0  0  0  0  0  0  0  0  0  0  0
  -89.1143  -15.2708   11.0901 C   0  0  0  0  0  0  0  0  0  0  0  0
  -89.2030  -15.9869   12.0850 O   0  0  0  0  0  0  0  0  0  0  0  0
  -90.1248  -15.1614   10.1906 N   0  0  0  0  0  0  0  0  0  0  0  0
  -90.0024  -14.6038    9.3886 H   0  0  0  0  0  0  0  0  0  0  0  0
  -91.3267  -15.8239   10.3855 C   0  0  0  0  0  0  0  0  0  0  0  0
  -92.2974  -15.2879   11.2324 C   0  0  0  0  0  0  0  0  0  0  0  0
  -92.0083  -13.8136   12.0982 Cl  0  0  0  0  0  0  0  0  0  0  0  0
  -93.5187  -15.9505   11.3932 C   0  0  0  0  0  0  0  0  0  0  0  0
  -93.7765  -17.1368   10.6979 C   0  0  0  0  0  0  0  0  0  0  0  0
  -92.8156  -17.6725    9.8371 C   0  0  0  0  0  0  0  0  0  0  0  0
  -91.5949  -17.0026    9.6875 C   0  0  0  0  0  0  0  0  0  0  0  0
  -90.6331  -17.5287    8.8191 C   0  0  0  0  0  0  0  0  0  0  0  0
 18 17  2  0  0  0
 17 16  1  0  0  0
 17  9  1  0  0  0
 12 11  1  0  0  0
 12 13  1  0  0  0
 11  9  1  0  0  0
  9 10  1  0  0  0
 13 10  1  0  0  0
 13 14  1  0  0  0
 15 14  2  0  0  0
 14  3  1  0  0  0
  4  3  2  0  0  0
  4  8  1  0  0  0
  3  5  1  0  0  0
  1  8  1  0  0  0
  1 20  1  0  0  0
 22 20  2  0  0  0
 22 23  1  0  0  0
  8  7  2  0  0  0
 20 21  1  0  0  0
 23 24  2  0  0  0
  5  6  2  0  0  0
  7  6  1  0  0  0
 24 21  1  0  0  0
 24 25  1  0  0  0
 36 35  1  0  0  0
 27 25  1  0  0  0
 27 29  1  0  0  0
 25 26  2  0  0  0
 35 29  2  0  0  0
 35 34  1  0  0  0
 29 30  1  0  0  0
 34 33  2  0  0  0
 30 31  1  0  0  0
 30 32  2  0  0  0
 33 32  1  0  0  0
 16 19  1  0  0  0
  1  2  1  0  0  0
 27 28  1  0  0  0
M  END
> <minimizedAffinity>
-9.30916

$$$$
5NKC_90T_A_1001


 36 39  0  0  0  0  0  0  0  0999 V2000
  -84.1286  -13.8022    8.2670 N   0  0  0  0  0  0  0  0  0  0  0  0
  -83.7063  -14.3623    7.5762 H   0  0  0  0  0  0  0  0  0  0  0  0
  -81.9702  -10.9061    8.5576 C   0  0  0  0  0  0  0  0  0  0  0  0
  -82.7751  -11.9356    8.0606 C   0  0  0  0  0  0  0  0  0  0  0  0
  -81.7542  -10.8530    9.9349 C   0  0  0  0  0  0  0  0  0  0  0  0
  -82.3170  -11.8015   10.7788 C   0  0  0  0  0  0  0  0  0  0  0  0
  -83.1261  -12.8131   10.2648 C   0  0  0  0  0  0  0  0  0  0  0  0
  -83.3460  -12.8940    8.8954 C   0  0  0  0  0  0  0  0  0  0  0  0
  -80.4145  -11.1441    4.3886 C   0  0  0  0  0  0  0  0  0  0  0  0
  -80.7570  -11.5382    5.8107 C   0  0  0  0  0  0  0  0  0  0  0  0
  -79.5374   -9.9454    4.6324 C   0  0  0  0  0  0  0  0  0  0  0  0
  -80.4036   -9.1571    5.5953 C   0  0  0  0  0  0  0  0  0  0  0  0
  -80.9449  -10.2330    6.4830 N   0  0  0  0  0  0  0  0  0  0  0  0
  -81.4477   -9.9255    7.6840 C   0  0  0  0  0  0  0  0  0  0  0  0
  -81.4569   -8.7417    8.0383 O   0  0  0  0  0  0  0  0  0  0  0  0
  -81.5626   -9.9286    2.7456 O   0  0  0  0  0  0  0  0  0  0  0  0
  -81.6988  -10.7376    3.6881 C   0  0  0  0  0  0  0  0  0  0  0  0
  -82.7779  -11.2264    4.1046 O   0  0  0  0  0  0  0  0  0  0  0  0
  -80.7089   -9.6218    2.5112 H   0  0  0  0  0  0  0  0  0  0  0  0
  -85.4343  -14.0013    8.5096 C   0  0  0  0  0  0  0  0  0  0  0  0
  -86.2087  -14.9888    9.6738 S   0  0  0  0  0  0  0  0  0  0  0  0
  -86.3801  -13.3782    7.7755 N   0  0  0  0  0  0  0  0  0  0  0  0
  -87.6664  -13.6867    8.1207 C   0  0  0  0  0  0  0  0  0  0  0  0
  -87.7851  -14.5545    9.1477 C   0  0  0  0  0  0  0  0  0  0  0  0
  -88.9046  -15.0783    9.7426 C   0  0  0  0  0  0  0  0  0  0  0  0
  -88.7695  -15.6367   10.8291 O   0  0  0  0  0  0  0  0  0  0  0  0
  -90.1047  -15.0136    9.1120 N   0  0  0  0  0  0  0  0  0  0  0  0
  -90.1655  -14.5870    8.2268 H   0  0  0  0  0  0  0  0  0  0  0  0
  -91.2461  -15.5398    9.6968 C   0  0  0  0  0  0  0  0  0  0  0  0
  -91.6149  -16.8637    9.4559 C   0  0  0  0  0  0  0  0  0  0  0  0
  -90.6893  -17.8655    8.3852 Cl  0  0  0  0  0  0  0  0  0  0  0  0
  -92.7505  -17.3909   10.0795 C   0  0  0  0  0  0  0  0  0  0  0  0
  -93.5071  -16.6032   10.9538 C   0  0  0  0  0  0  0  0  0  0  0  0
  -93.1366  -15.2812   11.2114 C   0  0  0  0  0  0  0  0  0  0  0  0
  -92.0002  -14.7630   10.5779 C   0  0  0  0  0  0  0  0  0  0  0  0
  -91.6184  -13.4434   10.8401 C   0  0  0  0  0  0  0  0  0  0  0  0
 18 17  2  0  0  0
 17 16  1  0  0  0
 17  9  1  0  0  0
 12 11  1  0  0  0
 12 13  1  0  0  0
 11  9  1  0  0  0
  9 10  1  0  0  0
 13 10  1  0  0  0
 13 14  1  0  0  0
 15 14  2  0  0  0
 14  3  1  0  0  0
  4  3  2  0  0  0
  4  8  1  0  0  0
  3  5  1  0  0  0
  1  8  1  0  0  0
  1 20  1  0  0  0
 22 20  2  0  0  0
 22 23  1  0  0  0
  8  7  2  0  0  0
 20 21  1  0  0  0
 23 24  2  0  0  0
  5  6  2  0  0  0
  7  6  1  0  0  0
 24 21  1  0  0  0
 24 25  1  0  0  0
 36 35  1  0  0  0
 27 25  1  0  0  0
 27 29  1  0  0  0
 25 26  2  0  0  0
 35 29  2  0  0  0
 35 34  1  0  0  0
 29 30  1  0  0  0
 34 33  2  0  0  0
 30 31  1  0  0  0
 30 32  2  0  0  0
 33 32  1  0  0  0
 16 19  1  0  0  0
  1  2  1  0  0  0
 27 28  1  0  0  0
M  END
> <minimizedAffinity>
-9.10923

$$$$
5NKC_90T_A_1001


 36 39  0  0  0  0  0  0  0  0999 V2000
  -86.1578  -12.5528    5.9010 N   0  0  0  0  0  0  0  0  0  0  0  0
  -86.5211  -12.0178    5.1586 H   0  0  0  0  0  0  0  0  0  0  0  0
  -82.9189  -11.9579    7.4129 C   0  0  0  0  0  0  0  0  0  0  0  0
  -84.2875  -11.9552    7.1272 C   0  0  0  0  0  0  0  0  0  0  0  0
  -82.0737  -12.6602    6.5534 C   0  0  0  0  0  0  0  0  0  0  0  0
  -82.5817  -13.3261    5.4456 C   0  0  0  0  0  0  0  0  0  0  0  0
  -83.9508  -13.3210    5.1848 C   0  0  0  0  0  0  0  0  0  0  0  0
  -84.8111  -12.6185    6.0194 C   0  0  0  0  0  0  0  0  0  0  0  0
  -82.5231  -13.3104   11.6404 C   0  0  0  0  0  0  0  0  0  0  0  0
  -83.0517  -13.1739   10.2272 C   0  0  0  0  0  0  0  0  0  0  0  0
  -82.6335  -11.8882   12.1206 C   0  0  0  0  0  0  0  0  0  0  0  0
  -81.9565  -11.1549   10.9791 C   0  0  0  0  0  0  0  0  0  0  0  0
  -82.4860  -11.8804    9.7825 N   0  0  0  0  0  0  0  0  0  0  0  0
  -82.4320  -11.3126    8.5724 C   0  0  0  0  0  0  0  0  0  0  0  0
  -81.9360  -10.1857    8.4670 O   0  0  0  0  0  0  0  0  0  0  0  0
  -80.7559  -14.3888   10.5407 O   0  0  0  0  0  0  0  0  0  0  0  0
  -81.0690  -13.7405   11.5619 C   0  0  0  0  0  0  0  0  0  0  0  0
  -80.3095  -13.4275   12.5116 O   0  0  0  0  0  0  0  0  0  0  0  0
  -81.4005  -14.5713    9.8857 H   0  0  0  0  0  0  0  0  0  0  0  0
  -87.0386  -13.1581    6.7140 C   0  0  0  0  0  0  0  0  0  0  0  0
  -88.6813  -13.5684    6.4617 S   0  0  0  0  0  0  0  0  0  0  0  0
  -86.6839  -13.5456    7.9572 N   0  0  0  0  0  0  0  0  0  0  0  0
  -87.6848  -14.1330    8.6799 C   0  0  0  0  0  0  0  0  0  0  0  0
  -88.8632  -14.2429    8.0309 C   0  0  0  0  0  0  0  0  0  0  0  0
  -90.0608  -14.7661    8.4475 C   0  0  0  0  0  0  0  0  0  0  0  0
  -91.0770  -14.4233    7.8471 O   0  0  0  0  0  0  0  0  0  0  0  0
  -90.1054  -15.5958    9.5206 N   0  0  0  0  0  0  0  0  0  0  0  0
  -89.2727  -15.8201    9.9956 H   0  0  0  0  0  0  0  0  0  0  0  0
  -91.3068  -16.1317    9.9574 C   0  0  0  0  0  0  0  0  0  0  0  0
  -92.0791  -15.4538   10.9012 C   0  0  0  0  0  0  0  0  0  0  0  0
  -91.5360  -13.9566   11.5869 Cl  0  0  0  0  0  0  0  0  0  0  0  0
  -93.3052  -15.9904   11.3074 C   0  0  0  0  0  0  0  0  0  0  0  0
  -93.7667  -17.1928   10.7610 C   0  0  0  0  0  0  0  0  0  0  0  0
  -93.0064  -17.8705    9.8051 C   0  0  0  0  0  0  0  0  0  0  0  0
  -91.7784  -17.3258    9.4094 C   0  0  0  0  0  0  0  0  0  0  0  0
  -91.0177  -17.9945    8.4450 C   0  0  0  0  0  0  0  0  0  0  0  0
 18 17  2  0  0  0
 17 16  1  0  0  0
 17  9  1  0  0  0
 12 11  1  0  0  0
 12 13  1  0  0  0
 11  9  1  0  0  0
  9 10  1  0  0  0
 13 10  1  0  0  0
 13 14  1  0  0  0
 15 14  2  0  0  0
 14  3  1  0  0  0
  4  3  2  0  0  0
  4  8  1  0  0  0
  3  5  1  0  0  0
  1  8  1  0  0  0
  1 20  1  0  0  0
 22 20  2  0  0  0
 22 23  1  0  0  0
  8  7  2  0  0  0
 20 21  1  0  0  0
 23 24  2  0  0  0
  5  6  2  0  0  0
  7  6  1  0  0  0
 24 21  1  0  0  0
 24 25  1  0  0  0
 36 35  1  0  0  0
 27 25  1  0  0  0
 27 29  1  0  0  0
 25 26  2  0  0  0
 35 29  2  0  0  0
 35 34  1  0  0  0
 29 30  1  0  0  0
 34 33  2  0  0  0
 30 31  1  0  0  0
 30 32  2  0  0  0
 33 32  1  0  0  0
 16 19  1  0  0  0
  1  2  1  0  0  0
 27 28  1  0  0  0
M  END
> <minimizedAffinity>
-9.05634

$$$$
5NKC_90T_A_1001


 36 39  0  0  0  0  0  0  0  0999 V2000
  -86.0217  -12.3930    6.2854 N   0  0  0  0  0  0  0  0  0  0  0  0
  -86.1266  -11.7524    5.5452 H   0  0  0  0  0  0  0  0  0  0  0  0
  -83.3065  -12.1705    8.6748 C   0  0  0  0  0  0  0  0  0  0  0  0
  -84.5348  -12.0290    8.0219 C   0  0  0  0  0  0  0  0  0  0  0  0
  -82.3074  -12.9043    8.0347 C   0  0  0  0  0  0  0  0  0  0  0  0
  -82.5299  -13.4663    6.7844 C   0  0  0  0  0  0  0  0  0  0  0  0
  -83.7653  -13.3236    6.1554 C   0  0  0  0  0  0  0  0  0  0  0  0
  -84.7718  -12.5870    6.7674 C   0  0  0  0  0  0  0  0  0  0  0  0
  -85.0428  -13.2378   12.6376 C   0  0  0  0  0  0  0  0  0  0  0  0
  -84.9082  -13.0489   11.1405 C   0  0  0  0  0  0  0  0  0  0  0  0
  -84.8521  -11.8240   13.1177 C   0  0  0  0  0  0  0  0  0  0  0  0
  -83.5863  -11.4450   12.3740 C   0  0  0  0  0  0  0  0  0  0  0  0
  -83.8213  -12.0505   11.0261 N   0  0  0  0  0  0  0  0  0  0  0  0
  -83.1204  -11.6295    9.9673 C   0  0  0  0  0  0  0  0  0  0  0  0
  -82.2795  -10.7385   10.1282 O   0  0  0  0  0  0  0  0  0  0  0  0
  -83.5695  -13.9807   14.3027 O   0  0  0  0  0  0  0  0  0  0  0  0
  -83.9025  -14.1238   13.1069 C   0  0  0  0  0  0  0  0  0  0  0  0
  -83.3853  -14.9093   12.2749 O   0  0  0  0  0  0  0  0  0  0  0  0
  -84.0213  -13.3639   14.8442 H   0  0  0  0  0  0  0  0  0  0  0  0
  -87.1301  -13.0033    6.7351 C   0  0  0  0  0  0  0  0  0  0  0  0
  -87.4986  -13.6353    8.2828 S   0  0  0  0  0  0  0  0  0  0  0  0
  -88.1871  -13.2112    5.9220 N   0  0  0  0  0  0  0  0  0  0  0  0
  -89.2396  -13.8582    6.5075 C   0  0  0  0  0  0  0  0  0  0  0  0
  -89.0587  -14.1742    7.8073 C   0  0  0  0  0  0  0  0  0  0  0  0
  -89.8894  -14.8186    8.6883 C   0  0  0  0  0  0  0  0  0  0  0  0
  -89.4024  -15.2342    9.7374 O   0  0  0  0  0  0  0  0  0  0  0  0
  -91.1930  -15.0227    8.3704 N   0  0  0  0  0  0  0  0  0  0  0  0
  -91.5373  -14.7035    7.5051 H   0  0  0  0  0  0  0  0  0  0  0  0
  -92.0465  -15.6742    9.2472 C   0  0  0  0  0  0  0  0  0  0  0  0
  -92.1081  -17.0680    9.2654 C   0  0  0  0  0  0  0  0  0  0  0  0
  -91.1621  -18.0160    8.1639 Cl  0  0  0  0  0  0  0  0  0  0  0  0
  -92.9491  -17.7123   10.1786 C   0  0  0  0  0  0  0  0  0  0  0  0
  -93.7147  -16.9675   11.0821 C   0  0  0  0  0  0  0  0  0  0  0  0
  -93.6482  -15.5723   11.0800 C   0  0  0  0  0  0  0  0  0  0  0  0
  -92.8059  -14.9382   10.1582 C   0  0  0  0  0  0  0  0  0  0  0  0
  -92.7272  -13.5418   10.1584 C   0  0  0  0  0  0  0  0  0  0  0  0
 18 17  2  0  0  0
 17 16  1  0  0  0
 17  9  1  0  0  0
 12 11  1  0  0  0
 12 13  1  0  0  0
 11  9  1  0  0  0
  9 10  1  0  0  0
 13 10  1  0  0  0
 13 14  1  0  0  0
 15 14  2  0  0  0
 14  3  1  0  0  0
  4  3  2  0  0  0
  4  8  1  0  0  0
  3  5  1  0  0  0
  1  8  1  0  0  0
  1 20  1  0  0  0
 22 20  2  0  0  0
 22 23  1  0  0  0
  8  7  2  0  0  0
 20 21  1  0  0  0
 23 24  2  0  0  0
  5  6  2  0  0  0
  7  6  1  0  0  0
 24 21  1  0  0  0
 24 25  1  0  0  0
 36 35  1  0  0  0
 27 25  1  0  0  0
 27 29  1  0  0  0
 25 26  2  0  0  0
 35 29  2  0  0  0
 35 34  1  0  0  0
 29 30  1  0  0  0
 34 33  2  0  0  0
 30 31  1  0  0  0
 30 32  2  0  0  0
 33 32  1  0  0  0
 16 19  1  0  0  0
  1  2  1  0  0  0
 27 28  1  0  0  0
M  END
> <minimizedAffinity>
-9.02967

$$$$
5NKC_90T_A_1001


 36 39  0  0  0  0  0  0  0  0999 V2000
  -85.5837  -13.1695    6.5116 N   0  0  0  0  0  0  0  0  0  0  0  0
  -85.2249  -13.4285    5.6322 H   0  0  0  0  0  0  0  0  0  0  0  0
  -82.4404  -11.7985    7.6825 C   0  0  0  0  0  0  0  0  0  0  0  0
  -83.4400  -12.3883    6.9028 C   0  0  0  0  0  0  0  0  0  0  0  0
  -82.7606  -11.4387    8.9919 C   0  0  0  0  0  0  0  0  0  0  0  0
  -84.0317  -11.6702    9.5011 C   0  0  0  0  0  0  0  0  0  0  0  0
  -85.0176  -12.2487    8.7038 C   0  0  0  0  0  0  0  0  0  0  0  0
  -84.7194  -12.6267    7.4006 C   0  0  0  0  0  0  0  0  0  0  0  0
  -79.3835  -14.4415    5.8045 C   0  0  0  0  0  0  0  0  0  0  0  0
  -80.5121  -13.9743    6.7005 C   0  0  0  0  0  0  0  0  0  0  0  0
  -78.2908  -13.4883    6.2084 C   0  0  0  0  0  0  0  0  0  0  0  0
  -79.0237  -12.1648    6.1076 C   0  0  0  0  0  0  0  0  0  0  0  0
  -80.3609  -12.5019    6.6881 N   0  0  0  0  0  0  0  0  0  0  0  0
  -81.1689  -11.5301    7.1266 C   0  0  0  0  0  0  0  0  0  0  0  0
  -80.7891  -10.3575    7.0389 O   0  0  0  0  0  0  0  0  0  0  0  0
  -78.8580  -14.1378    3.5403 O   0  0  0  0  0  0  0  0  0  0  0  0
  -79.7964  -14.2068    4.3623 C   0  0  0  0  0  0  0  0  0  0  0  0
  -81.0214  -14.0930    4.1108 O   0  0  0  0  0  0  0  0  0  0  0  0
  -77.9726  -14.2368    3.8306 H   0  0  0  0  0  0  0  0  0  0  0  0
  -86.8910  -13.3833    6.7319 C   0  0  0  0  0  0  0  0  0  0  0  0
  -87.6746  -14.3514    7.9063 S   0  0  0  0  0  0  0  0  0  0  0  0
  -87.8305  -12.7961    5.9611 N   0  0  0  0  0  0  0  0  0  0  0  0
  -89.1190  -13.1162    6.2875 C   0  0  0  0  0  0  0  0  0  0  0  0
  -89.2460  -13.9576    7.3353 C   0  0  0  0  0  0  0  0  0  0  0  0
  -90.3696  -14.4833    7.9207 C   0  0  0  0  0  0  0  0  0  0  0  0
  -91.4506  -14.2829    7.3712 O   0  0  0  0  0  0  0  0  0  0  0  0
  -90.2741  -15.1584    9.0942 N   0  0  0  0  0  0  0  0  0  0  0  0
  -89.3934  -15.2690    9.5202 H   0  0  0  0  0  0  0  0  0  0  0  0
  -91.3991  -15.6942    9.7015 C   0  0  0  0  0  0  0  0  0  0  0  0
  -91.7932  -17.0037    9.4243 C   0  0  0  0  0  0  0  0  0  0  0  0
  -90.9211  -17.9733    8.2814 Cl  0  0  0  0  0  0  0  0  0  0  0  0
  -92.9110  -17.5421   10.0700 C   0  0  0  0  0  0  0  0  0  0  0  0
  -93.6242  -16.7805   11.0020 C   0  0  0  0  0  0  0  0  0  0  0  0
  -93.2279  -15.4737   11.2958 C   0  0  0  0  0  0  0  0  0  0  0  0
  -92.1097  -14.9439   10.6399 C   0  0  0  0  0  0  0  0  0  0  0  0
  -91.7019  -13.6397   10.9376 C   0  0  0  0  0  0  0  0  0  0  0  0
 18 17  2  0  0  0
 17 16  1  0  0  0
 17  9  1  0  0  0
 12 11  1  0  0  0
 12 13  1  0  0  0
 11  9  1  0  0  0
  9 10  1  0  0  0
 13 10  1  0  0  0
 13 14  1  0  0  0
 15 14  2  0  0  0
 14  3  1  0  0  0
  4  3  2  0  0  0
  4  8  1  0  0  0
  3  5  1  0  0  0
  1  8  1  0  0  0
  1 20  1  0  0  0
 22 20  2  0  0  0
 22 23  1  0  0  0
  8  7  2  0  0  0
 20 21  1  0  0  0
 23 24  2  0  0  0
  5  6  2  0  0  0
  7  6  1  0  0  0
 24 21  1  0  0  0
 24 25  1  0  0  0
 36 35  1  0  0  0
 27 25  1  0  0  0
 27 29  1  0  0  0
 25 26  2  0  0  0
 35 29  2  0  0  0
 35 34  1  0  0  0
 29 30  1  0  0  0
 34 33  2  0  0  0
 30 31  1  0  0  0
 30 32  2  0  0  0
 33 32  1  0  0  0
 16 19  1  0  0  0
  1  2  1  0  0  0
 27 28  1  0  0  0
M  END
> <minimizedAffinity>
-8.89545

$$$$
