1EW8_PAE_A_556


 11 10  0  0  0  0  0  0  0  0999 V2000
   73.6121   41.4649   44.2064 P   0  0  0  0  0  0  0  0  0  0  0  0
   72.2561   41.9179   43.6593 O   0  0  0  0  0  0  0  0  0  0  0  0
   74.5953   41.6219   43.0514 O   0  0  0  0  0  0  0  0  0  0  0  0
   73.9968   42.2644   45.3699 O   0  0  0  0  0  0  0  0  0  0  0  0
   72.2913   42.8648   43.4516 H   0  0  0  0  0  0  0  0  0  0  0  0
   74.6781   42.5609   42.8226 H   0  0  0  0  0  0  0  0  0  0  0  0
   73.5038   39.6720   44.5861 C   0  0  0  0  0  0  0  0  0  0  0  0
   73.9202   39.0010   43.2412 C   0  0  0  0  0  0  0  0  0  0  0  0
   73.1535   39.3232   42.2986 O   0  0  0  0  0  0  0  0  0  0  0  0
   75.0494   38.5410   43.1424 O   0  0  0  0  0  0  0  0  0  0  0  0
   72.3026   39.6688   42.4842 H   0  0  0  0  0  0  0  0  0  0  0  0
  1  2  1  0  0  0
  1  3  1  0  0  0
  1  4  2  0  0  0
  1  7  1  0  0  0
  7  8  1  0  0  0
  8  9  1  0  0  0
  8 10  2  0  0  0
  2  5  1  0  0  0
  3  6  1  0  0  0
  9 11  1  0  0  0
M  END
> <minimizedAffinity>
-5.61581

$$$$
1EW8_PAE_A_556


 11 10  0  0  0  0  0  0  0  0999 V2000
   73.5888   41.7156   42.8423 P   0  0  0  0  0  0  0  0  0  0  0  0
   74.6609   42.2387   41.8831 O   0  0  0  0  0  0  0  0  0  0  0  0
   74.1031   42.0266   44.2438 O   0  0  0  0  0  0  0  0  0  0  0  0
   72.2979   42.3507   42.5757 O   0  0  0  0  0  0  0  0  0  0  0  0
   74.7124   43.2049   41.9516 H   0  0  0  0  0  0  0  0  0  0  0  0
   74.1511   42.9879   44.3646 H   0  0  0  0  0  0  0  0  0  0  0  0
   73.5231   39.8879   42.6823 C   0  0  0  0  0  0  0  0  0  0  0  0
   73.7106   39.3983   44.1512 C   0  0  0  0  0  0  0  0  0  0  0  0
   72.6478   39.4905   44.8159 O   0  0  0  0  0  0  0  0  0  0  0  0
   74.6832   38.7056   44.4169 O   0  0  0  0  0  0  0  0  0  0  0  0
   71.9591   40.0542   44.5227 H   0  0  0  0  0  0  0  0  0  0  0  0
  1  2  1  0  0  0
  1  3  1  0  0  0
  1  4  2  0  0  0
  1  7  1  0  0  0
  7  8  1  0  0  0
  8  9  1  0  0  0
  8 10  2  0  0  0
  2  5  1  0  0  0
  3  6  1  0  0  0
  9 11  1  0  0  0
M  END
> <minimizedAffinity>
-5.45540

$$$$
1EW8_PAE_A_556


 11 10  0  0  0  0  0  0  0  0999 V2000
   73.5343   41.2773   42.9988 P   0  0  0  0  0  0  0  0  0  0  0  0
   72.4815   42.3837   42.8965 O   0  0  0  0  0  0  0  0  0  0  0  0
   73.1091   40.2103   41.9958 O   0  0  0  0  0  0  0  0  0  0  0  0
   74.8697   41.8020   42.7121 O   0  0  0  0  0  0  0  0  0  0  0  0
   72.5278   42.7939   42.0187 H   0  0  0  0  0  0  0  0  0  0  0  0
   73.1605   40.5723   41.0974 H   0  0  0  0  0  0  0  0  0  0  0  0
   73.4138   40.5283   44.6706 C   0  0  0  0  0  0  0  0  0  0  0  0
   73.8091   39.0406   44.4198 C   0  0  0  0  0  0  0  0  0  0  0  0
   74.8104   38.9416   43.6663 O   0  0  0  0  0  0  0  0  0  0  0  0
   73.3761   38.1846   45.1789 O   0  0  0  0  0  0  0  0  0  0  0  0
   75.0589   39.6615   43.1204 H   0  0  0  0  0  0  0  0  0  0  0  0
  1  2  1  0  0  0
  1  3  1  0  0  0
  1  4  2  0  0  0
  1  7  1  0  0  0
  7  8  1  0  0  0
  8  9  1  0  0  0
  8 10  2  0  0  0
  2  5  1  0  0  0
  3  6  1  0  0  0
  9 11  1  0  0  0
M  END
> <minimizedAffinity>
-5.33512

$$$$
1EW8_PAE_A_556


 11 10  0  0  0  0  0  0  0  0999 V2000
   73.5248   41.0932   43.0572 P   0  0  0  0  0  0  0  0  0  0  0  0
   72.3846   42.1142   43.0307 O   0  0  0  0  0  0  0  0  0  0  0  0
   73.1689   40.0510   42.0025 O   0  0  0  0  0  0  0  0  0  0  0  0
   74.8082   41.7397   42.7818 O   0  0  0  0  0  0  0  0  0  0  0  0
   72.3819   42.5737   42.1765 H   0  0  0  0  0  0  0  0  0  0  0  0
   73.1747   40.4641   41.1249 H   0  0  0  0  0  0  0  0  0  0  0  0
   73.4953   40.2476   44.6865 C   0  0  0  0  0  0  0  0  0  0  0  0
   73.2819   41.4224   45.6898 C   0  0  0  0  0  0  0  0  0  0  0  0
   74.2457   42.2293   45.6796 O   0  0  0  0  0  0  0  0  0  0  0  0
   72.1527   41.6353   46.1091 O   0  0  0  0  0  0  0  0  0  0  0  0
   75.0750   41.9642   45.3333 H   0  0  0  0  0  0  0  0  0  0  0  0
  1  2  1  0  0  0
  1  3  1  0  0  0
  1  4  2  0  0  0
  1  7  1  0  0  0
  7  8  1  0  0  0
  8  9  1  0  0  0
  8 10  2  0  0  0
  2  5  1  0  0  0
  3  6  1  0  0  0
  9 11  1  0  0  0
M  END
> <minimizedAffinity>
-5.17738

$$$$
1EW8_PAE_A_556


 11 10  0  0  0  0  0  0  0  0999 V2000
   73.1907   40.8187   45.4428 P   0  0  0  0  0  0  0  0  0  0  0  0
   74.5493   40.8914   46.1442 O   0  0  0  0  0  0  0  0  0  0  0  0
   72.6874   39.3968   45.6665 O   0  0  0  0  0  0  0  0  0  0  0  0
   72.2716   41.8200   45.9845 O   0  0  0  0  0  0  0  0  0  0  0  0
   74.4253   40.7883   47.1007 H   0  0  0  0  0  0  0  0  0  0  0  0
   72.5290   39.2550   46.6129 H   0  0  0  0  0  0  0  0  0  0  0  0
   73.4688   41.0178   43.6391 C   0  0  0  0  0  0  0  0  0  0  0  0
   73.7504   39.5597   43.1626 C   0  0  0  0  0  0  0  0  0  0  0  0
   73.0963   39.2689   42.1293 O   0  0  0  0  0  0  0  0  0  0  0  0
   74.7479   38.9897   43.5828 O   0  0  0  0  0  0  0  0  0  0  0  0
   72.3421   39.7730   41.8950 H   0  0  0  0  0  0  0  0  0  0  0  0
  1  2  1  0  0  0
  1  3  1  0  0  0
  1  4  2  0  0  0
  1  7  1  0  0  0
  7  8  1  0  0  0
  8  9  1  0  0  0
  8 10  2  0  0  0
  2  5  1  0  0  0
  3  6  1  0  0  0
  9 11  1  0  0  0
M  END
> <minimizedAffinity>
-4.61738

$$$$
1EW8_PAE_A_556


 11 10  0  0  0  0  0  0  0  0999 V2000
   73.0716   41.0222   45.4776 P   0  0  0  0  0  0  0  0  0  0  0  0
   72.0111   41.6624   44.5783 O   0  0  0  0  0  0  0  0  0  0  0  0
   74.2035   42.0401   45.5682 O   0  0  0  0  0  0  0  0  0  0  0  0
   72.5137   40.7003   46.7914 O   0  0  0  0  0  0  0  0  0  0  0  0
   71.6451   42.4460   45.0174 H   0  0  0  0  0  0  0  0  0  0  0  0
   73.8864   42.8367   46.0218 H   0  0  0  0  0  0  0  0  0  0  0  0
   73.7377   39.5465   44.6123 C   0  0  0  0  0  0  0  0  0  0  0  0
   73.6924   39.9674   43.1112 C   0  0  0  0  0  0  0  0  0  0  0  0
   74.3253   41.0334   42.9033 O   0  0  0  0  0  0  0  0  0  0  0  0
   73.3751   39.1296   42.2784 O   0  0  0  0  0  0  0  0  0  0  0  0
   74.5184   41.6102   43.6161 H   0  0  0  0  0  0  0  0  0  0  0  0
  1  2  1  0  0  0
  1  3  1  0  0  0
  1  4  2  0  0  0
  1  7  1  0  0  0
  7  8  1  0  0  0
  8  9  1  0  0  0
  8 10  2  0  0  0
  2  5  1  0  0  0
  3  6  1  0  0  0
  9 11  1  0  0  0
M  END
> <minimizedAffinity>
-4.45694

$$$$
1EW8_PAE_A_556


 11 10  0  0  0  0  0  0  0  0999 V2000
   73.9158   39.2602   44.9922 P   0  0  0  0  0  0  0  0  0  0  0  0
   74.9722   39.4282   46.0872 O   0  0  0  0  0  0  0  0  0  0  0  0
   74.6586   38.6939   43.7868 O   0  0  0  0  0  0  0  0  0  0  0  0
   72.8385   38.3772   45.4400 O   0  0  0  0  0  0  0  0  0  0  0  0
   75.3056   38.5564   46.3512 H   0  0  0  0  0  0  0  0  0  0  0  0
   74.9934   37.8088   44.0000 H   0  0  0  0  0  0  0  0  0  0  0  0
   73.3117   40.9287   44.5217 C   0  0  0  0  0  0  0  0  0  0  0  0
   73.8105   41.0829   43.0520 C   0  0  0  0  0  0  0  0  0  0  0  0
   72.9270   40.7559   42.2198 O   0  0  0  0  0  0  0  0  0  0  0  0
   74.7982   41.7725   42.8391 O   0  0  0  0  0  0  0  0  0  0  0  0
   72.2061   40.2207   42.4877 H   0  0  0  0  0  0  0  0  0  0  0  0
  1  2  1  0  0  0
  1  3  1  0  0  0
  1  4  2  0  0  0
  1  7  1  0  0  0
  7  8  1  0  0  0
  8  9  1  0  0  0
  8 10  2  0  0  0
  2  5  1  0  0  0
  3  6  1  0  0  0
  9 11  1  0  0  0
M  END
> <minimizedAffinity>
-4.42143

$$$$
1EW8_PAE_A_556


 11 10  0  0  0  0  0  0  0  0999 V2000
   74.0012   38.8232   45.2587 P   0  0  0  0  0  0  0  0  0  0  0  0
   73.4507   37.4598   45.6842 O   0  0  0  0  0  0  0  0  0  0  0  0
   75.1007   39.1546   46.2620 O   0  0  0  0  0  0  0  0  0  0  0  0
   74.5045   38.7753   43.8856 O   0  0  0  0  0  0  0  0  0  0  0  0
   74.1387   36.7848   45.5748 H   0  0  0  0  0  0  0  0  0  0  0  0
   75.8233   38.5136   46.1732 H   0  0  0  0  0  0  0  0  0  0  0  0
   72.6716   40.0695   45.4804 C   0  0  0  0  0  0  0  0  0  0  0  0
   73.2202   41.3109   44.7119 C   0  0  0  0  0  0  0  0  0  0  0  0
   72.4109   41.7192   43.8411 O   0  0  0  0  0  0  0  0  0  0  0  0
   74.1464   41.9406   45.2038 O   0  0  0  0  0  0  0  0  0  0  0  0
   71.7327   41.1527   43.5295 H   0  0  0  0  0  0  0  0  0  0  0  0
  1  2  1  0  0  0
  1  3  1  0  0  0
  1  4  2  0  0  0
  1  7  1  0  0  0
  7  8  1  0  0  0
  8  9  1  0  0  0
  8 10  2  0  0  0
  2  5  1  0  0  0
  3  6  1  0  0  0
  9 11  1  0  0  0
M  END
> <minimizedAffinity>
-4.10704

$$$$
1EW8_PAE_A_556


 11 10  0  0  0  0  0  0  0  0999 V2000
   73.4277   40.9942   45.5033 P   0  0  0  0  0  0  0  0  0  0  0  0
   73.9342   42.0586   44.5268 O   0  0  0  0  0  0  0  0  0  0  0  0
   71.9767   40.7345   45.1130 O   0  0  0  0  0  0  0  0  0  0  0  0
   74.2451   39.7832   45.4225 O   0  0  0  0  0  0  0  0  0  0  0  0
   73.9498   41.6922   43.6287 H   0  0  0  0  0  0  0  0  0  0  0  0
   71.9453   40.3462   44.2247 H   0  0  0  0  0  0  0  0  0  0  0  0
   73.4135   41.7256   47.1871 C   0  0  0  0  0  0  0  0  0  0  0  0
   74.6140   42.7204   47.1496 C   0  0  0  0  0  0  0  0  0  0  0  0
   75.7023   42.1344   46.9207 O   0  0  0  0  0  0  0  0  0  0  0  0
   74.3808   43.9131   47.0102 O   0  0  0  0  0  0  0  0  0  0  0  0
   75.7757   41.2110   47.0613 H   0  0  0  0  0  0  0  0  0  0  0  0
  1  2  1  0  0  0
  1  3  1  0  0  0
  1  4  2  0  0  0
  1  7  1  0  0  0
  7  8  1  0  0  0
  8  9  1  0  0  0
  8 10  2  0  0  0
  2  5  1  0  0  0
  3  6  1  0  0  0
  9 11  1  0  0  0
M  END
> <minimizedAffinity>
-4.05802

$$$$
1EW8_PAE_A_556


 11 10  0  0  0  0  0  0  0  0999 V2000
   73.9911   38.9677   45.2994 P   0  0  0  0  0  0  0  0  0  0  0  0
   74.4853   39.0256   43.8518 O   0  0  0  0  0  0  0  0  0  0  0  0
   73.3063   37.6132   45.4468 O   0  0  0  0  0  0  0  0  0  0  0  0
   75.1042   39.1271   46.2356 O   0  0  0  0  0  0  0  0  0  0  0  0
   75.1704   38.3522   43.7168 H   0  0  0  0  0  0  0  0  0  0  0  0
   73.9617   36.9062   45.3395 H   0  0  0  0  0  0  0  0  0  0  0  0
   72.6991   40.2544   45.5128 C   0  0  0  0  0  0  0  0  0  0  0  0
   73.3461   41.5152   44.8615 C   0  0  0  0  0  0  0  0  0  0  0  0
   74.2638   41.9935   45.5751 O   0  0  0  0  0  0  0  0  0  0  0  0
   73.1677   41.7132   43.6677 O   0  0  0  0  0  0  0  0  0  0  0  0
   74.3105   41.7768   46.4855 H   0  0  0  0  0  0  0  0  0  0  0  0
  1  2  1  0  0  0
  1  3  1  0  0  0
  1  4  2  0  0  0
  1  7  1  0  0  0
  7  8  1  0  0  0
  8  9  1  0  0  0
  8 10  2  0  0  0
  2  5  1  0  0  0
  3  6  1  0  0  0
  9 11  1  0  0  0
M  END
> <minimizedAffinity>
-3.97979

$$$$
