4ABA_SW1_A_1256


 14 15  0  0  0  0  0  0  0  0999 V2000
   -0.3398  -11.1372   14.6640 S   0  0  0  0  0  0  0  0  0  0  0  0
    0.6643  -11.5775   12.3457 C   0  0  0  0  0  0  0  0  0  0  0  0
    1.0913  -12.5524   13.2284 N   0  0  0  0  0  0  0  0  0  0  0  0
   -0.1241  -10.7131   13.0437 C   0  0  0  0  0  0  0  0  0  0  0  0
    0.6501  -12.4890   14.4430 C   0  0  0  0  0  0  0  0  0  0  0  0
    2.0226  -13.1752   16.8823 S   0  0  0  0  0  0  0  0  0  0  0  0
    1.0335  -13.4728   15.4715 C   0  0  0  0  0  0  0  0  0  0  0  0
    0.6973  -14.8043   15.4493 C   0  0  0  0  0  0  0  0  0  0  0  0
    1.2572  -15.5453   16.5423 C   0  0  0  0  0  0  0  0  0  0  0  0
    2.0030  -14.8093   17.4013 C   0  0  0  0  0  0  0  0  0  0  0  0
    1.0755  -11.3290   10.8946 C   0  0  0  0  0  0  0  0  0  0  0  0
    1.8146  -12.5613   10.4290 N   0  0  0  0  0  0  0  0  0  0  0  0
    1.2056  -13.3751   10.5132 H   0  0  0  0  0  0  0  0  0  0  0  0
    2.6454  -12.6973   11.0050 H   0  0  0  0  0  0  0  0  0  0  0  0
 11 12  1  0  0  0
 11  2  1  0  0  0
  1  4  1  0  0  0
  1  5  1  0  0  0
  2  3  1  0  0  0
  2  4  2  0  0  0
  3  5  2  0  0  0
  6  7  1  0  0  0
  6 10  1  0  0  0
  5  7  1  0  0  0
  7  8  2  0  0  0
  8  9  1  0  0  0
  9 10  2  0  0  0
 12 13  1  0  0  0
 12 14  1  0  0  0
M  END
> <minimizedAffinity>
-5.39900

$$$$
4ABA_SW1_A_1256


 14 15  0  0  0  0  0  0  0  0999 V2000
    1.1106  -14.5324   14.6830 S   0  0  0  0  0  0  0  0  0  0  0  0
    1.6171  -15.0411   17.1450 C   0  0  0  0  0  0  0  0  0  0  0  0
    2.1463  -13.8090   16.8081 N   0  0  0  0  0  0  0  0  0  0  0  0
    1.0337  -15.5537   16.0257 C   0  0  0  0  0  0  0  0  0  0  0  0
    1.9538  -13.3897   15.5993 C   0  0  0  0  0  0  0  0  0  0  0  0
    1.7367  -11.0571   13.9211 S   0  0  0  0  0  0  0  0  0  0  0  0
    2.4682  -12.0922   15.1255 C   0  0  0  0  0  0  0  0  0  0  0  0
    3.6435  -11.5144   15.5394 C   0  0  0  0  0  0  0  0  0  0  0  0
    3.9322  -10.2806   14.8674 C   0  0  0  0  0  0  0  0  0  0  0  0
    3.0013   -9.8997   13.9596 C   0  0  0  0  0  0  0  0  0  0  0  0
    1.7535  -15.8388   18.4418 C   0  0  0  0  0  0  0  0  0  0  0  0
    2.9437  -15.2758   19.1821 N   0  0  0  0  0  0  0  0  0  0  0  0
    2.7923  -14.2838   19.3649 H   0  0  0  0  0  0  0  0  0  0  0  0
    3.7833  -15.3926   18.6147 H   0  0  0  0  0  0  0  0  0  0  0  0
 11 12  1  0  0  0
 11  2  1  0  0  0
  1  4  1  0  0  0
  1  5  1  0  0  0
  2  3  1  0  0  0
  2  4  2  0  0  0
  3  5  2  0  0  0
  6  7  1  0  0  0
  6 10  1  0  0  0
  5  7  1  0  0  0
  7  8  2  0  0  0
  8  9  1  0  0  0
  9 10  2  0  0  0
 12 13  1  0  0  0
 12 14  1  0  0  0
M  END
> <minimizedAffinity>
-5.31938

$$$$
4ABA_SW1_A_1256


 14 15  0  0  0  0  0  0  0  0999 V2000
    2.4560  -14.0237   17.0588 S   0  0  0  0  0  0  0  0  0  0  0  0
    0.6598  -15.6263   16.1745 C   0  0  0  0  0  0  0  0  0  0  0  0
    0.7974  -14.5596   15.3057 N   0  0  0  0  0  0  0  0  0  0  0  0
    1.5216  -15.4223   17.2097 C   0  0  0  0  0  0  0  0  0  0  0  0
    1.6887  -13.6676   15.5958 C   0  0  0  0  0  0  0  0  0  0  0  0
    2.6830  -10.9877   15.2293 S   0  0  0  0  0  0  0  0  0  0  0  0
    1.9273  -12.4882   14.7446 C   0  0  0  0  0  0  0  0  0  0  0  0
    1.5455  -12.3778   13.4299 C   0  0  0  0  0  0  0  0  0  0  0  0
    1.8466  -11.0959   12.8612 C   0  0  0  0  0  0  0  0  0  0  0  0
    2.4569  -10.2312   13.7071 C   0  0  0  0  0  0  0  0  0  0  0  0
   -0.3518  -16.7722   16.1584 C   0  0  0  0  0  0  0  0  0  0  0  0
   -0.4230  -17.3167   17.5655 N   0  0  0  0  0  0  0  0  0  0  0  0
   -0.7069  -16.5735   18.2037 H   0  0  0  0  0  0  0  0  0  0  0  0
    0.4938  -17.6692   17.8404 H   0  0  0  0  0  0  0  0  0  0  0  0
 11 12  1  0  0  0
 11  2  1  0  0  0
  1  4  1  0  0  0
  1  5  1  0  0  0
  2  3  1  0  0  0
  2  4  2  0  0  0
  3  5  2  0  0  0
  6  7  1  0  0  0
  6 10  1  0  0  0
  5  7  1  0  0  0
  7  8  2  0  0  0
  8  9  1  0  0  0
  9 10  2  0  0  0
 12 13  1  0  0  0
 12 14  1  0  0  0
M  END
> <minimizedAffinity>
-4.82197

$$$$
4ABA_SW1_A_1256


 14 15  0  0  0  0  0  0  0  0999 V2000
    0.8872  -13.2633   14.9948 S   0  0  0  0  0  0  0  0  0  0  0  0
    1.5268  -14.5159   17.1392 C   0  0  0  0  0  0  0  0  0  0  0  0
    1.6747  -13.1553   17.3357 N   0  0  0  0  0  0  0  0  0  0  0  0
    1.1139  -14.6993   15.8539 C   0  0  0  0  0  0  0  0  0  0  0  0
    1.3652  -12.3753   16.3508 C   0  0  0  0  0  0  0  0  0  0  0  0
    2.7441  -10.0096   17.2493 S   0  0  0  0  0  0  0  0  0  0  0  0
    1.4796  -10.9086   16.4430 C   0  0  0  0  0  0  0  0  0  0  0  0
    0.5682  -10.0159   15.9341 C   0  0  0  0  0  0  0  0  0  0  0  0
    0.8956   -8.6497   16.2232 C   0  0  0  0  0  0  0  0  0  0  0  0
    2.0385   -8.4796   16.9309 C   0  0  0  0  0  0  0  0  0  0  0  0
    1.8927  -15.6791   18.0609 C   0  0  0  0  0  0  0  0  0  0  0  0
    3.0154  -15.1999   18.9505 N   0  0  0  0  0  0  0  0  0  0  0  0
    2.7058  -14.3843   19.4791 H   0  0  0  0  0  0  0  0  0  0  0  0
    3.8200  -14.9477   18.3766 H   0  0  0  0  0  0  0  0  0  0  0  0
 11 12  1  0  0  0
 11  2  1  0  0  0
  1  4  1  0  0  0
  1  5  1  0  0  0
  2  3  1  0  0  0
  2  4  2  0  0  0
  3  5  2  0  0  0
  6  7  1  0  0  0
  6 10  1  0  0  0
  5  7  1  0  0  0
  7  8  2  0  0  0
  8  9  1  0  0  0
  9 10  2  0  0  0
 12 13  1  0  0  0
 12 14  1  0  0  0
M  END
> <minimizedAffinity>
-4.72843

$$$$
4ABA_SW1_A_1256


 14 15  0  0  0  0  0  0  0  0999 V2000
    1.8554  -10.8770   14.3511 S   0  0  0  0  0  0  0  0  0  0  0  0
   -0.6244  -10.5697   13.7740 C   0  0  0  0  0  0  0  0  0  0  0  0
   -0.4473  -11.7731   14.4316 N   0  0  0  0  0  0  0  0  0  0  0  0
    0.6020   -9.9899   13.6484 C   0  0  0  0  0  0  0  0  0  0  0  0
    0.7517  -12.0687   14.8178 C   0  0  0  0  0  0  0  0  0  0  0  0
    2.0577  -13.4912   16.9568 S   0  0  0  0  0  0  0  0  0  0  0  0
    1.0624  -13.3216   15.5293 C   0  0  0  0  0  0  0  0  0  0  0  0
    0.6405  -14.5702   15.1426 C   0  0  0  0  0  0  0  0  0  0  0  0
    1.1425  -15.6197   15.9816 C   0  0  0  0  0  0  0  0  0  0  0  0
    1.9278  -15.2004   17.0030 C   0  0  0  0  0  0  0  0  0  0  0  0
   -1.8799   -9.9910   13.1219 C   0  0  0  0  0  0  0  0  0  0  0  0
   -3.0327  -10.8837   13.5166 N   0  0  0  0  0  0  0  0  0  0  0  0
   -3.1130  -10.9056   14.5332 H   0  0  0  0  0  0  0  0  0  0  0  0
   -2.8664  -11.8278   13.1682 H   0  0  0  0  0  0  0  0  0  0  0  0
 11 12  1  0  0  0
 11  2  1  0  0  0
  1  4  1  0  0  0
  1  5  1  0  0  0
  2  3  1  0  0  0
  2  4  2  0  0  0
  3  5  2  0  0  0
  6  7  1  0  0  0
  6 10  1  0  0  0
  5  7  1  0  0  0
  7  8  2  0  0  0
  8  9  1  0  0  0
  9 10  2  0  0  0
 12 13  1  0  0  0
 12 14  1  0  0  0
M  END
> <minimizedAffinity>
-4.65834

$$$$
4ABA_SW1_A_1256


 14 15  0  0  0  0  0  0  0  0999 V2000
    1.6094  -11.6435   16.6743 S   0  0  0  0  0  0  0  0  0  0  0  0
    1.4980  -14.1345   16.0749 C   0  0  0  0  0  0  0  0  0  0  0  0
    0.6546  -13.4198   15.2444 N   0  0  0  0  0  0  0  0  0  0  0  0
    2.0693  -13.2471   16.9364 C   0  0  0  0  0  0  0  0  0  0  0  0
    0.6141  -12.1360   15.4004 C   0  0  0  0  0  0  0  0  0  0  0  0
   -0.1057  -11.0013   12.8511 S   0  0  0  0  0  0  0  0  0  0  0  0
   -0.2450  -11.2698   14.5732 C   0  0  0  0  0  0  0  0  0  0  0  0
   -1.2761  -10.4987   15.0514 C   0  0  0  0  0  0  0  0  0  0  0  0
   -1.9038   -9.7042   14.0355 C   0  0  0  0  0  0  0  0  0  0  0  0
   -1.3829   -9.8586   12.7943 C   0  0  0  0  0  0  0  0  0  0  0  0
    1.6932  -15.6454   16.1990 C   0  0  0  0  0  0  0  0  0  0  0  0
    1.7907  -15.9573   17.6737 N   0  0  0  0  0  0  0  0  0  0  0  0
    0.9397  -15.6482   18.1435 H   0  0  0  0  0  0  0  0  0  0  0  0
    2.5944  -15.4713   18.0716 H   0  0  0  0  0  0  0  0  0  0  0  0
 11 12  1  0  0  0
 11  2  1  0  0  0
  1  4  1  0  0  0
  1  5  1  0  0  0
  2  3  1  0  0  0
  2  4  2  0  0  0
  3  5  2  0  0  0
  6  7  1  0  0  0
  6 10  1  0  0  0
  5  7  1  0  0  0
  7  8  2  0  0  0
  8  9  1  0  0  0
  9 10  2  0  0  0
 12 13  1  0  0  0
 12 14  1  0  0  0
M  END
> <minimizedAffinity>
-4.63999

$$$$
4ABA_SW1_A_1256


 14 15  0  0  0  0  0  0  0  0999 V2000
    1.6099  -13.7095   14.5394 S   0  0  0  0  0  0  0  0  0  0  0  0
    1.1674  -15.1240   16.6323 C   0  0  0  0  0  0  0  0  0  0  0  0
    1.5527  -13.8500   17.0070 N   0  0  0  0  0  0  0  0  0  0  0  0
    1.1876  -15.1718   15.2709 C   0  0  0  0  0  0  0  0  0  0  0  0
    1.7893  -12.9984   16.0620 C   0  0  0  0  0  0  0  0  0  0  0  0
    3.0541  -10.5398   15.2496 S   0  0  0  0  0  0  0  0  0  0  0  0
    2.2043  -11.6114   16.3388 C   0  0  0  0  0  0  0  0  0  0  0  0
    2.0169  -10.9586   17.5327 C   0  0  0  0  0  0  0  0  0  0  0  0
    2.5760   -9.6379   17.5467 C   0  0  0  0  0  0  0  0  0  0  0  0
    3.1755   -9.2652   16.3902 C   0  0  0  0  0  0  0  0  0  0  0  0
    0.9142  -16.3593   17.4963 C   0  0  0  0  0  0  0  0  0  0  0  0
   -0.4165  -16.9312   17.0680 N   0  0  0  0  0  0  0  0  0  0  0  0
   -0.3819  -17.1667   16.0762 H   0  0  0  0  0  0  0  0  0  0  0  0
   -1.1505  -16.2412   17.2282 H   0  0  0  0  0  0  0  0  0  0  0  0
 11 12  1  0  0  0
 11  2  1  0  0  0
  1  4  1  0  0  0
  1  5  1  0  0  0
  2  3  1  0  0  0
  2  4  2  0  0  0
  3  5  2  0  0  0
  6  7  1  0  0  0
  6 10  1  0  0  0
  5  7  1  0  0  0
  7  8  2  0  0  0
  8  9  1  0  0  0
  9 10  2  0  0  0
 12 13  1  0  0  0
 12 14  1  0  0  0
M  END
> <minimizedAffinity>
-4.59863

$$$$
4ABA_SW1_A_1256


 14 15  0  0  0  0  0  0  0  0999 V2000
    0.8577  -12.4043   14.1968 S   0  0  0  0  0  0  0  0  0  0  0  0
    1.5798  -14.1738   15.9069 C   0  0  0  0  0  0  0  0  0  0  0  0
    2.5215  -13.1624   15.8608 N   0  0  0  0  0  0  0  0  0  0  0  0
    0.6116  -13.8706   14.9976 C   0  0  0  0  0  0  0  0  0  0  0  0
    2.2916  -12.1720   15.0606 C   0  0  0  0  0  0  0  0  0  0  0  0
    2.9395   -9.5557   14.0409 S   0  0  0  0  0  0  0  0  0  0  0  0
    3.2213  -11.0360   14.9276 C   0  0  0  0  0  0  0  0  0  0  0  0
    4.4877  -10.9910   15.4575 C   0  0  0  0  0  0  0  0  0  0  0  0
    5.1974   -9.7910   15.1203 C   0  0  0  0  0  0  0  0  0  0  0  0
    4.4995   -8.9172   14.3554 C   0  0  0  0  0  0  0  0  0  0  0  0
    1.6099  -15.4996   16.6669 C   0  0  0  0  0  0  0  0  0  0  0  0
    0.2388  -16.1179   16.5287 N   0  0  0  0  0  0  0  0  0  0  0  0
    0.0259  -16.2556   15.5407 H   0  0  0  0  0  0  0  0  0  0  0  0
   -0.4571  -15.4979   16.9433 H   0  0  0  0  0  0  0  0  0  0  0  0
 11 12  1  0  0  0
 11  2  1  0  0  0
  1  4  1  0  0  0
  1  5  1  0  0  0
  2  3  1  0  0  0
  2  4  2  0  0  0
  3  5  2  0  0  0
  6  7  1  0  0  0
  6 10  1  0  0  0
  5  7  1  0  0  0
  7  8  2  0  0  0
  8  9  1  0  0  0
  9 10  2  0  0  0
 12 13  1  0  0  0
 12 14  1  0  0  0
M  END
> <minimizedAffinity>
-4.54775

$$$$
4ABA_SW1_A_1256


 14 15  0  0  0  0  0  0  0  0999 V2000
    1.5873  -10.5901   14.6875 S   0  0  0  0  0  0  0  0  0  0  0  0
    0.0630   -9.6034   16.4985 C   0  0  0  0  0  0  0  0  0  0  0  0
    0.1699  -10.9704   16.6770 N   0  0  0  0  0  0  0  0  0  0  0  0
    0.7954   -9.2780   15.3968 C   0  0  0  0  0  0  0  0  0  0  0  0
    0.9302  -11.6195   15.8556 C   0  0  0  0  0  0  0  0  0  0  0  0
    2.0354  -13.9337   17.1700 S   0  0  0  0  0  0  0  0  0  0  0  0
    1.1236  -13.0778   15.9481 C   0  0  0  0  0  0  0  0  0  0  0  0
    0.6403  -13.9933   15.0454 C   0  0  0  0  0  0  0  0  0  0  0  0
    1.0315  -15.3404   15.3446 C   0  0  0  0  0  0  0  0  0  0  0  0
    1.7921  -15.4745   16.4578 C   0  0  0  0  0  0  0  0  0  0  0  0
   -0.8159   -8.5906   17.2321 C   0  0  0  0  0  0  0  0  0  0  0  0
   -1.9094   -9.3731   17.9201 N   0  0  0  0  0  0  0  0  0  0  0  0
   -1.4927  -10.0454   18.5641 H   0  0  0  0  0  0  0  0  0  0  0  0
   -2.4633   -9.8693   17.2220 H   0  0  0  0  0  0  0  0  0  0  0  0
 11 12  1  0  0  0
 11  2  1  0  0  0
  1  4  1  0  0  0
  1  5  1  0  0  0
  2  3  1  0  0  0
  2  4  2  0  0  0
  3  5  2  0  0  0
  6  7  1  0  0  0
  6 10  1  0  0  0
  5  7  1  0  0  0
  7  8  2  0  0  0
  8  9  1  0  0  0
  9 10  2  0  0  0
 12 13  1  0  0  0
 12 14  1  0  0  0
M  END
> <minimizedAffinity>
-4.47854

$$$$
4ABA_SW1_A_1256


 14 15  0  0  0  0  0  0  0  0999 V2000
    2.4418  -10.9217   17.3176 S   0  0  0  0  0  0  0  0  0  0  0  0
    4.4811  -10.7740   15.7696 C   0  0  0  0  0  0  0  0  0  0  0  0
    3.7959  -11.9494   15.5226 N   0  0  0  0  0  0  0  0  0  0  0  0
    3.8291  -10.1262   16.7753 C   0  0  0  0  0  0  0  0  0  0  0  0
    2.7194  -12.1651   16.2072 C   0  0  0  0  0  0  0  0  0  0  0  0
    1.9278  -14.8079   17.0399 S   0  0  0  0  0  0  0  0  0  0  0  0
    1.9050  -13.3808   16.0300 C   0  0  0  0  0  0  0  0  0  0  0  0
    1.0209  -13.5911   15.0001 C   0  0  0  0  0  0  0  0  0  0  0  0
    0.4102  -14.8884   15.0376 C   0  0  0  0  0  0  0  0  0  0  0  0
    0.7999  -15.6671   16.0756 C   0  0  0  0  0  0  0  0  0  0  0  0
    5.8138  -10.2853   15.2027 C   0  0  0  0  0  0  0  0  0  0  0  0
    6.2184   -9.0745   16.0101 N   0  0  0  0  0  0  0  0  0  0  0  0
    6.3002   -9.3333   16.9933 H   0  0  0  0  0  0  0  0  0  0  0  0
    5.5117   -8.3461   15.9079 H   0  0  0  0  0  0  0  0  0  0  0  0
 11 12  1  0  0  0
 11  2  1  0  0  0
  1  4  1  0  0  0
  1  5  1  0  0  0
  2  3  1  0  0  0
  2  4  2  0  0  0
  3  5  2  0  0  0
  6  7  1  0  0  0
  6 10  1  0  0  0
  5  7  1  0  0  0
  7  8  2  0  0  0
  8  9  1  0  0  0
  9 10  2  0  0  0
 12 13  1  0  0  0
 12 14  1  0  0  0
M  END
> <minimizedAffinity>
-4.37193

$$$$
