5VCZ_XZN_A_401


 37 40  0  0  0  0  0  0  0  0999 V2000
    9.6168   -2.0906   -1.1393 C   0  0  0  0  0  0  0  0  0  0  0  0
    8.5962   -5.5471   -0.9288 C   0  0  0  0  0  0  0  0  0  0  0  0
    6.5031   -4.5374   -2.5182 C   0  0  0  0  0  0  0  0  0  0  0  0
    9.6029   -3.3930   -0.8570 N   0  0  0  0  0  0  0  0  0  0  0  0
    8.5987   -1.5132   -1.8958 C   0  0  0  0  0  0  0  0  0  0  0  0
    6.5237   -5.8721   -2.1534 C   0  0  0  0  0  0  0  0  0  0  0  0
    7.5370   -6.3519   -1.3630 C   0  0  0  0  0  0  0  0  0  0  0  0
    7.5548   -2.2971   -2.4313 C   0  0  0  0  0  0  0  0  0  0  0  0
    8.5888   -4.1934   -1.2831 C   0  0  0  0  0  0  0  0  0  0  0  0
    7.5472   -3.6665   -2.1009 C   0  0  0  0  0  0  0  0  0  0  0  0
    4.2874   -6.2250   -2.9084 C   0  0  0  0  0  0  0  0  0  0  0  0
    5.5447   -6.7601   -2.4740 O   0  0  0  0  0  0  0  0  0  0  0  0
    8.5864    0.9149   -2.1918 N   0  0  0  0  0  0  0  0  0  0  0  0
    8.6099   -0.2151   -2.0195 C   0  0  0  0  0  0  0  0  0  0  0  0
    6.6065   -1.7353   -3.2724 N   0  0  0  0  0  0  0  0  0  0  0  0
    6.8566   -1.5476   -4.2059 H   0  0  0  0  0  0  0  0  0  0  0  0
    1.6968   -3.0573   -3.3137 Cl  0  0  0  0  0  0  0  0  0  0  0  0
    3.3909    1.1097   -0.4144 Cl  0  0  0  0  0  0  0  0  0  0  0  0
    2.6720   -1.0295   -1.8857 C   0  0  0  0  0  0  0  0  0  0  0  0
    2.9498   -2.0526   -2.7696 C   0  0  0  0  0  0  0  0  0  0  0  0
    4.9881   -0.3853   -1.9449 C   0  0  0  0  0  0  0  0  0  0  0  0
    5.3083   -1.4236   -2.8505 C   0  0  0  0  0  0  0  0  0  0  0  0
    4.2431   -2.2376   -3.2413 C   0  0  0  0  0  0  0  0  0  0  0  0
    3.6982   -0.1944   -1.4660 C   0  0  0  0  0  0  0  0  0  0  0  0
    1.4097   -0.8252   -1.4371 O   0  0  0  0  0  0  0  0  0  0  0  0
    0.7099    0.1955   -2.2049 C   0  0  0  0  0  0  0  0  0  0  0  0
    7.4257   -7.6472   -1.0331 O   0  0  0  0  0  0  0  0  0  0  0  0
    7.6054   -8.0190    0.3321 C   0  0  0  0  0  0  0  0  0  0  0  0
    6.2072   -7.9683    0.9776 C   0  0  0  0  0  0  0  0  0  0  0  0
    5.2828   -9.0508    0.3980 C   0  0  0  0  0  0  0  0  0  0  0  0
    0.0194   -7.6787   -1.3781 C   0  0  0  0  0  0  0  0  0  0  0  0
    3.4204   -7.2520    0.3361 C   0  0  0  0  0  0  0  0  0  0  0  0
    3.3908   -9.2089   -1.0123 C   0  0  0  0  0  0  0  0  0  0  0  0
    1.8781   -7.1775    0.2044 C   0  0  0  0  0  0  0  0  0  0  0  0
    1.8736   -9.2102   -1.0511 C   0  0  0  0  0  0  0  0  0  0  0  0
    3.8256   -8.6852    0.3048 N   0  0  0  0  0  0  0  0  0  0  0  0
    1.4770   -7.8043   -1.0843 N   0  0  0  0  0  0  0  0  0  0  0  0
 11 12  1  0  0  0
 25 19  1  0  0  0
 25 26  1  0  0  0
 30 29  1  0  0  0
 30 36  1  0  0  0
 13 14  3  0  0  0
 17 20  1  0  0  0
 18 24  1  0  0  0
 14  5  1  0  0  0
  1  4  2  0  0  0
  1  5  1  0  0  0
  2  7  2  0  0  0
  2  9  1  0  0  0
  3  6  2  0  0  0
  3 10  1  0  0  0
 29 28  1  0  0  0
 28 27  1  0  0  0
 31 37  1  0  0  0
 33 35  1  0  0  0
 33 36  1  0  0  0
 32 34  1  0  0  0
 32 36  1  0  0  0
 35 37  1  0  0  0
 34 37  1  0  0  0
  4  9  1  0  0  0
 15 22  1  0  0  0
 15  8  1  0  0  0
 12  6  1  0  0  0
 27  7  1  0  0  0
 19 20  1  0  0  0
 19 24  2  0  0  0
 20 23  2  0  0  0
 21 22  2  0  0  0
 21 24  1  0  0  0
  5  8  2  0  0  0
 22 23  1  0  0  0
  6  7  1  0  0  0
  8 10  1  0  0  0
  9 10  2  0  0  0
 15 16  1  0  0  0
M  END
> <minimizedAffinity>
-9.12111

$$$$
5VCZ_XZN_A_401


 37 40  0  0  0  0  0  0  0  0999 V2000
    9.2904   -4.5778   -1.0458 C   0  0  0  0  0  0  0  0  0  0  0  0
    6.6275   -6.9986   -1.3326 C   0  0  0  0  0  0  0  0  0  0  0  0
    5.5467   -4.9263   -2.9024 C   0  0  0  0  0  0  0  0  0  0  0  0
    8.5790   -5.6989   -0.9311 N   0  0  0  0  0  0  0  0  0  0  0  0
    8.8069   -3.4979   -1.7821 C   0  0  0  0  0  0  0  0  0  0  0  0
    4.8386   -6.0993   -2.7079 C   0  0  0  0  0  0  0  0  0  0  0  0
    5.3640   -7.0964   -1.9261 C   0  0  0  0  0  0  0  0  0  0  0  0
    7.5790   -3.5781   -2.4724 C   0  0  0  0  0  0  0  0  0  0  0  0
    7.3553   -5.8173   -1.5134 C   0  0  0  0  0  0  0  0  0  0  0  0
    6.8331   -4.7632   -2.3181 C   0  0  0  0  0  0  0  0  0  0  0  0
    2.5369   -5.4688   -2.7155 C   0  0  0  0  0  0  0  0  0  0  0  0
    3.5878   -6.3184   -3.1948 O   0  0  0  0  0  0  0  0  0  0  0  0
   10.0473   -1.3899   -1.7438 N   0  0  0  0  0  0  0  0  0  0  0  0
    9.4955   -2.3912   -1.7405 C   0  0  0  0  0  0  0  0  0  0  0  0
    7.1567   -2.5412   -3.2903 N   0  0  0  0  0  0  0  0  0  0  0  0
    7.5408   -2.4672   -4.1937 H   0  0  0  0  0  0  0  0  0  0  0  0
    6.1728    1.5084   -0.3771 Cl  0  0  0  0  0  0  0  0  0  0  0  0
    2.5133   -0.3566   -3.8078 Cl  0  0  0  0  0  0  0  0  0  0  0  0
    4.4523    0.5055   -2.1481 C   0  0  0  0  0  0  0  0  0  0  0  0
    5.7005    0.3982   -1.5687 C   0  0  0  0  0  0  0  0  0  0  0  0
    4.9216   -1.4553   -3.4588 C   0  0  0  0  0  0  0  0  0  0  0  0
    6.2072   -1.5949   -2.8860 C   0  0  0  0  0  0  0  0  0  0  0  0
    6.5539   -0.6356   -1.9322 C   0  0  0  0  0  0  0  0  0  0  0  0
    4.0625   -0.4231   -3.1032 C   0  0  0  0  0  0  0  0  0  0  0  0
    3.6025    1.4964   -1.7842 O   0  0  0  0  0  0  0  0  0  0  0  0
    2.7553    1.1125   -0.6635 C   0  0  0  0  0  0  0  0  0  0  0  0
    4.5679   -8.1644   -1.7690 O   0  0  0  0  0  0  0  0  0  0  0  0
    3.9187   -8.3496   -0.5126 C   0  0  0  0  0  0  0  0  0  0  0  0
    2.4417   -8.6489   -0.8337 C   0  0  0  0  0  0  0  0  0  0  0  0
    1.5656   -8.5617    0.4261 C   0  0  0  0  0  0  0  0  0  0  0  0
   -3.5326   -6.5583   -1.2278 C   0  0  0  0  0  0  0  0  0  0  0  0
   -0.6936   -7.5274    1.1572 C   0  0  0  0  0  0  0  0  0  0  0  0
    0.0343   -7.6088   -1.1039 C   0  0  0  0  0  0  0  0  0  0  0  0
   -2.1555   -7.4472    0.6494 C   0  0  0  0  0  0  0  0  0  0  0  0
   -1.3969   -7.6471   -1.6073 C   0  0  0  0  0  0  0  0  0  0  0  0
    0.0967   -8.3356    0.1869 N   0  0  0  0  0  0  0  0  0  0  0  0
   -2.1616   -6.8029   -0.6920 N   0  0  0  0  0  0  0  0  0  0  0  0
 11 12  1  0  0  0
 25 19  1  0  0  0
 25 26  1  0  0  0
 30 29  1  0  0  0
 30 36  1  0  0  0
 13 14  3  0  0  0
 17 20  1  0  0  0
 18 24  1  0  0  0
 14  5  1  0  0  0
  1  4  2  0  0  0
  1  5  1  0  0  0
  2  7  2  0  0  0
  2  9  1  0  0  0
  3  6  2  0  0  0
  3 10  1  0  0  0
 29 28  1  0  0  0
 28 27  1  0  0  0
 31 37  1  0  0  0
 33 35  1  0  0  0
 33 36  1  0  0  0
 32 34  1  0  0  0
 32 36  1  0  0  0
 35 37  1  0  0  0
 34 37  1  0  0  0
  4  9  1  0  0  0
 15 22  1  0  0  0
 15  8  1  0  0  0
 12  6  1  0  0  0
 27  7  1  0  0  0
 19 20  1  0  0  0
 19 24  2  0  0  0
 20 23  2  0  0  0
 21 22  2  0  0  0
 21 24  1  0  0  0
  5  8  2  0  0  0
 22 23  1  0  0  0
  6  7  1  0  0  0
  8 10  1  0  0  0
  9 10  2  0  0  0
 15 16  1  0  0  0
M  END
> <minimizedAffinity>
-8.56302

$$$$
5VCZ_XZN_A_401


 37 40  0  0  0  0  0  0  0  0999 V2000
    6.5008    1.1779   -1.3753 C   0  0  0  0  0  0  0  0  0  0  0  0
    9.5074   -0.7917   -1.0364 C   0  0  0  0  0  0  0  0  0  0  0  0
    7.8810   -2.6498   -2.3888 C   0  0  0  0  0  0  0  0  0  0  0  0
    7.7487    0.8093   -1.0870 N   0  0  0  0  0  0  0  0  0  0  0  0
    5.6279    0.3013   -2.0170 C   0  0  0  0  0  0  0  0  0  0  0  0
    9.1723   -2.9864   -2.0221 C   0  0  0  0  0  0  0  0  0  0  0  0
    9.9516   -2.0820   -1.3466 C   0  0  0  0  0  0  0  0  0  0  0  0
    6.0537   -0.9790   -2.4297 C   0  0  0  0  0  0  0  0  0  0  0  0
    8.2023   -0.4359   -1.3942 C   0  0  0  0  0  0  0  0  0  0  0  0
    7.3688   -1.3562   -2.0940 C   0  0  0  0  0  0  0  0  0  0  0  0
    9.0150   -5.3472   -1.7100 C   0  0  0  0  0  0  0  0  0  0  0  0
    9.7228   -4.2129   -2.2280 O   0  0  0  0  0  0  0  0  0  0  0  0
    3.2921    0.9656   -2.3113 N   0  0  0  0  0  0  0  0  0  0  0  0
    4.3878    0.6831   -2.1475 C   0  0  0  0  0  0  0  0  0  0  0  0
    5.2138   -1.8029   -3.1632 N   0  0  0  0  0  0  0  0  0  0  0  0
    5.2441   -1.7521   -4.1460 H   0  0  0  0  0  0  0  0  0  0  0  0
    0.3958   -3.3783   -2.7636 Cl  0  0  0  0  0  0  0  0  0  0  0  0
    4.3477   -5.9758   -0.2583 Cl  0  0  0  0  0  0  0  0  0  0  0  0
    2.4555   -4.6033   -1.5977 C   0  0  0  0  0  0  0  0  0  0  0  0
    2.0414   -3.5547   -2.3940 C   0  0  0  0  0  0  0  0  0  0  0  0
    4.7137   -3.7902   -1.7475 C   0  0  0  0  0  0  0  0  0  0  0  0
    4.3243   -2.7042   -2.5657 C   0  0  0  0  0  0  0  0  0  0  0  0
    2.9618   -2.6256   -2.8617 C   0  0  0  0  0  0  0  0  0  0  0  0
    3.8005   -4.7255   -1.2773 C   0  0  0  0  0  0  0  0  0  0  0  0
    1.5630   -5.5024   -1.1166 O   0  0  0  0  0  0  0  0  0  0  0  0
    1.3917   -6.6409   -2.0085 C   0  0  0  0  0  0  0  0  0  0  0  0
   11.1653   -2.5357   -1.0002 O   0  0  0  0  0  0  0  0  0  0  0  0
   12.2903   -2.1301   -1.7774 C   0  0  0  0  0  0  0  0  0  0  0  0
   13.5157   -2.8236   -1.1517 C   0  0  0  0  0  0  0  0  0  0  0  0
   14.2957   -3.6351   -2.1983 C   0  0  0  0  0  0  0  0  0  0  0  0
   14.8437   -9.0659   -0.4818 C   0  0  0  0  0  0  0  0  0  0  0  0
   14.9718   -5.2409   -0.2819 C   0  0  0  0  0  0  0  0  0  0  0  0
   13.8076   -5.9490   -2.2292 C   0  0  0  0  0  0  0  0  0  0  0  0
   15.4936   -6.6895   -0.1069 C   0  0  0  0  0  0  0  0  0  0  0  0
   14.4052   -7.3406   -2.1316 C   0  0  0  0  0  0  0  0  0  0  0  0
   14.8098   -4.9730   -1.7383 N   0  0  0  0  0  0  0  0  0  0  0  0
   14.5057   -7.6294   -0.7028 N   0  0  0  0  0  0  0  0  0  0  0  0
 11 12  1  0  0  0
 25 19  1  0  0  0
 25 26  1  0  0  0
 30 29  1  0  0  0
 30 36  1  0  0  0
 13 14  3  0  0  0
 17 20  1  0  0  0
 18 24  1  0  0  0
 14  5  1  0  0  0
  1  4  2  0  0  0
  1  5  1  0  0  0
  2  7  2  0  0  0
  2  9  1  0  0  0
  3  6  2  0  0  0
  3 10  1  0  0  0
 29 28  1  0  0  0
 28 27  1  0  0  0
 31 37  1  0  0  0
 33 35  1  0  0  0
 33 36  1  0  0  0
 32 34  1  0  0  0
 32 36  1  0  0  0
 35 37  1  0  0  0
 34 37  1  0  0  0
  4  9  1  0  0  0
 15 22  1  0  0  0
 15  8  1  0  0  0
 12  6  1  0  0  0
 27  7  1  0  0  0
 19 20  1  0  0  0
 19 24  2  0  0  0
 20 23  2  0  0  0
 21 22  2  0  0  0
 21 24  1  0  0  0
  5  8  2  0  0  0
 22 23  1  0  0  0
  6  7  1  0  0  0
  8 10  1  0  0  0
  9 10  2  0  0  0
 15 16  1  0  0  0
M  END
> <minimizedAffinity>
-8.45187

$$$$
5VCZ_XZN_A_401


 37 40  0  0  0  0  0  0  0  0999 V2000
    9.5634   -2.2060   -1.1985 C   0  0  0  0  0  0  0  0  0  0  0  0
    8.5320   -5.6628   -1.0577 C   0  0  0  0  0  0  0  0  0  0  0  0
    6.3639   -4.5860   -2.4952 C   0  0  0  0  0  0  0  0  0  0  0  0
    9.5557   -3.5177   -0.9628 N   0  0  0  0  0  0  0  0  0  0  0  0
    8.5103   -1.5967   -1.8780 C   0  0  0  0  0  0  0  0  0  0  0  0
    6.3948   -5.9332   -2.1801 C   0  0  0  0  0  0  0  0  0  0  0  0
    7.4455   -6.4462   -1.4630 C   0  0  0  0  0  0  0  0  0  0  0  0
    7.4340   -2.3555   -2.3845 C   0  0  0  0  0  0  0  0  0  0  0  0
    8.5149   -4.2972   -1.3622 C   0  0  0  0  0  0  0  0  0  0  0  0
    7.4347   -3.7359   -2.1035 C   0  0  0  0  0  0  0  0  0  0  0  0
    4.0495   -6.3720   -2.2319 C   0  0  0  0  0  0  0  0  0  0  0  0
    5.3940   -6.8042   -2.4795 O   0  0  0  0  0  0  0  0  0  0  0  0
    8.5792    0.8401   -2.0810 N   0  0  0  0  0  0  0  0  0  0  0  0
    8.5238   -0.2949   -1.9555 C   0  0  0  0  0  0  0  0  0  0  0  0
    6.4459   -1.7590   -3.1528 N   0  0  0  0  0  0  0  0  0  0  0  0
    6.6745   -1.4540   -4.0606 H   0  0  0  0  0  0  0  0  0  0  0  0
    3.2670    1.1625   -0.4669 Cl  0  0  0  0  0  0  0  0  0  0  0  0
    1.4642   -3.0948   -3.1624 Cl  0  0  0  0  0  0  0  0  0  0  0  0
    2.4909   -0.9598   -1.8797 C   0  0  0  0  0  0  0  0  0  0  0  0
    3.5481   -0.1663   -1.4822 C   0  0  0  0  0  0  0  0  0  0  0  0
    4.0307   -2.3633   -3.0807 C   0  0  0  0  0  0  0  0  0  0  0  0
    5.1368   -1.5718   -2.6926 C   0  0  0  0  0  0  0  0  0  0  0  0
    4.8425   -0.4742   -1.8811 C   0  0  0  0  0  0  0  0  0  0  0  0
    2.7326   -2.0615   -2.6887 C   0  0  0  0  0  0  0  0  0  0  0  0
    1.2270   -0.6824   -1.4775 O   0  0  0  0  0  0  0  0  0  0  0  0
    0.5377    0.2090   -2.4003 C   0  0  0  0  0  0  0  0  0  0  0  0
    7.3432   -7.7520   -1.1743 O   0  0  0  0  0  0  0  0  0  0  0  0
    7.1803   -8.1361    0.1896 C   0  0  0  0  0  0  0  0  0  0  0  0
    6.6569   -9.5852    0.1670 C   0  0  0  0  0  0  0  0  0  0  0  0
    7.8113  -10.5968    0.0885 C   0  0  0  0  0  0  0  0  0  0  0  0
    9.3696  -11.6542   -5.3147 C   0  0  0  0  0  0  0  0  0  0  0  0
    7.0309  -11.0569   -2.3379 C   0  0  0  0  0  0  0  0  0  0  0  0
    9.2798  -10.5446   -1.7647 C   0  0  0  0  0  0  0  0  0  0  0  0
    7.5520  -11.7662   -3.6134 C   0  0  0  0  0  0  0  0  0  0  0  0
    9.8060  -11.3350   -2.9486 C   0  0  0  0  0  0  0  0  0  0  0  0
    8.0528  -11.2099   -1.2648 N   0  0  0  0  0  0  0  0  0  0  0  0
    8.8355  -11.1336   -4.0222 N   0  0  0  0  0  0  0  0  0  0  0  0
 11 12  1  0  0  0
 25 19  1  0  0  0
 25 26  1  0  0  0
 30 29  1  0  0  0
 30 36  1  0  0  0
 13 14  3  0  0  0
 17 20  1  0  0  0
 18 24  1  0  0  0
 14  5  1  0  0  0
  1  4  2  0  0  0
  1  5  1  0  0  0
  2  7  2  0  0  0
  2  9  1  0  0  0
  3  6  2  0  0  0
  3 10  1  0  0  0
 29 28  1  0  0  0
 28 27  1  0  0  0
 31 37  1  0  0  0
 33 35  1  0  0  0
 33 36  1  0  0  0
 32 34  1  0  0  0
 32 36  1  0  0  0
 35 37  1  0  0  0
 34 37  1  0  0  0
  4  9  1  0  0  0
 15 22  1  0  0  0
 15  8  1  0  0  0
 12  6  1  0  0  0
 27  7  1  0  0  0
 19 20  1  0  0  0
 19 24  2  0  0  0
 20 23  2  0  0  0
 21 22  2  0  0  0
 21 24  1  0  0  0
  5  8  2  0  0  0
 22 23  1  0  0  0
  6  7  1  0  0  0
  8 10  1  0  0  0
  9 10  2  0  0  0
 15 16  1  0  0  0
M  END
> <minimizedAffinity>
-8.40872

$$$$
5VCZ_XZN_A_401


 37 40  0  0  0  0  0  0  0  0999 V2000
    7.3741   -3.6769   -2.6980 C   0  0  0  0  0  0  0  0  0  0  0  0
    3.7863   -3.4132   -2.3953 C   0  0  0  0  0  0  0  0  0  0  0  0
    4.2643   -5.4611   -0.5233 C   0  0  0  0  0  0  0  0  0  0  0  0
    6.1157   -3.2669   -2.8548 N   0  0  0  0  0  0  0  0  0  0  0  0
    7.6842   -4.7064   -1.8114 C   0  0  0  0  0  0  0  0  0  0  0  0
    2.9749   -5.0203   -0.7645 C   0  0  0  0  0  0  0  0  0  0  0  0
    2.7487   -4.0353   -1.6920 C   0  0  0  0  0  0  0  0  0  0  0  0
    6.6867   -5.3064   -1.0141 C   0  0  0  0  0  0  0  0  0  0  0  0
    5.0961   -3.8502   -2.1687 C   0  0  0  0  0  0  0  0  0  0  0  0
    5.3608   -4.8740   -1.2131 C   0  0  0  0  0  0  0  0  0  0  0  0
    1.8400   -6.9793   -0.0097 C   0  0  0  0  0  0  0  0  0  0  0  0
    1.8697   -5.5560   -0.1804 O   0  0  0  0  0  0  0  0  0  0  0  0
    9.9676   -5.5834   -1.8380 N   0  0  0  0  0  0  0  0  0  0  0  0
    8.9136   -5.1415   -1.8086 C   0  0  0  0  0  0  0  0  0  0  0  0
    7.0187   -6.2532   -0.0571 N   0  0  0  0  0  0  0  0  0  0  0  0
    7.2361   -5.9472    0.8530 H   0  0  0  0  0  0  0  0  0  0  0  0
    8.9239  -10.7863    1.2372 Cl  0  0  0  0  0  0  0  0  0  0  0  0
    5.2349  -10.3605   -2.6164 Cl  0  0  0  0  0  0  0  0  0  0  0  0
    7.0592  -10.4442   -0.6359 C   0  0  0  0  0  0  0  0  0  0  0  0
    7.8788   -9.8393    0.2957 C   0  0  0  0  0  0  0  0  0  0  0  0
    6.2318   -8.2785   -1.2746 C   0  0  0  0  0  0  0  0  0  0  0  0
    7.0579   -7.6260   -0.3301 C   0  0  0  0  0  0  0  0  0  0  0  0
    7.8758   -8.4577    0.4376 C   0  0  0  0  0  0  0  0  0  0  0  0
    6.2263   -9.6599   -1.4217 C   0  0  0  0  0  0  0  0  0  0  0  0
    7.0708  -11.7894   -0.7991 O   0  0  0  0  0  0  0  0  0  0  0  0
    6.1353  -12.4613    0.0922 C   0  0  0  0  0  0  0  0  0  0  0  0
    1.4570   -3.7248   -1.8768 O   0  0  0  0  0  0  0  0  0  0  0  0
    1.1014   -2.9456   -3.0173 C   0  0  0  0  0  0  0  0  0  0  0  0
    0.3129   -1.7355   -2.4805 C   0  0  0  0  0  0  0  0  0  0  0  0
    0.9977   -0.4108   -2.8524 C   0  0  0  0  0  0  0  0  0  0  0  0
    6.1056    1.4828   -1.1022 C   0  0  0  0  0  0  0  0  0  0  0  0
    3.4837   -0.0156   -3.4618 C   0  0  0  0  0  0  0  0  0  0  0  0
    2.4569    0.8857   -1.5170 C   0  0  0  0  0  0  0  0  0  0  0  0
    4.8547    0.0900   -2.7470 C   0  0  0  0  0  0  0  0  0  0  0  0
    3.7771    0.8850   -0.7684 C   0  0  0  0  0  0  0  0  0  0  0  0
    2.4377   -0.2789   -2.4343 N   0  0  0  0  0  0  0  0  0  0  0  0
    4.7973    1.2059   -1.7641 N   0  0  0  0  0  0  0  0  0  0  0  0
 11 12  1  0  0  0
 25 19  1  0  0  0
 25 26  1  0  0  0
 30 29  1  0  0  0
 30 36  1  0  0  0
 13 14  3  0  0  0
 17 20  1  0  0  0
 18 24  1  0  0  0
 14  5  1  0  0  0
  1  4  2  0  0  0
  1  5  1  0  0  0
  2  7  2  0  0  0
  2  9  1  0  0  0
  3  6  2  0  0  0
  3 10  1  0  0  0
 29 28  1  0  0  0
 28 27  1  0  0  0
 31 37  1  0  0  0
 33 35  1  0  0  0
 33 36  1  0  0  0
 32 34  1  0  0  0
 32 36  1  0  0  0
 35 37  1  0  0  0
 34 37  1  0  0  0
  4  9  1  0  0  0
 15 22  1  0  0  0
 15  8  1  0  0  0
 12  6  1  0  0  0
 27  7  1  0  0  0
 19 20  1  0  0  0
 19 24  2  0  0  0
 20 23  2  0  0  0
 21 22  2  0  0  0
 21 24  1  0  0  0
  5  8  2  0  0  0
 22 23  1  0  0  0
  6  7  1  0  0  0
  8 10  1  0  0  0
  9 10  2  0  0  0
 15 16  1  0  0  0
M  END
> <minimizedAffinity>
-8.37766

$$$$
5VCZ_XZN_A_401


 37 40  0  0  0  0  0  0  0  0999 V2000
    6.7068    1.1273   -1.3562 C   0  0  0  0  0  0  0  0  0  0  0  0
    9.6450   -0.9444   -1.0263 C   0  0  0  0  0  0  0  0  0  0  0  0
    7.9569   -2.7403   -2.3872 C   0  0  0  0  0  0  0  0  0  0  0  0
    7.9415    0.7153   -1.0695 N   0  0  0  0  0  0  0  0  0  0  0  0
    5.8049    0.2837   -2.0019 C   0  0  0  0  0  0  0  0  0  0  0  0
    9.2360   -3.1220   -2.0220 C   0  0  0  0  0  0  0  0  0  0  0  0
   10.0453   -2.2475   -1.3424 C   0  0  0  0  0  0  0  0  0  0  0  0
    6.1872   -1.0084   -2.4204 C   0  0  0  0  0  0  0  0  0  0  0  0
    8.3527   -0.5430   -1.3824 C   0  0  0  0  0  0  0  0  0  0  0  0
    7.4887   -1.4314   -2.0864 C   0  0  0  0  0  0  0  0  0  0  0  0
    9.0369   -5.4724   -1.6595 C   0  0  0  0  0  0  0  0  0  0  0  0
    9.7447   -4.3654   -2.2335 O   0  0  0  0  0  0  0  0  0  0  0  0
    3.4811    1.0185   -2.2115 N   0  0  0  0  0  0  0  0  0  0  0  0
    4.5784    0.7078   -2.1306 C   0  0  0  0  0  0  0  0  0  0  0  0
    5.3200   -1.8001   -3.1577 N   0  0  0  0  0  0  0  0  0  0  0  0
    5.3465   -1.7398   -4.1400 H   0  0  0  0  0  0  0  0  0  0  0  0
    0.4555   -3.2117   -2.7124 Cl  0  0  0  0  0  0  0  0  0  0  0  0
    4.3501   -6.0004   -0.3260 Cl  0  0  0  0  0  0  0  0  0  0  0  0
    2.4878   -4.5335   -1.6058 C   0  0  0  0  0  0  0  0  0  0  0  0
    2.0992   -3.4541   -2.3734 C   0  0  0  0  0  0  0  0  0  0  0  0
    4.7711   -3.7980   -1.7754 C   0  0  0  0  0  0  0  0  0  0  0  0
    4.4081   -2.6817   -2.5646 C   0  0  0  0  0  0  0  0  0  0  0  0
    3.0450   -2.5486   -2.8367 C   0  0  0  0  0  0  0  0  0  0  0  0
    3.8324   -4.7101   -1.3099 C   0  0  0  0  0  0  0  0  0  0  0  0
    1.5713   -5.4103   -1.1289 O   0  0  0  0  0  0  0  0  0  0  0  0
    1.3433   -6.5214   -2.0425 C   0  0  0  0  0  0  0  0  0  0  0  0
   11.2429   -2.7437   -0.9980 O   0  0  0  0  0  0  0  0  0  0  0  0
   12.3957   -2.2899   -1.7046 C   0  0  0  0  0  0  0  0  0  0  0  0
   13.6091   -2.9211   -0.9951 C   0  0  0  0  0  0  0  0  0  0  0  0
   14.8624   -2.8788   -1.8838 C   0  0  0  0  0  0  0  0  0  0  0  0
   15.5789   -6.7375   -6.0477 C   0  0  0  0  0  0  0  0  0  0  0  0
   15.6716   -3.3264   -4.3030 C   0  0  0  0  0  0  0  0  0  0  0  0
   15.1660   -5.0568   -2.7542 C   0  0  0  0  0  0  0  0  0  0  0  0
   15.3956   -4.3234   -5.4569 C   0  0  0  0  0  0  0  0  0  0  0  0
   14.7824   -6.0055   -3.8750 C   0  0  0  0  0  0  0  0  0  0  0  0
   14.7896   -3.6802   -3.1559 N   0  0  0  0  0  0  0  0  0  0  0  0
   15.6898   -5.7017   -4.9793 N   0  0  0  0  0  0  0  0  0  0  0  0
 11 12  1  0  0  0
 25 19  1  0  0  0
 25 26  1  0  0  0
 30 29  1  0  0  0
 30 36  1  0  0  0
 13 14  3  0  0  0
 17 20  1  0  0  0
 18 24  1  0  0  0
 14  5  1  0  0  0
  1  4  2  0  0  0
  1  5  1  0  0  0
  2  7  2  0  0  0
  2  9  1  0  0  0
  3  6  2  0  0  0
  3 10  1  0  0  0
 29 28  1  0  0  0
 28 27  1  0  0  0
 31 37  1  0  0  0
 33 35  1  0  0  0
 33 36  1  0  0  0
 32 34  1  0  0  0
 32 36  1  0  0  0
 35 37  1  0  0  0
 34 37  1  0  0  0
  4  9  1  0  0  0
 15 22  1  0  0  0
 15  8  1  0  0  0
 12  6  1  0  0  0
 27  7  1  0  0  0
 19 20  1  0  0  0
 19 24  2  0  0  0
 20 23  2  0  0  0
 21 22  2  0  0  0
 21 24  1  0  0  0
  5  8  2  0  0  0
 22 23  1  0  0  0
  6  7  1  0  0  0
  8 10  1  0  0  0
  9 10  2  0  0  0
 15 16  1  0  0  0
M  END
> <minimizedAffinity>
-8.33759

$$$$
5VCZ_XZN_A_401


 37 40  0  0  0  0  0  0  0  0999 V2000
    6.5784    1.0232   -1.3878 C   0  0  0  0  0  0  0  0  0  0  0  0
    9.5340   -1.0125   -0.9958 C   0  0  0  0  0  0  0  0  0  0  0  0
    7.8805   -2.8448   -2.3506 C   0  0  0  0  0  0  0  0  0  0  0  0
    7.8139    0.6284   -1.0815 N   0  0  0  0  0  0  0  0  0  0  0  0
    5.6927    0.1613   -2.0319 C   0  0  0  0  0  0  0  0  0  0  0  0
    9.1592   -3.2078   -1.9657 C   0  0  0  0  0  0  0  0  0  0  0  0
    9.9515   -2.3155   -1.2892 C   0  0  0  0  0  0  0  0  0  0  0  0
    6.0933   -1.1323   -2.4280 C   0  0  0  0  0  0  0  0  0  0  0  0
    8.2418   -0.6298   -1.3721 C   0  0  0  0  0  0  0  0  0  0  0  0
    7.3952   -1.5369   -2.0734 C   0  0  0  0  0  0  0  0  0  0  0  0
    9.0051   -5.5502   -1.5357 C   0  0  0  0  0  0  0  0  0  0  0  0
    9.6833   -4.4486   -2.1541 O   0  0  0  0  0  0  0  0  0  0  0  0
    3.3847    0.9446   -2.2398 N   0  0  0  0  0  0  0  0  0  0  0  0
    4.4634    0.5706   -2.1804 C   0  0  0  0  0  0  0  0  0  0  0  0
    5.2429   -1.9433   -3.1640 N   0  0  0  0  0  0  0  0  0  0  0  0
    5.2808   -1.8971   -4.1467 H   0  0  0  0  0  0  0  0  0  0  0  0
    0.3858   -3.3889   -2.7481 Cl  0  0  0  0  0  0  0  0  0  0  0  0
    4.2795   -6.1170   -0.2911 Cl  0  0  0  0  0  0  0  0  0  0  0  0
    2.4179   -4.6808   -1.6062 C   0  0  0  0  0  0  0  0  0  0  0  0
    2.0281   -3.6139   -2.3905 C   0  0  0  0  0  0  0  0  0  0  0  0
    4.6967   -3.9288   -1.7630 C   0  0  0  0  0  0  0  0  0  0  0  0
    4.3325   -2.8251   -2.5690 C   0  0  0  0  0  0  0  0  0  0  0  0
    2.9710   -2.7064   -2.8557 C   0  0  0  0  0  0  0  0  0  0  0  0
    3.7609   -4.8429   -1.2954 C   0  0  0  0  0  0  0  0  0  0  0  0
    1.5039   -5.5593   -1.1276 O   0  0  0  0  0  0  0  0  0  0  0  0
    1.3200   -6.7011   -2.0127 C   0  0  0  0  0  0  0  0  0  0  0  0
   11.1502   -2.7942   -0.9244 O   0  0  0  0  0  0  0  0  0  0  0  0
   12.3133   -2.2775   -1.5681 C   0  0  0  0  0  0  0  0  0  0  0  0
   13.3515   -3.4161   -1.5554 C   0  0  0  0  0  0  0  0  0  0  0  0
   14.6585   -2.9752   -0.8777 C   0  0  0  0  0  0  0  0  0  0  0  0
   17.1035    1.8713   -2.6871 C   0  0  0  0  0  0  0  0  0  0  0  0
   16.1333   -0.9360   -0.2654 C   0  0  0  0  0  0  0  0  0  0  0  0
   15.5593   -1.5084   -2.4996 C   0  0  0  0  0  0  0  0  0  0  0  0
   16.3474    0.5268   -0.7298 C   0  0  0  0  0  0  0  0  0  0  0  0
   15.6542   -0.0590   -2.9398 C   0  0  0  0  0  0  0  0  0  0  0  0
   15.0615   -1.5426   -1.1035 N   0  0  0  0  0  0  0  0  0  0  0  0
   16.7479    0.5202   -2.1630 N   0  0  0  0  0  0  0  0  0  0  0  0
 11 12  1  0  0  0
 25 19  1  0  0  0
 25 26  1  0  0  0
 30 29  1  0  0  0
 30 36  1  0  0  0
 13 14  3  0  0  0
 17 20  1  0  0  0
 18 24  1  0  0  0
 14  5  1  0  0  0
  1  4  2  0  0  0
  1  5  1  0  0  0
  2  7  2  0  0  0
  2  9  1  0  0  0
  3  6  2  0  0  0
  3 10  1  0  0  0
 29 28  1  0  0  0
 28 27  1  0  0  0
 31 37  1  0  0  0
 33 35  1  0  0  0
 33 36  1  0  0  0
 32 34  1  0  0  0
 32 36  1  0  0  0
 35 37  1  0  0  0
 34 37  1  0  0  0
  4  9  1  0  0  0
 15 22  1  0  0  0
 15  8  1  0  0  0
 12  6  1  0  0  0
 27  7  1  0  0  0
 19 20  1  0  0  0
 19 24  2  0  0  0
 20 23  2  0  0  0
 21 22  2  0  0  0
 21 24  1  0  0  0
  5  8  2  0  0  0
 22 23  1  0  0  0
  6  7  1  0  0  0
  8 10  1  0  0  0
  9 10  2  0  0  0
 15 16  1  0  0  0
M  END
> <minimizedAffinity>
-8.24092

$$$$
5VCZ_XZN_A_401


 37 40  0  0  0  0  0  0  0  0999 V2000
    2.5232   -1.9795   -1.1022 C   0  0  0  0  0  0  0  0  0  0  0  0
    2.5571   -5.5029   -0.3161 C   0  0  0  0  0  0  0  0  0  0  0  0
    4.7251   -5.4030   -2.1096 C   0  0  0  0  0  0  0  0  0  0  0  0
    2.2306   -3.1587   -0.5544 N   0  0  0  0  0  0  0  0  0  0  0  0
    3.5637   -1.8579   -2.0212 C   0  0  0  0  0  0  0  0  0  0  0  0
    4.3428   -6.6048   -1.5399 C   0  0  0  0  0  0  0  0  0  0  0  0
    3.2734   -6.6480   -0.6818 C   0  0  0  0  0  0  0  0  0  0  0  0
    4.3724   -2.9643   -2.3568 C   0  0  0  0  0  0  0  0  0  0  0  0
    2.9257   -4.2797   -0.8870 C   0  0  0  0  0  0  0  0  0  0  0  0
    4.0307   -4.2052   -1.7841 C   0  0  0  0  0  0  0  0  0  0  0  0
    6.3164   -7.9462   -1.5164 C   0  0  0  0  0  0  0  0  0  0  0  0
    4.9249   -7.7993   -1.8294 O   0  0  0  0  0  0  0  0  0  0  0  0
    3.8950    0.2844   -3.1546 N   0  0  0  0  0  0  0  0  0  0  0  0
    3.7058   -0.7042   -2.6126 C   0  0  0  0  0  0  0  0  0  0  0  0
    5.4722   -2.8123   -3.1873 N   0  0  0  0  0  0  0  0  0  0  0  0
    5.3221   -2.7166   -4.1555 H   0  0  0  0  0  0  0  0  0  0  0  0
    9.1350   -0.0687   -0.9711 Cl  0  0  0  0  0  0  0  0  0  0  0  0
    9.8485   -5.2714   -2.0026 Cl  0  0  0  0  0  0  0  0  0  0  0  0
    9.3514   -2.6710   -1.5040 C   0  0  0  0  0  0  0  0  0  0  0  0
    8.5568   -1.5444   -1.5740 C   0  0  0  0  0  0  0  0  0  0  0  0
    7.6278   -3.9234   -2.6192 C   0  0  0  0  0  0  0  0  0  0  0  0
    6.7874   -2.7891   -2.7074 C   0  0  0  0  0  0  0  0  0  0  0  0
    7.3031   -1.6086   -2.1684 C   0  0  0  0  0  0  0  0  0  0  0  0
    8.8819   -3.8691   -2.0242 C   0  0  0  0  0  0  0  0  0  0  0  0
   10.5856   -2.6147   -0.9473 O   0  0  0  0  0  0  0  0  0  0  0  0
   11.5929   -2.1399   -1.8860 C   0  0  0  0  0  0  0  0  0  0  0  0
    2.9650   -7.8731   -0.2312 O   0  0  0  0  0  0  0  0  0  0  0  0
    1.6078   -8.1511    0.1080 C   0  0  0  0  0  0  0  0  0  0  0  0
    0.8764   -8.4039   -1.2244 C   0  0  0  0  0  0  0  0  0  0  0  0
   -0.6480   -8.3094   -1.0537 C   0  0  0  0  0  0  0  0  0  0  0  0
   -3.7633   -4.4474   -3.9034 C   0  0  0  0  0  0  0  0  0  0  0  0
   -0.6354   -6.2910   -2.6767 C   0  0  0  0  0  0  0  0  0  0  0  0
   -2.6060   -7.4844   -2.0925 C   0  0  0  0  0  0  0  0  0  0  0  0
   -1.5184   -5.0628   -3.0135 C   0  0  0  0  0  0  0  0  0  0  0  0
   -3.4664   -6.2531   -2.3090 C   0  0  0  0  0  0  0  0  0  0  0  0
   -1.2875   -7.0494   -1.5727 N   0  0  0  0  0  0  0  0  0  0  0  0
   -2.8635   -5.5411   -3.4336 N   0  0  0  0  0  0  0  0  0  0  0  0
 11 12  1  0  0  0
 25 19  1  0  0  0
 25 26  1  0  0  0
 30 29  1  0  0  0
 30 36  1  0  0  0
 13 14  3  0  0  0
 17 20  1  0  0  0
 18 24  1  0  0  0
 14  5  1  0  0  0
  1  4  2  0  0  0
  1  5  1  0  0  0
  2  7  2  0  0  0
  2  9  1  0  0  0
  3  6  2  0  0  0
  3 10  1  0  0  0
 29 28  1  0  0  0
 28 27  1  0  0  0
 31 37  1  0  0  0
 33 35  1  0  0  0
 33 36  1  0  0  0
 32 34  1  0  0  0
 32 36  1  0  0  0
 35 37  1  0  0  0
 34 37  1  0  0  0
  4  9  1  0  0  0
 15 22  1  0  0  0
 15  8  1  0  0  0
 12  6  1  0  0  0
 27  7  1  0  0  0
 19 20  1  0  0  0
 19 24  2  0  0  0
 20 23  2  0  0  0
 21 22  2  0  0  0
 21 24  1  0  0  0
  5  8  2  0  0  0
 22 23  1  0  0  0
  6  7  1  0  0  0
  8 10  1  0  0  0
  9 10  2  0  0  0
 15 16  1  0  0  0
M  END
> <minimizedAffinity>
-8.14460

$$$$
5VCZ_XZN_A_401


 37 40  0  0  0  0  0  0  0  0999 V2000
    7.1888    1.1682   -1.3397 C   0  0  0  0  0  0  0  0  0  0  0  0
    9.9974   -1.0793   -1.6465 C   0  0  0  0  0  0  0  0  0  0  0  0
    7.8910   -2.9082   -2.0275 C   0  0  0  0  0  0  0  0  0  0  0  0
    8.4337    0.6980   -1.4125 N   0  0  0  0  0  0  0  0  0  0  0  0
    6.0948    0.3178   -1.4883 C   0  0  0  0  0  0  0  0  0  0  0  0
    9.2055   -3.3404   -2.0478 C   0  0  0  0  0  0  0  0  0  0  0  0
   10.2251   -2.4461   -1.8424 C   0  0  0  0  0  0  0  0  0  0  0  0
    6.2708   -1.0525   -1.7750 C   0  0  0  0  0  0  0  0  0  0  0  0
    8.6742   -0.6252   -1.6169 C   0  0  0  0  0  0  0  0  0  0  0  0
    7.5945   -1.5322   -1.8243 C   0  0  0  0  0  0  0  0  0  0  0  0
    8.8012   -5.6257   -1.4916 C   0  0  0  0  0  0  0  0  0  0  0  0
    9.5727   -4.6418   -2.1934 O   0  0  0  0  0  0  0  0  0  0  0  0
    3.8813    1.3024   -1.1494 N   0  0  0  0  0  0  0  0  0  0  0  0
    4.9122    0.8239   -1.2740 C   0  0  0  0  0  0  0  0  0  0  0  0
    5.1796   -1.8692   -2.0292 N   0  0  0  0  0  0  0  0  0  0  0  0
    5.1636   -2.7709   -1.6343 H   0  0  0  0  0  0  0  0  0  0  0  0
    0.1252   -1.7196   -2.5631 Cl  0  0  0  0  0  0  0  0  0  0  0  0
    3.3289    0.7230   -6.0859 Cl  0  0  0  0  0  0  0  0  0  0  0  0
    1.8257   -0.5157   -4.2248 C   0  0  0  0  0  0  0  0  0  0  0  0
    1.6784   -1.2946   -3.0948 C   0  0  0  0  0  0  0  0  0  0  0  0
    4.2137   -0.6666   -3.9848 C   0  0  0  0  0  0  0  0  0  0  0  0
    4.0994   -1.4661   -2.8236 C   0  0  0  0  0  0  0  0  0  0  0  0
    2.7968   -1.7600   -2.4153 C   0  0  0  0  0  0  0  0  0  0  0  0
    3.1009   -0.1946   -4.6692 C   0  0  0  0  0  0  0  0  0  0  0  0
    0.7420   -0.0755   -4.9090 O   0  0  0  0  0  0  0  0  0  0  0  0
    0.1885    1.1453   -4.3392 C   0  0  0  0  0  0  0  0  0  0  0  0
   11.4525   -2.9869   -1.8345 O   0  0  0  0  0  0  0  0  0  0  0  0
   12.5706   -2.1395   -2.0918 C   0  0  0  0  0  0  0  0  0  0  0  0
   13.6890   -2.6052   -1.1397 C   0  0  0  0  0  0  0  0  0  0  0  0
   14.8513   -3.2483   -1.9126 C   0  0  0  0  0  0  0  0  0  0  0  0
   14.4858   -8.9477   -1.5601 C   0  0  0  0  0  0  0  0  0  0  0  0
   14.6123   -5.3094   -0.3625 C   0  0  0  0  0  0  0  0  0  0  0  0
   14.3648   -5.4160   -2.7239 C   0  0  0  0  0  0  0  0  0  0  0  0
   14.9748   -6.8161   -0.3653 C   0  0  0  0  0  0  0  0  0  0  0  0
   14.8302   -6.8604   -2.7496 C   0  0  0  0  0  0  0  0  0  0  0  0
   15.0889   -4.7095   -1.6401 N   0  0  0  0  0  0  0  0  0  0  0  0
   14.3089   -7.4664   -1.5265 N   0  0  0  0  0  0  0  0  0  0  0  0
 11 12  1  0  0  0
 25 19  1  0  0  0
 25 26  1  0  0  0
 30 29  1  0  0  0
 30 36  1  0  0  0
 13 14  3  0  0  0
 17 20  1  0  0  0
 18 24  1  0  0  0
 14  5  1  0  0  0
  1  4  2  0  0  0
  1  5  1  0  0  0
  2  7  2  0  0  0
  2  9  1  0  0  0
  3  6  2  0  0  0
  3 10  1  0  0  0
 29 28  1  0  0  0
 28 27  1  0  0  0
 31 37  1  0  0  0
 33 35  1  0  0  0
 33 36  1  0  0  0
 32 34  1  0  0  0
 32 36  1  0  0  0
 35 37  1  0  0  0
 34 37  1  0  0  0
  4  9  1  0  0  0
 15 22  1  0  0  0
 15  8  1  0  0  0
 12  6  1  0  0  0
 27  7  1  0  0  0
 19 20  1  0  0  0
 19 24  2  0  0  0
 20 23  2  0  0  0
 21 22  2  0  0  0
 21 24  1  0  0  0
  5  8  2  0  0  0
 22 23  1  0  0  0
  6  7  1  0  0  0
  8 10  1  0  0  0
  9 10  2  0  0  0
 15 16  1  0  0  0
M  END
> <minimizedAffinity>
-8.11663

$$$$
5VCZ_XZN_A_401


 37 40  0  0  0  0  0  0  0  0999 V2000
    8.9679   -3.0145   -1.1503 C   0  0  0  0  0  0  0  0  0  0  0  0
    6.6598   -5.7890   -1.0584 C   0  0  0  0  0  0  0  0  0  0  0  0
    5.2355   -4.0518   -2.7556 C   0  0  0  0  0  0  0  0  0  0  0  0
    8.4255   -4.2038   -0.8905 N   0  0  0  0  0  0  0  0  0  0  0  0
    8.3079   -2.0901   -1.9578 C   0  0  0  0  0  0  0  0  0  0  0  0
    4.7070   -5.2837   -2.4119 C   0  0  0  0  0  0  0  0  0  0  0  0
    5.3987   -6.1162   -1.5692 C   0  0  0  0  0  0  0  0  0  0  0  0
    7.0755   -2.4050   -2.5685 C   0  0  0  0  0  0  0  0  0  0  0  0
    7.2072   -4.5447   -1.3904 C   0  0  0  0  0  0  0  0  0  0  0  0
    6.5097   -3.6580   -2.2614 C   0  0  0  0  0  0  0  0  0  0  0  0
    2.3621   -4.8593   -2.5424 C   0  0  0  0  0  0  0  0  0  0  0  0
    3.4798   -5.7179   -2.8059 O   0  0  0  0  0  0  0  0  0  0  0  0
    9.3645    0.1084   -2.1425 N   0  0  0  0  0  0  0  0  0  0  0  0
    8.8362   -0.9021   -2.0596 C   0  0  0  0  0  0  0  0  0  0  0  0
    6.4788   -1.5231   -3.4565 N   0  0  0  0  0  0  0  0  0  0  0  0
    6.9013   -1.3799   -4.3341 H   0  0  0  0  0  0  0  0  0  0  0  0
    1.9799    0.1311   -5.1529 Cl  0  0  0  0  0  0  0  0  0  0  0  0
    3.3913    0.7896   -0.0329 Cl  0  0  0  0  0  0  0  0  0  0  0  0
    2.7850    0.3646   -2.6232 C   0  0  0  0  0  0  0  0  0  0  0  0
    3.0961   -0.0771   -3.8934 C   0  0  0  0  0  0  0  0  0  0  0  0
    4.9493   -0.3636   -1.8691 C   0  0  0  0  0  0  0  0  0  0  0  0
    5.3008   -0.8275   -3.1582 C   0  0  0  0  0  0  0  0  0  0  0  0
    4.3320   -0.6568   -4.1493 C   0  0  0  0  0  0  0  0  0  0  0  0
    3.7147    0.2151   -1.6034 C   0  0  0  0  0  0  0  0  0  0  0  0
    1.5914    0.9528   -2.3671 O   0  0  0  0  0  0  0  0  0  0  0  0
    0.5232   -0.0213   -2.1901 C   0  0  0  0  0  0  0  0  0  0  0  0
    4.7669   -7.2602   -1.2677 O   0  0  0  0  0  0  0  0  0  0  0  0
    4.7304   -7.6780    0.0955 C   0  0  0  0  0  0  0  0  0  0  0  0
    5.3134   -9.1041    0.1222 C   0  0  0  0  0  0  0  0  0  0  0  0
    4.3524  -10.0897    0.8057 C   0  0  0  0  0  0  0  0  0  0  0  0
   -1.0266  -11.4567   -0.5868 C   0  0  0  0  0  0  0  0  0  0  0  0
    2.6802  -10.6283   -1.0975 C   0  0  0  0  0  0  0  0  0  0  0  0
    2.2022  -10.9915    1.2022 C   0  0  0  0  0  0  0  0  0  0  0  0
    1.1566  -10.5425   -1.3670 C   0  0  0  0  0  0  0  0  0  0  0  0
    0.7158  -10.7945    0.9676 C   0  0  0  0  0  0  0  0  0  0  0  0
    2.9447  -10.1068    0.2727 N   0  0  0  0  0  0  0  0  0  0  0  0
    0.4438  -11.3632   -0.3506 N   0  0  0  0  0  0  0  0  0  0  0  0
 11 12  1  0  0  0
 25 19  1  0  0  0
 25 26  1  0  0  0
 30 29  1  0  0  0
 30 36  1  0  0  0
 13 14  3  0  0  0
 17 20  1  0  0  0
 18 24  1  0  0  0
 14  5  1  0  0  0
  1  4  2  0  0  0
  1  5  1  0  0  0
  2  7  2  0  0  0
  2  9  1  0  0  0
  3  6  2  0  0  0
  3 10  1  0  0  0
 29 28  1  0  0  0
 28 27  1  0  0  0
 31 37  1  0  0  0
 33 35  1  0  0  0
 33 36  1  0  0  0
 32 34  1  0  0  0
 32 36  1  0  0  0
 35 37  1  0  0  0
 34 37  1  0  0  0
  4  9  1  0  0  0
 15 22  1  0  0  0
 15  8  1  0  0  0
 12  6  1  0  0  0
 27  7  1  0  0  0
 19 20  1  0  0  0
 19 24  2  0  0  0
 20 23  2  0  0  0
 21 22  2  0  0  0
 21 24  1  0  0  0
  5  8  2  0  0  0
 22 23  1  0  0  0
  6  7  1  0  0  0
  8 10  1  0  0  0
  9 10  2  0  0  0
 15 16  1  0  0  0
M  END
> <minimizedAffinity>
-7.93423

$$$$
