5FE6_5WZ_A_909


 14 15  0  0  0  0  0  0  0  0999 V2000
    0.1265   13.7607   35.7413 C   0  0  0  0  0  0  0  0  0  0  0  0
    1.2167   11.8730   32.6493 C   0  0  0  0  0  0  0  0  0  0  0  0
    0.6493   12.7956   33.4737 N   0  0  0  0  0  0  0  0  0  0  0  0
    1.6581   12.1551   31.5365 O   0  0  0  0  0  0  0  0  0  0  0  0
    0.3935   14.1907   33.1163 C   0  0  0  0  0  0  0  0  0  0  0  0
    1.2584   15.1427   33.9506 C   0  0  0  0  0  0  0  0  0  0  0  0
    0.2409   12.5015   34.8681 C   0  0  0  0  0  0  0  0  0  0  0  0
    1.2231   14.7606   35.4198 C   0  0  0  0  0  0  0  0  0  0  0  0
    1.1147   15.9368   36.2874 N   0  0  0  0  0  0  0  0  0  0  0  0
    0.2270   16.4077   36.1124 H   0  0  0  0  0  0  0  0  0  0  0  0
    1.8839   16.5769   36.0900 H   0  0  0  0  0  0  0  0  0  0  0  0
    1.4033   10.5498   33.1594 C   0  0  0  0  0  0  0  0  0  0  0  0
    1.9505    9.5468   32.1997 C   0  0  0  0  0  0  0  0  0  0  0  0
    0.5155    9.4898   32.5768 C   0  0  0  0  0  0  0  0  0  0  0  0
  6  8  1  0  0  0
  6  5  1  0  0  0
  9  8  1  0  0  0
  8  1  1  0  0  0
  5  3  1  0  0  0
  4  2  2  0  0  0
  3  2  1  0  0  0
  3  7  1  0  0  0
  2 12  1  0  0  0
  1  7  1  0  0  0
 13 12  1  0  0  0
 13 14  1  0  0  0
 12 14  1  0  0  0
  9 10  1  0  0  0
  9 11  1  0  0  0
M  END
> <minimizedAffinity>
-5.82189

$$$$
5FE6_5WZ_A_909


 14 15  0  0  0  0  0  0  0  0999 V2000
   -0.3655   12.9113   33.0268 C   0  0  0  0  0  0  0  0  0  0  0  0
   -0.5705    9.4381   34.5126 C   0  0  0  0  0  0  0  0  0  0  0  0
   -0.4713   10.4667   33.6267 N   0  0  0  0  0  0  0  0  0  0  0  0
   -0.0076    8.3574   34.3453 O   0  0  0  0  0  0  0  0  0  0  0  0
    0.2105   10.3941   32.3345 C   0  0  0  0  0  0  0  0  0  0  0  0
    1.4475   11.2994   32.3105 C   0  0  0  0  0  0  0  0  0  0  0  0
   -1.0265   11.8177   33.8801 C   0  0  0  0  0  0  0  0  0  0  0  0
    1.1264   12.6717   32.8758 C   0  0  0  0  0  0  0  0  0  0  0  0
    1.7406   13.7441   32.0882 N   0  0  0  0  0  0  0  0  0  0  0  0
    1.3463   13.7438   31.1475 H   0  0  0  0  0  0  0  0  0  0  0  0
    2.7479   13.5925   32.0347 H   0  0  0  0  0  0  0  0  0  0  0  0
   -1.2674    9.6800   35.7380 C   0  0  0  0  0  0  0  0  0  0  0  0
   -1.0931    8.6532   36.8067 C   0  0  0  0  0  0  0  0  0  0  0  0
   -2.3764    8.7231   36.0631 C   0  0  0  0  0  0  0  0  0  0  0  0
  6  8  1  0  0  0
  6  5  1  0  0  0
  9  8  1  0  0  0
  8  1  1  0  0  0
  5  3  1  0  0  0
  4  2  2  0  0  0
  3  2  1  0  0  0
  3  7  1  0  0  0
  2 12  1  0  0  0
  1  7  1  0  0  0
 13 12  1  0  0  0
 13 14  1  0  0  0
 12 14  1  0  0  0
  9 10  1  0  0  0
  9 11  1  0  0  0
M  END
> <minimizedAffinity>
-5.79049

$$$$
5FE6_5WZ_A_909


 14 15  0  0  0  0  0  0  0  0999 V2000
    0.6495    7.4515   33.1564 C   0  0  0  0  0  0  0  0  0  0  0  0
    0.4488   11.2070   32.7466 C   0  0  0  0  0  0  0  0  0  0  0  0
    0.9210    9.9320   32.8094 N   0  0  0  0  0  0  0  0  0  0  0  0
    0.9053   12.0499   31.9759 O   0  0  0  0  0  0  0  0  0  0  0  0
    2.0779    9.4316   32.0673 C   0  0  0  0  0  0  0  0  0  0  0  0
    1.6585    8.3818   31.0317 C   0  0  0  0  0  0  0  0  0  0  0  0
    0.2923    8.8691   33.6295 C   0  0  0  0  0  0  0  0  0  0  0  0
    0.7047    7.3695   31.6411 C   0  0  0  0  0  0  0  0  0  0  0  0
    1.0128    6.0023   31.2127 N   0  0  0  0  0  0  0  0  0  0  0  0
    1.9368    5.7387   31.5551 H   0  0  0  0  0  0  0  0  0  0  0  0
    1.0014    5.9545   30.1939 H   0  0  0  0  0  0  0  0  0  0  0  0
   -0.7008   11.5307   33.5336 C   0  0  0  0  0  0  0  0  0  0  0  0
   -1.3059   12.8731   33.2917 C   0  0  0  0  0  0  0  0  0  0  0  0
   -0.5237   12.6370   34.5315 C   0  0  0  0  0  0  0  0  0  0  0  0
  6  8  1  0  0  0
  6  5  1  0  0  0
  9  8  1  0  0  0
  8  1  1  0  0  0
  5  3  1  0  0  0
  4  2  2  0  0  0
  3  2  1  0  0  0
  3  7  1  0  0  0
  2 12  1  0  0  0
  1  7  1  0  0  0
 13 12  1  0  0  0
 13 14  1  0  0  0
 12 14  1  0  0  0
  9 10  1  0  0  0
  9 11  1  0  0  0
M  END
> <minimizedAffinity>
-5.76520

$$$$
5FE6_5WZ_A_909


 14 15  0  0  0  0  0  0  0  0999 V2000
    0.2712   14.0964   35.1169 C   0  0  0  0  0  0  0  0  0  0  0  0
   -0.1545   10.5835   33.7788 C   0  0  0  0  0  0  0  0  0  0  0  0
   -0.2449   11.9328   33.9341 N   0  0  0  0  0  0  0  0  0  0  0  0
   -0.1506   10.0381   32.6764 O   0  0  0  0  0  0  0  0  0  0  0  0
   -0.4547   12.8872   32.8457 C   0  0  0  0  0  0  0  0  0  0  0  0
    0.7713   13.7882   32.6566 C   0  0  0  0  0  0  0  0  0  0  0  0
   -0.1107   12.6136   35.2441 C   0  0  0  0  0  0  0  0  0  0  0  0
    1.2653   14.3190   33.9908 C   0  0  0  0  0  0  0  0  0  0  0  0
    1.6409   15.7333   33.9106 N   0  0  0  0  0  0  0  0  0  0  0  0
    0.8166   16.2919   33.6895 H   0  0  0  0  0  0  0  0  0  0  0  0
    2.3420   15.8580   33.1804 H   0  0  0  0  0  0  0  0  0  0  0  0
    0.0596    9.7914   34.9503 C   0  0  0  0  0  0  0  0  0  0  0  0
   -0.1592    8.3231   34.7996 C   0  0  0  0  0  0  0  0  0  0  0  0
   -1.1589    9.1390   35.5341 C   0  0  0  0  0  0  0  0  0  0  0  0
  6  8  1  0  0  0
  6  5  1  0  0  0
  9  8  1  0  0  0
  8  1  1  0  0  0
  5  3  1  0  0  0
  4  2  2  0  0  0
  3  2  1  0  0  0
  3  7  1  0  0  0
  2 12  1  0  0  0
  1  7  1  0  0  0
 13 12  1  0  0  0
 13 14  1  0  0  0
 12 14  1  0  0  0
  9 10  1  0  0  0
  9 11  1  0  0  0
M  END
> <minimizedAffinity>
-5.55686

$$$$
5FE6_5WZ_A_909


 14 15  0  0  0  0  0  0  0  0999 V2000
    1.5645   10.6890   31.9026 C   0  0  0  0  0  0  0  0  0  0  0  0
    0.3004   13.2338   34.4003 C   0  0  0  0  0  0  0  0  0  0  0  0
    0.3481   12.2388   33.4728 N   0  0  0  0  0  0  0  0  0  0  0  0
   -0.5359   13.2658   35.3016 O   0  0  0  0  0  0  0  0  0  0  0  0
   -0.6297   11.1571   33.3564 C   0  0  0  0  0  0  0  0  0  0  0  0
    0.0049    9.8007   33.6848 C   0  0  0  0  0  0  0  0  0  0  0  0
    1.4309   12.1114   32.4684 C   0  0  0  0  0  0  0  0  0  0  0  0
    1.3391    9.6406   32.9777 C   0  0  0  0  0  0  0  0  0  0  0  0
    1.5052    8.2941   32.4233 N   0  0  0  0  0  0  0  0  0  0  0  0
    0.8004    8.1334   31.7037 H   0  0  0  0  0  0  0  0  0  0  0  0
    1.3955    7.6045   33.1668 H   0  0  0  0  0  0  0  0  0  0  0  0
    1.3431   14.2127   34.3806 C   0  0  0  0  0  0  0  0  0  0  0  0
    1.3396   15.1991   35.5003 C   0  0  0  0  0  0  0  0  0  0  0  0
    0.9096   15.6298   34.1460 C   0  0  0  0  0  0  0  0  0  0  0  0
  6  8  1  0  0  0
  6  5  1  0  0  0
  9  8  1  0  0  0
  8  1  1  0  0  0
  5  3  1  0  0  0
  4  2  2  0  0  0
  3  2  1  0  0  0
  3  7  1  0  0  0
  2 12  1  0  0  0
  1  7  1  0  0  0
 13 12  1  0  0  0
 13 14  1  0  0  0
 12 14  1  0  0  0
  9 10  1  0  0  0
  9 11  1  0  0  0
M  END
> <minimizedAffinity>
-5.33944

$$$$
5FE6_5WZ_A_909


 14 15  0  0  0  0  0  0  0  0999 V2000
    0.8795   11.5762   33.1131 C   0  0  0  0  0  0  0  0  0  0  0  0
    0.7154    7.9485   32.0525 C   0  0  0  0  0  0  0  0  0  0  0  0
    0.8523    9.0763   32.8020 N   0  0  0  0  0  0  0  0  0  0  0  0
    0.2398    6.9054   32.4980 O   0  0  0  0  0  0  0  0  0  0  0  0
    0.5621    9.1694   34.2327 C   0  0  0  0  0  0  0  0  0  0  0  0
   -0.6329   10.0932   34.4955 C   0  0  0  0  0  0  0  0  0  0  0  0
    1.2920   10.3776   32.2445 C   0  0  0  0  0  0  0  0  0  0  0  0
   -0.5058   11.3829   33.7041 C   0  0  0  0  0  0  0  0  0  0  0  0
   -0.8915   12.5519   34.4994 N   0  0  0  0  0  0  0  0  0  0  0  0
   -0.2489   12.6558   35.2847 H   0  0  0  0  0  0  0  0  0  0  0  0
   -1.8406   12.4257   34.8511 H   0  0  0  0  0  0  0  0  0  0  0  0
    1.0361    8.0310   30.6610 C   0  0  0  0  0  0  0  0  0  0  0  0
    0.7234    6.8235   29.8420 C   0  0  0  0  0  0  0  0  0  0  0  0
    2.1356    7.1276   30.1854 C   0  0  0  0  0  0  0  0  0  0  0  0
  6  8  1  0  0  0
  6  5  1  0  0  0
  9  8  1  0  0  0
  8  1  1  0  0  0
  5  3  1  0  0  0
  4  2  2  0  0  0
  3  2  1  0  0  0
  3  7  1  0  0  0
  2 12  1  0  0  0
  1  7  1  0  0  0
 13 12  1  0  0  0
 13 14  1  0  0  0
 12 14  1  0  0  0
  9 10  1  0  0  0
  9 11  1  0  0  0
M  END
> <minimizedAffinity>
-5.31834

$$$$
5FE6_5WZ_A_909


 14 15  0  0  0  0  0  0  0  0999 V2000
   -0.1911   10.7994   33.1994 C   0  0  0  0  0  0  0  0  0  0  0  0
    0.9330    8.9536   36.3046 C   0  0  0  0  0  0  0  0  0  0  0  0
    0.5842    9.2408   35.0206 N   0  0  0  0  0  0  0  0  0  0  0  0
    1.7966    8.1263   36.5918 O   0  0  0  0  0  0  0  0  0  0  0  0
    1.0964    8.5456   33.8399 C   0  0  0  0  0  0  0  0  0  0  0  0
    1.9548    9.4788   32.9781 C   0  0  0  0  0  0  0  0  0  0  0  0
   -0.3512   10.3309   34.6541 C   0  0  0  0  0  0  0  0  0  0  0  0
    1.2681   10.8186   32.7799 C   0  0  0  0  0  0  0  0  0  0  0  0
    1.3990   11.3008   31.4021 N   0  0  0  0  0  0  0  0  0  0  0  0
    0.9200   10.6590   30.7704 H   0  0  0  0  0  0  0  0  0  0  0  0
    2.3865   11.3506   31.1517 H   0  0  0  0  0  0  0  0  0  0  0  0
    0.3431    9.7370   37.3457 C   0  0  0  0  0  0  0  0  0  0  0  0
    0.6319    9.2980   38.7423 C   0  0  0  0  0  0  0  0  0  0  0  0
   -0.7135    9.0543   38.1635 C   0  0  0  0  0  0  0  0  0  0  0  0
  6  8  1  0  0  0
  6  5  1  0  0  0
  9  8  1  0  0  0
  8  1  1  0  0  0
  5  3  1  0  0  0
  4  2  2  0  0  0
  3  2  1  0  0  0
  3  7  1  0  0  0
  2 12  1  0  0  0
  1  7  1  0  0  0
 13 12  1  0  0  0
 13 14  1  0  0  0
 12 14  1  0  0  0
  9 10  1  0  0  0
  9 11  1  0  0  0
M  END
> <minimizedAffinity>
-5.31750

$$$$
5FE6_5WZ_A_909


 14 15  0  0  0  0  0  0  0  0999 V2000
   -0.0918    8.8747   35.5786 C   0  0  0  0  0  0  0  0  0  0  0  0
    0.5694   11.7894   33.2592 C   0  0  0  0  0  0  0  0  0  0  0  0
    0.7008   10.6209   33.9448 N   0  0  0  0  0  0  0  0  0  0  0  0
    1.0058   11.9469   32.1202 O   0  0  0  0  0  0  0  0  0  0  0  0
    1.4546    9.4578   33.4773 C   0  0  0  0  0  0  0  0  0  0  0  0
    0.5244    8.2709   33.2009 C   0  0  0  0  0  0  0  0  0  0  0  0
    0.0611   10.3697   35.2583 C   0  0  0  0  0  0  0  0  0  0  0  0
   -0.4603    8.0766   34.3405 C   0  0  0  0  0  0  0  0  0  0  0  0
   -0.6344    6.6607   34.6763 N   0  0  0  0  0  0  0  0  0  0  0  0
    0.2485    6.2814   35.0185 H   0  0  0  0  0  0  0  0  0  0  0  0
   -0.9254    6.1473   33.8444 H   0  0  0  0  0  0  0  0  0  0  0  0
   -0.2108   12.8282   33.8577 C   0  0  0  0  0  0  0  0  0  0  0  0
    0.1750   14.2258   33.5051 C   0  0  0  0  0  0  0  0  0  0  0  0
    0.5026   13.6955   34.8527 C   0  0  0  0  0  0  0  0  0  0  0  0
  6  8  1  0  0  0
  6  5  1  0  0  0
  9  8  1  0  0  0
  8  1  1  0  0  0
  5  3  1  0  0  0
  4  2  2  0  0  0
  3  2  1  0  0  0
  3  7  1  0  0  0
  2 12  1  0  0  0
  1  7  1  0  0  0
 13 12  1  0  0  0
 13 14  1  0  0  0
 12 14  1  0  0  0
  9 10  1  0  0  0
  9 11  1  0  0  0
M  END
> <minimizedAffinity>
-5.22607

$$$$
5FE6_5WZ_A_909


 14 15  0  0  0  0  0  0  0  0999 V2000
    0.2555    9.4399   32.5226 C   0  0  0  0  0  0  0  0  0  0  0  0
   -0.1340   12.7311   34.3471 C   0  0  0  0  0  0  0  0  0  0  0  0
   -0.2475   11.4211   33.9952 N   0  0  0  0  0  0  0  0  0  0  0  0
   -0.1476   13.1109   35.5169 O   0  0  0  0  0  0  0  0  0  0  0  0
   -0.5045   10.3243   34.9283 C   0  0  0  0  0  0  0  0  0  0  0  0
    0.6977    9.3768   35.0122 C   0  0  0  0  0  0  0  0  0  0  0  0
   -0.0931   10.9343   32.6036 C   0  0  0  0  0  0  0  0  0  0  0  0
    1.2154    9.0332   33.6266 C   0  0  0  0  0  0  0  0  0  0  0  0
    1.5602    7.6137   33.5089 N   0  0  0  0  0  0  0  0  0  0  0  0
    0.7193    7.0486   33.6277 H   0  0  0  0  0  0  0  0  0  0  0  0
    2.2395    7.3680   34.2290 H   0  0  0  0  0  0  0  0  0  0  0  0
    0.1263   13.6792   33.3083 C   0  0  0  0  0  0  0  0  0  0  0  0
    1.5239   13.7150   32.7866 C   0  0  0  0  0  0  0  0  0  0  0  0
    1.0443   14.8107   33.6664 C   0  0  0  0  0  0  0  0  0  0  0  0
  6  8  1  0  0  0
  6  5  1  0  0  0
  9  8  1  0  0  0
  8  1  1  0  0  0
  5  3  1  0  0  0
  4  2  2  0  0  0
  3  2  1  0  0  0
  3  7  1  0  0  0
  2 12  1  0  0  0
  1  7  1  0  0  0
 13 12  1  0  0  0
 13 14  1  0  0  0
 12 14  1  0  0  0
  9 10  1  0  0  0
  9 11  1  0  0  0
M  END
> <minimizedAffinity>
-5.12010

$$$$
5FE6_5WZ_A_909


 14 15  0  0  0  0  0  0  0  0999 V2000
   -0.4749    8.4543   35.5165 C   0  0  0  0  0  0  0  0  0  0  0  0
    0.9075    8.8286   32.0149 C   0  0  0  0  0  0  0  0  0  0  0  0
    0.1756    9.0129   33.1476 N   0  0  0  0  0  0  0  0  0  0  0  0
    1.2377    9.7550   31.2763 O   0  0  0  0  0  0  0  0  0  0  0  0
   -0.3976   10.2894   33.5739 C   0  0  0  0  0  0  0  0  0  0  0  0
    0.2595   10.7860   34.8670 C   0  0  0  0  0  0  0  0  0  0  0  0
   -0.1106    7.9301   34.1188 C   0  0  0  0  0  0  0  0  0  0  0  0
    0.3589    9.6674   35.8892 C   0  0  0  0  0  0  0  0  0  0  0  0
    0.0188   10.1284   37.2381 N   0  0  0  0  0  0  0  0  0  0  0  0
   -0.9570   10.4246   37.2602 H   0  0  0  0  0  0  0  0  0  0  0  0
    0.6184   10.9142   37.4901 H   0  0  0  0  0  0  0  0  0  0  0  0
    1.4020    7.5132   31.7486 C   0  0  0  0  0  0  0  0  0  0  0  0
    1.9310    7.2760   30.3737 C   0  0  0  0  0  0  0  0  0  0  0  0
    0.6164    6.7036   30.7594 C   0  0  0  0  0  0  0  0  0  0  0  0
  6  8  1  0  0  0
  6  5  1  0  0  0
  9  8  1  0  0  0
  8  1  1  0  0  0
  5  3  1  0  0  0
  4  2  2  0  0  0
  3  2  1  0  0  0
  3  7  1  0  0  0
  2 12  1  0  0  0
  1  7  1  0  0  0
 13 12  1  0  0  0
 13 14  1  0  0  0
 12 14  1  0  0  0
  9 10  1  0  0  0
  9 11  1  0  0  0
M  END
> <minimizedAffinity>
-4.82343

$$$$
