3F17_HS4_A_0


 22 23  0  0  0  0  0  0  0  0999 V2000
    2.9615   -6.0570    6.9585 C   0  0  0  0  0  0  0  0  0  0  0  0
    2.9272   -6.4346    8.3048 C   0  0  0  0  0  0  0  0  0  0  0  0
    4.0573   -6.9296    8.9491 C   0  0  0  0  0  0  0  0  0  0  0  0
    4.1592   -6.2093    6.2529 C   0  0  0  0  0  0  0  0  0  0  0  0
    5.2936   -6.7081    6.8989 C   0  0  0  0  0  0  0  0  0  0  0  0
    5.2475   -7.0918    8.2432 C   0  0  0  0  0  0  0  0  0  0  0  0
    6.4627   -7.5696    8.9601 C   0  0  0  0  0  0  0  0  0  0  0  0
    6.5041   -7.8190   10.3278 C   0  0  0  0  0  0  0  0  0  0  0  0
    7.6952   -8.2235   10.9340 C   0  0  0  0  0  0  0  0  0  0  0  0
    8.8569   -8.3505   10.1840 C   0  0  0  0  0  0  0  0  0  0  0  0
    8.8280   -8.0724    8.8233 C   0  0  0  0  0  0  0  0  0  0  0  0
    7.6443   -7.6716    8.2212 C   0  0  0  0  0  0  0  0  0  0  0  0
    1.0001   -5.1888    7.6893 O   0  0  0  0  0  0  0  0  0  0  0  0
    1.5738   -5.4914    6.3971 S   0  0  0  0  0  0  0  0  0  0  0  0
    0.8861   -6.3672    5.5554 O   0  0  0  0  0  0  0  0  0  0  0  0
    1.5264   -4.0272    5.7557 N   0  0  0  0  0  0  0  0  0  0  0  0
    2.0420   -3.4369    6.4084 H   0  0  0  0  0  0  0  0  0  0  0  0
    1.9968   -3.6409    4.4551 C   0  0  0  0  0  0  0  0  0  0  0  0
    1.1850   -2.5015    3.9031 C   0  0  0  0  0  0  0  0  0  0  0  0
    0.1973   -2.6573    3.1889 O   0  0  0  0  0  0  0  0  0  0  0  0
    1.6058   -1.3112    4.2643 N   0  0  0  0  0  0  0  0  0  0  0  0
    1.5759   -0.9857    5.5989 O   0  0  0  0  0  0  0  0  0  0  0  0
 13 14  2  0  0  0
 14 15  2  0  0  0
 14 16  1  0  0  0
 14  1  1  0  0  0
 16 18  1  0  0  0
 18 19  1  0  0  0
 19 20  2  0  0  0
 19 21  1  0  0  0
 21 22  2  0  0  0
  1  2  2  0  0  0
  1  4  1  0  0  0
  2  3  1  0  0  0
  3  6  2  0  0  0
  4  5  2  0  0  0
  5  6  1  0  0  0
  6  7  1  0  0  0
  7  8  2  0  0  0
  7 12  1  0  0  0
  8  9  1  0  0  0
  9 10  2  0  0  0
 10 11  1  0  0  0
 11 12  2  0  0  0
 16 17  1  0  0  0
M  END
> <minimizedAffinity>
-9.42194

$$$$
3F17_HS4_A_0


 22 23  0  0  0  0  0  0  0  0999 V2000
    2.8563   -6.0853    7.2410 C   0  0  0  0  0  0  0  0  0  0  0  0
    4.0181   -6.1661    6.4665 C   0  0  0  0  0  0  0  0  0  0  0  0
    5.2189   -6.6205    7.0039 C   0  0  0  0  0  0  0  0  0  0  0  0
    2.9262   -6.4499    8.5893 C   0  0  0  0  0  0  0  0  0  0  0  0
    4.1321   -6.9043    9.1298 C   0  0  0  0  0  0  0  0  0  0  0  0
    5.2913   -6.9731    8.3500 C   0  0  0  0  0  0  0  0  0  0  0  0
    6.5685   -7.5104    8.8966 C   0  0  0  0  0  0  0  0  0  0  0  0
    7.7181   -7.6926    8.1353 C   0  0  0  0  0  0  0  0  0  0  0  0
    8.8645   -8.2434    8.7118 C   0  0  0  0  0  0  0  0  0  0  0  0
    8.8588   -8.6435   10.0415 C   0  0  0  0  0  0  0  0  0  0  0  0
    7.7034   -8.4924   10.7978 C   0  0  0  0  0  0  0  0  0  0  0  0
    6.5651   -7.9441   10.2250 C   0  0  0  0  0  0  0  0  0  0  0  0
    0.8146   -5.1774    7.6181 O   0  0  0  0  0  0  0  0  0  0  0  0
    1.5697   -5.5617    6.4465 S   0  0  0  0  0  0  0  0  0  0  0  0
    1.0073   -6.4926    5.5715 O   0  0  0  0  0  0  0  0  0  0  0  0
    1.6263   -4.1426    5.7115 N   0  0  0  0  0  0  0  0  0  0  0  0
    2.2783   -3.5856    6.2639 H   0  0  0  0  0  0  0  0  0  0  0  0
    1.9917   -3.8941    4.3451 C   0  0  0  0  0  0  0  0  0  0  0  0
    1.2851   -2.6795    3.8089 C   0  0  0  0  0  0  0  0  0  0  0  0
    0.2612   -2.7356    3.1317 O   0  0  0  0  0  0  0  0  0  0  0  0
    1.8417   -1.5376    4.1413 N   0  0  0  0  0  0  0  0  0  0  0  0
    1.5563   -1.0077    5.3765 O   0  0  0  0  0  0  0  0  0  0  0  0
 13 14  2  0  0  0
 14 15  2  0  0  0
 14 16  1  0  0  0
 14  1  1  0  0  0
 16 18  1  0  0  0
 18 19  1  0  0  0
 19 20  2  0  0  0
 19 21  1  0  0  0
 21 22  2  0  0  0
  1  2  2  0  0  0
  1  4  1  0  0  0
  2  3  1  0  0  0
  3  6  2  0  0  0
  4  5  2  0  0  0
  5  6  1  0  0  0
  6  7  1  0  0  0
  7  8  2  0  0  0
  7 12  1  0  0  0
  8  9  1  0  0  0
  9 10  2  0  0  0
 10 11  1  0  0  0
 11 12  2  0  0  0
 16 17  1  0  0  0
M  END
> <minimizedAffinity>
-9.25382

$$$$
3F17_HS4_A_0


 22 23  0  0  0  0  0  0  0  0999 V2000
    4.1142   -6.6884    7.7994 C   0  0  0  0  0  0  0  0  0  0  0  0
    5.2728   -6.7198    7.0166 C   0  0  0  0  0  0  0  0  0  0  0  0
    6.5034   -7.0842    7.5552 C   0  0  0  0  0  0  0  0  0  0  0  0
    4.2167   -7.0098    9.1566 C   0  0  0  0  0  0  0  0  0  0  0  0
    5.4524   -7.3738    9.6982 C   0  0  0  0  0  0  0  0  0  0  0  0
    6.6076   -7.3935    8.9097 C   0  0  0  0  0  0  0  0  0  0  0  0
    7.9197   -7.8357    9.4591 C   0  0  0  0  0  0  0  0  0  0  0  0
    9.0386   -8.0918    8.6739 C   0  0  0  0  0  0  0  0  0  0  0  0
   10.2216   -8.5460    9.2606 C   0  0  0  0  0  0  0  0  0  0  0  0
   10.2834   -8.7764   10.6286 C   0  0  0  0  0  0  0  0  0  0  0  0
    9.1591   -8.5520   11.4129 C   0  0  0  0  0  0  0  0  0  0  0  0
    7.9844   -8.0998   10.8298 C   0  0  0  0  0  0  0  0  0  0  0  0
    3.4414   -5.3265    6.1178 O   0  0  0  0  0  0  0  0  0  0  0  0
    2.7917   -6.2675    7.0027 S   0  0  0  0  0  0  0  0  0  0  0  0
    1.7484   -5.8079    7.8083 O   0  0  0  0  0  0  0  0  0  0  0  0
    2.1872   -7.2623    5.9062 N   0  0  0  0  0  0  0  0  0  0  0  0
    1.1802   -7.2522    6.0680 H   0  0  0  0  0  0  0  0  0  0  0  0
    2.3349   -7.1660    4.4811 C   0  0  0  0  0  0  0  0  0  0  0  0
    1.0633   -6.6860    3.8372 C   0  0  0  0  0  0  0  0  0  0  0  0
    0.9904   -6.3332    2.6623 O   0  0  0  0  0  0  0  0  0  0  0  0
    0.0176   -6.6920    4.6314 N   0  0  0  0  0  0  0  0  0  0  0  0
   -0.3041   -5.5329    5.2955 O   0  0  0  0  0  0  0  0  0  0  0  0
 13 14  2  0  0  0
 14 15  2  0  0  0
 14 16  1  0  0  0
 14  1  1  0  0  0
 16 18  1  0  0  0
 18 19  1  0  0  0
 19 20  2  0  0  0
 19 21  1  0  0  0
 21 22  2  0  0  0
  1  2  2  0  0  0
  1  4  1  0  0  0
  2  3  1  0  0  0
  3  6  2  0  0  0
  4  5  2  0  0  0
  5  6  1  0  0  0
  6  7  1  0  0  0
  7  8  2  0  0  0
  7 12  1  0  0  0
  8  9  1  0  0  0
  9 10  2  0  0  0
 10 11  1  0  0  0
 11 12  2  0  0  0
 16 17  1  0  0  0
M  END
> <minimizedAffinity>
-9.22717

$$$$
3F17_HS4_A_0


 22 23  0  0  0  0  0  0  0  0999 V2000
    4.8634   -6.8666    8.5448 C   0  0  0  0  0  0  0  0  0  0  0  0
    5.0849   -7.2128    9.8817 C   0  0  0  0  0  0  0  0  0  0  0  0
    6.3233   -7.6765   10.3161 C   0  0  0  0  0  0  0  0  0  0  0  0
    5.9131   -7.0185    7.6333 C   0  0  0  0  0  0  0  0  0  0  0  0
    7.1560   -7.4858    8.0687 C   0  0  0  0  0  0  0  0  0  0  0  0
    7.3657   -7.8384    9.4059 C   0  0  0  0  0  0  0  0  0  0  0  0
    8.7007   -8.2820    9.8956 C   0  0  0  0  0  0  0  0  0  0  0  0
    8.9736   -8.5852   11.2252 C   0  0  0  0  0  0  0  0  0  0  0  0
   10.2639   -8.9523   11.6132 C   0  0  0  0  0  0  0  0  0  0  0  0
   11.2936   -8.9880   10.6822 C   0  0  0  0  0  0  0  0  0  0  0  0
   11.0328   -8.6557    9.3589 C   0  0  0  0  0  0  0  0  0  0  0  0
    9.7507   -8.2921    8.9736 C   0  0  0  0  0  0  0  0  0  0  0  0
    3.4640   -5.1708    9.0934 O   0  0  0  0  0  0  0  0  0  0  0  0
    3.3859   -6.3339    8.2381 S   0  0  0  0  0  0  0  0  0  0  0  0
    2.3715   -7.2633    8.4742 O   0  0  0  0  0  0  0  0  0  0  0  0
    3.0901   -5.6004    6.8482 N   0  0  0  0  0  0  0  0  0  0  0  0
    3.6266   -6.1225    6.1554 H   0  0  0  0  0  0  0  0  0  0  0  0
    1.8057   -5.3903    6.2413 C   0  0  0  0  0  0  0  0  0  0  0  0
    1.4964   -6.4717    5.2427 C   0  0  0  0  0  0  0  0  0  0  0  0
    0.3558   -6.8496    4.9854 O   0  0  0  0  0  0  0  0  0  0  0  0
    2.5512   -6.9740    4.6434 N   0  0  0  0  0  0  0  0  0  0  0  0
    3.0759   -8.1500    5.1227 O   0  0  0  0  0  0  0  0  0  0  0  0
 13 14  2  0  0  0
 14 15  2  0  0  0
 14 16  1  0  0  0
 14  1  1  0  0  0
 16 18  1  0  0  0
 18 19  1  0  0  0
 19 20  2  0  0  0
 19 21  1  0  0  0
 21 22  2  0  0  0
  1  2  2  0  0  0
  1  4  1  0  0  0
  2  3  1  0  0  0
  3  6  2  0  0  0
  4  5  2  0  0  0
  5  6  1  0  0  0
  6  7  1  0  0  0
  7  8  2  0  0  0
  7 12  1  0  0  0
  8  9  1  0  0  0
  9 10  2  0  0  0
 10 11  1  0  0  0
 11 12  2  0  0  0
 16 17  1  0  0  0
M  END
> <minimizedAffinity>
-9.10423

$$$$
3F17_HS4_A_0


 22 23  0  0  0  0  0  0  0  0999 V2000
    3.0364   -6.1341    7.0695 C   0  0  0  0  0  0  0  0  0  0  0  0
    3.0352   -6.5634    8.4006 C   0  0  0  0  0  0  0  0  0  0  0  0
    4.1872   -7.0584    9.0050 C   0  0  0  0  0  0  0  0  0  0  0  0
    4.2236   -6.2339    6.3371 C   0  0  0  0  0  0  0  0  0  0  0  0
    5.3799   -6.7326    6.9429 C   0  0  0  0  0  0  0  0  0  0  0  0
    5.3671   -7.1682    8.2720 C   0  0  0  0  0  0  0  0  0  0  0  0
    6.6051   -7.6470    8.9480 C   0  0  0  0  0  0  0  0  0  0  0  0
    6.6751   -7.9557   10.3023 C   0  0  0  0  0  0  0  0  0  0  0  0
    7.8855   -8.3570   10.8714 C   0  0  0  0  0  0  0  0  0  0  0  0
    9.0374   -8.4217   10.0986 C   0  0  0  0  0  0  0  0  0  0  0  0
    8.9793   -8.0842    8.7523 C   0  0  0  0  0  0  0  0  0  0  0  0
    7.7765   -7.6867    8.1871 C   0  0  0  0  0  0  0  0  0  0  0  0
    2.1748   -4.5713    5.6730 O   0  0  0  0  0  0  0  0  0  0  0  0
    1.6271   -5.5771    6.5554 S   0  0  0  0  0  0  0  0  0  0  0  0
    0.7584   -5.1679    7.5686 O   0  0  0  0  0  0  0  0  0  0  0  0
    0.7948   -6.4218    5.4824 N   0  0  0  0  0  0  0  0  0  0  0  0
   -0.1830   -6.2125    5.6836 H   0  0  0  0  0  0  0  0  0  0  0  0
    0.9042   -6.3442    4.0527 C   0  0  0  0  0  0  0  0  0  0  0  0
    1.2717   -7.6791    3.4655 C   0  0  0  0  0  0  0  0  0  0  0  0
    0.5548   -8.2934    2.6789 O   0  0  0  0  0  0  0  0  0  0  0  0
    2.4426   -8.1352    3.8466 N   0  0  0  0  0  0  0  0  0  0  0  0
    2.4970   -8.9528    4.9495 O   0  0  0  0  0  0  0  0  0  0  0  0
 13 14  2  0  0  0
 14 15  2  0  0  0
 14 16  1  0  0  0
 14  1  1  0  0  0
 16 18  1  0  0  0
 18 19  1  0  0  0
 19 20  2  0  0  0
 19 21  1  0  0  0
 21 22  2  0  0  0
  1  2  2  0  0  0
  1  4  1  0  0  0
  2  3  1  0  0  0
  3  6  2  0  0  0
  4  5  2  0  0  0
  5  6  1  0  0  0
  6  7  1  0  0  0
  7  8  2  0  0  0
  7 12  1  0  0  0
  8  9  1  0  0  0
  9 10  2  0  0  0
 10 11  1  0  0  0
 11 12  2  0  0  0
 16 17  1  0  0  0
M  END
> <minimizedAffinity>
-9.03778

$$$$
3F17_HS4_A_0


 22 23  0  0  0  0  0  0  0  0999 V2000
    6.4889   -7.4787    8.7543 C   0  0  0  0  0  0  0  0  0  0  0  0
    5.2517   -7.4497    9.4060 C   0  0  0  0  0  0  0  0  0  0  0  0
    4.0864   -7.0882    8.7361 C   0  0  0  0  0  0  0  0  0  0  0  0
    6.5419   -7.1103    7.4062 C   0  0  0  0  0  0  0  0  0  0  0  0
    5.3725   -6.7455    6.7338 C   0  0  0  0  0  0  0  0  0  0  0  0
    4.1410   -6.7104    7.3961 C   0  0  0  0  0  0  0  0  0  0  0  0
    2.8783   -6.3805    6.6781 C   0  0  0  0  0  0  0  0  0  0  0  0
    1.9604   -5.4360    7.1249 C   0  0  0  0  0  0  0  0  0  0  0  0
    0.7769   -5.2147    6.4175 C   0  0  0  0  0  0  0  0  0  0  0  0
    0.4900   -5.9567    5.2794 C   0  0  0  0  0  0  0  0  0  0  0  0
    1.3890   -6.9231    4.8467 C   0  0  0  0  0  0  0  0  0  0  0  0
    2.5651   -7.1420    5.5491 C   0  0  0  0  0  0  0  0  0  0  0  0
    7.5810   -9.3533    9.4087 O   0  0  0  0  0  0  0  0  0  0  0  0
    7.7106   -7.9389    9.6797 S   0  0  0  0  0  0  0  0  0  0  0  0
    7.6314   -7.5081   11.0050 O   0  0  0  0  0  0  0  0  0  0  0  0
    9.2089   -7.7238    9.1637 N   0  0  0  0  0  0  0  0  0  0  0  0
    9.7822   -7.7352   10.0073 H   0  0  0  0  0  0  0  0  0  0  0  0
    9.9208   -8.5399    8.2206 C   0  0  0  0  0  0  0  0  0  0  0  0
   11.1307   -9.1688    8.8550 C   0  0  0  0  0  0  0  0  0  0  0  0
   11.6844  -10.1717    8.4103 O   0  0  0  0  0  0  0  0  0  0  0  0
   11.5690   -8.5441    9.9237 N   0  0  0  0  0  0  0  0  0  0  0  0
   10.9878   -8.8354   11.1342 O   0  0  0  0  0  0  0  0  0  0  0  0
 13 14  2  0  0  0
 14 15  2  0  0  0
 14 16  1  0  0  0
 14  1  1  0  0  0
 16 18  1  0  0  0
 18 19  1  0  0  0
 19 20  2  0  0  0
 19 21  1  0  0  0
 21 22  2  0  0  0
  1  2  2  0  0  0
  1  4  1  0  0  0
  2  3  1  0  0  0
  3  6  2  0  0  0
  4  5  2  0  0  0
  5  6  1  0  0  0
  6  7  1  0  0  0
  7  8  2  0  0  0
  7 12  1  0  0  0
  8  9  1  0  0  0
  9 10  2  0  0  0
 10 11  1  0  0  0
 11 12  2  0  0  0
 16 17  1  0  0  0
M  END
> <minimizedAffinity>
-8.90871

$$$$
3F17_HS4_A_0


 22 23  0  0  0  0  0  0  0  0999 V2000
    3.1061   -6.1268    7.1046 C   0  0  0  0  0  0  0  0  0  0  0  0
    4.2854   -6.3450    6.3850 C   0  0  0  0  0  0  0  0  0  0  0  0
    5.4380   -6.8176    7.0059 C   0  0  0  0  0  0  0  0  0  0  0  0
    3.1096   -6.3710    8.4816 C   0  0  0  0  0  0  0  0  0  0  0  0
    4.2672   -6.8436    9.1057 C   0  0  0  0  0  0  0  0  0  0  0  0
    5.4447   -7.0502    8.3796 C   0  0  0  0  0  0  0  0  0  0  0  0
    6.6682   -7.6087    9.0199 C   0  0  0  0  0  0  0  0  0  0  0  0
    6.7340   -7.9931   10.3549 C   0  0  0  0  0  0  0  0  0  0  0  0
    7.9321   -8.4676   10.8928 C   0  0  0  0  0  0  0  0  0  0  0  0
    9.0770   -8.5309   10.1095 C   0  0  0  0  0  0  0  0  0  0  0  0
    9.0242   -8.1187    8.7841 C   0  0  0  0  0  0  0  0  0  0  0  0
    7.8335   -7.6484    8.2497 C   0  0  0  0  0  0  0  0  0  0  0  0
    2.5354   -4.4034    5.7485 O   0  0  0  0  0  0  0  0  0  0  0  0
    1.8806   -5.6038    6.2185 S   0  0  0  0  0  0  0  0  0  0  0  0
    0.6755   -5.4737    6.9109 O   0  0  0  0  0  0  0  0  0  0  0  0
    1.5838   -6.2935    4.8065 N   0  0  0  0  0  0  0  0  0  0  0  0
    2.4902   -6.6311    4.4826 H   0  0  0  0  0  0  0  0  0  0  0  0
    0.6726   -7.3732    4.5498 C   0  0  0  0  0  0  0  0  0  0  0  0
    1.3450   -8.4767    3.7802 C   0  0  0  0  0  0  0  0  0  0  0  0
    0.8952   -8.9466    2.7376 O   0  0  0  0  0  0  0  0  0  0  0  0
    2.4757   -8.8915    4.3034 N   0  0  0  0  0  0  0  0  0  0  0  0
    2.5984  -10.2228    4.6203 O   0  0  0  0  0  0  0  0  0  0  0  0
 13 14  2  0  0  0
 14 15  2  0  0  0
 14 16  1  0  0  0
 14  1  1  0  0  0
 16 18  1  0  0  0
 18 19  1  0  0  0
 19 20  2  0  0  0
 19 21  1  0  0  0
 21 22  2  0  0  0
  1  2  2  0  0  0
  1  4  1  0  0  0
  2  3  1  0  0  0
  3  6  2  0  0  0
  4  5  2  0  0  0
  5  6  1  0  0  0
  6  7  1  0  0  0
  7  8  2  0  0  0
  7 12  1  0  0  0
  8  9  1  0  0  0
  9 10  2  0  0  0
 10 11  1  0  0  0
 11 12  2  0  0  0
 16 17  1  0  0  0
M  END
> <minimizedAffinity>
-8.73675

$$$$
3F17_HS4_A_0


 22 23  0  0  0  0  0  0  0  0999 V2000
    1.8685   -5.5643    5.6258 C   0  0  0  0  0  0  0  0  0  0  0  0
    3.1208   -5.9026    5.1028 C   0  0  0  0  0  0  0  0  0  0  0  0
    4.1595   -6.3302    5.9247 C   0  0  0  0  0  0  0  0  0  0  0  0
    1.6805   -5.6398    7.0095 C   0  0  0  0  0  0  0  0  0  0  0  0
    2.7237   -6.0672    7.8353 C   0  0  0  0  0  0  0  0  0  0  0  0
    3.9757   -6.3948    7.3043 C   0  0  0  0  0  0  0  0  0  0  0  0
    5.0781   -6.9075    8.1649 C   0  0  0  0  0  0  0  0  0  0  0  0
    4.9603   -7.1003    9.5372 C   0  0  0  0  0  0  0  0  0  0  0  0
    6.0549   -7.5434   10.2825 C   0  0  0  0  0  0  0  0  0  0  0  0
    7.2797   -7.7656    9.6671 C   0  0  0  0  0  0  0  0  0  0  0  0
    7.4109   -7.5445    8.3020 C   0  0  0  0  0  0  0  0  0  0  0  0
    6.3230   -7.1054    7.5617 C   0  0  0  0  0  0  0  0  0  0  0  0
   -0.3727   -5.4152    5.3264 O   0  0  0  0  0  0  0  0  0  0  0  0
    0.7946   -5.1165    4.5272 S   0  0  0  0  0  0  0  0  0  0  0  0
    0.9299   -5.7481    3.2897 O   0  0  0  0  0  0  0  0  0  0  0  0
    0.5320   -3.5590    4.2771 N   0  0  0  0  0  0  0  0  0  0  0  0
    1.1489   -3.0793    4.9326 H   0  0  0  0  0  0  0  0  0  0  0  0
    0.6822   -2.8481    3.0384 C   0  0  0  0  0  0  0  0  0  0  0  0
    1.1956   -1.4542    3.2740 C   0  0  0  0  0  0  0  0  0  0  0  0
    0.9319   -0.5028    2.5424 O   0  0  0  0  0  0  0  0  0  0  0  0
    1.9408   -1.3251    4.3475 N   0  0  0  0  0  0  0  0  0  0  0  0
    1.3472   -0.8809    5.5043 O   0  0  0  0  0  0  0  0  0  0  0  0
 13 14  2  0  0  0
 14 15  2  0  0  0
 14 16  1  0  0  0
 14  1  1  0  0  0
 16 18  1  0  0  0
 18 19  1  0  0  0
 19 20  2  0  0  0
 19 21  1  0  0  0
 21 22  2  0  0  0
  1  2  2  0  0  0
  1  4  1  0  0  0
  2  3  1  0  0  0
  3  6  2  0  0  0
  4  5  2  0  0  0
  5  6  1  0  0  0
  6  7  1  0  0  0
  7  8  2  0  0  0
  7 12  1  0  0  0
  8  9  1  0  0  0
  9 10  2  0  0  0
 10 11  1  0  0  0
 11 12  2  0  0  0
 16 17  1  0  0  0
M  END
> <minimizedAffinity>
-8.60539

$$$$
3F17_HS4_A_0


 22 23  0  0  0  0  0  0  0  0999 V2000
    5.5389   -7.1826    8.6781 C   0  0  0  0  0  0  0  0  0  0  0  0
    4.2043   -7.1760    9.0961 C   0  0  0  0  0  0  0  0  0  0  0  0
    3.1624   -6.9724    8.1959 C   0  0  0  0  0  0  0  0  0  0  0  0
    5.8162   -6.9539    7.3266 C   0  0  0  0  0  0  0  0  0  0  0  0
    4.7705   -6.7475    6.4228 C   0  0  0  0  0  0  0  0  0  0  0  0
    3.4392   -6.7335    6.8514 C   0  0  0  0  0  0  0  0  0  0  0  0
    2.3120   -6.5732    5.8909 C   0  0  0  0  0  0  0  0  0  0  0  0
    1.3669   -5.5562    5.9725 C   0  0  0  0  0  0  0  0  0  0  0  0
    0.3130   -5.4993    5.0581 C   0  0  0  0  0  0  0  0  0  0  0  0
    0.1801   -6.4744    4.0784 C   0  0  0  0  0  0  0  0  0  0  0  0
    1.1037   -7.5098    4.0123 C   0  0  0  0  0  0  0  0  0  0  0  0
    2.1512   -7.5653    4.9201 C   0  0  0  0  0  0  0  0  0  0  0  0
    5.6201   -7.8336   10.8471 O   0  0  0  0  0  0  0  0  0  0  0  0
    6.5951   -7.4534    9.8494 S   0  0  0  0  0  0  0  0  0  0  0  0
    7.4440   -6.3807   10.1272 O   0  0  0  0  0  0  0  0  0  0  0  0
    7.4633   -8.7962    9.8268 N   0  0  0  0  0  0  0  0  0  0  0  0
    7.6644   -8.9632    8.8408 H   0  0  0  0  0  0  0  0  0  0  0  0
    8.7082   -9.0287   10.5038 C   0  0  0  0  0  0  0  0  0  0  0  0
    9.7766   -9.4606    9.5374 C   0  0  0  0  0  0  0  0  0  0  0  0
   10.8300   -9.9896    9.8846 O   0  0  0  0  0  0  0  0  0  0  0  0
    9.4853   -9.2451    8.2753 N   0  0  0  0  0  0  0  0  0  0  0  0
    9.5187   -7.9530    7.8092 O   0  0  0  0  0  0  0  0  0  0  0  0
 13 14  2  0  0  0
 14 15  2  0  0  0
 14 16  1  0  0  0
 14  1  1  0  0  0
 16 18  1  0  0  0
 18 19  1  0  0  0
 19 20  2  0  0  0
 19 21  1  0  0  0
 21 22  2  0  0  0
  1  2  2  0  0  0
  1  4  1  0  0  0
  2  3  1  0  0  0
  3  6  2  0  0  0
  4  5  2  0  0  0
  5  6  1  0  0  0
  6  7  1  0  0  0
  7  8  2  0  0  0
  7 12  1  0  0  0
  8  9  1  0  0  0
  9 10  2  0  0  0
 10 11  1  0  0  0
 11 12  2  0  0  0
 16 17  1  0  0  0
M  END
> <minimizedAffinity>
-8.55373

$$$$
3F17_HS4_A_0


 22 23  0  0  0  0  0  0  0  0999 V2000
    2.9377   -5.9992    6.8327 C   0  0  0  0  0  0  0  0  0  0  0  0
    4.1139   -6.3206    6.1476 C   0  0  0  0  0  0  0  0  0  0  0  0
    5.2442   -6.7766    6.8198 C   0  0  0  0  0  0  0  0  0  0  0  0
    2.9220   -6.1214    8.2257 C   0  0  0  0  0  0  0  0  0  0  0  0
    4.0572   -6.5774    8.9012 C   0  0  0  0  0  0  0  0  0  0  0  0
    5.2321   -6.8877    8.2086 C   0  0  0  0  0  0  0  0  0  0  0  0
    6.4301   -7.4301    8.9084 C   0  0  0  0  0  0  0  0  0  0  0  0
    6.4680   -7.7093   10.2703 C   0  0  0  0  0  0  0  0  0  0  0  0
    7.6445   -8.1753   10.8610 C   0  0  0  0  0  0  0  0  0  0  0  0
    8.7961   -8.3346   10.1016 C   0  0  0  0  0  0  0  0  0  0  0  0
    8.7718   -8.0274    8.7472 C   0  0  0  0  0  0  0  0  0  0  0  0
    7.6027   -7.5655    8.1605 C   0  0  0  0  0  0  0  0  0  0  0  0
    0.8620   -5.0996    6.9641 O   0  0  0  0  0  0  0  0  0  0  0  0
    1.7383   -5.5136    5.8912 S   0  0  0  0  0  0  0  0  0  0  0  0
    1.2767   -6.4774    4.9929 O   0  0  0  0  0  0  0  0  0  0  0  0
    1.8628   -4.1181    5.1201 N   0  0  0  0  0  0  0  0  0  0  0  0
    2.2669   -3.4758    5.8017 H   0  0  0  0  0  0  0  0  0  0  0  0
    2.5822   -3.8678    3.9027 C   0  0  0  0  0  0  0  0  0  0  0  0
    1.6413   -3.7314    2.7373 C   0  0  0  0  0  0  0  0  0  0  0  0
    1.7656   -4.3610    1.6894 O   0  0  0  0  0  0  0  0  0  0  0  0
    0.6513   -2.8917    2.9352 N   0  0  0  0  0  0  0  0  0  0  0  0
   -0.4764   -3.3509    3.5718 O   0  0  0  0  0  0  0  0  0  0  0  0
 13 14  2  0  0  0
 14 15  2  0  0  0
 14 16  1  0  0  0
 14  1  1  0  0  0
 16 18  1  0  0  0
 18 19  1  0  0  0
 19 20  2  0  0  0
 19 21  1  0  0  0
 21 22  2  0  0  0
  1  2  2  0  0  0
  1  4  1  0  0  0
  2  3  1  0  0  0
  3  6  2  0  0  0
  4  5  2  0  0  0
  5  6  1  0  0  0
  6  7  1  0  0  0
  7  8  2  0  0  0
  7 12  1  0  0  0
  8  9  1  0  0  0
  9 10  2  0  0  0
 10 11  1  0  0  0
 11 12  2  0  0  0
 16 17  1  0  0  0
M  END
> <minimizedAffinity>
-8.51688

$$$$
