5OST_AEZ_A_915


 19 20  0  0  0  0  0  0  0  0999 V2000
  -29.7179  -13.3366  -17.6276 C   0  0  0  0  0  0  0  0  0  0  0  0
  -29.1721  -13.6909  -19.0083 C   0  0  0  0  0  0  0  0  0  0  0  0
  -30.3063  -14.3016  -19.7461 C   0  0  0  0  0  0  0  0  0  0  0  0
  -31.6426  -15.4893  -20.9972 C   0  0  0  0  0  0  0  0  0  0  0  0
  -30.8520  -12.3126  -17.7863 C   0  0  0  0  0  0  0  0  0  0  0  0
  -31.6827  -13.8325  -19.5761 C   0  0  0  0  0  0  0  0  0  0  0  0
  -32.0773  -12.7891  -18.6054 C   0  0  0  0  0  0  0  0  0  0  0  0
  -32.8602  -11.7334  -19.1759 O   0  0  0  0  0  0  0  0  0  0  0  0
  -28.6275  -12.7843  -16.8861 O   0  0  0  0  0  0  0  0  0  0  0  0
  -31.3204  -11.9214  -16.4882 O   0  0  0  0  0  0  0  0  0  0  0  0
  -32.4358  -14.5984  -20.3586 N   0  0  0  0  0  0  0  0  0  0  0  0
  -30.3534  -15.3203  -20.6217 N   0  0  0  0  0  0  0  0  0  0  0  0
  -32.3293  -11.2554  -19.8321 H   0  0  0  0  0  0  0  0  0  0  0  0
  -28.2753  -12.0120  -17.3557 H   0  0  0  0  0  0  0  0  0  0  0  0
  -31.7036  -12.6901  -16.0375 H   0  0  0  0  0  0  0  0  0  0  0  0
  -29.5851  -15.8503  -20.9349 H   0  0  0  0  0  0  0  0  0  0  0  0
  -27.9685  -14.6331  -19.0018 C   0  0  0  0  0  0  0  0  0  0  0  0
  -28.2230  -15.7333  -18.0924 O   0  0  0  0  0  0  0  0  0  0  0  0
  -28.3683  -15.3867  -17.1982 H   0  0  0  0  0  0  0  0  0  0  0  0
  9  1  1  0  0  0
 10  5  1  0  0  0
  1  5  1  0  0  0
  1  2  1  0  0  0
  5  7  1  0  0  0
 17  2  1  0  0  0
 17 18  1  0  0  0
  2  3  1  0  0  0
  7  8  1  0  0  0
  7  6  1  0  0  0
  3  6  2  0  0  0
  3 12  1  0  0  0
  6 11  1  0  0  0
 12  4  1  0  0  0
 11  4  2  0  0  0
  8 13  1  0  0  0
  9 14  1  0  0  0
 10 15  1  0  0  0
 18 19  1  0  0  0
 12 16  1  0  0  0
M  END
> <minimizedAffinity>
-9.41431

$$$$
5OST_AEZ_A_915


 19 20  0  0  0  0  0  0  0  0999 V2000
  -28.7221  -13.6109  -18.8223 C   0  0  0  0  0  0  0  0  0  0  0  0
  -30.1162  -13.5861  -18.2013 C   0  0  0  0  0  0  0  0  0  0  0  0
  -31.0479  -13.9882  -19.2848 C   0  0  0  0  0  0  0  0  0  0  0  0
  -32.6964  -14.2499  -20.6904 C   0  0  0  0  0  0  0  0  0  0  0  0
  -28.4052  -15.0422  -19.2818 C   0  0  0  0  0  0  0  0  0  0  0  0
  -30.6846  -14.9944  -20.2845 C   0  0  0  0  0  0  0  0  0  0  0  0
  -29.3495  -15.6253  -20.3623 C   0  0  0  0  0  0  0  0  0  0  0  0
  -29.3872  -17.0568  -20.4117 O   0  0  0  0  0  0  0  0  0  0  0  0
  -27.8131  -13.1854  -17.8042 O   0  0  0  0  0  0  0  0  0  0  0  0
  -27.0686  -15.0868  -19.8004 O   0  0  0  0  0  0  0  0  0  0  0  0
  -31.7261  -15.0976  -21.1035 N   0  0  0  0  0  0  0  0  0  0  0  0
  -32.2864  -13.5684  -19.5954 N   0  0  0  0  0  0  0  0  0  0  0  0
  -29.7611  -17.3991  -19.5847 H   0  0  0  0  0  0  0  0  0  0  0  0
  -27.8885  -13.7739  -17.0369 H   0  0  0  0  0  0  0  0  0  0  0  0
  -27.0085  -14.5243  -20.5883 H   0  0  0  0  0  0  0  0  0  0  0  0
  -32.8043  -12.8852  -19.1114 H   0  0  0  0  0  0  0  0  0  0  0  0
  -30.5328  -12.2398  -17.6095 C   0  0  0  0  0  0  0  0  0  0  0  0
  -31.5219  -12.4554  -16.5714 O   0  0  0  0  0  0  0  0  0  0  0  0
  -32.2977  -12.8970  -16.9508 H   0  0  0  0  0  0  0  0  0  0  0  0
  9  1  1  0  0  0
 10  5  1  0  0  0
  1  5  1  0  0  0
  1  2  1  0  0  0
  5  7  1  0  0  0
 17  2  1  0  0  0
 17 18  1  0  0  0
  2  3  1  0  0  0
  7  8  1  0  0  0
  7  6  1  0  0  0
  3  6  2  0  0  0
  3 12  1  0  0  0
  6 11  1  0  0  0
 12  4  1  0  0  0
 11  4  2  0  0  0
  8 13  1  0  0  0
  9 14  1  0  0  0
 10 15  1  0  0  0
 18 19  1  0  0  0
 12 16  1  0  0  0
M  END
> <minimizedAffinity>
-8.01399

$$$$
5OST_AEZ_A_915


 19 20  0  0  0  0  0  0  0  0999 V2000
  -30.9151  -15.4434  -20.2771 C   0  0  0  0  0  0  0  0  0  0  0  0
  -31.1866  -13.9422  -20.3244 C   0  0  0  0  0  0  0  0  0  0  0  0
  -30.3996  -13.3544  -19.2112 C   0  0  0  0  0  0  0  0  0  0  0  0
  -29.6206  -12.2153  -17.5210 C   0  0  0  0  0  0  0  0  0  0  0  0
  -29.4162  -15.6878  -20.5085 C   0  0  0  0  0  0  0  0  0  0  0  0
  -29.0822  -13.8720  -18.8369 C   0  0  0  0  0  0  0  0  0  0  0  0
  -28.4639  -15.0622  -19.4594 C   0  0  0  0  0  0  0  0  0  0  0  0
  -27.1260  -14.8442  -19.9235 O   0  0  0  0  0  0  0  0  0  0  0  0
  -31.6983  -16.0337  -21.3173 O   0  0  0  0  0  0  0  0  0  0  0  0
  -29.1667  -17.1000  -20.5372 O   0  0  0  0  0  0  0  0  0  0  0  0
  -28.6741  -13.1390  -17.8061 N   0  0  0  0  0  0  0  0  0  0  0  0
  -30.6721  -12.3484  -18.3626 N   0  0  0  0  0  0  0  0  0  0  0  0
  -27.1339  -14.1844  -20.6345 H   0  0  0  0  0  0  0  0  0  0  0  0
  -31.4547  -15.6389  -22.1692 H   0  0  0  0  0  0  0  0  0  0  0  0
  -29.3785  -17.4834  -19.6717 H   0  0  0  0  0  0  0  0  0  0  0  0
  -31.4923  -11.8039  -18.3546 H   0  0  0  0  0  0  0  0  0  0  0  0
  -32.6591  -13.5506  -20.2039 C   0  0  0  0  0  0  0  0  0  0  0  0
  -32.7738  -12.1052  -20.1935 O   0  0  0  0  0  0  0  0  0  0  0  0
  -32.2803  -11.7472  -19.4391 H   0  0  0  0  0  0  0  0  0  0  0  0
  9  1  1  0  0  0
 10  5  1  0  0  0
  1  5  1  0  0  0
  1  2  1  0  0  0
  5  7  1  0  0  0
 17  2  1  0  0  0
 17 18  1  0  0  0
  2  3  1  0  0  0
  7  8  1  0  0  0
  7  6  1  0  0  0
  3  6  2  0  0  0
  3 12  1  0  0  0
  6 11  1  0  0  0
 12  4  1  0  0  0
 11  4  2  0  0  0
  8 13  1  0  0  0
  9 14  1  0  0  0
 10 15  1  0  0  0
 18 19  1  0  0  0
 12 16  1  0  0  0
M  END
> <minimizedAffinity>
-7.84284

$$$$
5OST_AEZ_A_915


 19 20  0  0  0  0  0  0  0  0999 V2000
  -30.1111  -15.5677  -20.2070 C   0  0  0  0  0  0  0  0  0  0  0  0
  -30.9793  -14.3180  -20.3263 C   0  0  0  0  0  0  0  0  0  0  0  0
  -31.0608  -13.7509  -18.9568 C   0  0  0  0  0  0  0  0  0  0  0  0
  -31.6271  -12.8282  -17.0622 C   0  0  0  0  0  0  0  0  0  0  0  0
  -28.7109  -15.1592  -19.7245 C   0  0  0  0  0  0  0  0  0  0  0  0
  -29.9275  -13.7972  -18.0310 C   0  0  0  0  0  0  0  0  0  0  0  0
  -28.6513  -14.4801  -18.3337 C   0  0  0  0  0  0  0  0  0  0  0  0
  -27.4927  -13.6656  -18.1170 O   0  0  0  0  0  0  0  0  0  0  0  0
  -30.0547  -16.1526  -21.5103 O   0  0  0  0  0  0  0  0  0  0  0  0
  -27.8694  -16.3200  -19.6798 O   0  0  0  0  0  0  0  0  0  0  0  0
  -30.3434  -13.2259  -16.9055 N   0  0  0  0  0  0  0  0  0  0  0  0
  -32.0692  -13.1531  -18.2993 N   0  0  0  0  0  0  0  0  0  0  0  0
  -27.5075  -12.9130  -18.7288 H   0  0  0  0  0  0  0  0  0  0  0  0
  -29.6935  -15.5080  -22.1387 H   0  0  0  0  0  0  0  0  0  0  0  0
  -28.2157  -16.9453  -19.0241 H   0  0  0  0  0  0  0  0  0  0  0  0
  -32.9710  -12.9818  -18.6552 H   0  0  0  0  0  0  0  0  0  0  0  0
  -32.3795  -14.5589  -20.8900 C   0  0  0  0  0  0  0  0  0  0  0  0
  -32.8306  -15.8833  -20.5095 O   0  0  0  0  0  0  0  0  0  0  0  0
  -32.2193  -16.5475  -20.8645 H   0  0  0  0  0  0  0  0  0  0  0  0
  9  1  1  0  0  0
 10  5  1  0  0  0
  1  5  1  0  0  0
  1  2  1  0  0  0
  5  7  1  0  0  0
 17  2  1  0  0  0
 17 18  1  0  0  0
  2  3  1  0  0  0
  7  8  1  0  0  0
  7  6  1  0  0  0
  3  6  2  0  0  0
  3 12  1  0  0  0
  6 11  1  0  0  0
 12  4  1  0  0  0
 11  4  2  0  0  0
  8 13  1  0  0  0
  9 14  1  0  0  0
 10 15  1  0  0  0
 18 19  1  0  0  0
 12 16  1  0  0  0
M  END
> <minimizedAffinity>
-7.68347

$$$$
5OST_AEZ_A_915


 19 20  0  0  0  0  0  0  0  0999 V2000
  -29.3790  -15.0542  -20.3719 C   0  0  0  0  0  0  0  0  0  0  0  0
  -29.9046  -14.2959  -19.1560 C   0  0  0  0  0  0  0  0  0  0  0  0
  -31.2060  -13.7163  -19.5734 C   0  0  0  0  0  0  0  0  0  0  0  0
  -32.9768  -12.4935  -19.9347 C   0  0  0  0  0  0  0  0  0  0  0  0
  -30.3647  -16.1786  -20.7241 C   0  0  0  0  0  0  0  0  0  0  0  0
  -32.1177  -14.4273  -20.4718 C   0  0  0  0  0  0  0  0  0  0  0  0
  -31.7945  -15.7226  -21.1076 C   0  0  0  0  0  0  0  0  0  0  0  0
  -32.8061  -16.7221  -20.9330 O   0  0  0  0  0  0  0  0  0  0  0  0
  -28.1043  -15.5859  -20.0028 O   0  0  0  0  0  0  0  0  0  0  0  0
  -29.8406  -16.9399  -21.8210 O   0  0  0  0  0  0  0  0  0  0  0  0
  -33.1637  -13.6271  -20.6493 N   0  0  0  0  0  0  0  0  0  0  0  0
  -31.7880  -12.5384  -19.2896 N   0  0  0  0  0  0  0  0  0  0  0  0
  -32.8891  -16.9370  -19.9907 H   0  0  0  0  0  0  0  0  0  0  0  0
  -28.2048  -16.1559  -19.2244 H   0  0  0  0  0  0  0  0  0  0  0  0
  -29.7758  -16.3737  -22.6059 H   0  0  0  0  0  0  0  0  0  0  0  0
  -31.4150  -11.8325  -18.7137 H   0  0  0  0  0  0  0  0  0  0  0  0
  -28.9760  -13.2021  -18.6291 C   0  0  0  0  0  0  0  0  0  0  0  0
  -27.9913  -13.7918  -17.7432 O   0  0  0  0  0  0  0  0  0  0  0  0
  -28.4418  -14.2210  -16.9991 H   0  0  0  0  0  0  0  0  0  0  0  0
  9  1  1  0  0  0
 10  5  1  0  0  0
  1  5  1  0  0  0
  1  2  1  0  0  0
  5  7  1  0  0  0
 17  2  1  0  0  0
 17 18  1  0  0  0
  2  3  1  0  0  0
  7  8  1  0  0  0
  7  6  1  0  0  0
  3  6  2  0  0  0
  3 12  1  0  0  0
  6 11  1  0  0  0
 12  4  1  0  0  0
 11  4  2  0  0  0
  8 13  1  0  0  0
  9 14  1  0  0  0
 10 15  1  0  0  0
 18 19  1  0  0  0
 12 16  1  0  0  0
M  END
> <minimizedAffinity>
-7.43056

$$$$
5OST_AEZ_A_915


 19 20  0  0  0  0  0  0  0  0999 V2000
  -30.1766  -12.7911  -19.1348 C   0  0  0  0  0  0  0  0  0  0  0  0
  -31.4532  -13.6109  -19.3019 C   0  0  0  0  0  0  0  0  0  0  0  0
  -31.0841  -14.7615  -20.1642 C   0  0  0  0  0  0  0  0  0  0  0  0
  -30.9652  -16.3800  -21.6229 C   0  0  0  0  0  0  0  0  0  0  0  0
  -29.1170  -13.6538  -18.4326 C   0  0  0  0  0  0  0  0  0  0  0  0
  -29.7761  -15.4123  -20.0687 C   0  0  0  0  0  0  0  0  0  0  0  0
  -28.6885  -14.9372  -19.1866 C   0  0  0  0  0  0  0  0  0  0  0  0
  -28.1300  -15.9600  -18.3531 O   0  0  0  0  0  0  0  0  0  0  0  0
  -30.5217  -11.6539  -18.3402 O   0  0  0  0  0  0  0  0  0  0  0  0
  -27.9395  -12.8661  -18.2080 O   0  0  0  0  0  0  0  0  0  0  0  0
  -29.7736  -16.3776  -20.9821 N   0  0  0  0  0  0  0  0  0  0  0  0
  -31.7585  -15.3965  -21.1382 N   0  0  0  0  0  0  0  0  0  0  0  0
  -28.8076  -16.2820  -17.7383 H   0  0  0  0  0  0  0  0  0  0  0  0
  -30.8861  -11.9509  -17.4917 H   0  0  0  0  0  0  0  0  0  0  0  0
  -27.5597  -12.6019  -19.0605 H   0  0  0  0  0  0  0  0  0  0  0  0
  -32.6694  -15.1835  -21.4450 H   0  0  0  0  0  0  0  0  0  0  0  0
  -32.6334  -12.8481  -19.9034 C   0  0  0  0  0  0  0  0  0  0  0  0
  -32.9915  -11.7480  -19.0295 O   0  0  0  0  0  0  0  0  0  0  0  0
  -33.2396  -12.0947  -18.1582 H   0  0  0  0  0  0  0  0  0  0  0  0
  9  1  1  0  0  0
 10  5  1  0  0  0
  1  5  1  0  0  0
  1  2  1  0  0  0
  5  7  1  0  0  0
 17  2  1  0  0  0
 17 18  1  0  0  0
  2  3  1  0  0  0
  7  8  1  0  0  0
  7  6  1  0  0  0
  3  6  2  0  0  0
  3 12  1  0  0  0
  6 11  1  0  0  0
 12  4  1  0  0  0
 11  4  2  0  0  0
  8 13  1  0  0  0
  9 14  1  0  0  0
 10 15  1  0  0  0
 18 19  1  0  0  0
 12 16  1  0  0  0
M  END
> <minimizedAffinity>
-7.37881

$$$$
5OST_AEZ_A_915


 19 20  0  0  0  0  0  0  0  0999 V2000
  -31.5845  -12.5789  -19.3192 C   0  0  0  0  0  0  0  0  0  0  0  0
  -31.6018  -14.0913  -19.5238 C   0  0  0  0  0  0  0  0  0  0  0  0
  -30.1841  -14.5251  -19.4484 C   0  0  0  0  0  0  0  0  0  0  0  0
  -28.2237  -15.4534  -19.6862 C   0  0  0  0  0  0  0  0  0  0  0  0
  -31.0150  -12.2695  -17.9263 C   0  0  0  0  0  0  0  0  0  0  0  0
  -29.2305  -13.8982  -18.5312 C   0  0  0  0  0  0  0  0  0  0  0  0
  -29.5597  -12.7372  -17.6767 C   0  0  0  0  0  0  0  0  0  0  0  0
  -29.2200  -12.9186  -16.2966 O   0  0  0  0  0  0  0  0  0  0  0  0
  -32.9391  -12.1355  -19.4301 O   0  0  0  0  0  0  0  0  0  0  0  0
  -31.0634  -10.8539  -17.6998 O   0  0  0  0  0  0  0  0  0  0  0  0
  -28.0662  -14.5063  -18.7329 N   0  0  0  0  0  0  0  0  0  0  0  0
  -29.5022  -15.4616  -20.1299 N   0  0  0  0  0  0  0  0  0  0  0  0
  -29.7500  -13.6414  -15.9256 H   0  0  0  0  0  0  0  0  0  0  0  0
  -33.4842  -12.5933  -18.7711 H   0  0  0  0  0  0  0  0  0  0  0  0
  -30.4888  -10.4044  -18.3391 H   0  0  0  0  0  0  0  0  0  0  0  0
  -29.8685  -16.0502  -20.8290 H   0  0  0  0  0  0  0  0  0  0  0  0
  -32.2346  -14.5558  -20.8354 C   0  0  0  0  0  0  0  0  0  0  0  0
  -32.4004  -15.9959  -20.8067 O   0  0  0  0  0  0  0  0  0  0  0  0
  -31.5345  -16.4189  -20.6967 H   0  0  0  0  0  0  0  0  0  0  0  0
  9  1  1  0  0  0
 10  5  1  0  0  0
  1  5  1  0  0  0
  1  2  1  0  0  0
  5  7  1  0  0  0
 17  2  1  0  0  0
 17 18  1  0  0  0
  2  3  1  0  0  0
  7  8  1  0  0  0
  7  6  1  0  0  0
  3  6  2  0  0  0
  3 12  1  0  0  0
  6 11  1  0  0  0
 12  4  1  0  0  0
 11  4  2  0  0  0
  8 13  1  0  0  0
  9 14  1  0  0  0
 10 15  1  0  0  0
 18 19  1  0  0  0
 12 16  1  0  0  0
M  END
> <minimizedAffinity>
-7.37691

$$$$
5OST_AEZ_A_915


 19 20  0  0  0  0  0  0  0  0999 V2000
  -29.5767  -16.4385  -20.0394 C   0  0  0  0  0  0  0  0  0  0  0  0
  -30.3454  -16.1657  -21.3295 C   0  0  0  0  0  0  0  0  0  0  0  0
  -31.3861  -15.1678  -20.9759 C   0  0  0  0  0  0  0  0  0  0  0  0
  -33.1852  -13.9545  -20.7469 C   0  0  0  0  0  0  0  0  0  0  0  0
  -28.9145  -15.1353  -19.5671 C   0  0  0  0  0  0  0  0  0  0  0  0
  -31.1371  -14.1003  -20.0053 C   0  0  0  0  0  0  0  0  0  0  0  0
  -29.8821  -13.9727  -19.2338 C   0  0  0  0  0  0  0  0  0  0  0  0
  -29.2922  -12.6686  -19.2987 O   0  0  0  0  0  0  0  0  0  0  0  0
  -28.5948  -17.4301  -20.3502 O   0  0  0  0  0  0  0  0  0  0  0  0
  -28.1315  -15.4010  -18.3950 O   0  0  0  0  0  0  0  0  0  0  0  0
  -32.2687  -13.4095  -19.9141 N   0  0  0  0  0  0  0  0  0  0  0  0
  -32.6587  -15.0258  -21.3845 N   0  0  0  0  0  0  0  0  0  0  0  0
  -29.0269  -12.4789  -20.2123 H   0  0  0  0  0  0  0  0  0  0  0  0
  -28.0218  -17.1056  -21.0625 H   0  0  0  0  0  0  0  0  0  0  0  0
  -28.7142  -15.6909  -17.6758 H   0  0  0  0  0  0  0  0  0  0  0  0
  -33.1257  -15.6002  -22.0335 H   0  0  0  0  0  0  0  0  0  0  0  0
  -30.9817  -17.3980  -21.9721 C   0  0  0  0  0  0  0  0  0  0  0  0
  -30.0545  -17.9778  -22.9240 O   0  0  0  0  0  0  0  0  0  0  0  0
  -29.8458  -17.3253  -23.6106 H   0  0  0  0  0  0  0  0  0  0  0  0
  9  1  1  0  0  0
 10  5  1  0  0  0
  1  5  1  0  0  0
  1  2  1  0  0  0
  5  7  1  0  0  0
 17  2  1  0  0  0
 17 18  1  0  0  0
  2  3  1  0  0  0
  7  8  1  0  0  0
  7  6  1  0  0  0
  3  6  2  0  0  0
  3 12  1  0  0  0
  6 11  1  0  0  0
 12  4  1  0  0  0
 11  4  2  0  0  0
  8 13  1  0  0  0
  9 14  1  0  0  0
 10 15  1  0  0  0
 18 19  1  0  0  0
 12 16  1  0  0  0
M  END
> <minimizedAffinity>
-7.19772

$$$$
5OST_AEZ_A_915


 19 20  0  0  0  0  0  0  0  0999 V2000
  -31.0192  -16.2506  -20.7333 C   0  0  0  0  0  0  0  0  0  0  0  0
  -31.6365  -14.8770  -20.9820 C   0  0  0  0  0  0  0  0  0  0  0  0
  -31.1921  -14.0240  -19.8513 C   0  0  0  0  0  0  0  0  0  0  0  0
  -30.9757  -12.5974  -18.2143 C   0  0  0  0  0  0  0  0  0  0  0  0
  -29.4885  -16.1201  -20.7451 C   0  0  0  0  0  0  0  0  0  0  0  0
  -29.8600  -14.1568  -19.2582 C   0  0  0  0  0  0  0  0  0  0  0  0
  -28.8851  -15.1931  -19.6608 C   0  0  0  0  0  0  0  0  0  0  0  0
  -27.5861  -14.6761  -19.9739 O   0  0  0  0  0  0  0  0  0  0  0  0
  -31.4703  -17.0996  -21.7914 O   0  0  0  0  0  0  0  0  0  0  0  0
  -28.9023  -17.4193  -20.5839 O   0  0  0  0  0  0  0  0  0  0  0  0
  -29.8015  -13.2671  -18.2728 N   0  0  0  0  0  0  0  0  0  0  0  0
  -31.8248  -13.0593  -19.1616 N   0  0  0  0  0  0  0  0  0  0  0  0
  -27.6470  -14.0967  -20.7495 H   0  0  0  0  0  0  0  0  0  0  0  0
  -31.2047  -16.7219  -22.6445 H   0  0  0  0  0  0  0  0  0  0  0  0
  -29.1422  -17.7767  -19.7146 H   0  0  0  0  0  0  0  0  0  0  0  0
  -32.7442  -12.7440  -19.3181 H   0  0  0  0  0  0  0  0  0  0  0  0
  -33.1610  -14.8674  -21.0927 C   0  0  0  0  0  0  0  0  0  0  0  0
  -33.6992  -16.0410  -20.4330 O   0  0  0  0  0  0  0  0  0  0  0  0
  -33.3482  -16.8398  -20.8570 H   0  0  0  0  0  0  0  0  0  0  0  0
  9  1  1  0  0  0
 10  5  1  0  0  0
  1  5  1  0  0  0
  1  2  1  0  0  0
  5  7  1  0  0  0
 17  2  1  0  0  0
 17 18  1  0  0  0
  2  3  1  0  0  0
  7  8  1  0  0  0
  7  6  1  0  0  0
  3  6  2  0  0  0
  3 12  1  0  0  0
  6 11  1  0  0  0
 12  4  1  0  0  0
 11  4  2  0  0  0
  8 13  1  0  0  0
  9 14  1  0  0  0
 10 15  1  0  0  0
 18 19  1  0  0  0
 12 16  1  0  0  0
M  END
> <minimizedAffinity>
-7.18147

$$$$
5OST_AEZ_A_915


 19 20  0  0  0  0  0  0  0  0999 V2000
  -31.6268  -13.5918  -20.4895 C   0  0  0  0  0  0  0  0  0  0  0  0
  -32.5631  -14.7962  -20.5396 C   0  0  0  0  0  0  0  0  0  0  0  0
  -31.7906  -15.8810  -21.1954 C   0  0  0  0  0  0  0  0  0  0  0  0
  -31.0659  -17.5737  -22.3664 C   0  0  0  0  0  0  0  0  0  0  0  0
  -30.3985  -13.9488  -19.6386 C   0  0  0  0  0  0  0  0  0  0  0  0
  -30.3533  -16.0509  -20.9737 C   0  0  0  0  0  0  0  0  0  0  0  0
  -29.5351  -15.1222  -20.1647 C   0  0  0  0  0  0  0  0  0  0  0  0
  -28.7389  -15.7713  -19.1659 O   0  0  0  0  0  0  0  0  0  0  0  0
  -32.3678  -12.5219  -19.8979 O   0  0  0  0  0  0  0  0  0  0  0  0
  -29.5497  -12.7978  -19.5279 O   0  0  0  0  0  0  0  0  0  0  0  0
  -29.9829  -17.0891  -21.7160 N   0  0  0  0  0  0  0  0  0  0  0  0
  -32.1610  -16.8391  -22.0623 N   0  0  0  0  0  0  0  0  0  0  0  0
  -29.3195  -16.1991  -18.5172 H   0  0  0  0  0  0  0  0  0  0  0  0
  -32.6759  -12.7897  -19.0180 H   0  0  0  0  0  0  0  0  0  0  0  0
  -29.2164  -12.5563  -20.4062 H   0  0  0  0  0  0  0  0  0  0  0  0
  -33.0694  -16.9813  -22.4142 H   0  0  0  0  0  0  0  0  0  0  0  0
  -33.8806  -14.5565  -21.2766 C   0  0  0  0  0  0  0  0  0  0  0  0
  -34.6990  -15.7509  -21.2008 O   0  0  0  0  0  0  0  0  0  0  0  0
  -34.2277  -16.4924  -21.6119 H   0  0  0  0  0  0  0  0  0  0  0  0
  9  1  1  0  0  0
 10  5  1  0  0  0
  1  5  1  0  0  0
  1  2  1  0  0  0
  5  7  1  0  0  0
 17  2  1  0  0  0
 17 18  1  0  0  0
  2  3  1  0  0  0
  7  8  1  0  0  0
  7  6  1  0  0  0
  3  6  2  0  0  0
  3 12  1  0  0  0
  6 11  1  0  0  0
 12  4  1  0  0  0
 11  4  2  0  0  0
  8 13  1  0  0  0
  9 14  1  0  0  0
 10 15  1  0  0  0
 18 19  1  0  0  0
 12 16  1  0  0  0
M  END
> <minimizedAffinity>
-7.14755

$$$$
