4TQN_UL4_A_1201


 26 27  0  0  0  0  0  0  0  0999 V2000
  -13.8886   -1.0017   -2.3522 C   0  0  0  0  0  0  0  0  0  0  0  0
  -14.3278    0.0224   -1.8756 O   0  0  0  0  0  0  0  0  0  0  0  0
  -12.5906   -1.1968   -2.6136 N   0  0  0  0  0  0  0  0  0  0  0  0
  -12.3099   -2.0528   -3.0107 H   0  0  0  0  0  0  0  0  0  0  0  0
  -15.5358   -4.3813   -2.3362 C   0  0  0  0  0  0  0  0  0  0  0  0
  -16.6668   -4.1662   -3.1163 C   0  0  0  0  0  0  0  0  0  0  0  0
  -16.8918   -2.9020   -3.6481 C   0  0  0  0  0  0  0  0  0  0  0  0
  -16.0013   -1.8583   -3.4154 C   0  0  0  0  0  0  0  0  0  0  0  0
  -14.6363   -3.3478   -2.1002 C   0  0  0  0  0  0  0  0  0  0  0  0
  -14.8750   -2.0898   -2.6380 C   0  0  0  0  0  0  0  0  0  0  0  0
  -15.5370   -5.9673   -0.5849 O   0  0  0  0  0  0  0  0  0  0  0  0
  -15.2758   -5.7364   -1.7533 C   0  0  0  0  0  0  0  0  0  0  0  0
  -14.7416   -6.6878   -2.5097 O   0  0  0  0  0  0  0  0  0  0  0  0
  -15.9140   -5.2983   -0.0480 H   0  0  0  0  0  0  0  0  0  0  0  0
  -11.6454   -0.2550   -2.3502 C   0  0  0  0  0  0  0  0  0  0  0  0
  -11.4006    0.7861   -3.2346 C   0  0  0  0  0  0  0  0  0  0  0  0
  -10.4377    1.7470   -2.9295 C   0  0  0  0  0  0  0  0  0  0  0  0
   -9.7175    1.6942   -1.7441 C   0  0  0  0  0  0  0  0  0  0  0  0
   -9.9767    0.6529   -0.8560 C   0  0  0  0  0  0  0  0  0  0  0  0
  -10.9380   -0.2964   -1.1634 C   0  0  0  0  0  0  0  0  0  0  0  0
  -10.1629    2.8428   -3.8901 C   0  0  0  0  0  0  0  0  0  0  0  0
   -9.1000    3.4403   -3.8010 O   0  0  0  0  0  0  0  0  0  0  0  0
  -11.1744    3.1374   -4.9531 C   0  0  0  0  0  0  0  0  0  0  0  0
  -11.1902   -1.3197   -0.3019 O   0  0  0  0  0  0  0  0  0  0  0  0
  -12.0332   -1.1226    0.8300 C   0  0  0  0  0  0  0  0  0  0  0  0
  -12.8073   -2.4062    1.0061 C   0  0  0  0  0  0  0  0  0  0  0  0
 13 12  2  0  0  0
 11 12  1  0  0  0
 12  5  1  0  0  0
  6  5  2  0  0  0
  6  7  1  0  0  0
  5  9  1  0  0  0
  7  8  2  0  0  0
  9 10  2  0  0  0
  8 10  1  0  0  0
 10  1  1  0  0  0
  1  2  2  0  0  0
  1  3  1  0  0  0
 23 21  1  0  0  0
  3 15  1  0  0  0
 16 15  2  0  0  0
 16 17  1  0  0  0
 15 20  1  0  0  0
 21 17  1  0  0  0
 21 22  2  0  0  0
 17 18  2  0  0  0
 20 24  1  0  0  0
 20 19  2  0  0  0
 24 25  1  0  0  0
 18 19  1  0  0  0
 26 25  1  0  0  0
 11 14  1  0  0  0
  3  4  1  0  0  0
M  END
> <minimizedAffinity>
-7.38449

$$$$
4TQN_UL4_A_1201


 26 27  0  0  0  0  0  0  0  0999 V2000
  -13.8801   -0.9805   -2.3290 C   0  0  0  0  0  0  0  0  0  0  0  0
  -14.3210    0.0637   -1.9002 O   0  0  0  0  0  0  0  0  0  0  0  0
  -12.5792   -1.1925   -2.5613 N   0  0  0  0  0  0  0  0  0  0  0  0
  -12.2971   -2.0648   -2.9200 H   0  0  0  0  0  0  0  0  0  0  0  0
  -16.7951   -2.8427   -3.8024 C   0  0  0  0  0  0  0  0  0  0  0  0
  -16.7401   -4.0609   -3.1338 C   0  0  0  0  0  0  0  0  0  0  0  0
  -15.7369   -4.2736   -2.1957 C   0  0  0  0  0  0  0  0  0  0  0  0
  -14.7975   -3.2860   -1.9154 C   0  0  0  0  0  0  0  0  0  0  0  0
  -15.8650   -1.8465   -3.5279 C   0  0  0  0  0  0  0  0  0  0  0  0
  -14.8681   -2.0739   -2.5881 C   0  0  0  0  0  0  0  0  0  0  0  0
  -17.6524   -1.8814   -5.7831 O   0  0  0  0  0  0  0  0  0  0  0  0
  -17.8679   -2.5943   -4.8176 C   0  0  0  0  0  0  0  0  0  0  0  0
  -19.0672   -3.1406   -4.6564 O   0  0  0  0  0  0  0  0  0  0  0  0
  -16.8073   -1.4941   -5.9002 H   0  0  0  0  0  0  0  0  0  0  0  0
  -11.6329   -0.2460   -2.3196 C   0  0  0  0  0  0  0  0  0  0  0  0
  -11.3978    0.7833   -3.2202 C   0  0  0  0  0  0  0  0  0  0  0  0
  -10.4335    1.7495   -2.9372 C   0  0  0  0  0  0  0  0  0  0  0  0
   -9.7022    1.7137   -1.7579 C   0  0  0  0  0  0  0  0  0  0  0  0
   -9.9516    0.6843   -0.8535 C   0  0  0  0  0  0  0  0  0  0  0  0
  -10.9144   -0.2704   -1.1389 C   0  0  0  0  0  0  0  0  0  0  0  0
  -10.1692    2.8326   -3.9151 C   0  0  0  0  0  0  0  0  0  0  0  0
   -9.0975    3.4180   -3.8578 O   0  0  0  0  0  0  0  0  0  0  0  0
  -11.2027    3.1289   -4.9563 C   0  0  0  0  0  0  0  0  0  0  0  0
  -11.1571   -1.2822   -0.2613 O   0  0  0  0  0  0  0  0  0  0  0  0
  -12.0210   -1.0820    0.8542 C   0  0  0  0  0  0  0  0  0  0  0  0
  -12.7627   -2.3817    1.0500 C   0  0  0  0  0  0  0  0  0  0  0  0
 13 12  2  0  0  0
 11 12  1  0  0  0
 12  5  1  0  0  0
  6  5  2  0  0  0
  6  7  1  0  0  0
  5  9  1  0  0  0
  7  8  2  0  0  0
  9 10  2  0  0  0
  8 10  1  0  0  0
 10  1  1  0  0  0
  1  2  2  0  0  0
  1  3  1  0  0  0
 23 21  1  0  0  0
  3 15  1  0  0  0
 16 15  2  0  0  0
 16 17  1  0  0  0
 15 20  1  0  0  0
 21 17  1  0  0  0
 21 22  2  0  0  0
 17 18  2  0  0  0
 20 24  1  0  0  0
 20 19  2  0  0  0
 24 25  1  0  0  0
 18 19  1  0  0  0
 26 25  1  0  0  0
 11 14  1  0  0  0
  3  4  1  0  0  0
M  END
> <minimizedAffinity>
-7.35587

$$$$
4TQN_UL4_A_1201


 26 27  0  0  0  0  0  0  0  0999 V2000
  -15.0636   -2.4524   -2.3538 C   0  0  0  0  0  0  0  0  0  0  0  0
  -15.5300   -3.5150   -2.0045 O   0  0  0  0  0  0  0  0  0  0  0  0
  -15.5498   -1.7318   -3.3714 N   0  0  0  0  0  0  0  0  0  0  0  0
  -15.1110   -0.8815   -3.6031 H   0  0  0  0  0  0  0  0  0  0  0  0
  -11.9001   -0.5968   -1.5265 C   0  0  0  0  0  0  0  0  0  0  0  0
  -11.6904   -0.9422   -0.1958 C   0  0  0  0  0  0  0  0  0  0  0  0
  -12.5958   -1.7871    0.4350 C   0  0  0  0  0  0  0  0  0  0  0  0
  -13.6985   -2.2926   -0.2470 C   0  0  0  0  0  0  0  0  0  0  0  0
  -12.9955   -1.0988   -2.2199 C   0  0  0  0  0  0  0  0  0  0  0  0
  -13.8919   -1.9418   -1.5759 C   0  0  0  0  0  0  0  0  0  0  0  0
  -11.0630    0.5541   -3.4126 O   0  0  0  0  0  0  0  0  0  0  0  0
  -10.9363    0.3132   -2.2240 C   0  0  0  0  0  0  0  0  0  0  0  0
   -9.9271    0.8480   -1.5471 O   0  0  0  0  0  0  0  0  0  0  0  0
  -11.7740    0.1785   -3.8935 H   0  0  0  0  0  0  0  0  0  0  0  0
  -16.6284   -2.1320   -4.0969 C   0  0  0  0  0  0  0  0  0  0  0  0
  -16.6167   -3.3251   -4.8056 C   0  0  0  0  0  0  0  0  0  0  0  0
  -17.7436   -3.7181   -5.5260 C   0  0  0  0  0  0  0  0  0  0  0  0
  -18.8945   -2.9423   -5.5430 C   0  0  0  0  0  0  0  0  0  0  0  0
  -18.9030   -1.7518   -4.8202 C   0  0  0  0  0  0  0  0  0  0  0  0
  -17.7811   -1.3691   -4.1027 C   0  0  0  0  0  0  0  0  0  0  0  0
  -17.7162   -4.9817   -6.3018 C   0  0  0  0  0  0  0  0  0  0  0  0
  -16.8245   -5.7856   -6.0711 O   0  0  0  0  0  0  0  0  0  0  0  0
  -18.8048   -5.2383   -7.2964 C   0  0  0  0  0  0  0  0  0  0  0  0
  -17.7821   -0.2033   -3.4002 O   0  0  0  0  0  0  0  0  0  0  0  0
  -18.6501    0.8647   -3.7700 C   0  0  0  0  0  0  0  0  0  0  0  0
  -19.4024    1.2473   -2.5188 C   0  0  0  0  0  0  0  0  0  0  0  0
 13 12  2  0  0  0
 11 12  1  0  0  0
 12  5  1  0  0  0
  6  5  2  0  0  0
  6  7  1  0  0  0
  5  9  1  0  0  0
  7  8  2  0  0  0
  9 10  2  0  0  0
  8 10  1  0  0  0
 10  1  1  0  0  0
  1  2  2  0  0  0
  1  3  1  0  0  0
 23 21  1  0  0  0
  3 15  1  0  0  0
 16 15  2  0  0  0
 16 17  1  0  0  0
 15 20  1  0  0  0
 21 17  1  0  0  0
 21 22  2  0  0  0
 17 18  2  0  0  0
 20 24  1  0  0  0
 20 19  2  0  0  0
 24 25  1  0  0  0
 18 19  1  0  0  0
 26 25  1  0  0  0
 11 14  1  0  0  0
  3  4  1  0  0  0
M  END
> <minimizedAffinity>
-7.12473

$$$$
4TQN_UL4_A_1201


 26 27  0  0  0  0  0  0  0  0999 V2000
  -15.5361   -1.1218   -3.1039 C   0  0  0  0  0  0  0  0  0  0  0  0
  -15.3943    0.0697   -2.9339 O   0  0  0  0  0  0  0  0  0  0  0  0
  -14.7700   -2.0477   -2.5148 N   0  0  0  0  0  0  0  0  0  0  0  0
  -14.9393   -2.9978   -2.7097 H   0  0  0  0  0  0  0  0  0  0  0  0
  -18.1246   -0.9953   -5.8278 C   0  0  0  0  0  0  0  0  0  0  0  0
  -18.6979   -2.2602   -5.7541 C   0  0  0  0  0  0  0  0  0  0  0  0
  -18.2287   -3.1619   -4.8062 C   0  0  0  0  0  0  0  0  0  0  0  0
  -17.2035   -2.8134   -3.9321 C   0  0  0  0  0  0  0  0  0  0  0  0
  -17.1028   -0.6338   -4.9571 C   0  0  0  0  0  0  0  0  0  0  0  0
  -16.6443   -1.5458   -4.0154 C   0  0  0  0  0  0  0  0  0  0  0  0
  -17.8634    0.4208   -7.7009 O   0  0  0  0  0  0  0  0  0  0  0  0
  -18.6155   -0.0095   -6.8430 C   0  0  0  0  0  0  0  0  0  0  0  0
  -19.8738    0.4114   -6.7982 O   0  0  0  0  0  0  0  0  0  0  0  0
  -16.9747    0.1260   -7.7356 H   0  0  0  0  0  0  0  0  0  0  0  0
  -13.7661   -1.7233   -1.6565 C   0  0  0  0  0  0  0  0  0  0  0  0
  -12.7155   -0.9079   -2.0531 C   0  0  0  0  0  0  0  0  0  0  0  0
  -11.7096   -0.5778   -1.1461 C   0  0  0  0  0  0  0  0  0  0  0  0
  -11.7392   -1.0403    0.1623 C   0  0  0  0  0  0  0  0  0  0  0  0
  -12.8026   -1.8488    0.5565 C   0  0  0  0  0  0  0  0  0  0  0  0
  -13.8013   -2.1696   -0.3488 C   0  0  0  0  0  0  0  0  0  0  0  0
  -10.5764    0.2732   -1.5829 C   0  0  0  0  0  0  0  0  0  0  0  0
   -9.7107    0.5519   -0.7659 O   0  0  0  0  0  0  0  0  0  0  0  0
  -10.5172    0.7132   -3.0122 C   0  0  0  0  0  0  0  0  0  0  0  0
  -14.8392   -2.9649    0.0296 O   0  0  0  0  0  0  0  0  0  0  0  0
  -14.7948   -3.6754    1.2641 C   0  0  0  0  0  0  0  0  0  0  0  0
  -14.5260   -5.1176    0.9096 C   0  0  0  0  0  0  0  0  0  0  0  0
 13 12  2  0  0  0
 11 12  1  0  0  0
 12  5  1  0  0  0
  6  5  2  0  0  0
  6  7  1  0  0  0
  5  9  1  0  0  0
  7  8  2  0  0  0
  9 10  2  0  0  0
  8 10  1  0  0  0
 10  1  1  0  0  0
  1  2  2  0  0  0
  1  3  1  0  0  0
 23 21  1  0  0  0
  3 15  1  0  0  0
 16 15  2  0  0  0
 16 17  1  0  0  0
 15 20  1  0  0  0
 21 17  1  0  0  0
 21 22  2  0  0  0
 17 18  2  0  0  0
 20 24  1  0  0  0
 20 19  2  0  0  0
 24 25  1  0  0  0
 18 19  1  0  0  0
 26 25  1  0  0  0
 11 14  1  0  0  0
  3  4  1  0  0  0
M  END
> <minimizedAffinity>
-7.10434

$$$$
4TQN_UL4_A_1201


 26 27  0  0  0  0  0  0  0  0999 V2000
  -15.5636   -1.3630   -3.1347 C   0  0  0  0  0  0  0  0  0  0  0  0
  -15.4937   -0.1642   -2.9712 O   0  0  0  0  0  0  0  0  0  0  0  0
  -14.7450   -2.2381   -2.5386 N   0  0  0  0  0  0  0  0  0  0  0  0
  -14.8566   -3.1977   -2.7284 H   0  0  0  0  0  0  0  0  0  0  0  0
  -17.4567   -3.5933   -5.4964 C   0  0  0  0  0  0  0  0  0  0  0  0
  -18.6063   -2.8528   -5.7498 C   0  0  0  0  0  0  0  0  0  0  0  0
  -18.7625   -1.6147   -5.1380 C   0  0  0  0  0  0  0  0  0  0  0  0
  -17.7856   -1.1085   -4.2860 C   0  0  0  0  0  0  0  0  0  0  0  0
  -16.4715   -3.0964   -4.6507 C   0  0  0  0  0  0  0  0  0  0  0  0
  -16.6420   -1.8576   -4.0464 C   0  0  0  0  0  0  0  0  0  0  0  0
  -16.2029   -5.5145   -6.0616 O   0  0  0  0  0  0  0  0  0  0  0  0
  -17.2699   -4.9303   -6.1453 C   0  0  0  0  0  0  0  0  0  0  0  0
  -18.2678   -5.4755   -6.8305 O   0  0  0  0  0  0  0  0  0  0  0  0
  -15.4964   -5.1327   -5.5789 H   0  0  0  0  0  0  0  0  0  0  0  0
  -13.7645   -1.8494   -1.6799 C   0  0  0  0  0  0  0  0  0  0  0  0
  -12.7346   -1.0160   -2.0930 C   0  0  0  0  0  0  0  0  0  0  0  0
  -11.7531   -0.6198   -1.1858 C   0  0  0  0  0  0  0  0  0  0  0  0
  -11.7871   -1.0335    0.1387 C   0  0  0  0  0  0  0  0  0  0  0  0
  -12.8300   -1.8605    0.5490 C   0  0  0  0  0  0  0  0  0  0  0  0
  -13.8047   -2.2472   -0.3567 C   0  0  0  0  0  0  0  0  0  0  0  0
  -10.6413    0.2503   -1.6394 C   0  0  0  0  0  0  0  0  0  0  0  0
   -9.7673    0.5422   -0.8360 O   0  0  0  0  0  0  0  0  0  0  0  0
  -10.6121    0.6929   -3.0689 C   0  0  0  0  0  0  0  0  0  0  0  0
  -14.8223   -3.0607    0.0377 O   0  0  0  0  0  0  0  0  0  0  0  0
  -14.8900   -3.5379    1.3788 C   0  0  0  0  0  0  0  0  0  0  0  0
  -15.4905   -4.9204    1.3032 C   0  0  0  0  0  0  0  0  0  0  0  0
 13 12  2  0  0  0
 11 12  1  0  0  0
 12  5  1  0  0  0
  6  5  2  0  0  0
  6  7  1  0  0  0
  5  9  1  0  0  0
  7  8  2  0  0  0
  9 10  2  0  0  0
  8 10  1  0  0  0
 10  1  1  0  0  0
  1  2  2  0  0  0
  1  3  1  0  0  0
 23 21  1  0  0  0
  3 15  1  0  0  0
 16 15  2  0  0  0
 16 17  1  0  0  0
 15 20  1  0  0  0
 21 17  1  0  0  0
 21 22  2  0  0  0
 17 18  2  0  0  0
 20 24  1  0  0  0
 20 19  2  0  0  0
 24 25  1  0  0  0
 18 19  1  0  0  0
 26 25  1  0  0  0
 11 14  1  0  0  0
  3  4  1  0  0  0
M  END
> <minimizedAffinity>
-6.99561

$$$$
4TQN_UL4_A_1201


 26 27  0  0  0  0  0  0  0  0999 V2000
  -14.1945   -2.3063   -1.3966 C   0  0  0  0  0  0  0  0  0  0  0  0
  -14.7600   -2.8532   -0.4747 O   0  0  0  0  0  0  0  0  0  0  0  0
  -14.5840   -2.4183   -2.6721 N   0  0  0  0  0  0  0  0  0  0  0  0
  -14.0678   -1.9517   -3.3686 H   0  0  0  0  0  0  0  0  0  0  0  0
  -11.3383    0.1081   -1.7815 C   0  0  0  0  0  0  0  0  0  0  0  0
  -10.8109    0.1545   -0.4955 C   0  0  0  0  0  0  0  0  0  0  0  0
  -11.3995   -0.6092    0.5055 C   0  0  0  0  0  0  0  0  0  0  0  0
  -12.4988   -1.4188    0.2358 C   0  0  0  0  0  0  0  0  0  0  0  0
  -12.4334   -0.7002   -2.0645 C   0  0  0  0  0  0  0  0  0  0  0  0
  -13.0111   -1.4574   -1.0536 C   0  0  0  0  0  0  0  0  0  0  0  0
  -11.2352    0.9740   -3.9774 O   0  0  0  0  0  0  0  0  0  0  0  0
  -10.7188    0.9244   -2.8739 C   0  0  0  0  0  0  0  0  0  0  0  0
   -9.5905    1.5852   -2.6440 O   0  0  0  0  0  0  0  0  0  0  0  0
  -12.0315    0.5089   -4.1433 H   0  0  0  0  0  0  0  0  0  0  0  0
  -15.6672   -3.1535   -3.0407 C   0  0  0  0  0  0  0  0  0  0  0  0
  -15.7032   -4.5277   -2.8501 C   0  0  0  0  0  0  0  0  0  0  0  0
  -16.8344   -5.2527   -3.2215 C   0  0  0  0  0  0  0  0  0  0  0  0
  -17.9431   -4.6256   -3.7730 C   0  0  0  0  0  0  0  0  0  0  0  0
  -17.9044   -3.2448   -3.9507 C   0  0  0  0  0  0  0  0  0  0  0  0
  -16.7786   -2.5294   -3.5755 C   0  0  0  0  0  0  0  0  0  0  0  0
  -16.8569   -6.7242   -3.0387 C   0  0  0  0  0  0  0  0  0  0  0  0
  -15.8783   -7.2628   -2.5420 O   0  0  0  0  0  0  0  0  0  0  0  0
  -18.0911   -7.4777   -3.4248 C   0  0  0  0  0  0  0  0  0  0  0  0
  -16.7333   -1.1807   -3.7533 O   0  0  0  0  0  0  0  0  0  0  0  0
  -17.8072   -0.4980   -4.3947 C   0  0  0  0  0  0  0  0  0  0  0  0
  -17.9362    0.8333   -3.6956 C   0  0  0  0  0  0  0  0  0  0  0  0
 13 12  2  0  0  0
 11 12  1  0  0  0
 12  5  1  0  0  0
  6  5  2  0  0  0
  6  7  1  0  0  0
  5  9  1  0  0  0
  7  8  2  0  0  0
  9 10  2  0  0  0
  8 10  1  0  0  0
 10  1  1  0  0  0
  1  2  2  0  0  0
  1  3  1  0  0  0
 23 21  1  0  0  0
  3 15  1  0  0  0
 16 15  2  0  0  0
 16 17  1  0  0  0
 15 20  1  0  0  0
 21 17  1  0  0  0
 21 22  2  0  0  0
 17 18  2  0  0  0
 20 24  1  0  0  0
 20 19  2  0  0  0
 24 25  1  0  0  0
 18 19  1  0  0  0
 26 25  1  0  0  0
 11 14  1  0  0  0
  3  4  1  0  0  0
M  END
> <minimizedAffinity>
-6.82026

$$$$
4TQN_UL4_A_1201


 26 27  0  0  0  0  0  0  0  0999 V2000
  -14.5209   -2.6613   -1.3855 C   0  0  0  0  0  0  0  0  0  0  0  0
  -15.2513   -3.0401   -0.4958 O   0  0  0  0  0  0  0  0  0  0  0  0
  -14.7349   -2.9271   -2.6797 N   0  0  0  0  0  0  0  0  0  0  0  0
  -14.0910   -2.5935   -3.3455 H   0  0  0  0  0  0  0  0  0  0  0  0
  -11.5834   -0.3268   -1.6231 C   0  0  0  0  0  0  0  0  0  0  0  0
  -11.1232   -0.2910   -0.3112 C   0  0  0  0  0  0  0  0  0  0  0  0
  -11.7843   -1.0356    0.6585 C   0  0  0  0  0  0  0  0  0  0  0  0
  -12.8896   -1.8157    0.3325 C   0  0  0  0  0  0  0  0  0  0  0  0
  -12.6838   -1.1058   -1.9622 C   0  0  0  0  0  0  0  0  0  0  0  0
  -13.3343   -1.8441   -0.9821 C   0  0  0  0  0  0  0  0  0  0  0  0
  -11.2041    0.3534   -3.8538 O   0  0  0  0  0  0  0  0  0  0  0  0
  -10.8853    0.4692   -2.6826 C   0  0  0  0  0  0  0  0  0  0  0  0
   -9.9011    1.2942   -2.3461 O   0  0  0  0  0  0  0  0  0  0  0  0
  -11.8983   -0.2280   -4.0951 H   0  0  0  0  0  0  0  0  0  0  0  0
  -15.8101   -3.6416   -3.1080 C   0  0  0  0  0  0  0  0  0  0  0  0
  -16.9837   -3.0120   -3.4979 C   0  0  0  0  0  0  0  0  0  0  0  0
  -18.0634   -3.7695   -3.9494 C   0  0  0  0  0  0  0  0  0  0  0  0
  -17.9888   -5.1532   -4.0307 C   0  0  0  0  0  0  0  0  0  0  0  0
  -16.8038   -5.7774   -3.6486 C   0  0  0  0  0  0  0  0  0  0  0  0
  -15.7329   -5.0183   -3.2048 C   0  0  0  0  0  0  0  0  0  0  0  0
  -19.3235   -3.0927   -4.3407 C   0  0  0  0  0  0  0  0  0  0  0  0
  -20.3433   -3.7627   -4.4168 O   0  0  0  0  0  0  0  0  0  0  0  0
  -19.3021   -1.6151   -4.5782 C   0  0  0  0  0  0  0  0  0  0  0  0
  -14.5751   -5.6241   -2.8239 O   0  0  0  0  0  0  0  0  0  0  0  0
  -14.6036   -6.8093   -2.0332 C   0  0  0  0  0  0  0  0  0  0  0  0
  -14.5480   -6.3563   -0.5947 C   0  0  0  0  0  0  0  0  0  0  0  0
 13 12  2  0  0  0
 11 12  1  0  0  0
 12  5  1  0  0  0
  6  5  2  0  0  0
  6  7  1  0  0  0
  5  9  1  0  0  0
  7  8  2  0  0  0
  9 10  2  0  0  0
  8 10  1  0  0  0
 10  1  1  0  0  0
  1  2  2  0  0  0
  1  3  1  0  0  0
 23 21  1  0  0  0
  3 15  1  0  0  0
 16 15  2  0  0  0
 16 17  1  0  0  0
 15 20  1  0  0  0
 21 17  1  0  0  0
 21 22  2  0  0  0
 17 18  2  0  0  0
 20 24  1  0  0  0
 20 19  2  0  0  0
 24 25  1  0  0  0
 18 19  1  0  0  0
 26 25  1  0  0  0
 11 14  1  0  0  0
  3  4  1  0  0  0
M  END
> <minimizedAffinity>
-6.45481

$$$$
4TQN_UL4_A_1201


 26 27  0  0  0  0  0  0  0  0999 V2000
  -15.7741   -4.2382   -3.7340 C   0  0  0  0  0  0  0  0  0  0  0  0
  -14.8536   -5.0245   -3.6780 O   0  0  0  0  0  0  0  0  0  0  0  0
  -15.9522   -3.2464   -2.8532 N   0  0  0  0  0  0  0  0  0  0  0  0
  -16.7304   -2.6526   -2.9581 H   0  0  0  0  0  0  0  0  0  0  0  0
  -18.3216   -3.3995   -6.3688 C   0  0  0  0  0  0  0  0  0  0  0  0
  -18.5368   -4.6306   -6.9790 C   0  0  0  0  0  0  0  0  0  0  0  0
  -17.8379   -5.7427   -6.5245 C   0  0  0  0  0  0  0  0  0  0  0  0
  -16.9365   -5.6400   -5.4694 C   0  0  0  0  0  0  0  0  0  0  0  0
  -17.4270   -3.2850   -5.3108 C   0  0  0  0  0  0  0  0  0  0  0  0
  -16.7357   -4.4053   -4.8681 C   0  0  0  0  0  0  0  0  0  0  0  0
  -18.4602   -1.1804   -7.1679 O   0  0  0  0  0  0  0  0  0  0  0  0
  -19.0644   -2.1889   -6.8444 C   0  0  0  0  0  0  0  0  0  0  0  0
  -20.3907   -2.2084   -6.8984 O   0  0  0  0  0  0  0  0  0  0  0  0
  -17.5241   -1.1630   -7.1311 H   0  0  0  0  0  0  0  0  0  0  0  0
  -15.0967   -3.0294   -1.8184 C   0  0  0  0  0  0  0  0  0  0  0  0
  -14.1025   -2.0642   -1.8967 C   0  0  0  0  0  0  0  0  0  0  0  0
  -13.2515   -1.8518   -0.8132 C   0  0  0  0  0  0  0  0  0  0  0  0
  -13.3825   -2.5822    0.3599 C   0  0  0  0  0  0  0  0  0  0  0  0
  -14.3898   -3.5411    0.4355 C   0  0  0  0  0  0  0  0  0  0  0  0
  -15.2351   -3.7443   -0.6435 C   0  0  0  0  0  0  0  0  0  0  0  0
  -12.1750   -0.8367   -0.9122 C   0  0  0  0  0  0  0  0  0  0  0  0
  -11.8719   -0.4176   -2.0199 O   0  0  0  0  0  0  0  0  0  0  0  0
  -11.5413   -0.3358    0.3478 C   0  0  0  0  0  0  0  0  0  0  0  0
  -16.2168   -4.6848   -0.5770 O   0  0  0  0  0  0  0  0  0  0  0  0
  -15.9927   -5.9193    0.0988 C   0  0  0  0  0  0  0  0  0  0  0  0
  -15.1619   -6.7650   -0.8352 C   0  0  0  0  0  0  0  0  0  0  0  0
 13 12  2  0  0  0
 11 12  1  0  0  0
 12  5  1  0  0  0
  6  5  2  0  0  0
  6  7  1  0  0  0
  5  9  1  0  0  0
  7  8  2  0  0  0
  9 10  2  0  0  0
  8 10  1  0  0  0
 10  1  1  0  0  0
  1  2  2  0  0  0
  1  3  1  0  0  0
 23 21  1  0  0  0
  3 15  1  0  0  0
 16 15  2  0  0  0
 16 17  1  0  0  0
 15 20  1  0  0  0
 21 17  1  0  0  0
 21 22  2  0  0  0
 17 18  2  0  0  0
 20 24  1  0  0  0
 20 19  2  0  0  0
 24 25  1  0  0  0
 18 19  1  0  0  0
 26 25  1  0  0  0
 11 14  1  0  0  0
  3  4  1  0  0  0
M  END
> <minimizedAffinity>
-6.23727

$$$$
4TQN_UL4_A_1201


 26 27  0  0  0  0  0  0  0  0999 V2000
  -14.8350   -3.6763    0.6067 C   0  0  0  0  0  0  0  0  0  0  0  0
  -14.8151   -3.4058    1.7878 O   0  0  0  0  0  0  0  0  0  0  0  0
  -15.4291   -4.7677    0.1094 N   0  0  0  0  0  0  0  0  0  0  0  0
  -15.3951   -4.9257   -0.8618 H   0  0  0  0  0  0  0  0  0  0  0  0
  -12.3770   -1.1464   -0.6944 C   0  0  0  0  0  0  0  0  0  0  0  0
  -12.8498   -0.9038   -1.9796 C   0  0  0  0  0  0  0  0  0  0  0  0
  -13.9812   -1.5784   -2.4231 C   0  0  0  0  0  0  0  0  0  0  0  0
  -14.6449   -2.4824   -1.5993 C   0  0  0  0  0  0  0  0  0  0  0  0
  -13.0339   -2.0439    0.1397 C   0  0  0  0  0  0  0  0  0  0  0  0
  -14.1630   -2.7107   -0.3178 C   0  0  0  0  0  0  0  0  0  0  0  0
  -10.8887   -0.4205    0.9911 O   0  0  0  0  0  0  0  0  0  0  0  0
  -11.1587   -0.4302   -0.1980 C   0  0  0  0  0  0  0  0  0  0  0  0
  -10.3765    0.2128   -1.0566 O   0  0  0  0  0  0  0  0  0  0  0  0
  -11.4385   -0.8732    1.6000 H   0  0  0  0  0  0  0  0  0  0  0  0
  -16.0780   -5.6663    0.8975 C   0  0  0  0  0  0  0  0  0  0  0  0
  -17.4130   -5.4951    1.2357 C   0  0  0  0  0  0  0  0  0  0  0  0
  -18.0569   -6.4421    2.0306 C   0  0  0  0  0  0  0  0  0  0  0  0
  -17.3915   -7.5711    2.4880 C   0  0  0  0  0  0  0  0  0  0  0  0
  -16.0550   -7.7422    2.1351 C   0  0  0  0  0  0  0  0  0  0  0  0
  -15.4221   -6.7993    1.3411 C   0  0  0  0  0  0  0  0  0  0  0  0
  -19.4764   -6.2407    2.4096 C   0  0  0  0  0  0  0  0  0  0  0  0
  -19.9565   -5.1228    2.2901 O   0  0  0  0  0  0  0  0  0  0  0  0
  -20.2704   -7.4208    2.8753 C   0  0  0  0  0  0  0  0  0  0  0  0
  -14.1143   -6.9586    0.9990 O   0  0  0  0  0  0  0  0  0  0  0  0
  -13.0998   -6.9688    1.9997 C   0  0  0  0  0  0  0  0  0  0  0  0
  -12.0758   -5.9465    1.5705 C   0  0  0  0  0  0  0  0  0  0  0  0
 13 12  2  0  0  0
 11 12  1  0  0  0
 12  5  1  0  0  0
  6  5  2  0  0  0
  6  7  1  0  0  0
  5  9  1  0  0  0
  7  8  2  0  0  0
  9 10  2  0  0  0
  8 10  1  0  0  0
 10  1  1  0  0  0
  1  2  2  0  0  0
  1  3  1  0  0  0
 23 21  1  0  0  0
  3 15  1  0  0  0
 16 15  2  0  0  0
 16 17  1  0  0  0
 15 20  1  0  0  0
 21 17  1  0  0  0
 21 22  2  0  0  0
 17 18  2  0  0  0
 20 24  1  0  0  0
 20 19  2  0  0  0
 24 25  1  0  0  0
 18 19  1  0  0  0
 26 25  1  0  0  0
 11 14  1  0  0  0
  3  4  1  0  0  0
M  END
> <minimizedAffinity>
-6.22767

$$$$
4TQN_UL4_A_1201


 26 27  0  0  0  0  0  0  0  0999 V2000
  -17.1931   -1.1121   -4.5379 C   0  0  0  0  0  0  0  0  0  0  0  0
  -16.7781   -0.0467   -4.9396 O   0  0  0  0  0  0  0  0  0  0  0  0
  -18.3713   -1.6307   -4.9039 N   0  0  0  0  0  0  0  0  0  0  0  0
  -18.6457   -2.4979   -4.5273 H   0  0  0  0  0  0  0  0  0  0  0  0
  -14.3605   -1.8841   -2.1893 C   0  0  0  0  0  0  0  0  0  0  0  0
  -14.6221   -3.2015   -1.8285 C   0  0  0  0  0  0  0  0  0  0  0  0
  -15.7382   -3.8392   -2.3571 C   0  0  0  0  0  0  0  0  0  0  0  0
  -16.5870   -3.1811   -3.2418 C   0  0  0  0  0  0  0  0  0  0  0  0
  -15.1986   -1.2173   -3.0758 C   0  0  0  0  0  0  0  0  0  0  0  0
  -16.3102   -1.8677   -3.5953 C   0  0  0  0  0  0  0  0  0  0  0  0
  -12.4203   -0.5468   -2.3614 O   0  0  0  0  0  0  0  0  0  0  0  0
  -13.1632   -1.1790   -1.6299 C   0  0  0  0  0  0  0  0  0  0  0  0
  -12.8998   -1.2568   -0.3310 O   0  0  0  0  0  0  0  0  0  0  0  0
  -12.6030   -0.4897   -3.2786 H   0  0  0  0  0  0  0  0  0  0  0  0
  -19.2033   -1.0027   -5.7776 C   0  0  0  0  0  0  0  0  0  0  0  0
  -18.9971   -1.0770   -7.1479 C   0  0  0  0  0  0  0  0  0  0  0  0
  -19.8768   -0.4376   -8.0201 C   0  0  0  0  0  0  0  0  0  0  0  0
  -20.9731    0.2701   -7.5470 C   0  0  0  0  0  0  0  0  0  0  0  0
  -21.1803    0.3308   -6.1710 C   0  0  0  0  0  0  0  0  0  0  0  0
  -20.3045   -0.3105   -5.3098 C   0  0  0  0  0  0  0  0  0  0  0  0
  -19.6369   -0.4996   -9.4822 C   0  0  0  0  0  0  0  0  0  0  0  0
  -19.9573    0.4628  -10.1647 O   0  0  0  0  0  0  0  0  0  0  0  0
  -18.9717   -1.7139  -10.0506 C   0  0  0  0  0  0  0  0  0  0  0  0
  -20.4988   -0.2485   -3.9640 O   0  0  0  0  0  0  0  0  0  0  0  0
  -20.6704    1.0080   -3.3139 C   0  0  0  0  0  0  0  0  0  0  0  0
  -19.3265    1.3645   -2.7269 C   0  0  0  0  0  0  0  0  0  0  0  0
 13 12  2  0  0  0
 11 12  1  0  0  0
 12  5  1  0  0  0
  6  5  2  0  0  0
  6  7  1  0  0  0
  5  9  1  0  0  0
  7  8  2  0  0  0
  9 10  2  0  0  0
  8 10  1  0  0  0
 10  1  1  0  0  0
  1  2  2  0  0  0
  1  3  1  0  0  0
 23 21  1  0  0  0
  3 15  1  0  0  0
 16 15  2  0  0  0
 16 17  1  0  0  0
 15 20  1  0  0  0
 21 17  1  0  0  0
 21 22  2  0  0  0
 17 18  2  0  0  0
 20 24  1  0  0  0
 20 19  2  0  0  0
 24 25  1  0  0  0
 18 19  1  0  0  0
 26 25  1  0  0  0
 11 14  1  0  0  0
  3  4  1  0  0  0
M  END
> <minimizedAffinity>
-6.18865

$$$$
