5GOF_GTP_A_901


 41 43  0  0  0  0  0  0  0  0999 V2000
    7.6692   -9.9547   33.8618 C   0  0  0  0  0  0  0  0  0  0  0  0
    8.7119   -9.4386   34.6653 O   0  0  0  0  0  0  0  0  0  0  0  0
    6.4209   -9.1513   34.1765 C   0  0  0  0  0  0  0  0  0  0  0  0
    5.6459   -9.8626   35.1138 O   0  0  0  0  0  0  0  0  0  0  0  0
    6.9206   -7.9119   34.8699 C   0  0  0  0  0  0  0  0  0  0  0  0
    6.0062   -7.4804   35.8457 O   0  0  0  0  0  0  0  0  0  0  0  0
    8.2280   -8.3935   35.4753 C   0  0  0  0  0  0  0  0  0  0  0  0
    6.1782  -10.0404   35.9050 H   0  0  0  0  0  0  0  0  0  0  0  0
    5.8396   -8.2006   36.4738 H   0  0  0  0  0  0  0  0  0  0  0  0
    9.1910   -7.2837   35.5112 N   0  0  0  0  0  0  0  0  0  0  0  0
    9.4145   -6.2985   34.5731 C   0  0  0  0  0  0  0  0  0  0  0  0
   10.3943   -5.4834   35.0523 N   0  0  0  0  0  0  0  0  0  0  0  0
   10.7977   -5.9555   36.2718 C   0  0  0  0  0  0  0  0  0  0  0  0
   11.7340   -5.5380   37.2079 C   0  0  0  0  0  0  0  0  0  0  0  0
   12.4616   -4.5528   37.0724 O   0  0  0  0  0  0  0  0  0  0  0  0
   11.8906   -6.2557   38.3604 N   0  0  0  0  0  0  0  0  0  0  0  0
   11.1295   -7.3653   38.6148 C   0  0  0  0  0  0  0  0  0  0  0  0
   11.3304   -8.0107   39.7676 N   0  0  0  0  0  0  0  0  0  0  0  0
   10.1931   -7.7821   37.7031 N   0  0  0  0  0  0  0  0  0  0  0  0
   10.0321   -7.0784   36.5506 C   0  0  0  0  0  0  0  0  0  0  0  0
   12.5631   -5.9696   39.0200 H   0  0  0  0  0  0  0  0  0  0  0  0
   12.0104   -7.6863   40.4013 H   0  0  0  0  0  0  0  0  0  0  0  0
   10.7984   -8.8106   39.9831 H   0  0  0  0  0  0  0  0  0  0  0  0
    8.1008   -9.7549   32.4192 C   0  0  0  0  0  0  0  0  0  0  0  0
    6.9710   -9.3073   31.6980 O   0  0  0  0  0  0  0  0  0  0  0  0
    7.1021   -8.6778   30.2253 P   0  0  0  0  0  0  0  0  0  0  0  0
    5.8036   -8.8992   29.4813 O   0  0  0  0  0  0  0  0  0  0  0  0
    7.4554   -7.2201   30.3581 O   0  0  0  0  0  0  0  0  0  0  0  0
    7.5382   -6.8257   29.4758 H   0  0  0  0  0  0  0  0  0  0  0  0
    8.3560   -9.4636   29.6117 O   0  0  0  0  0  0  0  0  0  0  0  0
    8.9746   -9.2975   28.1464 P   0  0  0  0  0  0  0  0  0  0  0  0
    8.2643   -8.1825   27.4157 O   0  0  0  0  0  0  0  0  0  0  0  0
   10.4736   -9.1343   28.1838 O   0  0  0  0  0  0  0  0  0  0  0  0
   10.8109   -9.0367   27.2796 H   0  0  0  0  0  0  0  0  0  0  0  0
    8.6365  -10.7478   27.5265 O   0  0  0  0  0  0  0  0  0  0  0  0
    7.4921  -11.0642   26.4374 P   0  0  0  0  0  0  0  0  0  0  0  0
    7.4967  -12.5193   26.0078 O   0  0  0  0  0  0  0  0  0  0  0  0
    6.1640  -10.7132   27.0552 O   0  0  0  0  0  0  0  0  0  0  0  0
    7.7633  -10.1669   25.2490 O   0  0  0  0  0  0  0  0  0  0  0  0
    5.4539  -10.8942   26.4196 H   0  0  0  0  0  0  0  0  0  0  0  0
    7.0941  -10.3251   24.5650 H   0  0  0  0  0  0  0  0  0  0  0  0
 36 37  2  0  0  0
 36 38  1  0  0  0
 36 39  1  0  0  0
 36 35  1  0  0  0
 35 31  1  0  0  0
 31 32  2  0  0  0
 31 33  1  0  0  0
 31 30  1  0  0  0
 30 26  1  0  0  0
 26 27  2  0  0  0
 26 28  1  0  0  0
 26 25  1  0  0  0
 25 24  1  0  0  0
 24  1  1  0  0  0
  1  2  1  0  0  0
  1  3  1  0  0  0
  2  7  1  0  0  0
  3  4  1  0  0  0
  3  5  1  0  0  0
  5  6  1  0  0  0
  5  7  1  0  0  0
  7 10  1  0  0  0
 10 11  1  0  0  0
 10 20  1  0  0  0
 11 12  2  0  0  0
 12 13  1  0  0  0
 13 14  1  0  0  0
 13 20  2  0  0  0
 14 15  2  0  0  0
 14 16  1  0  0  0
 16 17  1  0  0  0
 17 18  1  0  0  0
 17 19  2  0  0  0
 19 20  1  0  0  0
 38 40  1  0  0  0
 39 41  1  0  0  0
 33 34  1  0  0  0
 28 29  1  0  0  0
  4  8  1  0  0  0
  6  9  1  0  0  0
 16 21  1  0  0  0
 18 22  1  0  0  0
 18 23  1  0  0  0
M  END
> <minimizedAffinity>
-10.36815

$$$$
5GOF_GTP_A_901


 41 43  0  0  0  0  0  0  0  0999 V2000
    6.3809   -9.3984   34.7454 C   0  0  0  0  0  0  0  0  0  0  0  0
    7.7610   -9.0921   34.7133 O   0  0  0  0  0  0  0  0  0  0  0  0
    5.8938   -9.1258   36.1564 C   0  0  0  0  0  0  0  0  0  0  0  0
    5.8737  -10.3384   36.8735 O   0  0  0  0  0  0  0  0  0  0  0  0
    6.9621   -8.2658   36.7774 C   0  0  0  0  0  0  0  0  0  0  0  0
    7.0940   -8.5425   38.1487 O   0  0  0  0  0  0  0  0  0  0  0  0
    8.1935   -8.6696   35.9849 C   0  0  0  0  0  0  0  0  0  0  0  0
    6.7582  -10.7365   36.8602 H   0  0  0  0  0  0  0  0  0  0  0  0
    7.2770   -9.4871   38.2718 H   0  0  0  0  0  0  0  0  0  0  0  0
    9.0987   -7.5180   35.8628 N   0  0  0  0  0  0  0  0  0  0  0  0
    9.1742   -6.5768   34.8584 C   0  0  0  0  0  0  0  0  0  0  0  0
   10.1568   -5.6941   35.1894 N   0  0  0  0  0  0  0  0  0  0  0  0
   10.7076   -6.0804   36.3812 C   0  0  0  0  0  0  0  0  0  0  0  0
   11.7142   -5.5713   37.1904 C   0  0  0  0  0  0  0  0  0  0  0  0
   12.3738   -4.5637   36.9293 O   0  0  0  0  0  0  0  0  0  0  0  0
   12.0251   -6.2171   38.3541 N   0  0  0  0  0  0  0  0  0  0  0  0
   11.3507   -7.3437   38.7430 C   0  0  0  0  0  0  0  0  0  0  0  0
   11.7021   -7.9154   39.8985 N   0  0  0  0  0  0  0  0  0  0  0  0
   10.3466   -7.8507   37.9579 N   0  0  0  0  0  0  0  0  0  0  0  0
   10.0319   -7.2191   36.7954 C   0  0  0  0  0  0  0  0  0  0  0  0
   12.7474   -5.8658   38.9234 H   0  0  0  0  0  0  0  0  0  0  0  0
   12.4272   -7.5270   40.4394 H   0  0  0  0  0  0  0  0  0  0  0  0
   11.2358   -8.7250   40.2090 H   0  0  0  0  0  0  0  0  0  0  0  0
    5.7126   -8.4706   33.7455 C   0  0  0  0  0  0  0  0  0  0  0  0
    6.7353   -7.7507   33.0876 O   0  0  0  0  0  0  0  0  0  0  0  0
    7.2925   -8.1970   31.6479 P   0  0  0  0  0  0  0  0  0  0  0  0
    7.4445   -6.9673   30.7797 O   0  0  0  0  0  0  0  0  0  0  0  0
    8.5906   -8.9342   31.8451 O   0  0  0  0  0  0  0  0  0  0  0  0
    8.9397   -9.2104   30.9833 H   0  0  0  0  0  0  0  0  0  0  0  0
    6.1790   -9.2301   31.1389 O   0  0  0  0  0  0  0  0  0  0  0  0
    6.1072   -9.9431   29.7094 P   0  0  0  0  0  0  0  0  0  0  0  0
    5.4010  -11.2722   29.8365 O   0  0  0  0  0  0  0  0  0  0  0  0
    5.5082   -9.0404   28.6600 O   0  0  0  0  0  0  0  0  0  0  0  0
    5.4815   -9.5063   27.8096 H   0  0  0  0  0  0  0  0  0  0  0  0
    7.6801  -10.1138   29.3951 O   0  0  0  0  0  0  0  0  0  0  0  0
    8.4715   -9.4528   28.1571 P   0  0  0  0  0  0  0  0  0  0  0  0
    9.9765   -9.5265   28.3341 O   0  0  0  0  0  0  0  0  0  0  0  0
    8.0627  -10.1889   26.9082 O   0  0  0  0  0  0  0  0  0  0  0  0
    8.0242   -8.0090   28.0767 O   0  0  0  0  0  0  0  0  0  0  0  0
    8.5253   -9.8109   26.1440 H   0  0  0  0  0  0  0  0  0  0  0  0
    8.4785   -7.5703   27.3405 H   0  0  0  0  0  0  0  0  0  0  0  0
 36 37  2  0  0  0
 36 38  1  0  0  0
 36 39  1  0  0  0
 36 35  1  0  0  0
 35 31  1  0  0  0
 31 32  2  0  0  0
 31 33  1  0  0  0
 31 30  1  0  0  0
 30 26  1  0  0  0
 26 27  2  0  0  0
 26 28  1  0  0  0
 26 25  1  0  0  0
 25 24  1  0  0  0
 24  1  1  0  0  0
  1  2  1  0  0  0
  1  3  1  0  0  0
  2  7  1  0  0  0
  3  4  1  0  0  0
  3  5  1  0  0  0
  5  6  1  0  0  0
  5  7  1  0  0  0
  7 10  1  0  0  0
 10 11  1  0  0  0
 10 20  1  0  0  0
 11 12  2  0  0  0
 12 13  1  0  0  0
 13 14  1  0  0  0
 13 20  2  0  0  0
 14 15  2  0  0  0
 14 16  1  0  0  0
 16 17  1  0  0  0
 17 18  1  0  0  0
 17 19  2  0  0  0
 19 20  1  0  0  0
 38 40  1  0  0  0
 39 41  1  0  0  0
 33 34  1  0  0  0
 28 29  1  0  0  0
  4  8  1  0  0  0
  6  9  1  0  0  0
 16 21  1  0  0  0
 18 22  1  0  0  0
 18 23  1  0  0  0
M  END
> <minimizedAffinity>
-10.18321

$$$$
5GOF_GTP_A_901


 41 43  0  0  0  0  0  0  0  0999 V2000
    6.5419  -10.4602   35.2474 C   0  0  0  0  0  0  0  0  0  0  0  0
    7.8474   -9.9206   35.1869 O   0  0  0  0  0  0  0  0  0  0  0  0
    5.9340  -10.0169   36.5653 C   0  0  0  0  0  0  0  0  0  0  0  0
    6.0830  -11.0540   37.5072 O   0  0  0  0  0  0  0  0  0  0  0  0
    6.7995   -8.8753   37.0283 C   0  0  0  0  0  0  0  0  0  0  0  0
    6.8978   -8.8574   38.4299 O   0  0  0  0  0  0  0  0  0  0  0  0
    8.1260   -9.1925   36.3595 C   0  0  0  0  0  0  0  0  0  0  0  0
    7.0223  -11.2803   37.5930 H   0  0  0  0  0  0  0  0  0  0  0  0
    7.2343   -9.7122   38.7413 H   0  0  0  0  0  0  0  0  0  0  0  0
    8.8234   -7.9406   36.0329 N   0  0  0  0  0  0  0  0  0  0  0  0
    8.6038   -7.0736   34.9838 C   0  0  0  0  0  0  0  0  0  0  0  0
    9.4865   -6.0438   35.1044 N   0  0  0  0  0  0  0  0  0  0  0  0
   10.2661   -6.2636   36.2074 C   0  0  0  0  0  0  0  0  0  0  0  0
   11.3010   -5.5648   36.8139 C   0  0  0  0  0  0  0  0  0  0  0  0
   11.7580   -4.4987   36.3980 O   0  0  0  0  0  0  0  0  0  0  0  0
   11.8798   -6.0758   37.9417 N   0  0  0  0  0  0  0  0  0  0  0  0
   11.4456   -7.2522   38.4920 C   0  0  0  0  0  0  0  0  0  0  0  0
   12.0518   -7.6850   39.6014 N   0  0  0  0  0  0  0  0  0  0  0  0
   10.4166   -7.9469   37.9088 N   0  0  0  0  0  0  0  0  0  0  0  0
    9.8364   -7.4504   36.7835 C   0  0  0  0  0  0  0  0  0  0  0  0
   12.6227   -5.5890   38.3664 H   0  0  0  0  0  0  0  0  0  0  0  0
   12.7877   -7.1633   39.9958 H   0  0  0  0  0  0  0  0  0  0  0  0
   11.7626   -8.5257   40.0244 H   0  0  0  0  0  0  0  0  0  0  0  0
    5.7818   -9.8764   34.0689 C   0  0  0  0  0  0  0  0  0  0  0  0
    5.5116  -10.9357   33.1735 O   0  0  0  0  0  0  0  0  0  0  0  0
    5.9705  -10.8805   31.6344 P   0  0  0  0  0  0  0  0  0  0  0  0
    6.9026  -12.0401   31.3601 O   0  0  0  0  0  0  0  0  0  0  0  0
    4.7396  -10.9055   30.7673 O   0  0  0  0  0  0  0  0  0  0  0  0
    5.0010  -10.8726   29.8338 H   0  0  0  0  0  0  0  0  0  0  0  0
    6.6595   -9.4389   31.5190 O   0  0  0  0  0  0  0  0  0  0  0  0
    6.9705   -8.6237   30.1789 P   0  0  0  0  0  0  0  0  0  0  0  0
    5.7943   -8.7229   29.2363 O   0  0  0  0  0  0  0  0  0  0  0  0
    7.3925   -7.2049   30.4686 O   0  0  0  0  0  0  0  0  0  0  0  0
    7.5718   -6.7441   29.6341 H   0  0  0  0  0  0  0  0  0  0  0  0
    8.2558   -9.4364   29.6408 O   0  0  0  0  0  0  0  0  0  0  0  0
    8.8585   -9.3665   28.1483 P   0  0  0  0  0  0  0  0  0  0  0  0
    8.3463   -8.1632   27.3792 O   0  0  0  0  0  0  0  0  0  0  0  0
   10.3590   -9.3037   28.2641 O   0  0  0  0  0  0  0  0  0  0  0  0
    8.4463  -10.6462   27.4529 O   0  0  0  0  0  0  0  0  0  0  0  0
   10.7502   -9.2608   27.3775 H   0  0  0  0  0  0  0  0  0  0  0  0
    8.7900  -10.6464   26.5459 H   0  0  0  0  0  0  0  0  0  0  0  0
 36 37  2  0  0  0
 36 38  1  0  0  0
 36 39  1  0  0  0
 36 35  1  0  0  0
 35 31  1  0  0  0
 31 32  2  0  0  0
 31 33  1  0  0  0
 31 30  1  0  0  0
 30 26  1  0  0  0
 26 27  2  0  0  0
 26 28  1  0  0  0
 26 25  1  0  0  0
 25 24  1  0  0  0
 24  1  1  0  0  0
  1  2  1  0  0  0
  1  3  1  0  0  0
  2  7  1  0  0  0
  3  4  1  0  0  0
  3  5  1  0  0  0
  5  6  1  0  0  0
  5  7  1  0  0  0
  7 10  1  0  0  0
 10 11  1  0  0  0
 10 20  1  0  0  0
 11 12  2  0  0  0
 12 13  1  0  0  0
 13 14  1  0  0  0
 13 20  2  0  0  0
 14 15  2  0  0  0
 14 16  1  0  0  0
 16 17  1  0  0  0
 17 18  1  0  0  0
 17 19  2  0  0  0
 19 20  1  0  0  0
 38 40  1  0  0  0
 39 41  1  0  0  0
 33 34  1  0  0  0
 28 29  1  0  0  0
  4  8  1  0  0  0
  6  9  1  0  0  0
 16 21  1  0  0  0
 18 22  1  0  0  0
 18 23  1  0  0  0
M  END
> <minimizedAffinity>
-9.53969

$$$$
5GOF_GTP_A_901


 41 43  0  0  0  0  0  0  0  0999 V2000
    6.5315   -9.2547   33.9634 C   0  0  0  0  0  0  0  0  0  0  0  0
    6.5996   -8.7282   35.2739 O   0  0  0  0  0  0  0  0  0  0  0  0
    7.7750   -8.7902   33.2283 C   0  0  0  0  0  0  0  0  0  0  0  0
    7.4535   -7.6505   32.4649 O   0  0  0  0  0  0  0  0  0  0  0  0
    8.7215   -8.3419   34.3098 C   0  0  0  0  0  0  0  0  0  0  0  0
    9.5029   -7.2582   33.8743 O   0  0  0  0  0  0  0  0  0  0  0  0
    7.7662   -7.9546   35.4256 C   0  0  0  0  0  0  0  0  0  0  0  0
    7.0917   -6.9634   33.0462 H   0  0  0  0  0  0  0  0  0  0  0  0
    8.9226   -6.5373   33.5837 H   0  0  0  0  0  0  0  0  0  0  0  0
    8.3953   -8.2238   36.7264 N   0  0  0  0  0  0  0  0  0  0  0  0
    8.0338   -9.1392   37.6918 C   0  0  0  0  0  0  0  0  0  0  0  0
    8.9230   -9.0339   38.7176 N   0  0  0  0  0  0  0  0  0  0  0  0
    9.8274   -8.0531   38.4128 C   0  0  0  0  0  0  0  0  0  0  0  0
   10.9363   -7.5262   39.0608 C   0  0  0  0  0  0  0  0  0  0  0  0
   11.3342   -7.8926   40.1680 O   0  0  0  0  0  0  0  0  0  0  0  0
   11.6459   -6.5243   38.4605 N   0  0  0  0  0  0  0  0  0  0  0  0
   11.2936   -6.0453   37.2269 C   0  0  0  0  0  0  0  0  0  0  0  0
   12.0405   -5.0721   36.6971 N   0  0  0  0  0  0  0  0  0  0  0  0
   10.2065   -6.5648   36.5711 N   0  0  0  0  0  0  0  0  0  0  0  0
    9.4902   -7.5588   37.1611 C   0  0  0  0  0  0  0  0  0  0  0  0
   12.4250   -6.1397   38.9235 H   0  0  0  0  0  0  0  0  0  0  0  0
   12.8148   -4.7203   37.1932 H   0  0  0  0  0  0  0  0  0  0  0  0
   11.8166   -4.7068   35.8107 H   0  0  0  0  0  0  0  0  0  0  0  0
    6.5134  -10.7666   34.1094 C   0  0  0  0  0  0  0  0  0  0  0  0
    7.1229  -11.3101   32.9562 O   0  0  0  0  0  0  0  0  0  0  0  0
    6.2595  -11.9870   31.7820 P   0  0  0  0  0  0  0  0  0  0  0  0
    6.1442  -13.4709   32.0529 O   0  0  0  0  0  0  0  0  0  0  0  0
    4.9203  -11.3015   31.7172 O   0  0  0  0  0  0  0  0  0  0  0  0
    4.3869  -11.6999   31.0118 H   0  0  0  0  0  0  0  0  0  0  0  0
    7.0966  -11.6199   30.4664 O   0  0  0  0  0  0  0  0  0  0  0  0
    6.5279  -11.0150   29.0997 P   0  0  0  0  0  0  0  0  0  0  0  0
    5.7478  -12.0745   28.3578 O   0  0  0  0  0  0  0  0  0  0  0  0
    5.7499   -9.7431   29.3282 O   0  0  0  0  0  0  0  0  0  0  0  0
    5.4222   -9.4076   28.4791 H   0  0  0  0  0  0  0  0  0  0  0  0
    7.9091  -10.6392   28.3561 O   0  0  0  0  0  0  0  0  0  0  0  0
    8.7472   -9.2777   28.5554 P   0  0  0  0  0  0  0  0  0  0  0  0
   10.2015   -9.4359   28.1530 O   0  0  0  0  0  0  0  0  0  0  0  0
    8.0932   -8.2116   27.7160 O   0  0  0  0  0  0  0  0  0  0  0  0
    8.6463   -8.9161   30.0217 O   0  0  0  0  0  0  0  0  0  0  0  0
    8.5784   -7.3778   27.8167 H   0  0  0  0  0  0  0  0  0  0  0  0
    9.1396   -8.0976   30.1876 H   0  0  0  0  0  0  0  0  0  0  0  0
 36 37  2  0  0  0
 36 38  1  0  0  0
 36 39  1  0  0  0
 36 35  1  0  0  0
 35 31  1  0  0  0
 31 32  2  0  0  0
 31 33  1  0  0  0
 31 30  1  0  0  0
 30 26  1  0  0  0
 26 27  2  0  0  0
 26 28  1  0  0  0
 26 25  1  0  0  0
 25 24  1  0  0  0
 24  1  1  0  0  0
  1  2  1  0  0  0
  1  3  1  0  0  0
  2  7  1  0  0  0
  3  4  1  0  0  0
  3  5  1  0  0  0
  5  6  1  0  0  0
  5  7  1  0  0  0
  7 10  1  0  0  0
 10 11  1  0  0  0
 10 20  1  0  0  0
 11 12  2  0  0  0
 12 13  1  0  0  0
 13 14  1  0  0  0
 13 20  2  0  0  0
 14 15  2  0  0  0
 14 16  1  0  0  0
 16 17  1  0  0  0
 17 18  1  0  0  0
 17 19  2  0  0  0
 19 20  1  0  0  0
 38 40  1  0  0  0
 39 41  1  0  0  0
 33 34  1  0  0  0
 28 29  1  0  0  0
  4  8  1  0  0  0
  6  9  1  0  0  0
 16 21  1  0  0  0
 18 22  1  0  0  0
 18 23  1  0  0  0
M  END
> <minimizedAffinity>
-9.05427

$$$$
5GOF_GTP_A_901


 41 43  0  0  0  0  0  0  0  0999 V2000
    6.9136  -11.9184   28.2868 C   0  0  0  0  0  0  0  0  0  0  0  0
    7.4602  -11.1523   29.3421 O   0  0  0  0  0  0  0  0  0  0  0  0
    5.6441  -12.5631   28.8115 C   0  0  0  0  0  0  0  0  0  0  0  0
    5.9363  -13.8805   29.2165 O   0  0  0  0  0  0  0  0  0  0  0  0
    5.2993  -11.7875   30.0549 C   0  0  0  0  0  0  0  0  0  0  0  0
    4.7069  -12.6220   31.0179 O   0  0  0  0  0  0  0  0  0  0  0  0
    6.6593  -11.2725   30.4939 C   0  0  0  0  0  0  0  0  0  0  0  0
    6.6429  -13.8653   29.8810 H   0  0  0  0  0  0  0  0  0  0  0  0
    5.3002  -13.3646   31.2111 H   0  0  0  0  0  0  0  0  0  0  0  0
    6.5020   -9.9660   31.1486 N   0  0  0  0  0  0  0  0  0  0  0  0
    6.7326   -8.7065   30.6376 C   0  0  0  0  0  0  0  0  0  0  0  0
    6.4336   -7.8024   31.6110 N   0  0  0  0  0  0  0  0  0  0  0  0
    6.0337   -8.4813   32.7299 C   0  0  0  0  0  0  0  0  0  0  0  0
    5.6098   -8.0954   33.9942 C   0  0  0  0  0  0  0  0  0  0  0  0
    5.5252   -6.9257   34.3726 O   0  0  0  0  0  0  0  0  0  0  0  0
    5.2695   -9.0555   34.9054 N   0  0  0  0  0  0  0  0  0  0  0  0
    5.3220  -10.3864   34.5877 C   0  0  0  0  0  0  0  0  0  0  0  0
    4.9641  -11.2681   35.5260 N   0  0  0  0  0  0  0  0  0  0  0  0
    5.7287  -10.7807   33.3383 N   0  0  0  0  0  0  0  0  0  0  0  0
    6.0743   -9.8342   32.4251 C   0  0  0  0  0  0  0  0  0  0  0  0
    4.9811   -8.7851   35.8071 H   0  0  0  0  0  0  0  0  0  0  0  0
    4.6769  -10.9531   36.4134 H   0  0  0  0  0  0  0  0  0  0  0  0
    4.9877  -12.2325   35.3298 H   0  0  0  0  0  0  0  0  0  0  0  0
    6.6094  -10.9434   27.1624 C   0  0  0  0  0  0  0  0  0  0  0  0
    6.3592  -11.7049   25.9986 O   0  0  0  0  0  0  0  0  0  0  0  0
    6.8223  -11.2037   24.5437 P   0  0  0  0  0  0  0  0  0  0  0  0
    8.3240  -11.3494   24.4313 O   0  0  0  0  0  0  0  0  0  0  0  0
    6.0807  -12.0021   23.5045 O   0  0  0  0  0  0  0  0  0  0  0  0
    6.3503  -11.7103   22.6195 H   0  0  0  0  0  0  0  0  0  0  0  0
    6.3021   -9.6890   24.5058 O   0  0  0  0  0  0  0  0  0  0  0  0
    5.0034   -9.1344   23.7555 P   0  0  0  0  0  0  0  0  0  0  0  0
    5.4166   -8.2033   22.6402 O   0  0  0  0  0  0  0  0  0  0  0  0
    4.0954  -10.2507   23.3032 O   0  0  0  0  0  0  0  0  0  0  0  0
    3.3216   -9.8762   22.8539 H   0  0  0  0  0  0  0  0  0  0  0  0
    4.2829   -8.3534   24.9691 O   0  0  0  0  0  0  0  0  0  0  0  0
    3.2977   -9.0115   26.0609 P   0  0  0  0  0  0  0  0  0  0  0  0
    1.8542   -8.5911   25.8573 O   0  0  0  0  0  0  0  0  0  0  0  0
    3.4202  -10.5081   25.9435 O   0  0  0  0  0  0  0  0  0  0  0  0
    3.7885   -8.5570   27.4187 O   0  0  0  0  0  0  0  0  0  0  0  0
    2.8360  -10.9322   26.5914 H   0  0  0  0  0  0  0  0  0  0  0  0
    3.2207   -8.9322   28.1099 H   0  0  0  0  0  0  0  0  0  0  0  0
 36 37  2  0  0  0
 36 38  1  0  0  0
 36 39  1  0  0  0
 36 35  1  0  0  0
 35 31  1  0  0  0
 31 32  2  0  0  0
 31 33  1  0  0  0
 31 30  1  0  0  0
 30 26  1  0  0  0
 26 27  2  0  0  0
 26 28  1  0  0  0
 26 25  1  0  0  0
 25 24  1  0  0  0
 24  1  1  0  0  0
  1  2  1  0  0  0
  1  3  1  0  0  0
  2  7  1  0  0  0
  3  4  1  0  0  0
  3  5  1  0  0  0
  5  6  1  0  0  0
  5  7  1  0  0  0
  7 10  1  0  0  0
 10 11  1  0  0  0
 10 20  1  0  0  0
 11 12  2  0  0  0
 12 13  1  0  0  0
 13 14  1  0  0  0
 13 20  2  0  0  0
 14 15  2  0  0  0
 14 16  1  0  0  0
 16 17  1  0  0  0
 17 18  1  0  0  0
 17 19  2  0  0  0
 19 20  1  0  0  0
 38 40  1  0  0  0
 39 41  1  0  0  0
 33 34  1  0  0  0
 28 29  1  0  0  0
  4  8  1  0  0  0
  6  9  1  0  0  0
 16 21  1  0  0  0
 18 22  1  0  0  0
 18 23  1  0  0  0
M  END
> <minimizedAffinity>
-8.89200

$$$$
5GOF_GTP_A_901


 41 43  0  0  0  0  0  0  0  0999 V2000
    6.0871  -10.0774   29.9929 C   0  0  0  0  0  0  0  0  0  0  0  0
    6.3292  -10.1735   31.3827 O   0  0  0  0  0  0  0  0  0  0  0  0
    5.9630   -8.6021   29.6603 C   0  0  0  0  0  0  0  0  0  0  0  0
    4.5974   -8.2582   29.6182 O   0  0  0  0  0  0  0  0  0  0  0  0
    6.5603   -7.8854   30.8419 C   0  0  0  0  0  0  0  0  0  0  0  0
    5.8950   -6.6708   31.0800 O   0  0  0  0  0  0  0  0  0  0  0  0
    6.3484   -8.8901   31.9614 C   0  0  0  0  0  0  0  0  0  0  0  0
    4.1817   -8.4803   30.4660 H   0  0  0  0  0  0  0  0  0  0  0  0
    4.9479   -6.8398   31.2040 H   0  0  0  0  0  0  0  0  0  0  0  0
    7.4457   -8.7814   32.9333 N   0  0  0  0  0  0  0  0  0  0  0  0
    8.7433   -9.2358   32.8308 C   0  0  0  0  0  0  0  0  0  0  0  0
    9.3959   -8.8902   33.9748 N   0  0  0  0  0  0  0  0  0  0  0  0
    8.5183   -8.2388   34.7985 C   0  0  0  0  0  0  0  0  0  0  0  0
    8.6206   -7.6638   36.0579 C   0  0  0  0  0  0  0  0  0  0  0  0
    9.6486   -7.6552   36.7373 O   0  0  0  0  0  0  0  0  0  0  0  0
    7.5204   -7.0718   36.6121 N   0  0  0  0  0  0  0  0  0  0  0  0
    6.3279   -7.0206   35.9410 C   0  0  0  0  0  0  0  0  0  0  0  0
    5.2981   -6.4162   36.5409 N   0  0  0  0  0  0  0  0  0  0  0  0
    6.2164   -7.5753   34.6914 N   0  0  0  0  0  0  0  0  0  0  0  0
    7.3033   -8.1712   34.1321 C   0  0  0  0  0  0  0  0  0  0  0  0
    7.5866   -6.6749   37.5106 H   0  0  0  0  0  0  0  0  0  0  0  0
    5.4102   -6.0277   37.4385 H   0  0  0  0  0  0  0  0  0  0  0  0
    4.4272   -6.3593   36.0852 H   0  0  0  0  0  0  0  0  0  0  0  0
    7.2918  -10.6954   29.3043 C   0  0  0  0  0  0  0  0  0  0  0  0
    6.8074  -11.5187   28.2630 O   0  0  0  0  0  0  0  0  0  0  0  0
    7.0467  -11.1552   26.7160 P   0  0  0  0  0  0  0  0  0  0  0  0
    7.9853   -9.9717   26.6313 O   0  0  0  0  0  0  0  0  0  0  0  0
    7.5840  -12.3752   26.0158 O   0  0  0  0  0  0  0  0  0  0  0  0
    7.7337  -12.1709   25.0794 H   0  0  0  0  0  0  0  0  0  0  0  0
    5.5643  -10.8606   26.1852 O   0  0  0  0  0  0  0  0  0  0  0  0
    5.1054  -10.6663   24.6657 P   0  0  0  0  0  0  0  0  0  0  0  0
    6.2625  -10.9623   23.7410 O   0  0  0  0  0  0  0  0  0  0  0  0
    3.8621  -11.4588   24.3478 O   0  0  0  0  0  0  0  0  0  0  0  0
    3.6157  -11.3158   23.4206 H   0  0  0  0  0  0  0  0  0  0  0  0
    4.7198   -9.1001   24.6809 O   0  0  0  0  0  0  0  0  0  0  0  0
    3.4217   -8.4554   25.3846 P   0  0  0  0  0  0  0  0  0  0  0  0
    2.1350   -9.1190   24.9308 O   0  0  0  0  0  0  0  0  0  0  0  0
    3.5847   -8.6112   26.8739 O   0  0  0  0  0  0  0  0  0  0  0  0
    3.4116   -6.9875   25.0159 O   0  0  0  0  0  0  0  0  0  0  0  0
    2.8149   -8.2306   27.3249 H   0  0  0  0  0  0  0  0  0  0  0  0
    2.6421   -6.5576   25.4209 H   0  0  0  0  0  0  0  0  0  0  0  0
 36 37  2  0  0  0
 36 38  1  0  0  0
 36 39  1  0  0  0
 36 35  1  0  0  0
 35 31  1  0  0  0
 31 32  2  0  0  0
 31 33  1  0  0  0
 31 30  1  0  0  0
 30 26  1  0  0  0
 26 27  2  0  0  0
 26 28  1  0  0  0
 26 25  1  0  0  0
 25 24  1  0  0  0
 24  1  1  0  0  0
  1  2  1  0  0  0
  1  3  1  0  0  0
  2  7  1  0  0  0
  3  4  1  0  0  0
  3  5  1  0  0  0
  5  6  1  0  0  0
  5  7  1  0  0  0
  7 10  1  0  0  0
 10 11  1  0  0  0
 10 20  1  0  0  0
 11 12  2  0  0  0
 12 13  1  0  0  0
 13 14  1  0  0  0
 13 20  2  0  0  0
 14 15  2  0  0  0
 14 16  1  0  0  0
 16 17  1  0  0  0
 17 18  1  0  0  0
 17 19  2  0  0  0
 19 20  1  0  0  0
 38 40  1  0  0  0
 39 41  1  0  0  0
 33 34  1  0  0  0
 28 29  1  0  0  0
  4  8  1  0  0  0
  6  9  1  0  0  0
 16 21  1  0  0  0
 18 22  1  0  0  0
 18 23  1  0  0  0
M  END
> <minimizedAffinity>
-8.84185

$$$$
5GOF_GTP_A_901


 41 43  0  0  0  0  0  0  0  0999 V2000
    5.5579  -10.2378   32.4355 C   0  0  0  0  0  0  0  0  0  0  0  0
    5.5841   -9.7665   33.7683 O   0  0  0  0  0  0  0  0  0  0  0  0
    6.6081   -9.4602   31.6641 C   0  0  0  0  0  0  0  0  0  0  0  0
    5.9800   -8.3980   30.9841 O   0  0  0  0  0  0  0  0  0  0  0  0
    7.4900   -8.8463   32.7185 C   0  0  0  0  0  0  0  0  0  0  0  0
    7.9658   -7.5905   32.3050 O   0  0  0  0  0  0  0  0  0  0  0  0
    6.5438   -8.7450   33.9026 C   0  0  0  0  0  0  0  0  0  0  0  0
    5.5049   -7.8421   31.6214 H   0  0  0  0  0  0  0  0  0  0  0  0
    7.2152   -7.0164   32.0861 H   0  0  0  0  0  0  0  0  0  0  0  0
    7.3003   -8.9122   35.1517 N   0  0  0  0  0  0  0  0  0  0  0  0
    7.2133   -9.9182   36.0903 C   0  0  0  0  0  0  0  0  0  0  0  0
    8.1224   -9.6530   37.0687 N   0  0  0  0  0  0  0  0  0  0  0  0
    8.7664   -8.4852   36.7616 C   0  0  0  0  0  0  0  0  0  0  0  0
    9.7718   -7.7472   37.3713 C   0  0  0  0  0  0  0  0  0  0  0  0
   10.3121   -8.0539   38.4355 O   0  0  0  0  0  0  0  0  0  0  0  0
   10.2024   -6.5920   36.7814 N   0  0  0  0  0  0  0  0  0  0  0  0
    9.6734   -6.1610   35.5941 C   0  0  0  0  0  0  0  0  0  0  0  0
   10.1512   -5.0280   35.0711 N   0  0  0  0  0  0  0  0  0  0  0  0
    8.6872   -6.8868   34.9758 N   0  0  0  0  0  0  0  0  0  0  0  0
    8.2476   -8.0354   35.5561 C   0  0  0  0  0  0  0  0  0  0  0  0
   10.9060   -6.0597   37.2183 H   0  0  0  0  0  0  0  0  0  0  0  0
   10.8596   -4.5299   35.5396 H   0  0  0  0  0  0  0  0  0  0  0  0
    9.7949   -4.6913   34.2174 H   0  0  0  0  0  0  0  0  0  0  0  0
    5.9045  -11.7155   32.4966 C   0  0  0  0  0  0  0  0  0  0  0  0
    6.7242  -12.0039   31.3822 O   0  0  0  0  0  0  0  0  0  0  0  0
    6.1736  -12.8289   30.1178 P   0  0  0  0  0  0  0  0  0  0  0  0
    6.0620  -14.2891   30.4975 O   0  0  0  0  0  0  0  0  0  0  0  0
    4.8557  -12.2349   29.6963 O   0  0  0  0  0  0  0  0  0  0  0  0
    4.5103  -12.7232   28.9327 H   0  0  0  0  0  0  0  0  0  0  0  0
    7.2676  -12.5230   28.9883 O   0  0  0  0  0  0  0  0  0  0  0  0
    7.1428  -11.4796   27.7829 P   0  0  0  0  0  0  0  0  0  0  0  0
    8.2588  -11.7090   26.7912 O   0  0  0  0  0  0  0  0  0  0  0  0
    5.7693  -11.5015   27.1599 O   0  0  0  0  0  0  0  0  0  0  0  0
    5.7326  -10.8578   26.4353 H   0  0  0  0  0  0  0  0  0  0  0  0
    7.3143  -10.0916   28.5865 O   0  0  0  0  0  0  0  0  0  0  0  0
    8.4389   -8.9725   28.3062 P   0  0  0  0  0  0  0  0  0  0  0  0
    9.8407   -9.4911   28.5666 O   0  0  0  0  0  0  0  0  0  0  0  0
    8.3071   -8.5425   26.8686 O   0  0  0  0  0  0  0  0  0  0  0  0
    8.1325   -7.8090   29.2245 O   0  0  0  0  0  0  0  0  0  0  0  0
    8.9742   -7.8666   26.6708 H   0  0  0  0  0  0  0  0  0  0  0  0
    8.7889   -7.1080   29.0883 H   0  0  0  0  0  0  0  0  0  0  0  0
 36 37  2  0  0  0
 36 38  1  0  0  0
 36 39  1  0  0  0
 36 35  1  0  0  0
 35 31  1  0  0  0
 31 32  2  0  0  0
 31 33  1  0  0  0
 31 30  1  0  0  0
 30 26  1  0  0  0
 26 27  2  0  0  0
 26 28  1  0  0  0
 26 25  1  0  0  0
 25 24  1  0  0  0
 24  1  1  0  0  0
  1  2  1  0  0  0
  1  3  1  0  0  0
  2  7  1  0  0  0
  3  4  1  0  0  0
  3  5  1  0  0  0
  5  6  1  0  0  0
  5  7  1  0  0  0
  7 10  1  0  0  0
 10 11  1  0  0  0
 10 20  1  0  0  0
 11 12  2  0  0  0
 12 13  1  0  0  0
 13 14  1  0  0  0
 13 20  2  0  0  0
 14 15  2  0  0  0
 14 16  1  0  0  0
 16 17  1  0  0  0
 17 18  1  0  0  0
 17 19  2  0  0  0
 19 20  1  0  0  0
 38 40  1  0  0  0
 39 41  1  0  0  0
 33 34  1  0  0  0
 28 29  1  0  0  0
  4  8  1  0  0  0
  6  9  1  0  0  0
 16 21  1  0  0  0
 18 22  1  0  0  0
 18 23  1  0  0  0
M  END
> <minimizedAffinity>
-8.72289

$$$$
5GOF_GTP_A_901


 41 43  0  0  0  0  0  0  0  0999 V2000
    6.5260  -12.1626   32.8435 C   0  0  0  0  0  0  0  0  0  0  0  0
    7.6652  -11.3828   33.1491 O   0  0  0  0  0  0  0  0  0  0  0  0
    5.5182  -11.9394   33.9557 C   0  0  0  0  0  0  0  0  0  0  0  0
    5.6218  -12.9953   34.8827 O   0  0  0  0  0  0  0  0  0  0  0  0
    5.9836  -10.6915   34.6576 C   0  0  0  0  0  0  0  0  0  0  0  0
    5.7062  -10.7573   36.0336 O   0  0  0  0  0  0  0  0  0  0  0  0
    7.4746  -10.7025   34.3670 C   0  0  0  0  0  0  0  0  0  0  0  0
    6.5316  -13.0455   35.2154 H   0  0  0  0  0  0  0  0  0  0  0  0
    6.1149  -11.5533   36.4081 H   0  0  0  0  0  0  0  0  0  0  0  0
    7.9656   -9.3208   34.2657 N   0  0  0  0  0  0  0  0  0  0  0  0
    8.0263   -8.5009   33.1590 C   0  0  0  0  0  0  0  0  0  0  0  0
    8.5417   -7.3047   33.5562 N   0  0  0  0  0  0  0  0  0  0  0  0
    8.8188   -7.3714   34.8947 C   0  0  0  0  0  0  0  0  0  0  0  0
    9.3361   -6.4750   35.8200 C   0  0  0  0  0  0  0  0  0  0  0  0
    9.6905   -5.3256   35.5521 O   0  0  0  0  0  0  0  0  0  0  0  0
    9.4861   -6.8703   37.1197 N   0  0  0  0  0  0  0  0  0  0  0  0
    9.1192   -8.1252   37.5270 C   0  0  0  0  0  0  0  0  0  0  0  0
    9.2848   -8.4378   38.8156 N   0  0  0  0  0  0  0  0  0  0  0  0
    8.5965   -9.0167   36.6250 N   0  0  0  0  0  0  0  0  0  0  0  0
    8.4473   -8.6359   35.3281 C   0  0  0  0  0  0  0  0  0  0  0  0
    9.8650   -6.2412   37.7753 H   0  0  0  0  0  0  0  0  0  0  0  0
    9.6627   -7.7755   39.4382 H   0  0  0  0  0  0  0  0  0  0  0  0
    9.0288   -9.3306   39.1424 H   0  0  0  0  0  0  0  0  0  0  0  0
    5.9990  -11.6491   31.5146 C   0  0  0  0  0  0  0  0  0  0  0  0
    6.8909  -12.0854   30.5090 O   0  0  0  0  0  0  0  0  0  0  0  0
    6.3912  -12.9579   29.2554 P   0  0  0  0  0  0  0  0  0  0  0  0
    6.3245  -14.4121   29.6672 O   0  0  0  0  0  0  0  0  0  0  0  0
    5.0606  -12.4206   28.7990 O   0  0  0  0  0  0  0  0  0  0  0  0
    4.7456  -12.9382   28.0415 H   0  0  0  0  0  0  0  0  0  0  0  0
    7.4928  -12.6390   28.1370 O   0  0  0  0  0  0  0  0  0  0  0  0
    7.3533  -11.6254   26.9080 P   0  0  0  0  0  0  0  0  0  0  0  0
    7.2493  -12.4008   25.6159 O   0  0  0  0  0  0  0  0  0  0  0  0
    6.2271  -10.6435   27.1137 O   0  0  0  0  0  0  0  0  0  0  0  0
    6.1741  -10.0476   26.3502 H   0  0  0  0  0  0  0  0  0  0  0  0
    8.7508  -10.8295   27.0329 O   0  0  0  0  0  0  0  0  0  0  0  0
    9.0234   -9.5434   27.9643 P   0  0  0  0  0  0  0  0  0  0  0  0
   10.5049   -9.2722   28.1473 O   0  0  0  0  0  0  0  0  0  0  0  0
    8.3591   -8.3588   27.3131 O   0  0  0  0  0  0  0  0  0  0  0  0
    8.3747   -9.8300   29.3015 O   0  0  0  0  0  0  0  0  0  0  0  0
    8.5072   -7.5673   27.8539 H   0  0  0  0  0  0  0  0  0  0  0  0
    8.5152   -9.0773   29.8969 H   0  0  0  0  0  0  0  0  0  0  0  0
 36 37  2  0  0  0
 36 38  1  0  0  0
 36 39  1  0  0  0
 36 35  1  0  0  0
 35 31  1  0  0  0
 31 32  2  0  0  0
 31 33  1  0  0  0
 31 30  1  0  0  0
 30 26  1  0  0  0
 26 27  2  0  0  0
 26 28  1  0  0  0
 26 25  1  0  0  0
 25 24  1  0  0  0
 24  1  1  0  0  0
  1  2  1  0  0  0
  1  3  1  0  0  0
  2  7  1  0  0  0
  3  4  1  0  0  0
  3  5  1  0  0  0
  5  6  1  0  0  0
  5  7  1  0  0  0
  7 10  1  0  0  0
 10 11  1  0  0  0
 10 20  1  0  0  0
 11 12  2  0  0  0
 12 13  1  0  0  0
 13 14  1  0  0  0
 13 20  2  0  0  0
 14 15  2  0  0  0
 14 16  1  0  0  0
 16 17  1  0  0  0
 17 18  1  0  0  0
 17 19  2  0  0  0
 19 20  1  0  0  0
 38 40  1  0  0  0
 39 41  1  0  0  0
 33 34  1  0  0  0
 28 29  1  0  0  0
  4  8  1  0  0  0
  6  9  1  0  0  0
 16 21  1  0  0  0
 18 22  1  0  0  0
 18 23  1  0  0  0
M  END
> <minimizedAffinity>
-8.68693

$$$$
5GOF_GTP_A_901


 41 43  0  0  0  0  0  0  0  0999 V2000
    7.2828  -10.3747   32.2534 C   0  0  0  0  0  0  0  0  0  0  0  0
    6.2708   -9.4606   32.6270 O   0  0  0  0  0  0  0  0  0  0  0  0
    8.3266  -10.3627   33.3548 C   0  0  0  0  0  0  0  0  0  0  0  0
    9.3784   -9.5052   32.9760 O   0  0  0  0  0  0  0  0  0  0  0  0
    7.6414   -9.7236   34.5332 C   0  0  0  0  0  0  0  0  0  0  0  0
    8.5511   -8.9686   35.2929 O   0  0  0  0  0  0  0  0  0  0  0  0
    6.5930   -8.8566   33.8574 C   0  0  0  0  0  0  0  0  0  0  0  0
    9.0248   -8.6203   32.7948 H   0  0  0  0  0  0  0  0  0  0  0  0
    8.9776   -8.3086   34.7244 H   0  0  0  0  0  0  0  0  0  0  0  0
    5.4017   -8.7687   34.7138 N   0  0  0  0  0  0  0  0  0  0  0  0
    4.8256   -9.7430   35.5009 C   0  0  0  0  0  0  0  0  0  0  0  0
    3.7473   -9.1907   36.1225 N   0  0  0  0  0  0  0  0  0  0  0  0
    3.6324   -7.8872   35.7220 C   0  0  0  0  0  0  0  0  0  0  0  0
    2.7519   -6.8575   36.0247 C   0  0  0  0  0  0  0  0  0  0  0  0
    1.7951   -6.9640   36.7939 O   0  0  0  0  0  0  0  0  0  0  0  0
    2.9254   -5.6368   35.4352 N   0  0  0  0  0  0  0  0  0  0  0  0
    3.9600   -5.4076   34.5680 C   0  0  0  0  0  0  0  0  0  0  0  0
    4.0733   -4.1861   34.0382 N   0  0  0  0  0  0  0  0  0  0  0  0
    4.8436   -6.4134   34.2689 N   0  0  0  0  0  0  0  0  0  0  0  0
    4.6778   -7.6336   34.8459 C   0  0  0  0  0  0  0  0  0  0  0  0
    2.2946   -4.9085   35.6379 H   0  0  0  0  0  0  0  0  0  0  0  0
    3.4227   -3.4855   34.2730 H   0  0  0  0  0  0  0  0  0  0  0  0
    4.8073   -3.9867   33.4131 H   0  0  0  0  0  0  0  0  0  0  0  0
    6.6141  -11.7343   32.1464 C   0  0  0  0  0  0  0  0  0  0  0  0
    6.8730  -12.2319   30.8493 O   0  0  0  0  0  0  0  0  0  0  0  0
    5.6896  -12.5131   29.7991 P   0  0  0  0  0  0  0  0  0  0  0  0
    4.9160  -13.7329   30.2492 O   0  0  0  0  0  0  0  0  0  0  0  0
    4.8299  -11.2804   29.7061 O   0  0  0  0  0  0  0  0  0  0  0  0
    4.1099  -11.4352   29.0747 H   0  0  0  0  0  0  0  0  0  0  0  0
    6.4769  -12.7045   28.4172 O   0  0  0  0  0  0  0  0  0  0  0  0
    6.9985  -11.5531   27.4376 P   0  0  0  0  0  0  0  0  0  0  0  0
    7.9605  -12.1369   26.4300 O   0  0  0  0  0  0  0  0  0  0  0  0
    5.8590  -10.7894   26.8104 O   0  0  0  0  0  0  0  0  0  0  0  0
    6.2139  -10.1021   26.2250 H   0  0  0  0  0  0  0  0  0  0  0  0
    7.7353  -10.5866   28.4981 O   0  0  0  0  0  0  0  0  0  0  0  0
    8.5517   -9.2441   28.1416 P   0  0  0  0  0  0  0  0  0  0  0  0
    8.1350   -8.0723   29.0105 O   0  0  0  0  0  0  0  0  0  0  0  0
   10.0167   -9.5350   28.3364 O   0  0  0  0  0  0  0  0  0  0  0  0
    8.2736   -8.9405   26.6850 O   0  0  0  0  0  0  0  0  0  0  0  0
   10.5344   -8.7416   28.1281 H   0  0  0  0  0  0  0  0  0  0  0  0
    8.7483   -8.1351   26.4263 H   0  0  0  0  0  0  0  0  0  0  0  0
 36 37  2  0  0  0
 36 38  1  0  0  0
 36 39  1  0  0  0
 36 35  1  0  0  0
 35 31  1  0  0  0
 31 32  2  0  0  0
 31 33  1  0  0  0
 31 30  1  0  0  0
 30 26  1  0  0  0
 26 27  2  0  0  0
 26 28  1  0  0  0
 26 25  1  0  0  0
 25 24  1  0  0  0
 24  1  1  0  0  0
  1  2  1  0  0  0
  1  3  1  0  0  0
  2  7  1  0  0  0
  3  4  1  0  0  0
  3  5  1  0  0  0
  5  6  1  0  0  0
  5  7  1  0  0  0
  7 10  1  0  0  0
 10 11  1  0  0  0
 10 20  1  0  0  0
 11 12  2  0  0  0
 12 13  1  0  0  0
 13 14  1  0  0  0
 13 20  2  0  0  0
 14 15  2  0  0  0
 14 16  1  0  0  0
 16 17  1  0  0  0
 17 18  1  0  0  0
 17 19  2  0  0  0
 19 20  1  0  0  0
 38 40  1  0  0  0
 39 41  1  0  0  0
 33 34  1  0  0  0
 28 29  1  0  0  0
  4  8  1  0  0  0
  6  9  1  0  0  0
 16 21  1  0  0  0
 18 22  1  0  0  0
 18 23  1  0  0  0
M  END
> <minimizedAffinity>
-8.64410

$$$$
5GOF_GTP_A_901


 41 43  0  0  0  0  0  0  0  0999 V2000
    6.3170   -9.6304   31.8198 C   0  0  0  0  0  0  0  0  0  0  0  0
    6.1332   -8.9842   33.0639 O   0  0  0  0  0  0  0  0  0  0  0  0
    7.8013   -9.9107   31.6750 C   0  0  0  0  0  0  0  0  0  0  0  0
    8.3827   -8.8931   30.8931 O   0  0  0  0  0  0  0  0  0  0  0  0
    8.3611   -9.7703   33.0655 C   0  0  0  0  0  0  0  0  0  0  0  0
    9.6656   -9.2492   33.0303 O   0  0  0  0  0  0  0  0  0  0  0  0
    7.3729   -8.8127   33.7091 C   0  0  0  0  0  0  0  0  0  0  0  0
    8.2095   -8.0313   31.3032 H   0  0  0  0  0  0  0  0  0  0  0  0
    9.6628   -8.4024   32.5573 H   0  0  0  0  0  0  0  0  0  0  0  0
    7.2531   -9.1196   35.1415 N   0  0  0  0  0  0  0  0  0  0  0  0
    6.3205   -9.9048   35.7852 C   0  0  0  0  0  0  0  0  0  0  0  0
    6.6225   -9.9040   37.1130 N   0  0  0  0  0  0  0  0  0  0  0  0
    7.7235   -9.1155   37.3101 C   0  0  0  0  0  0  0  0  0  0  0  0
    8.4695   -8.7590   38.4252 C   0  0  0  0  0  0  0  0  0  0  0  0
    8.2241   -9.1308   39.5742 O   0  0  0  0  0  0  0  0  0  0  0  0
    9.5457   -7.9309   38.2709 N   0  0  0  0  0  0  0  0  0  0  0  0
    9.9103   -7.4630   37.0366 C   0  0  0  0  0  0  0  0  0  0  0  0
   10.9803   -6.6661   36.9609 N   0  0  0  0  0  0  0  0  0  0  0  0
    9.1883   -7.8166   35.9252 N   0  0  0  0  0  0  0  0  0  0  0  0
    8.1125   -8.6362   36.0676 C   0  0  0  0  0  0  0  0  0  0  0  0
   10.0686   -7.6658   39.0618 H   0  0  0  0  0  0  0  0  0  0  0  0
   11.4776   -6.4307   37.7773 H   0  0  0  0  0  0  0  0  0  0  0  0
   11.2713   -6.3143   36.0886 H   0  0  0  0  0  0  0  0  0  0  0  0
    5.5189  -10.9212   31.8852 C   0  0  0  0  0  0  0  0  0  0  0  0
    4.9638  -11.1405   30.6043 O   0  0  0  0  0  0  0  0  0  0  0  0
    5.7618  -11.9412   29.4621 P   0  0  0  0  0  0  0  0  0  0  0  0
    6.8326  -12.7871   30.1152 O   0  0  0  0  0  0  0  0  0  0  0  0
    4.7742  -12.7595   28.6732 O   0  0  0  0  0  0  0  0  0  0  0  0
    5.2419  -13.2493   27.9787 H   0  0  0  0  0  0  0  0  0  0  0  0
    6.3262  -10.7663   28.5308 O   0  0  0  0  0  0  0  0  0  0  0  0
    7.3329  -10.9136   27.2971 P   0  0  0  0  0  0  0  0  0  0  0  0
    8.2819   -9.7387   27.2693 O   0  0  0  0  0  0  0  0  0  0  0  0
    8.0298  -12.2512   27.2965 O   0  0  0  0  0  0  0  0  0  0  0  0
    8.6299  -12.3028   26.5361 H   0  0  0  0  0  0  0  0  0  0  0  0
    6.2874  -10.8846   26.0691 O   0  0  0  0  0  0  0  0  0  0  0  0
    6.6642  -10.6942   24.5142 P   0  0  0  0  0  0  0  0  0  0  0  0
    5.8391  -11.5912   23.6107 O   0  0  0  0  0  0  0  0  0  0  0  0
    6.4283   -9.2491   24.1607 O   0  0  0  0  0  0  0  0  0  0  0  0
    8.1347  -11.0264   24.3798 O   0  0  0  0  0  0  0  0  0  0  0  0
    6.6477   -9.1048   23.2269 H   0  0  0  0  0  0  0  0  0  0  0  0
    8.4059  -10.9244   23.4540 H   0  0  0  0  0  0  0  0  0  0  0  0
 36 37  2  0  0  0
 36 38  1  0  0  0
 36 39  1  0  0  0
 36 35  1  0  0  0
 35 31  1  0  0  0
 31 32  2  0  0  0
 31 33  1  0  0  0
 31 30  1  0  0  0
 30 26  1  0  0  0
 26 27  2  0  0  0
 26 28  1  0  0  0
 26 25  1  0  0  0
 25 24  1  0  0  0
 24  1  1  0  0  0
  1  2  1  0  0  0
  1  3  1  0  0  0
  2  7  1  0  0  0
  3  4  1  0  0  0
  3  5  1  0  0  0
  5  6  1  0  0  0
  5  7  1  0  0  0
  7 10  1  0  0  0
 10 11  1  0  0  0
 10 20  1  0  0  0
 11 12  2  0  0  0
 12 13  1  0  0  0
 13 14  1  0  0  0
 13 20  2  0  0  0
 14 15  2  0  0  0
 14 16  1  0  0  0
 16 17  1  0  0  0
 17 18  1  0  0  0
 17 19  2  0  0  0
 19 20  1  0  0  0
 38 40  1  0  0  0
 39 41  1  0  0  0
 33 34  1  0  0  0
 28 29  1  0  0  0
  4  8  1  0  0  0
  6  9  1  0  0  0
 16 21  1  0  0  0
 18 22  1  0  0  0
 18 23  1  0  0  0
M  END
> <minimizedAffinity>
-8.35053

$$$$
