1K1L_FD3_A_999


 38 41  0  0  0  0  0  0  0  0999 V2000
   -3.9308    3.9337   22.6375 C   0  0  0  0  0  0  0  0  0  0  0  0
   -2.4426    3.8576   22.9110 C   0  0  0  0  0  0  0  0  0  0  0  0
   -1.9546    4.9003   23.3437 O   0  0  0  0  0  0  0  0  0  0  0  0
   -1.6977    2.7385   22.6650 N   0  0  0  0  0  0  0  0  0  0  0  0
   -2.2270    1.6508   21.8110 C   0  0  0  0  0  0  0  0  0  0  0  0
   -1.9180    0.3357   22.5695 C   0  0  0  0  0  0  0  0  0  0  0  0
    0.1206    1.5203   23.6210 C   0  0  0  0  0  0  0  0  0  0  0  0
   -0.2351    2.8039   22.8331 C   0  0  0  0  0  0  0  0  0  0  0  0
   -0.5805    0.3035   23.1257 N   0  0  0  0  0  0  0  0  0  0  0  0
    0.0172   -0.0887   22.3981 H   0  0  0  0  0  0  0  0  0  0  0  0
   -4.5747    4.8464   23.5924 N   0  0  0  0  0  0  0  0  0  0  0  0
   -5.0561    5.5580   23.0426 H   0  0  0  0  0  0  0  0  0  0  0  0
   -5.7164    4.2322   24.7217 S   0  0  0  0  0  0  0  0  0  0  0  0
   -6.9972    4.8338   24.4612 O   0  0  0  0  0  0  0  0  0  0  0  0
   -5.5664    2.8216   24.8486 O   0  0  0  0  0  0  0  0  0  0  0  0
   -5.0564    4.9612   26.1372 C   0  0  0  0  0  0  0  0  0  0  0  0
   -5.9499    5.5123   27.0706 C   0  0  0  0  0  0  0  0  0  0  0  0
   -5.4648    6.1312   28.2507 C   0  0  0  0  0  0  0  0  0  0  0  0
   -3.1591    5.6101   27.5184 C   0  0  0  0  0  0  0  0  0  0  0  0
   -4.0564    6.1794   28.4818 C   0  0  0  0  0  0  0  0  0  0  0  0
   -3.6791    4.9992   26.3464 C   0  0  0  0  0  0  0  0  0  0  0  0
   -3.5067    6.7822   29.6559 C   0  0  0  0  0  0  0  0  0  0  0  0
   -2.0891    6.8204   29.8633 C   0  0  0  0  0  0  0  0  0  0  0  0
   -1.2208    6.2526   28.8988 C   0  0  0  0  0  0  0  0  0  0  0  0
   -1.7447    5.6534   27.7344 C   0  0  0  0  0  0  0  0  0  0  0  0
   -4.2947    4.2923   21.1849 C   0  0  0  0  0  0  0  0  0  0  0  0
   -3.3637    5.3509   20.5580 C   0  0  0  0  0  0  0  0  0  0  0  0
   -3.7795    6.6882   20.4542 C   0  0  0  0  0  0  0  0  0  0  0  0
   -2.0898    4.9894   20.0612 C   0  0  0  0  0  0  0  0  0  0  0  0
   -1.2431    5.9529   19.4963 C   0  0  0  0  0  0  0  0  0  0  0  0
   -1.6689    7.2909   19.4035 C   0  0  0  0  0  0  0  0  0  0  0  0
   -2.9435    7.6608   19.8810 C   0  0  0  0  0  0  0  0  0  0  0  0
   -3.4182    9.0834   19.7896 C   0  0  0  0  0  0  0  0  0  0  0  0
   -2.5471   10.0401   19.6083 N   0  0  0  0  0  0  0  0  0  0  0  0
   -4.7024    9.3391   19.9104 N   0  0  0  0  0  0  0  0  0  0  0  0
   -1.5905    9.8246   19.5205 H   0  0  0  0  0  0  0  0  0  0  0  0
   -2.8473   10.9764   19.5595 H   0  0  0  0  0  0  0  0  0  0  0  0
   -5.3405    8.6018   20.0463 H   0  0  0  0  0  0  0  0  0  0  0  0
 27 28  2  0  0  0
 27 29  1  0  0  0
 27 26  1  0  0  0
 28 32  1  0  0  0
 29 30  2  0  0  0
 30 31  1  0  0  0
 31 32  2  0  0  0
 32 33  1  0  0  0
 33 34  1  0  0  0
 33 35  2  0  0  0
 26  1  1  0  0  0
  1  2  1  0  0  0
  1 11  1  0  0  0
  2  3  2  0  0  0
  2  4  1  0  0  0
  4  5  1  0  0  0
  4  8  1  0  0  0
  5  6  1  0  0  0
  6  9  1  0  0  0
  7  8  1  0  0  0
  7  9  1  0  0  0
 11 13  1  0  0  0
 13 14  2  0  0  0
 13 15  2  0  0  0
 13 16  1  0  0  0
 16 17  2  0  0  0
 16 21  1  0  0  0
 17 18  1  0  0  0
 18 20  2  0  0  0
 19 20  1  0  0  0
 19 21  2  0  0  0
 19 25  1  0  0  0
 20 22  1  0  0  0
 22 23  2  0  0  0
 23 24  1  0  0  0
 24 25  2  0  0  0
 34 36  1  0  0  0
 34 37  1  0  0  0
 35 38  1  0  0  0
  9 10  1  0  0  0
 11 12  1  0  0  0
M  END
> <minimizedAffinity>
-9.32948

$$$$
1K1L_FD3_A_999


 38 41  0  0  0  0  0  0  0  0999 V2000
   -3.3713    4.1763   22.9293 C   0  0  0  0  0  0  0  0  0  0  0  0
   -4.4341    4.1390   24.0084 C   0  0  0  0  0  0  0  0  0  0  0  0
   -5.5166    3.6896   23.6357 O   0  0  0  0  0  0  0  0  0  0  0  0
   -4.2211    4.5979   25.2779 N   0  0  0  0  0  0  0  0  0  0  0  0
   -3.0567    5.4597   25.5848 C   0  0  0  0  0  0  0  0  0  0  0  0
   -2.4398    4.8825   26.8834 C   0  0  0  0  0  0  0  0  0  0  0  0
   -4.7949    4.0450   27.5294 C   0  0  0  0  0  0  0  0  0  0  0  0
   -5.3546    4.6472   26.2183 C   0  0  0  0  0  0  0  0  0  0  0  0
   -3.4348    4.5401   27.8795 N   0  0  0  0  0  0  0  0  0  0  0  0
   -3.5770    5.3830   28.4361 H   0  0  0  0  0  0  0  0  0  0  0  0
   -2.5999    2.9255   22.9353 N   0  0  0  0  0  0  0  0  0  0  0  0
   -2.4969    2.6370   21.9624 H   0  0  0  0  0  0  0  0  0  0  0  0
   -1.0287    2.8962   23.6329 S   0  0  0  0  0  0  0  0  0  0  0  0
   -0.3980    4.1702   23.4106 O   0  0  0  0  0  0  0  0  0  0  0  0
   -1.0809    2.3050   24.9275 O   0  0  0  0  0  0  0  0  0  0  0  0
   -0.3204    1.7495   22.5586 C   0  0  0  0  0  0  0  0  0  0  0  0
    0.3041    0.6226   23.1183 C   0  0  0  0  0  0  0  0  0  0  0  0
    0.9099   -0.3514   22.2844 C   0  0  0  0  0  0  0  0  0  0  0  0
    0.2260    0.9804   20.3140 C   0  0  0  0  0  0  0  0  0  0  0  0
    0.8694   -0.1758   20.8678 C   0  0  0  0  0  0  0  0  0  0  0  0
   -0.3694    1.9370   21.1785 C   0  0  0  0  0  0  0  0  0  0  0  0
    1.4549   -1.1264   19.9747 C   0  0  0  0  0  0  0  0  0  0  0  0
    1.4034   -0.9258   18.5564 C   0  0  0  0  0  0  0  0  0  0  0  0
    0.7634    0.2234   18.0306 C   0  0  0  0  0  0  0  0  0  0  0  0
    0.1800    1.1721   18.8962 C   0  0  0  0  0  0  0  0  0  0  0  0
   -3.9032    4.5015   21.5213 C   0  0  0  0  0  0  0  0  0  0  0  0
   -3.0861    5.5848   20.7870 C   0  0  0  0  0  0  0  0  0  0  0  0
   -3.6265    6.8651   20.5852 C   0  0  0  0  0  0  0  0  0  0  0  0
   -1.7929    5.3012   20.2895 C   0  0  0  0  0  0  0  0  0  0  0  0
   -1.0497    6.2876   19.6268 C   0  0  0  0  0  0  0  0  0  0  0  0
   -1.6000    7.5686   19.4362 C   0  0  0  0  0  0  0  0  0  0  0  0
   -2.8950    7.8589   19.9138 C   0  0  0  0  0  0  0  0  0  0  0  0
   -3.5018    9.2196   19.7187 C   0  0  0  0  0  0  0  0  0  0  0  0
   -4.8003    9.3557   19.7654 N   0  0  0  0  0  0  0  0  0  0  0  0
   -2.7125   10.2457   19.4882 N   0  0  0  0  0  0  0  0  0  0  0  0
   -5.3713    8.5729   19.9395 H   0  0  0  0  0  0  0  0  0  0  0  0
   -5.2077   10.2411   19.6264 H   0  0  0  0  0  0  0  0  0  0  0  0
   -1.7367   10.1191   19.4576 H   0  0  0  0  0  0  0  0  0  0  0  0
 27 28  2  0  0  0
 27 29  1  0  0  0
 27 26  1  0  0  0
 28 32  1  0  0  0
 29 30  2  0  0  0
 30 31  1  0  0  0
 31 32  2  0  0  0
 32 33  1  0  0  0
 33 34  1  0  0  0
 33 35  2  0  0  0
 26  1  1  0  0  0
  1  2  1  0  0  0
  1 11  1  0  0  0
  2  3  2  0  0  0
  2  4  1  0  0  0
  4  5  1  0  0  0
  4  8  1  0  0  0
  5  6  1  0  0  0
  6  9  1  0  0  0
  7  8  1  0  0  0
  7  9  1  0  0  0
 11 13  1  0  0  0
 13 14  2  0  0  0
 13 15  2  0  0  0
 13 16  1  0  0  0
 16 17  2  0  0  0
 16 21  1  0  0  0
 17 18  1  0  0  0
 18 20  2  0  0  0
 19 20  1  0  0  0
 19 21  2  0  0  0
 19 25  1  0  0  0
 20 22  1  0  0  0
 22 23  2  0  0  0
 23 24  1  0  0  0
 24 25  2  0  0  0
 34 36  1  0  0  0
 34 37  1  0  0  0
 35 38  1  0  0  0
  9 10  1  0  0  0
 11 12  1  0  0  0
M  END
> <minimizedAffinity>
-9.08619

$$$$
1K1L_FD3_A_999


 38 41  0  0  0  0  0  0  0  0999 V2000
   -1.4630    3.3784   23.5912 C   0  0  0  0  0  0  0  0  0  0  0  0
   -0.4931    2.3526   24.1409 C   0  0  0  0  0  0  0  0  0  0  0  0
    0.5576    2.8286   24.5674 O   0  0  0  0  0  0  0  0  0  0  0  0
   -0.7470    1.0097   24.1319 N   0  0  0  0  0  0  0  0  0  0  0  0
   -1.8284    0.4505   23.2891 C   0  0  0  0  0  0  0  0  0  0  0  0
   -2.5992   -0.5383   24.1993 C   0  0  0  0  0  0  0  0  0  0  0  0
   -0.4048   -0.9129   25.5070 C   0  0  0  0  0  0  0  0  0  0  0  0
    0.3128    0.0804   24.5618 C   0  0  0  0  0  0  0  0  0  0  0  0
   -1.7240   -1.3760   24.9942 N   0  0  0  0  0  0  0  0  0  0  0  0
   -1.5310   -2.2003   24.4254 H   0  0  0  0  0  0  0  0  0  0  0  0
   -2.0161    4.1890   24.6851 N   0  0  0  0  0  0  0  0  0  0  0  0
   -2.0831    5.1462   24.3391 H   0  0  0  0  0  0  0  0  0  0  0  0
   -3.5509    3.7906   25.3497 S   0  0  0  0  0  0  0  0  0  0  0  0
   -4.5788    4.3512   24.5134 O   0  0  0  0  0  0  0  0  0  0  0  0
   -3.5720    2.4217   25.7420 O   0  0  0  0  0  0  0  0  0  0  0  0
   -3.4386    4.7463   26.7796 C   0  0  0  0  0  0  0  0  0  0  0  0
   -4.6221    5.0098   27.4890 C   0  0  0  0  0  0  0  0  0  0  0  0
   -4.5925    5.7958   28.6690 C   0  0  0  0  0  0  0  0  0  0  0  0
   -2.1441    6.0284   28.3948 C   0  0  0  0  0  0  0  0  0  0  0  0
   -3.3426    6.3090   29.1312 C   0  0  0  0  0  0  0  0  0  0  0  0
   -2.2102    5.2389   27.2161 C   0  0  0  0  0  0  0  0  0  0  0  0
   -3.2468    7.1006   30.3179 C   0  0  0  0  0  0  0  0  0  0  0  0
   -1.9805    7.6065   30.7594 C   0  0  0  0  0  0  0  0  0  0  0  0
   -0.8093    7.3179   30.0168 C   0  0  0  0  0  0  0  0  0  0  0  0
   -0.8842    6.5384   28.8437 C   0  0  0  0  0  0  0  0  0  0  0  0
   -0.8872    4.2644   22.4712 C   0  0  0  0  0  0  0  0  0  0  0  0
   -1.9668    4.9190   21.5844 C   0  0  0  0  0  0  0  0  0  0  0  0
   -1.6655    6.0644   20.8298 C   0  0  0  0  0  0  0  0  0  0  0  0
   -3.2776    4.3904   21.5329 C   0  0  0  0  0  0  0  0  0  0  0  0
   -4.2561    4.9831   20.7232 C   0  0  0  0  0  0  0  0  0  0  0  0
   -3.9401    6.1270   19.9670 C   0  0  0  0  0  0  0  0  0  0  0  0
   -2.6407    6.6729   20.0223 C   0  0  0  0  0  0  0  0  0  0  0  0
   -2.2832    7.8949   19.2245 C   0  0  0  0  0  0  0  0  0  0  0  0
   -2.9427    9.0053   19.4214 N   0  0  0  0  0  0  0  0  0  0  0  0
   -1.3221    7.8175   18.3303 N   0  0  0  0  0  0  0  0  0  0  0  0
   -3.6584    9.0396   20.0965 H   0  0  0  0  0  0  0  0  0  0  0  0
   -2.7240    9.8078   18.8947 H   0  0  0  0  0  0  0  0  0  0  0  0
   -0.8388    6.9699   18.1993 H   0  0  0  0  0  0  0  0  0  0  0  0
 27 28  2  0  0  0
 27 29  1  0  0  0
 27 26  1  0  0  0
 28 32  1  0  0  0
 29 30  2  0  0  0
 30 31  1  0  0  0
 31 32  2  0  0  0
 32 33  1  0  0  0
 33 34  1  0  0  0
 33 35  2  0  0  0
 26  1  1  0  0  0
  1  2  1  0  0  0
  1 11  1  0  0  0
  2  3  2  0  0  0
  2  4  1  0  0  0
  4  5  1  0  0  0
  4  8  1  0  0  0
  5  6  1  0  0  0
  6  9  1  0  0  0
  7  8  1  0  0  0
  7  9  1  0  0  0
 11 13  1  0  0  0
 13 14  2  0  0  0
 13 15  2  0  0  0
 13 16  1  0  0  0
 16 17  2  0  0  0
 16 21  1  0  0  0
 17 18  1  0  0  0
 18 20  2  0  0  0
 19 20  1  0  0  0
 19 21  2  0  0  0
 19 25  1  0  0  0
 20 22  1  0  0  0
 22 23  2  0  0  0
 23 24  1  0  0  0
 24 25  2  0  0  0
 34 36  1  0  0  0
 34 37  1  0  0  0
 35 38  1  0  0  0
  9 10  1  0  0  0
 11 12  1  0  0  0
M  END
> <minimizedAffinity>
-8.81118

$$$$
1K1L_FD3_A_999


 38 41  0  0  0  0  0  0  0  0999 V2000
   -3.2954    4.2047   22.7172 C   0  0  0  0  0  0  0  0  0  0  0  0
   -4.3579    4.0832   23.7904 C   0  0  0  0  0  0  0  0  0  0  0  0
   -5.4562    3.7180   23.3748 O   0  0  0  0  0  0  0  0  0  0  0  0
   -4.1272    4.3874   25.1027 N   0  0  0  0  0  0  0  0  0  0  0  0
   -2.9323    5.1668   25.4994 C   0  0  0  0  0  0  0  0  0  0  0  0
   -2.3354    4.4244   26.7212 C   0  0  0  0  0  0  0  0  0  0  0  0
   -4.7186    3.6037   27.2800 C   0  0  0  0  0  0  0  0  0  0  0  0
   -5.2574    4.3702   26.0483 C   0  0  0  0  0  0  0  0  0  0  0  0
   -3.3411    4.0071   27.6770 N   0  0  0  0  0  0  0  0  0  0  0  0
   -3.4524    4.7859   28.3262 H   0  0  0  0  0  0  0  0  0  0  0  0
   -2.4589    2.9967   22.6944 N   0  0  0  0  0  0  0  0  0  0  0  0
   -2.6736    2.5048   21.8270 H   0  0  0  0  0  0  0  0  0  0  0  0
   -0.7476    3.1430   22.7738 S   0  0  0  0  0  0  0  0  0  0  0  0
   -0.1731    2.5076   21.6178 O   0  0  0  0  0  0  0  0  0  0  0  0
   -0.3886    4.4680   23.1529 O   0  0  0  0  0  0  0  0  0  0  0  0
   -0.4911    2.1180   24.1355 C   0  0  0  0  0  0  0  0  0  0  0  0
   -1.6088    1.4789   24.6973 C   0  0  0  0  0  0  0  0  0  0  0  0
   -1.4601    0.6291   25.8228 C   0  0  0  0  0  0  0  0  0  0  0  0
    0.9720    1.0846   25.7847 C   0  0  0  0  0  0  0  0  0  0  0  0
   -0.1580    0.4250   26.3724 C   0  0  0  0  0  0  0  0  0  0  0  0
    0.7869    1.9303   24.6588 C   0  0  0  0  0  0  0  0  0  0  0  0
    0.0575   -0.4260   27.5009 C   0  0  0  0  0  0  0  0  0  0  0  0
    1.3741   -0.6123   28.0358 C   0  0  0  0  0  0  0  0  0  0  0  0
    2.4761    0.0492   27.4403 C   0  0  0  0  0  0  0  0  0  0  0  0
    2.2831    0.8925   26.3263 C   0  0  0  0  0  0  0  0  0  0  0  0
   -3.8397    4.5377   21.3159 C   0  0  0  0  0  0  0  0  0  0  0  0
   -3.0561    5.6564   20.5983 C   0  0  0  0  0  0  0  0  0  0  0  0
   -3.6037    6.9445   20.4843 C   0  0  0  0  0  0  0  0  0  0  0  0
   -1.7876    5.3987   20.0284 C   0  0  0  0  0  0  0  0  0  0  0  0
   -1.0746    6.4171   19.3810 C   0  0  0  0  0  0  0  0  0  0  0  0
   -1.6315    7.7053   19.2787 C   0  0  0  0  0  0  0  0  0  0  0  0
   -2.9027    7.9706   19.8292 C   0  0  0  0  0  0  0  0  0  0  0  0
   -3.5163    9.3385   19.7290 C   0  0  0  0  0  0  0  0  0  0  0  0
   -2.7557   10.3642   19.4531 N   0  0  0  0  0  0  0  0  0  0  0  0
   -4.8071    9.4783   19.9375 N   0  0  0  0  0  0  0  0  0  0  0  0
   -1.7916   10.2353   19.3007 H   0  0  0  0  0  0  0  0  0  0  0  0
   -3.1465   11.2661   19.3976 H   0  0  0  0  0  0  0  0  0  0  0  0
   -5.3605    8.6907   20.1439 H   0  0  0  0  0  0  0  0  0  0  0  0
 27 28  2  0  0  0
 27 29  1  0  0  0
 27 26  1  0  0  0
 28 32  1  0  0  0
 29 30  2  0  0  0
 30 31  1  0  0  0
 31 32  2  0  0  0
 32 33  1  0  0  0
 33 34  1  0  0  0
 33 35  2  0  0  0
 26  1  1  0  0  0
  1  2  1  0  0  0
  1 11  1  0  0  0
  2  3  2  0  0  0
  2  4  1  0  0  0
  4  5  1  0  0  0
  4  8  1  0  0  0
  5  6  1  0  0  0
  6  9  1  0  0  0
  7  8  1  0  0  0
  7  9  1  0  0  0
 11 13  1  0  0  0
 13 14  2  0  0  0
 13 15  2  0  0  0
 13 16  1  0  0  0
 16 17  2  0  0  0
 16 21  1  0  0  0
 17 18  1  0  0  0
 18 20  2  0  0  0
 19 20  1  0  0  0
 19 21  2  0  0  0
 19 25  1  0  0  0
 20 22  1  0  0  0
 22 23  2  0  0  0
 23 24  1  0  0  0
 24 25  2  0  0  0
 34 36  1  0  0  0
 34 37  1  0  0  0
 35 38  1  0  0  0
  9 10  1  0  0  0
 11 12  1  0  0  0
M  END
> <minimizedAffinity>
-8.70850

$$$$
1K1L_FD3_A_999


 38 41  0  0  0  0  0  0  0  0999 V2000
   -2.8399    3.4352   22.6962 C   0  0  0  0  0  0  0  0  0  0  0  0
   -3.6960    4.3494   21.8438 C   0  0  0  0  0  0  0  0  0  0  0  0
   -4.8924    4.3311   22.1281 O   0  0  0  0  0  0  0  0  0  0  0  0
   -3.1897    5.1034   20.8226 N   0  0  0  0  0  0  0  0  0  0  0  0
   -1.8434    4.8247   20.2726 C   0  0  0  0  0  0  0  0  0  0  0  0
   -1.1472    6.2035   20.1521 C   0  0  0  0  0  0  0  0  0  0  0  0
   -3.4819    7.2602   19.8393 C   0  0  0  0  0  0  0  0  0  0  0  0
   -4.1199    5.8557   19.9622 C   0  0  0  0  0  0  0  0  0  0  0  0
   -2.0119    7.2284   19.6032 N   0  0  0  0  0  0  0  0  0  0  0  0
   -1.8905    7.1864   18.5913 H   0  0  0  0  0  0  0  0  0  0  0  0
   -3.0723    3.7080   24.1214 N   0  0  0  0  0  0  0  0  0  0  0  0
   -3.9683    3.2837   24.3614 H   0  0  0  0  0  0  0  0  0  0  0  0
   -1.9345    3.1643   25.2902 S   0  0  0  0  0  0  0  0  0  0  0  0
   -2.2724    1.8202   25.6769 O   0  0  0  0  0  0  0  0  0  0  0  0
   -0.6148    3.5152   24.8861 O   0  0  0  0  0  0  0  0  0  0  0  0
   -2.3929    4.2245   26.5694 C   0  0  0  0  0  0  0  0  0  0  0  0
   -3.7627    4.3676   26.8460 C   0  0  0  0  0  0  0  0  0  0  0  0
   -4.1999    5.2309   27.8826 C   0  0  0  0  0  0  0  0  0  0  0  0
   -1.8346    5.7868   28.3516 C   0  0  0  0  0  0  0  0  0  0  0  0
   -3.2291    5.9465   28.6471 C   0  0  0  0  0  0  0  0  0  0  0  0
   -1.4316    4.9149   27.3053 C   0  0  0  0  0  0  0  0  0  0  0  0
   -3.6067    6.8253   29.7097 C   0  0  0  0  0  0  0  0  0  0  0  0
   -2.6130    7.5345   30.4606 C   0  0  0  0  0  0  0  0  0  0  0  0
   -1.2413    7.3626   30.1517 C   0  0  0  0  0  0  0  0  0  0  0  0
   -0.8496    6.4997   29.1069 C   0  0  0  0  0  0  0  0  0  0  0  0
   -2.9954    1.9366   22.3786 C   0  0  0  0  0  0  0  0  0  0  0  0
   -1.6953    1.2727   21.8791 C   0  0  0  0  0  0  0  0  0  0  0  0
   -1.3985    1.2388   20.5069 C   0  0  0  0  0  0  0  0  0  0  0  0
   -0.7948    0.6720   22.7894 C   0  0  0  0  0  0  0  0  0  0  0  0
    0.3883    0.0735   22.3349 C   0  0  0  0  0  0  0  0  0  0  0  0
    0.6773    0.0514   20.9579 C   0  0  0  0  0  0  0  0  0  0  0  0
   -0.2207    0.6331   20.0387 C   0  0  0  0  0  0  0  0  0  0  0  0
    0.0679    0.6183   18.5642 C   0  0  0  0  0  0  0  0  0  0  0  0
   -0.4340   -0.3322   17.8217 N   0  0  0  0  0  0  0  0  0  0  0  0
    0.8352    1.5556   18.0524 N   0  0  0  0  0  0  0  0  0  0  0  0
   -1.0059   -1.0234   18.2271 H   0  0  0  0  0  0  0  0  0  0  0  0
   -0.2402   -0.3573   16.8568 H   0  0  0  0  0  0  0  0  0  0  0  0
    1.2022    2.2621   18.6315 H   0  0  0  0  0  0  0  0  0  0  0  0
 27 28  2  0  0  0
 27 29  1  0  0  0
 27 26  1  0  0  0
 28 32  1  0  0  0
 29 30  2  0  0  0
 30 31  1  0  0  0
 31 32  2  0  0  0
 32 33  1  0  0  0
 33 34  1  0  0  0
 33 35  2  0  0  0
 26  1  1  0  0  0
  1  2  1  0  0  0
  1 11  1  0  0  0
  2  3  2  0  0  0
  2  4  1  0  0  0
  4  5  1  0  0  0
  4  8  1  0  0  0
  5  6  1  0  0  0
  6  9  1  0  0  0
  7  8  1  0  0  0
  7  9  1  0  0  0
 11 13  1  0  0  0
 13 14  2  0  0  0
 13 15  2  0  0  0
 13 16  1  0  0  0
 16 17  2  0  0  0
 16 21  1  0  0  0
 17 18  1  0  0  0
 18 20  2  0  0  0
 19 20  1  0  0  0
 19 21  2  0  0  0
 19 25  1  0  0  0
 20 22  1  0  0  0
 22 23  2  0  0  0
 23 24  1  0  0  0
 24 25  2  0  0  0
 34 36  1  0  0  0
 34 37  1  0  0  0
 35 38  1  0  0  0
  9 10  1  0  0  0
 11 12  1  0  0  0
M  END
> <minimizedAffinity>
-8.55180

$$$$
1K1L_FD3_A_999


 38 41  0  0  0  0  0  0  0  0999 V2000
   -3.8890    1.8260   24.1062 C   0  0  0  0  0  0  0  0  0  0  0  0
   -3.1932    1.2440   22.8928 C   0  0  0  0  0  0  0  0  0  0  0  0
   -3.8136    0.3364   22.3417 O   0  0  0  0  0  0  0  0  0  0  0  0
   -1.9650    1.6656   22.4666 N   0  0  0  0  0  0  0  0  0  0  0  0
   -1.0959    2.4767   23.3495 C   0  0  0  0  0  0  0  0  0  0  0  0
   -0.5659    3.6339   22.4661 C   0  0  0  0  0  0  0  0  0  0  0  0
   -0.7891    2.0665   20.4268 C   0  0  0  0  0  0  0  0  0  0  0  0
   -1.3082    0.9468   21.3605 C   0  0  0  0  0  0  0  0  0  0  0  0
   -0.1420    3.1948   21.1520 N   0  0  0  0  0  0  0  0  0  0  0  0
    0.8420    2.9425   21.2437 H   0  0  0  0  0  0  0  0  0  0  0  0
   -5.1490    2.4685   23.7072 N   0  0  0  0  0  0  0  0  0  0  0  0
   -5.8335    2.2524   24.4319 H   0  0  0  0  0  0  0  0  0  0  0  0
   -5.1993    4.1700   23.4656 S   0  0  0  0  0  0  0  0  0  0  0  0
   -4.1010    4.5514   22.6179 O   0  0  0  0  0  0  0  0  0  0  0  0
   -6.5337    4.5842   23.1898 O   0  0  0  0  0  0  0  0  0  0  0  0
   -4.8239    4.6437   25.0797 C   0  0  0  0  0  0  0  0  0  0  0  0
   -5.8843    4.7638   25.9932 C   0  0  0  0  0  0  0  0  0  0  0  0
   -5.6372    5.1565   27.3333 C   0  0  0  0  0  0  0  0  0  0  0  0
   -3.2248    5.2909   26.7980 C   0  0  0  0  0  0  0  0  0  0  0  0
   -4.2952    5.4202   27.7441 C   0  0  0  0  0  0  0  0  0  0  0  0
   -3.5083    4.8970   25.4632 C   0  0  0  0  0  0  0  0  0  0  0  0
   -3.9812    5.8117   29.0828 C   0  0  0  0  0  0  0  0  0  0  0  0
   -2.6262    6.0735   29.4697 C   0  0  0  0  0  0  0  0  0  0  0  0
   -1.5844    5.9404   28.5192 C   0  0  0  0  0  0  0  0  0  0  0  0
   -1.8748    5.5549   27.1939 C   0  0  0  0  0  0  0  0  0  0  0  0
   -4.1080    0.8261   25.2564 C   0  0  0  0  0  0  0  0  0  0  0  0
   -3.6265    1.3456   26.6271 C   0  0  0  0  0  0  0  0  0  0  0  0
   -2.2598    1.5683   26.8604 C   0  0  0  0  0  0  0  0  0  0  0  0
   -4.5478    1.5859   27.6729 C   0  0  0  0  0  0  0  0  0  0  0  0
   -4.1096    2.0625   28.9161 C   0  0  0  0  0  0  0  0  0  0  0  0
   -2.7380    2.2875   29.1356 C   0  0  0  0  0  0  0  0  0  0  0  0
   -1.8078    2.0365   28.1054 C   0  0  0  0  0  0  0  0  0  0  0  0
   -0.3387    2.2680   28.3198 C   0  0  0  0  0  0  0  0  0  0  0  0
    0.0590    2.9364   29.3694 N   0  0  0  0  0  0  0  0  0  0  0  0
    0.5181    1.8061   27.4356 N   0  0  0  0  0  0  0  0  0  0  0  0
   -0.6009    3.2726   30.0181 H   0  0  0  0  0  0  0  0  0  0  0  0
    1.0187    3.1038   29.5119 H   0  0  0  0  0  0  0  0  0  0  0  0
    0.1951    1.3051   26.6522 H   0  0  0  0  0  0  0  0  0  0  0  0
 27 28  2  0  0  0
 27 29  1  0  0  0
 27 26  1  0  0  0
 28 32  1  0  0  0
 29 30  2  0  0  0
 30 31  1  0  0  0
 31 32  2  0  0  0
 32 33  1  0  0  0
 33 34  1  0  0  0
 33 35  2  0  0  0
 26  1  1  0  0  0
  1  2  1  0  0  0
  1 11  1  0  0  0
  2  3  2  0  0  0
  2  4  1  0  0  0
  4  5  1  0  0  0
  4  8  1  0  0  0
  5  6  1  0  0  0
  6  9  1  0  0  0
  7  8  1  0  0  0
  7  9  1  0  0  0
 11 13  1  0  0  0
 13 14  2  0  0  0
 13 15  2  0  0  0
 13 16  1  0  0  0
 16 17  2  0  0  0
 16 21  1  0  0  0
 17 18  1  0  0  0
 18 20  2  0  0  0
 19 20  1  0  0  0
 19 21  2  0  0  0
 19 25  1  0  0  0
 20 22  1  0  0  0
 22 23  2  0  0  0
 23 24  1  0  0  0
 24 25  2  0  0  0
 34 36  1  0  0  0
 34 37  1  0  0  0
 35 38  1  0  0  0
  9 10  1  0  0  0
 11 12  1  0  0  0
M  END
> <minimizedAffinity>
-8.49823

$$$$
1K1L_FD3_A_999


 38 41  0  0  0  0  0  0  0  0999 V2000
   -2.7080    2.7735   24.1148 C   0  0  0  0  0  0  0  0  0  0  0  0
   -1.3822    2.7912   24.8478 C   0  0  0  0  0  0  0  0  0  0  0  0
   -0.5028    3.4415   24.2854 O   0  0  0  0  0  0  0  0  0  0  0  0
   -1.1692    2.1138   26.0155 N   0  0  0  0  0  0  0  0  0  0  0  0
   -2.1086    1.0589   26.4597 C   0  0  0  0  0  0  0  0  0  0  0  0
   -2.3646    1.3328   27.9630 C   0  0  0  0  0  0  0  0  0  0  0  0
   -0.0092    2.3827   28.0859 C   0  0  0  0  0  0  0  0  0  0  0  0
    0.1908    2.0784   26.5818 C   0  0  0  0  0  0  0  0  0  0  0  0
   -1.1553    1.6520   28.6944 N   0  0  0  0  0  0  0  0  0  0  0  0
   -0.7799    0.7611   29.0195 H   0  0  0  0  0  0  0  0  0  0  0  0
   -3.4747    3.9878   24.4266 N   0  0  0  0  0  0  0  0  0  0  0  0
   -3.7229    4.4177   23.5356 H   0  0  0  0  0  0  0  0  0  0  0  0
   -4.9243    3.8690   25.3435 S   0  0  0  0  0  0  0  0  0  0  0  0
   -5.9632    4.5987   24.6665 O   0  0  0  0  0  0  0  0  0  0  0  0
   -5.1172    2.5268   25.7790 O   0  0  0  0  0  0  0  0  0  0  0  0
   -4.4137    4.7957   26.7041 C   0  0  0  0  0  0  0  0  0  0  0  0
   -5.4041    5.3299   27.5449 C   0  0  0  0  0  0  0  0  0  0  0  0
   -5.0442    6.1062   28.6758 C   0  0  0  0  0  0  0  0  0  0  0  0
   -2.6640    5.7762   28.0846 C   0  0  0  0  0  0  0  0  0  0  0  0
   -3.6615    6.3308   28.9533 C   0  0  0  0  0  0  0  0  0  0  0  0
   -3.0597    5.0047   26.9597 C   0  0  0  0  0  0  0  0  0  0  0  0
   -3.2355    7.0978   30.0822 C   0  0  0  0  0  0  0  0  0  0  0  0
   -1.8415    7.3113   30.3375 C   0  0  0  0  0  0  0  0  0  0  0  0
   -0.8728    6.7549   29.4664 C   0  0  0  0  0  0  0  0  0  0  0  0
   -1.2741    5.9952   28.3478 C   0  0  0  0  0  0  0  0  0  0  0  0
   -2.5935    2.5564   22.5947 C   0  0  0  0  0  0  0  0  0  0  0  0
   -3.0929    3.7540   21.7601 C   0  0  0  0  0  0  0  0  0  0  0  0
   -2.1761    4.6513   21.1887 C   0  0  0  0  0  0  0  0  0  0  0  0
   -4.4769    3.9783   21.5745 C   0  0  0  0  0  0  0  0  0  0  0  0
   -4.9293    5.0639   20.8120 C   0  0  0  0  0  0  0  0  0  0  0  0
   -4.0004    5.9525   20.2396 C   0  0  0  0  0  0  0  0  0  0  0  0
   -2.6179    5.7484   20.4307 C   0  0  0  0  0  0  0  0  0  0  0  0
   -1.6096    6.6866   19.8300 C   0  0  0  0  0  0  0  0  0  0  0  0
   -2.0176    7.7949   19.2715 N   0  0  0  0  0  0  0  0  0  0  0  0
   -0.3352    6.3646   19.8642 N   0  0  0  0  0  0  0  0  0  0  0  0
   -2.9770    8.0152   19.2578 H   0  0  0  0  0  0  0  0  0  0  0  0
   -1.3655    8.4099   18.8642 H   0  0  0  0  0  0  0  0  0  0  0  0
   -0.0511    5.5239   20.2907 H   0  0  0  0  0  0  0  0  0  0  0  0
 27 28  2  0  0  0
 27 29  1  0  0  0
 27 26  1  0  0  0
 28 32  1  0  0  0
 29 30  2  0  0  0
 30 31  1  0  0  0
 31 32  2  0  0  0
 32 33  1  0  0  0
 33 34  1  0  0  0
 33 35  2  0  0  0
 26  1  1  0  0  0
  1  2  1  0  0  0
  1 11  1  0  0  0
  2  3  2  0  0  0
  2  4  1  0  0  0
  4  5  1  0  0  0
  4  8  1  0  0  0
  5  6  1  0  0  0
  6  9  1  0  0  0
  7  8  1  0  0  0
  7  9  1  0  0  0
 11 13  1  0  0  0
 13 14  2  0  0  0
 13 15  2  0  0  0
 13 16  1  0  0  0
 16 17  2  0  0  0
 16 21  1  0  0  0
 17 18  1  0  0  0
 18 20  2  0  0  0
 19 20  1  0  0  0
 19 21  2  0  0  0
 19 25  1  0  0  0
 20 22  1  0  0  0
 22 23  2  0  0  0
 23 24  1  0  0  0
 24 25  2  0  0  0
 34 36  1  0  0  0
 34 37  1  0  0  0
 35 38  1  0  0  0
  9 10  1  0  0  0
 11 12  1  0  0  0
M  END
> <minimizedAffinity>
-8.48649

$$$$
1K1L_FD3_A_999


 38 41  0  0  0  0  0  0  0  0999 V2000
   -0.8613    1.7850   21.5653 C   0  0  0  0  0  0  0  0  0  0  0  0
   -1.1707    0.5771   20.7048 C   0  0  0  0  0  0  0  0  0  0  0  0
   -2.2179    0.0028   20.9982 O   0  0  0  0  0  0  0  0  0  0  0  0
   -0.3408    0.1403   19.7106 N   0  0  0  0  0  0  0  0  0  0  0  0
    1.0598    0.6143   19.6323 C   0  0  0  0  0  0  0  0  0  0  0  0
    1.2955    0.9783   18.1449 C   0  0  0  0  0  0  0  0  0  0  0  0
   -0.4699   -0.7981   17.5181 C   0  0  0  0  0  0  0  0  0  0  0  0
   -0.6582   -1.1220   19.0196 C   0  0  0  0  0  0  0  0  0  0  0  0
    0.7583   -0.0072   17.2287 N   0  0  0  0  0  0  0  0  0  0  0  0
    1.5028   -0.6883   17.0801 H   0  0  0  0  0  0  0  0  0  0  0  0
    0.3026    1.5124   22.4202 N   0  0  0  0  0  0  0  0  0  0  0  0
    0.8181    2.3884   22.5059 H   0  0  0  0  0  0  0  0  0  0  0  0
    0.0676    0.9143   24.0149 S   0  0  0  0  0  0  0  0  0  0  0  0
   -0.5421   -0.3866   23.9379 O   0  0  0  0  0  0  0  0  0  0  0  0
    1.2331    1.1470   24.7996 O   0  0  0  0  0  0  0  0  0  0  0  0
   -1.1352    2.0448   24.5107 C   0  0  0  0  0  0  0  0  0  0  0  0
   -0.7373    3.3736   24.7322 C   0  0  0  0  0  0  0  0  0  0  0  0
   -1.6816    4.3466   25.1478 C   0  0  0  0  0  0  0  0  0  0  0  0
   -3.4325    2.5985   25.0976 C   0  0  0  0  0  0  0  0  0  0  0  0
   -3.0441    3.9596   25.3300 C   0  0  0  0  0  0  0  0  0  0  0  0
   -2.4604    1.6495   24.6836 C   0  0  0  0  0  0  0  0  0  0  0  0
   -4.0439    4.8958   25.7397 C   0  0  0  0  0  0  0  0  0  0  0  0
   -5.4044    4.4818   25.9184 C   0  0  0  0  0  0  0  0  0  0  0  0
   -5.7663    3.1325   25.6840 C   0  0  0  0  0  0  0  0  0  0  0  0
   -4.7938    2.1946   25.2791 C   0  0  0  0  0  0  0  0  0  0  0  0
   -0.6869    3.0987   20.7813 C   0  0  0  0  0  0  0  0  0  0  0  0
   -1.8950    4.0516   20.8957 C   0  0  0  0  0  0  0  0  0  0  0  0
   -1.8894    5.2867   20.2275 C   0  0  0  0  0  0  0  0  0  0  0  0
   -3.0145    3.7070   21.6884 C   0  0  0  0  0  0  0  0  0  0  0  0
   -4.1134    4.5713   21.7876 C   0  0  0  0  0  0  0  0  0  0  0  0
   -4.0983    5.8035   21.1083 C   0  0  0  0  0  0  0  0  0  0  0  0
   -2.9808    6.1654   20.3274 C   0  0  0  0  0  0  0  0  0  0  0  0
   -2.9437    7.4774   19.5959 C   0  0  0  0  0  0  0  0  0  0  0  0
   -4.0304    8.1978   19.5149 N   0  0  0  0  0  0  0  0  0  0  0  0
   -1.8192    7.8672   19.0366 N   0  0  0  0  0  0  0  0  0  0  0  0
   -4.8609    7.8857   19.9416 H   0  0  0  0  0  0  0  0  0  0  0  0
   -4.0190    9.0529   19.0270 H   0  0  0  0  0  0  0  0  0  0  0  0
   -1.0126    7.3076   19.1108 H   0  0  0  0  0  0  0  0  0  0  0  0
 27 28  2  0  0  0
 27 29  1  0  0  0
 27 26  1  0  0  0
 28 32  1  0  0  0
 29 30  2  0  0  0
 30 31  1  0  0  0
 31 32  2  0  0  0
 32 33  1  0  0  0
 33 34  1  0  0  0
 33 35  2  0  0  0
 26  1  1  0  0  0
  1  2  1  0  0  0
  1 11  1  0  0  0
  2  3  2  0  0  0
  2  4  1  0  0  0
  4  5  1  0  0  0
  4  8  1  0  0  0
  5  6  1  0  0  0
  6  9  1  0  0  0
  7  8  1  0  0  0
  7  9  1  0  0  0
 11 13  1  0  0  0
 13 14  2  0  0  0
 13 15  2  0  0  0
 13 16  1  0  0  0
 16 17  2  0  0  0
 16 21  1  0  0  0
 17 18  1  0  0  0
 18 20  2  0  0  0
 19 20  1  0  0  0
 19 21  2  0  0  0
 19 25  1  0  0  0
 20 22  1  0  0  0
 22 23  2  0  0  0
 23 24  1  0  0  0
 24 25  2  0  0  0
 34 36  1  0  0  0
 34 37  1  0  0  0
 35 38  1  0  0  0
  9 10  1  0  0  0
 11 12  1  0  0  0
M  END
> <minimizedAffinity>
-8.45013

$$$$
1K1L_FD3_A_999


 38 41  0  0  0  0  0  0  0  0999 V2000
   -2.7264    4.2342   22.6856 C   0  0  0  0  0  0  0  0  0  0  0  0
   -3.4691    4.5141   23.9761 C   0  0  0  0  0  0  0  0  0  0  0  0
   -2.7939    5.0787   24.8351 O   0  0  0  0  0  0  0  0  0  0  0  0
   -4.7671    4.1401   24.1831 N   0  0  0  0  0  0  0  0  0  0  0  0
   -5.4198    3.1514   23.2947 C   0  0  0  0  0  0  0  0  0  0  0  0
   -6.8113    3.7445   22.9598 C   0  0  0  0  0  0  0  0  0  0  0  0
   -6.7476    4.9594   25.2369 C   0  0  0  0  0  0  0  0  0  0  0  0
   -5.3609    4.3327   25.5180 C   0  0  0  0  0  0  0  0  0  0  0  0
   -7.4795    4.3084   24.1152 N   0  0  0  0  0  0  0  0  0  0  0  0
   -8.0120    3.5451   24.5325 H   0  0  0  0  0  0  0  0  0  0  0  0
   -2.2752    2.8360   22.6546 N   0  0  0  0  0  0  0  0  0  0  0  0
   -3.0379    2.2879   22.2568 H   0  0  0  0  0  0  0  0  0  0  0  0
   -0.8536    2.4180   21.7825 S   0  0  0  0  0  0  0  0  0  0  0  0
   -1.1539    1.3185   20.9043 O   0  0  0  0  0  0  0  0  0  0  0  0
   -0.2076    3.5958   21.3097 O   0  0  0  0  0  0  0  0  0  0  0  0
    0.0625    1.8122   23.1108 C   0  0  0  0  0  0  0  0  0  0  0  0
    0.3581    2.6949   24.1627 C   0  0  0  0  0  0  0  0  0  0  0  0
    1.1141    2.2548   25.2789 C   0  0  0  0  0  0  0  0  0  0  0  0
    1.2511    0.0125   24.2409 C   0  0  0  0  0  0  0  0  0  0  0  0
    1.5638    0.9001   25.3234 C   0  0  0  0  0  0  0  0  0  0  0  0
    0.4931    0.4870   23.1374 C   0  0  0  0  0  0  0  0  0  0  0  0
    2.3224    0.3949   26.4248 C   0  0  0  0  0  0  0  0  0  0  0  0
    2.7646   -0.9683   26.4444 C   0  0  0  0  0  0  0  0  0  0  0  0
    2.4453   -1.8277   25.3646 C   0  0  0  0  0  0  0  0  0  0  0  0
    1.6975   -1.3472   24.2694 C   0  0  0  0  0  0  0  0  0  0  0  0
   -3.5053    4.6014   21.4091 C   0  0  0  0  0  0  0  0  0  0  0  0
   -2.8595    5.7443   20.5985 C   0  0  0  0  0  0  0  0  0  0  0  0
   -3.4858    6.9986   20.5186 C   0  0  0  0  0  0  0  0  0  0  0  0
   -1.6413    5.5422   19.9088 C   0  0  0  0  0  0  0  0  0  0  0  0
   -1.0531    6.5826   19.1767 C   0  0  0  0  0  0  0  0  0  0  0  0
   -1.6877    7.8368   19.1094 C   0  0  0  0  0  0  0  0  0  0  0  0
   -2.9109    8.0460   19.7799 C   0  0  0  0  0  0  0  0  0  0  0  0
   -3.6058    9.3768   19.7189 C   0  0  0  0  0  0  0  0  0  0  0  0
   -2.9104   10.4526   19.4626 N   0  0  0  0  0  0  0  0  0  0  0  0
   -4.9006    9.4340   19.9415 N   0  0  0  0  0  0  0  0  0  0  0  0
   -1.9419   10.3854   19.2991 H   0  0  0  0  0  0  0  0  0  0  0  0
   -3.3549   11.3306   19.4329 H   0  0  0  0  0  0  0  0  0  0  0  0
   -5.4040    8.6098   20.1327 H   0  0  0  0  0  0  0  0  0  0  0  0
 27 28  2  0  0  0
 27 29  1  0  0  0
 27 26  1  0  0  0
 28 32  1  0  0  0
 29 30  2  0  0  0
 30 31  1  0  0  0
 31 32  2  0  0  0
 32 33  1  0  0  0
 33 34  1  0  0  0
 33 35  2  0  0  0
 26  1  1  0  0  0
  1  2  1  0  0  0
  1 11  1  0  0  0
  2  3  2  0  0  0
  2  4  1  0  0  0
  4  5  1  0  0  0
  4  8  1  0  0  0
  5  6  1  0  0  0
  6  9  1  0  0  0
  7  8  1  0  0  0
  7  9  1  0  0  0
 11 13  1  0  0  0
 13 14  2  0  0  0
 13 15  2  0  0  0
 13 16  1  0  0  0
 16 17  2  0  0  0
 16 21  1  0  0  0
 17 18  1  0  0  0
 18 20  2  0  0  0
 19 20  1  0  0  0
 19 21  2  0  0  0
 19 25  1  0  0  0
 20 22  1  0  0  0
 22 23  2  0  0  0
 23 24  1  0  0  0
 24 25  2  0  0  0
 34 36  1  0  0  0
 34 37  1  0  0  0
 35 38  1  0  0  0
  9 10  1  0  0  0
 11 12  1  0  0  0
M  END
> <minimizedAffinity>
-8.36974

$$$$
1K1L_FD3_A_999


 38 41  0  0  0  0  0  0  0  0999 V2000
   -3.0625    1.9324   24.9465 C   0  0  0  0  0  0  0  0  0  0  0  0
   -2.6809    1.3013   23.6231 C   0  0  0  0  0  0  0  0  0  0  0  0
   -3.4049    0.3677   23.2814 O   0  0  0  0  0  0  0  0  0  0  0  0
   -1.6036    1.7095   22.8880 N   0  0  0  0  0  0  0  0  0  0  0  0
   -0.5549    2.5622   23.4929 C   0  0  0  0  0  0  0  0  0  0  0  0
   -0.2785    3.6822   22.4588 C   0  0  0  0  0  0  0  0  0  0  0  0
   -0.9771    2.0265   20.6052 C   0  0  0  0  0  0  0  0  0  0  0  0
   -1.2311    0.9462   21.6837 C   0  0  0  0  0  0  0  0  0  0  0  0
   -0.1875    3.1882   21.0997 N   0  0  0  0  0  0  0  0  0  0  0  0
    0.7922    2.9447   20.9541 H   0  0  0  0  0  0  0  0  0  0  0  0
   -4.4194    2.4910   24.8681 N   0  0  0  0  0  0  0  0  0  0  0  0
   -4.8469    2.3594   25.7848 H   0  0  0  0  0  0  0  0  0  0  0  0
   -4.6379    4.1442   24.4491 S   0  0  0  0  0  0  0  0  0  0  0  0
   -3.5990    4.5322   23.5323 O   0  0  0  0  0  0  0  0  0  0  0  0
   -6.0113    4.3997   24.1723 O   0  0  0  0  0  0  0  0  0  0  0  0
   -4.2766    4.8231   25.9916 C   0  0  0  0  0  0  0  0  0  0  0  0
   -5.3455    5.0638   26.8707 C   0  0  0  0  0  0  0  0  0  0  0  0
   -5.1100    5.6270   28.1508 C   0  0  0  0  0  0  0  0  0  0  0  0
   -2.6920    5.6843   27.6274 C   0  0  0  0  0  0  0  0  0  0  0  0
   -3.7711    5.9385   28.5375 C   0  0  0  0  0  0  0  0  0  0  0  0
   -2.9638    5.1207   26.3524 C   0  0  0  0  0  0  0  0  0  0  0  0
   -3.4687    6.5002   29.8170 C   0  0  0  0  0  0  0  0  0  0  0  0
   -2.1166    6.8065   30.1804 C   0  0  0  0  0  0  0  0  0  0  0  0
   -1.0660    6.5480   29.2661 C   0  0  0  0  0  0  0  0  0  0  0  0
   -1.3448    5.9940   27.9994 C   0  0  0  0  0  0  0  0  0  0  0  0
   -2.9072    1.0031   26.1645 C   0  0  0  0  0  0  0  0  0  0  0  0
   -2.1658    1.6562   27.3494 C   0  0  0  0  0  0  0  0  0  0  0  0
   -2.8700    2.0372   28.5031 C   0  0  0  0  0  0  0  0  0  0  0  0
   -0.7740    1.8993   27.2853 C   0  0  0  0  0  0  0  0  0  0  0  0
   -0.1007    2.4882   28.3644 C   0  0  0  0  0  0  0  0  0  0  0  0
   -0.8167    2.8600   29.5174 C   0  0  0  0  0  0  0  0  0  0  0  0
   -2.2077    2.6372   29.5869 C   0  0  0  0  0  0  0  0  0  0  0  0
   -2.9912    3.0286   30.8079 C   0  0  0  0  0  0  0  0  0  0  0  0
   -4.2968    3.0042   30.7675 N   0  0  0  0  0  0  0  0  0  0  0  0
   -2.3454    3.4045   31.8899 N   0  0  0  0  0  0  0  0  0  0  0  0
   -4.7586    2.7190   29.9461 H   0  0  0  0  0  0  0  0  0  0  0  0
   -4.8188    3.2708   31.5585 H   0  0  0  0  0  0  0  0  0  0  0  0
   -1.3610    3.4150   31.8970 H   0  0  0  0  0  0  0  0  0  0  0  0
 27 28  2  0  0  0
 27 29  1  0  0  0
 27 26  1  0  0  0
 28 32  1  0  0  0
 29 30  2  0  0  0
 30 31  1  0  0  0
 31 32  2  0  0  0
 32 33  1  0  0  0
 33 34  1  0  0  0
 33 35  2  0  0  0
 26  1  1  0  0  0
  1  2  1  0  0  0
  1 11  1  0  0  0
  2  3  2  0  0  0
  2  4  1  0  0  0
  4  5  1  0  0  0
  4  8  1  0  0  0
  5  6  1  0  0  0
  6  9  1  0  0  0
  7  8  1  0  0  0
  7  9  1  0  0  0
 11 13  1  0  0  0
 13 14  2  0  0  0
 13 15  2  0  0  0
 13 16  1  0  0  0
 16 17  2  0  0  0
 16 21  1  0  0  0
 17 18  1  0  0  0
 18 20  2  0  0  0
 19 20  1  0  0  0
 19 21  2  0  0  0
 19 25  1  0  0  0
 20 22  1  0  0  0
 22 23  2  0  0  0
 23 24  1  0  0  0
 24 25  2  0  0  0
 34 36  1  0  0  0
 34 37  1  0  0  0
 35 38  1  0  0  0
  9 10  1  0  0  0
 11 12  1  0  0  0
M  END
> <minimizedAffinity>
-8.35147

$$$$
