5CQU_JRJ_A_401


 27 29  0  0  0  0  0  0  0  0999 V2000
    4.6028   -3.8592  -11.1471 C   0  0  0  0  0  0  0  0  0  0  0  0
    4.8126   -3.8181  -12.6488 N   0  0  0  0  0  0  0  0  0  0  0  0
    5.0175   -4.8280  -13.3740 N   0  0  0  0  0  0  0  0  0  0  0  0
    5.1616   -4.3920  -14.7022 C   0  0  0  0  0  0  0  0  0  0  0  0
    5.4134   -5.0668  -15.9994 C   0  0  0  0  0  0  0  0  0  0  0  0
    5.6124   -6.9032  -16.0528 Br  0  0  0  0  0  0  0  0  0  0  0  0
    5.4990   -4.3209  -17.1440 C   0  0  0  0  0  0  0  0  0  0  0  0
    5.8328   -5.1695  -18.8839 Br  0  0  0  0  0  0  0  0  0  0  0  0
    5.3493   -2.9315  -17.0995 C   0  0  0  0  0  0  0  0  0  0  0  0
    5.4733   -1.9128  -18.7265 Br  0  0  0  0  0  0  0  0  0  0  0  0
    5.0936   -2.2406  -15.7901 C   0  0  0  0  0  0  0  0  0  0  0  0
    4.8824   -0.2740  -15.7225 Br  0  0  0  0  0  0  0  0  0  0  0  0
    5.0083   -2.9648  -14.6605 C   0  0  0  0  0  0  0  0  0  0  0  0
    4.7963   -2.6775  -13.3611 N   0  0  0  0  0  0  0  0  0  0  0  0
    3.4762   -4.6808  -10.6678 C   0  0  0  0  0  0  0  0  0  0  0  0
    3.8851   -7.9494   -8.7024 N   0  0  0  0  0  0  0  0  0  0  0  0
    3.3164   -6.6956   -8.7881 C   0  0  0  0  0  0  0  0  0  0  0  0
    3.8055   -6.1010  -10.0613 C   0  0  0  0  0  0  0  0  0  0  0  0
    4.6493   -7.1196  -10.6103 N   0  0  0  0  0  0  0  0  0  0  0  0
    4.6711   -8.1411   -9.8276 N   0  0  0  0  0  0  0  0  0  0  0  0
    3.7087   -8.8936   -7.6597 C   0  0  0  0  0  0  0  0  0  0  0  0
    3.1768  -10.3273   -8.0365 C   0  0  0  0  0  0  0  0  0  0  0  0
    2.0531  -10.4161   -9.0155 C   0  0  0  0  0  0  0  0  0  0  0  0
    0.2302   -8.9104   -9.7118 N   0  0  0  0  0  0  0  0  0  0  0  0
    0.7945   -9.6777   -8.7028 C   0  0  0  0  0  0  0  0  0  0  0  0
   -0.6188   -8.4639   -9.3650 H   0  0  0  0  0  0  0  0  0  0  0  0
    0.0000   -9.5084  -10.5054 H   0  0  0  0  0  0  0  0  0  0  0  0
 24 25  1  0  0  0
 25 23  1  0  0  0
 23 22  1  0  0  0
 22 21  1  0  0  0
 21 16  1  0  0  0
 16 17  1  0  0  0
 16 20  1  0  0  0
 17 18  2  0  0  0
 18 15  1  0  0  0
 18 19  1  0  0  0
 15  1  1  0  0  0
  1  2  1  0  0  0
  2  3  1  0  0  0
  2 14  1  0  0  0
  3  4  2  0  0  0
  4  5  1  0  0  0
  4 13  1  0  0  0
  5  6  1  0  0  0
  5  7  2  0  0  0
  7  8  1  0  0  0
  7  9  1  0  0  0
  9 10  1  0  0  0
  9 11  2  0  0  0
 11 12  1  0  0  0
 11 13  1  0  0  0
 13 14  2  0  0  0
 19 20  2  0  0  0
 24 26  1  0  0  0
 24 27  1  0  0  0
M  END
> <minimizedAffinity>
-7.98487

$$$$
5CQU_JRJ_A_401


 27 29  0  0  0  0  0  0  0  0999 V2000
    4.6925   -3.9246  -11.1710 C   0  0  0  0  0  0  0  0  0  0  0  0
    4.8793   -3.8393  -12.6738 N   0  0  0  0  0  0  0  0  0  0  0  0
    4.8790   -2.7688  -13.3387 N   0  0  0  0  0  0  0  0  0  0  0  0
    5.0805   -3.0927  -14.6912 C   0  0  0  0  0  0  0  0  0  0  0  0
    5.1803   -2.3090  -15.9472 C   0  0  0  0  0  0  0  0  0  0  0  0
    5.0191   -0.4690  -15.8935 Br  0  0  0  0  0  0  0  0  0  0  0  0
    5.3878   -2.9582  -17.1343 C   0  0  0  0  0  0  0  0  0  0  0  0
    5.5249   -1.9635  -18.8227 Br  0  0  0  0  0  0  0  0  0  0  0  0
    5.5078   -4.3507  -17.1712 C   0  0  0  0  0  0  0  0  0  0  0  0
    5.8007   -5.2320  -18.8558 Br  0  0  0  0  0  0  0  0  0  0  0  0
    5.4084   -5.1515  -15.9038 C   0  0  0  0  0  0  0  0  0  0  0  0
    5.5765   -7.1228  -15.9518 Br  0  0  0  0  0  0  0  0  0  0  0  0
    5.2044   -4.5228  -14.7331 C   0  0  0  0  0  0  0  0  0  0  0  0
    5.0692   -4.9193  -13.4523 N   0  0  0  0  0  0  0  0  0  0  0  0
    3.5455   -4.7225  -10.7001 C   0  0  0  0  0  0  0  0  0  0  0  0
    3.8737   -8.0233   -8.7736 N   0  0  0  0  0  0  0  0  0  0  0  0
    3.3389   -6.7537   -8.8426 C   0  0  0  0  0  0  0  0  0  0  0  0
    3.8387   -6.1580  -10.1112 C   0  0  0  0  0  0  0  0  0  0  0  0
    4.6521   -7.1928  -10.6755 N   0  0  0  0  0  0  0  0  0  0  0  0
    4.6495   -8.2234   -9.9045 N   0  0  0  0  0  0  0  0  0  0  0  0
    3.6760   -8.9742   -7.7409 C   0  0  0  0  0  0  0  0  0  0  0  0
    3.2012  -10.4211   -8.1428 C   0  0  0  0  0  0  0  0  0  0  0  0
    1.9019  -10.5496   -8.8668 C   0  0  0  0  0  0  0  0  0  0  0  0
    0.1551   -8.9738   -9.6020 N   0  0  0  0  0  0  0  0  0  0  0  0
    0.8220   -9.5721   -8.5425 C   0  0  0  0  0  0  0  0  0  0  0  0
   -0.5517   -8.3333   -9.2407 H   0  0  0  0  0  0  0  0  0  0  0  0
   -0.2951   -9.6920  -10.1694 H   0  0  0  0  0  0  0  0  0  0  0  0
 24 25  1  0  0  0
 25 23  1  0  0  0
 23 22  1  0  0  0
 22 21  1  0  0  0
 21 16  1  0  0  0
 16 17  1  0  0  0
 16 20  1  0  0  0
 17 18  2  0  0  0
 18 15  1  0  0  0
 18 19  1  0  0  0
 15  1  1  0  0  0
  1  2  1  0  0  0
  2  3  1  0  0  0
  2 14  1  0  0  0
  3  4  2  0  0  0
  4  5  1  0  0  0
  4 13  1  0  0  0
  5  6  1  0  0  0
  5  7  2  0  0  0
  7  8  1  0  0  0
  7  9  1  0  0  0
  9 10  1  0  0  0
  9 11  2  0  0  0
 11 12  1  0  0  0
 11 13  1  0  0  0
 13 14  2  0  0  0
 19 20  2  0  0  0
 24 26  1  0  0  0
 24 27  1  0  0  0
M  END
> <minimizedAffinity>
-7.93614

$$$$
5CQU_JRJ_A_401


 27 29  0  0  0  0  0  0  0  0999 V2000
    3.3765   -6.2696   -9.2730 C   0  0  0  0  0  0  0  0  0  0  0  0
    3.7074   -5.4135  -10.4807 N   0  0  0  0  0  0  0  0  0  0  0  0
    4.2268   -5.8427  -11.5455 N   0  0  0  0  0  0  0  0  0  0  0  0
    4.3788   -4.7589  -12.4271 C   0  0  0  0  0  0  0  0  0  0  0  0
    4.9118   -4.6007  -13.8027 C   0  0  0  0  0  0  0  0  0  0  0  0
    5.5718   -6.0729  -14.7038 Br  0  0  0  0  0  0  0  0  0  0  0  0
    4.9121   -3.3641  -14.3895 C   0  0  0  0  0  0  0  0  0  0  0  0
    5.6090   -3.1054  -16.2078 Br  0  0  0  0  0  0  0  0  0  0  0  0
    4.4132   -2.2522  -13.7042 C   0  0  0  0  0  0  0  0  0  0  0  0
    4.4264   -0.5286  -14.5582 Br  0  0  0  0  0  0  0  0  0  0  0  0
    3.8711   -2.4039  -12.3111 C   0  0  0  0  0  0  0  0  0  0  0  0
    3.1652   -0.8325  -11.3370 Br  0  0  0  0  0  0  0  0  0  0  0  0
    3.8670   -3.6146  -11.7263 C   0  0  0  0  0  0  0  0  0  0  0  0
    3.4699   -4.0908  -10.5299 N   0  0  0  0  0  0  0  0  0  0  0  0
    4.3920   -7.2634   -8.8795 C   0  0  0  0  0  0  0  0  0  0  0  0
    2.6497  -10.1661   -7.0760 N   0  0  0  0  0  0  0  0  0  0  0  0
    2.5571   -9.1056   -7.9531 C   0  0  0  0  0  0  0  0  0  0  0  0
    3.9166   -8.5053   -8.0281 C   0  0  0  0  0  0  0  0  0  0  0  0
    4.6964   -9.3180   -7.1435 N   0  0  0  0  0  0  0  0  0  0  0  0
    3.9594  -10.2389   -6.6286 N   0  0  0  0  0  0  0  0  0  0  0  0
    1.6050  -11.0426   -6.6884 C   0  0  0  0  0  0  0  0  0  0  0  0
    0.8722  -11.8689   -7.8112 C   0  0  0  0  0  0  0  0  0  0  0  0
    1.7174  -12.5456   -8.8392 C   0  0  0  0  0  0  0  0  0  0  0  0
    0.4624  -12.8992  -10.9308 N   0  0  0  0  0  0  0  0  0  0  0  0
    1.4732  -12.2128  -10.2732 C   0  0  0  0  0  0  0  0  0  0  0  0
    0.4043  -12.5759  -11.8965 H   0  0  0  0  0  0  0  0  0  0  0  0
   -0.4265  -12.7277  -10.4608 H   0  0  0  0  0  0  0  0  0  0  0  0
 24 25  1  0  0  0
 25 23  1  0  0  0
 23 22  1  0  0  0
 22 21  1  0  0  0
 21 16  1  0  0  0
 16 17  1  0  0  0
 16 20  1  0  0  0
 17 18  2  0  0  0
 18 15  1  0  0  0
 18 19  1  0  0  0
 15  1  1  0  0  0
  1  2  1  0  0  0
  2  3  1  0  0  0
  2 14  1  0  0  0
  3  4  2  0  0  0
  4  5  1  0  0  0
  4 13  1  0  0  0
  5  6  1  0  0  0
  5  7  2  0  0  0
  7  8  1  0  0  0
  7  9  1  0  0  0
  9 10  1  0  0  0
  9 11  2  0  0  0
 11 12  1  0  0  0
 11 13  1  0  0  0
 13 14  2  0  0  0
 19 20  2  0  0  0
 24 26  1  0  0  0
 24 27  1  0  0  0
M  END
> <minimizedAffinity>
-7.79809

$$$$
5CQU_JRJ_A_401


 27 29  0  0  0  0  0  0  0  0999 V2000
    4.7539   -3.5108  -11.1997 C   0  0  0  0  0  0  0  0  0  0  0  0
    4.9230   -3.5548  -12.7064 N   0  0  0  0  0  0  0  0  0  0  0  0
    5.1064   -4.6046  -13.3788 N   0  0  0  0  0  0  0  0  0  0  0  0
    5.2152   -4.2445  -14.7329 C   0  0  0  0  0  0  0  0  0  0  0  0
    5.4305   -4.9920  -15.9964 C   0  0  0  0  0  0  0  0  0  0  0  0
    5.6247   -6.8291  -15.9516 Br  0  0  0  0  0  0  0  0  0  0  0  0
    5.4862   -4.3119  -17.1830 C   0  0  0  0  0  0  0  0  0  0  0  0
    5.7712   -5.2580  -18.8808 Br  0  0  0  0  0  0  0  0  0  0  0  0
    5.3402   -2.9218  -17.2128 C   0  0  0  0  0  0  0  0  0  0  0  0
    5.4219   -1.9965  -18.8974 Br  0  0  0  0  0  0  0  0  0  0  0  0
    5.1214   -2.1574  -15.9379 C   0  0  0  0  0  0  0  0  0  0  0  0
    4.9155   -0.1895  -15.9755 Br  0  0  0  0  0  0  0  0  0  0  0  0
    5.0655   -2.8167  -14.7675 C   0  0  0  0  0  0  0  0  0  0  0  0
    4.8894   -2.4561  -13.4810 N   0  0  0  0  0  0  0  0  0  0  0  0
    3.5375   -4.1461  -10.6605 C   0  0  0  0  0  0  0  0  0  0  0  0
    3.5362   -7.3758   -8.5909 N   0  0  0  0  0  0  0  0  0  0  0  0
    3.1482   -6.0572   -8.7074 C   0  0  0  0  0  0  0  0  0  0  0  0
    3.6800   -5.5787  -10.0121 C   0  0  0  0  0  0  0  0  0  0  0  0
    4.3554   -6.7239  -10.5446 N   0  0  0  0  0  0  0  0  0  0  0  0
    4.2549   -7.7128   -9.7270 N   0  0  0  0  0  0  0  0  0  0  0  0
    3.2579   -8.2518   -7.5116 C   0  0  0  0  0  0  0  0  0  0  0  0
    3.9988   -9.6410   -7.4710 C   0  0  0  0  0  0  0  0  0  0  0  0
    3.2140  -10.8575   -7.8358 C   0  0  0  0  0  0  0  0  0  0  0  0
    3.5764  -10.6402  -10.2641 N   0  0  0  0  0  0  0  0  0  0  0  0
    2.7055  -10.9671   -9.2345 C   0  0  0  0  0  0  0  0  0  0  0  0
    3.1034  -10.7585  -11.1600 H   0  0  0  0  0  0  0  0  0  0  0  0
    4.3918  -11.2518  -10.2267 H   0  0  0  0  0  0  0  0  0  0  0  0
 24 25  1  0  0  0
 25 23  1  0  0  0
 23 22  1  0  0  0
 22 21  1  0  0  0
 21 16  1  0  0  0
 16 17  1  0  0  0
 16 20  1  0  0  0
 17 18  2  0  0  0
 18 15  1  0  0  0
 18 19  1  0  0  0
 15  1  1  0  0  0
  1  2  1  0  0  0
  2  3  1  0  0  0
  2 14  1  0  0  0
  3  4  2  0  0  0
  4  5  1  0  0  0
  4 13  1  0  0  0
  5  6  1  0  0  0
  5  7  2  0  0  0
  7  8  1  0  0  0
  7  9  1  0  0  0
  9 10  1  0  0  0
  9 11  2  0  0  0
 11 12  1  0  0  0
 11 13  1  0  0  0
 13 14  2  0  0  0
 19 20  2  0  0  0
 24 26  1  0  0  0
 24 27  1  0  0  0
M  END
> <minimizedAffinity>
-7.77918

$$$$
5CQU_JRJ_A_401


 27 29  0  0  0  0  0  0  0  0999 V2000
    4.1795   -5.4524  -10.6383 C   0  0  0  0  0  0  0  0  0  0  0  0
    4.4925   -5.1203  -12.0848 N   0  0  0  0  0  0  0  0  0  0  0  0
    4.7491   -5.9708  -12.9784 N   0  0  0  0  0  0  0  0  0  0  0  0
    4.9838   -5.2847  -14.1822 C   0  0  0  0  0  0  0  0  0  0  0  0
    5.3260   -5.6951  -15.5664 C   0  0  0  0  0  0  0  0  0  0  0  0
    5.5318   -7.4875  -15.9656 Br  0  0  0  0  0  0  0  0  0  0  0  0
    5.4890   -4.7404  -16.5337 C   0  0  0  0  0  0  0  0  0  0  0  0
    5.9440   -5.2353  -18.3795 Br  0  0  0  0  0  0  0  0  0  0  0  0
    5.3339   -3.3850  -16.2277 C   0  0  0  0  0  0  0  0  0  0  0  0
    5.5681   -2.0687  -17.6107 Br  0  0  0  0  0  0  0  0  0  0  0  0
    4.9869   -2.9611  -14.8286 C   0  0  0  0  0  0  0  0  0  0  0  0
    4.7676   -1.0436  -14.3909 Br  0  0  0  0  0  0  0  0  0  0  0  0
    4.8251   -3.8916  -13.8717 C   0  0  0  0  0  0  0  0  0  0  0  0
    4.5233   -3.8621  -12.5587 N   0  0  0  0  0  0  0  0  0  0  0  0
    4.8120   -6.6691  -10.0964 C   0  0  0  0  0  0  0  0  0  0  0  0
    3.0370   -9.3243   -7.9719 N   0  0  0  0  0  0  0  0  0  0  0  0
    3.9080   -9.0364   -9.0020 C   0  0  0  0  0  0  0  0  0  0  0  0
    3.9711   -7.5525   -9.0935 C   0  0  0  0  0  0  0  0  0  0  0  0
    3.0870   -7.1100   -8.0575 N   0  0  0  0  0  0  0  0  0  0  0  0
    2.5821   -8.1248   -7.4475 N   0  0  0  0  0  0  0  0  0  0  0  0
    2.6610  -10.6112   -7.5109 C   0  0  0  0  0  0  0  0  0  0  0  0
    1.4706  -11.3431   -8.2373 C   0  0  0  0  0  0  0  0  0  0  0  0
    1.8040  -12.4863   -9.1378 C   0  0  0  0  0  0  0  0  0  0  0  0
    0.2758  -12.9773  -11.0081 N   0  0  0  0  0  0  0  0  0  0  0  0
    1.4459  -12.3657  -10.5814 C   0  0  0  0  0  0  0  0  0  0  0  0
    0.1537  -12.8172  -12.0081 H   0  0  0  0  0  0  0  0  0  0  0  0
   -0.5175  -12.5845  -10.5015 H   0  0  0  0  0  0  0  0  0  0  0  0
 24 25  1  0  0  0
 25 23  1  0  0  0
 23 22  1  0  0  0
 22 21  1  0  0  0
 21 16  1  0  0  0
 16 17  1  0  0  0
 16 20  1  0  0  0
 17 18  2  0  0  0
 18 15  1  0  0  0
 18 19  1  0  0  0
 15  1  1  0  0  0
  1  2  1  0  0  0
  2  3  1  0  0  0
  2 14  1  0  0  0
  3  4  2  0  0  0
  4  5  1  0  0  0
  4 13  1  0  0  0
  5  6  1  0  0  0
  5  7  2  0  0  0
  7  8  1  0  0  0
  7  9  1  0  0  0
  9 10  1  0  0  0
  9 11  2  0  0  0
 11 12  1  0  0  0
 11 13  1  0  0  0
 13 14  2  0  0  0
 19 20  2  0  0  0
 24 26  1  0  0  0
 24 27  1  0  0  0
M  END
> <minimizedAffinity>
-7.59700

$$$$
5CQU_JRJ_A_401


 27 29  0  0  0  0  0  0  0  0999 V2000
    4.5819   -4.5961  -11.1003 C   0  0  0  0  0  0  0  0  0  0  0  0
    4.7847   -4.3377  -12.5812 N   0  0  0  0  0  0  0  0  0  0  0  0
    4.7664   -3.1995  -13.1215 N   0  0  0  0  0  0  0  0  0  0  0  0
    4.9920   -3.3643  -14.4987 C   0  0  0  0  0  0  0  0  0  0  0  0
    5.0879   -2.4420  -15.6571 C   0  0  0  0  0  0  0  0  0  0  0  0
    4.8815   -0.6239  -15.3994 Br  0  0  0  0  0  0  0  0  0  0  0  0
    5.3254   -2.9484  -16.9064 C   0  0  0  0  0  0  0  0  0  0  0  0
    5.4587   -1.7670  -18.4702 Br  0  0  0  0  0  0  0  0  0  0  0  0
    5.4797   -4.3248  -17.0978 C   0  0  0  0  0  0  0  0  0  0  0  0
    5.8142   -5.0038  -18.8662 Br  0  0  0  0  0  0  0  0  0  0  0  0
    5.3845   -5.2654  -15.9300 C   0  0  0  0  0  0  0  0  0  0  0  0
    5.6010   -7.2144  -16.1966 Br  0  0  0  0  0  0  0  0  0  0  0  0
    5.1511   -4.7774  -14.6991 C   0  0  0  0  0  0  0  0  0  0  0  0
    5.0101   -5.3186  -13.4731 N   0  0  0  0  0  0  0  0  0  0  0  0
    3.2592   -4.2451  -10.5516 C   0  0  0  0  0  0  0  0  0  0  0  0
    1.7832   -7.0586   -8.4023 N   0  0  0  0  0  0  0  0  0  0  0  0
    2.8396   -6.2094   -8.6585 C   0  0  0  0  0  0  0  0  0  0  0  0
    2.4365   -5.3818   -9.8275 C   0  0  0  0  0  0  0  0  0  0  0  0
    1.1242   -5.8589  -10.1457 N   0  0  0  0  0  0  0  0  0  0  0  0
    0.7871   -6.7949   -9.3292 N   0  0  0  0  0  0  0  0  0  0  0  0
    1.7057   -8.0338   -7.3762 C   0  0  0  0  0  0  0  0  0  0  0  0
    3.0001   -8.8665   -7.0422 C   0  0  0  0  0  0  0  0  0  0  0  0
    3.3650   -9.9826   -7.9642 C   0  0  0  0  0  0  0  0  0  0  0  0
    5.7443   -9.3914   -7.7100 N   0  0  0  0  0  0  0  0  0  0  0  0
    4.7751  -10.0569   -8.4469 C   0  0  0  0  0  0  0  0  0  0  0  0
    6.6556   -9.5242   -8.1484 H   0  0  0  0  0  0  0  0  0  0  0  0
    5.7658   -9.7648   -6.7610 H   0  0  0  0  0  0  0  0  0  0  0  0
 24 25  1  0  0  0
 25 23  1  0  0  0
 23 22  1  0  0  0
 22 21  1  0  0  0
 21 16  1  0  0  0
 16 17  1  0  0  0
 16 20  1  0  0  0
 17 18  2  0  0  0
 18 15  1  0  0  0
 18 19  1  0  0  0
 15  1  1  0  0  0
  1  2  1  0  0  0
  2  3  1  0  0  0
  2 14  1  0  0  0
  3  4  2  0  0  0
  4  5  1  0  0  0
  4 13  1  0  0  0
  5  6  1  0  0  0
  5  7  2  0  0  0
  7  8  1  0  0  0
  7  9  1  0  0  0
  9 10  1  0  0  0
  9 11  2  0  0  0
 11 12  1  0  0  0
 11 13  1  0  0  0
 13 14  2  0  0  0
 19 20  2  0  0  0
 24 26  1  0  0  0
 24 27  1  0  0  0
M  END
> <minimizedAffinity>
-7.54195

$$$$
5CQU_JRJ_A_401


 27 29  0  0  0  0  0  0  0  0999 V2000
    3.7814   -5.9082   -9.3958 C   0  0  0  0  0  0  0  0  0  0  0  0
    4.0083   -5.0466  -10.6234 N   0  0  0  0  0  0  0  0  0  0  0  0
    3.7809   -3.8088  -10.6850 N   0  0  0  0  0  0  0  0  0  0  0  0
    4.1135   -3.3656  -11.9764 C   0  0  0  0  0  0  0  0  0  0  0  0
    4.0779   -2.0544  -12.6700 C   0  0  0  0  0  0  0  0  0  0  0  0
    3.4785   -0.5573  -11.7678 Br  0  0  0  0  0  0  0  0  0  0  0  0
    4.4869   -1.9679  -13.9735 C   0  0  0  0  0  0  0  0  0  0  0  0
    4.4560   -0.2544  -14.9336 Br  0  0  0  0  0  0  0  0  0  0  0  0
    4.9385   -3.1031  -14.6533 C   0  0  0  0  0  0  0  0  0  0  0  0
    5.5079   -2.9469  -16.4841 Br  0  0  0  0  0  0  0  0  0  0  0  0
    4.9781   -4.4344  -13.9580 C   0  0  0  0  0  0  0  0  0  0  0  0
    5.6154   -6.0439  -14.9171 Br  0  0  0  0  0  0  0  0  0  0  0  0
    4.5781   -4.5293  -12.6779 C   0  0  0  0  0  0  0  0  0  0  0  0
    4.4854   -5.5325  -11.7830 N   0  0  0  0  0  0  0  0  0  0  0  0
    2.4053   -5.9424   -8.8677 C   0  0  0  0  0  0  0  0  0  0  0  0
    1.3760   -9.4852   -7.8174 N   0  0  0  0  0  0  0  0  0  0  0  0
    2.3048   -8.4672   -7.7568 C   0  0  0  0  0  0  0  0  0  0  0  0
    1.7605   -7.3552   -8.5821 C   0  0  0  0  0  0  0  0  0  0  0  0
    0.5114   -7.8668   -9.0608 N   0  0  0  0  0  0  0  0  0  0  0  0
    0.3248   -9.0593   -8.6137 N   0  0  0  0  0  0  0  0  0  0  0  0
    1.4586  -10.7503   -7.1829 C   0  0  0  0  0  0  0  0  0  0  0  0
    0.9423  -12.0126   -7.9705 C   0  0  0  0  0  0  0  0  0  0  0  0
    1.8269  -12.5791   -9.0314 C   0  0  0  0  0  0  0  0  0  0  0  0
    0.3768  -12.8854  -11.0008 N   0  0  0  0  0  0  0  0  0  0  0  0
    1.4955  -12.2731  -10.4539 C   0  0  0  0  0  0  0  0  0  0  0  0
    0.2680  -12.5903  -11.9711 H   0  0  0  0  0  0  0  0  0  0  0  0
   -0.4514  -12.6176  -10.4691 H   0  0  0  0  0  0  0  0  0  0  0  0
 24 25  1  0  0  0
 25 23  1  0  0  0
 23 22  1  0  0  0
 22 21  1  0  0  0
 21 16  1  0  0  0
 16 17  1  0  0  0
 16 20  1  0  0  0
 17 18  2  0  0  0
 18 15  1  0  0  0
 18 19  1  0  0  0
 15  1  1  0  0  0
  1  2  1  0  0  0
  2  3  1  0  0  0
  2 14  1  0  0  0
  3  4  2  0  0  0
  4  5  1  0  0  0
  4 13  1  0  0  0
  5  6  1  0  0  0
  5  7  2  0  0  0
  7  8  1  0  0  0
  7  9  1  0  0  0
  9 10  1  0  0  0
  9 11  2  0  0  0
 11 12  1  0  0  0
 11 13  1  0  0  0
 13 14  2  0  0  0
 19 20  2  0  0  0
 24 26  1  0  0  0
 24 27  1  0  0  0
M  END
> <minimizedAffinity>
-7.40941

$$$$
5CQU_JRJ_A_401


 27 29  0  0  0  0  0  0  0  0999 V2000
    3.9197   -6.0570   -9.7229 C   0  0  0  0  0  0  0  0  0  0  0  0
    4.1435   -5.1800  -10.9401 N   0  0  0  0  0  0  0  0  0  0  0  0
    3.9565   -3.9343  -10.9728 N   0  0  0  0  0  0  0  0  0  0  0  0
    4.2701   -3.4776  -12.2642 C   0  0  0  0  0  0  0  0  0  0  0  0
    4.2607   -2.1528  -12.9324 C   0  0  0  0  0  0  0  0  0  0  0  0
    3.7357   -0.6543  -11.9872 Br  0  0  0  0  0  0  0  0  0  0  0  0
    4.6384   -2.0548  -14.2445 C   0  0  0  0  0  0  0  0  0  0  0  0
    4.6403   -0.3231  -15.1718 Br  0  0  0  0  0  0  0  0  0  0  0  0
    5.0337   -3.1911  -14.9569 C   0  0  0  0  0  0  0  0  0  0  0  0
    5.5603   -3.0186  -16.7989 Br  0  0  0  0  0  0  0  0  0  0  0  0
    5.0465   -4.5362  -14.2874 C   0  0  0  0  0  0  0  0  0  0  0  0
    5.6042   -6.1471  -15.2925 Br  0  0  0  0  0  0  0  0  0  0  0  0
    4.6769   -4.6424  -12.9991 C   0  0  0  0  0  0  0  0  0  0  0  0
    4.5738   -5.6590  -12.1207 N   0  0  0  0  0  0  0  0  0  0  0  0
    4.9969   -7.0101   -9.3983 C   0  0  0  0  0  0  0  0  0  0  0  0
    3.4482  -10.1247   -7.7812 N   0  0  0  0  0  0  0  0  0  0  0  0
    3.2846   -9.0173   -8.5872 C   0  0  0  0  0  0  0  0  0  0  0  0
    4.6043   -8.3312   -8.6277 C   0  0  0  0  0  0  0  0  0  0  0  0
    5.4387   -9.1501   -7.8006 N   0  0  0  0  0  0  0  0  0  0  0  0
    4.7631  -10.1459   -7.3440 N   0  0  0  0  0  0  0  0  0  0  0  0
    2.4617  -11.0868   -7.4478 C   0  0  0  0  0  0  0  0  0  0  0  0
    1.6882  -11.7967   -8.6217 C   0  0  0  0  0  0  0  0  0  0  0  0
    2.4153  -12.8431   -9.3998 C   0  0  0  0  0  0  0  0  0  0  0  0
    3.5931  -12.1002  -11.4335 N   0  0  0  0  0  0  0  0  0  0  0  0
    3.6764  -12.4479  -10.0928 C   0  0  0  0  0  0  0  0  0  0  0  0
    4.5205  -11.8537  -11.7791 H   0  0  0  0  0  0  0  0  0  0  0  0
    2.9675  -11.3015  -11.5393 H   0  0  0  0  0  0  0  0  0  0  0  0
 24 25  1  0  0  0
 25 23  1  0  0  0
 23 22  1  0  0  0
 22 21  1  0  0  0
 21 16  1  0  0  0
 16 17  1  0  0  0
 16 20  1  0  0  0
 17 18  2  0  0  0
 18 15  1  0  0  0
 18 19  1  0  0  0
 15  1  1  0  0  0
  1  2  1  0  0  0
  2  3  1  0  0  0
  2 14  1  0  0  0
  3  4  2  0  0  0
  4  5  1  0  0  0
  4 13  1  0  0  0
  5  6  1  0  0  0
  5  7  2  0  0  0
  7  8  1  0  0  0
  7  9  1  0  0  0
  9 10  1  0  0  0
  9 11  2  0  0  0
 11 12  1  0  0  0
 11 13  1  0  0  0
 13 14  2  0  0  0
 19 20  2  0  0  0
 24 26  1  0  0  0
 24 27  1  0  0  0
M  END
> <minimizedAffinity>
-7.04489

$$$$
5CQU_JRJ_A_401


 27 29  0  0  0  0  0  0  0  0999 V2000
    4.2945   -5.2433  -11.6158 C   0  0  0  0  0  0  0  0  0  0  0  0
    3.8731   -5.9942  -10.3671 N   0  0  0  0  0  0  0  0  0  0  0  0
    3.2017   -5.4991   -9.4227 N   0  0  0  0  0  0  0  0  0  0  0  0
    3.0095   -6.4964   -8.4514 C   0  0  0  0  0  0  0  0  0  0  0  0
    2.3220   -6.5536   -7.1378 C   0  0  0  0  0  0  0  0  0  0  0  0
    1.4772   -5.0475   -6.4802 Br  0  0  0  0  0  0  0  0  0  0  0  0
    2.3236   -7.7218   -6.4244 C   0  0  0  0  0  0  0  0  0  0  0  0
    1.4286   -7.8452   -4.6801 Br  0  0  0  0  0  0  0  0  0  0  0  0
    2.9651   -8.8590   -6.9245 C   0  0  0  0  0  0  0  0  0  0  0  0
    2.9471  -10.4855   -5.8977 Br  0  0  0  0  0  0  0  0  0  0  0  0
    3.6631   -8.8096   -8.2541 C   0  0  0  0  0  0  0  0  0  0  0  0
    4.5734  -10.4165   -8.9651 Br  0  0  0  0  0  0  0  0  0  0  0  0
    3.6672   -7.6665   -8.9619 C   0  0  0  0  0  0  0  0  0  0  0  0
    4.1802   -7.2850  -10.1483 N   0  0  0  0  0  0  0  0  0  0  0  0
    5.0397   -6.0196  -12.6239 C   0  0  0  0  0  0  0  0  0  0  0  0
    5.4300   -5.1893  -16.3484 N   0  0  0  0  0  0  0  0  0  0  0  0
    5.4588   -6.1400  -15.3494 C   0  0  0  0  0  0  0  0  0  0  0  0
    5.1426   -5.4253  -14.0832 C   0  0  0  0  0  0  0  0  0  0  0  0
    4.9542   -4.0674  -14.4971 N   0  0  0  0  0  0  0  0  0  0  0  0
    5.1198   -3.9689  -15.7696 N   0  0  0  0  0  0  0  0  0  0  0  0
    5.6685   -5.4002  -17.7299 C   0  0  0  0  0  0  0  0  0  0  0  0
    4.7460   -4.6551  -18.7663 C   0  0  0  0  0  0  0  0  0  0  0  0
    5.3110   -3.4653  -19.4693 C   0  0  0  0  0  0  0  0  0  0  0  0
    5.9251   -1.0825  -19.3274 N   0  0  0  0  0  0  0  0  0  0  0  0
    5.1960   -2.1376  -18.7978 C   0  0  0  0  0  0  0  0  0  0  0  0
    5.7551   -0.2413  -18.7762 H   0  0  0  0  0  0  0  0  0  0  0  0
    5.6370   -0.9206  -20.2924 H   0  0  0  0  0  0  0  0  0  0  0  0
 24 25  1  0  0  0
 25 23  1  0  0  0
 23 22  1  0  0  0
 22 21  1  0  0  0
 21 16  1  0  0  0
 16 17  1  0  0  0
 16 20  1  0  0  0
 17 18  2  0  0  0
 18 15  1  0  0  0
 18 19  1  0  0  0
 15  1  1  0  0  0
  1  2  1  0  0  0
  2  3  1  0  0  0
  2 14  1  0  0  0
  3  4  2  0  0  0
  4  5  1  0  0  0
  4 13  1  0  0  0
  5  6  1  0  0  0
  5  7  2  0  0  0
  7  8  1  0  0  0
  7  9  1  0  0  0
  9 10  1  0  0  0
  9 11  2  0  0  0
 11 12  1  0  0  0
 11 13  1  0  0  0
 13 14  2  0  0  0
 19 20  2  0  0  0
 24 26  1  0  0  0
 24 27  1  0  0  0
M  END
> <minimizedAffinity>
-6.96625

$$$$
5CQU_JRJ_A_401


 27 29  0  0  0  0  0  0  0  0999 V2000
    5.7811   -0.2931  -16.9933 C   0  0  0  0  0  0  0  0  0  0  0  0
    5.0502   -0.2520  -15.6648 N   0  0  0  0  0  0  0  0  0  0  0  0
    4.4960   -1.2429  -15.1183 N   0  0  0  0  0  0  0  0  0  0  0  0
    3.9287   -0.8146  -13.9060 C   0  0  0  0  0  0  0  0  0  0  0  0
    3.1594   -1.4764  -12.8236 C   0  0  0  0  0  0  0  0  0  0  0  0
    2.7681   -3.2781  -12.9483 Br  0  0  0  0  0  0  0  0  0  0  0  0
    2.7442   -0.7441  -11.7443 C   0  0  0  0  0  0  0  0  0  0  0  0
    1.7216   -1.5761  -10.2880 Br  0  0  0  0  0  0  0  0  0  0  0  0
    3.0409    0.6193  -11.6541 C   0  0  0  0  0  0  0  0  0  0  0  0
    2.4442    1.6193  -10.1230 Br  0  0  0  0  0  0  0  0  0  0  0  0
    3.8199    1.2969  -12.7456 C   0  0  0  0  0  0  0  0  0  0  0  0
    4.2409    3.2267  -12.6224 Br  0  0  0  0  0  0  0  0  0  0  0  0
    4.2317    0.5859  -13.8098 C   0  0  0  0  0  0  0  0  0  0  0  0
    4.9253    0.8675  -14.9302 N   0  0  0  0  0  0  0  0  0  0  0  0
    5.0106   -0.7920  -18.1471 C   0  0  0  0  0  0  0  0  0  0  0  0
    5.5885   -4.5555  -18.6114 N   0  0  0  0  0  0  0  0  0  0  0  0
    5.4013   -3.4953  -17.7492 C   0  0  0  0  0  0  0  0  0  0  0  0
    5.2482   -2.2853  -18.6017 C   0  0  0  0  0  0  0  0  0  0  0  0
    5.3687   -2.7919  -19.9358 N   0  0  0  0  0  0  0  0  0  0  0  0
    5.5564   -4.0649  -19.9071 N   0  0  0  0  0  0  0  0  0  0  0  0
    5.7786   -5.9153  -18.2582 C   0  0  0  0  0  0  0  0  0  0  0  0
    6.2740   -6.2427  -16.7995 C   0  0  0  0  0  0  0  0  0  0  0  0
    5.5370   -7.2920  -16.0348 C   0  0  0  0  0  0  0  0  0  0  0  0
    4.7807   -9.6377  -16.0611 N   0  0  0  0  0  0  0  0  0  0  0  0
    5.0388   -8.4821  -16.7846 C   0  0  0  0  0  0  0  0  0  0  0  0
    4.4487  -10.3669  -16.6922 H   0  0  0  0  0  0  0  0  0  0  0  0
    4.0674   -9.4462  -15.3576 H   0  0  0  0  0  0  0  0  0  0  0  0
 24 25  1  0  0  0
 25 23  1  0  0  0
 23 22  1  0  0  0
 22 21  1  0  0  0
 21 16  1  0  0  0
 16 17  1  0  0  0
 16 20  1  0  0  0
 17 18  2  0  0  0
 18 15  1  0  0  0
 18 19  1  0  0  0
 15  1  1  0  0  0
  1  2  1  0  0  0
  2  3  1  0  0  0
  2 14  1  0  0  0
  3  4  2  0  0  0
  4  5  1  0  0  0
  4 13  1  0  0  0
  5  6  1  0  0  0
  5  7  2  0  0  0
  7  8  1  0  0  0
  7  9  1  0  0  0
  9 10  1  0  0  0
  9 11  2  0  0  0
 11 12  1  0  0  0
 11 13  1  0  0  0
 13 14  2  0  0  0
 19 20  2  0  0  0
 24 26  1  0  0  0
 24 27  1  0  0  0
M  END
> <minimizedAffinity>
-6.88251

$$$$
