5L30_70A_H_301


 51 57  0  0  0  0  0  0  0  0999 V2000
    7.3166   37.9645   24.4978 C   0  0  0  0  0  0  0  0  0  0  0  0
    0.7854   35.2845   27.0174 C   0  0  0  0  0  0  0  0  0  0  0  0
    5.9233   39.4644   22.1389 C   0  0  0  0  0  0  0  0  0  0  0  0
    1.4182   35.5987   25.6523 C   0  0  0  0  0  0  0  0  0  0  0  0
    0.6470   36.7834   24.9831 C   0  0  0  0  0  0  0  0  0  0  0  0
    2.9221   35.8781   25.7362 C   0  0  0  0  0  0  0  0  0  0  0  0
    3.4160   36.6972   26.7495 C   0  0  0  0  0  0  0  0  0  0  0  0
    4.7486   37.0783   26.7728 C   0  0  0  0  0  0  0  0  0  0  0  0
    5.6277   36.6473   25.7883 C   0  0  0  0  0  0  0  0  0  0  0  0
    5.1426   35.7978   24.7977 C   0  0  0  0  0  0  0  0  0  0  0  0
    3.8064   35.4062   24.7503 C   0  0  0  0  0  0  0  0  0  0  0  0
    3.3722   34.4635   23.6417 C   0  0  0  0  0  0  0  0  0  0  0  0
    7.0684   37.1360   25.7471 C   0  0  0  0  0  0  0  0  0  0  0  0
    7.8603   37.4360   23.5343 O   0  0  0  0  0  0  0  0  0  0  0  0
    6.8822   39.2396   24.4300 N   0  0  0  0  0  0  0  0  0  0  0  0
    6.9596   39.9269   23.1382 C   0  0  0  0  0  0  0  0  0  0  0  0
    6.1028   39.6548   20.7630 C   0  0  0  0  0  0  0  0  0  0  0  0
    5.0791   39.2850   19.8970 C   0  0  0  0  0  0  0  0  0  0  0  0
    3.9261   38.6765   20.3594 C   0  0  0  0  0  0  0  0  0  0  0  0
    3.7321   38.5042   21.7205 C   0  0  0  0  0  0  0  0  0  0  0  0
    4.7440   38.8796   22.6010 C   0  0  0  0  0  0  0  0  0  0  0  0
    2.5416   37.8989   22.1895 N   0  0  0  0  0  0  0  0  0  0  0  0
    1.1508   36.9613   23.6371 O   0  0  0  0  0  0  0  0  0  0  0  0
    2.0886   37.9197   23.4628 C   0  0  0  0  0  0  0  0  0  0  0  0
    2.4190   38.7204   24.3113 O   0  0  0  0  0  0  0  0  0  0  0  0
    6.3029   39.9899   25.5455 C   0  0  0  0  0  0  0  0  0  0  0  0
    1.9934   37.4188   21.5276 H   0  0  0  0  0  0  0  0  0  0  0  0
    7.4330   40.1795   20.1990 C   0  0  0  0  0  0  0  0  0  0  0  0
    7.6145   41.6721   19.9616 C   0  0  0  0  0  0  0  0  0  0  0  0
    7.4501   40.7703   18.7962 C   0  0  0  0  0  0  0  0  0  0  0  0
    8.6714   39.4528   20.6617 C   0  0  0  0  0  0  0  0  0  0  0  0
    8.8447   38.1311   20.6658 N   0  0  0  0  0  0  0  0  0  0  0  0
   10.0970   37.8554   21.0876 N   0  0  0  0  0  0  0  0  0  0  0  0
   10.6511   38.9964   21.3287 N   0  0  0  0  0  0  0  0  0  0  0  0
    9.7820   40.0133   21.0887 N   0  0  0  0  0  0  0  0  0  0  0  0
    8.1693   37.4645   20.4037 H   0  0  0  0  0  0  0  0  0  0  0  0
    8.0294   36.0490   25.7295 N   0  0  0  0  0  0  0  0  0  0  0  0
    8.4132   35.7867   24.8617 H   0  0  0  0  0  0  0  0  0  0  0  0
    8.6053   35.3659   29.2540 C   0  0  0  0  0  0  0  0  0  0  0  0
    9.1745   34.0738   29.2551 C   0  0  0  0  0  0  0  0  0  0  0  0
    9.3879   33.4331   28.0002 C   0  0  0  0  0  0  0  0  0  0  0  0
    9.0177   34.1016   26.8076 C   0  0  0  0  0  0  0  0  0  0  0  0
    8.2402   35.9681   28.0912 C   0  0  0  0  0  0  0  0  0  0  0  0
    9.9353   32.1340   27.9880 C   0  0  0  0  0  0  0  0  0  0  0  0
   10.1641   31.4880   29.1677 C   0  0  0  0  0  0  0  0  0  0  0  0
    9.4946   33.3213   30.4496 C   0  0  0  0  0  0  0  0  0  0  0  0
    8.4426   35.3541   26.8621 C   0  0  0  0  0  0  0  0  0  0  0  0
    9.9430   32.0224   30.3772 N   0  0  0  0  0  0  0  0  0  0  0  0
    9.4228   33.8809   31.6713 N   0  0  0  0  0  0  0  0  0  0  0  0
    9.1075   34.8082   31.7702 H   0  0  0  0  0  0  0  0  0  0  0  0
    9.6857   33.3629   32.4661 H   0  0  0  0  0  0  0  0  0  0  0  0
 29 30  1  0  0  0
 29 28  1  0  0  0
 18 19  2  0  0  0
 18 17  1  0  0  0
 30 28  1  0  0  0
 28 31  1  0  0  0
 28 17  1  0  0  0
 32 31  1  0  0  0
 32 33  1  0  0  0
 31 35  2  0  0  0
 19 20  1  0  0  0
 33 34  2  0  0  0
 17  3  2  0  0  0
 35 34  1  0  0  0
 20 22  1  0  0  0
 20 21  2  0  0  0
  3 21  1  0  0  0
  3 16  1  0  0  0
 22 24  1  0  0  0
 16 15  1  0  0  0
 14  1  2  0  0  0
 24 23  1  0  0  0
 24 25  2  0  0  0
 12 11  1  0  0  0
 23  5  1  0  0  0
 15  1  1  0  0  0
 15 26  1  0  0  0
  1 13  1  0  0  0
 11 10  2  0  0  0
 11  6  1  0  0  0
 10  9  1  0  0  0
  5  4  1  0  0  0
 37 13  1  0  0  0
 37 47  1  0  0  0
 13  9  1  0  0  0
  9  8  2  0  0  0
  4  6  1  0  0  0
  4  2  1  0  0  0
  6  7  2  0  0  0
 43 47  2  0  0  0
 43 39  1  0  0  0
 47 42  1  0  0  0
  8  7  1  0  0  0
 39 40  2  0  0  0
 42 41  2  0  0  0
 40 41  1  0  0  0
 40 46  1  0  0  0
 41 44  1  0  0  0
 49 46  1  0  0  0
 46 48  2  0  0  0
 44 45  2  0  0  0
 48 45  1  0  0  0
 37 38  1  0  0  0
 22 27  1  0  0  0
 49 50  1  0  0  0
 49 51  1  0  0  0
 32 36  1  0  0  0
M  END
> <minimizedAffinity>
-13.11420

$$$$
5L30_70A_H_301


 51 57  0  0  0  0  0  0  0  0999 V2000
    7.4377   37.9302   24.4209 C   0  0  0  0  0  0  0  0  0  0  0  0
    0.7808   35.5886   26.9486 C   0  0  0  0  0  0  0  0  0  0  0  0
    6.1212   39.4889   22.0560 C   0  0  0  0  0  0  0  0  0  0  0  0
    1.4286   35.8658   25.5825 C   0  0  0  0  0  0  0  0  0  0  0  0
    0.7175   37.0849   24.9087 C   0  0  0  0  0  0  0  0  0  0  0  0
    2.9445   36.0701   25.6658 C   0  0  0  0  0  0  0  0  0  0  0  0
    3.4786   36.8675   26.6761 C   0  0  0  0  0  0  0  0  0  0  0  0
    4.8285   37.1817   26.6985 C   0  0  0  0  0  0  0  0  0  0  0  0
    5.6852   36.7037   25.7158 C   0  0  0  0  0  0  0  0  0  0  0  0
    5.1583   35.8758   24.7282 C   0  0  0  0  0  0  0  0  0  0  0  0
    3.8043   35.5511   24.6819 C   0  0  0  0  0  0  0  0  0  0  0  0
    3.3237   34.6270   23.5767 C   0  0  0  0  0  0  0  0  0  0  0  0
    7.1484   37.1198   25.6732 C   0  0  0  0  0  0  0  0  0  0  0  0
    7.9545   37.3716   23.4596 O   0  0  0  0  0  0  0  0  0  0  0  0
    7.0674   39.2252   24.3482 N   0  0  0  0  0  0  0  0  0  0  0  0
    7.1792   39.9028   23.0539 C   0  0  0  0  0  0  0  0  0  0  0  0
    6.3101   39.6650   20.6794 C   0  0  0  0  0  0  0  0  0  0  0  0
    5.2694   39.3434   19.8145 C   0  0  0  0  0  0  0  0  0  0  0  0
    4.0874   38.7949   20.2788 C   0  0  0  0  0  0  0  0  0  0  0  0
    3.8849   38.6376   21.6406 C   0  0  0  0  0  0  0  0  0  0  0  0
    4.9142   38.9654   22.5199 C   0  0  0  0  0  0  0  0  0  0  0  0
    2.6657   38.0942   22.1114 N   0  0  0  0  0  0  0  0  0  0  0  0
    1.2296   37.2325   23.5621 O   0  0  0  0  0  0  0  0  0  0  0  0
    2.2141   38.1423   23.3845 C   0  0  0  0  0  0  0  0  0  0  0  0
    2.5839   38.9287   24.2301 O   0  0  0  0  0  0  0  0  0  0  0  0
    6.5262   40.0075   25.4607 C   0  0  0  0  0  0  0  0  0  0  0  0
    2.0942   37.6395   21.4512 H   0  0  0  0  0  0  0  0  0  0  0  0
    7.6649   40.1206   20.1139 C   0  0  0  0  0  0  0  0  0  0  0  0
    8.3555   39.2842   19.0459 C   0  0  0  0  0  0  0  0  0  0  0  0
    8.9029   39.2910   20.4239 C   0  0  0  0  0  0  0  0  0  0  0  0
    7.8458   41.6115   19.9712 C   0  0  0  0  0  0  0  0  0  0  0  0
    8.4597   42.2299   18.9624 N   0  0  0  0  0  0  0  0  0  0  0  0
    8.3704   43.5640   19.1480 N   0  0  0  0  0  0  0  0  0  0  0  0
    7.7155   43.7277   20.2485 N   0  0  0  0  0  0  0  0  0  0  0  0
    7.3878   42.5278   20.7961 N   0  0  0  0  0  0  0  0  0  0  0  0
    8.9056   41.7859   18.2053 H   0  0  0  0  0  0  0  0  0  0  0  0
    8.0540   35.9862   25.6599 N   0  0  0  0  0  0  0  0  0  0  0  0
    8.4014   35.6835   24.7899 H   0  0  0  0  0  0  0  0  0  0  0  0
    8.5956   35.3210   29.1932 C   0  0  0  0  0  0  0  0  0  0  0  0
    9.1816   34.0364   29.2053 C   0  0  0  0  0  0  0  0  0  0  0  0
    9.4186   33.3948   27.9550 C   0  0  0  0  0  0  0  0  0  0  0  0
    9.0543   34.0549   26.7560 C   0  0  0  0  0  0  0  0  0  0  0  0
    8.2370   35.9149   28.0243 C   0  0  0  0  0  0  0  0  0  0  0  0
    9.9830   32.1029   27.9535 C   0  0  0  0  0  0  0  0  0  0  0  0
   10.2058   31.4635   29.1378 C   0  0  0  0  0  0  0  0  0  0  0  0
    9.4968   33.2916   30.4059 C   0  0  0  0  0  0  0  0  0  0  0  0
    8.4624   35.3000   26.7996 C   0  0  0  0  0  0  0  0  0  0  0  0
    9.9630   31.9984   30.3430 N   0  0  0  0  0  0  0  0  0  0  0  0
    9.4029   33.8538   31.6248 N   0  0  0  0  0  0  0  0  0  0  0  0
    9.0743   34.7772   31.7171 H   0  0  0  0  0  0  0  0  0  0  0  0
    9.6628   33.3416   32.4245 H   0  0  0  0  0  0  0  0  0  0  0  0
 29 30  1  0  0  0
 29 28  1  0  0  0
 18 19  2  0  0  0
 18 17  1  0  0  0
 30 28  1  0  0  0
 28 31  1  0  0  0
 28 17  1  0  0  0
 32 31  1  0  0  0
 32 33  1  0  0  0
 31 35  2  0  0  0
 19 20  1  0  0  0
 33 34  2  0  0  0
 17  3  2  0  0  0
 35 34  1  0  0  0
 20 22  1  0  0  0
 20 21  2  0  0  0
  3 21  1  0  0  0
  3 16  1  0  0  0
 22 24  1  0  0  0
 16 15  1  0  0  0
 14  1  2  0  0  0
 24 23  1  0  0  0
 24 25  2  0  0  0
 12 11  1  0  0  0
 23  5  1  0  0  0
 15  1  1  0  0  0
 15 26  1  0  0  0
  1 13  1  0  0  0
 11 10  2  0  0  0
 11  6  1  0  0  0
 10  9  1  0  0  0
  5  4  1  0  0  0
 37 13  1  0  0  0
 37 47  1  0  0  0
 13  9  1  0  0  0
  9  8  2  0  0  0
  4  6  1  0  0  0
  4  2  1  0  0  0
  6  7  2  0  0  0
 43 47  2  0  0  0
 43 39  1  0  0  0
 47 42  1  0  0  0
  8  7  1  0  0  0
 39 40  2  0  0  0
 42 41  2  0  0  0
 40 41  1  0  0  0
 40 46  1  0  0  0
 41 44  1  0  0  0
 49 46  1  0  0  0
 46 48  2  0  0  0
 44 45  2  0  0  0
 48 45  1  0  0  0
 37 38  1  0  0  0
 22 27  1  0  0  0
 49 50  1  0  0  0
 49 51  1  0  0  0
 32 36  1  0  0  0
M  END
> <minimizedAffinity>
-12.93345

$$$$
