4CJP_4D2_A_1215


 30 32  0  0  0  0  0  0  0  0999 V2000
   -9.6359   44.6774    0.0350 C   0  0  0  0  0  0  0  0  0  0  0  0
  -11.1298   44.6723    0.2978 C   0  0  0  0  0  0  0  0  0  0  0  0
  -11.5404   43.8058   -1.9736 C   0  0  0  0  0  0  0  0  0  0  0  0
  -12.2493   43.6578   -3.1436 C   0  0  0  0  0  0  0  0  0  0  0  0
  -13.1897   45.2905   -1.0529 C   0  0  0  0  0  0  0  0  0  0  0  0
  -11.9843   44.6087   -0.9344 C   0  0  0  0  0  0  0  0  0  0  0  0
  -13.4325   44.3355   -3.2459 C   0  0  0  0  0  0  0  0  0  0  0  0
  -13.8825   45.1240   -2.2318 C   0  0  0  0  0  0  0  0  0  0  0  0
  -15.4233   44.8905   -3.6810 C   0  0  0  0  0  0  0  0  0  0  0  0
  -14.2781   44.3017   -4.3200 O   0  0  0  0  0  0  0  0  0  0  0  0
  -15.0849   45.6966   -2.5386 O   0  0  0  0  0  0  0  0  0  0  0  0
  -13.7789   46.1727   -0.0026 C   0  0  0  0  0  0  0  0  0  0  0  0
  -13.7104   47.4198   -0.1828 O   0  0  0  0  0  0  0  0  0  0  0  0
  -14.2887   45.6226    1.0074 O   0  0  0  0  0  0  0  0  0  0  0  0
  -13.3155   47.7596   -0.9616 H   0  0  0  0  0  0  0  0  0  0  0  0
   -8.9952   43.4182    0.5878 C   0  0  0  0  0  0  0  0  0  0  0  0
   -7.9077   43.3215   -1.6814 C   0  0  0  0  0  0  0  0  0  0  0  0
   -7.0880   41.9311    0.1623 C   0  0  0  0  0  0  0  0  0  0  0  0
   -8.3258   42.5393   -0.4573 C   0  0  0  0  0  0  0  0  0  0  0  0
   -8.9990   45.8824    0.6957 C   0  0  0  0  0  0  0  0  0  0  0  0
   -6.8229   45.7624    1.7946 C   0  0  0  0  0  0  0  0  0  0  0  0
   -8.1727   45.5067    1.8213 N   0  0  0  0  0  0  0  0  0  0  0  0
   -6.2263   46.4111    0.9518 O   0  0  0  0  0  0  0  0  0  0  0  0
   -8.5763   45.0686    2.6052 H   0  0  0  0  0  0  0  0  0  0  0  0
   -5.5564   43.3363    4.2844 C   0  0  0  0  0  0  0  0  0  0  0  0
   -6.2867   43.8596    3.2418 C   0  0  0  0  0  0  0  0  0  0  0  0
   -4.6500   44.1493    4.9263 C   0  0  0  0  0  0  0  0  0  0  0  0
   -5.1397   45.9119    3.5959 C   0  0  0  0  0  0  0  0  0  0  0  0
   -6.0671   45.1719    2.9019 C   0  0  0  0  0  0  0  0  0  0  0  0
   -4.4167   45.4264    4.6113 N   0  0  0  0  0  0  0  0  0  0  0  0
 25 26  2  0  0  0
 25 27  1  0  0  0
 26 29  1  0  0  0
  3  4  1  0  0  0
  3  6  2  0  0  0
  4  7  2  0  0  0
 27 30  2  0  0  0
 28 29  2  0  0  0
 28 30  1  0  0  0
 29 21  1  0  0  0
  5  6  1  0  0  0
  5  8  2  0  0  0
  5 12  1  0  0  0
  6  2  1  0  0  0
  7  8  1  0  0  0
  7 10  1  0  0  0
  8 11  1  0  0  0
 21 22  1  0  0  0
 21 23  2  0  0  0
 12 13  1  0  0  0
 12 14  2  0  0  0
  9 10  1  0  0  0
  9 11  1  0  0  0
 17 19  1  0  0  0
 18 19  1  0  0  0
  2  1  1  0  0  0
 16 19  1  0  0  0
 16  1  1  0  0  0
 20  1  1  0  0  0
 20 22  1  0  0  0
 22 24  1  0  0  0
 13 15  1  0  0  0
M  END
> <minimizedAffinity>
-7.81125

$$$$
4CJP_4D2_A_1215


 30 32  0  0  0  0  0  0  0  0999 V2000
   -8.8907   44.5875   -0.0636 C   0  0  0  0  0  0  0  0  0  0  0  0
  -10.3201   44.2782    0.3389 C   0  0  0  0  0  0  0  0  0  0  0  0
  -10.9660   43.6254   -1.9491 C   0  0  0  0  0  0  0  0  0  0  0  0
  -11.8013   43.5651   -3.0409 C   0  0  0  0  0  0  0  0  0  0  0  0
  -12.5405   44.9417   -0.7000 C   0  0  0  0  0  0  0  0  0  0  0  0
  -11.3098   44.3019   -0.7892 C   0  0  0  0  0  0  0  0  0  0  0  0
  -13.0080   44.2001   -2.9387 C   0  0  0  0  0  0  0  0  0  0  0  0
  -13.3602   44.8646   -1.8043 C   0  0  0  0  0  0  0  0  0  0  0  0
  -15.0514   44.7127   -3.0871 C   0  0  0  0  0  0  0  0  0  0  0  0
  -13.9713   44.2381   -3.9085 O   0  0  0  0  0  0  0  0  0  0  0  0
  -14.6067   45.4147   -1.9129 O   0  0  0  0  0  0  0  0  0  0  0  0
  -13.0295   45.6902    0.4955 C   0  0  0  0  0  0  0  0  0  0  0  0
  -13.9928   45.1926    1.1411 O   0  0  0  0  0  0  0  0  0  0  0  0
  -12.4675   46.7803    0.7755 O   0  0  0  0  0  0  0  0  0  0  0  0
  -14.3628   44.3742    0.8740 H   0  0  0  0  0  0  0  0  0  0  0  0
   -7.9196   44.0497    0.9704 C   0  0  0  0  0  0  0  0  0  0  0  0
   -5.8333   42.7229    1.4486 C   0  0  0  0  0  0  0  0  0  0  0  0
   -7.5828   41.8252   -0.0135 C   0  0  0  0  0  0  0  0  0  0  0  0
   -6.8766   43.0905    0.4183 C   0  0  0  0  0  0  0  0  0  0  0  0
   -8.7001   46.0854   -0.1833 C   0  0  0  0  0  0  0  0  0  0  0  0
   -9.1290   48.0664    1.1764 C   0  0  0  0  0  0  0  0  0  0  0  0
   -9.5099   46.8102    0.7706 N   0  0  0  0  0  0  0  0  0  0  0  0
   -8.2153   48.7294    0.7152 O   0  0  0  0  0  0  0  0  0  0  0  0
  -10.3324   46.4044    1.1286 H   0  0  0  0  0  0  0  0  0  0  0  0
  -11.0976   50.4073    3.2582 C   0  0  0  0  0  0  0  0  0  0  0  0
  -10.3520   49.9217    2.2082 C   0  0  0  0  0  0  0  0  0  0  0  0
  -11.3718   49.5682    4.3143 C   0  0  0  0  0  0  0  0  0  0  0  0
  -10.2435   47.8501    3.3700 C   0  0  0  0  0  0  0  0  0  0  0  0
   -9.9216   48.6195    2.2774 C   0  0  0  0  0  0  0  0  0  0  0  0
  -10.9673   48.2980    4.4019 N   0  0  0  0  0  0  0  0  0  0  0  0
 25 26  2  0  0  0
 25 27  1  0  0  0
 26 29  1  0  0  0
  3  4  1  0  0  0
  3  6  2  0  0  0
  4  7  2  0  0  0
 27 30  2  0  0  0
 28 29  2  0  0  0
 28 30  1  0  0  0
 29 21  1  0  0  0
  5  6  1  0  0  0
  5  8  2  0  0  0
  5 12  1  0  0  0
  6  2  1  0  0  0
  7  8  1  0  0  0
  7 10  1  0  0  0
  8 11  1  0  0  0
 21 22  1  0  0  0
 21 23  2  0  0  0
 12 13  1  0  0  0
 12 14  2  0  0  0
  9 10  1  0  0  0
  9 11  1  0  0  0
 17 19  1  0  0  0
 18 19  1  0  0  0
  2  1  1  0  0  0
 16 19  1  0  0  0
 16  1  1  0  0  0
 20  1  1  0  0  0
 20 22  1  0  0  0
 22 24  1  0  0  0
 13 15  1  0  0  0
M  END
> <minimizedAffinity>
-7.77509

$$$$
4CJP_4D2_A_1215


 30 32  0  0  0  0  0  0  0  0999 V2000
   -9.3720   44.9134    0.0030 C   0  0  0  0  0  0  0  0  0  0  0  0
  -10.7664   44.3767    0.2643 C   0  0  0  0  0  0  0  0  0  0  0  0
  -11.3126   43.6281   -2.0204 C   0  0  0  0  0  0  0  0  0  0  0  0
  -12.0807   43.5553   -3.1597 C   0  0  0  0  0  0  0  0  0  0  0  0
  -12.8672   45.1181   -0.9550 C   0  0  0  0  0  0  0  0  0  0  0  0
  -11.6803   44.3954   -0.9261 C   0  0  0  0  0  0  0  0  0  0  0  0
  -13.2449   44.2725   -3.1737 C   0  0  0  0  0  0  0  0  0  0  0  0
  -13.6203   45.0268   -2.1048 C   0  0  0  0  0  0  0  0  0  0  0  0
  -15.2351   44.9067   -3.4856 C   0  0  0  0  0  0  0  0  0  0  0  0
  -14.1413   44.3135   -4.2055 O   0  0  0  0  0  0  0  0  0  0  0  0
  -14.8168   45.6490   -2.3266 O   0  0  0  0  0  0  0  0  0  0  0  0
  -13.3768   45.9687    0.1610 C   0  0  0  0  0  0  0  0  0  0  0  0
  -13.2191   47.2167    0.0619 O   0  0  0  0  0  0  0  0  0  0  0  0
  -13.9131   45.3907    1.1413 O   0  0  0  0  0  0  0  0  0  0  0  0
  -12.8101   47.5782   -0.6997 H   0  0  0  0  0  0  0  0  0  0  0  0
   -8.3297   44.0220    0.6513 C   0  0  0  0  0  0  0  0  0  0  0  0
   -7.8082   41.7196   -0.2254 C   0  0  0  0  0  0  0  0  0  0  0  0
   -7.8455   43.6549   -1.7280 C   0  0  0  0  0  0  0  0  0  0  0  0
   -7.5075   43.1975   -0.3270 C   0  0  0  0  0  0  0  0  0  0  0  0
   -9.2421   46.3121    0.5696 C   0  0  0  0  0  0  0  0  0  0  0  0
  -10.0291   48.3934   -0.4335 C   0  0  0  0  0  0  0  0  0  0  0  0
   -9.1812   47.3129   -0.4724 N   0  0  0  0  0  0  0  0  0  0  0  0
  -10.7774   48.6930    0.4817 O   0  0  0  0  0  0  0  0  0  0  0  0
   -8.5337   47.2202   -1.2082 H   0  0  0  0  0  0  0  0  0  0  0  0
   -9.4014   51.2343   -2.7192 C   0  0  0  0  0  0  0  0  0  0  0  0
   -9.4117   50.4726   -1.5729 C   0  0  0  0  0  0  0  0  0  0  0  0
   -9.9785   50.7186   -3.8573 C   0  0  0  0  0  0  0  0  0  0  0  0
  -10.5538   48.7963   -2.8132 C   0  0  0  0  0  0  0  0  0  0  0  0
  -10.0027   49.2344   -1.6327 C   0  0  0  0  0  0  0  0  0  0  0  0
  -10.5554   49.5165   -3.9404 N   0  0  0  0  0  0  0  0  0  0  0  0
 25 26  2  0  0  0
 25 27  1  0  0  0
 26 29  1  0  0  0
  3  4  1  0  0  0
  3  6  2  0  0  0
  4  7  2  0  0  0
 27 30  2  0  0  0
 28 29  2  0  0  0
 28 30  1  0  0  0
 29 21  1  0  0  0
  5  6  1  0  0  0
  5  8  2  0  0  0
  5 12  1  0  0  0
  6  2  1  0  0  0
  7  8  1  0  0  0
  7 10  1  0  0  0
  8 11  1  0  0  0
 21 22  1  0  0  0
 21 23  2  0  0  0
 12 13  1  0  0  0
 12 14  2  0  0  0
  9 10  1  0  0  0
  9 11  1  0  0  0
 17 19  1  0  0  0
 18 19  1  0  0  0
  2  1  1  0  0  0
 16 19  1  0  0  0
 16  1  1  0  0  0
 20  1  1  0  0  0
 20 22  1  0  0  0
 22 24  1  0  0  0
 13 15  1  0  0  0
M  END
> <minimizedAffinity>
-7.76908

$$$$
4CJP_4D2_A_1215


 30 32  0  0  0  0  0  0  0  0999 V2000
   -8.7222   44.7990   -0.9465 C   0  0  0  0  0  0  0  0  0  0  0  0
  -10.0237   44.3039   -0.3452 C   0  0  0  0  0  0  0  0  0  0  0  0
  -11.0654   43.7291   -2.5046 C   0  0  0  0  0  0  0  0  0  0  0  0
  -12.0845   43.6937   -3.4285 C   0  0  0  0  0  0  0  0  0  0  0  0
  -12.4059   44.9578   -0.9344 C   0  0  0  0  0  0  0  0  0  0  0  0
  -11.2025   44.3504   -1.2731 C   0  0  0  0  0  0  0  0  0  0  0  0
  -13.2619   44.2964   -3.0815 C   0  0  0  0  0  0  0  0  0  0  0  0
  -13.4118   44.9065   -1.8741 C   0  0  0  0  0  0  0  0  0  0  0  0
  -15.3057   44.7678   -2.8346 C   0  0  0  0  0  0  0  0  0  0  0  0
  -14.3861   44.3515   -3.8581 O   0  0  0  0  0  0  0  0  0  0  0  0
  -14.6653   45.4319   -1.7309 O   0  0  0  0  0  0  0  0  0  0  0  0
  -12.6804   45.6461    0.3615 C   0  0  0  0  0  0  0  0  0  0  0  0
  -13.6509   45.2268    1.0504 O   0  0  0  0  0  0  0  0  0  0  0  0
  -11.9428   46.6145    0.6792 O   0  0  0  0  0  0  0  0  0  0  0  0
  -14.1580   44.4982    0.7506 H   0  0  0  0  0  0  0  0  0  0  0  0
   -7.5986   43.8210   -0.6596 C   0  0  0  0  0  0  0  0  0  0  0  0
   -7.6933   41.3733   -0.0752 C   0  0  0  0  0  0  0  0  0  0  0  0
   -7.0081   43.0347    1.5906 C   0  0  0  0  0  0  0  0  0  0  0  0
   -7.9187   42.7875    0.4091 C   0  0  0  0  0  0  0  0  0  0  0  0
   -8.3611   46.1473   -0.3582 C   0  0  0  0  0  0  0  0  0  0  0  0
   -8.9411   48.2744   -1.4052 C   0  0  0  0  0  0  0  0  0  0  0  0
   -9.3327   47.1625   -0.6994 N   0  0  0  0  0  0  0  0  0  0  0  0
   -7.8482   48.4610   -1.9129 O   0  0  0  0  0  0  0  0  0  0  0  0
  -10.2728   47.0572   -0.4266 H   0  0  0  0  0  0  0  0  0  0  0  0
  -11.5451   50.7589   -0.5473 C   0  0  0  0  0  0  0  0  0  0  0  0
  -10.5892   49.7803   -0.3960 C   0  0  0  0  0  0  0  0  0  0  0  0
  -11.8243   51.2157   -1.8153 C   0  0  0  0  0  0  0  0  0  0  0  0
  -10.3060   49.8278   -2.7561 C   0  0  0  0  0  0  0  0  0  0  0  0
   -9.9669   49.3132   -1.5275 C   0  0  0  0  0  0  0  0  0  0  0  0
  -11.2299   50.7795   -2.9294 N   0  0  0  0  0  0  0  0  0  0  0  0
 25 26  2  0  0  0
 25 27  1  0  0  0
 26 29  1  0  0  0
  3  4  1  0  0  0
  3  6  2  0  0  0
  4  7  2  0  0  0
 27 30  2  0  0  0
 28 29  2  0  0  0
 28 30  1  0  0  0
 29 21  1  0  0  0
  5  6  1  0  0  0
  5  8  2  0  0  0
  5 12  1  0  0  0
  6  2  1  0  0  0
  7  8  1  0  0  0
  7 10  1  0  0  0
  8 11  1  0  0  0
 21 22  1  0  0  0
 21 23  2  0  0  0
 12 13  1  0  0  0
 12 14  2  0  0  0
  9 10  1  0  0  0
  9 11  1  0  0  0
 17 19  1  0  0  0
 18 19  1  0  0  0
  2  1  1  0  0  0
 16 19  1  0  0  0
 16  1  1  0  0  0
 20  1  1  0  0  0
 20 22  1  0  0  0
 22 24  1  0  0  0
 13 15  1  0  0  0
M  END
> <minimizedAffinity>
-7.67500

$$$$
4CJP_4D2_A_1215


 30 32  0  0  0  0  0  0  0  0999 V2000
   -8.9588   44.5240   -0.1223 C   0  0  0  0  0  0  0  0  0  0  0  0
  -10.3840   44.1612    0.2490 C   0  0  0  0  0  0  0  0  0  0  0  0
  -11.0749   43.5985   -2.0498 C   0  0  0  0  0  0  0  0  0  0  0  0
  -11.9152   43.6133   -3.1394 C   0  0  0  0  0  0  0  0  0  0  0  0
  -12.5616   44.9829   -0.7671 C   0  0  0  0  0  0  0  0  0  0  0  0
  -11.3732   44.2702   -0.8745 C   0  0  0  0  0  0  0  0  0  0  0  0
  -13.0799   44.3195   -3.0191 C   0  0  0  0  0  0  0  0  0  0  0  0
  -13.3874   44.9802   -1.8695 C   0  0  0  0  0  0  0  0  0  0  0  0
  -15.0880   44.9606   -3.1487 C   0  0  0  0  0  0  0  0  0  0  0  0
  -14.0415   44.4377   -3.9841 O   0  0  0  0  0  0  0  0  0  0  0  0
  -14.5977   45.6086   -1.9617 O   0  0  0  0  0  0  0  0  0  0  0  0
  -13.0003   45.7345    0.4459 C   0  0  0  0  0  0  0  0  0  0  0  0
  -14.0438   45.3361    1.0330 O   0  0  0  0  0  0  0  0  0  0  0  0
  -12.3172   46.7306    0.7977 O   0  0  0  0  0  0  0  0  0  0  0  0
  -14.5028   44.5842    0.7139 H   0  0  0  0  0  0  0  0  0  0  0  0
   -7.9880   43.9932    0.9157 C   0  0  0  0  0  0  0  0  0  0  0  0
   -5.8588   42.7324    1.3831 C   0  0  0  0  0  0  0  0  0  0  0  0
   -7.6182   41.7493   -0.0107 C   0  0  0  0  0  0  0  0  0  0  0  0
   -6.9342   43.0437    0.3674 C   0  0  0  0  0  0  0  0  0  0  0  0
   -8.8136   46.0294   -0.2051 C   0  0  0  0  0  0  0  0  0  0  0  0
   -6.9857   47.6147    0.1159 C   0  0  0  0  0  0  0  0  0  0  0  0
   -7.4387   46.4285   -0.4090 N   0  0  0  0  0  0  0  0  0  0  0  0
   -7.5948   48.3489    0.8755 O   0  0  0  0  0  0  0  0  0  0  0  0
   -6.8286   45.8514   -0.9228 H   0  0  0  0  0  0  0  0  0  0  0  0
   -3.3249   48.1507    0.0965 C   0  0  0  0  0  0  0  0  0  0  0  0
   -4.5773   47.7827    0.5328 C   0  0  0  0  0  0  0  0  0  0  0  0
   -3.2018   48.7092   -1.1554 C   0  0  0  0  0  0  0  0  0  0  0  0
   -5.4244   48.5595   -1.5485 C   0  0  0  0  0  0  0  0  0  0  0  0
   -5.6380   47.9974   -0.3125 C   0  0  0  0  0  0  0  0  0  0  0  0
   -4.2177   48.9241   -1.9960 N   0  0  0  0  0  0  0  0  0  0  0  0
 25 26  2  0  0  0
 25 27  1  0  0  0
 26 29  1  0  0  0
  3  4  1  0  0  0
  3  6  2  0  0  0
  4  7  2  0  0  0
 27 30  2  0  0  0
 28 29  2  0  0  0
 28 30  1  0  0  0
 29 21  1  0  0  0
  5  6  1  0  0  0
  5  8  2  0  0  0
  5 12  1  0  0  0
  6  2  1  0  0  0
  7  8  1  0  0  0
  7 10  1  0  0  0
  8 11  1  0  0  0
 21 22  1  0  0  0
 21 23  2  0  0  0
 12 13  1  0  0  0
 12 14  2  0  0  0
  9 10  1  0  0  0
  9 11  1  0  0  0
 17 19  1  0  0  0
 18 19  1  0  0  0
  2  1  1  0  0  0
 16 19  1  0  0  0
 16  1  1  0  0  0
 20  1  1  0  0  0
 20 22  1  0  0  0
 22 24  1  0  0  0
 13 15  1  0  0  0
M  END
> <minimizedAffinity>
-7.34383

$$$$
4CJP_4D2_A_1215


 30 32  0  0  0  0  0  0  0  0999 V2000
   -9.8484   45.5423    0.0961 C   0  0  0  0  0  0  0  0  0  0  0  0
  -10.8444   44.3992    0.0536 C   0  0  0  0  0  0  0  0  0  0  0  0
  -11.4764   43.6900   -2.2215 C   0  0  0  0  0  0  0  0  0  0  0  0
  -12.2855   43.6392   -3.3334 C   0  0  0  0  0  0  0  0  0  0  0  0
  -12.9839   45.1699   -1.0771 C   0  0  0  0  0  0  0  0  0  0  0  0
  -11.8004   44.4414   -1.1026 C   0  0  0  0  0  0  0  0  0  0  0  0
  -13.4456   44.3619   -3.2939 C   0  0  0  0  0  0  0  0  0  0  0  0
  -13.7783   45.1007   -2.2003 C   0  0  0  0  0  0  0  0  0  0  0  0
  -15.4424   45.0103   -3.5237 C   0  0  0  0  0  0  0  0  0  0  0  0
  -14.3784   44.4237   -4.2919 O   0  0  0  0  0  0  0  0  0  0  0  0
  -14.9788   45.7319   -2.3688 O   0  0  0  0  0  0  0  0  0  0  0  0
  -13.4485   46.0047    0.0699 C   0  0  0  0  0  0  0  0  0  0  0  0
  -13.1940   47.2401    0.0329 O   0  0  0  0  0  0  0  0  0  0  0  0
  -14.0462   45.4252    1.0131 O   0  0  0  0  0  0  0  0  0  0  0  0
  -12.7439   47.6038   -0.7041 H   0  0  0  0  0  0  0  0  0  0  0  0
   -8.4304   45.0158   -0.0210 C   0  0  0  0  0  0  0  0  0  0  0  0
   -7.6859   42.6843   -0.6136 C   0  0  0  0  0  0  0  0  0  0  0  0
   -7.2734   43.6027    1.6205 C   0  0  0  0  0  0  0  0  0  0  0  0
   -8.2459   43.5860    0.4628 C   0  0  0  0  0  0  0  0  0  0  0  0
   -9.9847   46.2983    1.4016 C   0  0  0  0  0  0  0  0  0  0  0  0
  -10.7622   48.4778    2.1777 C   0  0  0  0  0  0  0  0  0  0  0  0
  -10.1969   47.7124    1.1865 N   0  0  0  0  0  0  0  0  0  0  0  0
  -11.0041   48.1205    3.3183 O   0  0  0  0  0  0  0  0  0  0  0  0
   -9.9369   48.1259    0.3317 H   0  0  0  0  0  0  0  0  0  0  0  0
  -11.3220   51.4969    0.1134 C   0  0  0  0  0  0  0  0  0  0  0  0
  -10.9963   50.2039    0.4549 C   0  0  0  0  0  0  0  0  0  0  0  0
  -11.7292   52.3574    1.1074 C   0  0  0  0  0  0  0  0  0  0  0  0
  -11.5145   50.7706    2.7050 C   0  0  0  0  0  0  0  0  0  0  0  0
  -11.0965   49.8467    1.7771 C   0  0  0  0  0  0  0  0  0  0  0  0
  -11.8378   52.0319    2.3985 N   0  0  0  0  0  0  0  0  0  0  0  0
 25 26  2  0  0  0
 25 27  1  0  0  0
 26 29  1  0  0  0
  3  4  1  0  0  0
  3  6  2  0  0  0
  4  7  2  0  0  0
 27 30  2  0  0  0
 28 29  2  0  0  0
 28 30  1  0  0  0
 29 21  1  0  0  0
  5  6  1  0  0  0
  5  8  2  0  0  0
  5 12  1  0  0  0
  6  2  1  0  0  0
  7  8  1  0  0  0
  7 10  1  0  0  0
  8 11  1  0  0  0
 21 22  1  0  0  0
 21 23  2  0  0  0
 12 13  1  0  0  0
 12 14  2  0  0  0
  9 10  1  0  0  0
  9 11  1  0  0  0
 17 19  1  0  0  0
 18 19  1  0  0  0
  2  1  1  0  0  0
 16 19  1  0  0  0
 16  1  1  0  0  0
 20  1  1  0  0  0
 20 22  1  0  0  0
 22 24  1  0  0  0
 13 15  1  0  0  0
M  END
> <minimizedAffinity>
-7.05620

$$$$
4CJP_4D2_A_1215


 30 32  0  0  0  0  0  0  0  0999 V2000
   -7.5983   45.6430    0.5670 C   0  0  0  0  0  0  0  0  0  0  0  0
   -9.0163   45.2183    0.8983 C   0  0  0  0  0  0  0  0  0  0  0  0
   -9.1444   43.9409   -1.2066 C   0  0  0  0  0  0  0  0  0  0  0  0
   -9.7751   43.4133   -2.3098 C   0  0  0  0  0  0  0  0  0  0  0  0
  -11.1680   44.9767   -0.4290 C   0  0  0  0  0  0  0  0  0  0  0  0
   -9.8116   44.7169   -0.2716 C   0  0  0  0  0  0  0  0  0  0  0  0
  -11.1091   43.6784   -2.4517 C   0  0  0  0  0  0  0  0  0  0  0  0
  -11.7777   44.4352   -1.5392 C   0  0  0  0  0  0  0  0  0  0  0  0
  -13.1746   43.5341   -2.8678 C   0  0  0  0  0  0  0  0  0  0  0  0
  -11.9049   43.2312   -3.4699 O   0  0  0  0  0  0  0  0  0  0  0  0
  -13.0980   44.5651   -1.8676 O   0  0  0  0  0  0  0  0  0  0  0  0
  -11.9977   45.7851    0.5125 C   0  0  0  0  0  0  0  0  0  0  0  0
  -12.9107   45.1871    1.1460 O   0  0  0  0  0  0  0  0  0  0  0  0
  -11.7520   47.0156    0.6027 O   0  0  0  0  0  0  0  0  0  0  0  0
  -13.0363   44.2660    1.0287 H   0  0  0  0  0  0  0  0  0  0  0  0
   -6.6038   44.8978    1.4371 C   0  0  0  0  0  0  0  0  0  0  0  0
   -6.5421   42.4419    0.8839 C   0  0  0  0  0  0  0  0  0  0  0  0
   -6.4739   43.2052    3.2114 C   0  0  0  0  0  0  0  0  0  0  0  0
   -7.0425   43.4991    1.8415 C   0  0  0  0  0  0  0  0  0  0  0  0
   -7.4364   47.1307    0.8008 C   0  0  0  0  0  0  0  0  0  0  0  0
   -8.7806   48.8796   -0.2443 C   0  0  0  0  0  0  0  0  0  0  0  0
   -7.8198   47.9041   -0.3594 N   0  0  0  0  0  0  0  0  0  0  0  0
   -9.2852   49.2790    0.7915 O   0  0  0  0  0  0  0  0  0  0  0  0
   -7.3934   47.7320   -1.2299 H   0  0  0  0  0  0  0  0  0  0  0  0
   -9.1318   51.1909   -3.1120 C   0  0  0  0  0  0  0  0  0  0  0  0
   -8.7045   50.6748   -1.9097 C   0  0  0  0  0  0  0  0  0  0  0  0
  -10.0409   50.4695   -3.8520 C   0  0  0  0  0  0  0  0  0  0  0  0
  -10.1187   48.8079   -2.3191 C   0  0  0  0  0  0  0  0  0  0  0  0
   -9.2152   49.4624   -1.5162 C   0  0  0  0  0  0  0  0  0  0  0  0
  -10.5483   49.2874   -3.4917 N   0  0  0  0  0  0  0  0  0  0  0  0
 25 26  2  0  0  0
 25 27  1  0  0  0
 26 29  1  0  0  0
  3  4  1  0  0  0
  3  6  2  0  0  0
  4  7  2  0  0  0
 27 30  2  0  0  0
 28 29  2  0  0  0
 28 30  1  0  0  0
 29 21  1  0  0  0
  5  6  1  0  0  0
  5  8  2  0  0  0
  5 12  1  0  0  0
  6  2  1  0  0  0
  7  8  1  0  0  0
  7 10  1  0  0  0
  8 11  1  0  0  0
 21 22  1  0  0  0
 21 23  2  0  0  0
 12 13  1  0  0  0
 12 14  2  0  0  0
  9 10  1  0  0  0
  9 11  1  0  0  0
 17 19  1  0  0  0
 18 19  1  0  0  0
  2  1  1  0  0  0
 16 19  1  0  0  0
 16  1  1  0  0  0
 20  1  1  0  0  0
 20 22  1  0  0  0
 22 24  1  0  0  0
 13 15  1  0  0  0
M  END
> <minimizedAffinity>
-6.84549

$$$$
4CJP_4D2_A_1215


 30 32  0  0  0  0  0  0  0  0999 V2000
   -8.8114   44.6272    1.0956 C   0  0  0  0  0  0  0  0  0  0  0  0
   -7.3256   44.8998    0.9582 C   0  0  0  0  0  0  0  0  0  0  0  0
   -6.6164   43.3820    2.7671 C   0  0  0  0  0  0  0  0  0  0  0  0
   -5.9130   43.0284    3.8955 C   0  0  0  0  0  0  0  0  0  0  0  0
   -5.6870   45.5975    2.7687 C   0  0  0  0  0  0  0  0  0  0  0  0
   -6.5222   44.6433    2.1997 C   0  0  0  0  0  0  0  0  0  0  0  0
   -5.0964   43.9779    4.4445 C   0  0  0  0  0  0  0  0  0  0  0  0
   -4.9911   45.2189    3.8955 C   0  0  0  0  0  0  0  0  0  0  0  0
   -3.4915   44.9771    5.3860 C   0  0  0  0  0  0  0  0  0  0  0  0
   -4.3123   43.8086    5.5519 O   0  0  0  0  0  0  0  0  0  0  0  0
   -4.1162   46.0028    4.5942 O   0  0  0  0  0  0  0  0  0  0  0  0
   -5.4909   46.9820    2.2457 C   0  0  0  0  0  0  0  0  0  0  0  0
   -6.3081   47.8678    2.6198 O   0  0  0  0  0  0  0  0  0  0  0  0
   -4.5377   47.1785    1.4486 O   0  0  0  0  0  0  0  0  0  0  0  0
   -6.9956   47.6485    3.2174 H   0  0  0  0  0  0  0  0  0  0  0  0
   -9.2258   43.4778    0.1964 C   0  0  0  0  0  0  0  0  0  0  0  0
   -7.7161   41.5359   -0.3438 C   0  0  0  0  0  0  0  0  0  0  0  0
   -8.6276   42.9493   -2.1259 C   0  0  0  0  0  0  0  0  0  0  0  0
   -8.1189   42.9482   -0.7020 C   0  0  0  0  0  0  0  0  0  0  0  0
   -9.6009   45.8610    0.7099 C   0  0  0  0  0  0  0  0  0  0  0  0
  -11.8858   45.6369   -0.1186 C   0  0  0  0  0  0  0  0  0  0  0  0
  -10.5342   45.5912   -0.3612 N   0  0  0  0  0  0  0  0  0  0  0  0
  -12.4240   46.0179    0.9073 O   0  0  0  0  0  0  0  0  0  0  0  0
  -10.2018   45.3753   -1.2624 H   0  0  0  0  0  0  0  0  0  0  0  0
  -13.1191   43.6700   -2.9995 C   0  0  0  0  0  0  0  0  0  0  0  0
  -12.3074   44.0884   -1.9697 C   0  0  0  0  0  0  0  0  0  0  0  0
  -14.2954   44.3475   -3.2271 C   0  0  0  0  0  0  0  0  0  0  0  0
  -13.9139   45.7826   -1.5208 C   0  0  0  0  0  0  0  0  0  0  0  0
  -12.7217   45.1656   -1.2256 C   0  0  0  0  0  0  0  0  0  0  0  0
  -14.7207   45.3946   -2.5148 N   0  0  0  0  0  0  0  0  0  0  0  0
 25 26  2  0  0  0
 25 27  1  0  0  0
 26 29  1  0  0  0
  3  4  1  0  0  0
  3  6  2  0  0  0
  4  7  2  0  0  0
 27 30  2  0  0  0
 28 29  2  0  0  0
 28 30  1  0  0  0
 29 21  1  0  0  0
  5  6  1  0  0  0
  5  8  2  0  0  0
  5 12  1  0  0  0
  6  2  1  0  0  0
  7  8  1  0  0  0
  7 10  1  0  0  0
  8 11  1  0  0  0
 21 22  1  0  0  0
 21 23  2  0  0  0
 12 13  1  0  0  0
 12 14  2  0  0  0
  9 10  1  0  0  0
  9 11  1  0  0  0
 17 19  1  0  0  0
 18 19  1  0  0  0
  2  1  1  0  0  0
 16 19  1  0  0  0
 16  1  1  0  0  0
 20  1  1  0  0  0
 20 22  1  0  0  0
 22 24  1  0  0  0
 13 15  1  0  0  0
M  END
> <minimizedAffinity>
-6.82322

$$$$
4CJP_4D2_A_1215


 30 32  0  0  0  0  0  0  0  0999 V2000
  -11.2250   44.9376   -0.6305 C   0  0  0  0  0  0  0  0  0  0  0  0
   -9.8273   45.3656   -1.0354 C   0  0  0  0  0  0  0  0  0  0  0  0
   -8.4773   43.3136   -0.8224 C   0  0  0  0  0  0  0  0  0  0  0  0
   -7.4770   42.5265   -0.2997 C   0  0  0  0  0  0  0  0  0  0  0  0
   -7.9299   45.1414    0.6377 C   0  0  0  0  0  0  0  0  0  0  0  0
   -8.7191   44.6018   -0.3712 C   0  0  0  0  0  0  0  0  0  0  0  0
   -6.7097   43.0705    0.6928 C   0  0  0  0  0  0  0  0  0  0  0  0
   -6.9333   44.3356    1.1425 C   0  0  0  0  0  0  0  0  0  0  0  0
   -5.1004   43.6139    1.9479 C   0  0  0  0  0  0  0  0  0  0  0  0
   -5.6657   42.4501    1.3214 O   0  0  0  0  0  0  0  0  0  0  0  0
   -6.0484   44.6812    2.1252 O   0  0  0  0  0  0  0  0  0  0  0  0
   -8.0825   46.5164    1.1985 C   0  0  0  0  0  0  0  0  0  0  0  0
   -8.2404   46.6232    2.4459 O   0  0  0  0  0  0  0  0  0  0  0  0
   -8.0658   47.4834    0.3939 O   0  0  0  0  0  0  0  0  0  0  0  0
   -8.2419   45.8570    2.9853 H   0  0  0  0  0  0  0  0  0  0  0  0
  -12.2066   45.1939   -1.7585 C   0  0  0  0  0  0  0  0  0  0  0  0
  -13.8854   44.2642   -3.3891 C   0  0  0  0  0  0  0  0  0  0  0  0
  -11.8368   43.0293   -2.8575 C   0  0  0  0  0  0  0  0  0  0  0  0
  -12.8961   43.9474   -2.2909 C   0  0  0  0  0  0  0  0  0  0  0  0
  -11.6693   45.7135    0.5921 C   0  0  0  0  0  0  0  0  0  0  0  0
  -11.2956   47.9427    1.5132 C   0  0  0  0  0  0  0  0  0  0  0  0
  -11.4994   47.1389    0.4176 N   0  0  0  0  0  0  0  0  0  0  0  0
  -11.1061   47.5697    2.6586 O   0  0  0  0  0  0  0  0  0  0  0  0
  -11.5297   47.5326   -0.4843 H   0  0  0  0  0  0  0  0  0  0  0  0
  -11.3609   51.1656   -0.3029 C   0  0  0  0  0  0  0  0  0  0  0  0
  -11.3293   49.8088   -0.0740 C   0  0  0  0  0  0  0  0  0  0  0  0
  -11.3872   52.0152    0.7796 C   0  0  0  0  0  0  0  0  0  0  0  0
  -11.3547   50.2987    2.2524 C   0  0  0  0  0  0  0  0  0  0  0  0
  -11.3247   49.3799    1.2305 C   0  0  0  0  0  0  0  0  0  0  0  0
  -11.3870   51.6215    2.0562 N   0  0  0  0  0  0  0  0  0  0  0  0
 25 26  2  0  0  0
 25 27  1  0  0  0
 26 29  1  0  0  0
  3  4  1  0  0  0
  3  6  2  0  0  0
  4  7  2  0  0  0
 27 30  2  0  0  0
 28 29  2  0  0  0
 28 30  1  0  0  0
 29 21  1  0  0  0
  5  6  1  0  0  0
  5  8  2  0  0  0
  5 12  1  0  0  0
  6  2  1  0  0  0
  7  8  1  0  0  0
  7 10  1  0  0  0
  8 11  1  0  0  0
 21 22  1  0  0  0
 21 23  2  0  0  0
 12 13  1  0  0  0
 12 14  2  0  0  0
  9 10  1  0  0  0
  9 11  1  0  0  0
 17 19  1  0  0  0
 18 19  1  0  0  0
  2  1  1  0  0  0
 16 19  1  0  0  0
 16  1  1  0  0  0
 20  1  1  0  0  0
 20 22  1  0  0  0
 22 24  1  0  0  0
 13 15  1  0  0  0
M  END
> <minimizedAffinity>
-6.82259

$$$$
4CJP_4D2_A_1215


 30 32  0  0  0  0  0  0  0  0999 V2000
  -10.0320   44.4384   -1.7279 C   0  0  0  0  0  0  0  0  0  0  0  0
  -10.3072   45.3835   -0.5739 C   0  0  0  0  0  0  0  0  0  0  0  0
  -12.4182   46.5771   -1.0187 C   0  0  0  0  0  0  0  0  0  0  0  0
  -13.1904   47.6703   -1.3379 C   0  0  0  0  0  0  0  0  0  0  0  0
  -10.3845   47.8430   -1.2022 C   0  0  0  0  0  0  0  0  0  0  0  0
  -11.0351   46.6407   -0.9512 C   0  0  0  0  0  0  0  0  0  0  0  0
  -12.5361   48.8457   -1.5832 C   0  0  0  0  0  0  0  0  0  0  0  0
  -11.1789   48.9235   -1.5164 C   0  0  0  0  0  0  0  0  0  0  0  0
  -11.9909   50.8838   -1.6805 C   0  0  0  0  0  0  0  0  0  0  0  0
  -13.1307   50.0357   -1.8999 O   0  0  0  0  0  0  0  0  0  0  0  0
  -10.7361   50.1882   -1.7857 O   0  0  0  0  0  0  0  0  0  0  0  0
   -8.9059   48.0415   -1.1489 C   0  0  0  0  0  0  0  0  0  0  0  0
   -8.3687   48.6799   -2.0956 O   0  0  0  0  0  0  0  0  0  0  0  0
   -8.2818   47.5436   -0.1767 O   0  0  0  0  0  0  0  0  0  0  0  0
   -8.8976   49.0235   -2.7885 H   0  0  0  0  0  0  0  0  0  0  0  0
  -11.0363   43.3013   -1.7342 C   0  0  0  0  0  0  0  0  0  0  0  0
  -13.3996   43.5012   -2.5804 C   0  0  0  0  0  0  0  0  0  0  0  0
  -11.5214   44.3788   -3.8868 C   0  0  0  0  0  0  0  0  0  0  0  0
  -11.9512   43.2737   -2.9486 C   0  0  0  0  0  0  0  0  0  0  0  0
   -8.6376   43.8606   -1.6014 C   0  0  0  0  0  0  0  0  0  0  0  0
   -7.2280   43.3807    0.3326 C   0  0  0  0  0  0  0  0  0  0  0  0
   -7.9901   44.2769   -0.3773 N   0  0  0  0  0  0  0  0  0  0  0  0
   -6.9120   42.2582   -0.0241 O   0  0  0  0  0  0  0  0  0  0  0  0
   -8.0951   45.2006   -0.0531 H   0  0  0  0  0  0  0  0  0  0  0  0
   -6.0817   43.4390    3.8499 C   0  0  0  0  0  0  0  0  0  0  0  0
   -6.5035   42.9526    2.6335 C   0  0  0  0  0  0  0  0  0  0  0  0
   -5.9592   44.8009    4.0075 C   0  0  0  0  0  0  0  0  0  0  0  0
   -6.6286   45.2058    1.8851 C   0  0  0  0  0  0  0  0  0  0  0  0
   -6.7805   43.8615    1.6420 C   0  0  0  0  0  0  0  0  0  0  0  0
   -6.2191   45.7033    3.0573 N   0  0  0  0  0  0  0  0  0  0  0  0
 25 26  2  0  0  0
 25 27  1  0  0  0
 26 29  1  0  0  0
  3  4  1  0  0  0
  3  6  2  0  0  0
  4  7  2  0  0  0
 27 30  2  0  0  0
 28 29  2  0  0  0
 28 30  1  0  0  0
 29 21  1  0  0  0
  5  6  1  0  0  0
  5  8  2  0  0  0
  5 12  1  0  0  0
  6  2  1  0  0  0
  7  8  1  0  0  0
  7 10  1  0  0  0
  8 11  1  0  0  0
 21 22  1  0  0  0
 21 23  2  0  0  0
 12 13  1  0  0  0
 12 14  2  0  0  0
  9 10  1  0  0  0
  9 11  1  0  0  0
 17 19  1  0  0  0
 18 19  1  0  0  0
  2  1  1  0  0  0
 16 19  1  0  0  0
 16  1  1  0  0  0
 20  1  1  0  0  0
 20 22  1  0  0  0
 22 24  1  0  0  0
 13 15  1  0  0  0
M  END
> <minimizedAffinity>
-6.63704

$$$$
