4JN2_4CC_A_301


 40 43  0  0  0  0  0  0  0  0999 V2000
  -39.6041   53.7895    3.6518 N   0  0  0  0  0  0  0  0  0  0  0  0
  -39.0983   55.2649    5.6380 C   0  0  0  0  0  0  0  0  0  0  0  0
  -38.3010   57.0918    3.6555 C   0  0  0  0  0  0  0  0  0  0  0  0
  -39.5247   54.0154    2.3145 C   0  0  0  0  0  0  0  0  0  0  0  0
  -39.9944   52.5748    4.3620 C   0  0  0  0  0  0  0  0  0  0  0  0
  -38.2131   57.4146    5.0209 C   0  0  0  0  0  0  0  0  0  0  0  0
  -39.2012   54.9362    4.2914 C   0  0  0  0  0  0  0  0  0  0  0  0
  -38.8149   55.8348    3.2855 C   0  0  0  0  0  0  0  0  0  0  0  0
  -39.0422   55.2032    2.0923 N   0  0  0  0  0  0  0  0  0  0  0  0
  -38.6256   56.4995    5.9987 C   0  0  0  0  0  0  0  0  0  0  0  0
  -37.6050   58.6987    5.4582 C   0  0  0  0  0  0  0  0  0  0  0  0
  -36.8209   58.7296    6.5785 N   0  0  0  0  0  0  0  0  0  0  0  0
  -37.7933   59.6983    4.7848 O   0  0  0  0  0  0  0  0  0  0  0  0
  -35.8118   57.7604    6.7550 C   0  0  0  0  0  0  0  0  0  0  0  0
  -34.7586   57.5825    5.8453 C   0  0  0  0  0  0  0  0  0  0  0  0
  -33.8366   56.5633    6.0726 C   0  0  0  0  0  0  0  0  0  0  0  0
  -35.9179   56.9314    7.7922 N   0  0  0  0  0  0  0  0  0  0  0  0
  -35.0408   55.9705    8.0518 C   0  0  0  0  0  0  0  0  0  0  0  0
  -33.9725   55.7489    7.1960 C   0  0  0  0  0  0  0  0  0  0  0  0
  -36.4841   60.0660    7.1070 C   0  0  0  0  0  0  0  0  0  0  0  0
  -37.1768   60.3583    8.4431 C   0  0  0  0  0  0  0  0  0  0  0  0
  -36.2508   60.0527    9.6017 C   0  0  0  0  0  0  0  0  0  0  0  0
  -35.4677   60.9013    9.9945 O   0  0  0  0  0  0  0  0  0  0  0  0
  -36.2791   58.9581   10.1408 O   0  0  0  0  0  0  0  0  0  0  0  0
  -36.8794   58.3039    9.8416 H   0  0  0  0  0  0  0  0  0  0  0  0
  -39.8274   52.9973    1.2353 C   0  0  0  0  0  0  0  0  0  0  0  0
  -38.9401   53.2186    0.0772 N   0  0  0  0  0  0  0  0  0  0  0  0
  -39.3416   53.5313   -0.7656 H   0  0  0  0  0  0  0  0  0  0  0  0
  -36.9103   52.6414    1.3034 C   0  0  0  0  0  0  0  0  0  0  0  0
  -35.4353   52.9570   -1.0441 C   0  0  0  0  0  0  0  0  0  0  0  0
  -37.5522   53.0061    0.1153 C   0  0  0  0  0  0  0  0  0  0  0  0
  -36.8088   53.1635   -1.0621 C   0  0  0  0  0  0  0  0  0  0  0  0
  -35.5360   52.4502    1.3316 C   0  0  0  0  0  0  0  0  0  0  0  0
  -34.7942   52.5917    0.1530 C   0  0  0  0  0  0  0  0  0  0  0  0
  -33.3241   52.3533    0.1895 C   0  0  0  0  0  0  0  0  0  0  0  0
  -32.5798   52.6668   -0.8740 N   0  0  0  0  0  0  0  0  0  0  0  0
  -32.7813   51.8479    1.2866 N   0  0  0  0  0  0  0  0  0  0  0  0
  -31.6076   52.5122   -0.8573 H   0  0  0  0  0  0  0  0  0  0  0  0
  -33.0032   53.0526   -1.6747 H   0  0  0  0  0  0  0  0  0  0  0  0
  -33.3495   51.6242    2.0588 H   0  0  0  0  0  0  0  0  0  0  0  0
 23 22  2  0  0  0
 24 22  1  0  0  0
 22 21  1  0  0  0
 21 20  1  0  0  0
 20 12  1  0  0  0
 15 16  2  0  0  0
 15 14  1  0  0  0
 16 19  1  0  0  0
 13 11  2  0  0  0
 12 14  1  0  0  0
 12 11  1  0  0  0
 14 17  2  0  0  0
 11  6  1  0  0  0
 19 18  2  0  0  0
 17 18  1  0  0  0
  3  6  2  0  0  0
  3  8  1  0  0  0
  6 10  1  0  0  0
  8  9  1  0  0  0
  8  7  2  0  0  0
 10  2  2  0  0  0
  9  4  2  0  0  0
 29 33  2  0  0  0
 29 31  1  0  0  0
 33 34  1  0  0  0
  7  2  1  0  0  0
  7  1  1  0  0  0
 27 31  1  0  0  0
 27 26  1  0  0  0
 31 32  2  0  0  0
  4  1  1  0  0  0
  4 26  1  0  0  0
 37 35  2  0  0  0
 34 35  1  0  0  0
 34 30  2  0  0  0
 35 36  1  0  0  0
  1  5  1  0  0  0
 32 30  1  0  0  0
 27 28  1  0  0  0
 24 25  1  0  0  0
 36 38  1  0  0  0
 36 39  1  0  0  0
 37 40  1  0  0  0
M  END
> <minimizedAffinity>
-9.31123

$$$$
4JN2_4CC_A_301


 40 43  0  0  0  0  0  0  0  0999 V2000
  -39.5930   53.8843    3.7235 N   0  0  0  0  0  0  0  0  0  0  0  0
  -39.1584   55.5630    5.5595 C   0  0  0  0  0  0  0  0  0  0  0  0
  -38.6142   57.2816    3.4022 C   0  0  0  0  0  0  0  0  0  0  0  0
  -39.5851   54.0025    2.3701 C   0  0  0  0  0  0  0  0  0  0  0  0
  -39.8382   52.7030    4.5463 C   0  0  0  0  0  0  0  0  0  0  0  0
  -38.5074   57.7255    4.7318 C   0  0  0  0  0  0  0  0  0  0  0  0
  -39.2789   55.1133    4.2498 C   0  0  0  0  0  0  0  0  0  0  0  0
  -39.0181   55.9555    3.1583 C   0  0  0  0  0  0  0  0  0  0  0  0
  -39.2276   55.2069    2.0314 N   0  0  0  0  0  0  0  0  0  0  0  0
  -38.7936   56.8621    5.7977 C   0  0  0  0  0  0  0  0  0  0  0  0
  -38.0098   59.0929    5.0363 C   0  0  0  0  0  0  0  0  0  0  0  0
  -37.2817   59.3106    6.1734 N   0  0  0  0  0  0  0  0  0  0  0  0
  -38.2357   59.9914    4.2427 O   0  0  0  0  0  0  0  0  0  0  0  0
  -36.2173   58.4455    6.5009 C   0  0  0  0  0  0  0  0  0  0  0  0
  -35.4247   57.8118    5.5321 C   0  0  0  0  0  0  0  0  0  0  0  0
  -34.4290   56.9303    5.9471 C   0  0  0  0  0  0  0  0  0  0  0  0
  -36.0161   58.1633    7.7871 N   0  0  0  0  0  0  0  0  0  0  0  0
  -35.0583   57.3514    8.2155 C   0  0  0  0  0  0  0  0  0  0  0  0
  -34.2353   56.7010    7.3086 C   0  0  0  0  0  0  0  0  0  0  0  0
  -37.0622   60.7203    6.5521 C   0  0  0  0  0  0  0  0  0  0  0  0
  -35.8278   61.3235    5.8717 C   0  0  0  0  0  0  0  0  0  0  0  0
  -36.2054   62.5577    5.0797 C   0  0  0  0  0  0  0  0  0  0  0  0
  -36.1045   63.6615    5.5889 O   0  0  0  0  0  0  0  0  0  0  0  0
  -36.6171   62.4535    3.9355 O   0  0  0  0  0  0  0  0  0  0  0  0
  -36.6958   61.6072    3.5412 H   0  0  0  0  0  0  0  0  0  0  0  0
  -39.8282   52.8731    1.3913 C   0  0  0  0  0  0  0  0  0  0  0  0
  -38.9914   53.0640    0.1909 N   0  0  0  0  0  0  0  0  0  0  0  0
  -39.4344   53.3132   -0.6522 H   0  0  0  0  0  0  0  0  0  0  0  0
  -36.9006   52.6155    1.3674 C   0  0  0  0  0  0  0  0  0  0  0  0
  -35.5173   52.8996   -1.0392 C   0  0  0  0  0  0  0  0  0  0  0  0
  -37.5954   52.9086    0.1894 C   0  0  0  0  0  0  0  0  0  0  0  0
  -36.8980   53.0503   -1.0178 C   0  0  0  0  0  0  0  0  0  0  0  0
  -35.5194   52.4805    1.3557 C   0  0  0  0  0  0  0  0  0  0  0  0
  -34.8230   52.6062    0.1479 C   0  0  0  0  0  0  0  0  0  0  0  0
  -33.3439   52.4282    0.1429 C   0  0  0  0  0  0  0  0  0  0  0  0
  -32.6164   52.9906   -0.8255 N   0  0  0  0  0  0  0  0  0  0  0  0
  -32.7771   51.7260    1.1120 N   0  0  0  0  0  0  0  0  0  0  0  0
  -31.6385   52.8774   -0.8355 H   0  0  0  0  0  0  0  0  0  0  0  0
  -33.0581   53.5185   -1.5295 H   0  0  0  0  0  0  0  0  0  0  0  0
  -33.3331   51.3201    1.8158 H   0  0  0  0  0  0  0  0  0  0  0  0
 23 22  2  0  0  0
 24 22  1  0  0  0
 22 21  1  0  0  0
 21 20  1  0  0  0
 20 12  1  0  0  0
 15 16  2  0  0  0
 15 14  1  0  0  0
 16 19  1  0  0  0
 13 11  2  0  0  0
 12 14  1  0  0  0
 12 11  1  0  0  0
 14 17  2  0  0  0
 11  6  1  0  0  0
 19 18  2  0  0  0
 17 18  1  0  0  0
  3  6  2  0  0  0
  3  8  1  0  0  0
  6 10  1  0  0  0
  8  9  1  0  0  0
  8  7  2  0  0  0
 10  2  2  0  0  0
  9  4  2  0  0  0
 29 33  2  0  0  0
 29 31  1  0  0  0
 33 34  1  0  0  0
  7  2  1  0  0  0
  7  1  1  0  0  0
 27 31  1  0  0  0
 27 26  1  0  0  0
 31 32  2  0  0  0
  4  1  1  0  0  0
  4 26  1  0  0  0
 37 35  2  0  0  0
 34 35  1  0  0  0
 34 30  2  0  0  0
 35 36  1  0  0  0
  1  5  1  0  0  0
 32 30  1  0  0  0
 27 28  1  0  0  0
 24 25  1  0  0  0
 36 38  1  0  0  0
 36 39  1  0  0  0
 37 40  1  0  0  0
M  END
> <minimizedAffinity>
-9.03112

$$$$
4JN2_4CC_A_301


 40 43  0  0  0  0  0  0  0  0999 V2000
  -39.5015   54.0215    3.7667 N   0  0  0  0  0  0  0  0  0  0  0  0
  -38.8644   55.6655    5.5749 C   0  0  0  0  0  0  0  0  0  0  0  0
  -38.1499   57.2824    3.3889 C   0  0  0  0  0  0  0  0  0  0  0  0
  -39.4924   54.1197    2.4118 C   0  0  0  0  0  0  0  0  0  0  0  0
  -39.8704   52.8867    4.6084 C   0  0  0  0  0  0  0  0  0  0  0  0
  -37.9819   57.7296    4.7111 C   0  0  0  0  0  0  0  0  0  0  0  0
  -39.0465   55.2145    4.2728 C   0  0  0  0  0  0  0  0  0  0  0  0
  -38.7025   56.0070    3.1673 C   0  0  0  0  0  0  0  0  0  0  0  0
  -39.0048   55.2714    2.0529 N   0  0  0  0  0  0  0  0  0  0  0  0
  -38.3538   56.9185    5.7915 C   0  0  0  0  0  0  0  0  0  0  0  0
  -37.3311   59.0364    4.9920 C   0  0  0  0  0  0  0  0  0  0  0  0
  -37.9015   60.1900    4.5289 N   0  0  0  0  0  0  0  0  0  0  0  0
  -36.3122   59.0541    5.6625 O   0  0  0  0  0  0  0  0  0  0  0  0
  -39.2814   60.4136    4.7146 C   0  0  0  0  0  0  0  0  0  0  0  0
  -39.8604   60.5967    5.9793 C   0  0  0  0  0  0  0  0  0  0  0  0
  -41.2411   60.7571    6.0718 C   0  0  0  0  0  0  0  0  0  0  0  0
  -40.0704   60.3676    3.6423 N   0  0  0  0  0  0  0  0  0  0  0  0
  -41.3841   60.5456    3.6941 C   0  0  0  0  0  0  0  0  0  0  0  0
  -42.0160   60.7400    4.9129 C   0  0  0  0  0  0  0  0  0  0  0  0
  -37.0700   61.4075    4.6000 C   0  0  0  0  0  0  0  0  0  0  0  0
  -37.7456   62.6166    3.9426 C   0  0  0  0  0  0  0  0  0  0  0  0
  -37.1783   62.8575    2.5594 C   0  0  0  0  0  0  0  0  0  0  0  0
  -37.1031   61.9358    1.7640 O   0  0  0  0  0  0  0  0  0  0  0  0
  -36.7889   63.9686    2.2380 O   0  0  0  0  0  0  0  0  0  0  0  0
  -36.8452   64.6789    2.8466 H   0  0  0  0  0  0  0  0  0  0  0  0
  -39.8697   53.0115    1.4513 C   0  0  0  0  0  0  0  0  0  0  0  0
  -39.0570   53.1164    0.2241 N   0  0  0  0  0  0  0  0  0  0  0  0
  -39.5153   53.3176   -0.6237 H   0  0  0  0  0  0  0  0  0  0  0  0
  -36.9378   53.0727   -0.9857 C   0  0  0  0  0  0  0  0  0  0  0  0
  -35.6207   52.4665    1.3983 C   0  0  0  0  0  0  0  0  0  0  0  0
  -37.6631   52.9441    0.2033 C   0  0  0  0  0  0  0  0  0  0  0  0
  -36.9988   52.6400    1.3991 C   0  0  0  0  0  0  0  0  0  0  0  0
  -35.5629   52.8840   -0.9961 C   0  0  0  0  0  0  0  0  0  0  0  0
  -34.8958   52.5956    0.2003 C   0  0  0  0  0  0  0  0  0  0  0  0
  -33.4158   52.4260    0.1817 C   0  0  0  0  0  0  0  0  0  0  0  0
  -32.8196   51.7391    1.1593 N   0  0  0  0  0  0  0  0  0  0  0  0
  -32.7208   52.9489   -0.8170 N   0  0  0  0  0  0  0  0  0  0  0  0
  -31.8420   51.6228    1.1538 H   0  0  0  0  0  0  0  0  0  0  0  0
  -33.3576   51.3489    1.8857 H   0  0  0  0  0  0  0  0  0  0  0  0
  -33.1815   53.4516   -1.5271 H   0  0  0  0  0  0  0  0  0  0  0  0
 23 22  2  0  0  0
 24 22  1  0  0  0
 22 21  1  0  0  0
 21 20  1  0  0  0
 20 12  1  0  0  0
 15 16  2  0  0  0
 15 14  1  0  0  0
 16 19  1  0  0  0
 13 11  2  0  0  0
 12 14  1  0  0  0
 12 11  1  0  0  0
 14 17  2  0  0  0
 11  6  1  0  0  0
 19 18  2  0  0  0
 17 18  1  0  0  0
  3  6  2  0  0  0
  3  8  1  0  0  0
  6 10  1  0  0  0
  8  9  1  0  0  0
  8  7  2  0  0  0
 10  2  2  0  0  0
  9  4  2  0  0  0
 29 33  2  0  0  0
 29 31  1  0  0  0
 33 34  1  0  0  0
  7  2  1  0  0  0
  7  1  1  0  0  0
 27 31  1  0  0  0
 27 26  1  0  0  0
 31 32  2  0  0  0
  4  1  1  0  0  0
  4 26  1  0  0  0
 37 35  2  0  0  0
 34 35  1  0  0  0
 34 30  2  0  0  0
 35 36  1  0  0  0
  1  5  1  0  0  0
 32 30  1  0  0  0
 27 28  1  0  0  0
 24 25  1  0  0  0
 36 38  1  0  0  0
 36 39  1  0  0  0
 37 40  1  0  0  0
M  END
> <minimizedAffinity>
-8.88510

$$$$
4JN2_4CC_A_301


 40 43  0  0  0  0  0  0  0  0999 V2000
  -40.1959   53.4261    5.5086 N   0  0  0  0  0  0  0  0  0  0  0  0
  -40.0388   54.6319    7.7221 C   0  0  0  0  0  0  0  0  0  0  0  0
  -38.5758   56.5040    6.2191 C   0  0  0  0  0  0  0  0  0  0  0  0
  -39.7620   53.7591    4.2651 C   0  0  0  0  0  0  0  0  0  0  0  0
  -40.8830   52.2172    5.9545 C   0  0  0  0  0  0  0  0  0  0  0  0
  -38.7947   56.6866    7.5958 C   0  0  0  0  0  0  0  0  0  0  0  0
  -39.8398   54.4438    6.3593 C   0  0  0  0  0  0  0  0  0  0  0  0
  -39.1181   55.3682    5.5890 C   0  0  0  0  0  0  0  0  0  0  0  0
  -39.1105   54.8845    4.3083 N   0  0  0  0  0  0  0  0  0  0  0  0
  -39.5363   55.7521    8.3307 C   0  0  0  0  0  0  0  0  0  0  0  0
  -38.1754   57.8301    8.3162 C   0  0  0  0  0  0  0  0  0  0  0  0
  -36.9023   57.7144    8.8024 N   0  0  0  0  0  0  0  0  0  0  0  0
  -38.8091   58.8662    8.4304 O   0  0  0  0  0  0  0  0  0  0  0  0
  -35.8816   57.1963    7.9787 C   0  0  0  0  0  0  0  0  0  0  0  0
  -35.3023   55.9353    8.1848 C   0  0  0  0  0  0  0  0  0  0  0  0
  -34.2612   55.5277    7.3538 C   0  0  0  0  0  0  0  0  0  0  0  0
  -35.3998   57.9800    7.0153 N   0  0  0  0  0  0  0  0  0  0  0  0
  -34.4296   57.6098    6.1895 C   0  0  0  0  0  0  0  0  0  0  0  0
  -33.8218   56.3720    6.3351 C   0  0  0  0  0  0  0  0  0  0  0  0
  -36.4585   58.7675    9.7366 C   0  0  0  0  0  0  0  0  0  0  0  0
  -35.8022   58.1925   10.9973 C   0  0  0  0  0  0  0  0  0  0  0  0
  -34.3878   58.7124   11.1465 C   0  0  0  0  0  0  0  0  0  0  0  0
  -34.0479   59.7270   10.5609 O   0  0  0  0  0  0  0  0  0  0  0  0
  -33.5830   58.1173   11.8448 O   0  0  0  0  0  0  0  0  0  0  0  0
  -33.8407   57.3376   12.2961 H   0  0  0  0  0  0  0  0  0  0  0  0
  -39.8983   52.8942    3.0296 C   0  0  0  0  0  0  0  0  0  0  0  0
  -39.2692   53.5675    1.8771 N   0  0  0  0  0  0  0  0  0  0  0  0
  -39.7600   54.3003    1.4395 H   0  0  0  0  0  0  0  0  0  0  0  0
  -37.7761   53.1385   -0.0053 C   0  0  0  0  0  0  0  0  0  0  0  0
  -35.7114   52.5962    1.7915 C   0  0  0  0  0  0  0  0  0  0  0  0
  -38.0063   53.2167    1.3721 C   0  0  0  0  0  0  0  0  0  0  0  0
  -36.9673   52.9442    2.2721 C   0  0  0  0  0  0  0  0  0  0  0  0
  -36.5281   52.7749   -0.4915 C   0  0  0  0  0  0  0  0  0  0  0  0
  -35.4850   52.5176    0.4059 C   0  0  0  0  0  0  0  0  0  0  0  0
  -34.1416   52.1587   -0.1289 C   0  0  0  0  0  0  0  0  0  0  0  0
  -33.1386   51.9174    0.7190 N   0  0  0  0  0  0  0  0  0  0  0  0
  -33.9734   52.0705   -1.4395 N   0  0  0  0  0  0  0  0  0  0  0  0
  -32.2480   51.6796    0.3731 H   0  0  0  0  0  0  0  0  0  0  0  0
  -33.2896   51.9772    1.6900 H   0  0  0  0  0  0  0  0  0  0  0  0
  -34.7272   52.2529   -2.0459 H   0  0  0  0  0  0  0  0  0  0  0  0
 23 22  2  0  0  0
 24 22  1  0  0  0
 22 21  1  0  0  0
 21 20  1  0  0  0
 20 12  1  0  0  0
 15 16  2  0  0  0
 15 14  1  0  0  0
 16 19  1  0  0  0
 13 11  2  0  0  0
 12 14  1  0  0  0
 12 11  1  0  0  0
 14 17  2  0  0  0
 11  6  1  0  0  0
 19 18  2  0  0  0
 17 18  1  0  0  0
  3  6  2  0  0  0
  3  8  1  0  0  0
  6 10  1  0  0  0
  8  9  1  0  0  0
  8  7  2  0  0  0
 10  2  2  0  0  0
  9  4  2  0  0  0
 29 33  2  0  0  0
 29 31  1  0  0  0
 33 34  1  0  0  0
  7  2  1  0  0  0
  7  1  1  0  0  0
 27 31  1  0  0  0
 27 26  1  0  0  0
 31 32  2  0  0  0
  4  1  1  0  0  0
  4 26  1  0  0  0
 37 35  2  0  0  0
 34 35  1  0  0  0
 34 30  2  0  0  0
 35 36  1  0  0  0
  1  5  1  0  0  0
 32 30  1  0  0  0
 27 28  1  0  0  0
 24 25  1  0  0  0
 36 38  1  0  0  0
 36 39  1  0  0  0
 37 40  1  0  0  0
M  END
> <minimizedAffinity>
-8.52719

$$$$
4JN2_4CC_A_301


 40 43  0  0  0  0  0  0  0  0999 V2000
  -38.0084   56.4112    4.1040 N   0  0  0  0  0  0  0  0  0  0  0  0
  -37.4344   58.8624    4.3046 C   0  0  0  0  0  0  0  0  0  0  0  0
  -39.7741   59.1925    2.7812 C   0  0  0  0  0  0  0  0  0  0  0  0
  -39.0657   55.7739    3.5370 C   0  0  0  0  0  0  0  0  0  0  0  0
  -36.8357   55.8463    4.7659 C   0  0  0  0  0  0  0  0  0  0  0  0
  -39.0054   60.2984    3.1842 C   0  0  0  0  0  0  0  0  0  0  0  0
  -38.1905   57.7604    3.9226 C   0  0  0  0  0  0  0  0  0  0  0  0
  -39.3645   57.9025    3.1675 C   0  0  0  0  0  0  0  0  0  0  0  0
  -39.8527   56.6393    2.9672 N   0  0  0  0  0  0  0  0  0  0  0  0
  -37.8480   60.1208    3.9540 C   0  0  0  0  0  0  0  0  0  0  0  0
  -39.3578   61.6706    2.7337 C   0  0  0  0  0  0  0  0  0  0  0  0
  -40.3850   62.3394    3.3405 N   0  0  0  0  0  0  0  0  0  0  0  0
  -38.6969   62.1869    1.8478 O   0  0  0  0  0  0  0  0  0  0  0  0
  -40.4617   62.3783    4.7481 C   0  0  0  0  0  0  0  0  0  0  0  0
  -41.3456   61.5763    5.4856 C   0  0  0  0  0  0  0  0  0  0  0  0
  -41.3915   61.7211    6.8704 C   0  0  0  0  0  0  0  0  0  0  0  0
  -39.7146   63.2759    5.3887 N   0  0  0  0  0  0  0  0  0  0  0  0
  -39.7142   63.4179    6.7078 C   0  0  0  0  0  0  0  0  0  0  0  0
  -40.5587   62.6490    7.4942 C   0  0  0  0  0  0  0  0  0  0  0  0
  -40.8571   63.5659    2.6685 C   0  0  0  0  0  0  0  0  0  0  0  0
  -42.3276   63.4717    2.2447 C   0  0  0  0  0  0  0  0  0  0  0  0
  -42.6568   62.0721    1.7693 C   0  0  0  0  0  0  0  0  0  0  0  0
  -43.2758   61.3129    2.4961 O   0  0  0  0  0  0  0  0  0  0  0  0
  -42.2997   61.6969    0.6643 O   0  0  0  0  0  0  0  0  0  0  0  0
  -41.8241   62.2775    0.1034 H   0  0  0  0  0  0  0  0  0  0  0  0
  -39.2446   54.2722    3.4612 C   0  0  0  0  0  0  0  0  0  0  0  0
  -39.1153   53.8241    2.0612 N   0  0  0  0  0  0  0  0  0  0  0  0
  -39.9192   53.8303    1.4929 H   0  0  0  0  0  0  0  0  0  0  0  0
  -37.7401   53.3129    0.1108 C   0  0  0  0  0  0  0  0  0  0  0  0
  -35.6452   52.5977    1.8095 C   0  0  0  0  0  0  0  0  0  0  0  0
  -37.9044   53.3891    1.4977 C   0  0  0  0  0  0  0  0  0  0  0  0
  -36.8504   53.0297    2.3483 C   0  0  0  0  0  0  0  0  0  0  0  0
  -36.5442   52.8660   -0.4334 C   0  0  0  0  0  0  0  0  0  0  0  0
  -35.4850   52.5215    0.4146 C   0  0  0  0  0  0  0  0  0  0  0  0
  -34.1958   52.0730   -0.1823 C   0  0  0  0  0  0  0  0  0  0  0  0
  -33.1701   51.7705    0.6174 N   0  0  0  0  0  0  0  0  0  0  0  0
  -34.0984   51.9680   -1.4988 N   0  0  0  0  0  0  0  0  0  0  0  0
  -32.3150   51.4734    0.2303 H   0  0  0  0  0  0  0  0  0  0  0  0
  -33.2689   51.8446    1.5942 H   0  0  0  0  0  0  0  0  0  0  0  0
  -34.8677   52.1965   -2.0691 H   0  0  0  0  0  0  0  0  0  0  0  0
 23 22  2  0  0  0
 24 22  1  0  0  0
 22 21  1  0  0  0
 21 20  1  0  0  0
 20 12  1  0  0  0
 15 16  2  0  0  0
 15 14  1  0  0  0
 16 19  1  0  0  0
 13 11  2  0  0  0
 12 14  1  0  0  0
 12 11  1  0  0  0
 14 17  2  0  0  0
 11  6  1  0  0  0
 19 18  2  0  0  0
 17 18  1  0  0  0
  3  6  2  0  0  0
  3  8  1  0  0  0
  6 10  1  0  0  0
  8  9  1  0  0  0
  8  7  2  0  0  0
 10  2  2  0  0  0
  9  4  2  0  0  0
 29 33  2  0  0  0
 29 31  1  0  0  0
 33 34  1  0  0  0
  7  2  1  0  0  0
  7  1  1  0  0  0
 27 31  1  0  0  0
 27 26  1  0  0  0
 31 32  2  0  0  0
  4  1  1  0  0  0
  4 26  1  0  0  0
 37 35  2  0  0  0
 34 35  1  0  0  0
 34 30  2  0  0  0
 35 36  1  0  0  0
  1  5  1  0  0  0
 32 30  1  0  0  0
 27 28  1  0  0  0
 24 25  1  0  0  0
 36 38  1  0  0  0
 36 39  1  0  0  0
 37 40  1  0  0  0
M  END
> <minimizedAffinity>
-8.18630

$$$$
4JN2_4CC_A_301


 40 43  0  0  0  0  0  0  0  0999 V2000
  -39.3951   55.3781    5.4860 N   0  0  0  0  0  0  0  0  0  0  0  0
  -38.9969   57.4991    6.7976 C   0  0  0  0  0  0  0  0  0  0  0  0
  -37.7319   58.3308    4.4287 C   0  0  0  0  0  0  0  0  0  0  0  0
  -39.1091   55.0427    4.2010 C   0  0  0  0  0  0  0  0  0  0  0  0
  -40.0159   54.5734    6.5346 C   0  0  0  0  0  0  0  0  0  0  0  0
  -37.7937   59.1703    5.5547 C   0  0  0  0  0  0  0  0  0  0  0  0
  -38.9532   56.6626    5.6885 C   0  0  0  0  0  0  0  0  0  0  0  0
  -38.3325   57.0596    4.4944 C   0  0  0  0  0  0  0  0  0  0  0  0
  -38.4669   56.0143    3.6206 N   0  0  0  0  0  0  0  0  0  0  0  0
  -38.4382   58.7483    6.7252 C   0  0  0  0  0  0  0  0  0  0  0  0
  -37.1065   60.4886    5.5555 C   0  0  0  0  0  0  0  0  0  0  0  0
  -36.9749   61.1840    4.3851 N   0  0  0  0  0  0  0  0  0  0  0  0
  -36.7007   60.9398    6.6137 O   0  0  0  0  0  0  0  0  0  0  0  0
  -38.0894   61.3455    3.5364 C   0  0  0  0  0  0  0  0  0  0  0  0
  -39.3587   61.7142    4.0069 C   0  0  0  0  0  0  0  0  0  0  0  0
  -40.4150   61.7969    3.1027 C   0  0  0  0  0  0  0  0  0  0  0  0
  -37.9372   61.0554    2.2452 N   0  0  0  0  0  0  0  0  0  0  0  0
  -38.9157   61.1526    1.3546 C   0  0  0  0  0  0  0  0  0  0  0  0
  -40.1914   61.5206    1.7545 C   0  0  0  0  0  0  0  0  0  0  0  0
  -36.0507   62.3347    4.4061 C   0  0  0  0  0  0  0  0  0  0  0  0
  -36.6936   63.6116    3.8522 C   0  0  0  0  0  0  0  0  0  0  0  0
  -35.8827   64.1586    2.6962 C   0  0  0  0  0  0  0  0  0  0  0  0
  -36.2385   65.1807    2.1336 O   0  0  0  0  0  0  0  0  0  0  0  0
  -34.8777   63.5778    2.3193 O   0  0  0  0  0  0  0  0  0  0  0  0
  -34.6014   62.7924    2.7492 H   0  0  0  0  0  0  0  0  0  0  0  0
  -39.3779   53.6938    3.5677 C   0  0  0  0  0  0  0  0  0  0  0  0
  -39.0956   53.7566    2.1207 N   0  0  0  0  0  0  0  0  0  0  0  0
  -39.7905   54.1187    1.5247 H   0  0  0  0  0  0  0  0  0  0  0  0
  -37.7283   53.2564    0.1618 C   0  0  0  0  0  0  0  0  0  0  0  0
  -35.6246   52.5372    1.8480 C   0  0  0  0  0  0  0  0  0  0  0  0
  -37.8865   53.3262    1.5498 C   0  0  0  0  0  0  0  0  0  0  0  0
  -36.8281   52.9647    2.3941 C   0  0  0  0  0  0  0  0  0  0  0  0
  -36.5341   52.8140   -0.3897 C   0  0  0  0  0  0  0  0  0  0  0  0
  -35.4706   52.4675    0.4520 C   0  0  0  0  0  0  0  0  0  0  0  0
  -34.1834   52.0238   -0.1527 C   0  0  0  0  0  0  0  0  0  0  0  0
  -33.1043   51.8881    0.6222 N   0  0  0  0  0  0  0  0  0  0  0  0
  -34.1397   51.7568   -1.4491 N   0  0  0  0  0  0  0  0  0  0  0  0
  -32.2502   51.5953    0.2298 H   0  0  0  0  0  0  0  0  0  0  0  0
  -33.1629   52.0808    1.5858 H   0  0  0  0  0  0  0  0  0  0  0  0
  -34.9477   51.8640   -2.0012 H   0  0  0  0  0  0  0  0  0  0  0  0
 23 22  2  0  0  0
 24 22  1  0  0  0
 22 21  1  0  0  0
 21 20  1  0  0  0
 20 12  1  0  0  0
 15 16  2  0  0  0
 15 14  1  0  0  0
 16 19  1  0  0  0
 13 11  2  0  0  0
 12 14  1  0  0  0
 12 11  1  0  0  0
 14 17  2  0  0  0
 11  6  1  0  0  0
 19 18  2  0  0  0
 17 18  1  0  0  0
  3  6  2  0  0  0
  3  8  1  0  0  0
  6 10  1  0  0  0
  8  9  1  0  0  0
  8  7  2  0  0  0
 10  2  2  0  0  0
  9  4  2  0  0  0
 29 33  2  0  0  0
 29 31  1  0  0  0
 33 34  1  0  0  0
  7  2  1  0  0  0
  7  1  1  0  0  0
 27 31  1  0  0  0
 27 26  1  0  0  0
 31 32  2  0  0  0
  4  1  1  0  0  0
  4 26  1  0  0  0
 37 35  2  0  0  0
 34 35  1  0  0  0
 34 30  2  0  0  0
 35 36  1  0  0  0
  1  5  1  0  0  0
 32 30  1  0  0  0
 27 28  1  0  0  0
 24 25  1  0  0  0
 36 38  1  0  0  0
 36 39  1  0  0  0
 37 40  1  0  0  0
M  END
> <minimizedAffinity>
-8.06295

$$$$
4JN2_4CC_A_301


 40 43  0  0  0  0  0  0  0  0999 V2000
  -38.1223   56.4915    4.4375 N   0  0  0  0  0  0  0  0  0  0  0  0
  -37.2973   58.8489    4.8111 C   0  0  0  0  0  0  0  0  0  0  0  0
  -38.8175   59.3897    2.5088 C   0  0  0  0  0  0  0  0  0  0  0  0
  -38.9750   55.9671    3.5191 C   0  0  0  0  0  0  0  0  0  0  0  0
  -37.3835   55.8187    5.5024 C   0  0  0  0  0  0  0  0  0  0  0  0
  -38.0958   60.4053    3.1602 C   0  0  0  0  0  0  0  0  0  0  0  0
  -38.0147   57.8370    4.1840 C   0  0  0  0  0  0  0  0  0  0  0  0
  -38.7846   58.0858    3.0376 C   0  0  0  0  0  0  0  0  0  0  0  0
  -39.3496   56.8904    2.6823 N   0  0  0  0  0  0  0  0  0  0  0  0
  -37.3521   60.1248    4.3142 C   0  0  0  0  0  0  0  0  0  0  0  0
  -38.0399   61.7782    2.5927 C   0  0  0  0  0  0  0  0  0  0  0  0
  -38.5179   62.8321    3.3218 N   0  0  0  0  0  0  0  0  0  0  0  0
  -37.5351   61.9406    1.4941 O   0  0  0  0  0  0  0  0  0  0  0  0
  -38.1483   62.9732    4.6754 C   0  0  0  0  0  0  0  0  0  0  0  0
  -39.0363   62.7394    5.7362 C   0  0  0  0  0  0  0  0  0  0  0  0
  -38.5997   62.9567    7.0410 C   0  0  0  0  0  0  0  0  0  0  0  0
  -36.9244   63.4253    4.9437 N   0  0  0  0  0  0  0  0  0  0  0  0
  -36.4696   63.6145    6.1756 C   0  0  0  0  0  0  0  0  0  0  0  0
  -37.2950   63.3929    7.2676 C   0  0  0  0  0  0  0  0  0  0  0  0
  -38.6872   64.1074    2.5982 C   0  0  0  0  0  0  0  0  0  0  0  0
  -39.8050   64.9729    3.1918 C   0  0  0  0  0  0  0  0  0  0  0  0
  -41.0921   64.7869    2.4160 C   0  0  0  0  0  0  0  0  0  0  0  0
  -41.6595   65.7552    1.9384 O   0  0  0  0  0  0  0  0  0  0  0  0
  -41.5691   63.6728    2.2718 O   0  0  0  0  0  0  0  0  0  0  0  0
  -41.1358   62.9268    2.6374 H   0  0  0  0  0  0  0  0  0  0  0  0
  -39.3400   54.5024    3.3994 C   0  0  0  0  0  0  0  0  0  0  0  0
  -39.1632   54.0562    2.0040 N   0  0  0  0  0  0  0  0  0  0  0  0
  -39.9289   54.1300    1.3896 H   0  0  0  0  0  0  0  0  0  0  0  0
  -37.7384   53.4078    0.1315 C   0  0  0  0  0  0  0  0  0  0  0  0
  -35.7701   52.6098    1.9412 C   0  0  0  0  0  0  0  0  0  0  0  0
  -37.9586   53.5317    1.5072 C   0  0  0  0  0  0  0  0  0  0  0  0
  -36.9681   53.1304    2.4136 C   0  0  0  0  0  0  0  0  0  0  0  0
  -36.5504   52.8728   -0.3464 C   0  0  0  0  0  0  0  0  0  0  0  0
  -35.5537   52.4861    0.5572 C   0  0  0  0  0  0  0  0  0  0  0  0
  -34.2704   51.9422    0.0310 C   0  0  0  0  0  0  0  0  0  0  0  0
  -33.2239   51.8151    0.8507 N   0  0  0  0  0  0  0  0  0  0  0  0
  -34.1987   51.5796   -1.2407 N   0  0  0  0  0  0  0  0  0  0  0  0
  -32.3726   51.4565    0.5102 H   0  0  0  0  0  0  0  0  0  0  0  0
  -33.3037   52.0800    1.7955 H   0  0  0  0  0  0  0  0  0  0  0  0
  -34.9829   51.6824   -1.8268 H   0  0  0  0  0  0  0  0  0  0  0  0
 23 22  2  0  0  0
 24 22  1  0  0  0
 22 21  1  0  0  0
 21 20  1  0  0  0
 20 12  1  0  0  0
 15 16  2  0  0  0
 15 14  1  0  0  0
 16 19  1  0  0  0
 13 11  2  0  0  0
 12 14  1  0  0  0
 12 11  1  0  0  0
 14 17  2  0  0  0
 11  6  1  0  0  0
 19 18  2  0  0  0
 17 18  1  0  0  0
  3  6  2  0  0  0
  3  8  1  0  0  0
  6 10  1  0  0  0
  8  9  1  0  0  0
  8  7  2  0  0  0
 10  2  2  0  0  0
  9  4  2  0  0  0
 29 33  2  0  0  0
 29 31  1  0  0  0
 33 34  1  0  0  0
  7  2  1  0  0  0
  7  1  1  0  0  0
 27 31  1  0  0  0
 27 26  1  0  0  0
 31 32  2  0  0  0
  4  1  1  0  0  0
  4 26  1  0  0  0
 37 35  2  0  0  0
 34 35  1  0  0  0
 34 30  2  0  0  0
 35 36  1  0  0  0
  1  5  1  0  0  0
 32 30  1  0  0  0
 27 28  1  0  0  0
 24 25  1  0  0  0
 36 38  1  0  0  0
 36 39  1  0  0  0
 37 40  1  0  0  0
M  END
> <minimizedAffinity>
-7.80990

$$$$
4JN2_4CC_A_301


 40 43  0  0  0  0  0  0  0  0999 V2000
  -37.2077   57.2339    6.3257 N   0  0  0  0  0  0  0  0  0  0  0  0
  -35.8941   59.3451    5.8838 C   0  0  0  0  0  0  0  0  0  0  0  0
  -38.4358   60.5443    5.9565 C   0  0  0  0  0  0  0  0  0  0  0  0
  -38.5316   57.0223    6.5450 C   0  0  0  0  0  0  0  0  0  0  0  0
  -36.1171   56.2657    6.2516 C   0  0  0  0  0  0  0  0  0  0  0  0
  -37.2781   61.3053    5.7175 C   0  0  0  0  0  0  0  0  0  0  0  0
  -37.0289   58.5818    6.1321 C   0  0  0  0  0  0  0  0  0  0  0  0
  -38.3063   59.1605    6.1788 C   0  0  0  0  0  0  0  0  0  0  0  0
  -39.1844   58.1428    6.4385 N   0  0  0  0  0  0  0  0  0  0  0  0
  -36.0159   60.6970    5.6963 C   0  0  0  0  0  0  0  0  0  0  0  0
  -37.3761   62.7545    5.4010 C   0  0  0  0  0  0  0  0  0  0  0  0
  -37.3341   63.1671    4.0977 N   0  0  0  0  0  0  0  0  0  0  0  0
  -37.5258   63.5476    6.3157 O   0  0  0  0  0  0  0  0  0  0  0  0
  -38.1318   62.5201    3.1314 C   0  0  0  0  0  0  0  0  0  0  0  0
  -39.5338   62.5693    3.1436 C   0  0  0  0  0  0  0  0  0  0  0  0
  -40.2418   61.8543    2.1803 C   0  0  0  0  0  0  0  0  0  0  0  0
  -37.5187   61.7676    2.2192 N   0  0  0  0  0  0  0  0  0  0  0  0
  -38.1628   61.0987    1.2716 C   0  0  0  0  0  0  0  0  0  0  0  0
  -39.5486   61.1138    1.2239 C   0  0  0  0  0  0  0  0  0  0  0  0
  -37.1561   64.6151    3.8733 C   0  0  0  0  0  0  0  0  0  0  0  0
  -35.6790   65.0153    3.7790 C   0  0  0  0  0  0  0  0  0  0  0  0
  -35.1587   64.8057    2.3724 C   0  0  0  0  0  0  0  0  0  0  0  0
  -35.3213   65.6713    1.5286 O   0  0  0  0  0  0  0  0  0  0  0  0
  -34.5829   63.7712    2.0762 O   0  0  0  0  0  0  0  0  0  0  0  0
  -34.4563   63.1041    2.7220 H   0  0  0  0  0  0  0  0  0  0  0  0
  -39.1789   55.6695    6.7546 C   0  0  0  0  0  0  0  0  0  0  0  0
  -39.9242   55.2795    5.5422 N   0  0  0  0  0  0  0  0  0  0  0  0
  -40.8859   55.4856    5.4988 H   0  0  0  0  0  0  0  0  0  0  0  0
  -38.4399   55.3012    3.6049 C   0  0  0  0  0  0  0  0  0  0  0  0
  -39.0706   52.6256    3.1262 C   0  0  0  0  0  0  0  0  0  0  0  0
  -39.3321   54.6293    4.4469 C   0  0  0  0  0  0  0  0  0  0  0  0
  -39.6466   53.2855    4.2041 C   0  0  0  0  0  0  0  0  0  0  0  0
  -37.8741   54.6523    2.5164 C   0  0  0  0  0  0  0  0  0  0  0  0
  -38.1751   53.3055    2.2817 C   0  0  0  0  0  0  0  0  0  0  0  0
  -37.5372   52.6112    1.1282 C   0  0  0  0  0  0  0  0  0  0  0  0
  -36.2937   52.1399    1.2494 N   0  0  0  0  0  0  0  0  0  0  0  0
  -38.2255   52.4613    0.0068 N   0  0  0  0  0  0  0  0  0  0  0  0
  -35.8655   51.6799    0.4915 H   0  0  0  0  0  0  0  0  0  0  0  0
  -35.8050   52.2523    2.0966 H   0  0  0  0  0  0  0  0  0  0  0  0
  -39.1411   52.8171   -0.0601 H   0  0  0  0  0  0  0  0  0  0  0  0
 23 22  2  0  0  0
 24 22  1  0  0  0
 22 21  1  0  0  0
 21 20  1  0  0  0
 20 12  1  0  0  0
 15 16  2  0  0  0
 15 14  1  0  0  0
 16 19  1  0  0  0
 13 11  2  0  0  0
 12 14  1  0  0  0
 12 11  1  0  0  0
 14 17  2  0  0  0
 11  6  1  0  0  0
 19 18  2  0  0  0
 17 18  1  0  0  0
  3  6  2  0  0  0
  3  8  1  0  0  0
  6 10  1  0  0  0
  8  9  1  0  0  0
  8  7  2  0  0  0
 10  2  2  0  0  0
  9  4  2  0  0  0
 29 33  2  0  0  0
 29 31  1  0  0  0
 33 34  1  0  0  0
  7  2  1  0  0  0
  7  1  1  0  0  0
 27 31  1  0  0  0
 27 26  1  0  0  0
 31 32  2  0  0  0
  4  1  1  0  0  0
  4 26  1  0  0  0
 37 35  2  0  0  0
 34 35  1  0  0  0
 34 30  2  0  0  0
 35 36  1  0  0  0
  1  5  1  0  0  0
 32 30  1  0  0  0
 27 28  1  0  0  0
 24 25  1  0  0  0
 36 38  1  0  0  0
 36 39  1  0  0  0
 37 40  1  0  0  0
M  END
> <minimizedAffinity>
-7.69317

$$$$
4JN2_4CC_A_301


 40 43  0  0  0  0  0  0  0  0999 V2000
  -39.7248   55.4726    5.8729 N   0  0  0  0  0  0  0  0  0  0  0  0
  -39.8625   57.8696    6.6561 C   0  0  0  0  0  0  0  0  0  0  0  0
  -39.1094   58.4286    4.0058 C   0  0  0  0  0  0  0  0  0  0  0  0
  -39.4637   54.9336    4.6535 C   0  0  0  0  0  0  0  0  0  0  0  0
  -39.9866   54.8012    7.1430 C   0  0  0  0  0  0  0  0  0  0  0  0
  -39.3204   59.4613    4.9361 C   0  0  0  0  0  0  0  0  0  0  0  0
  -39.6680   56.8388    5.7442 C   0  0  0  0  0  0  0  0  0  0  0  0
  -39.2979   57.0952    4.4152 C   0  0  0  0  0  0  0  0  0  0  0  0
  -39.1908   55.8770    3.7999 N   0  0  0  0  0  0  0  0  0  0  0  0
  -39.7078   59.1694    6.2508 C   0  0  0  0  0  0  0  0  0  0  0  0
  -39.0577   60.8775    4.5685 C   0  0  0  0  0  0  0  0  0  0  0  0
  -39.4676   61.3482    3.3515 N   0  0  0  0  0  0  0  0  0  0  0  0
  -38.5070   61.6034    5.3796 O   0  0  0  0  0  0  0  0  0  0  0  0
  -40.7780   61.0839    2.9026 C   0  0  0  0  0  0  0  0  0  0  0  0
  -41.0515   60.4264    1.6938 C   0  0  0  0  0  0  0  0  0  0  0  0
  -42.3780   60.2566    1.3039 C   0  0  0  0  0  0  0  0  0  0  0  0
  -41.7921   61.5540    3.6273 N   0  0  0  0  0  0  0  0  0  0  0  0
  -43.0659   61.3833    3.2980 C   0  0  0  0  0  0  0  0  0  0  0  0
  -43.4027   60.7339    2.1200 C   0  0  0  0  0  0  0  0  0  0  0  0
  -38.9352   62.6630    2.9433 C   0  0  0  0  0  0  0  0  0  0  0  0
  -37.6418   62.5432    2.1288 C   0  0  0  0  0  0  0  0  0  0  0  0
  -36.4855   63.1842    2.8672 C   0  0  0  0  0  0  0  0  0  0  0  0
  -35.4386   63.4066    2.2820 O   0  0  0  0  0  0  0  0  0  0  0  0
  -36.5930   63.4735    4.0480 O   0  0  0  0  0  0  0  0  0  0  0  0
  -37.3957   63.3041    4.5006 H   0  0  0  0  0  0  0  0  0  0  0  0
  -39.3737   53.4524    4.3522 C   0  0  0  0  0  0  0  0  0  0  0  0
  -39.6445   53.2168    2.9209 N   0  0  0  0  0  0  0  0  0  0  0  0
  -40.5799   53.1057    2.6348 H   0  0  0  0  0  0  0  0  0  0  0  0
  -37.3104   52.8697    2.2976 C   0  0  0  0  0  0  0  0  0  0  0  0
  -37.9928   53.2770   -0.3772 C   0  0  0  0  0  0  0  0  0  0  0  0
  -38.6363   53.1429    1.9457 C   0  0  0  0  0  0  0  0  0  0  0  0
  -38.9760   53.3467    0.6015 C   0  0  0  0  0  0  0  0  0  0  0  0
  -36.3206   52.8155    1.3263 C   0  0  0  0  0  0  0  0  0  0  0  0
  -36.6609   53.0032   -0.0185 C   0  0  0  0  0  0  0  0  0  0  0  0
  -35.5947   52.9117   -1.0550 C   0  0  0  0  0  0  0  0  0  0  0  0
  -35.9349   52.8250   -2.3434 N   0  0  0  0  0  0  0  0  0  0  0  0
  -34.3259   52.9342   -0.6765 N   0  0  0  0  0  0  0  0  0  0  0  0
  -35.2359   52.7642   -3.0340 H   0  0  0  0  0  0  0  0  0  0  0  0
  -36.8846   52.8219   -2.6026 H   0  0  0  0  0  0  0  0  0  0  0  0
  -34.0983   52.9986    0.2792 H   0  0  0  0  0  0  0  0  0  0  0  0
 23 22  2  0  0  0
 24 22  1  0  0  0
 22 21  1  0  0  0
 21 20  1  0  0  0
 20 12  1  0  0  0
 15 16  2  0  0  0
 15 14  1  0  0  0
 16 19  1  0  0  0
 13 11  2  0  0  0
 12 14  1  0  0  0
 12 11  1  0  0  0
 14 17  2  0  0  0
 11  6  1  0  0  0
 19 18  2  0  0  0
 17 18  1  0  0  0
  3  6  2  0  0  0
  3  8  1  0  0  0
  6 10  1  0  0  0
  8  9  1  0  0  0
  8  7  2  0  0  0
 10  2  2  0  0  0
  9  4  2  0  0  0
 29 33  2  0  0  0
 29 31  1  0  0  0
 33 34  1  0  0  0
  7  2  1  0  0  0
  7  1  1  0  0  0
 27 31  1  0  0  0
 27 26  1  0  0  0
 31 32  2  0  0  0
  4  1  1  0  0  0
  4 26  1  0  0  0
 37 35  2  0  0  0
 34 35  1  0  0  0
 34 30  2  0  0  0
 35 36  1  0  0  0
  1  5  1  0  0  0
 32 30  1  0  0  0
 27 28  1  0  0  0
 24 25  1  0  0  0
 36 38  1  0  0  0
 36 39  1  0  0  0
 37 40  1  0  0  0
M  END
> <minimizedAffinity>
-7.62517

$$$$
4JN2_4CC_A_301


 40 43  0  0  0  0  0  0  0  0999 V2000
  -39.4104   54.3084    3.6410 N   0  0  0  0  0  0  0  0  0  0  0  0
  -38.6006   55.4184    5.7600 C   0  0  0  0  0  0  0  0  0  0  0  0
  -37.7557   57.4301    3.9873 C   0  0  0  0  0  0  0  0  0  0  0  0
  -39.4052   54.7198    2.3463 C   0  0  0  0  0  0  0  0  0  0  0  0
  -39.8783   53.0465    4.2077 C   0  0  0  0  0  0  0  0  0  0  0  0
  -37.5325   57.5381    5.3711 C   0  0  0  0  0  0  0  0  0  0  0  0
  -38.8380   55.3032    4.3954 C   0  0  0  0  0  0  0  0  0  0  0  0
  -38.4303   56.2978    3.4935 C   0  0  0  0  0  0  0  0  0  0  0  0
  -38.8129   55.8742    2.2492 N   0  0  0  0  0  0  0  0  0  0  0  0
  -37.9699   56.5340    6.2452 C   0  0  0  0  0  0  0  0  0  0  0  0
  -36.7565   58.6779    5.9267 C   0  0  0  0  0  0  0  0  0  0  0  0
  -36.7654   59.8826    5.2790 N   0  0  0  0  0  0  0  0  0  0  0  0
  -36.1504   58.5222    6.9738 O   0  0  0  0  0  0  0  0  0  0  0  0
  -37.9881   60.4386    4.8494 C   0  0  0  0  0  0  0  0  0  0  0  0
  -38.1546   61.0311    3.5886 C   0  0  0  0  0  0  0  0  0  0  0  0
  -39.3837   61.6040    3.2700 C   0  0  0  0  0  0  0  0  0  0  0  0
  -38.9988   60.4678    5.7165 N   0  0  0  0  0  0  0  0  0  0  0  0
  -40.1896   60.9795    5.4333 C   0  0  0  0  0  0  0  0  0  0  0  0
  -40.4210   61.5720    4.2011 C   0  0  0  0  0  0  0  0  0  0  0  0
  -35.7657   60.8736    5.7230 C   0  0  0  0  0  0  0  0  0  0  0  0
  -36.4107   62.1107    6.3588 C   0  0  0  0  0  0  0  0  0  0  0  0
  -35.7370   63.3749    5.8679 C   0  0  0  0  0  0  0  0  0  0  0  0
  -36.3900   64.2258    5.2870 O   0  0  0  0  0  0  0  0  0  0  0  0
  -34.5413   63.5443    6.0443 O   0  0  0  0  0  0  0  0  0  0  0  0
  -34.0366   62.8927    6.4901 H   0  0  0  0  0  0  0  0  0  0  0  0
  -39.8966   53.9064    1.1674 C   0  0  0  0  0  0  0  0  0  0  0  0
  -39.0976   52.6718    1.0451 N   0  0  0  0  0  0  0  0  0  0  0  0
  -39.5605   51.8064    1.1235 H   0  0  0  0  0  0  0  0  0  0  0  0
  -36.8100   52.5312    1.8838 C   0  0  0  0  0  0  0  0  0  0  0  0
  -35.8651   52.7997   -0.7279 C   0  0  0  0  0  0  0  0  0  0  0  0
  -37.7107   52.6677    0.8225 C   0  0  0  0  0  0  0  0  0  0  0  0
  -37.2332   52.8021   -0.4881 C   0  0  0  0  0  0  0  0  0  0  0  0
  -35.4416   52.5450    1.6526 C   0  0  0  0  0  0  0  0  0  0  0  0
  -34.9633   52.6634    0.3424 C   0  0  0  0  0  0  0  0  0  0  0  0
  -33.4928   52.6456    0.1039 C   0  0  0  0  0  0  0  0  0  0  0  0
  -32.7092   51.8919    0.8792 N   0  0  0  0  0  0  0  0  0  0  0  0
  -32.9929   53.3685   -0.8867 N   0  0  0  0  0  0  0  0  0  0  0  0
  -31.7366   51.8750    0.7277 H   0  0  0  0  0  0  0  0  0  0  0  0
  -33.1041   51.3531    1.6024 H   0  0  0  0  0  0  0  0  0  0  0  0
  -33.5896   53.9170   -1.4456 H   0  0  0  0  0  0  0  0  0  0  0  0
 23 22  2  0  0  0
 24 22  1  0  0  0
 22 21  1  0  0  0
 21 20  1  0  0  0
 20 12  1  0  0  0
 15 16  2  0  0  0
 15 14  1  0  0  0
 16 19  1  0  0  0
 13 11  2  0  0  0
 12 14  1  0  0  0
 12 11  1  0  0  0
 14 17  2  0  0  0
 11  6  1  0  0  0
 19 18  2  0  0  0
 17 18  1  0  0  0
  3  6  2  0  0  0
  3  8  1  0  0  0
  6 10  1  0  0  0
  8  9  1  0  0  0
  8  7  2  0  0  0
 10  2  2  0  0  0
  9  4  2  0  0  0
 29 33  2  0  0  0
 29 31  1  0  0  0
 33 34  1  0  0  0
  7  2  1  0  0  0
  7  1  1  0  0  0
 27 31  1  0  0  0
 27 26  1  0  0  0
 31 32  2  0  0  0
  4  1  1  0  0  0
  4 26  1  0  0  0
 37 35  2  0  0  0
 34 35  1  0  0  0
 34 30  2  0  0  0
 35 36  1  0  0  0
  1  5  1  0  0  0
 32 30  1  0  0  0
 27 28  1  0  0  0
 24 25  1  0  0  0
 36 38  1  0  0  0
 36 39  1  0  0  0
 37 40  1  0  0  0
M  END
> <minimizedAffinity>
-7.61112

$$$$
