3RYV_RYV_B_1


 18 18  0  0  0  0  0  0  0  0999 V2000
   16.6007    3.8824   14.7697 C   0  0  0  0  0  0  0  0  0  0  0  0
   14.7799    2.6233   15.7888 C   0  0  0  0  0  0  0  0  0  0  0  0
   15.2425    3.7659   15.1157 C   0  0  0  0  0  0  0  0  0  0  0  0
   15.6624    1.5705   16.1013 C   0  0  0  0  0  0  0  0  0  0  0  0
   17.4972    2.8317   15.1089 C   0  0  0  0  0  0  0  0  0  0  0  0
   17.0385    1.7048   15.7922 C   0  0  0  0  0  0  0  0  0  0  0  0
   15.1309    0.1642   16.9622 S   0  0  0  0  0  0  0  0  0  0  0  0
   15.5775    0.3382   18.3049 O   0  0  0  0  0  0  0  0  0  0  0  0
   15.6498   -1.0095   16.2542 O   0  0  0  0  0  0  0  0  0  0  0  0
   13.5072    0.1696   16.8544 N   0  0  0  0  0  0  0  0  0  0  0  0
   13.1366    0.9836   17.3447 H   0  0  0  0  0  0  0  0  0  0  0  0
   13.1355   -0.6807   17.2778 H   0  0  0  0  0  0  0  0  0  0  0  0
   18.1450    5.6853   14.4122 N   0  0  0  0  0  0  0  0  0  0  0  0
   16.3790    5.5029   13.0631 O   0  0  0  0  0  0  0  0  0  0  0  0
   17.0856    5.0792   14.0247 C   0  0  0  0  0  0  0  0  0  0  0  0
   18.6242    5.3575   15.2073 H   0  0  0  0  0  0  0  0  0  0  0  0
   18.6661    6.8721   13.6874 C   0  0  0  0  0  0  0  0  0  0  0  0
   19.0845    7.8378   14.8189 C   0  0  0  0  0  0  0  0  0  0  0  0
  4  7  1  0  0  0
 10  7  1  0  0  0
  8  7  2  0  0  0
  7  9  2  0  0  0
 17 13  1  0  0  0
 13 15  1  0  0  0
 14 15  2  0  0  0
 15  1  1  0  0  0
  1  3  2  0  0  0
  1  5  1  0  0  0
  3  2  1  0  0  0
  2  4  2  0  0  0
  6  4  1  0  0  0
  5  6  2  0  0  0
 17 18  1  0  0  0
 13 16  1  0  0  0
 10 11  1  0  0  0
 10 12  1  0  0  0
M  END
> <minimizedAffinity>
-6.83998

$$$$
3RYV_RYV_B_1


 18 18  0  0  0  0  0  0  0  0999 V2000
   16.4663    3.8968   14.7652 C   0  0  0  0  0  0  0  0  0  0  0  0
   14.6010    2.8170   15.9027 C   0  0  0  0  0  0  0  0  0  0  0  0
   15.1189    3.8965   15.1685 C   0  0  0  0  0  0  0  0  0  0  0  0
   15.4148    1.7118   16.2206 C   0  0  0  0  0  0  0  0  0  0  0  0
   17.2953    2.7937   15.1091 C   0  0  0  0  0  0  0  0  0  0  0  0
   16.7829    1.7298   15.8528 C   0  0  0  0  0  0  0  0  0  0  0  0
   14.8165    0.3814   17.1552 S   0  0  0  0  0  0  0  0  0  0  0  0
   13.4548    0.2146   16.7670 O   0  0  0  0  0  0  0  0  0  0  0  0
   15.0537    0.6919   18.5678 O   0  0  0  0  0  0  0  0  0  0  0  0
   15.7310   -0.8976   16.7359 N   0  0  0  0  0  0  0  0  0  0  0  0
   15.5725   -1.1214   15.7534 H   0  0  0  0  0  0  0  0  0  0  0  0
   15.4780   -1.7001   17.3124 H   0  0  0  0  0  0  0  0  0  0  0  0
   18.0246    5.6811   14.3761 N   0  0  0  0  0  0  0  0  0  0  0  0
   16.3859    5.3480   12.9010 O   0  0  0  0  0  0  0  0  0  0  0  0
   17.0074    5.0261   13.9562 C   0  0  0  0  0  0  0  0  0  0  0  0
   18.4336    5.4359   15.2374 H   0  0  0  0  0  0  0  0  0  0  0  0
   18.6000    6.8029   13.5912 C   0  0  0  0  0  0  0  0  0  0  0  0
   19.1218    7.7763   14.6719 C   0  0  0  0  0  0  0  0  0  0  0  0
  4  7  1  0  0  0
 10  7  1  0  0  0
  8  7  2  0  0  0
  7  9  2  0  0  0
 17 13  1  0  0  0
 13 15  1  0  0  0
 14 15  2  0  0  0
 15  1  1  0  0  0
  1  3  2  0  0  0
  1  5  1  0  0  0
  3  2  1  0  0  0
  2  4  2  0  0  0
  6  4  1  0  0  0
  5  6  2  0  0  0
 17 18  1  0  0  0
 13 16  1  0  0  0
 10 11  1  0  0  0
 10 12  1  0  0  0
M  END
> <minimizedAffinity>
-6.75430

$$$$
3RYV_RYV_B_1


 18 18  0  0  0  0  0  0  0  0999 V2000
   16.4878    3.8724   14.7305 C   0  0  0  0  0  0  0  0  0  0  0  0
   16.8053    1.7073   15.8032 C   0  0  0  0  0  0  0  0  0  0  0  0
   17.3120    2.7780   15.0487 C   0  0  0  0  0  0  0  0  0  0  0  0
   15.4770    1.7279   16.2724 C   0  0  0  0  0  0  0  0  0  0  0  0
   15.1389    3.8812   15.1811 C   0  0  0  0  0  0  0  0  0  0  0  0
   14.6329    2.8086   15.9166 C   0  0  0  0  0  0  0  0  0  0  0  0
   14.8111    0.4072   17.1746 S   0  0  0  0  0  0  0  0  0  0  0  0
   13.4639    0.2715   16.7283 O   0  0  0  0  0  0  0  0  0  0  0  0
   14.9948    0.7071   18.5973 O   0  0  0  0  0  0  0  0  0  0  0  0
   15.7148   -0.8898   16.7882 N   0  0  0  0  0  0  0  0  0  0  0  0
   15.5934   -1.1063   15.7989 H   0  0  0  0  0  0  0  0  0  0  0  0
   15.4204   -1.6888   17.3498 H   0  0  0  0  0  0  0  0  0  0  0  0
   18.1094    5.6015   14.3510 N   0  0  0  0  0  0  0  0  0  0  0  0
   16.3660    5.4447   12.9696 O   0  0  0  0  0  0  0  0  0  0  0  0
   17.0350    5.0249   13.9593 C   0  0  0  0  0  0  0  0  0  0  0  0
   18.5585    5.2811   15.1664 H   0  0  0  0  0  0  0  0  0  0  0  0
   18.6920    6.7433   13.6011 C   0  0  0  0  0  0  0  0  0  0  0  0
   19.0590    7.7586   14.7066 C   0  0  0  0  0  0  0  0  0  0  0  0
  4  7  1  0  0  0
 10  7  1  0  0  0
  8  7  2  0  0  0
  7  9  2  0  0  0
 17 13  1  0  0  0
 13 15  1  0  0  0
 14 15  2  0  0  0
 15  1  1  0  0  0
  1  3  2  0  0  0
  1  5  1  0  0  0
  3  2  1  0  0  0
  2  4  2  0  0  0
  6  4  1  0  0  0
  5  6  2  0  0  0
 17 18  1  0  0  0
 13 16  1  0  0  0
 10 11  1  0  0  0
 10 12  1  0  0  0
M  END
> <minimizedAffinity>
-6.74197

$$$$
3RYV_RYV_B_1


 18 18  0  0  0  0  0  0  0  0999 V2000
   16.3709    3.8270   14.6985 C   0  0  0  0  0  0  0  0  0  0  0  0
   14.5842    2.5869   15.7982 C   0  0  0  0  0  0  0  0  0  0  0  0
   15.0279    3.7239   15.1033 C   0  0  0  0  0  0  0  0  0  0  0  0
   15.4695    1.5264   16.0744 C   0  0  0  0  0  0  0  0  0  0  0  0
   17.2714    2.7686   15.0008 C   0  0  0  0  0  0  0  0  0  0  0  0
   16.8322    1.6472   15.7058 C   0  0  0  0  0  0  0  0  0  0  0  0
   14.9628    0.1266   16.9605 S   0  0  0  0  0  0  0  0  0  0  0  0
   15.6456   -0.9764   16.3691 O   0  0  0  0  0  0  0  0  0  0  0  0
   13.4986    0.0814   16.9153 O   0  0  0  0  0  0  0  0  0  0  0  0
   15.4351    0.3832   18.4965 N   0  0  0  0  0  0  0  0  0  0  0  0
   16.4537    0.4163   18.5380 H   0  0  0  0  0  0  0  0  0  0  0  0
   15.0951   -0.3751   19.0879 H   0  0  0  0  0  0  0  0  0  0  0  0
   16.5313    5.1351   12.6920 N   0  0  0  0  0  0  0  0  0  0  0  0
   17.5843    5.8481   14.5236 O   0  0  0  0  0  0  0  0  0  0  0  0
   16.8342    5.0179   13.9307 C   0  0  0  0  0  0  0  0  0  0  0  0
   16.0013    4.4289   12.2566 H   0  0  0  0  0  0  0  0  0  0  0  0
   16.9629    6.3138   11.8983 C   0  0  0  0  0  0  0  0  0  0  0  0
   15.6865    6.7259   11.1309 C   0  0  0  0  0  0  0  0  0  0  0  0
  4  7  1  0  0  0
 10  7  1  0  0  0
  8  7  2  0  0  0
  7  9  2  0  0  0
 17 13  1  0  0  0
 13 15  1  0  0  0
 14 15  2  0  0  0
 15  1  1  0  0  0
  1  3  2  0  0  0
  1  5  1  0  0  0
  3  2  1  0  0  0
  2  4  2  0  0  0
  6  4  1  0  0  0
  5  6  2  0  0  0
 17 18  1  0  0  0
 13 16  1  0  0  0
 10 11  1  0  0  0
 10 12  1  0  0  0
M  END
> <minimizedAffinity>
-6.57179

$$$$
3RYV_RYV_B_1


 18 18  0  0  0  0  0  0  0  0999 V2000
   16.7332    1.4089   14.4604 C   0  0  0  0  0  0  0  0  0  0  0  0
   17.6280    3.4343   13.4423 C   0  0  0  0  0  0  0  0  0  0  0  0
   17.2727    2.7017   14.5867 C   0  0  0  0  0  0  0  0  0  0  0  0
   17.4741    2.8753   12.1584 C   0  0  0  0  0  0  0  0  0  0  0  0
   16.5525    0.8546   13.1633 C   0  0  0  0  0  0  0  0  0  0  0  0
   16.8909    1.5908   12.0271 C   0  0  0  0  0  0  0  0  0  0  0  0
   17.8690    3.7659   10.7258 S   0  0  0  0  0  0  0  0  0  0  0  0
   19.2874    3.6928   10.6011 O   0  0  0  0  0  0  0  0  0  0  0  0
   17.3001    5.1089   10.8697 O   0  0  0  0  0  0  0  0  0  0  0  0
   17.1097    2.9995    9.5077 N   0  0  0  0  0  0  0  0  0  0  0  0
   17.4993    2.0630    9.3998 H   0  0  0  0  0  0  0  0  0  0  0  0
   17.2400    3.5236    8.6424 H   0  0  0  0  0  0  0  0  0  0  0  0
   15.2208    0.7185   16.1922 N   0  0  0  0  0  0  0  0  0  0  0  0
   17.3019   -0.0822   16.2042 O   0  0  0  0  0  0  0  0  0  0  0  0
   16.3883    0.6175   15.6758 C   0  0  0  0  0  0  0  0  0  0  0  0
   14.5643    1.3280   15.7838 H   0  0  0  0  0  0  0  0  0  0  0  0
   14.8363   -0.0644   17.3942 C   0  0  0  0  0  0  0  0  0  0  0  0
   14.8158    0.9879   18.5256 C   0  0  0  0  0  0  0  0  0  0  0  0
  4  7  1  0  0  0
 10  7  1  0  0  0
  8  7  2  0  0  0
  7  9  2  0  0  0
 17 13  1  0  0  0
 13 15  1  0  0  0
 14 15  2  0  0  0
 15  1  1  0  0  0
  1  3  2  0  0  0
  1  5  1  0  0  0
  3  2  1  0  0  0
  2  4  2  0  0  0
  6  4  1  0  0  0
  5  6  2  0  0  0
 17 18  1  0  0  0
 13 16  1  0  0  0
 10 11  1  0  0  0
 10 12  1  0  0  0
M  END
> <minimizedAffinity>
-6.13280

$$$$
3RYV_RYV_B_1


 18 18  0  0  0  0  0  0  0  0999 V2000
   17.2604    2.7168   15.2331 C   0  0  0  0  0  0  0  0  0  0  0  0
   16.7131    4.8658   14.2223 C   0  0  0  0  0  0  0  0  0  0  0  0
   16.3108    3.6935   14.8830 C   0  0  0  0  0  0  0  0  0  0  0  0
   18.0722    5.0901   13.9268 C   0  0  0  0  0  0  0  0  0  0  0  0
   18.6290    2.9306   14.9109 C   0  0  0  0  0  0  0  0  0  0  0  0
   19.0241    4.0886   14.2399 C   0  0  0  0  0  0  0  0  0  0  0  0
   18.5965    6.5085   13.0814 S   0  0  0  0  0  0  0  0  0  0  0  0
   18.8100    7.5012   14.0823 O   0  0  0  0  0  0  0  0  0  0  0  0
   17.5841    6.8182   12.0680 O   0  0  0  0  0  0  0  0  0  0  0  0
   19.9797    6.0893   12.3338 N   0  0  0  0  0  0  0  0  0  0  0  0
   20.6910    5.8717   13.0318 H   0  0  0  0  0  0  0  0  0  0  0  0
   20.2999    6.8634   11.7520 H   0  0  0  0  0  0  0  0  0  0  0  0
   15.6205    1.3542   16.3365 N   0  0  0  0  0  0  0  0  0  0  0  0
   17.7320    0.6412   16.2614 O   0  0  0  0  0  0  0  0  0  0  0  0
   16.8387    1.4884   15.9651 C   0  0  0  0  0  0  0  0  0  0  0  0
   14.9755    2.0719   16.1415 H   0  0  0  0  0  0  0  0  0  0  0  0
   15.1604    0.1387   17.0551 C   0  0  0  0  0  0  0  0  0  0  0  0
   13.6196    0.2366   16.9912 C   0  0  0  0  0  0  0  0  0  0  0  0
  4  7  1  0  0  0
 10  7  1  0  0  0
  8  7  2  0  0  0
  7  9  2  0  0  0
 17 13  1  0  0  0
 13 15  1  0  0  0
 14 15  2  0  0  0
 15  1  1  0  0  0
  1  3  2  0  0  0
  1  5  1  0  0  0
  3  2  1  0  0  0
  2  4  2  0  0  0
  6  4  1  0  0  0
  5  6  2  0  0  0
 17 18  1  0  0  0
 13 16  1  0  0  0
 10 11  1  0  0  0
 10 12  1  0  0  0
M  END
> <minimizedAffinity>
-6.03893

$$$$
3RYV_RYV_B_1


 18 18  0  0  0  0  0  0  0  0999 V2000
   17.3310    2.7015   15.3267 C   0  0  0  0  0  0  0  0  0  0  0  0
   19.1405    3.9605   14.2873 C   0  0  0  0  0  0  0  0  0  0  0  0
   18.6962    2.8491   15.0222 C   0  0  0  0  0  0  0  0  0  0  0  0
   18.2238    4.9248   13.8240 C   0  0  0  0  0  0  0  0  0  0  0  0
   16.4088    3.6887   14.8824 C   0  0  0  0  0  0  0  0  0  0  0  0
   16.8547    4.8005   14.1665 C   0  0  0  0  0  0  0  0  0  0  0  0
   18.7436    6.3250   12.9462 S   0  0  0  0  0  0  0  0  0  0  0  0
   20.0111    5.9860   12.3882 O   0  0  0  0  0  0  0  0  0  0  0  0
   18.7272    7.4593   13.8740 O   0  0  0  0  0  0  0  0  0  0  0  0
   17.6170    6.5675   11.7972 N   0  0  0  0  0  0  0  0  0  0  0  0
   17.6210    5.7823   11.1461 H   0  0  0  0  0  0  0  0  0  0  0  0
   17.8261    7.4288   11.2924 H   0  0  0  0  0  0  0  0  0  0  0  0
   15.6977    1.5154   16.6262 N   0  0  0  0  0  0  0  0  0  0  0  0
   17.6544    0.5316   16.2068 O   0  0  0  0  0  0  0  0  0  0  0  0
   16.8544    1.5045   16.0768 C   0  0  0  0  0  0  0  0  0  0  0  0
   15.1377    2.3219   16.5543 H   0  0  0  0  0  0  0  0  0  0  0  0
   15.1834    0.3370   17.3695 C   0  0  0  0  0  0  0  0  0  0  0  0
   13.7002    0.2543   16.9438 C   0  0  0  0  0  0  0  0  0  0  0  0
  4  7  1  0  0  0
 10  7  1  0  0  0
  8  7  2  0  0  0
  7  9  2  0  0  0
 17 13  1  0  0  0
 13 15  1  0  0  0
 14 15  2  0  0  0
 15  1  1  0  0  0
  1  3  2  0  0  0
  1  5  1  0  0  0
  3  2  1  0  0  0
  2  4  2  0  0  0
  6  4  1  0  0  0
  5  6  2  0  0  0
 17 18  1  0  0  0
 13 16  1  0  0  0
 10 11  1  0  0  0
 10 12  1  0  0  0
M  END
> <minimizedAffinity>
-5.91042

$$$$
3RYV_RYV_B_1


 18 18  0  0  0  0  0  0  0  0999 V2000
   17.9250    5.1843   14.3581 C   0  0  0  0  0  0  0  0  0  0  0  0
   18.4322    2.8303   14.7334 C   0  0  0  0  0  0  0  0  0  0  0  0
   18.8527    4.1279   14.3986 C   0  0  0  0  0  0  0  0  0  0  0  0
   17.0850    2.5761   15.0580 C   0  0  0  0  0  0  0  0  0  0  0  0
   16.5600    4.9229   14.6594 C   0  0  0  0  0  0  0  0  0  0  0  0
   16.1415    3.6298   14.9757 C   0  0  0  0  0  0  0  0  0  0  0  0
   16.5275    0.9809   15.4401 S   0  0  0  0  0  0  0  0  0  0  0  0
   15.1695    1.1307   15.8474 O   0  0  0  0  0  0  0  0  0  0  0  0
   17.4441    0.4195   16.4363 O   0  0  0  0  0  0  0  0  0  0  0  0
   16.6596    0.1265   14.0614 N   0  0  0  0  0  0  0  0  0  0  0  0
   16.0247    0.5103   13.3614 H   0  0  0  0  0  0  0  0  0  0  0  0
   16.4186   -0.8482   14.2411 H   0  0  0  0  0  0  0  0  0  0  0  0
   18.6695    7.3793   14.9835 N   0  0  0  0  0  0  0  0  0  0  0  0
   18.3853    6.9195   12.8202 O   0  0  0  0  0  0  0  0  0  0  0  0
   18.3770    6.5681   14.0367 C   0  0  0  0  0  0  0  0  0  0  0  0
   18.5829    7.0808   15.9177 H   0  0  0  0  0  0  0  0  0  0  0  0
   19.1365    8.7606   14.7021 C   0  0  0  0  0  0  0  0  0  0  0  0
   20.6371    8.7219   15.0688 C   0  0  0  0  0  0  0  0  0  0  0  0
  4  7  1  0  0  0
 10  7  1  0  0  0
  8  7  2  0  0  0
  7  9  2  0  0  0
 17 13  1  0  0  0
 13 15  1  0  0  0
 14 15  2  0  0  0
 15  1  1  0  0  0
  1  3  2  0  0  0
  1  5  1  0  0  0
  3  2  1  0  0  0
  2  4  2  0  0  0
  6  4  1  0  0  0
  5  6  2  0  0  0
 17 18  1  0  0  0
 13 16  1  0  0  0
 10 11  1  0  0  0
 10 12  1  0  0  0
M  END
> <minimizedAffinity>
-5.85266

$$$$
3RYV_RYV_B_1


 18 18  0  0  0  0  0  0  0  0999 V2000
   16.4916    4.2042   13.0674 C   0  0  0  0  0  0  0  0  0  0  0  0
   16.9520    1.8159   13.2201 C   0  0  0  0  0  0  0  0  0  0  0  0
   16.9458    3.0097   12.4801 C   0  0  0  0  0  0  0  0  0  0  0  0
   16.5300    1.8050   14.5641 C   0  0  0  0  0  0  0  0  0  0  0  0
   16.0400    4.1883   14.4159 C   0  0  0  0  0  0  0  0  0  0  0  0
   16.0317    2.9977   15.1439 C   0  0  0  0  0  0  0  0  0  0  0  0
   16.4917    0.3430   15.4929 S   0  0  0  0  0  0  0  0  0  0  0  0
   15.1809    0.2696   16.0488 O   0  0  0  0  0  0  0  0  0  0  0  0
   17.5991    0.3994   16.4512 O   0  0  0  0  0  0  0  0  0  0  0  0
   16.7725   -0.8594   14.4329 N   0  0  0  0  0  0  0  0  0  0  0  0
   16.0063   -0.9064   13.7613 H   0  0  0  0  0  0  0  0  0  0  0  0
   16.8404   -1.7453   14.9339 H   0  0  0  0  0  0  0  0  0  0  0  0
   15.6901    5.6571   11.3324 N   0  0  0  0  0  0  0  0  0  0  0  0
   17.4198    6.3213   12.5731 O   0  0  0  0  0  0  0  0  0  0  0  0
   16.5173    5.4782   12.2936 C   0  0  0  0  0  0  0  0  0  0  0  0
   15.0498    4.9435   11.1086 H   0  0  0  0  0  0  0  0  0  0  0  0
   15.6765    6.9182   10.5483 C   0  0  0  0  0  0  0  0  0  0  0  0
   14.3201    7.5620   10.9137 C   0  0  0  0  0  0  0  0  0  0  0  0
  4  7  1  0  0  0
 10  7  1  0  0  0
  8  7  2  0  0  0
  7  9  2  0  0  0
 17 13  1  0  0  0
 13 15  1  0  0  0
 14 15  2  0  0  0
 15  1  1  0  0  0
  1  3  2  0  0  0
  1  5  1  0  0  0
  3  2  1  0  0  0
  2  4  2  0  0  0
  6  4  1  0  0  0
  5  6  2  0  0  0
 17 18  1  0  0  0
 13 16  1  0  0  0
 10 11  1  0  0  0
 10 12  1  0  0  0
M  END
> <minimizedAffinity>
-5.76028

$$$$
3RYV_RYV_B_1


 18 18  0  0  0  0  0  0  0  0999 V2000
   17.4929    2.9219   15.1184 C   0  0  0  0  0  0  0  0  0  0  0  0
   19.4058    4.1015   14.1756 C   0  0  0  0  0  0  0  0  0  0  0  0
   18.8657    2.9747   14.8169 C   0  0  0  0  0  0  0  0  0  0  0  0
   18.5774    5.1784   13.8030 C   0  0  0  0  0  0  0  0  0  0  0  0
   16.6610    4.0205   14.7667 C   0  0  0  0  0  0  0  0  0  0  0  0
   17.2028    5.1459   14.1443 C   0  0  0  0  0  0  0  0  0  0  0  0
   19.2182    6.5975   13.0432 S   0  0  0  0  0  0  0  0  0  0  0  0
   18.1227    7.2001   12.3581 O   0  0  0  0  0  0  0  0  0  0  0  0
   20.3510    6.1803   12.2123 O   0  0  0  0  0  0  0  0  0  0  0  0
   19.7694    7.5343   14.2542 N   0  0  0  0  0  0  0  0  0  0  0  0
   18.9873    7.8298   14.8385 H   0  0  0  0  0  0  0  0  0  0  0  0
   20.2323    8.3557   13.8650 H   0  0  0  0  0  0  0  0  0  0  0  0
   15.6491    1.6344   15.9586 N   0  0  0  0  0  0  0  0  0  0  0  0
   17.7136    0.8213   16.1797 O   0  0  0  0  0  0  0  0  0  0  0  0
   16.9131    1.7118   15.7678 C   0  0  0  0  0  0  0  0  0  0  0  0
   15.0732    2.3832   15.6813 H   0  0  0  0  0  0  0  0  0  0  0  0
   15.0338    0.4391   16.5895 C   0  0  0  0  0  0  0  0  0  0  0  0
   14.7453    0.8965   18.0371 C   0  0  0  0  0  0  0  0  0  0  0  0
  4  7  1  0  0  0
 10  7  1  0  0  0
  8  7  2  0  0  0
  7  9  2  0  0  0
 17 13  1  0  0  0
 13 15  1  0  0  0
 14 15  2  0  0  0
 15  1  1  0  0  0
  1  3  2  0  0  0
  1  5  1  0  0  0
  3  2  1  0  0  0
  2  4  2  0  0  0
  6  4  1  0  0  0
  5  6  2  0  0  0
 17 18  1  0  0  0
 13 16  1  0  0  0
 10 11  1  0  0  0
 10 12  1  0  0  0
M  END
> <minimizedAffinity>
-5.70074

$$$$
