4LBU_1WJ_A_401


 35 38  0  0  0  0  0  0  0  0999 V2000
    9.6560   17.5344   91.5864 C   0  0  0  0  0  0  0  0  0  0  0  0
   10.6957   17.8498   90.7307 C   0  0  0  0  0  0  0  0  0  0  0  0
   10.4239   17.7148   89.3783 C   0  0  0  0  0  0  0  0  0  0  0  0
    9.2132   17.2314   88.8878 C   0  0  0  0  0  0  0  0  0  0  0  0
    8.1508   16.8233   89.7337 C   0  0  0  0  0  0  0  0  0  0  0  0
    8.4201   17.0256   91.1293 C   0  0  0  0  0  0  0  0  0  0  0  0
    9.8992   17.7314   93.0528 C   0  0  0  0  0  0  0  0  0  0  0  0
    7.4331   16.7356   92.0590 N   0  0  0  0  0  0  0  0  0  0  0  0
    7.6387   16.9701   93.3528 C   0  0  0  0  0  0  0  0  0  0  0  0
    6.6555   16.7125   94.2276 N   0  0  0  0  0  0  0  0  0  0  0  0
    8.8056   17.4544   93.8277 N   0  0  0  0  0  0  0  0  0  0  0  0
   10.9213   18.1186   93.5105 O   0  0  0  0  0  0  0  0  0  0  0  0
   11.1542   18.0273   88.2436 N   0  0  0  0  0  0  0  0  0  0  0  0
    9.2110   17.2656   87.5092 N   0  0  0  0  0  0  0  0  0  0  0  0
   10.3726   17.7360   87.1601 C   0  0  0  0  0  0  0  0  0  0  0  0
    5.7937   16.3587   93.9094 H   0  0  0  0  0  0  0  0  0  0  0  0
    6.7955   16.8773   95.1881 H   0  0  0  0  0  0  0  0  0  0  0  0
    8.8747   17.6195   94.7959 H   0  0  0  0  0  0  0  0  0  0  0  0
   12.0683   18.3922   88.2213 H   0  0  0  0  0  0  0  0  0  0  0  0
   10.8238   17.9882   85.8864 N   0  0  0  0  0  0  0  0  0  0  0  0
    9.8563   18.3578   84.8514 C   0  0  0  0  0  0  0  0  0  0  0  0
   11.7827   17.9214   85.6734 H   0  0  0  0  0  0  0  0  0  0  0  0
    6.8502   16.2393   89.1567 C   0  0  0  0  0  0  0  0  0  0  0  0
    5.8694   17.1867   88.6166 C   0  0  0  0  0  0  0  0  0  0  0  0
    2.8865   17.3226   86.8038 C   0  0  0  0  0  0  0  0  0  0  0  0
    3.6410   17.6510   87.9818 O   0  0  0  0  0  0  0  0  0  0  0  0
    4.5320   16.5598   88.2942 C   0  0  0  0  0  0  0  0  0  0  0  0
    4.4280   15.6169   87.1163 C   0  0  0  0  0  0  0  0  0  0  0  0
    4.7179   14.2756   87.4032 O   0  0  0  0  0  0  0  0  0  0  0  0
    2.9600   15.8098   86.7010 C   0  0  0  0  0  0  0  0  0  0  0  0
    4.1154   13.9549   88.0925 H   0  0  0  0  0  0  0  0  0  0  0  0
    3.4975   17.9345   85.6827 O   0  0  0  0  0  0  0  0  0  0  0  0
    3.8263   19.3141   85.8600 C   0  0  0  0  0  0  0  0  0  0  0  0
    2.0300   15.2522   87.6294 O   0  0  0  0  0  0  0  0  0  0  0  0
    1.5174   13.9669   87.2911 C   0  0  0  0  0  0  0  0  0  0  0  0
 21 20  1  0  0  0
 33 32  1  0  0  0
 32 25  1  0  0  0
 20 15  1  0  0  0
 30 25  1  0  0  0
 30 28  1  0  0  0
 30 34  1  0  0  0
 25 26  1  0  0  0
 15 14  2  0  0  0
 15 13  1  0  0  0
 28 29  1  0  0  0
 28 27  1  0  0  0
 35 34  1  0  0  0
 14  4  1  0  0  0
 26 27  1  0  0  0
 13  3  1  0  0  0
 27 24  1  0  0  0
 24 23  1  0  0  0
  4  3  2  0  0  0
  4  5  1  0  0  0
 23  5  1  0  0  0
  3  2  1  0  0  0
  5  6  2  0  0  0
  2  1  2  0  0  0
  6  1  1  0  0  0
  6  8  1  0  0  0
  1  7  1  0  0  0
  8  9  2  0  0  0
  7 12  2  0  0  0
  7 11  1  0  0  0
  9 11  1  0  0  0
  9 10  1  0  0  0
 10 16  1  0  0  0
 10 17  1  0  0  0
 11 18  1  0  0  0
 13 19  1  0  0  0
 20 22  1  0  0  0
 29 31  1  0  0  0
M  END
> <minimizedAffinity>
-11.23640

$$$$
4LBU_1WJ_A_401


 35 38  0  0  0  0  0  0  0  0999 V2000
    9.6033   17.4973   91.4864 C   0  0  0  0  0  0  0  0  0  0  0  0
   10.6445   17.7842   90.6225 C   0  0  0  0  0  0  0  0  0  0  0  0
   10.3527   17.6762   89.2718 C   0  0  0  0  0  0  0  0  0  0  0  0
    9.1194   17.2444   88.7896 C   0  0  0  0  0  0  0  0  0  0  0  0
    8.0519   16.8659   89.6429 C   0  0  0  0  0  0  0  0  0  0  0  0
    8.3442   17.0408   91.0376 C   0  0  0  0  0  0  0  0  0  0  0  0
    9.8701   17.6670   92.9521 C   0  0  0  0  0  0  0  0  0  0  0  0
    7.3574   16.7763   91.9752 N   0  0  0  0  0  0  0  0  0  0  0  0
    7.5862   16.9871   93.2692 C   0  0  0  0  0  0  0  0  0  0  0  0
    6.6038   16.7556   94.1523 N   0  0  0  0  0  0  0  0  0  0  0  0
    8.7756   17.4215   93.7363 N   0  0  0  0  0  0  0  0  0  0  0  0
   10.9110   18.0100   93.4025 O   0  0  0  0  0  0  0  0  0  0  0  0
   11.0815   17.9751   88.1325 N   0  0  0  0  0  0  0  0  0  0  0  0
    9.1030   17.2957   87.4117 N   0  0  0  0  0  0  0  0  0  0  0  0
   10.2775   17.7266   87.0547 C   0  0  0  0  0  0  0  0  0  0  0  0
    5.7258   16.4381   93.8399 H   0  0  0  0  0  0  0  0  0  0  0  0
    6.7606   16.9031   95.1130 H   0  0  0  0  0  0  0  0  0  0  0  0
    8.8616   17.5719   94.7055 H   0  0  0  0  0  0  0  0  0  0  0  0
   12.0083   18.3058   88.1040 H   0  0  0  0  0  0  0  0  0  0  0  0
   10.7236   17.9775   85.7790 N   0  0  0  0  0  0  0  0  0  0  0  0
    9.9116   18.8170   84.8959 C   0  0  0  0  0  0  0  0  0  0  0  0
   11.5759   17.5986   85.4639 H   0  0  0  0  0  0  0  0  0  0  0  0
    6.7239   16.3381   89.0742 C   0  0  0  0  0  0  0  0  0  0  0  0
    5.7050   17.3299   88.7149 C   0  0  0  0  0  0  0  0  0  0  0  0
    4.6212   16.0192   85.6636 C   0  0  0  0  0  0  0  0  0  0  0  0
    5.6609   16.2027   86.6384 O   0  0  0  0  0  0  0  0  0  0  0  0
    5.5361   17.5155   87.2240 C   0  0  0  0  0  0  0  0  0  0  0  0
    4.2277   18.0597   86.6955 C   0  0  0  0  0  0  0  0  0  0  0  0
    4.1478   19.4581   86.6368 O   0  0  0  0  0  0  0  0  0  0  0  0
    4.1767   17.4235   85.2965 C   0  0  0  0  0  0  0  0  0  0  0  0
    4.8591   19.7992   86.0724 H   0  0  0  0  0  0  0  0  0  0  0  0
    3.5601   15.2931   86.2564 O   0  0  0  0  0  0  0  0  0  0  0  0
    3.9688   14.3000   87.1995 C   0  0  0  0  0  0  0  0  0  0  0  0
    5.1317   17.9725   84.3886 O   0  0  0  0  0  0  0  0  0  0  0  0
    4.6104   18.8744   83.4170 C   0  0  0  0  0  0  0  0  0  0  0  0
 21 20  1  0  0  0
 33 32  1  0  0  0
 32 25  1  0  0  0
 20 15  1  0  0  0
 30 25  1  0  0  0
 30 28  1  0  0  0
 30 34  1  0  0  0
 25 26  1  0  0  0
 15 14  2  0  0  0
 15 13  1  0  0  0
 28 29  1  0  0  0
 28 27  1  0  0  0
 35 34  1  0  0  0
 14  4  1  0  0  0
 26 27  1  0  0  0
 13  3  1  0  0  0
 27 24  1  0  0  0
 24 23  1  0  0  0
  4  3  2  0  0  0
  4  5  1  0  0  0
 23  5  1  0  0  0
  3  2  1  0  0  0
  5  6  2  0  0  0
  2  1  2  0  0  0
  6  1  1  0  0  0
  6  8  1  0  0  0
  1  7  1  0  0  0
  8  9  2  0  0  0
  7 12  2  0  0  0
  7 11  1  0  0  0
  9 11  1  0  0  0
  9 10  1  0  0  0
 10 16  1  0  0  0
 10 17  1  0  0  0
 11 18  1  0  0  0
 13 19  1  0  0  0
 20 22  1  0  0  0
 29 31  1  0  0  0
M  END
> <minimizedAffinity>
-10.07209

$$$$
4LBU_1WJ_A_401


 35 38  0  0  0  0  0  0  0  0999 V2000
    9.9584   17.6282   89.1737 C   0  0  0  0  0  0  0  0  0  0  0  0
   10.8023   17.9774   88.1351 C   0  0  0  0  0  0  0  0  0  0  0  0
   10.2266   18.0017   86.8745 C   0  0  0  0  0  0  0  0  0  0  0  0
    8.9041   17.6382   86.6323 C   0  0  0  0  0  0  0  0  0  0  0  0
    8.0289   17.1992   87.6581 C   0  0  0  0  0  0  0  0  0  0  0  0
    8.6168   17.2372   88.9673 C   0  0  0  0  0  0  0  0  0  0  0  0
   10.5363   17.6548   90.5570 C   0  0  0  0  0  0  0  0  0  0  0  0
    7.8426   16.9026   90.0679 N   0  0  0  0  0  0  0  0  0  0  0  0
    8.3484   16.9868   91.2960 C   0  0  0  0  0  0  0  0  0  0  0  0
    7.5681   16.6900   92.3456 N   0  0  0  0  0  0  0  0  0  0  0  0
    9.6250   17.3553   91.5332 N   0  0  0  0  0  0  0  0  0  0  0  0
   11.6610   17.9363   90.8018 O   0  0  0  0  0  0  0  0  0  0  0  0
   10.7074   18.3941   85.6362 N   0  0  0  0  0  0  0  0  0  0  0  0
    8.5975   17.8190   85.3000 N   0  0  0  0  0  0  0  0  0  0  0  0
    9.6844   18.2616   84.7386 C   0  0  0  0  0  0  0  0  0  0  0  0
    6.6328   16.4182   92.2023 H   0  0  0  0  0  0  0  0  0  0  0  0
    7.9306   16.7439   93.2593 H   0  0  0  0  0  0  0  0  0  0  0  0
    9.9203   17.4124   92.4707 H   0  0  0  0  0  0  0  0  0  0  0  0
   11.6185   18.7103   85.4385 H   0  0  0  0  0  0  0  0  0  0  0  0
    9.8584   18.6238   83.4240 N   0  0  0  0  0  0  0  0  0  0  0  0
   11.2180   18.7236   82.8898 C   0  0  0  0  0  0  0  0  0  0  0  0
    9.0809   18.8132   82.8506 H   0  0  0  0  0  0  0  0  0  0  0  0
    6.5921   16.7497   87.3436 C   0  0  0  0  0  0  0  0  0  0  0  0
    5.5281   17.2289   88.2320 C   0  0  0  0  0  0  0  0  0  0  0  0
    2.4225   17.2646   86.6331 C   0  0  0  0  0  0  0  0  0  0  0  0
    3.2459   17.6164   87.7569 O   0  0  0  0  0  0  0  0  0  0  0  0
    4.1940   16.5563   88.0010 C   0  0  0  0  0  0  0  0  0  0  0  0
    4.0405   15.6131   86.8287 C   0  0  0  0  0  0  0  0  0  0  0  0
    4.3962   14.2821   87.0882 O   0  0  0  0  0  0  0  0  0  0  0  0
    2.5412   15.7556   86.5181 C   0  0  0  0  0  0  0  0  0  0  0  0
    3.8551   13.9389   87.8164 H   0  0  0  0  0  0  0  0  0  0  0  0
    2.9318   17.9001   85.4749 O   0  0  0  0  0  0  0  0  0  0  0  0
    3.3285   19.2600   85.6649 C   0  0  0  0  0  0  0  0  0  0  0  0
    1.6984   15.1635   87.5066 O   0  0  0  0  0  0  0  0  0  0  0  0
    1.2671   13.8339   87.2321 C   0  0  0  0  0  0  0  0  0  0  0  0
 21 20  1  0  0  0
 33 32  1  0  0  0
 32 25  1  0  0  0
 20 15  1  0  0  0
 30 25  1  0  0  0
 30 28  1  0  0  0
 30 34  1  0  0  0
 25 26  1  0  0  0
 15 14  2  0  0  0
 15 13  1  0  0  0
 28 29  1  0  0  0
 28 27  1  0  0  0
 35 34  1  0  0  0
 14  4  1  0  0  0
 26 27  1  0  0  0
 13  3  1  0  0  0
 27 24  1  0  0  0
 24 23  1  0  0  0
  4  3  2  0  0  0
  4  5  1  0  0  0
 23  5  1  0  0  0
  3  2  1  0  0  0
  5  6  2  0  0  0
  2  1  2  0  0  0
  6  1  1  0  0  0
  6  8  1  0  0  0
  1  7  1  0  0  0
  8  9  2  0  0  0
  7 12  2  0  0  0
  7 11  1  0  0  0
  9 11  1  0  0  0
  9 10  1  0  0  0
 10 16  1  0  0  0
 10 17  1  0  0  0
 11 18  1  0  0  0
 13 19  1  0  0  0
 20 22  1  0  0  0
 29 31  1  0  0  0
M  END
> <minimizedAffinity>
-9.56090

$$$$
4LBU_1WJ_A_401


 35 38  0  0  0  0  0  0  0  0999 V2000
    7.5547   16.8593   88.8397 C   0  0  0  0  0  0  0  0  0  0  0  0
    6.3092   16.4297   89.2607 C   0  0  0  0  0  0  0  0  0  0  0  0
    5.3488   16.3056   88.2690 C   0  0  0  0  0  0  0  0  0  0  0  0
    5.5771   16.6481   86.9384 C   0  0  0  0  0  0  0  0  0  0  0  0
    6.8155   17.1661   86.4811 C   0  0  0  0  0  0  0  0  0  0  0  0
    7.8211   17.2319   87.5035 C   0  0  0  0  0  0  0  0  0  0  0  0
    8.6320   16.9423   89.8793 C   0  0  0  0  0  0  0  0  0  0  0  0
    9.0999   17.6519   87.1704 N   0  0  0  0  0  0  0  0  0  0  0  0
   10.0634   17.6652   88.0884 C   0  0  0  0  0  0  0  0  0  0  0  0
   11.2997   18.0434   87.7321 N   0  0  0  0  0  0  0  0  0  0  0  0
    9.8475   17.3174   89.3745 N   0  0  0  0  0  0  0  0  0  0  0  0
    8.4719   16.6817   91.0241 O   0  0  0  0  0  0  0  0  0  0  0  0
    4.0528   15.8170   88.2806 N   0  0  0  0  0  0  0  0  0  0  0  0
    4.4640   16.3625   86.1761 N   0  0  0  0  0  0  0  0  0  0  0  0
    3.5805   15.8776   86.9988 C   0  0  0  0  0  0  0  0  0  0  0  0
   11.4861   18.3025   86.8008 H   0  0  0  0  0  0  0  0  0  0  0  0
   12.0210   18.0620   88.4020 H   0  0  0  0  0  0  0  0  0  0  0  0
   10.6154   17.3346   89.9904 H   0  0  0  0  0  0  0  0  0  0  0  0
    3.5618   15.4868   89.0674 H   0  0  0  0  0  0  0  0  0  0  0  0
    2.3228   15.4129   86.6961 N   0  0  0  0  0  0  0  0  0  0  0  0
    1.8129   14.2353   87.4012 C   0  0  0  0  0  0  0  0  0  0  0  0
    1.7732   15.8649   86.0157 H   0  0  0  0  0  0  0  0  0  0  0  0
    7.0116   17.5885   85.0153 C   0  0  0  0  0  0  0  0  0  0  0  0
    7.6109   16.6053   84.1068 C   0  0  0  0  0  0  0  0  0  0  0  0
    8.8256   18.8379   81.7104 C   0  0  0  0  0  0  0  0  0  0  0  0
    8.2763   17.5535   82.0471 O   0  0  0  0  0  0  0  0  0  0  0  0
    8.7927   17.1375   83.3286 C   0  0  0  0  0  0  0  0  0  0  0  0
    9.5410   18.3393   83.8606 C   0  0  0  0  0  0  0  0  0  0  0  0
   10.5730   18.0437   84.7622 O   0  0  0  0  0  0  0  0  0  0  0  0
   10.0765   18.9637   82.5613 C   0  0  0  0  0  0  0  0  0  0  0  0
   11.2184   17.4593   84.3346 H   0  0  0  0  0  0  0  0  0  0  0  0
    7.8845   19.8411   82.0458 O   0  0  0  0  0  0  0  0  0  0  0  0
    8.4223   21.1629   82.1242 C   0  0  0  0  0  0  0  0  0  0  0  0
   11.1135   18.1971   81.9490 O   0  0  0  0  0  0  0  0  0  0  0  0
   12.3851   18.8342   81.8688 C   0  0  0  0  0  0  0  0  0  0  0  0
 21 20  1  0  0  0
 33 32  1  0  0  0
 32 25  1  0  0  0
 20 15  1  0  0  0
 30 25  1  0  0  0
 30 28  1  0  0  0
 30 34  1  0  0  0
 25 26  1  0  0  0
 15 14  2  0  0  0
 15 13  1  0  0  0
 28 29  1  0  0  0
 28 27  1  0  0  0
 35 34  1  0  0  0
 14  4  1  0  0  0
 26 27  1  0  0  0
 13  3  1  0  0  0
 27 24  1  0  0  0
 24 23  1  0  0  0
  4  3  2  0  0  0
  4  5  1  0  0  0
 23  5  1  0  0  0
  3  2  1  0  0  0
  5  6  2  0  0  0
  2  1  2  0  0  0
  6  1  1  0  0  0
  6  8  1  0  0  0
  1  7  1  0  0  0
  8  9  2  0  0  0
  7 12  2  0  0  0
  7 11  1  0  0  0
  9 11  1  0  0  0
  9 10  1  0  0  0
 10 16  1  0  0  0
 10 17  1  0  0  0
 11 18  1  0  0  0
 13 19  1  0  0  0
 20 22  1  0  0  0
 29 31  1  0  0  0
M  END
> <minimizedAffinity>
-9.18578

$$$$
4LBU_1WJ_A_401


 35 38  0  0  0  0  0  0  0  0999 V2000
    9.8494   17.5982   89.3219 C   0  0  0  0  0  0  0  0  0  0  0  0
   10.6481   17.9356   88.2443 C   0  0  0  0  0  0  0  0  0  0  0  0
   10.0244   17.9249   87.0066 C   0  0  0  0  0  0  0  0  0  0  0  0
    8.6987   17.5389   86.8233 C   0  0  0  0  0  0  0  0  0  0  0  0
    7.8696   17.1111   87.8912 C   0  0  0  0  0  0  0  0  0  0  0  0
    8.5065   17.1853   89.1757 C   0  0  0  0  0  0  0  0  0  0  0  0
   10.4794   17.6625   90.6810 C   0  0  0  0  0  0  0  0  0  0  0  0
    7.7797   16.8647   90.3122 N   0  0  0  0  0  0  0  0  0  0  0  0
    8.3309   16.9824   91.5179 C   0  0  0  0  0  0  0  0  0  0  0  0
    7.5954   16.6984   92.6027 N   0  0  0  0  0  0  0  0  0  0  0  0
    9.6104   17.3726   91.6978 N   0  0  0  0  0  0  0  0  0  0  0  0
   11.6086   17.9641   90.8763 O   0  0  0  0  0  0  0  0  0  0  0  0
   10.4519   18.2963   85.7425 N   0  0  0  0  0  0  0  0  0  0  0  0
    8.3389   17.6865   85.5003 N   0  0  0  0  0  0  0  0  0  0  0  0
    9.3973   18.1309   84.8881 C   0  0  0  0  0  0  0  0  0  0  0  0
    6.6592   16.4114   92.5014 H   0  0  0  0  0  0  0  0  0  0  0  0
    7.9918   16.7770   93.5005 H   0  0  0  0  0  0  0  0  0  0  0  0
    9.9404   17.4540   92.6217 H   0  0  0  0  0  0  0  0  0  0  0  0
   11.3504   18.6200   85.5032 H   0  0  0  0  0  0  0  0  0  0  0  0
    9.5159   18.4665   83.5604 N   0  0  0  0  0  0  0  0  0  0  0  0
    8.5058   17.9874   82.6147 C   0  0  0  0  0  0  0  0  0  0  0  0
   10.2683   19.0204   83.2500 H   0  0  0  0  0  0  0  0  0  0  0  0
    6.4281   16.6360   87.6419 C   0  0  0  0  0  0  0  0  0  0  0  0
    5.3462   17.4368   88.2245 C   0  0  0  0  0  0  0  0  0  0  0  0
    3.9684   18.7741   85.3063 C   0  0  0  0  0  0  0  0  0  0  0  0
    4.2528   18.8847   86.7104 O   0  0  0  0  0  0  0  0  0  0  0  0
    4.1428   17.5819   87.3210 C   0  0  0  0  0  0  0  0  0  0  0  0
    3.9706   16.6195   86.1672 C   0  0  0  0  0  0  0  0  0  0  0  0
    3.2924   15.4333   86.4808 O   0  0  0  0  0  0  0  0  0  0  0  0
    3.1837   17.4821   85.1665 C   0  0  0  0  0  0  0  0  0  0  0  0
    2.4098   15.6460   86.8223 H   0  0  0  0  0  0  0  0  0  0  0  0
    5.1907   18.7011   84.5954 O   0  0  0  0  0  0  0  0  0  0  0  0
    5.7488   19.9665   84.2347 C   0  0  0  0  0  0  0  0  0  0  0  0
    1.8367   17.7307   85.5684 O   0  0  0  0  0  0  0  0  0  0  0  0
    1.1730   18.7860   84.8792 C   0  0  0  0  0  0  0  0  0  0  0  0
 21 20  1  0  0  0
 33 32  1  0  0  0
 32 25  1  0  0  0
 20 15  1  0  0  0
 30 25  1  0  0  0
 30 28  1  0  0  0
 30 34  1  0  0  0
 25 26  1  0  0  0
 15 14  2  0  0  0
 15 13  1  0  0  0
 28 29  1  0  0  0
 28 27  1  0  0  0
 35 34  1  0  0  0
 14  4  1  0  0  0
 26 27  1  0  0  0
 13  3  1  0  0  0
 27 24  1  0  0  0
 24 23  1  0  0  0
  4  3  2  0  0  0
  4  5  1  0  0  0
 23  5  1  0  0  0
  3  2  1  0  0  0
  5  6  2  0  0  0
  2  1  2  0  0  0
  6  1  1  0  0  0
  6  8  1  0  0  0
  1  7  1  0  0  0
  8  9  2  0  0  0
  7 12  2  0  0  0
  7 11  1  0  0  0
  9 11  1  0  0  0
  9 10  1  0  0  0
 10 16  1  0  0  0
 10 17  1  0  0  0
 11 18  1  0  0  0
 13 19  1  0  0  0
 20 22  1  0  0  0
 29 31  1  0  0  0
M  END
> <minimizedAffinity>
-9.10816

$$$$
4LBU_1WJ_A_401


 35 38  0  0  0  0  0  0  0  0999 V2000
    5.1676   16.5012   87.3646 C   0  0  0  0  0  0  0  0  0  0  0  0
    6.1021   16.2708   88.3577 C   0  0  0  0  0  0  0  0  0  0  0  0
    7.3829   16.7321   88.0972 C   0  0  0  0  0  0  0  0  0  0  0  0
    7.7480   17.3324   86.8946 C   0  0  0  0  0  0  0  0  0  0  0  0
    6.8390   17.5160   85.8218 C   0  0  0  0  0  0  0  0  0  0  0  0
    5.5017   17.0912   86.1255 C   0  0  0  0  0  0  0  0  0  0  0  0
    3.7588   16.0704   87.6440 C   0  0  0  0  0  0  0  0  0  0  0  0
    4.4997   17.2839   85.1865 N   0  0  0  0  0  0  0  0  0  0  0  0
    3.2420   16.9520   85.4681 C   0  0  0  0  0  0  0  0  0  0  0  0
    2.2863   17.1800   84.5553 N   0  0  0  0  0  0  0  0  0  0  0  0
    2.8840   16.3857   86.6398 N   0  0  0  0  0  0  0  0  0  0  0  0
    3.4133   15.5370   88.6441 O   0  0  0  0  0  0  0  0  0  0  0  0
    8.5321   16.7818   88.8688 N   0  0  0  0  0  0  0  0  0  0  0  0
    9.0642   17.7405   86.9470 N   0  0  0  0  0  0  0  0  0  0  0  0
    9.4998   17.3967   88.1237 C   0  0  0  0  0  0  0  0  0  0  0  0
    2.5185   17.5919   83.6918 H   0  0  0  0  0  0  0  0  0  0  0  0
    1.3525   16.9354   84.7487 H   0  0  0  0  0  0  0  0  0  0  0  0
    1.9304   16.1861   86.7815 H   0  0  0  0  0  0  0  0  0  0  0  0
    8.6336   16.4375   89.7855 H   0  0  0  0  0  0  0  0  0  0  0  0
   10.7469   17.6276   88.6536 N   0  0  0  0  0  0  0  0  0  0  0  0
   10.8798   17.8132   90.0999 C   0  0  0  0  0  0  0  0  0  0  0  0
   11.5386   17.6677   88.0697 H   0  0  0  0  0  0  0  0  0  0  0  0
    7.2933   18.1296   84.4866 C   0  0  0  0  0  0  0  0  0  0  0  0
    7.7156   17.2038   83.4304 C   0  0  0  0  0  0  0  0  0  0  0  0
    9.7235   19.0823   81.2758 C   0  0  0  0  0  0  0  0  0  0  0  0
    8.9069   17.9258   81.5215 O   0  0  0  0  0  0  0  0  0  0  0  0
    9.0957   17.4924   82.8848 C   0  0  0  0  0  0  0  0  0  0  0  0
    9.9287   18.5768   83.5310 C   0  0  0  0  0  0  0  0  0  0  0  0
   10.7076   18.1572   84.6185 O   0  0  0  0  0  0  0  0  0  0  0  0
   10.7966   19.0387   82.3486 C   0  0  0  0  0  0  0  0  0  0  0  0
   11.3101   17.4530   84.3321 H   0  0  0  0  0  0  0  0  0  0  0  0
    8.9249   20.2438   81.4083 O   0  0  0  0  0  0  0  0  0  0  0  0
    9.6391   21.4765   81.2945 C   0  0  0  0  0  0  0  0  0  0  0  0
   11.7806   18.0806   81.9590 O   0  0  0  0  0  0  0  0  0  0  0  0
   13.1312   18.5311   82.0054 C   0  0  0  0  0  0  0  0  0  0  0  0
 21 20  1  0  0  0
 33 32  1  0  0  0
 32 25  1  0  0  0
 20 15  1  0  0  0
 30 25  1  0  0  0
 30 28  1  0  0  0
 30 34  1  0  0  0
 25 26  1  0  0  0
 15 14  2  0  0  0
 15 13  1  0  0  0
 28 29  1  0  0  0
 28 27  1  0  0  0
 35 34  1  0  0  0
 14  4  1  0  0  0
 26 27  1  0  0  0
 13  3  1  0  0  0
 27 24  1  0  0  0
 24 23  1  0  0  0
  4  3  2  0  0  0
  4  5  1  0  0  0
 23  5  1  0  0  0
  3  2  1  0  0  0
  5  6  2  0  0  0
  2  1  2  0  0  0
  6  1  1  0  0  0
  6  8  1  0  0  0
  1  7  1  0  0  0
  8  9  2  0  0  0
  7 12  2  0  0  0
  7 11  1  0  0  0
  9 11  1  0  0  0
  9 10  1  0  0  0
 10 16  1  0  0  0
 10 17  1  0  0  0
 11 18  1  0  0  0
 13 19  1  0  0  0
 20 22  1  0  0  0
 29 31  1  0  0  0
M  END
> <minimizedAffinity>
-9.05196

$$$$
4LBU_1WJ_A_401


 35 38  0  0  0  0  0  0  0  0999 V2000
    7.5583   16.8282   88.8041 C   0  0  0  0  0  0  0  0  0  0  0  0
    6.3281   16.3886   89.2583 C   0  0  0  0  0  0  0  0  0  0  0  0
    5.3464   16.2437   88.2907 C   0  0  0  0  0  0  0  0  0  0  0  0
    5.5395   16.5756   86.9518 C   0  0  0  0  0  0  0  0  0  0  0  0
    6.7607   17.1032   86.4607 C   0  0  0  0  0  0  0  0  0  0  0  0
    7.7891   17.1906   87.4585 C   0  0  0  0  0  0  0  0  0  0  0  0
    8.6586   16.9338   89.8173 C   0  0  0  0  0  0  0  0  0  0  0  0
    9.0547   17.6219   87.0915 N   0  0  0  0  0  0  0  0  0  0  0  0
   10.0392   17.6553   87.9864 C   0  0  0  0  0  0  0  0  0  0  0  0
   11.2624   18.0441   87.5977 N   0  0  0  0  0  0  0  0  0  0  0  0
    9.8575   17.3178   89.2806 N   0  0  0  0  0  0  0  0  0  0  0  0
    8.5283   16.6827   90.9680 O   0  0  0  0  0  0  0  0  0  0  0  0
    4.0568   15.7405   88.3374 N   0  0  0  0  0  0  0  0  0  0  0  0
    4.4123   16.2698   86.2187 N   0  0  0  0  0  0  0  0  0  0  0  0
    3.5540   15.7829   87.0665 C   0  0  0  0  0  0  0  0  0  0  0  0
   11.4239   18.2961   86.6598 H   0  0  0  0  0  0  0  0  0  0  0  0
   11.9988   18.0776   88.2502 H   0  0  0  0  0  0  0  0  0  0  0  0
   10.6393   17.3499   89.8780 H   0  0  0  0  0  0  0  0  0  0  0  0
    3.5881   15.4124   89.1386 H   0  0  0  0  0  0  0  0  0  0  0  0
    2.2950   15.3009   86.7979 N   0  0  0  0  0  0  0  0  0  0  0  0
    1.8299   14.1023   87.4986 C   0  0  0  0  0  0  0  0  0  0  0  0
    1.7150   15.7546   86.1444 H   0  0  0  0  0  0  0  0  0  0  0  0
    6.9176   17.5133   84.9866 C   0  0  0  0  0  0  0  0  0  0  0  0
    6.1672   18.6887   84.5324 C   0  0  0  0  0  0  0  0  0  0  0  0
    9.3404   19.8634   83.6644 C   0  0  0  0  0  0  0  0  0  0  0  0
    8.3577   19.5646   84.6692 O   0  0  0  0  0  0  0  0  0  0  0  0
    7.0439   19.8598   84.1509 C   0  0  0  0  0  0  0  0  0  0  0  0
    7.2588   20.1696   82.6862 C   0  0  0  0  0  0  0  0  0  0  0  0
    6.2961   21.0107   82.1107 O   0  0  0  0  0  0  0  0  0  0  0  0
    8.6493   20.8256   82.7151 C   0  0  0  0  0  0  0  0  0  0  0  0
    6.2744   21.8532   82.5908 H   0  0  0  0  0  0  0  0  0  0  0  0
    9.6942   18.6651   82.9986 O   0  0  0  0  0  0  0  0  0  0  0  0
   11.0678   18.5785   82.6131 C   0  0  0  0  0  0  0  0  0  0  0  0
    8.6523   22.1226   83.3114 O   0  0  0  0  0  0  0  0  0  0  0  0
    9.8715   22.8505   83.1967 C   0  0  0  0  0  0  0  0  0  0  0  0
 21 20  1  0  0  0
 33 32  1  0  0  0
 32 25  1  0  0  0
 20 15  1  0  0  0
 30 25  1  0  0  0
 30 28  1  0  0  0
 30 34  1  0  0  0
 25 26  1  0  0  0
 15 14  2  0  0  0
 15 13  1  0  0  0
 28 29  1  0  0  0
 28 27  1  0  0  0
 35 34  1  0  0  0
 14  4  1  0  0  0
 26 27  1  0  0  0
 13  3  1  0  0  0
 27 24  1  0  0  0
 24 23  1  0  0  0
  4  3  2  0  0  0
  4  5  1  0  0  0
 23  5  1  0  0  0
  3  2  1  0  0  0
  5  6  2  0  0  0
  2  1  2  0  0  0
  6  1  1  0  0  0
  6  8  1  0  0  0
  1  7  1  0  0  0
  8  9  2  0  0  0
  7 12  2  0  0  0
  7 11  1  0  0  0
  9 11  1  0  0  0
  9 10  1  0  0  0
 10 16  1  0  0  0
 10 17  1  0  0  0
 11 18  1  0  0  0
 13 19  1  0  0  0
 20 22  1  0  0  0
 29 31  1  0  0  0
M  END
> <minimizedAffinity>
-8.62545

$$$$
4LBU_1WJ_A_401


 35 38  0  0  0  0  0  0  0  0999 V2000
    7.6197   16.8444   88.8061 C   0  0  0  0  0  0  0  0  0  0  0  0
    6.4041   16.3987   89.2925 C   0  0  0  0  0  0  0  0  0  0  0  0
    5.4012   16.2380   88.3493 C   0  0  0  0  0  0  0  0  0  0  0  0
    5.5603   16.5605   87.0037 C   0  0  0  0  0  0  0  0  0  0  0  0
    6.7653   17.0938   86.4798 C   0  0  0  0  0  0  0  0  0  0  0  0
    7.8160   17.1976   87.4526 C   0  0  0  0  0  0  0  0  0  0  0  0
    8.7424   16.9671   89.7923 C   0  0  0  0  0  0  0  0  0  0  0  0
    9.0691   17.6360   87.0525 N   0  0  0  0  0  0  0  0  0  0  0  0
   10.0739   17.6846   87.9238 C   0  0  0  0  0  0  0  0  0  0  0  0
   11.2845   18.0800   87.5034 N   0  0  0  0  0  0  0  0  0  0  0  0
    9.9253   17.3563   89.2245 N   0  0  0  0  0  0  0  0  0  0  0  0
    8.6412   16.7244   90.9477 O   0  0  0  0  0  0  0  0  0  0  0  0
    4.1172   15.7249   88.4302 N   0  0  0  0  0  0  0  0  0  0  0  0
    4.4188   16.2396   86.2996 N   0  0  0  0  0  0  0  0  0  0  0  0
    3.5845   15.7529   87.1712 C   0  0  0  0  0  0  0  0  0  0  0  0
   11.4220   18.3256   86.5600 H   0  0  0  0  0  0  0  0  0  0  0  0
   12.0357   18.1247   88.1382 H   0  0  0  0  0  0  0  0  0  0  0  0
   10.7206   17.3995   89.8032 H   0  0  0  0  0  0  0  0  0  0  0  0
    3.6701   15.3996   89.2448 H   0  0  0  0  0  0  0  0  0  0  0  0
    2.3236   15.2587   86.9360 N   0  0  0  0  0  0  0  0  0  0  0  0
    1.8920   14.0509   87.6424 C   0  0  0  0  0  0  0  0  0  0  0  0
    1.7201   15.7097   86.3024 H   0  0  0  0  0  0  0  0  0  0  0  0
    6.8844   17.4930   84.9993 C   0  0  0  0  0  0  0  0  0  0  0  0
    6.5950   18.8888   84.6541 C   0  0  0  0  0  0  0  0  0  0  0  0
    3.1871   19.3324   84.0275 C   0  0  0  0  0  0  0  0  0  0  0  0
    4.3092   18.4592   84.2357 O   0  0  0  0  0  0  0  0  0  0  0  0
    5.4848   19.0469   83.6401 C   0  0  0  0  0  0  0  0  0  0  0  0
    5.0623   20.4385   83.2250 C   0  0  0  0  0  0  0  0  0  0  0  0
    5.7894   20.9854   82.1585 O   0  0  0  0  0  0  0  0  0  0  0  0
    3.5869   20.2108   82.8557 C   0  0  0  0  0  0  0  0  0  0  0  0
    5.7090   20.4085   81.3828 H   0  0  0  0  0  0  0  0  0  0  0  0
    2.9876   20.1086   85.1946 O   0  0  0  0  0  0  0  0  0  0  0  0
    1.8848   21.0152   85.1283 C   0  0  0  0  0  0  0  0  0  0  0  0
    3.4123   19.4608   81.6537 O   0  0  0  0  0  0  0  0  0  0  0  0
    2.0739   19.3668   81.1752 C   0  0  0  0  0  0  0  0  0  0  0  0
 21 20  1  0  0  0
 33 32  1  0  0  0
 32 25  1  0  0  0
 20 15  1  0  0  0
 30 25  1  0  0  0
 30 28  1  0  0  0
 30 34  1  0  0  0
 25 26  1  0  0  0
 15 14  2  0  0  0
 15 13  1  0  0  0
 28 29  1  0  0  0
 28 27  1  0  0  0
 35 34  1  0  0  0
 14  4  1  0  0  0
 26 27  1  0  0  0
 13  3  1  0  0  0
 27 24  1  0  0  0
 24 23  1  0  0  0
  4  3  2  0  0  0
  4  5  1  0  0  0
 23  5  1  0  0  0
  3  2  1  0  0  0
  5  6  2  0  0  0
  2  1  2  0  0  0
  6  1  1  0  0  0
  6  8  1  0  0  0
  1  7  1  0  0  0
  8  9  2  0  0  0
  7 12  2  0  0  0
  7 11  1  0  0  0
  9 11  1  0  0  0
  9 10  1  0  0  0
 10 16  1  0  0  0
 10 17  1  0  0  0
 11 18  1  0  0  0
 13 19  1  0  0  0
 20 22  1  0  0  0
 29 31  1  0  0  0
M  END
> <minimizedAffinity>
-8.50947

$$$$
4LBU_1WJ_A_401


 35 38  0  0  0  0  0  0  0  0999 V2000
    8.2756   17.3379   87.4613 C   0  0  0  0  0  0  0  0  0  0  0  0
    7.6259   16.5935   88.4290 C   0  0  0  0  0  0  0  0  0  0  0  0
    6.3235   16.2248   88.1306 C   0  0  0  0  0  0  0  0  0  0  0  0
    5.6653   16.6210   86.9688 C   0  0  0  0  0  0  0  0  0  0  0  0
    6.2696   17.4490   85.9890 C   0  0  0  0  0  0  0  0  0  0  0  0
    7.6379   17.7733   86.2784 C   0  0  0  0  0  0  0  0  0  0  0  0
    9.7067   17.6977   87.7277 C   0  0  0  0  0  0  0  0  0  0  0  0
    8.3665   18.5169   85.3626 N   0  0  0  0  0  0  0  0  0  0  0  0
    9.6526   18.7799   85.5818 C   0  0  0  0  0  0  0  0  0  0  0  0
   10.3434   19.4721   84.6641 N   0  0  0  0  0  0  0  0  0  0  0  0
   10.2962   18.3820   86.6995 N   0  0  0  0  0  0  0  0  0  0  0  0
   10.2944   17.3992   88.7123 O   0  0  0  0  0  0  0  0  0  0  0  0
    5.4109   15.4118   88.7824 N   0  0  0  0  0  0  0  0  0  0  0  0
    4.4087   16.0553   86.9177 N   0  0  0  0  0  0  0  0  0  0  0  0
    4.2877   15.3511   88.0049 C   0  0  0  0  0  0  0  0  0  0  0  0
    9.8995   19.7751   83.8392 H   0  0  0  0  0  0  0  0  0  0  0  0
   11.2943   19.6774   84.8153 H   0  0  0  0  0  0  0  0  0  0  0  0
   11.2532   18.5985   86.7805 H   0  0  0  0  0  0  0  0  0  0  0  0
    5.5462   14.9605   89.6468 H   0  0  0  0  0  0  0  0  0  0  0  0
    3.2194   14.5726   88.3821 N   0  0  0  0  0  0  0  0  0  0  0  0
    2.0706   14.4603   87.4812 C   0  0  0  0  0  0  0  0  0  0  0  0
    3.2266   14.0980   89.2445 H   0  0  0  0  0  0  0  0  0  0  0  0
    5.4913   17.9144   84.7468 C   0  0  0  0  0  0  0  0  0  0  0  0
    5.4637   19.3547   84.4713 C   0  0  0  0  0  0  0  0  0  0  0  0
    2.6044   21.3442   84.2089 C   0  0  0  0  0  0  0  0  0  0  0  0
    4.0304   21.2291   84.3435 O   0  0  0  0  0  0  0  0  0  0  0  0
    4.3386   20.0857   85.1679 C   0  0  0  0  0  0  0  0  0  0  0  0
    3.0173   19.3780   85.3697 C   0  0  0  0  0  0  0  0  0  0  0  0
    2.9266   18.6146   86.5420 O   0  0  0  0  0  0  0  0  0  0  0  0
    2.0365   20.5624   85.3797 C   0  0  0  0  0  0  0  0  0  0  0  0
    3.0767   19.1852   87.3119 H   0  0  0  0  0  0  0  0  0  0  0  0
    2.2120   20.7650   82.9780 O   0  0  0  0  0  0  0  0  0  0  0  0
    0.8013   20.7456   82.7493 C   0  0  0  0  0  0  0  0  0  0  0  0
    2.1377   21.3727   86.5505 O   0  0  0  0  0  0  0  0  0  0  0  0
    1.6312   22.6985   86.4277 C   0  0  0  0  0  0  0  0  0  0  0  0
 21 20  1  0  0  0
 33 32  1  0  0  0
 32 25  1  0  0  0
 20 15  1  0  0  0
 30 25  1  0  0  0
 30 28  1  0  0  0
 30 34  1  0  0  0
 25 26  1  0  0  0
 15 14  2  0  0  0
 15 13  1  0  0  0
 28 29  1  0  0  0
 28 27  1  0  0  0
 35 34  1  0  0  0
 14  4  1  0  0  0
 26 27  1  0  0  0
 13  3  1  0  0  0
 27 24  1  0  0  0
 24 23  1  0  0  0
  4  3  2  0  0  0
  4  5  1  0  0  0
 23  5  1  0  0  0
  3  2  1  0  0  0
  5  6  2  0  0  0
  2  1  2  0  0  0
  6  1  1  0  0  0
  6  8  1  0  0  0
  1  7  1  0  0  0
  8  9  2  0  0  0
  7 12  2  0  0  0
  7 11  1  0  0  0
  9 11  1  0  0  0
  9 10  1  0  0  0
 10 16  1  0  0  0
 10 17  1  0  0  0
 11 18  1  0  0  0
 13 19  1  0  0  0
 20 22  1  0  0  0
 29 31  1  0  0  0
M  END
> <minimizedAffinity>
-8.46872

$$$$
4LBU_1WJ_A_401


 35 38  0  0  0  0  0  0  0  0999 V2000
    9.6116   17.6554   88.0553 C   0  0  0  0  0  0  0  0  0  0  0  0
   10.4413   18.0630   87.0266 C   0  0  0  0  0  0  0  0  0  0  0  0
    9.8069   18.4150   85.8456 C   0  0  0  0  0  0  0  0  0  0  0  0
    8.4306   18.3108   85.6582 C   0  0  0  0  0  0  0  0  0  0  0  0
    7.5545   17.8234   86.6611 C   0  0  0  0  0  0  0  0  0  0  0  0
    8.2141   17.5208   87.8998 C   0  0  0  0  0  0  0  0  0  0  0  0
   10.2637   17.3291   89.3655 C   0  0  0  0  0  0  0  0  0  0  0  0
    7.4590   17.1048   88.9857 N   0  0  0  0  0  0  0  0  0  0  0  0
    8.0409   16.8750   90.1604 C   0  0  0  0  0  0  0  0  0  0  0  0
    7.2831   16.5064   91.2037 N   0  0  0  0  0  0  0  0  0  0  0  0
    9.3724   16.9919   90.3478 N   0  0  0  0  0  0  0  0  0  0  0  0
   11.4316   17.3835   89.5580 O   0  0  0  0  0  0  0  0  0  0  0  0
   10.2749   18.9580   84.6605 N   0  0  0  0  0  0  0  0  0  0  0  0
    8.0830   18.7870   84.4116 N   0  0  0  0  0  0  0  0  0  0  0  0
    9.1947   19.1571   83.8461 C   0  0  0  0  0  0  0  0  0  0  0  0
    6.3089   16.4131   91.0959 H   0  0  0  0  0  0  0  0  0  0  0  0
    7.7009   16.3290   92.0773 H   0  0  0  0  0  0  0  0  0  0  0  0
    9.7259   16.8234   91.2511 H   0  0  0  0  0  0  0  0  0  0  0  0
   11.2132   19.1630   84.4441 H   0  0  0  0  0  0  0  0  0  0  0  0
    9.3514   19.7323   82.6075 N   0  0  0  0  0  0  0  0  0  0  0  0
    9.4429   21.1903   82.5090 C   0  0  0  0  0  0  0  0  0  0  0  0
    9.4013   19.1725   81.7991 H   0  0  0  0  0  0  0  0  0  0  0  0
    6.0474   17.6671   86.3972 C   0  0  0  0  0  0  0  0  0  0  0  0
    5.6269   16.5543   85.5394 C   0  0  0  0  0  0  0  0  0  0  0  0
    3.8658   14.5106   87.7586 C   0  0  0  0  0  0  0  0  0  0  0  0
    4.6293   14.6661   86.5513 O   0  0  0  0  0  0  0  0  0  0  0  0
    4.3086   15.9366   85.9471 C   0  0  0  0  0  0  0  0  0  0  0  0
    3.4470   16.6503   86.9648 C   0  0  0  0  0  0  0  0  0  0  0  0
    2.5638   17.5998   86.4321 O   0  0  0  0  0  0  0  0  0  0  0  0
    2.6999   15.4716   87.6107 C   0  0  0  0  0  0  0  0  0  0  0  0
    1.9729   17.1698   85.7943 H   0  0  0  0  0  0  0  0  0  0  0  0
    4.6766   14.8678   88.8630 O   0  0  0  0  0  0  0  0  0  0  0  0
    5.7678   13.9799   89.1153 C   0  0  0  0  0  0  0  0  0  0  0  0
    1.7324   14.8725   86.7488 O   0  0  0  0  0  0  0  0  0  0  0  0
    1.3054   13.5643   87.1171 C   0  0  0  0  0  0  0  0  0  0  0  0
 21 20  1  0  0  0
 33 32  1  0  0  0
 32 25  1  0  0  0
 20 15  1  0  0  0
 30 25  1  0  0  0
 30 28  1  0  0  0
 30 34  1  0  0  0
 25 26  1  0  0  0
 15 14  2  0  0  0
 15 13  1  0  0  0
 28 29  1  0  0  0
 28 27  1  0  0  0
 35 34  1  0  0  0
 14  4  1  0  0  0
 26 27  1  0  0  0
 13  3  1  0  0  0
 27 24  1  0  0  0
 24 23  1  0  0  0
  4  3  2  0  0  0
  4  5  1  0  0  0
 23  5  1  0  0  0
  3  2  1  0  0  0
  5  6  2  0  0  0
  2  1  2  0  0  0
  6  1  1  0  0  0
  6  8  1  0  0  0
  1  7  1  0  0  0
  8  9  2  0  0  0
  7 12  2  0  0  0
  7 11  1  0  0  0
  9 11  1  0  0  0
  9 10  1  0  0  0
 10 16  1  0  0  0
 10 17  1  0  0  0
 11 18  1  0  0  0
 13 19  1  0  0  0
 20 22  1  0  0  0
 29 31  1  0  0  0
M  END
> <minimizedAffinity>
-8.25687

$$$$
