3C52_PGH_A_404


 14 13  0  0  0  0  0  0  0  0999 V2000
    3.3330    3.5920    6.2416 C   0  0  0  0  0  0  0  0  0  0  0  0
    1.9643    4.2189    6.5338 C   0  0  0  0  0  0  0  0  0  0  0  0
    0.7500    3.5802    6.0417 N   0  0  0  0  0  0  0  0  0  0  0  0
   -0.2740    4.3588    5.4777 O   0  0  0  0  0  0  0  0  0  0  0  0
    1.8938    5.2245    7.1613 O   0  0  0  0  0  0  0  0  0  0  0  0
    0.6477    2.6031    6.1045 H   0  0  0  0  0  0  0  0  0  0  0  0
   -0.0150    5.2934    5.4925 H   0  0  0  0  0  0  0  0  0  0  0  0
    3.1565    2.3744    5.5630 O   0  0  0  0  0  0  0  0  0  0  0  0
    4.2264    1.0546    7.6608 O   0  0  0  0  0  0  0  0  0  0  0  0
    1.6335    0.6908    7.0221 O   0  0  0  0  0  0  0  0  0  0  0  0
    3.5190   -0.1481    5.5333 O   0  0  0  0  0  0  0  0  0  0  0  0
    3.1459    0.9566    6.4170 P   0  0  0  0  0  0  0  0  0  0  0  0
    1.3863    1.4234    7.6079 H   0  0  0  0  0  0  0  0  0  0  0  0
    4.4078    0.0082    5.1778 H   0  0  0  0  0  0  0  0  0  0  0  0
  2  1  1  0  0  0
  2  3  1  0  0  0
  2  5  2  0  0  0
  1  8  1  0  0  0
  3  4  1  0  0  0
  8 12  1  0  0  0
  9 12  2  0  0  0
 10 12  1  0  0  0
 11 12  1  0  0  0
  3  6  1  0  0  0
  4  7  1  0  0  0
 10 13  1  0  0  0
 11 14  1  0  0  0
M  END
> <minimizedAffinity>
-6.96381

$$$$
3C52_PGH_A_404


 14 13  0  0  0  0  0  0  0  0999 V2000
    1.5302    2.6692    6.1649 C   0  0  0  0  0  0  0  0  0  0  0  0
    1.0768    4.1101    5.9006 C   0  0  0  0  0  0  0  0  0  0  0  0
    2.0367    5.1020    5.4323 N   0  0  0  0  0  0  0  0  0  0  0  0
    2.0307    6.3969    5.9763 O   0  0  0  0  0  0  0  0  0  0  0  0
   -0.0564    4.4177    6.0773 O   0  0  0  0  0  0  0  0  0  0  0  0
    2.6894    4.8642    4.7346 H   0  0  0  0  0  0  0  0  0  0  0  0
    1.3315    6.4632    6.6454 H   0  0  0  0  0  0  0  0  0  0  0  0
    2.8853    2.6640    6.5359 O   0  0  0  0  0  0  0  0  0  0  0  0
    4.8762    0.9937    5.8055 O   0  0  0  0  0  0  0  0  0  0  0  0
    4.2317    1.2627    8.4085 O   0  0  0  0  0  0  0  0  0  0  0  0
    2.6736    0.1327    6.7438 O   0  0  0  0  0  0  0  0  0  0  0  0
    3.6363    1.2272    6.8695 P   0  0  0  0  0  0  0  0  0  0  0  0
    4.8699    1.9884    8.4916 H   0  0  0  0  0  0  0  0  0  0  0  0
    2.3238    0.1120    5.8393 H   0  0  0  0  0  0  0  0  0  0  0  0
  2  1  1  0  0  0
  2  3  1  0  0  0
  2  5  2  0  0  0
  1  8  1  0  0  0
  3  4  1  0  0  0
  8 12  1  0  0  0
  9 12  2  0  0  0
 10 12  1  0  0  0
 11 12  1  0  0  0
  3  6  1  0  0  0
  4  7  1  0  0  0
 10 13  1  0  0  0
 11 14  1  0  0  0
M  END
> <minimizedAffinity>
-6.90719

$$$$
3C52_PGH_A_404


 14 13  0  0  0  0  0  0  0  0999 V2000
    3.4052    3.7832    6.6151 C   0  0  0  0  0  0  0  0  0  0  0  0
    2.1861    4.6823    6.3760 C   0  0  0  0  0  0  0  0  0  0  0  0
    0.8442    4.1141    6.4062 N   0  0  0  0  0  0  0  0  0  0  0  0
   -0.1012    4.4935    5.4392 O   0  0  0  0  0  0  0  0  0  0  0  0
    2.3355    5.8415    6.1664 O   0  0  0  0  0  0  0  0  0  0  0  0
    0.6004    3.4643    7.1045 H   0  0  0  0  0  0  0  0  0  0  0  0
    0.2979    5.1352    4.8311 H   0  0  0  0  0  0  0  0  0  0  0  0
    3.2889    2.6183    5.8381 O   0  0  0  0  0  0  0  0  0  0  0  0
    3.4030   -0.0628    5.5456 O   0  0  0  0  0  0  0  0  0  0  0  0
    3.9562    1.0554    7.9345 O   0  0  0  0  0  0  0  0  0  0  0  0
    1.6077    1.0618    6.9546 O   0  0  0  0  0  0  0  0  0  0  0  0
    3.0185    1.1640    6.5806 P   0  0  0  0  0  0  0  0  0  0  0  0
    4.8915    1.1231    7.6863 H   0  0  0  0  0  0  0  0  0  0  0  0
    1.0568    1.1257    6.1588 H   0  0  0  0  0  0  0  0  0  0  0  0
  2  1  1  0  0  0
  2  3  1  0  0  0
  2  5  2  0  0  0
  1  8  1  0  0  0
  3  4  1  0  0  0
  8 12  1  0  0  0
  9 12  2  0  0  0
 10 12  1  0  0  0
 11 12  1  0  0  0
  3  6  1  0  0  0
  4  7  1  0  0  0
 10 13  1  0  0  0
 11 14  1  0  0  0
M  END
> <minimizedAffinity>
-6.87436

$$$$
3C52_PGH_A_404


 14 13  0  0  0  0  0  0  0  0999 V2000
    1.9887    3.4963    5.8060 C   0  0  0  0  0  0  0  0  0  0  0  0
    2.0426    4.6778    6.7820 C   0  0  0  0  0  0  0  0  0  0  0  0
    3.3231    5.1234    7.3172 N   0  0  0  0  0  0  0  0  0  0  0  0
    3.4390    5.4544    8.6773 O   0  0  0  0  0  0  0  0  0  0  0  0
    1.0410    5.2298    7.1017 O   0  0  0  0  0  0  0  0  0  0  0  0
    4.1067    5.1923    6.7253 H   0  0  0  0  0  0  0  0  0  0  0  0
    2.5816    5.3322    9.1140 H   0  0  0  0  0  0  0  0  0  0  0  0
    3.1288    2.6933    5.9775 O   0  0  0  0  0  0  0  0  0  0  0  0
    3.4647    0.0482    5.5558 O   0  0  0  0  0  0  0  0  0  0  0  0
    3.9112    1.0889    8.0014 O   0  0  0  0  0  0  0  0  0  0  0  0
    1.5755    0.9512    7.0011 O   0  0  0  0  0  0  0  0  0  0  0  0
    2.9750    1.1869    6.6457 P   0  0  0  0  0  0  0  0  0  0  0  0
    4.8391    1.2451    7.7656 H   0  0  0  0  0  0  0  0  0  0  0  0
    1.0254    1.0088    6.2042 H   0  0  0  0  0  0  0  0  0  0  0  0
  2  1  1  0  0  0
  2  3  1  0  0  0
  2  5  2  0  0  0
  1  8  1  0  0  0
  3  4  1  0  0  0
  8 12  1  0  0  0
  9 12  2  0  0  0
 10 12  1  0  0  0
 11 12  1  0  0  0
  3  6  1  0  0  0
  4  7  1  0  0  0
 10 13  1  0  0  0
 11 14  1  0  0  0
M  END
> <minimizedAffinity>
-6.81395

$$$$
3C52_PGH_A_404


 14 13  0  0  0  0  0  0  0  0999 V2000
    2.1380    2.0624    5.6386 C   0  0  0  0  0  0  0  0  0  0  0  0
    3.2497    1.2052    6.2561 C   0  0  0  0  0  0  0  0  0  0  0  0
    3.3669    1.0968    7.7048 N   0  0  0  0  0  0  0  0  0  0  0  0
    4.6307    1.1624    8.3142 O   0  0  0  0  0  0  0  0  0  0  0  0
    4.0148    0.6297    5.5537 O   0  0  0  0  0  0  0  0  0  0  0  0
    2.5601    0.9775    8.2564 H   0  0  0  0  0  0  0  0  0  0  0  0
    5.3119    1.2808    7.6339 H   0  0  0  0  0  0  0  0  0  0  0  0
    2.5748    3.3938    5.5347 O   0  0  0  0  0  0  0  0  0  0  0  0
    1.9860    6.0041    5.1787 O   0  0  0  0  0  0  0  0  0  0  0  0
    0.0069    4.2217    5.5904 O   0  0  0  0  0  0  0  0  0  0  0  0
    1.6616    4.8452    7.4203 O   0  0  0  0  0  0  0  0  0  0  0  0
    1.5600    4.6241    5.9776 P   0  0  0  0  0  0  0  0  0  0  0  0
   -0.0603    4.0752    4.6339 H   0  0  0  0  0  0  0  0  0  0  0  0
    2.5745    5.0816    7.6477 H   0  0  0  0  0  0  0  0  0  0  0  0
  2  1  1  0  0  0
  2  3  1  0  0  0
  2  5  2  0  0  0
  1  8  1  0  0  0
  3  4  1  0  0  0
  8 12  1  0  0  0
  9 12  2  0  0  0
 10 12  1  0  0  0
 11 12  1  0  0  0
  3  6  1  0  0  0
  4  7  1  0  0  0
 10 13  1  0  0  0
 11 14  1  0  0  0
M  END
> <minimizedAffinity>
-6.74135

$$$$
3C52_PGH_A_404


 14 13  0  0  0  0  0  0  0  0999 V2000
    3.3987    4.2797    6.4181 C   0  0  0  0  0  0  0  0  0  0  0  0
    2.0600    4.9911    6.1862 C   0  0  0  0  0  0  0  0  0  0  0  0
    0.8079    4.2813    6.4163 N   0  0  0  0  0  0  0  0  0  0  0  0
   -0.2523    4.4136    5.5047 O   0  0  0  0  0  0  0  0  0  0  0  0
    2.0437    6.1202    5.8193 O   0  0  0  0  0  0  0  0  0  0  0  0
    0.7054    3.7090    7.2109 H   0  0  0  0  0  0  0  0  0  0  0  0
    0.0121    5.0082    4.7853 H   0  0  0  0  0  0  0  0  0  0  0  0
    3.1642    2.9348    6.7503 O   0  0  0  0  0  0  0  0  0  0  0  0
    4.3269    0.6997    5.7811 O   0  0  0  0  0  0  0  0  0  0  0  0
    5.8541    2.7257    6.6902 O   0  0  0  0  0  0  0  0  0  0  0  0
    4.4286    1.3073    8.2497 O   0  0  0  0  0  0  0  0  0  0  0  0
    4.4437    1.8972    6.9109 P   0  0  0  0  0  0  0  0  0  0  0  0
    5.8638    3.1167    5.8026 H   0  0  0  0  0  0  0  0  0  0  0  0
    3.5997    0.8204    8.3792 H   0  0  0  0  0  0  0  0  0  0  0  0
  2  1  1  0  0  0
  2  3  1  0  0  0
  2  5  2  0  0  0
  1  8  1  0  0  0
  3  4  1  0  0  0
  8 12  1  0  0  0
  9 12  2  0  0  0
 10 12  1  0  0  0
 11 12  1  0  0  0
  3  6  1  0  0  0
  4  7  1  0  0  0
 10 13  1  0  0  0
 11 14  1  0  0  0
M  END
> <minimizedAffinity>
-6.33797

$$$$
3C52_PGH_A_404


 14 13  0  0  0  0  0  0  0  0999 V2000
    3.0608    2.9257    6.3253 C   0  0  0  0  0  0  0  0  0  0  0  0
    2.8268    1.6663    5.4821 C   0  0  0  0  0  0  0  0  0  0  0  0
    3.1719    0.3556    6.0183 N   0  0  0  0  0  0  0  0  0  0  0  0
    3.8181   -0.5887    5.2037 O   0  0  0  0  0  0  0  0  0  0  0  0
    2.3643    1.7590    4.3924 O   0  0  0  0  0  0  0  0  0  0  0  0
    2.9520    0.1321    6.9516 H   0  0  0  0  0  0  0  0  0  0  0  0
    3.9598   -0.2115    4.3213 H   0  0  0  0  0  0  0  0  0  0  0  0
    1.8312    3.3992    6.8130 O   0  0  0  0  0  0  0  0  0  0  0  0
    2.1615    5.3814    5.0106 O   0  0  0  0  0  0  0  0  0  0  0  0
   -0.2516    4.2179    5.3048 O   0  0  0  0  0  0  0  0  0  0  0  0
    0.7628    5.6936    7.1128 O   0  0  0  0  0  0  0  0  0  0  0  0
    1.1143    4.7056    6.0926 P   0  0  0  0  0  0  0  0  0  0  0  0
   -0.0183    3.5629    4.6285 H   0  0  0  0  0  0  0  0  0  0  0  0
    1.5656    5.9801    7.5757 H   0  0  0  0  0  0  0  0  0  0  0  0
  2  1  1  0  0  0
  2  3  1  0  0  0
  2  5  2  0  0  0
  1  8  1  0  0  0
  3  4  1  0  0  0
  8 12  1  0  0  0
  9 12  2  0  0  0
 10 12  1  0  0  0
 11 12  1  0  0  0
  3  6  1  0  0  0
  4  7  1  0  0  0
 10 13  1  0  0  0
 11 14  1  0  0  0
M  END
> <minimizedAffinity>
-6.31063

$$$$
3C52_PGH_A_404


 14 13  0  0  0  0  0  0  0  0999 V2000
    4.2828    3.2416    6.6288 C   0  0  0  0  0  0  0  0  0  0  0  0
    4.1745    1.7541    6.9857 C   0  0  0  0  0  0  0  0  0  0  0  0
    3.6463    0.8073    6.0115 N   0  0  0  0  0  0  0  0  0  0  0  0
    2.7436   -0.1889    6.4183 O   0  0  0  0  0  0  0  0  0  0  0  0
    4.5212    1.3737    8.0558 O   0  0  0  0  0  0  0  0  0  0  0  0
    3.9222    0.8661    5.0683 H   0  0  0  0  0  0  0  0  0  0  0  0
    2.5791   -0.1069    7.3707 H   0  0  0  0  0  0  0  0  0  0  0  0
    3.1535    3.9237    7.1120 O   0  0  0  0  0  0  0  0  0  0  0  0
    1.5862    3.0448    5.0974 O   0  0  0  0  0  0  0  0  0  0  0  0
    0.5930    4.7559    6.9275 O   0  0  0  0  0  0  0  0  0  0  0  0
    2.3627    5.4635    5.2413 O   0  0  0  0  0  0  0  0  0  0  0  0
    1.9369    4.3335    6.0673 P   0  0  0  0  0  0  0  0  0  0  0  0
    0.3109    4.0066    7.4750 H   0  0  0  0  0  0  0  0  0  0  0  0
    3.1524    5.2150    4.7359 H   0  0  0  0  0  0  0  0  0  0  0  0
  2  1  1  0  0  0
  2  3  1  0  0  0
  2  5  2  0  0  0
  1  8  1  0  0  0
  3  4  1  0  0  0
  8 12  1  0  0  0
  9 12  2  0  0  0
 10 12  1  0  0  0
 11 12  1  0  0  0
  3  6  1  0  0  0
  4  7  1  0  0  0
 10 13  1  0  0  0
 11 14  1  0  0  0
M  END
> <minimizedAffinity>
-6.20510

$$$$
3C52_PGH_A_404


 14 13  0  0  0  0  0  0  0  0999 V2000
    3.9142    3.5397    6.9313 C   0  0  0  0  0  0  0  0  0  0  0  0
    3.4396    4.9979    6.9233 C   0  0  0  0  0  0  0  0  0  0  0  0
    2.0356    5.3063    6.6824 N   0  0  0  0  0  0  0  0  0  0  0  0
    1.6855    6.3705    5.8353 O   0  0  0  0  0  0  0  0  0  0  0  0
    4.2161    5.8759    7.1137 O   0  0  0  0  0  0  0  0  0  0  0  0
    1.3325    4.7685    7.1134 H   0  0  0  0  0  0  0  0  0  0  0  0
    2.4905    6.7923    5.4964 H   0  0  0  0  0  0  0  0  0  0  0  0
    2.9249    2.7210    6.3610 O   0  0  0  0  0  0  0  0  0  0  0  0
    2.6476    0.0624    6.7381 O   0  0  0  0  0  0  0  0  0  0  0  0
    2.7861    1.0603    4.2384 O   0  0  0  0  0  0  0  0  0  0  0  0
    4.7891    1.0734    5.8080 O   0  0  0  0  0  0  0  0  0  0  0  0
    3.3339    1.2235    5.7868 P   0  0  0  0  0  0  0  0  0  0  0  0
    1.8214    1.1598    4.2246 H   0  0  0  0  0  0  0  0  0  0  0  0
    5.1108    1.1694    6.7180 H   0  0  0  0  0  0  0  0  0  0  0  0
  2  1  1  0  0  0
  2  3  1  0  0  0
  2  5  2  0  0  0
  1  8  1  0  0  0
  3  4  1  0  0  0
  8 12  1  0  0  0
  9 12  2  0  0  0
 10 12  1  0  0  0
 11 12  1  0  0  0
  3  6  1  0  0  0
  4  7  1  0  0  0
 10 13  1  0  0  0
 11 14  1  0  0  0
M  END
> <minimizedAffinity>
-6.02990

$$$$
3C52_PGH_A_404


 14 13  0  0  0  0  0  0  0  0999 V2000
    3.1374    4.8913    6.9751 C   0  0  0  0  0  0  0  0  0  0  0  0
    1.8336    5.3491    6.3100 C   0  0  0  0  0  0  0  0  0  0  0  0
    0.6105    4.5787    6.4969 N   0  0  0  0  0  0  0  0  0  0  0  0
   -0.2410    4.3371    5.4063 O   0  0  0  0  0  0  0  0  0  0  0  0
    1.8207    6.3313    5.6430 O   0  0  0  0  0  0  0  0  0  0  0  0
    0.3811    4.2277    7.3877 H   0  0  0  0  0  0  0  0  0  0  0  0
    0.1291    4.7488    4.6098 H   0  0  0  0  0  0  0  0  0  0  0  0
    4.0770    5.9351    6.9341 O   0  0  0  0  0  0  0  0  0  0  0  0
    4.9186    7.0928    9.2229 O   0  0  0  0  0  0  0  0  0  0  0  0
    5.4651    4.4969    8.7472 O   0  0  0  0  0  0  0  0  0  0  0  0
    6.5440    6.3696    7.4040 O   0  0  0  0  0  0  0  0  0  0  0  0
    5.2921    5.9860    8.0568 P   0  0  0  0  0  0  0  0  0  0  0  0
    4.6350    4.2428    9.1800 H   0  0  0  0  0  0  0  0  0  0  0  0
    6.4422    7.2448    6.9983 H   0  0  0  0  0  0  0  0  0  0  0  0
  2  1  1  0  0  0
  2  3  1  0  0  0
  2  5  2  0  0  0
  1  8  1  0  0  0
  3  4  1  0  0  0
  8 12  1  0  0  0
  9 12  2  0  0  0
 10 12  1  0  0  0
 11 12  1  0  0  0
  3  6  1  0  0  0
  4  7  1  0  0  0
 10 13  1  0  0  0
 11 14  1  0  0  0
M  END
> <minimizedAffinity>
-5.90204

$$$$
