4G0P_U5P_A_801


 26 27  0  0  0  0  0  0  0  0999 V2000
   30.3801   32.4989   42.1905 C   0  0  0  0  0  0  0  0  0  0  0  0
   28.9777   32.4685   42.6238 C   0  0  0  0  0  0  0  0  0  0  0  0
   28.7402   32.1099   43.9533 O   0  0  0  0  0  0  0  0  0  0  0  0
   28.3083   31.6446   41.5901 C   0  0  0  0  0  0  0  0  0  0  0  0
   29.1463   31.8053   40.3583 C   0  0  0  0  0  0  0  0  0  0  0  0
   27.4061   30.5276   41.8574 O   0  0  0  0  0  0  0  0  0  0  0  0
   30.4209   32.2760   40.7674 O   0  0  0  0  0  0  0  0  0  0  0  0
   29.0621   31.2079   44.1073 H   0  0  0  0  0  0  0  0  0  0  0  0
   27.9228   29.7517   42.1256 H   0  0  0  0  0  0  0  0  0  0  0  0
   31.1104   33.6572   42.5897 N   0  0  0  0  0  0  0  0  0  0  0  0
   32.5725   33.7467   42.6764 C   0  0  0  0  0  0  0  0  0  0  0  0
   33.2113   35.0588   42.9383 N   0  0  0  0  0  0  0  0  0  0  0  0
   32.4042   36.2142   43.2740 C   0  0  0  0  0  0  0  0  0  0  0  0
   30.9056   36.1654   43.0954 C   0  0  0  0  0  0  0  0  0  0  0  0
   30.2615   34.8485   42.7377 C   0  0  0  0  0  0  0  0  0  0  0  0
   33.2548   32.7568   42.4584 O   0  0  0  0  0  0  0  0  0  0  0  0
   32.9557   37.2427   43.6315 O   0  0  0  0  0  0  0  0  0  0  0  0
   34.1905   35.1456   42.8838 H   0  0  0  0  0  0  0  0  0  0  0  0
   28.5924   32.2277   39.0340 C   0  0  0  0  0  0  0  0  0  0  0  0
   27.2285   32.4114   39.0308 O   0  0  0  0  0  0  0  0  0  0  0  0
   26.6159   33.8250   38.7885 P   0  0  0  0  0  0  0  0  0  0  0  0
   25.1375   33.8278   39.0747 O   0  0  0  0  0  0  0  0  0  0  0  0
   27.3156   34.8150   39.7571 O   0  0  0  0  0  0  0  0  0  0  0  0
   26.8881   34.2196   37.3054 O   0  0  0  0  0  0  0  0  0  0  0  0
   27.1347   34.5531   40.6734 H   0  0  0  0  0  0  0  0  0  0  0  0
   26.4433   33.5901   36.7165 H   0  0  0  0  0  0  0  0  0  0  0  0
 10 11  1  0  0  0
 10 15  1  0  0  0
 10  1  1  0  0  0
 11 12  1  0  0  0
 11 16  2  0  0  0
 12 13  1  0  0  0
 13 14  1  0  0  0
 13 17  2  0  0  0
 14 15  2  0  0  0
  1  2  1  0  0  0
  1  7  1  0  0  0
  2  3  1  0  0  0
  2  4  1  0  0  0
  4  5  1  0  0  0
  4  6  1  0  0  0
  5  7  1  0  0  0
  5 19  1  0  0  0
 19 20  1  0  0  0
 20 21  1  0  0  0
 21 22  2  0  0  0
 21 23  1  0  0  0
 21 24  1  0  0  0
 12 18  1  0  0  0
  3  8  1  0  0  0
  6  9  1  0  0  0
 23 25  1  0  0  0
 24 26  1  0  0  0
M  END
> <minimizedAffinity>
-6.55433

$$$$
4G0P_U5P_A_801


 26 27  0  0  0  0  0  0  0  0999 V2000
   28.2411   33.4460   40.8877 C   0  0  0  0  0  0  0  0  0  0  0  0
   28.6732   32.1820   41.4968 C   0  0  0  0  0  0  0  0  0  0  0  0
   27.7414   31.1409   41.5080 O   0  0  0  0  0  0  0  0  0  0  0  0
   29.2163   32.5936   42.8126 C   0  0  0  0  0  0  0  0  0  0  0  0
   29.6622   34.0119   42.6256 C   0  0  0  0  0  0  0  0  0  0  0  0
   28.8804   31.9762   44.0929 O   0  0  0  0  0  0  0  0  0  0  0  0
   29.0057   34.5177   41.4738 O   0  0  0  0  0  0  0  0  0  0  0  0
   26.9652   31.4072   42.0252 H   0  0  0  0  0  0  0  0  0  0  0  0
   28.0013   32.2740   44.3747 H   0  0  0  0  0  0  0  0  0  0  0  0
   28.2624   33.4674   39.4618 N   0  0  0  0  0  0  0  0  0  0  0  0
   27.0867   33.6414   38.6011 C   0  0  0  0  0  0  0  0  0  0  0  0
   27.2687   33.8172   37.1401 N   0  0  0  0  0  0  0  0  0  0  0  0
   28.5760   33.6517   36.5381 C   0  0  0  0  0  0  0  0  0  0  0  0
   29.8044   33.5697   37.4123 C   0  0  0  0  0  0  0  0  0  0  0  0
   29.6243   33.4834   38.9081 C   0  0  0  0  0  0  0  0  0  0  0  0
   25.9744   33.7152   39.1012 O   0  0  0  0  0  0  0  0  0  0  0  0
   28.6761   33.6523   35.3216 O   0  0  0  0  0  0  0  0  0  0  0  0
   26.4959   34.0480   36.5754 H   0  0  0  0  0  0  0  0  0  0  0  0
   31.0372   34.4951   42.9647 C   0  0  0  0  0  0  0  0  0  0  0  0
   31.0649   35.7443   43.5415 O   0  0  0  0  0  0  0  0  0  0  0  0
   31.3232   37.0156   42.6759 P   0  0  0  0  0  0  0  0  0  0  0  0
   30.2512   38.0487   42.9026 O   0  0  0  0  0  0  0  0  0  0  0  0
   32.6905   37.6098   43.1062 O   0  0  0  0  0  0  0  0  0  0  0  0
   31.3574   36.5802   41.1797 O   0  0  0  0  0  0  0  0  0  0  0  0
   32.6492   37.8742   44.0385 H   0  0  0  0  0  0  0  0  0  0  0  0
   30.4954   36.2121   40.9303 H   0  0  0  0  0  0  0  0  0  0  0  0
 10 11  1  0  0  0
 10 15  1  0  0  0
 10  1  1  0  0  0
 11 12  1  0  0  0
 11 16  2  0  0  0
 12 13  1  0  0  0
 13 14  1  0  0  0
 13 17  2  0  0  0
 14 15  2  0  0  0
  1  2  1  0  0  0
  1  7  1  0  0  0
  2  3  1  0  0  0
  2  4  1  0  0  0
  4  5  1  0  0  0
  4  6  1  0  0  0
  5  7  1  0  0  0
  5 19  1  0  0  0
 19 20  1  0  0  0
 20 21  1  0  0  0
 21 22  2  0  0  0
 21 23  1  0  0  0
 21 24  1  0  0  0
 12 18  1  0  0  0
  3  8  1  0  0  0
  6  9  1  0  0  0
 23 25  1  0  0  0
 24 26  1  0  0  0
M  END
> <minimizedAffinity>
-6.02884

$$$$
4G0P_U5P_A_801


 26 27  0  0  0  0  0  0  0  0999 V2000
   28.1264   31.0223   39.0398 C   0  0  0  0  0  0  0  0  0  0  0  0
   28.9893   31.1813   37.8627 C   0  0  0  0  0  0  0  0  0  0  0  0
   28.6551   32.2070   36.9746 O   0  0  0  0  0  0  0  0  0  0  0  0
   29.0622   29.8153   37.2933 C   0  0  0  0  0  0  0  0  0  0  0  0
   28.8264   28.8951   38.4523 C   0  0  0  0  0  0  0  0  0  0  0  0
   28.8489   29.4757   35.8889 O   0  0  0  0  0  0  0  0  0  0  0  0
   28.2048   29.6521   39.4790 O   0  0  0  0  0  0  0  0  0  0  0  0
   27.7720   32.0427   36.6084 H   0  0  0  0  0  0  0  0  0  0  0  0
   27.8992   29.4952   35.6922 H   0  0  0  0  0  0  0  0  0  0  0  0
   28.3636   31.9547   40.0927 N   0  0  0  0  0  0  0  0  0  0  0  0
   28.0145   33.3794   40.0552 C   0  0  0  0  0  0  0  0  0  0  0  0
   28.1586   34.2009   41.2811 N   0  0  0  0  0  0  0  0  0  0  0  0
   28.7953   33.6527   42.4613 C   0  0  0  0  0  0  0  0  0  0  0  0
   29.0706   32.1708   42.5508 C   0  0  0  0  0  0  0  0  0  0  0  0
   28.8366   31.3158   41.3296 C   0  0  0  0  0  0  0  0  0  0  0  0
   27.5379   33.8606   39.0383 O   0  0  0  0  0  0  0  0  0  0  0  0
   29.0380   34.3893   43.4039 O   0  0  0  0  0  0  0  0  0  0  0  0
   27.8192   35.1250   41.2932 H   0  0  0  0  0  0  0  0  0  0  0  0
   29.7486   27.7741   38.8155 C   0  0  0  0  0  0  0  0  0  0  0  0
   29.1540   26.5331   38.8003 O   0  0  0  0  0  0  0  0  0  0  0  0
   29.4590   25.5179   37.6564 P   0  0  0  0  0  0  0  0  0  0  0  0
   30.7466   25.8651   36.9569 O   0  0  0  0  0  0  0  0  0  0  0  0
   29.6009   24.1123   38.2982 O   0  0  0  0  0  0  0  0  0  0  0  0
   28.2653   25.5486   36.6547 O   0  0  0  0  0  0  0  0  0  0  0  0
   30.3477   24.1134   38.9173 H   0  0  0  0  0  0  0  0  0  0  0  0
   28.1931   26.4338   36.2648 H   0  0  0  0  0  0  0  0  0  0  0  0
 10 11  1  0  0  0
 10 15  1  0  0  0
 10  1  1  0  0  0
 11 12  1  0  0  0
 11 16  2  0  0  0
 12 13  1  0  0  0
 13 14  1  0  0  0
 13 17  2  0  0  0
 14 15  2  0  0  0
  1  2  1  0  0  0
  1  7  1  0  0  0
  2  3  1  0  0  0
  2  4  1  0  0  0
  4  5  1  0  0  0
  4  6  1  0  0  0
  5  7  1  0  0  0
  5 19  1  0  0  0
 19 20  1  0  0  0
 20 21  1  0  0  0
 21 22  2  0  0  0
 21 23  1  0  0  0
 21 24  1  0  0  0
 12 18  1  0  0  0
  3  8  1  0  0  0
  6  9  1  0  0  0
 23 25  1  0  0  0
 24 26  1  0  0  0
M  END
> <minimizedAffinity>
-5.88799

$$$$
4G0P_U5P_A_801


 26 27  0  0  0  0  0  0  0  0999 V2000
   29.3741   28.8618   38.9674 C   0  0  0  0  0  0  0  0  0  0  0  0
   30.4949   29.7917   39.1532 C   0  0  0  0  0  0  0  0  0  0  0  0
   31.7728   29.2294   39.2108 O   0  0  0  0  0  0  0  0  0  0  0  0
   30.0828   30.6105   40.3173 C   0  0  0  0  0  0  0  0  0  0  0  0
   28.5848   30.5742   40.3107 C   0  0  0  0  0  0  0  0  0  0  0  0
   30.9151   30.8962   41.4830 O   0  0  0  0  0  0  0  0  0  0  0  0
   28.1880   29.4629   39.5226 O   0  0  0  0  0  0  0  0  0  0  0  0
   31.8274   28.6279   39.9698 H   0  0  0  0  0  0  0  0  0  0  0  0
   30.9463   30.1151   42.0572 H   0  0  0  0  0  0  0  0  0  0  0  0
   29.1865   28.4017   37.6304 N   0  0  0  0  0  0  0  0  0  0  0  0
   28.8802   27.0188   37.2472 C   0  0  0  0  0  0  0  0  0  0  0  0
   28.5397   26.7080   35.8380 N   0  0  0  0  0  0  0  0  0  0  0  0
   28.6701   27.7212   34.8107 C   0  0  0  0  0  0  0  0  0  0  0  0
   28.8882   29.1643   35.1977 C   0  0  0  0  0  0  0  0  0  0  0  0
   29.1439   29.4946   36.6478 C   0  0  0  0  0  0  0  0  0  0  0  0
   28.8344   26.1481   38.1032 O   0  0  0  0  0  0  0  0  0  0  0  0
   28.5300   27.4046   33.6403 O   0  0  0  0  0  0  0  0  0  0  0  0
   28.2229   25.8070   35.5987 H   0  0  0  0  0  0  0  0  0  0  0  0
   27.7305   31.8023   40.3400 C   0  0  0  0  0  0  0  0  0  0  0  0
   27.3311   32.2359   39.0963 O   0  0  0  0  0  0  0  0  0  0  0  0
   26.8420   33.7013   38.8831 P   0  0  0  0  0  0  0  0  0  0  0  0
   26.9042   34.0838   37.4278 O   0  0  0  0  0  0  0  0  0  0  0  0
   25.3673   33.7807   39.3592 O   0  0  0  0  0  0  0  0  0  0  0  0
   27.7480   34.6400   39.7359 O   0  0  0  0  0  0  0  0  0  0  0  0
   24.8203   33.1907   38.8173 H   0  0  0  0  0  0  0  0  0  0  0  0
   28.6641   34.5764   39.4235 H   0  0  0  0  0  0  0  0  0  0  0  0
 10 11  1  0  0  0
 10 15  1  0  0  0
 10  1  1  0  0  0
 11 12  1  0  0  0
 11 16  2  0  0  0
 12 13  1  0  0  0
 13 14  1  0  0  0
 13 17  2  0  0  0
 14 15  2  0  0  0
  1  2  1  0  0  0
  1  7  1  0  0  0
  2  3  1  0  0  0
  2  4  1  0  0  0
  4  5  1  0  0  0
  4  6  1  0  0  0
  5  7  1  0  0  0
  5 19  1  0  0  0
 19 20  1  0  0  0
 20 21  1  0  0  0
 21 22  2  0  0  0
 21 23  1  0  0  0
 21 24  1  0  0  0
 12 18  1  0  0  0
  3  8  1  0  0  0
  6  9  1  0  0  0
 23 25  1  0  0  0
 24 26  1  0  0  0
M  END
> <minimizedAffinity>
-5.80382

$$$$
4G0P_U5P_A_801


 26 27  0  0  0  0  0  0  0  0999 V2000
   30.5292   33.3877   42.7536 C   0  0  0  0  0  0  0  0  0  0  0  0
   29.0976   33.3710   42.4285 C   0  0  0  0  0  0  0  0  0  0  0  0
   28.2190   33.7443   43.4489 O   0  0  0  0  0  0  0  0  0  0  0  0
   28.8872   32.0290   41.8368 C   0  0  0  0  0  0  0  0  0  0  0  0
   30.2179   31.6386   41.2689 C   0  0  0  0  0  0  0  0  0  0  0  0
   27.8244   31.1002   42.2121 O   0  0  0  0  0  0  0  0  0  0  0  0
   31.2021   32.4501   41.8906 O   0  0  0  0  0  0  0  0  0  0  0  0
   28.3068   33.1279   44.1927 H   0  0  0  0  0  0  0  0  0  0  0  0
   28.0457   30.6805   43.0582 H   0  0  0  0  0  0  0  0  0  0  0  0
   31.1351   34.6789   42.7460 N   0  0  0  0  0  0  0  0  0  0  0  0
   32.3368   35.0535   43.5002 C   0  0  0  0  0  0  0  0  0  0  0  0
   32.9619   36.3782   43.2705 N   0  0  0  0  0  0  0  0  0  0  0  0
   32.3054   37.3651   42.4374 C   0  0  0  0  0  0  0  0  0  0  0  0
   31.1269   36.9665   41.5817 C   0  0  0  0  0  0  0  0  0  0  0  0
   30.5456   35.5839   41.7485 C   0  0  0  0  0  0  0  0  0  0  0  0
   32.8559   34.2449   44.2549 O   0  0  0  0  0  0  0  0  0  0  0  0
   32.7602   38.4965   42.3832 O   0  0  0  0  0  0  0  0  0  0  0  0
   33.8290   36.5885   43.6867 H   0  0  0  0  0  0  0  0  0  0  0  0
   30.4118   31.1956   39.8529 C   0  0  0  0  0  0  0  0  0  0  0  0
   30.2150   29.8478   39.6564 O   0  0  0  0  0  0  0  0  0  0  0  0
   28.9772   29.3315   38.8605 P   0  0  0  0  0  0  0  0  0  0  0  0
   27.6944   29.7266   39.5432 O   0  0  0  0  0  0  0  0  0  0  0  0
   29.0164   29.9824   37.4524 O   0  0  0  0  0  0  0  0  0  0  0  0
   29.0864   27.7803   38.7540 O   0  0  0  0  0  0  0  0  0  0  0  0
   28.9474   30.9460   37.5396 H   0  0  0  0  0  0  0  0  0  0  0  0
   29.0601   27.3926   39.6428 H   0  0  0  0  0  0  0  0  0  0  0  0
 10 11  1  0  0  0
 10 15  1  0  0  0
 10  1  1  0  0  0
 11 12  1  0  0  0
 11 16  2  0  0  0
 12 13  1  0  0  0
 13 14  1  0  0  0
 13 17  2  0  0  0
 14 15  2  0  0  0
  1  2  1  0  0  0
  1  7  1  0  0  0
  2  3  1  0  0  0
  2  4  1  0  0  0
  4  5  1  0  0  0
  4  6  1  0  0  0
  5  7  1  0  0  0
  5 19  1  0  0  0
 19 20  1  0  0  0
 20 21  1  0  0  0
 21 22  2  0  0  0
 21 23  1  0  0  0
 21 24  1  0  0  0
 12 18  1  0  0  0
  3  8  1  0  0  0
  6  9  1  0  0  0
 23 25  1  0  0  0
 24 26  1  0  0  0
M  END
> <minimizedAffinity>
-5.61790

$$$$
4G0P_U5P_A_801


 26 27  0  0  0  0  0  0  0  0999 V2000
   30.4106   33.1148   41.9987 C   0  0  0  0  0  0  0  0  0  0  0  0
   28.9427   33.1134   42.0254 C   0  0  0  0  0  0  0  0  0  0  0  0
   28.3386   33.2569   43.2772 O   0  0  0  0  0  0  0  0  0  0  0  0
   28.5783   31.9023   41.2535 C   0  0  0  0  0  0  0  0  0  0  0  0
   29.7292   31.6708   40.3221 C   0  0  0  0  0  0  0  0  0  0  0  0
   27.6232   30.8848   41.6842 O   0  0  0  0  0  0  0  0  0  0  0  0
   30.8446   32.3810   40.8369 O   0  0  0  0  0  0  0  0  0  0  0  0
   28.5930   32.5135   43.8461 H   0  0  0  0  0  0  0  0  0  0  0  0
   28.0343   30.3193   42.3565 H   0  0  0  0  0  0  0  0  0  0  0  0
   31.0150   34.4030   42.0963 N   0  0  0  0  0  0  0  0  0  0  0  0
   30.6802   35.5599   41.2581 C   0  0  0  0  0  0  0  0  0  0  0  0
   31.2599   36.8869   41.5766 N   0  0  0  0  0  0  0  0  0  0  0  0
   32.2784   37.0168   42.5987 C   0  0  0  0  0  0  0  0  0  0  0  0
   32.5629   35.8638   43.5312 C   0  0  0  0  0  0  0  0  0  0  0  0
   31.9010   34.5346   43.2624 C   0  0  0  0  0  0  0  0  0  0  0  0
   29.8699   35.4381   40.3517 O   0  0  0  0  0  0  0  0  0  0  0  0
   32.8474   38.0874   42.7403 O   0  0  0  0  0  0  0  0  0  0  0  0
   30.9507   37.6851   41.0902 H   0  0  0  0  0  0  0  0  0  0  0  0
   29.5729   31.5118   38.8425 C   0  0  0  0  0  0  0  0  0  0  0  0
   28.4122   32.0550   38.3409 O   0  0  0  0  0  0  0  0  0  0  0  0
   28.4588   33.2698   37.3641 P   0  0  0  0  0  0  0  0  0  0  0  0
   28.6873   32.8137   35.9472 O   0  0  0  0  0  0  0  0  0  0  0  0
   27.0874   33.9917   37.4428 O   0  0  0  0  0  0  0  0  0  0  0  0
   29.6073   34.2162   37.8274 O   0  0  0  0  0  0  0  0  0  0  0  0
   26.3868   33.3876   37.1511 H   0  0  0  0  0  0  0  0  0  0  0  0
   30.4548   33.7477   37.7711 H   0  0  0  0  0  0  0  0  0  0  0  0
 10 11  1  0  0  0
 10 15  1  0  0  0
 10  1  1  0  0  0
 11 12  1  0  0  0
 11 16  2  0  0  0
 12 13  1  0  0  0
 13 14  1  0  0  0
 13 17  2  0  0  0
 14 15  2  0  0  0
  1  2  1  0  0  0
  1  7  1  0  0  0
  2  3  1  0  0  0
  2  4  1  0  0  0
  4  5  1  0  0  0
  4  6  1  0  0  0
  5  7  1  0  0  0
  5 19  1  0  0  0
 19 20  1  0  0  0
 20 21  1  0  0  0
 21 22  2  0  0  0
 21 23  1  0  0  0
 21 24  1  0  0  0
 12 18  1  0  0  0
  3  8  1  0  0  0
  6  9  1  0  0  0
 23 25  1  0  0  0
 24 26  1  0  0  0
M  END
> <minimizedAffinity>
-5.58821

$$$$
4G0P_U5P_A_801


 26 27  0  0  0  0  0  0  0  0999 V2000
   29.8801   30.1469   38.2467 C   0  0  0  0  0  0  0  0  0  0  0  0
   30.4879   29.2787   39.2627 C   0  0  0  0  0  0  0  0  0  0  0  0
   31.7158   29.6916   39.7865 O   0  0  0  0  0  0  0  0  0  0  0  0
   30.4561   27.9342   38.6407 C   0  0  0  0  0  0  0  0  0  0  0  0
   29.3110   27.9766   37.6751 C   0  0  0  0  0  0  0  0  0  0  0  0
   31.5867   27.0123   38.5694 O   0  0  0  0  0  0  0  0  0  0  0  0
   29.0220   29.3414   37.4151 O   0  0  0  0  0  0  0  0  0  0  0  0
   32.3739   29.7311   39.0750 H   0  0  0  0  0  0  0  0  0  0  0  0
   32.2001   27.3059   37.8777 H   0  0  0  0  0  0  0  0  0  0  0  0
   29.2252   31.3066   38.7569 N   0  0  0  0  0  0  0  0  0  0  0  0
   27.9721   31.3030   39.5205 C   0  0  0  0  0  0  0  0  0  0  0  0
   27.4887   32.5603   40.1399 N   0  0  0  0  0  0  0  0  0  0  0  0
   28.1498   33.8185   39.8588 C   0  0  0  0  0  0  0  0  0  0  0  0
   29.4880   33.8280   39.1596 C   0  0  0  0  0  0  0  0  0  0  0  0
   30.0262   32.5305   38.6081 C   0  0  0  0  0  0  0  0  0  0  0  0
   27.3764   30.2520   39.7035 O   0  0  0  0  0  0  0  0  0  0  0  0
   27.6475   34.8574   40.2568 O   0  0  0  0  0  0  0  0  0  0  0  0
   26.7133   32.5402   40.7463 H   0  0  0  0  0  0  0  0  0  0  0  0
   28.2025   26.9717   37.6666 C   0  0  0  0  0  0  0  0  0  0  0  0
   28.3244   26.0123   36.6875 O   0  0  0  0  0  0  0  0  0  0  0  0
   29.2744   24.7911   36.8831 P   0  0  0  0  0  0  0  0  0  0  0  0
   30.5916   25.0162   36.1887 O   0  0  0  0  0  0  0  0  0  0  0  0
   29.5313   24.6320   38.4051 O   0  0  0  0  0  0  0  0  0  0  0  0
   28.5609   23.5296   36.3096 O   0  0  0  0  0  0  0  0  0  0  0  0
   29.9752   25.4256   38.7428 H   0  0  0  0  0  0  0  0  0  0  0  0
   28.4093   23.6481   35.3589 H   0  0  0  0  0  0  0  0  0  0  0  0
 10 11  1  0  0  0
 10 15  1  0  0  0
 10  1  1  0  0  0
 11 12  1  0  0  0
 11 16  2  0  0  0
 12 13  1  0  0  0
 13 14  1  0  0  0
 13 17  2  0  0  0
 14 15  2  0  0  0
  1  2  1  0  0  0
  1  7  1  0  0  0
  2  3  1  0  0  0
  2  4  1  0  0  0
  4  5  1  0  0  0
  4  6  1  0  0  0
  5  7  1  0  0  0
  5 19  1  0  0  0
 19 20  1  0  0  0
 20 21  1  0  0  0
 21 22  2  0  0  0
 21 23  1  0  0  0
 21 24  1  0  0  0
 12 18  1  0  0  0
  3  8  1  0  0  0
  6  9  1  0  0  0
 23 25  1  0  0  0
 24 26  1  0  0  0
M  END
> <minimizedAffinity>
-5.54885

$$$$
4G0P_U5P_A_801


 26 27  0  0  0  0  0  0  0  0999 V2000
   29.6257   29.1279   39.2041 C   0  0  0  0  0  0  0  0  0  0  0  0
   30.8568   29.9076   39.3817 C   0  0  0  0  0  0  0  0  0  0  0  0
   32.0540   29.1881   39.4227 O   0  0  0  0  0  0  0  0  0  0  0  0
   30.5637   30.7651   40.5540 C   0  0  0  0  0  0  0  0  0  0  0  0
   29.0731   30.9184   40.5638 C   0  0  0  0  0  0  0  0  0  0  0  0
   31.4374   30.9365   41.7117 O   0  0  0  0  0  0  0  0  0  0  0  0
   28.5309   29.8708   39.7751 O   0  0  0  0  0  0  0  0  0  0  0  0
   32.0400   28.5800   40.1783 H   0  0  0  0  0  0  0  0  0  0  0  0
   31.3756   30.1543   42.2821 H   0  0  0  0  0  0  0  0  0  0  0  0
   29.3676   28.7031   37.8672 N   0  0  0  0  0  0  0  0  0  0  0  0
   29.0232   27.3341   37.4666 C   0  0  0  0  0  0  0  0  0  0  0  0
   28.6111   27.0623   36.0684 N   0  0  0  0  0  0  0  0  0  0  0  0
   28.7069   28.0984   35.0604 C   0  0  0  0  0  0  0  0  0  0  0  0
   28.9643   29.5286   35.4705 C   0  0  0  0  0  0  0  0  0  0  0  0
   29.2939   29.8200   36.9139 C   0  0  0  0  0  0  0  0  0  0  0  0
   29.0057   26.4435   38.3029 O   0  0  0  0  0  0  0  0  0  0  0  0
   28.5063   27.8123   33.8909 O   0  0  0  0  0  0  0  0  0  0  0  0
   28.2701   26.1718   35.8235 H   0  0  0  0  0  0  0  0  0  0  0  0
   28.3812   32.2444   40.6080 C   0  0  0  0  0  0  0  0  0  0  0  0
   29.1609   33.2663   41.0999 O   0  0  0  0  0  0  0  0  0  0  0  0
   29.0125   33.7405   42.5781 P   0  0  0  0  0  0  0  0  0  0  0  0
   28.7164   32.5788   43.4895 O   0  0  0  0  0  0  0  0  0  0  0  0
   30.3593   34.3819   43.0055 O   0  0  0  0  0  0  0  0  0  0  0  0
   27.8603   34.7887   42.6339 O   0  0  0  0  0  0  0  0  0  0  0  0
   31.0625   33.7150   42.9643 H   0  0  0  0  0  0  0  0  0  0  0  0
   27.0284   34.3694   42.3638 H   0  0  0  0  0  0  0  0  0  0  0  0
 10 11  1  0  0  0
 10 15  1  0  0  0
 10  1  1  0  0  0
 11 12  1  0  0  0
 11 16  2  0  0  0
 12 13  1  0  0  0
 13 14  1  0  0  0
 13 17  2  0  0  0
 14 15  2  0  0  0
  1  2  1  0  0  0
  1  7  1  0  0  0
  2  3  1  0  0  0
  2  4  1  0  0  0
  4  5  1  0  0  0
  4  6  1  0  0  0
  5  7  1  0  0  0
  5 19  1  0  0  0
 19 20  1  0  0  0
 20 21  1  0  0  0
 21 22  2  0  0  0
 21 23  1  0  0  0
 21 24  1  0  0  0
 12 18  1  0  0  0
  3  8  1  0  0  0
  6  9  1  0  0  0
 23 25  1  0  0  0
 24 26  1  0  0  0
M  END
> <minimizedAffinity>
-5.49311

$$$$
4G0P_U5P_A_801


 26 27  0  0  0  0  0  0  0  0999 V2000
   28.9643   32.8920   41.5127 C   0  0  0  0  0  0  0  0  0  0  0  0
   28.4901   33.6100   40.3231 C   0  0  0  0  0  0  0  0  0  0  0  0
   28.3193   34.9909   40.4512 O   0  0  0  0  0  0  0  0  0  0  0  0
   27.3005   32.8363   39.8967 C   0  0  0  0  0  0  0  0  0  0  0  0
   27.5348   31.4463   40.4052 C   0  0  0  0  0  0  0  0  0  0  0  0
   25.9962   33.4076   39.5720 O   0  0  0  0  0  0  0  0  0  0  0  0
   28.5158   31.5252   41.4274 O   0  0  0  0  0  0  0  0  0  0  0  0
   27.6488   35.1723   41.1283 H   0  0  0  0  0  0  0  0  0  0  0  0
   25.5344   33.6454   40.3912 H   0  0  0  0  0  0  0  0  0  0  0  0
   30.3640   32.9997   41.7648 N   0  0  0  0  0  0  0  0  0  0  0  0
   31.0043   34.0713   42.5360 C   0  0  0  0  0  0  0  0  0  0  0  0
   32.4457   33.9726   42.8692 N   0  0  0  0  0  0  0  0  0  0  0  0
   33.2599   32.9178   42.3006 C   0  0  0  0  0  0  0  0  0  0  0  0
   32.6041   31.7588   41.5890 C   0  0  0  0  0  0  0  0  0  0  0  0
   31.1185   31.8151   41.3299 C   0  0  0  0  0  0  0  0  0  0  0  0
   30.3311   34.9980   42.9615 O   0  0  0  0  0  0  0  0  0  0  0  0
   34.4689   32.9430   42.4671 O   0  0  0  0  0  0  0  0  0  0  0  0
   32.8522   34.6283   43.4809 H   0  0  0  0  0  0  0  0  0  0  0  0
   27.4676   30.2291   39.5376 C   0  0  0  0  0  0  0  0  0  0  0  0
   28.6909   29.6479   39.2932 O   0  0  0  0  0  0  0  0  0  0  0  0
   28.7992   28.3524   38.4317 P   0  0  0  0  0  0  0  0  0  0  0  0
   28.9764   28.6877   36.9743 O   0  0  0  0  0  0  0  0  0  0  0  0
   30.0437   27.5641   38.9192 O   0  0  0  0  0  0  0  0  0  0  0  0
   27.4995   27.5200   38.6488 O   0  0  0  0  0  0  0  0  0  0  0  0
   30.8410   28.0977   38.7760 H   0  0  0  0  0  0  0  0  0  0  0  0
   26.7341   28.0288   38.3385 H   0  0  0  0  0  0  0  0  0  0  0  0
 10 11  1  0  0  0
 10 15  1  0  0  0
 10  1  1  0  0  0
 11 12  1  0  0  0
 11 16  2  0  0  0
 12 13  1  0  0  0
 13 14  1  0  0  0
 13 17  2  0  0  0
 14 15  2  0  0  0
  1  2  1  0  0  0
  1  7  1  0  0  0
  2  3  1  0  0  0
  2  4  1  0  0  0
  4  5  1  0  0  0
  4  6  1  0  0  0
  5  7  1  0  0  0
  5 19  1  0  0  0
 19 20  1  0  0  0
 20 21  1  0  0  0
 21 22  2  0  0  0
 21 23  1  0  0  0
 21 24  1  0  0  0
 12 18  1  0  0  0
  3  8  1  0  0  0
  6  9  1  0  0  0
 23 25  1  0  0  0
 24 26  1  0  0  0
M  END
> <minimizedAffinity>
-5.44300

$$$$
4G0P_U5P_A_801


 26 27  0  0  0  0  0  0  0  0999 V2000
   29.0350   30.1111   38.7096 C   0  0  0  0  0  0  0  0  0  0  0  0
   28.1492   30.4122   39.8410 C   0  0  0  0  0  0  0  0  0  0  0  0
   26.9401   29.7137   39.8934 O   0  0  0  0  0  0  0  0  0  0  0  0
   28.0552   31.8909   39.8300 C   0  0  0  0  0  0  0  0  0  0  0  0
   29.3236   32.3589   39.1837 C   0  0  0  0  0  0  0  0  0  0  0  0
   26.8137   32.6565   39.9049 O   0  0  0  0  0  0  0  0  0  0  0  0
   29.8658   31.2627   38.4640 O   0  0  0  0  0  0  0  0  0  0  0  0
   26.4112   29.9234   39.1078 H   0  0  0  0  0  0  0  0  0  0  0  0
   26.3666   32.6325   39.0444 H   0  0  0  0  0  0  0  0  0  0  0  0
   29.7855   28.9048   38.8347 N   0  0  0  0  0  0  0  0  0  0  0  0
   29.2555   27.5532   38.6209 C   0  0  0  0  0  0  0  0  0  0  0  0
   30.1825   26.3960   38.6144 N   0  0  0  0  0  0  0  0  0  0  0  0
   31.5733   26.5676   38.9819 C   0  0  0  0  0  0  0  0  0  0  0  0
   32.1545   27.9554   39.1091 C   0  0  0  0  0  0  0  0  0  0  0  0
   31.2244   29.1406   39.0237 C   0  0  0  0  0  0  0  0  0  0  0  0
   28.0685   27.3988   38.3758 O   0  0  0  0  0  0  0  0  0  0  0  0
   32.2804   25.5816   39.1151 O   0  0  0  0  0  0  0  0  0  0  0  0
   29.8506   25.5051   38.3587 H   0  0  0  0  0  0  0  0  0  0  0  0
   30.2430   33.3631   39.8043 C   0  0  0  0  0  0  0  0  0  0  0  0
   29.6079   34.4944   40.2635 O   0  0  0  0  0  0  0  0  0  0  0  0
   29.4011   34.7268   41.7917 P   0  0  0  0  0  0  0  0  0  0  0  0
   29.8394   36.1112   42.1904 O   0  0  0  0  0  0  0  0  0  0  0  0
   27.8862   34.5753   42.0914 O   0  0  0  0  0  0  0  0  0  0  0  0
   30.2253   33.6487   42.5583 O   0  0  0  0  0  0  0  0  0  0  0  0
   27.3911   35.2538   41.6061 H   0  0  0  0  0  0  0  0  0  0  0  0
   31.1680   33.7597   42.3583 H   0  0  0  0  0  0  0  0  0  0  0  0
 10 11  1  0  0  0
 10 15  1  0  0  0
 10  1  1  0  0  0
 11 12  1  0  0  0
 11 16  2  0  0  0
 12 13  1  0  0  0
 13 14  1  0  0  0
 13 17  2  0  0  0
 14 15  2  0  0  0
  1  2  1  0  0  0
  1  7  1  0  0  0
  2  3  1  0  0  0
  2  4  1  0  0  0
  4  5  1  0  0  0
  4  6  1  0  0  0
  5  7  1  0  0  0
  5 19  1  0  0  0
 19 20  1  0  0  0
 20 21  1  0  0  0
 21 22  2  0  0  0
 21 23  1  0  0  0
 21 24  1  0  0  0
 12 18  1  0  0  0
  3  8  1  0  0  0
  6  9  1  0  0  0
 23 25  1  0  0  0
 24 26  1  0  0  0
M  END
> <minimizedAffinity>
-5.38934

$$$$
