1XH5_R68_A_1001


 48 52  0  0  0  0  0  0  0  0999 V2000
   12.7045   12.2100    1.1655 C   0  0  0  0  0  0  0  0  0  0  0  0
   12.9539   13.5736    0.8999 C   0  0  0  0  0  0  0  0  0  0  0  0
   13.8491   13.9552   -0.0898 C   0  0  0  0  0  0  0  0  0  0  0  0
   13.4195   11.2411    0.4419 C   0  0  0  0  0  0  0  0  0  0  0  0
   14.3287   11.6266   -0.5280 C   0  0  0  0  0  0  0  0  0  0  0  0
   14.5234   12.9786   -0.8336 C   0  0  0  0  0  0  0  0  0  0  0  0
   11.2081   10.6150    2.3200 N   0  0  0  0  0  0  0  0  0  0  0  0
   11.8388   11.8396    2.2838 C   0  0  0  0  0  0  0  0  0  0  0  0
   11.8142   12.5482    3.3021 O   0  0  0  0  0  0  0  0  0  0  0  0
   11.1331   10.1148    1.4754 H   0  0  0  0  0  0  0  0  0  0  0  0
    9.7077    8.8310    3.1471 C   0  0  0  0  0  0  0  0  0  0  0  0
   10.0905    7.4354    3.6539 C   0  0  0  0  0  0  0  0  0  0  0  0
   11.3839    7.0014    3.1238 N   0  0  0  0  0  0  0  0  0  0  0  0
   12.5420    7.3145    4.0242 C   0  0  0  0  0  0  0  0  0  0  0  0
   12.8836    8.7920    3.9436 C   0  0  0  0  0  0  0  0  0  0  0  0
   11.7714    9.7075    4.5291 C   0  0  0  0  0  0  0  0  0  0  0  0
   10.6485   10.0115    3.5087 C   0  0  0  0  0  0  0  0  0  0  0  0
   11.5373    7.4663    2.2289 H   0  0  0  0  0  0  0  0  0  0  0  0
    7.5257    9.7386    1.7029 O   0  0  0  0  0  0  0  0  0  0  0  0
    7.2872    9.4766    2.8970 C   0  0  0  0  0  0  0  0  0  0  0  0
    8.3516    9.0661    3.6867 N   0  0  0  0  0  0  0  0  0  0  0  0
    8.1969    8.9252    4.6487 H   0  0  0  0  0  0  0  0  0  0  0  0
    5.9201    9.5684    3.4777 C   0  0  0  0  0  0  0  0  0  0  0  0
    4.8078    9.1846    2.6955 C   0  0  0  0  0  0  0  0  0  0  0  0
    3.5171    9.2526    3.2315 C   0  0  0  0  0  0  0  0  0  0  0  0
    3.3239    9.5975    4.5096 N   0  0  0  0  0  0  0  0  0  0  0  0
    4.3468    9.9473    5.2759 C   0  0  0  0  0  0  0  0  0  0  0  0
    5.6671    9.9789    4.7970 C   0  0  0  0  0  0  0  0  0  0  0  0
   15.5591   13.3350   -1.8048 C   0  0  0  0  0  0  0  0  0  0  0  0
   16.2333   14.3721   -1.5973 O   0  0  0  0  0  0  0  0  0  0  0  0
   15.9617   12.3956   -2.8528 C   0  0  0  0  0  0  0  0  0  0  0  0
   15.2385   12.2533   -4.0181 C   0  0  0  0  0  0  0  0  0  0  0  0
   14.1809   13.0611   -4.1158 O   0  0  0  0  0  0  0  0  0  0  0  0
   15.5924   11.3674   -5.0270 C   0  0  0  0  0  0  0  0  0  0  0  0
   16.7230   10.5654   -4.8567 C   0  0  0  0  0  0  0  0  0  0  0  0
   17.4769   10.6397   -3.6680 C   0  0  0  0  0  0  0  0  0  0  0  0
   17.0654   11.5685   -2.7147 C   0  0  0  0  0  0  0  0  0  0  0  0
   17.7463   11.6974   -1.5828 F   0  0  0  0  0  0  0  0  0  0  0  0
   13.9722   13.6464   -3.4145 H   0  0  0  0  0  0  0  0  0  0  0  0
   18.7207    9.7850   -3.4809 C   0  0  0  0  0  0  0  0  0  0  0  0
   20.0555   10.5154   -3.8933 C   0  0  0  0  0  0  0  0  0  0  0  0
   20.3518   11.7896   -3.0472 C   0  0  0  0  0  0  0  0  0  0  0  0
   20.0200   10.8883   -5.3656 C   0  0  0  0  0  0  0  0  0  0  0  0
   21.2602    9.5518   -3.7000 C   0  0  0  0  0  0  0  0  0  0  0  0
   21.2659    8.8833   -2.2989 C   0  0  0  0  0  0  0  0  0  0  0  0
   19.8866    8.2484   -1.9719 C   0  0  0  0  0  0  0  0  0  0  0  0
   18.7691    9.2421   -2.0931 N   0  0  0  0  0  0  0  0  0  0  0  0
   17.8838    8.7833   -1.8784 H   0  0  0  0  0  0  0  0  0  0  0  0
 19 20  2  0  0  0
 20 23  1  0  0  0
 20 21  1  0  0  0
 23 24  2  0  0  0
 23 28  1  0  0  0
 24 25  1  0  0  0
 25 26  2  0  0  0
 26 27  1  0  0  0
 27 28  2  0  0  0
 21 11  1  0  0  0
 11 12  1  0  0  0
 11 17  1  0  0  0
 12 13  1  0  0  0
 13 14  1  0  0  0
 14 15  1  0  0  0
 15 16  1  0  0  0
 16 17  1  0  0  0
 17  7  1  0  0  0
  7  8  1  0  0  0
  8  9  2  0  0  0
  8  1  1  0  0  0
  1  2  2  0  0  0
  1  4  1  0  0  0
  2  3  1  0  0  0
  3  6  2  0  0  0
  4  5  2  0  0  0
  5  6  1  0  0  0
  6 29  1  0  0  0
 29 30  2  0  0  0
 29 31  1  0  0  0
 31 32  2  0  0  0
 31 37  1  0  0  0
 32 33  1  0  0  0
 32 34  1  0  0  0
 34 35  2  0  0  0
 35 36  1  0  0  0
 36 37  2  0  0  0
 36 40  1  0  0  0
 37 38  1  0  0  0
 40 41  1  0  0  0
 40 47  1  0  0  0
 41 42  1  0  0  0
 41 43  1  0  0  0
 41 44  1  0  0  0
 44 45  1  0  0  0
 45 46  1  0  0  0
 46 47  1  0  0  0
 21 22  1  0  0  0
 13 18  1  0  0  0
  7 10  1  0  0  0
 33 39  1  0  0  0
 47 48  1  0  0  0
M  END
> <minimizedAffinity>
-13.47689

$$$$
1XH5_R68_A_1001


 48 52  0  0  0  0  0  0  0  0999 V2000
   14.5354   10.2738    0.8188 C   0  0  0  0  0  0  0  0  0  0  0  0
   14.6175    9.4655   -0.3353 C   0  0  0  0  0  0  0  0  0  0  0  0
   14.8604   10.0250   -1.5820 C   0  0  0  0  0  0  0  0  0  0  0  0
   14.6541   11.6663    0.6757 C   0  0  0  0  0  0  0  0  0  0  0  0
   14.8731   12.2219   -0.5731 C   0  0  0  0  0  0  0  0  0  0  0  0
   15.0199   11.4111   -1.7046 C   0  0  0  0  0  0  0  0  0  0  0  0
   13.8690   10.4479    3.1940 N   0  0  0  0  0  0  0  0  0  0  0  0
   14.1728    9.6685    2.0991 C   0  0  0  0  0  0  0  0  0  0  0  0
   13.9503    8.4492    2.1607 O   0  0  0  0  0  0  0  0  0  0  0  0
   14.1567   11.3894    3.1783 H   0  0  0  0  0  0  0  0  0  0  0  0
   12.3660    8.6840    4.0586 C   0  0  0  0  0  0  0  0  0  0  0  0
   12.7455    7.4194    4.8383 C   0  0  0  0  0  0  0  0  0  0  0  0
   14.1334    7.0256    4.5915 N   0  0  0  0  0  0  0  0  0  0  0  0
   15.1041    7.5707    5.5967 C   0  0  0  0  0  0  0  0  0  0  0  0
   15.3619    9.0435    5.3307 C   0  0  0  0  0  0  0  0  0  0  0  0
   14.1131    9.9357    5.5812 C   0  0  0  0  0  0  0  0  0  0  0  0
   13.1585    9.9833    4.3643 C   0  0  0  0  0  0  0  0  0  0  0  0
   14.4039    7.3624    3.6675 H   0  0  0  0  0  0  0  0  0  0  0  0
   10.6045   10.1671    2.5197 O   0  0  0  0  0  0  0  0  0  0  0  0
   10.0872    9.5951    3.4978 C   0  0  0  0  0  0  0  0  0  0  0  0
   10.9272    8.8778    4.3374 N   0  0  0  0  0  0  0  0  0  0  0  0
   10.5484    8.4805    5.1546 H   0  0  0  0  0  0  0  0  0  0  0  0
    8.6246    9.6417    3.7690 C   0  0  0  0  0  0  0  0  0  0  0  0
    7.7247    9.1336    2.8055 C   0  0  0  0  0  0  0  0  0  0  0  0
    6.3474    9.1580    3.0512 C   0  0  0  0  0  0  0  0  0  0  0  0
    5.8692    9.5802    4.2272 N   0  0  0  0  0  0  0  0  0  0  0  0
    6.6869   10.0477    5.1593 C   0  0  0  0  0  0  0  0  0  0  0  0
    8.0761   10.1284    4.9671 C   0  0  0  0  0  0  0  0  0  0  0  0
   15.1621   12.0530   -3.0125 C   0  0  0  0  0  0  0  0  0  0  0  0
   14.5777   13.1466   -3.2016 O   0  0  0  0  0  0  0  0  0  0  0  0
   16.1406   11.5660   -3.9862 C   0  0  0  0  0  0  0  0  0  0  0  0
   15.8531   11.4970   -5.3330 C   0  0  0  0  0  0  0  0  0  0  0  0
   14.6390   11.9410   -5.6636 O   0  0  0  0  0  0  0  0  0  0  0  0
   16.7583   11.0348   -6.2790 C   0  0  0  0  0  0  0  0  0  0  0  0
   18.0165   10.6009   -5.8556 C   0  0  0  0  0  0  0  0  0  0  0  0
   18.3501   10.6110   -4.4861 C   0  0  0  0  0  0  0  0  0  0  0  0
   17.3924   11.1086   -3.6052 C   0  0  0  0  0  0  0  0  0  0  0  0
   17.6558   11.1604   -2.3054 F   0  0  0  0  0  0  0  0  0  0  0  0
   14.0542   12.2455   -4.9979 H   0  0  0  0  0  0  0  0  0  0  0  0
   19.7241   10.1592   -4.0168 C   0  0  0  0  0  0  0  0  0  0  0  0
   20.7828   11.3252   -3.9507 C   0  0  0  0  0  0  0  0  0  0  0  0
   20.4012   12.4528   -2.9456 C   0  0  0  0  0  0  0  0  0  0  0  0
   20.9882   11.9306   -5.3289 C   0  0  0  0  0  0  0  0  0  0  0  0
   22.1575   10.7585   -3.4966 C   0  0  0  0  0  0  0  0  0  0  0  0
   22.0450    9.8808   -2.2211 C   0  0  0  0  0  0  0  0  0  0  0  0
   20.9343    8.8058   -2.3732 C   0  0  0  0  0  0  0  0  0  0  0  0
   19.6102    9.4143   -2.7302 N   0  0  0  0  0  0  0  0  0  0  0  0
   18.9138    8.6754   -2.8277 H   0  0  0  0  0  0  0  0  0  0  0  0
 19 20  2  0  0  0
 20 23  1  0  0  0
 20 21  1  0  0  0
 23 24  2  0  0  0
 23 28  1  0  0  0
 24 25  1  0  0  0
 25 26  2  0  0  0
 26 27  1  0  0  0
 27 28  2  0  0  0
 21 11  1  0  0  0
 11 12  1  0  0  0
 11 17  1  0  0  0
 12 13  1  0  0  0
 13 14  1  0  0  0
 14 15  1  0  0  0
 15 16  1  0  0  0
 16 17  1  0  0  0
 17  7  1  0  0  0
  7  8  1  0  0  0
  8  9  2  0  0  0
  8  1  1  0  0  0
  1  2  2  0  0  0
  1  4  1  0  0  0
  2  3  1  0  0  0
  3  6  2  0  0  0
  4  5  2  0  0  0
  5  6  1  0  0  0
  6 29  1  0  0  0
 29 30  2  0  0  0
 29 31  1  0  0  0
 31 32  2  0  0  0
 31 37  1  0  0  0
 32 33  1  0  0  0
 32 34  1  0  0  0
 34 35  2  0  0  0
 35 36  1  0  0  0
 36 37  2  0  0  0
 36 40  1  0  0  0
 37 38  1  0  0  0
 40 41  1  0  0  0
 40 47  1  0  0  0
 41 42  1  0  0  0
 41 43  1  0  0  0
 41 44  1  0  0  0
 44 45  1  0  0  0
 45 46  1  0  0  0
 46 47  1  0  0  0
 21 22  1  0  0  0
 13 18  1  0  0  0
  7 10  1  0  0  0
 33 39  1  0  0  0
 47 48  1  0  0  0
M  END
> <minimizedAffinity>
-10.92573

$$$$
