5LIF_6XO_E_411


 40 41  0  0  0  0  0  0  0  0999 V2000
   10.1922   38.1918   -3.2123 C   0  0  0  0  0  0  0  0  0  0  0  0
    8.9581   39.0354   -3.3770 C   0  0  0  0  0  0  0  0  0  0  0  0
    7.8764   38.5278   -3.6256 O   0  0  0  0  0  0  0  0  0  0  0  0
    9.1396   40.3428   -3.1768 N   0  0  0  0  0  0  0  0  0  0  0  0
   10.0525   40.6779   -3.0234 H   0  0  0  0  0  0  0  0  0  0  0  0
    8.0371   41.2874   -3.1775 C   0  0  0  0  0  0  0  0  0  0  0  0
    7.8703   41.9577   -4.4961 C   0  0  0  0  0  0  0  0  0  0  0  0
    8.9838   42.2602   -5.1416 O   0  0  0  0  0  0  0  0  0  0  0  0
    6.7703   42.1945   -4.9586 O   0  0  0  0  0  0  0  0  0  0  0  0
    9.8158   42.0645   -4.7576 H   0  0  0  0  0  0  0  0  0  0  0  0
    8.3857   42.2945   -2.0450 C   0  0  0  0  0  0  0  0  0  0  0  0
    7.6113   43.6147   -1.9766 C   0  0  0  0  0  0  0  0  0  0  0  0
    7.3003   46.2696   -0.7402 C   0  0  0  0  0  0  0  0  0  0  0  0
    6.3378   45.1184   -0.3961 C   0  0  0  0  0  0  0  0  0  0  0  0
    7.1331   43.8117   -0.5264 C   0  0  0  0  0  0  0  0  0  0  0  0
    7.8529   46.1081   -2.1722 C   0  0  0  0  0  0  0  0  0  0  0  0
    8.5746   44.7572   -2.3253 C   0  0  0  0  0  0  0  0  0  0  0  0
   11.2483   38.5095   -4.1978 N   0  0  0  0  0  0  0  0  0  0  0  0
   11.7005   39.3636   -3.8715 H   0  0  0  0  0  0  0  0  0  0  0  0
   10.9055   38.7386   -5.7129 P   0  0  0  0  0  0  0  0  0  0  0  0
   10.7973   40.2313   -5.9852 O   0  0  0  0  0  0  0  0  0  0  0  0
    9.6870   37.9853   -6.1386 O   0  0  0  0  0  0  0  0  0  0  0  0
    9.5132   38.1555   -7.0776 H   0  0  0  0  0  0  0  0  0  0  0  0
   12.3628   38.0697   -6.5660 C   0  0  0  0  0  0  0  0  0  0  0  0
   13.1800   37.6170   -8.7674 C   0  0  0  0  0  0  0  0  0  0  0  0
   14.2403   37.1829   -8.3732 O   0  0  0  0  0  0  0  0  0  0  0  0
   12.1743   38.0708   -7.9993 N   0  0  0  0  0  0  0  0  0  0  0  0
   11.3354   38.3938   -8.4006 H   0  0  0  0  0  0  0  0  0  0  0  0
   12.8676   37.7057  -10.0478 O   0  0  0  0  0  0  0  0  0  0  0  0
   13.2109   36.5273  -10.8033 C   0  0  0  0  0  0  0  0  0  0  0  0
   14.3459   38.3334  -14.5670 C   0  0  0  0  0  0  0  0  0  0  0  0
   14.1193   36.9568  -14.4786 C   0  0  0  0  0  0  0  0  0  0  0  0
   13.7461   36.3862  -13.2665 C   0  0  0  0  0  0  0  0  0  0  0  0
   13.6063   37.1750  -12.1232 C   0  0  0  0  0  0  0  0  0  0  0  0
   13.8560   38.5406  -12.1901 C   0  0  0  0  0  0  0  0  0  0  0  0
   14.2158   39.1162  -13.4110 C   0  0  0  0  0  0  0  0  0  0  0  0
   10.7743   38.4890   -1.8052 C   0  0  0  0  0  0  0  0  0  0  0  0
   10.3245   37.5187   -0.7066 C   0  0  0  0  0  0  0  0  0  0  0  0
    9.6406   36.2861   -1.3132 C   0  0  0  0  0  0  0  0  0  0  0  0
    9.3689   38.2356    0.2569 C   0  0  0  0  0  0  0  0  0  0  0  0
 36 35  2  0  0  0
 36 31  1  0  0  0
 35 34  1  0  0  0
 31 32  2  0  0  0
 34 30  1  0  0  0
 34 33  2  0  0  0
 32 33  1  0  0  0
 30 29  1  0  0  0
 29 25  1  0  0  0
 25 26  2  0  0  0
 25 27  1  0  0  0
 27 24  1  0  0  0
 24 20  1  0  0  0
 21 20  2  0  0  0
 22 20  1  0  0  0
 20 18  1  0  0  0
  9  7  2  0  0  0
  8  7  1  0  0  0
  7  6  1  0  0  0
 18  1  1  0  0  0
  6  4  1  0  0  0
  6 11  1  0  0  0
  4  2  1  0  0  0
  2  3  2  0  0  0
  2  1  1  0  0  0
  1 37  1  0  0  0
 17 16  1  0  0  0
 17 12  1  0  0  0
 16 13  1  0  0  0
 11 12  1  0  0  0
 12 15  1  0  0  0
 37 38  1  0  0  0
 13 14  1  0  0  0
 40 38  1  0  0  0
 38 39  1  0  0  0
 15 14  1  0  0  0
 22 23  1  0  0  0
 18 19  1  0  0  0
  4  5  1  0  0  0
  8 10  1  0  0  0
 27 28  1  0  0  0
M  END
> <minimizedAffinity>
-9.76709

$$$$
5LIF_6XO_E_411


 40 41  0  0  0  0  0  0  0  0999 V2000
    9.4801   38.7701   -2.7805 C   0  0  0  0  0  0  0  0  0  0  0  0
    8.4443   39.7613   -3.2346 C   0  0  0  0  0  0  0  0  0  0  0  0
    7.3492   39.3929   -3.6277 O   0  0  0  0  0  0  0  0  0  0  0  0
    8.8022   41.0422   -3.1183 N   0  0  0  0  0  0  0  0  0  0  0  0
    9.7204   41.2551   -2.8338 H   0  0  0  0  0  0  0  0  0  0  0  0
    7.8843   42.1319   -3.3968 C   0  0  0  0  0  0  0  0  0  0  0  0
    7.9678   42.5916   -4.8103 C   0  0  0  0  0  0  0  0  0  0  0  0
    6.8646   42.4709   -5.5289 O   0  0  0  0  0  0  0  0  0  0  0  0
    8.9890   43.0682   -5.2685 O   0  0  0  0  0  0  0  0  0  0  0  0
    6.0943   42.0993   -5.1460 H   0  0  0  0  0  0  0  0  0  0  0  0
    8.2861   43.2472   -2.3903 C   0  0  0  0  0  0  0  0  0  0  0  0
    7.2358   43.7437   -1.3915 C   0  0  0  0  0  0  0  0  0  0  0  0
    5.5115   45.9434   -0.4632 C   0  0  0  0  0  0  0  0  0  0  0  0
    6.7804   45.5497    0.3148 C   0  0  0  0  0  0  0  0  0  0  0  0
    7.7877   45.0090   -0.7097 C   0  0  0  0  0  0  0  0  0  0  0  0
    4.9295   44.7241   -1.2090 C   0  0  0  0  0  0  0  0  0  0  0  0
    5.9724   44.1297   -2.1723 C   0  0  0  0  0  0  0  0  0  0  0  0
   10.7287   38.8322   -3.5708 N   0  0  0  0  0  0  0  0  0  0  0  0
   11.0216   39.8092   -3.5720 H   0  0  0  0  0  0  0  0  0  0  0  0
   10.7706   38.3533   -5.0657 P   0  0  0  0  0  0  0  0  0  0  0  0
    9.5080   37.5645   -5.3779 O   0  0  0  0  0  0  0  0  0  0  0  0
   12.0180   37.5937   -5.3827 O   0  0  0  0  0  0  0  0  0  0  0  0
   12.0014   37.3185   -6.3127 H   0  0  0  0  0  0  0  0  0  0  0  0
   10.7568   39.9143   -5.9941 C   0  0  0  0  0  0  0  0  0  0  0  0
   12.0885   40.3978   -7.9207 C   0  0  0  0  0  0  0  0  0  0  0  0
   12.7883   41.1969   -7.3377 O   0  0  0  0  0  0  0  0  0  0  0  0
   11.0739   39.6953   -7.3874 N   0  0  0  0  0  0  0  0  0  0  0  0
   10.5626   39.0517   -7.9292 H   0  0  0  0  0  0  0  0  0  0  0  0
   12.2369   40.1072   -9.2007 O   0  0  0  0  0  0  0  0  0  0  0  0
   13.6109   40.1251   -9.6357 C   0  0  0  0  0  0  0  0  0  0  0  0
   13.5946   36.6899  -12.2655 C   0  0  0  0  0  0  0  0  0  0  0  0
   13.9357   37.9557  -12.7511 C   0  0  0  0  0  0  0  0  0  0  0  0
   13.9468   39.0526  -11.8964 C   0  0  0  0  0  0  0  0  0  0  0  0
   13.6060   38.9079  -10.5504 C   0  0  0  0  0  0  0  0  0  0  0  0
   13.2374   37.6606  -10.0603 C   0  0  0  0  0  0  0  0  0  0  0  0
   13.2411   36.5559  -10.9152 C   0  0  0  0  0  0  0  0  0  0  0  0
    9.8479   39.1204   -1.3146 C   0  0  0  0  0  0  0  0  0  0  0  0
   10.0829   37.9088   -0.4048 C   0  0  0  0  0  0  0  0  0  0  0  0
    9.3593   36.6695   -0.9483 C   0  0  0  0  0  0  0  0  0  0  0  0
    9.5970   38.2270    1.0157 C   0  0  0  0  0  0  0  0  0  0  0  0
 36 35  2  0  0  0
 36 31  1  0  0  0
 35 34  1  0  0  0
 31 32  2  0  0  0
 34 30  1  0  0  0
 34 33  2  0  0  0
 32 33  1  0  0  0
 30 29  1  0  0  0
 29 25  1  0  0  0
 25 26  2  0  0  0
 25 27  1  0  0  0
 27 24  1  0  0  0
 24 20  1  0  0  0
 21 20  2  0  0  0
 22 20  1  0  0  0
 20 18  1  0  0  0
  9  7  2  0  0  0
  8  7  1  0  0  0
  7  6  1  0  0  0
 18  1  1  0  0  0
  6  4  1  0  0  0
  6 11  1  0  0  0
  4  2  1  0  0  0
  2  3  2  0  0  0
  2  1  1  0  0  0
  1 37  1  0  0  0
 17 16  1  0  0  0
 17 12  1  0  0  0
 16 13  1  0  0  0
 11 12  1  0  0  0
 12 15  1  0  0  0
 37 38  1  0  0  0
 13 14  1  0  0  0
 40 38  1  0  0  0
 38 39  1  0  0  0
 15 14  1  0  0  0
 22 23  1  0  0  0
 18 19  1  0  0  0
  4  5  1  0  0  0
  8 10  1  0  0  0
 27 28  1  0  0  0
M  END
> <minimizedAffinity>
-9.09965

$$$$
5LIF_6XO_E_411


 40 41  0  0  0  0  0  0  0  0999 V2000
   10.1705   38.1976   -3.1418 C   0  0  0  0  0  0  0  0  0  0  0  0
    8.9520   39.0616   -3.3158 C   0  0  0  0  0  0  0  0  0  0  0  0
    7.8650   38.5725   -3.5784 O   0  0  0  0  0  0  0  0  0  0  0  0
    9.1521   40.3650   -3.1077 N   0  0  0  0  0  0  0  0  0  0  0  0
   10.0686   40.6847   -2.9430 H   0  0  0  0  0  0  0  0  0  0  0  0
    8.0650   41.3272   -3.1158 C   0  0  0  0  0  0  0  0  0  0  0  0
    7.8727   41.9487   -4.4548 C   0  0  0  0  0  0  0  0  0  0  0  0
    8.9739   42.2432   -5.1247 O   0  0  0  0  0  0  0  0  0  0  0  0
    6.7639   42.1544   -4.9110 O   0  0  0  0  0  0  0  0  0  0  0  0
    9.8132   42.0721   -4.7449 H   0  0  0  0  0  0  0  0  0  0  0  0
    8.4603   42.3714   -2.0334 C   0  0  0  0  0  0  0  0  0  0  0  0
    7.6614   43.6761   -1.9499 C   0  0  0  0  0  0  0  0  0  0  0  0
    7.3051   46.3129   -0.6873 C   0  0  0  0  0  0  0  0  0  0  0  0
    6.3656   45.1406   -0.3508 C   0  0  0  0  0  0  0  0  0  0  0  0
    7.1849   43.8504   -0.4962 C   0  0  0  0  0  0  0  0  0  0  0  0
    7.8554   46.1753   -2.1226 C   0  0  0  0  0  0  0  0  0  0  0  0
    8.6018   44.8398   -2.2910 C   0  0  0  0  0  0  0  0  0  0  0  0
   11.2240   38.4713   -4.1431 N   0  0  0  0  0  0  0  0  0  0  0  0
   11.7082   39.3129   -3.8304 H   0  0  0  0  0  0  0  0  0  0  0  0
   10.8700   38.6980   -5.6561 P   0  0  0  0  0  0  0  0  0  0  0  0
   10.7694   40.1905   -5.9322 O   0  0  0  0  0  0  0  0  0  0  0  0
    9.6429   37.9515   -6.0690 O   0  0  0  0  0  0  0  0  0  0  0  0
    9.4624   38.1199   -7.0071 H   0  0  0  0  0  0  0  0  0  0  0  0
   12.3155   38.0167   -6.5193 C   0  0  0  0  0  0  0  0  0  0  0  0
   13.2399   37.8123   -8.7153 C   0  0  0  0  0  0  0  0  0  0  0  0
   14.1892   37.1574   -8.3437 O   0  0  0  0  0  0  0  0  0  0  0  0
   12.2500   38.2850   -7.9383 N   0  0  0  0  0  0  0  0  0  0  0  0
   11.5035   38.7982   -8.3238 H   0  0  0  0  0  0  0  0  0  0  0  0
   13.0521   38.1601   -9.9757 O   0  0  0  0  0  0  0  0  0  0  0  0
   14.2750   38.2463  -10.7336 C   0  0  0  0  0  0  0  0  0  0  0  0
   14.8626   42.5321  -10.6790 C   0  0  0  0  0  0  0  0  0  0  0  0
   15.6631   41.6945   -9.8968 C   0  0  0  0  0  0  0  0  0  0  0  0
   15.4729   40.3173   -9.9275 C   0  0  0  0  0  0  0  0  0  0  0  0
   14.4753   39.7557  -10.7263 C   0  0  0  0  0  0  0  0  0  0  0  0
   13.6534   40.5784  -11.4874 C   0  0  0  0  0  0  0  0  0  0  0  0
   13.8545   41.9606  -11.4685 C   0  0  0  0  0  0  0  0  0  0  0  0
   10.7706   38.5154   -1.7469 C   0  0  0  0  0  0  0  0  0  0  0  0
   10.3589   37.5438   -0.6346 C   0  0  0  0  0  0  0  0  0  0  0  0
    9.6731   36.3022   -1.2204 C   0  0  0  0  0  0  0  0  0  0  0  0
    9.4204   38.2536    0.3507 C   0  0  0  0  0  0  0  0  0  0  0  0
 36 35  2  0  0  0
 36 31  1  0  0  0
 35 34  1  0  0  0
 31 32  2  0  0  0
 34 30  1  0  0  0
 34 33  2  0  0  0
 32 33  1  0  0  0
 30 29  1  0  0  0
 29 25  1  0  0  0
 25 26  2  0  0  0
 25 27  1  0  0  0
 27 24  1  0  0  0
 24 20  1  0  0  0
 21 20  2  0  0  0
 22 20  1  0  0  0
 20 18  1  0  0  0
  9  7  2  0  0  0
  8  7  1  0  0  0
  7  6  1  0  0  0
 18  1  1  0  0  0
  6  4  1  0  0  0
  6 11  1  0  0  0
  4  2  1  0  0  0
  2  3  2  0  0  0
  2  1  1  0  0  0
  1 37  1  0  0  0
 17 16  1  0  0  0
 17 12  1  0  0  0
 16 13  1  0  0  0
 11 12  1  0  0  0
 12 15  1  0  0  0
 37 38  1  0  0  0
 13 14  1  0  0  0
 40 38  1  0  0  0
 38 39  1  0  0  0
 15 14  1  0  0  0
 22 23  1  0  0  0
 18 19  1  0  0  0
  4  5  1  0  0  0
  8 10  1  0  0  0
 27 28  1  0  0  0
M  END
> <minimizedAffinity>
-9.05702

$$$$
5LIF_6XO_E_411


 40 41  0  0  0  0  0  0  0  0999 V2000
   13.4235   41.9650   -9.5405 C   0  0  0  0  0  0  0  0  0  0  0  0
   13.3284   40.9238  -10.6214 C   0  0  0  0  0  0  0  0  0  0  0  0
   13.1707   41.2406  -11.7895 O   0  0  0  0  0  0  0  0  0  0  0  0
   13.4840   39.6649  -10.2051 N   0  0  0  0  0  0  0  0  0  0  0  0
   13.5631   39.4900   -9.2395 H   0  0  0  0  0  0  0  0  0  0  0  0
   13.5406   38.5449  -11.1272 C   0  0  0  0  0  0  0  0  0  0  0  0
   13.0685   37.2780  -10.5043 C   0  0  0  0  0  0  0  0  0  0  0  0
   12.4853   37.3907   -9.3231 O   0  0  0  0  0  0  0  0  0  0  0  0
   13.1965   36.2045  -11.0624 O   0  0  0  0  0  0  0  0  0  0  0  0
   12.4024   38.2325   -8.9200 H   0  0  0  0  0  0  0  0  0  0  0  0
   15.0331   38.4690  -11.5574 C   0  0  0  0  0  0  0  0  0  0  0  0
   15.3569   38.2633  -13.0408 C   0  0  0  0  0  0  0  0  0  0  0  0
   14.8409   36.7753  -15.5293 C   0  0  0  0  0  0  0  0  0  0  0  0
   16.1201   36.5274  -14.7094 C   0  0  0  0  0  0  0  0  0  0  0  0
   15.7713   36.7937  -13.2383 C   0  0  0  0  0  0  0  0  0  0  0  0
   14.3450   38.2245  -15.3403 C   0  0  0  0  0  0  0  0  0  0  0  0
   14.0796   38.5167  -13.8526 C   0  0  0  0  0  0  0  0  0  0  0  0
   13.6828   41.3907   -8.2025 N   0  0  0  0  0  0  0  0  0  0  0  0
   13.7393   40.3800   -8.3278 H   0  0  0  0  0  0  0  0  0  0  0  0
   12.6958   41.6361   -7.0061 P   0  0  0  0  0  0  0  0  0  0  0  0
   11.9382   42.9350   -7.2358 O   0  0  0  0  0  0  0  0  0  0  0  0
   13.3893   41.5997   -5.6827 O   0  0  0  0  0  0  0  0  0  0  0  0
   12.7441   41.7554   -4.9752 H   0  0  0  0  0  0  0  0  0  0  0  0
   11.5484   40.2337   -7.1301 C   0  0  0  0  0  0  0  0  0  0  0  0
   11.2476   38.4081   -5.6149 C   0  0  0  0  0  0  0  0  0  0  0  0
   11.5919   37.5736   -6.4231 O   0  0  0  0  0  0  0  0  0  0  0  0
   11.1903   39.7353   -5.8212 N   0  0  0  0  0  0  0  0  0  0  0  0
   10.9131   40.3489   -5.1030 H   0  0  0  0  0  0  0  0  0  0  0  0
   10.8681   38.1089   -4.3856 O   0  0  0  0  0  0  0  0  0  0  0  0
    9.6810   38.8107   -3.9666 C   0  0  0  0  0  0  0  0  0  0  0  0
    9.3372   37.3146    0.0781 C   0  0  0  0  0  0  0  0  0  0  0  0
    9.6313   38.6604   -0.1597 C   0  0  0  0  0  0  0  0  0  0  0  0
    9.7311   39.1343   -1.4632 C   0  0  0  0  0  0  0  0  0  0  0  0
    9.5530   38.2735   -2.5477 C   0  0  0  0  0  0  0  0  0  0  0  0
    9.2882   36.9272   -2.3260 C   0  0  0  0  0  0  0  0  0  0  0  0
    9.1726   36.4542   -1.0168 C   0  0  0  0  0  0  0  0  0  0  0  0
   14.6246   42.8846   -9.8849 C   0  0  0  0  0  0  0  0  0  0  0  0
   15.9558   42.4667   -9.2492 C   0  0  0  0  0  0  0  0  0  0  0  0
   16.6001   43.6452   -8.5068 C   0  0  0  0  0  0  0  0  0  0  0  0
   16.9045   41.9405  -10.3347 C   0  0  0  0  0  0  0  0  0  0  0  0
 36 35  2  0  0  0
 36 31  1  0  0  0
 35 34  1  0  0  0
 31 32  2  0  0  0
 34 30  1  0  0  0
 34 33  2  0  0  0
 32 33  1  0  0  0
 30 29  1  0  0  0
 29 25  1  0  0  0
 25 26  2  0  0  0
 25 27  1  0  0  0
 27 24  1  0  0  0
 24 20  1  0  0  0
 21 20  2  0  0  0
 22 20  1  0  0  0
 20 18  1  0  0  0
  9  7  2  0  0  0
  8  7  1  0  0  0
  7  6  1  0  0  0
 18  1  1  0  0  0
  6  4  1  0  0  0
  6 11  1  0  0  0
  4  2  1  0  0  0
  2  3  2  0  0  0
  2  1  1  0  0  0
  1 37  1  0  0  0
 17 16  1  0  0  0
 17 12  1  0  0  0
 16 13  1  0  0  0
 11 12  1  0  0  0
 12 15  1  0  0  0
 37 38  1  0  0  0
 13 14  1  0  0  0
 40 38  1  0  0  0
 38 39  1  0  0  0
 15 14  1  0  0  0
 22 23  1  0  0  0
 18 19  1  0  0  0
  4  5  1  0  0  0
  8 10  1  0  0  0
 27 28  1  0  0  0
M  END
> <minimizedAffinity>
-8.68162

$$$$
5LIF_6XO_E_411


 40 41  0  0  0  0  0  0  0  0999 V2000
   13.8668   37.4168  -10.4156 C   0  0  0  0  0  0  0  0  0  0  0  0
   13.6554   37.5344   -8.9314 C   0  0  0  0  0  0  0  0  0  0  0  0
   14.2469   36.8059   -8.1510 O   0  0  0  0  0  0  0  0  0  0  0  0
   12.8307   38.5149   -8.5565 N   0  0  0  0  0  0  0  0  0  0  0  0
   12.3588   39.0302   -9.2501 H   0  0  0  0  0  0  0  0  0  0  0  0
   12.6057   38.8477   -7.1614 C   0  0  0  0  0  0  0  0  0  0  0  0
   11.4798   38.0725   -6.5718 C   0  0  0  0  0  0  0  0  0  0  0  0
   10.3308   38.1255   -7.2237 O   0  0  0  0  0  0  0  0  0  0  0  0
   11.6184   37.4137   -5.5585 O   0  0  0  0  0  0  0  0  0  0  0  0
   10.2569   38.6427   -8.0016 H   0  0  0  0  0  0  0  0  0  0  0  0
   12.3287   40.3779   -7.1651 C   0  0  0  0  0  0  0  0  0  0  0  0
   12.5581   41.1593   -8.4629 C   0  0  0  0  0  0  0  0  0  0  0  0
   12.3194   43.7055   -9.9235 C   0  0  0  0  0  0  0  0  0  0  0  0
   11.3697   42.5306  -10.2201 C   0  0  0  0  0  0  0  0  0  0  0  0
   11.2060   41.7423   -8.9130 C   0  0  0  0  0  0  0  0  0  0  0  0
   13.6851   43.1892   -9.4235 C   0  0  0  0  0  0  0  0  0  0  0  0
   13.5089   42.3255   -8.1617 C   0  0  0  0  0  0  0  0  0  0  0  0
   13.1022   36.3069  -11.0247 N   0  0  0  0  0  0  0  0  0  0  0  0
   12.9517   35.6200  -10.2858 H   0  0  0  0  0  0  0  0  0  0  0  0
   13.6607   35.5156  -12.2607 P   0  0  0  0  0  0  0  0  0  0  0  0
   13.1426   36.1509  -13.5420 O   0  0  0  0  0  0  0  0  0  0  0  0
   13.3612   34.0536  -12.1801 O   0  0  0  0  0  0  0  0  0  0  0  0
   13.7230   33.6059  -12.9609 H   0  0  0  0  0  0  0  0  0  0  0  0
   15.4537   35.7766  -12.1353 C   0  0  0  0  0  0  0  0  0  0  0  0
   16.9542   36.5018  -13.8504 C   0  0  0  0  0  0  0  0  0  0  0  0
   17.5683   35.4574  -13.8685 O   0  0  0  0  0  0  0  0  0  0  0  0
   15.9001   36.7880  -13.0668 N   0  0  0  0  0  0  0  0  0  0  0  0
   15.4460   37.6596  -13.1255 H   0  0  0  0  0  0  0  0  0  0  0  0
   17.2551   37.5295  -14.6237 O   0  0  0  0  0  0  0  0  0  0  0  0
   18.5069   38.1562  -14.2807 C   0  0  0  0  0  0  0  0  0  0  0  0
   17.1028   42.1749  -13.5095 C   0  0  0  0  0  0  0  0  0  0  0  0
   16.6382   41.4596  -14.6171 C   0  0  0  0  0  0  0  0  0  0  0  0
   17.0884   40.1650  -14.8521 C   0  0  0  0  0  0  0  0  0  0  0  0
   18.0167   39.5694  -13.9963 C   0  0  0  0  0  0  0  0  0  0  0  0
   18.5085   40.2792  -12.9073 C   0  0  0  0  0  0  0  0  0  0  0  0
   18.0448   41.5739  -12.6624 C   0  0  0  0  0  0  0  0  0  0  0  0
   13.3594   38.7321  -11.0633 C   0  0  0  0  0  0  0  0  0  0  0  0
   14.4574   39.6148  -11.6683 C   0  0  0  0  0  0  0  0  0  0  0  0
   15.4431   40.0780  -10.5872 C   0  0  0  0  0  0  0  0  0  0  0  0
   13.8223   40.8273  -12.3624 C   0  0  0  0  0  0  0  0  0  0  0  0
 36 35  2  0  0  0
 36 31  1  0  0  0
 35 34  1  0  0  0
 31 32  2  0  0  0
 34 30  1  0  0  0
 34 33  2  0  0  0
 32 33  1  0  0  0
 30 29  1  0  0  0
 29 25  1  0  0  0
 25 26  2  0  0  0
 25 27  1  0  0  0
 27 24  1  0  0  0
 24 20  1  0  0  0
 21 20  2  0  0  0
 22 20  1  0  0  0
 20 18  1  0  0  0
  9  7  2  0  0  0
  8  7  1  0  0  0
  7  6  1  0  0  0
 18  1  1  0  0  0
  6  4  1  0  0  0
  6 11  1  0  0  0
  4  2  1  0  0  0
  2  3  2  0  0  0
  2  1  1  0  0  0
  1 37  1  0  0  0
 17 16  1  0  0  0
 17 12  1  0  0  0
 16 13  1  0  0  0
 11 12  1  0  0  0
 12 15  1  0  0  0
 37 38  1  0  0  0
 13 14  1  0  0  0
 40 38  1  0  0  0
 38 39  1  0  0  0
 15 14  1  0  0  0
 22 23  1  0  0  0
 18 19  1  0  0  0
  4  5  1  0  0  0
  8 10  1  0  0  0
 27 28  1  0  0  0
M  END
> <minimizedAffinity>
-8.65287

$$$$
5LIF_6XO_E_411


 40 41  0  0  0  0  0  0  0  0999 V2000
   13.6151   42.0414   -9.5801 C   0  0  0  0  0  0  0  0  0  0  0  0
   14.4535   40.8479   -9.9465 C   0  0  0  0  0  0  0  0  0  0  0  0
   14.7007   39.9765   -9.1284 O   0  0  0  0  0  0  0  0  0  0  0  0
   14.8421   40.8038  -11.2229 N   0  0  0  0  0  0  0  0  0  0  0  0
   14.6383   41.5685  -11.8084 H   0  0  0  0  0  0  0  0  0  0  0  0
   15.5548   39.6669  -11.7774 C   0  0  0  0  0  0  0  0  0  0  0  0
   16.9594   40.0037  -12.1377 C   0  0  0  0  0  0  0  0  0  0  0  0
   17.7922   40.1891  -11.1277 O   0  0  0  0  0  0  0  0  0  0  0  0
   17.3206   40.0838  -13.2966 O   0  0  0  0  0  0  0  0  0  0  0  0
   17.4821   40.1203  -10.2461 H   0  0  0  0  0  0  0  0  0  0  0  0
   14.7140   39.2458  -13.0159 C   0  0  0  0  0  0  0  0  0  0  0  0
   13.7867   38.0325  -12.8920 C   0  0  0  0  0  0  0  0  0  0  0  0
   13.5044   35.1401  -12.4146 C   0  0  0  0  0  0  0  0  0  0  0  0
   13.3572   35.7269  -13.8303 C   0  0  0  0  0  0  0  0  0  0  0  0
   14.2581   36.9681  -13.8996 C   0  0  0  0  0  0  0  0  0  0  0  0
   13.0879   36.1763  -11.3494 C   0  0  0  0  0  0  0  0  0  0  0  0
   13.9343   37.4555  -11.4778 C   0  0  0  0  0  0  0  0  0  0  0  0
   13.1187   41.9967   -8.1876 N   0  0  0  0  0  0  0  0  0  0  0  0
   13.7459   41.3750   -7.6771 H   0  0  0  0  0  0  0  0  0  0  0  0
   11.6581   41.5232   -7.8588 P   0  0  0  0  0  0  0  0  0  0  0  0
   10.9171   41.2366   -9.1560 O   0  0  0  0  0  0  0  0  0  0  0  0
   10.9322   42.4917   -6.9822 O   0  0  0  0  0  0  0  0  0  0  0  0
   10.0378   42.1603   -6.8054 H   0  0  0  0  0  0  0  0  0  0  0  0
   11.9267   39.9698   -6.9568 C   0  0  0  0  0  0  0  0  0  0  0  0
   10.8229   38.7646   -5.2109 C   0  0  0  0  0  0  0  0  0  0  0  0
   11.0614   37.6805   -5.6967 O   0  0  0  0  0  0  0  0  0  0  0  0
   11.1929   39.9562   -5.7113 N   0  0  0  0  0  0  0  0  0  0  0  0
   10.9709   40.7938   -5.2440 H   0  0  0  0  0  0  0  0  0  0  0  0
   10.1421   38.9190   -4.0895 O   0  0  0  0  0  0  0  0  0  0  0  0
    9.2586   37.8177   -3.8005 C   0  0  0  0  0  0  0  0  0  0  0  0
    9.2543   37.9529    0.5236 C   0  0  0  0  0  0  0  0  0  0  0  0
    8.7518   36.8378   -0.1535 C   0  0  0  0  0  0  0  0  0  0  0  0
    8.7654   36.7995   -1.5435 C   0  0  0  0  0  0  0  0  0  0  0  0
    9.2666   37.8749   -2.2790 C   0  0  0  0  0  0  0  0  0  0  0  0
    9.7433   39.0017   -1.6196 C   0  0  0  0  0  0  0  0  0  0  0  0
    9.7439   39.0340   -0.2231 C   0  0  0  0  0  0  0  0  0  0  0  0
   14.5157   43.2985   -9.7053 C   0  0  0  0  0  0  0  0  0  0  0  0
   15.1882   43.7387   -8.3997 C   0  0  0  0  0  0  0  0  0  0  0  0
   14.8482   45.1997   -8.0760 C   0  0  0  0  0  0  0  0  0  0  0  0
   16.7081   43.5604   -8.5153 C   0  0  0  0  0  0  0  0  0  0  0  0
 36 35  2  0  0  0
 36 31  1  0  0  0
 35 34  1  0  0  0
 31 32  2  0  0  0
 34 30  1  0  0  0
 34 33  2  0  0  0
 32 33  1  0  0  0
 30 29  1  0  0  0
 29 25  1  0  0  0
 25 26  2  0  0  0
 25 27  1  0  0  0
 27 24  1  0  0  0
 24 20  1  0  0  0
 21 20  2  0  0  0
 22 20  1  0  0  0
 20 18  1  0  0  0
  9  7  2  0  0  0
  8  7  1  0  0  0
  7  6  1  0  0  0
 18  1  1  0  0  0
  6  4  1  0  0  0
  6 11  1  0  0  0
  4  2  1  0  0  0
  2  3  2  0  0  0
  2  1  1  0  0  0
  1 37  1  0  0  0
 17 16  1  0  0  0
 17 12  1  0  0  0
 16 13  1  0  0  0
 11 12  1  0  0  0
 12 15  1  0  0  0
 37 38  1  0  0  0
 13 14  1  0  0  0
 40 38  1  0  0  0
 38 39  1  0  0  0
 15 14  1  0  0  0
 22 23  1  0  0  0
 18 19  1  0  0  0
  4  5  1  0  0  0
  8 10  1  0  0  0
 27 28  1  0  0  0
M  END
> <minimizedAffinity>
-8.34107

$$$$
5LIF_6XO_E_411


 40 41  0  0  0  0  0  0  0  0999 V2000
    9.9362   38.3764   -3.6531 C   0  0  0  0  0  0  0  0  0  0  0  0
    8.8093   39.3580   -3.4855 C   0  0  0  0  0  0  0  0  0  0  0  0
    7.6607   38.9775   -3.3256 O   0  0  0  0  0  0  0  0  0  0  0  0
    9.1781   40.6410   -3.4720 N   0  0  0  0  0  0  0  0  0  0  0  0
   10.1193   40.8668   -3.6518 H   0  0  0  0  0  0  0  0  0  0  0  0
    8.2391   41.7147   -3.2013 C   0  0  0  0  0  0  0  0  0  0  0  0
    8.3585   42.2301   -1.8098 C   0  0  0  0  0  0  0  0  0  0  0  0
    9.5012   41.9831   -1.1924 O   0  0  0  0  0  0  0  0  0  0  0  0
    7.4609   42.8588   -1.2816 O   0  0  0  0  0  0  0  0  0  0  0  0
   10.1729   41.4956   -1.6273 H   0  0  0  0  0  0  0  0  0  0  0  0
    6.8423   41.0908   -3.4803 C   0  0  0  0  0  0  0  0  0  0  0  0
    5.9020   41.8088   -4.4539 C   0  0  0  0  0  0  0  0  0  0  0  0
    4.6873   44.3376   -5.3501 C   0  0  0  0  0  0  0  0  0  0  0  0
    3.8704   43.3067   -4.5500 C   0  0  0  0  0  0  0  0  0  0  0  0
    4.8523   42.5726   -3.6260 C   0  0  0  0  0  0  0  0  0  0  0  0
    5.7908   43.6386   -6.1722 C   0  0  0  0  0  0  0  0  0  0  0  0
    6.7229   42.8309   -5.2514 C   0  0  0  0  0  0  0  0  0  0  0  0
   11.0666   38.9188   -4.4376 N   0  0  0  0  0  0  0  0  0  0  0  0
   11.2526   39.8516   -4.0694 H   0  0  0  0  0  0  0  0  0  0  0  0
   10.9779   39.0662   -5.9984 P   0  0  0  0  0  0  0  0  0  0  0  0
   10.6926   40.5178   -6.3523 O   0  0  0  0  0  0  0  0  0  0  0  0
    9.9899   38.1210   -6.6017 O   0  0  0  0  0  0  0  0  0  0  0  0
    9.9680   38.2463   -7.5633 H   0  0  0  0  0  0  0  0  0  0  0  0
   12.6529   38.6256   -6.5452 C   0  0  0  0  0  0  0  0  0  0  0  0
   12.7143   38.2934   -8.9126 C   0  0  0  0  0  0  0  0  0  0  0  0
   12.8562   39.4717   -9.1568 O   0  0  0  0  0  0  0  0  0  0  0  0
   12.6129   37.7438   -7.6900 N   0  0  0  0  0  0  0  0  0  0  0  0
   12.5145   36.7707   -7.5777 H   0  0  0  0  0  0  0  0  0  0  0  0
   12.6353   37.3665   -9.8504 O   0  0  0  0  0  0  0  0  0  0  0  0
   13.8916   36.7112  -10.1143 C   0  0  0  0  0  0  0  0  0  0  0  0
   13.8156   36.6665  -14.4396 C   0  0  0  0  0  0  0  0  0  0  0  0
   13.4136   35.5441  -13.7096 C   0  0  0  0  0  0  0  0  0  0  0  0
   13.4329   35.5707  -12.3194 C   0  0  0  0  0  0  0  0  0  0  0  0
   13.8649   36.7091  -11.6366 C   0  0  0  0  0  0  0  0  0  0  0  0
   14.2942   37.8222  -12.3496 C   0  0  0  0  0  0  0  0  0  0  0  0
   14.2602   37.8011  -13.7459 C   0  0  0  0  0  0  0  0  0  0  0  0
   10.4783   38.0445   -2.2378 C   0  0  0  0  0  0  0  0  0  0  0  0
    9.4181   37.5597   -1.2420 C   0  0  0  0  0  0  0  0  0  0  0  0
    9.6281   38.2030    0.1354 C   0  0  0  0  0  0  0  0  0  0  0  0
    9.4767   36.0303   -1.1282 C   0  0  0  0  0  0  0  0  0  0  0  0
 36 35  2  0  0  0
 36 31  1  0  0  0
 35 34  1  0  0  0
 31 32  2  0  0  0
 34 30  1  0  0  0
 34 33  2  0  0  0
 32 33  1  0  0  0
 30 29  1  0  0  0
 29 25  1  0  0  0
 25 26  2  0  0  0
 25 27  1  0  0  0
 27 24  1  0  0  0
 24 20  1  0  0  0
 21 20  2  0  0  0
 22 20  1  0  0  0
 20 18  1  0  0  0
  9  7  2  0  0  0
  8  7  1  0  0  0
  7  6  1  0  0  0
 18  1  1  0  0  0
  6  4  1  0  0  0
  6 11  1  0  0  0
  4  2  1  0  0  0
  2  3  2  0  0  0
  2  1  1  0  0  0
  1 37  1  0  0  0
 17 16  1  0  0  0
 17 12  1  0  0  0
 16 13  1  0  0  0
 11 12  1  0  0  0
 12 15  1  0  0  0
 37 38  1  0  0  0
 13 14  1  0  0  0
 40 38  1  0  0  0
 38 39  1  0  0  0
 15 14  1  0  0  0
 22 23  1  0  0  0
 18 19  1  0  0  0
  4  5  1  0  0  0
  8 10  1  0  0  0
 27 28  1  0  0  0
M  END
> <minimizedAffinity>
-8.22436

$$$$
5LIF_6XO_E_411


 40 41  0  0  0  0  0  0  0  0999 V2000
   13.2389   39.5313   -9.2808 C   0  0  0  0  0  0  0  0  0  0  0  0
   13.1776   38.2340  -10.0390 C   0  0  0  0  0  0  0  0  0  0  0  0
   12.4347   37.3324   -9.6860 O   0  0  0  0  0  0  0  0  0  0  0  0
   13.9444   38.1837  -11.1307 N   0  0  0  0  0  0  0  0  0  0  0  0
   14.5484   38.9371  -11.3224 H   0  0  0  0  0  0  0  0  0  0  0  0
   13.9183   37.0562  -12.0449 C   0  0  0  0  0  0  0  0  0  0  0  0
   14.5005   35.8268  -11.4401 C   0  0  0  0  0  0  0  0  0  0  0  0
   15.1316   35.9856  -10.2893 O   0  0  0  0  0  0  0  0  0  0  0  0
   14.3833   34.7371  -11.9683 O   0  0  0  0  0  0  0  0  0  0  0  0
   15.2045   36.8388   -9.9088 H   0  0  0  0  0  0  0  0  0  0  0  0
   14.7229   37.5404  -13.2844 C   0  0  0  0  0  0  0  0  0  0  0  0
   13.9557   38.1539  -14.4602 C   0  0  0  0  0  0  0  0  0  0  0  0
   14.0118   39.8368  -16.8764 C   0  0  0  0  0  0  0  0  0  0  0  0
   13.3948   40.3553  -15.5646 C   0  0  0  0  0  0  0  0  0  0  0  0
   14.1523   39.6802  -14.4126 C   0  0  0  0  0  0  0  0  0  0  0  0
   13.8869   38.3013  -16.9676 C   0  0  0  0  0  0  0  0  0  0  0  0
   14.5720   37.6296  -15.7641 C   0  0  0  0  0  0  0  0  0  0  0  0
   13.1431   39.3525   -7.8158 N   0  0  0  0  0  0  0  0  0  0  0  0
   13.2270   38.3511   -7.6408 H   0  0  0  0  0  0  0  0  0  0  0  0
   11.8820   39.8395   -7.0170 P   0  0  0  0  0  0  0  0  0  0  0  0
   10.9071   40.5092   -7.9735 O   0  0  0  0  0  0  0  0  0  0  0  0
   12.2462   40.7128   -5.8602 O   0  0  0  0  0  0  0  0  0  0  0  0
   11.4399   40.9893   -5.3973 H   0  0  0  0  0  0  0  0  0  0  0  0
   11.1632   38.2880   -6.4048 C   0  0  0  0  0  0  0  0  0  0  0  0
   10.2031   38.1276   -4.2204 C   0  0  0  0  0  0  0  0  0  0  0  0
    9.0631   38.1586   -4.6298 O   0  0  0  0  0  0  0  0  0  0  0  0
   11.3168   38.1714   -4.9721 N   0  0  0  0  0  0  0  0  0  0  0  0
   12.2095   38.1255   -4.5596 H   0  0  0  0  0  0  0  0  0  0  0  0
   10.5074   38.0473   -2.9375 O   0  0  0  0  0  0  0  0  0  0  0  0
   10.2756   36.7405   -2.3754 C   0  0  0  0  0  0  0  0  0  0  0  0
    8.5182   37.8908    1.4067 C   0  0  0  0  0  0  0  0  0  0  0  0
    9.7013   38.4877    0.9614 C   0  0  0  0  0  0  0  0  0  0  0  0
   10.2542   38.1180   -0.2598 C   0  0  0  0  0  0  0  0  0  0  0  0
    9.6452   37.1403   -1.0484 C   0  0  0  0  0  0  0  0  0  0  0  0
    8.4841   36.5182   -0.6051 C   0  0  0  0  0  0  0  0  0  0  0  0
    7.9202   36.9005    0.6144 C   0  0  0  0  0  0  0  0  0  0  0  0
   14.6189   40.1767   -9.5742 C   0  0  0  0  0  0  0  0  0  0  0  0
   14.5719   41.6763   -9.8902 C   0  0  0  0  0  0  0  0  0  0  0  0
   14.3203   41.9115  -11.3857 C   0  0  0  0  0  0  0  0  0  0  0  0
   15.8902   42.3361   -9.4635 C   0  0  0  0  0  0  0  0  0  0  0  0
 36 35  2  0  0  0
 36 31  1  0  0  0
 35 34  1  0  0  0
 31 32  2  0  0  0
 34 30  1  0  0  0
 34 33  2  0  0  0
 32 33  1  0  0  0
 30 29  1  0  0  0
 29 25  1  0  0  0
 25 26  2  0  0  0
 25 27  1  0  0  0
 27 24  1  0  0  0
 24 20  1  0  0  0
 21 20  2  0  0  0
 22 20  1  0  0  0
 20 18  1  0  0  0
  9  7  2  0  0  0
  8  7  1  0  0  0
  7  6  1  0  0  0
 18  1  1  0  0  0
  6  4  1  0  0  0
  6 11  1  0  0  0
  4  2  1  0  0  0
  2  3  2  0  0  0
  2  1  1  0  0  0
  1 37  1  0  0  0
 17 16  1  0  0  0
 17 12  1  0  0  0
 16 13  1  0  0  0
 11 12  1  0  0  0
 12 15  1  0  0  0
 37 38  1  0  0  0
 13 14  1  0  0  0
 40 38  1  0  0  0
 38 39  1  0  0  0
 15 14  1  0  0  0
 22 23  1  0  0  0
 18 19  1  0  0  0
  4  5  1  0  0  0
  8 10  1  0  0  0
 27 28  1  0  0  0
M  END
> <minimizedAffinity>
-8.22421

$$$$
5LIF_6XO_E_411


 40 41  0  0  0  0  0  0  0  0999 V2000
   12.7722   42.6414   -8.3098 C   0  0  0  0  0  0  0  0  0  0  0  0
   12.0863   41.3211   -8.5288 C   0  0  0  0  0  0  0  0  0  0  0  0
   10.9706   41.2645   -9.0203 O   0  0  0  0  0  0  0  0  0  0  0  0
   12.8105   40.2493   -8.1986 N   0  0  0  0  0  0  0  0  0  0  0  0
   13.6853   40.3814   -7.7668 H   0  0  0  0  0  0  0  0  0  0  0  0
   12.3525   38.8956   -8.4543 C   0  0  0  0  0  0  0  0  0  0  0  0
   11.8148   38.2419   -7.2297 C   0  0  0  0  0  0  0  0  0  0  0  0
   10.4991   38.2393   -7.0999 O   0  0  0  0  0  0  0  0  0  0  0  0
   12.5467   37.7240   -6.4074 O   0  0  0  0  0  0  0  0  0  0  0  0
    9.9632   38.6471   -7.7513 H   0  0  0  0  0  0  0  0  0  0  0  0
   13.6032   38.1598   -9.0136 C   0  0  0  0  0  0  0  0  0  0  0  0
   13.4589   37.3530  -10.3081 C   0  0  0  0  0  0  0  0  0  0  0  0
   14.7022   36.3579  -12.7855 C   0  0  0  0  0  0  0  0  0  0  0  0
   13.6937   37.5207  -12.8176 C   0  0  0  0  0  0  0  0  0  0  0  0
   13.8301   38.2724  -11.4860 C   0  0  0  0  0  0  0  0  0  0  0  0
   14.4122   35.4178  -11.5964 C   0  0  0  0  0  0  0  0  0  0  0  0
   14.4629   36.1932  -10.2677 C   0  0  0  0  0  0  0  0  0  0  0  0
   12.1417   43.4538   -7.2469 N   0  0  0  0  0  0  0  0  0  0  0  0
   11.4323   42.8626   -6.8137 H   0  0  0  0  0  0  0  0  0  0  0  0
   11.4419   44.8209   -7.5743 P   0  0  0  0  0  0  0  0  0  0  0  0
   12.0744   45.4257   -8.8185 O   0  0  0  0  0  0  0  0  0  0  0  0
   11.4532   45.7567   -6.4091 O   0  0  0  0  0  0  0  0  0  0  0  0
   11.0123   46.5849   -6.6553 H   0  0  0  0  0  0  0  0  0  0  0  0
    9.7331   44.3266   -7.9407 C   0  0  0  0  0  0  0  0  0  0  0  0
    8.8417   43.4152   -5.9174 C   0  0  0  0  0  0  0  0  0  0  0  0
    8.6719   44.5007   -5.4067 O   0  0  0  0  0  0  0  0  0  0  0  0
    9.3381   43.1858   -7.1455 N   0  0  0  0  0  0  0  0  0  0  0  0
    9.4299   42.2691   -7.4926 H   0  0  0  0  0  0  0  0  0  0  0  0
    8.5532   42.2785   -5.3095 O   0  0  0  0  0  0  0  0  0  0  0  0
    7.6949   42.4444   -4.1636 C   0  0  0  0  0  0  0  0  0  0  0  0
    9.4357   39.5105   -1.5032 C   0  0  0  0  0  0  0  0  0  0  0  0
    9.2310   40.8255   -1.0754 C   0  0  0  0  0  0  0  0  0  0  0  0
    8.6626   41.7596   -1.9346 C   0  0  0  0  0  0  0  0  0  0  0  0
    8.3024   41.4019   -3.2350 C   0  0  0  0  0  0  0  0  0  0  0  0
    8.5263   40.1054   -3.6830 C   0  0  0  0  0  0  0  0  0  0  0  0
    9.0830   39.1630   -2.8151 C   0  0  0  0  0  0  0  0  0  0  0  0
   14.2251   42.3410   -7.8558 C   0  0  0  0  0  0  0  0  0  0  0  0
   15.3087   42.7474   -8.8614 C   0  0  0  0  0  0  0  0  0  0  0  0
   16.3858   43.6068   -8.1860 C   0  0  0  0  0  0  0  0  0  0  0  0
   14.6706   43.5152  -10.0270 C   0  0  0  0  0  0  0  0  0  0  0  0
 36 35  2  0  0  0
 36 31  1  0  0  0
 35 34  1  0  0  0
 31 32  2  0  0  0
 34 30  1  0  0  0
 34 33  2  0  0  0
 32 33  1  0  0  0
 30 29  1  0  0  0
 29 25  1  0  0  0
 25 26  2  0  0  0
 25 27  1  0  0  0
 27 24  1  0  0  0
 24 20  1  0  0  0
 21 20  2  0  0  0
 22 20  1  0  0  0
 20 18  1  0  0  0
  9  7  2  0  0  0
  8  7  1  0  0  0
  7  6  1  0  0  0
 18  1  1  0  0  0
  6  4  1  0  0  0
  6 11  1  0  0  0
  4  2  1  0  0  0
  2  3  2  0  0  0
  2  1  1  0  0  0
  1 37  1  0  0  0
 17 16  1  0  0  0
 17 12  1  0  0  0
 16 13  1  0  0  0
 11 12  1  0  0  0
 12 15  1  0  0  0
 37 38  1  0  0  0
 13 14  1  0  0  0
 40 38  1  0  0  0
 38 39  1  0  0  0
 15 14  1  0  0  0
 22 23  1  0  0  0
 18 19  1  0  0  0
  4  5  1  0  0  0
  8 10  1  0  0  0
 27 28  1  0  0  0
M  END
> <minimizedAffinity>
-8.17148

$$$$
5LIF_6XO_E_411


 40 41  0  0  0  0  0  0  0  0999 V2000
   10.8925   42.2223   -7.7519 C   0  0  0  0  0  0  0  0  0  0  0  0
   11.6603   40.9561   -7.4895 C   0  0  0  0  0  0  0  0  0  0  0  0
   12.3973   40.8552   -6.5220 O   0  0  0  0  0  0  0  0  0  0  0  0
   11.4248   39.9661   -8.3536 N   0  0  0  0  0  0  0  0  0  0  0  0
   10.8499   40.1423   -9.1331 H   0  0  0  0  0  0  0  0  0  0  0  0
   11.9873   38.6386   -8.1835 C   0  0  0  0  0  0  0  0  0  0  0  0
   11.7709   38.1067   -6.8100 C   0  0  0  0  0  0  0  0  0  0  0  0
   12.8588   37.8880   -6.0912 O   0  0  0  0  0  0  0  0  0  0  0  0
   10.6544   37.9046   -6.3711 O   0  0  0  0  0  0  0  0  0  0  0  0
   13.7045   38.0539   -6.4589 H   0  0  0  0  0  0  0  0  0  0  0  0
   13.4964   38.8086   -8.5180 C   0  0  0  0  0  0  0  0  0  0  0  0
   14.0365   38.1736   -9.8035 C   0  0  0  0  0  0  0  0  0  0  0  0
   13.5218   37.3038  -12.5697 C   0  0  0  0  0  0  0  0  0  0  0  0
   13.6449   36.2789  -11.4275 C   0  0  0  0  0  0  0  0  0  0  0  0
   13.1453   36.9666  -10.1491 C   0  0  0  0  0  0  0  0  0  0  0  0
   14.3604   38.5630  -12.2646 C   0  0  0  0  0  0  0  0  0  0  0  0
   13.9156   39.2014  -10.9365 C   0  0  0  0  0  0  0  0  0  0  0  0
   10.0987   42.6717   -6.5876 N   0  0  0  0  0  0  0  0  0  0  0  0
    9.6794   41.8344   -6.1832 H   0  0  0  0  0  0  0  0  0  0  0  0
    8.9382   43.7172   -6.7482 P   0  0  0  0  0  0  0  0  0  0  0  0
    8.4830   43.7462   -8.1993 O   0  0  0  0  0  0  0  0  0  0  0  0
    9.3182   45.0689   -6.2362 O   0  0  0  0  0  0  0  0  0  0  0  0
    8.5747   45.6804   -6.3550 H   0  0  0  0  0  0  0  0  0  0  0  0
    7.6183   43.0233   -5.7114 C   0  0  0  0  0  0  0  0  0  0  0  0
    7.2877   41.3472   -4.0380 C   0  0  0  0  0  0  0  0  0  0  0  0
    6.0838   41.3322   -4.1741 O   0  0  0  0  0  0  0  0  0  0  0  0
    8.1539   42.1110   -4.7262 N   0  0  0  0  0  0  0  0  0  0  0  0
    9.1231   42.0509   -4.5642 H   0  0  0  0  0  0  0  0  0  0  0  0
    7.9246   40.5901   -3.1627 O   0  0  0  0  0  0  0  0  0  0  0  0
    8.9028   39.7193   -3.7644 C   0  0  0  0  0  0  0  0  0  0  0  0
    9.6045   37.0299   -0.4492 C   0  0  0  0  0  0  0  0  0  0  0  0
    9.7030   38.4136   -0.2756 C   0  0  0  0  0  0  0  0  0  0  0  0
    9.4671   39.2707   -1.3448 C   0  0  0  0  0  0  0  0  0  0  0  0
    9.1430   38.7630   -2.6042 C   0  0  0  0  0  0  0  0  0  0  0  0
    9.0693   37.3887   -2.7981 C   0  0  0  0  0  0  0  0  0  0  0  0
    9.2912   36.5281   -1.7204 C   0  0  0  0  0  0  0  0  0  0  0  0
   11.9261   43.3377   -8.0596 C   0  0  0  0  0  0  0  0  0  0  0  0
   12.9442   42.9859   -9.1507 C   0  0  0  0  0  0  0  0  0  0  0  0
   14.3737   43.0154   -8.5935 C   0  0  0  0  0  0  0  0  0  0  0  0
   12.8097   43.9706  -10.3201 C   0  0  0  0  0  0  0  0  0  0  0  0
 36 35  2  0  0  0
 36 31  1  0  0  0
 35 34  1  0  0  0
 31 32  2  0  0  0
 34 30  1  0  0  0
 34 33  2  0  0  0
 32 33  1  0  0  0
 30 29  1  0  0  0
 29 25  1  0  0  0
 25 26  2  0  0  0
 25 27  1  0  0  0
 27 24  1  0  0  0
 24 20  1  0  0  0
 21 20  2  0  0  0
 22 20  1  0  0  0
 20 18  1  0  0  0
  9  7  2  0  0  0
  8  7  1  0  0  0
  7  6  1  0  0  0
 18  1  1  0  0  0
  6  4  1  0  0  0
  6 11  1  0  0  0
  4  2  1  0  0  0
  2  3  2  0  0  0
  2  1  1  0  0  0
  1 37  1  0  0  0
 17 16  1  0  0  0
 17 12  1  0  0  0
 16 13  1  0  0  0
 11 12  1  0  0  0
 12 15  1  0  0  0
 37 38  1  0  0  0
 13 14  1  0  0  0
 40 38  1  0  0  0
 38 39  1  0  0  0
 15 14  1  0  0  0
 22 23  1  0  0  0
 18 19  1  0  0  0
  4  5  1  0  0  0
  8 10  1  0  0  0
 27 28  1  0  0  0
M  END
> <minimizedAffinity>
-8.16017

$$$$
