3RDQ_DTB_A_300


 18 18  0  0  0  0  0  0  0  0999 V2000
   15.5737   28.8342   -8.5354 C   0  0  0  0  0  0  0  0  0  0  0  0
   14.3591   29.2146   -8.2278 O   0  0  0  0  0  0  0  0  0  0  0  0
   15.9333   28.3458   -9.6660 N   0  0  0  0  0  0  0  0  0  0  0  0
   17.4107   28.2722   -9.7614 C   0  0  0  0  0  0  0  0  0  0  0  0
   17.8294   28.5509   -8.2957 C   0  0  0  0  0  0  0  0  0  0  0  0
   16.5790   28.9812   -7.6803 N   0  0  0  0  0  0  0  0  0  0  0  0
   18.3763   27.3306   -7.5809 C   0  0  0  0  0  0  0  0  0  0  0  0
   15.3124   28.0589  -10.3740 H   0  0  0  0  0  0  0  0  0  0  0  0
   16.4927   29.3300   -6.7638 H   0  0  0  0  0  0  0  0  0  0  0  0
   17.7526   26.8889  -10.3185 C   0  0  0  0  0  0  0  0  0  0  0  0
   17.7703   26.8945  -11.8535 C   0  0  0  0  0  0  0  0  0  0  0  0
   16.8424   25.8264  -12.4474 C   0  0  0  0  0  0  0  0  0  0  0  0
   17.6009   24.9999  -13.4998 C   0  0  0  0  0  0  0  0  0  0  0  0
   19.0288   24.6509  -13.0135 C   0  0  0  0  0  0  0  0  0  0  0  0
   19.9989   24.4393  -14.1621 C   0  0  0  0  0  0  0  0  0  0  0  0
   19.6297   24.6292  -15.3440 O   0  0  0  0  0  0  0  0  0  0  0  0
   21.2006   24.1274  -13.8955 O   0  0  0  0  0  0  0  0  0  0  0  0
   21.4624   23.9884  -13.0066 H   0  0  0  0  0  0  0  0  0  0  0  0
  1  2  2  0  0  0
  1  3  1  0  0  0
  1  6  1  0  0  0
  3  4  1  0  0  0
  4  5  1  0  0  0
  4 10  1  0  0  0
  5  6  1  0  0  0
  5  7  1  0  0  0
 10 11  1  0  0  0
 11 12  1  0  0  0
 12 13  1  0  0  0
 13 14  1  0  0  0
 14 15  1  0  0  0
 15 16  2  0  0  0
 15 17  1  0  0  0
  3  8  1  0  0  0
  6  9  1  0  0  0
 17 18  1  0  0  0
M  END
> <minimizedAffinity>
-7.15517

$$$$
3RDQ_DTB_A_300


 18 18  0  0  0  0  0  0  0  0999 V2000
   15.6963   28.6133   -8.8878 C   0  0  0  0  0  0  0  0  0  0  0  0
   14.4035   28.4134   -8.9430 O   0  0  0  0  0  0  0  0  0  0  0  0
   16.5097   28.4783   -9.8708 N   0  0  0  0  0  0  0  0  0  0  0  0
   17.8417   29.0332   -9.5316 C   0  0  0  0  0  0  0  0  0  0  0  0
   17.7051   29.2532   -8.0038 C   0  0  0  0  0  0  0  0  0  0  0  0
   16.2804   29.0407   -7.7745 N   0  0  0  0  0  0  0  0  0  0  0  0
   18.5231   28.2799   -7.1776 C   0  0  0  0  0  0  0  0  0  0  0  0
   16.2803   28.0625  -10.7332 H   0  0  0  0  0  0  0  0  0  0  0  0
   15.8187   29.1922   -6.9183 H   0  0  0  0  0  0  0  0  0  0  0  0
   18.8807   28.0053   -9.9839 C   0  0  0  0  0  0  0  0  0  0  0  0
   18.2742   26.5974  -10.0649 C   0  0  0  0  0  0  0  0  0  0  0  0
   18.6571   25.8755  -11.3636 C   0  0  0  0  0  0  0  0  0  0  0  0
   17.6889   26.2750  -12.4901 C   0  0  0  0  0  0  0  0  0  0  0  0
   17.4273   25.0881  -13.4494 C   0  0  0  0  0  0  0  0  0  0  0  0
   18.6921   24.6073  -14.1381 C   0  0  0  0  0  0  0  0  0  0  0  0
   19.3338   25.3771  -14.8898 O   0  0  0  0  0  0  0  0  0  0  0  0
   19.1146   23.4363  -13.8885 O   0  0  0  0  0  0  0  0  0  0  0  0
   18.6240   22.8715  -13.3242 H   0  0  0  0  0  0  0  0  0  0  0  0
  1  2  2  0  0  0
  1  3  1  0  0  0
  1  6  1  0  0  0
  3  4  1  0  0  0
  4  5  1  0  0  0
  4 10  1  0  0  0
  5  6  1  0  0  0
  5  7  1  0  0  0
 10 11  1  0  0  0
 11 12  1  0  0  0
 12 13  1  0  0  0
 13 14  1  0  0  0
 14 15  1  0  0  0
 15 16  2  0  0  0
 15 17  1  0  0  0
  3  8  1  0  0  0
  6  9  1  0  0  0
 17 18  1  0  0  0
M  END
> <minimizedAffinity>
-6.71396

$$$$
3RDQ_DTB_A_300


 18 18  0  0  0  0  0  0  0  0999 V2000
   15.6086   28.5251   -8.9445 C   0  0  0  0  0  0  0  0  0  0  0  0
   14.3010   28.5040   -9.0084 O   0  0  0  0  0  0  0  0  0  0  0  0
   16.4026   28.1895   -9.8947 N   0  0  0  0  0  0  0  0  0  0  0  0
   17.7969   28.5807   -9.5784 C   0  0  0  0  0  0  0  0  0  0  0  0
   17.6806   28.9543   -8.0790 C   0  0  0  0  0  0  0  0  0  0  0  0
   16.2384   28.9650   -7.8613 N   0  0  0  0  0  0  0  0  0  0  0  0
   18.3462   27.9544   -7.1537 C   0  0  0  0  0  0  0  0  0  0  0  0
   16.1236   27.7340  -10.7218 H   0  0  0  0  0  0  0  0  0  0  0  0
   15.7959   29.2562   -7.0314 H   0  0  0  0  0  0  0  0  0  0  0  0
   18.6838   27.3808   -9.9169 C   0  0  0  0  0  0  0  0  0  0  0  0
   19.8864   27.8001  -10.7739 C   0  0  0  0  0  0  0  0  0  0  0  0
   20.2249   26.7569  -11.8470 C   0  0  0  0  0  0  0  0  0  0  0  0
   19.2285   25.5873  -11.7733 C   0  0  0  0  0  0  0  0  0  0  0  0
   19.0929   24.8812  -13.1445 C   0  0  0  0  0  0  0  0  0  0  0  0
   17.6450   24.6578  -13.5431 C   0  0  0  0  0  0  0  0  0  0  0  0
   16.7407   25.3863  -13.0730 O   0  0  0  0  0  0  0  0  0  0  0  0
   17.3809   23.7625  -14.4038 O   0  0  0  0  0  0  0  0  0  0  0  0
   18.0676   23.2250  -14.7466 H   0  0  0  0  0  0  0  0  0  0  0  0
  1  2  2  0  0  0
  1  3  1  0  0  0
  1  6  1  0  0  0
  3  4  1  0  0  0
  4  5  1  0  0  0
  4 10  1  0  0  0
  5  6  1  0  0  0
  5  7  1  0  0  0
 10 11  1  0  0  0
 11 12  1  0  0  0
 12 13  1  0  0  0
 13 14  1  0  0  0
 14 15  1  0  0  0
 15 16  2  0  0  0
 15 17  1  0  0  0
  3  8  1  0  0  0
  6  9  1  0  0  0
 17 18  1  0  0  0
M  END
> <minimizedAffinity>
-6.42372

$$$$
3RDQ_DTB_A_300


 18 18  0  0  0  0  0  0  0  0999 V2000
   19.1828   28.2048   -7.7327 C   0  0  0  0  0  0  0  0  0  0  0  0
   20.3389   28.6002   -7.2619 O   0  0  0  0  0  0  0  0  0  0  0  0
   19.0186   27.4546   -8.7603 N   0  0  0  0  0  0  0  0  0  0  0  0
   17.6135   26.9917   -8.8547 C   0  0  0  0  0  0  0  0  0  0  0  0
   16.9189   27.8963   -7.8058 C   0  0  0  0  0  0  0  0  0  0  0  0
   18.0462   28.5217   -7.1236 N   0  0  0  0  0  0  0  0  0  0  0  0
   16.0213   28.9533   -8.4190 C   0  0  0  0  0  0  0  0  0  0  0  0
   19.7292   27.2184   -9.3995 H   0  0  0  0  0  0  0  0  0  0  0  0
   17.9748   29.0957   -6.3269 H   0  0  0  0  0  0  0  0  0  0  0  0
   17.1806   27.1765  -10.3105 C   0  0  0  0  0  0  0  0  0  0  0  0
   18.0126   26.2986  -11.2558 C   0  0  0  0  0  0  0  0  0  0  0  0
   17.3564   26.1487  -12.6347 C   0  0  0  0  0  0  0  0  0  0  0  0
   17.9454   24.9301  -13.3655 C   0  0  0  0  0  0  0  0  0  0  0  0
   19.3099   24.5204  -12.7593 C   0  0  0  0  0  0  0  0  0  0  0  0
   20.4683   24.7806  -13.7056 C   0  0  0  0  0  0  0  0  0  0  0  0
   21.1418   25.8322  -13.6058 O   0  0  0  0  0  0  0  0  0  0  0  0
   20.7748   23.8870  -14.5541 O   0  0  0  0  0  0  0  0  0  0  0  0
   20.2618   23.1055  -14.6174 H   0  0  0  0  0  0  0  0  0  0  0  0
  1  2  2  0  0  0
  1  3  1  0  0  0
  1  6  1  0  0  0
  3  4  1  0  0  0
  4  5  1  0  0  0
  4 10  1  0  0  0
  5  6  1  0  0  0
  5  7  1  0  0  0
 10 11  1  0  0  0
 11 12  1  0  0  0
 12 13  1  0  0  0
 13 14  1  0  0  0
 14 15  1  0  0  0
 15 16  2  0  0  0
 15 17  1  0  0  0
  3  8  1  0  0  0
  6  9  1  0  0  0
 17 18  1  0  0  0
M  END
> <minimizedAffinity>
-6.29382

$$$$
3RDQ_DTB_A_300


 18 18  0  0  0  0  0  0  0  0999 V2000
   20.3152   25.4061  -13.2744 C   0  0  0  0  0  0  0  0  0  0  0  0
   21.4437   24.8406  -13.6226 O   0  0  0  0  0  0  0  0  0  0  0  0
   20.1128   26.0444  -12.1801 N   0  0  0  0  0  0  0  0  0  0  0  0
   18.8223   26.7723  -12.2264 C   0  0  0  0  0  0  0  0  0  0  0  0
   18.1694   26.1638  -13.4932 C   0  0  0  0  0  0  0  0  0  0  0  0
   19.2652   25.4063  -14.0874 N   0  0  0  0  0  0  0  0  0  0  0  0
   16.9994   25.2484  -13.1897 C   0  0  0  0  0  0  0  0  0  0  0  0
   20.7307   26.0500  -11.4137 H   0  0  0  0  0  0  0  0  0  0  0  0
   19.2312   24.9599  -14.9642 H   0  0  0  0  0  0  0  0  0  0  0  0
   18.1131   26.5063  -10.8971 C   0  0  0  0  0  0  0  0  0  0  0  0
   18.8134   27.2276   -9.7370 C   0  0  0  0  0  0  0  0  0  0  0  0
   18.1956   26.8739   -8.3777 C   0  0  0  0  0  0  0  0  0  0  0  0
   17.8047   28.1596   -7.6293 C   0  0  0  0  0  0  0  0  0  0  0  0
   16.9443   29.0866   -8.5224 C   0  0  0  0  0  0  0  0  0  0  0  0
   15.4918   28.6491   -8.5854 C   0  0  0  0  0  0  0  0  0  0  0  0
   15.1647   27.6379   -9.2485 O   0  0  0  0  0  0  0  0  0  0  0  0
   14.6319   29.2908   -7.9062 O   0  0  0  0  0  0  0  0  0  0  0  0
   14.8912   30.0454   -7.4150 H   0  0  0  0  0  0  0  0  0  0  0  0
  1  2  2  0  0  0
  1  3  1  0  0  0
  1  6  1  0  0  0
  3  4  1  0  0  0
  4  5  1  0  0  0
  4 10  1  0  0  0
  5  6  1  0  0  0
  5  7  1  0  0  0
 10 11  1  0  0  0
 11 12  1  0  0  0
 12 13  1  0  0  0
 13 14  1  0  0  0
 14 15  1  0  0  0
 15 16  2  0  0  0
 15 17  1  0  0  0
  3  8  1  0  0  0
  6  9  1  0  0  0
 17 18  1  0  0  0
M  END
> <minimizedAffinity>
-6.10573

$$$$
3RDQ_DTB_A_300


 18 18  0  0  0  0  0  0  0  0999 V2000
   17.3324   25.8296  -12.3458 C   0  0  0  0  0  0  0  0  0  0  0  0
   16.1599   25.4864  -12.8169 O   0  0  0  0  0  0  0  0  0  0  0  0
   17.5338   26.6816  -11.4080 N   0  0  0  0  0  0  0  0  0  0  0  0
   18.9420   26.6342  -10.9474 C   0  0  0  0  0  0  0  0  0  0  0  0
   19.5980   25.7627  -12.0481 C   0  0  0  0  0  0  0  0  0  0  0  0
   18.4465   25.2572  -12.7869 N   0  0  0  0  0  0  0  0  0  0  0  0
   20.5149   26.5427  -12.9700 C   0  0  0  0  0  0  0  0  0  0  0  0
   16.8464   27.2849  -11.0436 H   0  0  0  0  0  0  0  0  0  0  0  0
   18.4890   24.5884  -13.5081 H   0  0  0  0  0  0  0  0  0  0  0  0
   19.4254   28.0820  -10.8434 C   0  0  0  0  0  0  0  0  0  0  0  0
   20.1527   28.3333   -9.5150 C   0  0  0  0  0  0  0  0  0  0  0  0
   19.4119   29.3459   -8.6317 C   0  0  0  0  0  0  0  0  0  0  0  0
   17.9485   29.4684   -9.0892 C   0  0  0  0  0  0  0  0  0  0  0  0
   16.9809   28.8892   -8.0284 C   0  0  0  0  0  0  0  0  0  0  0  0
   15.6286   28.5223   -8.6132 C   0  0  0  0  0  0  0  0  0  0  0  0
   15.5249   27.5621   -9.4111 O   0  0  0  0  0  0  0  0  0  0  0  0
   14.6038   29.1671   -8.2308 O   0  0  0  0  0  0  0  0  0  0  0  0
   14.6968   29.8832   -7.6336 H   0  0  0  0  0  0  0  0  0  0  0  0
  1  2  2  0  0  0
  1  3  1  0  0  0
  1  6  1  0  0  0
  3  4  1  0  0  0
  4  5  1  0  0  0
  4 10  1  0  0  0
  5  6  1  0  0  0
  5  7  1  0  0  0
 10 11  1  0  0  0
 11 12  1  0  0  0
 12 13  1  0  0  0
 13 14  1  0  0  0
 14 15  1  0  0  0
 15 16  2  0  0  0
 15 17  1  0  0  0
  3  8  1  0  0  0
  6  9  1  0  0  0
 17 18  1  0  0  0
M  END
> <minimizedAffinity>
-5.96668

$$$$
3RDQ_DTB_A_300


 18 18  0  0  0  0  0  0  0  0999 V2000
   15.5294   28.5507   -8.9231 C   0  0  0  0  0  0  0  0  0  0  0  0
   14.2234   28.4828   -8.9881 O   0  0  0  0  0  0  0  0  0  0  0  0
   16.3347   28.2696   -9.8814 N   0  0  0  0  0  0  0  0  0  0  0  0
   17.7137   28.7040   -9.5544 C   0  0  0  0  0  0  0  0  0  0  0  0
   17.5844   29.0340   -8.0459 C   0  0  0  0  0  0  0  0  0  0  0  0
   16.1429   28.9854   -7.8286 N   0  0  0  0  0  0  0  0  0  0  0  0
   18.2872   28.0359   -7.1465 C   0  0  0  0  0  0  0  0  0  0  0  0
   16.0724   27.8257  -10.7201 H   0  0  0  0  0  0  0  0  0  0  0  0
   15.6904   29.2384   -6.9916 H   0  0  0  0  0  0  0  0  0  0  0  0
   18.6444   27.5471   -9.9236 C   0  0  0  0  0  0  0  0  0  0  0  0
   19.9445   28.0582  -10.5600 C   0  0  0  0  0  0  0  0  0  0  0  0
   20.0399   29.5894  -10.5328 C   0  0  0  0  0  0  0  0  0  0  0  0
   21.0112   30.0342   -9.4261 C   0  0  0  0  0  0  0  0  0  0  0  0
   21.6195   28.8139   -8.6926 C   0  0  0  0  0  0  0  0  0  0  0  0
   22.3315   29.2024   -7.4091 C   0  0  0  0  0  0  0  0  0  0  0  0
   22.9425   30.2932   -7.3308 O   0  0  0  0  0  0  0  0  0  0  0  0
   22.2425   28.4303   -6.4049 O   0  0  0  0  0  0  0  0  0  0  0  0
   21.7822   27.6174   -6.4783 H   0  0  0  0  0  0  0  0  0  0  0  0
  1  2  2  0  0  0
  1  3  1  0  0  0
  1  6  1  0  0  0
  3  4  1  0  0  0
  4  5  1  0  0  0
  4 10  1  0  0  0
  5  6  1  0  0  0
  5  7  1  0  0  0
 10 11  1  0  0  0
 11 12  1  0  0  0
 12 13  1  0  0  0
 13 14  1  0  0  0
 14 15  1  0  0  0
 15 16  2  0  0  0
 15 17  1  0  0  0
  3  8  1  0  0  0
  6  9  1  0  0  0
 17 18  1  0  0  0
M  END
> <minimizedAffinity>
-5.94332

$$$$
3RDQ_DTB_A_300


 18 18  0  0  0  0  0  0  0  0999 V2000
   21.9870   29.0694   -7.3755 C   0  0  0  0  0  0  0  0  0  0  0  0
   22.7251   28.2966   -6.6188 O   0  0  0  0  0  0  0  0  0  0  0  0
   20.8211   28.7740   -7.8222 N   0  0  0  0  0  0  0  0  0  0  0  0
   20.1682   29.9647   -8.4167 C   0  0  0  0  0  0  0  0  0  0  0  0
   21.3512   30.9631   -8.4871 C   0  0  0  0  0  0  0  0  0  0  0  0
   22.3855   30.2916   -7.7081 N   0  0  0  0  0  0  0  0  0  0  0  0
   21.8396   31.2229   -9.8988 C   0  0  0  0  0  0  0  0  0  0  0  0
   20.4153   27.8783   -7.7764 H   0  0  0  0  0  0  0  0  0  0  0  0
   23.2533   30.6873   -7.4641 H   0  0  0  0  0  0  0  0  0  0  0  0
   19.5667   29.5225   -9.7521 C   0  0  0  0  0  0  0  0  0  0  0  0
   19.1658   28.0410   -9.7203 C   0  0  0  0  0  0  0  0  0  0  0  0
   18.2397   27.6664  -10.8849 C   0  0  0  0  0  0  0  0  0  0  0  0
   16.8353   27.3355  -10.3518 C   0  0  0  0  0  0  0  0  0  0  0  0
   16.7123   27.6818   -8.8477 C   0  0  0  0  0  0  0  0  0  0  0  0
   15.5275   28.5845   -8.5537 C   0  0  0  0  0  0  0  0  0  0  0  0
   15.2201   28.8584   -7.3706 O   0  0  0  0  0  0  0  0  0  0  0  0
   14.8978   29.1006   -9.5281 O   0  0  0  0  0  0  0  0  0  0  0  0
   15.1389   28.8864  -10.4079 H   0  0  0  0  0  0  0  0  0  0  0  0
  1  2  2  0  0  0
  1  3  1  0  0  0
  1  6  1  0  0  0
  3  4  1  0  0  0
  4  5  1  0  0  0
  4 10  1  0  0  0
  5  6  1  0  0  0
  5  7  1  0  0  0
 10 11  1  0  0  0
 11 12  1  0  0  0
 12 13  1  0  0  0
 13 14  1  0  0  0
 14 15  1  0  0  0
 15 16  2  0  0  0
 15 17  1  0  0  0
  3  8  1  0  0  0
  6  9  1  0  0  0
 17 18  1  0  0  0
M  END
> <minimizedAffinity>
-5.84624

$$$$
3RDQ_DTB_A_300


 18 18  0  0  0  0  0  0  0  0999 V2000
   15.6158   28.6954   -8.3700 C   0  0  0  0  0  0  0  0  0  0  0  0
   14.4516   29.2797   -8.2359 O   0  0  0  0  0  0  0  0  0  0  0  0
   16.5893   28.7837   -7.5392 N   0  0  0  0  0  0  0  0  0  0  0  0
   17.6480   27.7977   -7.8624 C   0  0  0  0  0  0  0  0  0  0  0  0
   17.2020   27.3140   -9.2653 C   0  0  0  0  0  0  0  0  0  0  0  0
   15.8682   27.8898   -9.3950 N   0  0  0  0  0  0  0  0  0  0  0  0
   18.0985   27.8026  -10.3863 C   0  0  0  0  0  0  0  0  0  0  0  0
   16.6281   29.4198   -6.7888 H   0  0  0  0  0  0  0  0  0  0  0  0
   15.2452   27.7076  -10.1353 H   0  0  0  0  0  0  0  0  0  0  0  0
   18.9844   28.5387   -7.7879 C   0  0  0  0  0  0  0  0  0  0  0  0
   18.8121   29.9412   -7.1880 C   0  0  0  0  0  0  0  0  0  0  0  0
   19.8573   30.9309   -7.7195 C   0  0  0  0  0  0  0  0  0  0  0  0
   20.3060   30.5120   -9.1298 C   0  0  0  0  0  0  0  0  0  0  0  0
   21.8436   30.6134   -9.2804 C   0  0  0  0  0  0  0  0  0  0  0  0
   22.5737   30.3665   -7.9723 C   0  0  0  0  0  0  0  0  0  0  0  0
   22.4716   29.2618   -7.3906 O   0  0  0  0  0  0  0  0  0  0  0  0
   23.3328   31.2768   -7.5167 O   0  0  0  0  0  0  0  0  0  0  0  0
   23.3991   32.0982   -7.9626 H   0  0  0  0  0  0  0  0  0  0  0  0
  1  2  2  0  0  0
  1  3  1  0  0  0
  1  6  1  0  0  0
  3  4  1  0  0  0
  4  5  1  0  0  0
  4 10  1  0  0  0
  5  6  1  0  0  0
  5  7  1  0  0  0
 10 11  1  0  0  0
 11 12  1  0  0  0
 12 13  1  0  0  0
 13 14  1  0  0  0
 14 15  1  0  0  0
 15 16  2  0  0  0
 15 17  1  0  0  0
  3  8  1  0  0  0
  6  9  1  0  0  0
 17 18  1  0  0  0
M  END
> <minimizedAffinity>
-5.83427

$$$$
3RDQ_DTB_A_300


 18 18  0  0  0  0  0  0  0  0999 V2000
   17.6578   25.7095  -13.0096 C   0  0  0  0  0  0  0  0  0  0  0  0
   17.3846   25.2799  -14.2160 O   0  0  0  0  0  0  0  0  0  0  0  0
   16.8338   26.3142  -12.2340 N   0  0  0  0  0  0  0  0  0  0  0  0
   17.3849   26.4219  -10.8622 C   0  0  0  0  0  0  0  0  0  0  0  0
   18.8603   26.0056  -11.0880 C   0  0  0  0  0  0  0  0  0  0  0  0
   18.8448   25.4951  -12.4543 N   0  0  0  0  0  0  0  0  0  0  0  0
   19.8386   27.1577  -10.9667 C   0  0  0  0  0  0  0  0  0  0  0  0
   15.9550   26.6597  -12.5123 H   0  0  0  0  0  0  0  0  0  0  0  0
   19.6044   25.0552  -12.9001 H   0  0  0  0  0  0  0  0  0  0  0  0
   17.1439   27.8594  -10.3971 C   0  0  0  0  0  0  0  0  0  0  0  0
   16.0695   27.9189   -9.3022 C   0  0  0  0  0  0  0  0  0  0  0  0
   16.6134   28.4938   -7.9876 C   0  0  0  0  0  0  0  0  0  0  0  0
   18.0415   27.9782   -7.7415 C   0  0  0  0  0  0  0  0  0  0  0  0
   18.8911   29.0264   -6.9821 C   0  0  0  0  0  0  0  0  0  0  0  0
   19.0891   30.3029   -7.7799 C   0  0  0  0  0  0  0  0  0  0  0  0
   19.3784   30.2486   -8.9975 O   0  0  0  0  0  0  0  0  0  0  0  0
   18.8961   31.4179   -7.2037 O   0  0  0  0  0  0  0  0  0  0  0  0
   18.6803   31.4431   -6.2922 H   0  0  0  0  0  0  0  0  0  0  0  0
  1  2  2  0  0  0
  1  3  1  0  0  0
  1  6  1  0  0  0
  3  4  1  0  0  0
  4  5  1  0  0  0
  4 10  1  0  0  0
  5  6  1  0  0  0
  5  7  1  0  0  0
 10 11  1  0  0  0
 11 12  1  0  0  0
 12 13  1  0  0  0
 13 14  1  0  0  0
 14 15  1  0  0  0
 15 16  2  0  0  0
 15 17  1  0  0  0
  3  8  1  0  0  0
  6  9  1  0  0  0
 17 18  1  0  0  0
M  END
> <minimizedAffinity>
-5.76989

$$$$
