1YET_GDM_A_275


 44 45  0  0  0  0  0  0  0  0999 V2000
   44.9957  -43.4074   63.2002 O   0  0  0  0  0  0  0  0  0  0  0  0
   38.5913  -50.1976   68.2529 O   0  0  0  0  0  0  0  0  0  0  0  0
   38.3386  -44.9186   64.3808 O   0  0  0  0  0  0  0  0  0  0  0  0
   43.0573  -46.8902   63.1095 O   0  0  0  0  0  0  0  0  0  0  0  0
   42.9019  -44.2616   63.1080 N   0  0  0  0  0  0  0  0  0  0  0  0
   44.1985  -44.1890   63.6618 C   0  0  0  0  0  0  0  0  0  0  0  0
   44.5701  -45.1523   64.7477 C   0  0  0  0  0  0  0  0  0  0  0  0
   43.8958  -45.1233   65.9269 C   0  0  0  0  0  0  0  0  0  0  0  0
   44.1487  -45.9965   67.0687 C   0  0  0  0  0  0  0  0  0  0  0  0
   43.7854  -45.7539   68.3450 C   0  0  0  0  0  0  0  0  0  0  0  0
   43.0596  -44.5700   68.8794 C   0  0  0  0  0  0  0  0  0  0  0  0
   41.7808  -44.9692   69.7424 C   0  0  0  0  0  0  0  0  0  0  0  0
   40.6762  -45.8275   68.8983 C   0  0  0  0  0  0  0  0  0  0  0  0
   40.2977  -47.0252   69.3166 C   0  0  0  0  0  0  0  0  0  0  0  0
   39.2736  -47.9454   68.7227 C   0  0  0  0  0  0  0  0  0  0  0  0
   39.7440  -49.4059   68.6250 C   0  0  0  0  0  0  0  0  0  0  0  0
   40.8757  -49.5863   67.6124 C   0  0  0  0  0  0  0  0  0  0  0  0
   40.4643  -49.2835   66.1750 C   0  0  0  0  0  0  0  0  0  0  0  0
   41.5817  -49.4039   65.1120 C   0  0  0  0  0  0  0  0  0  0  0  0
   41.1608  -48.8425   63.7095 C   0  0  0  0  0  0  0  0  0  0  0  0
   40.8385  -47.3773   63.7501 C   0  0  0  0  0  0  0  0  0  0  0  0
   39.6600  -46.8256   64.0601 C   0  0  0  0  0  0  0  0  0  0  0  0
   39.4422  -45.3674   64.0880 C   0  0  0  0  0  0  0  0  0  0  0  0
   40.5554  -44.4674   63.7705 C   0  0  0  0  0  0  0  0  0  0  0  0
   41.7478  -44.9637   63.4472 C   0  0  0  0  0  0  0  0  0  0  0  0
   41.9528  -46.4461   63.4160 C   0  0  0  0  0  0  0  0  0  0  0  0
   45.7094  -46.0731   64.4393 C   0  0  0  0  0  0  0  0  0  0  0  0
   40.0998  -45.1390   67.6591 C   0  0  0  0  0  0  0  0  0  0  0  0
   38.0240  -47.8516   69.6264 C   0  0  0  0  0  0  0  0  0  0  0  0
   42.8399  -48.7588   65.6168 C   0  0  0  0  0  0  0  0  0  0  0  0
   37.8862  -50.0693   68.9066 H   0  0  0  0  0  0  0  0  0  0  0  0
   42.7893  -43.6944   62.3112 H   0  0  0  0  0  0  0  0  0  0  0  0
   43.9206  -43.7227   69.7411 O   0  0  0  0  0  0  0  0  0  0  0  0
   44.9150  -44.4471   70.5481 C   0  0  0  0  0  0  0  0  0  0  0  0
   41.3206  -50.9601   67.6286 O   0  0  0  0  0  0  0  0  0  0  0  0
   40.5106  -51.8379   66.7850 C   0  0  0  0  0  0  0  0  0  0  0  0
   38.5105  -47.6343   64.3920 O   0  0  0  0  0  0  0  0  0  0  0  0
   37.5796  -48.1731   63.4420 C   0  0  0  0  0  0  0  0  0  0  0  0
   41.1945  -43.7941   70.1972 O   0  0  0  0  0  0  0  0  0  0  0  0
   40.6798  -44.4660   72.3332 O   0  0  0  0  0  0  0  0  0  0  0  0
   41.9121  -42.6148   71.9221 N   0  0  0  0  0  0  0  0  0  0  0  0
   41.2117  -43.6973   71.5676 C   0  0  0  0  0  0  0  0  0  0  0  0
   42.3137  -42.0402   71.2309 H   0  0  0  0  0  0  0  0  0  0  0  0
   42.0261  -42.3923   72.8743 H   0  0  0  0  0  0  0  0  0  0  0  0
  1  6  2  0  0  0
 33 11  1  0  0  0
 33 34  1  0  0  0
 39 12  1  0  0  0
 39 42  1  0  0  0
 40 42  2  0  0  0
  2 16  1  0  0  0
 35 17  1  0  0  0
 35 36  1  0  0  0
 37 22  1  0  0  0
 37 38  1  0  0  0
  3 23  2  0  0  0
  4 26  2  0  0  0
  5  6  1  0  0  0
  5 25  1  0  0  0
 41 42  1  0  0  0
  6  7  1  0  0  0
  7  8  2  0  0  0
  7 27  1  0  0  0
  8  9  1  0  0  0
  9 10  2  0  0  0
 10 11  1  0  0  0
 11 12  1  0  0  0
 12 13  1  0  0  0
 13 14  2  0  0  0
 13 28  1  0  0  0
 14 15  1  0  0  0
 15 16  1  0  0  0
 15 29  1  0  0  0
 16 17  1  0  0  0
 17 18  1  0  0  0
 18 19  1  0  0  0
 19 20  1  0  0  0
 19 30  1  0  0  0
 20 21  1  0  0  0
 21 22  2  0  0  0
 21 26  1  0  0  0
 22 23  1  0  0  0
 23 24  1  0  0  0
 24 25  2  0  0  0
 25 26  1  0  0  0
  2 31  1  0  0  0
  5 32  1  0  0  0
 41 43  1  0  0  0
 41 44  1  0  0  0
M  END
> <minimizedAffinity>
-7.69638

$$$$
1YET_GDM_A_275


 44 45  0  0  0  0  0  0  0  0999 V2000
   39.4574  -47.6663   71.3847 O   0  0  0  0  0  0  0  0  0  0  0  0
   44.5865  -45.3974   62.3738 O   0  0  0  0  0  0  0  0  0  0  0  0
   43.1501  -50.4842   66.2449 O   0  0  0  0  0  0  0  0  0  0  0  0
   39.2383  -47.1603   67.4361 O   0  0  0  0  0  0  0  0  0  0  0  0
   40.1210  -48.6196   69.4423 N   0  0  0  0  0  0  0  0  0  0  0  0
   39.9779  -47.5117   70.3055 C   0  0  0  0  0  0  0  0  0  0  0  0
   40.3960  -46.1595   69.8132 C   0  0  0  0  0  0  0  0  0  0  0  0
   41.6972  -45.9382   69.4911 C   0  0  0  0  0  0  0  0  0  0  0  0
   42.2459  -44.6771   69.0024 C   0  0  0  0  0  0  0  0  0  0  0  0
   43.5438  -44.3117   69.0421 C   0  0  0  0  0  0  0  0  0  0  0  0
   44.6953  -45.0861   69.5793 C   0  0  0  0  0  0  0  0  0  0  0  0
   45.8942  -45.2103   68.5368 C   0  0  0  0  0  0  0  0  0  0  0  0
   45.4648  -45.9536   67.1466 C   0  0  0  0  0  0  0  0  0  0  0  0
   45.6210  -45.3399   65.9841 C   0  0  0  0  0  0  0  0  0  0  0  0
   45.3397  -45.8577   64.6052 C   0  0  0  0  0  0  0  0  0  0  0  0
   44.5844  -44.8565   63.7160 C   0  0  0  0  0  0  0  0  0  0  0  0
   43.1545  -44.6118   64.1998 C   0  0  0  0  0  0  0  0  0  0  0  0
   42.2630  -45.8473   64.1230 C   0  0  0  0  0  0  0  0  0  0  0  0
   40.8170  -45.6714   64.6438 C   0  0  0  0  0  0  0  0  0  0  0  0
   40.0383  -47.0268   64.7696 C   0  0  0  0  0  0  0  0  0  0  0  0
   40.6773  -47.9680   65.7486 C   0  0  0  0  0  0  0  0  0  0  0  0
   41.6663  -48.8330   65.4981 C   0  0  0  0  0  0  0  0  0  0  0  0
   42.2426  -49.7106   66.5335 C   0  0  0  0  0  0  0  0  0  0  0  0
   41.7258  -49.6421   67.9040 C   0  0  0  0  0  0  0  0  0  0  0  0
   40.7362  -48.8043   68.2064 C   0  0  0  0  0  0  0  0  0  0  0  0
   40.1558  -47.9242   67.1438 C   0  0  0  0  0  0  0  0  0  0  0  0
   39.3134  -45.1279   69.7456 C   0  0  0  0  0  0  0  0  0  0  0  0
   44.9341  -47.3818   67.2889 C   0  0  0  0  0  0  0  0  0  0  0  0
   46.7099  -46.1950   63.9761 C   0  0  0  0  0  0  0  0  0  0  0  0
   40.8282  -44.9118   65.9387 C   0  0  0  0  0  0  0  0  0  0  0  0
   45.5011  -45.5451   62.0862 H   0  0  0  0  0  0  0  0  0  0  0  0
   39.6946  -49.4369   69.7880 H   0  0  0  0  0  0  0  0  0  0  0  0
   45.2525  -44.4833   70.8154 O   0  0  0  0  0  0  0  0  0  0  0  0
   45.0394  -43.0350   70.9639 C   0  0  0  0  0  0  0  0  0  0  0  0
   42.5316  -43.6072   63.3701 O   0  0  0  0  0  0  0  0  0  0  0  0
   42.5705  -42.2691   63.9585 C   0  0  0  0  0  0  0  0  0  0  0  0
   42.2405  -48.9638   64.1795 O   0  0  0  0  0  0  0  0  0  0  0  0
   41.5385  -49.4271   63.0168 C   0  0  0  0  0  0  0  0  0  0  0  0
   46.9107  -45.9358   69.1465 O   0  0  0  0  0  0  0  0  0  0  0  0
   49.0043  -45.7837   68.2123 O   0  0  0  0  0  0  0  0  0  0  0  0
   48.2516  -44.2766   69.7212 N   0  0  0  0  0  0  0  0  0  0  0  0
   48.1467  -45.3672   68.9546 C   0  0  0  0  0  0  0  0  0  0  0  0
   47.5016  -44.0072   70.2992 H   0  0  0  0  0  0  0  0  0  0  0  0
   49.0790  -43.7431   69.7076 H   0  0  0  0  0  0  0  0  0  0  0  0
  1  6  2  0  0  0
 33 11  1  0  0  0
 33 34  1  0  0  0
 39 12  1  0  0  0
 39 42  1  0  0  0
 40 42  2  0  0  0
  2 16  1  0  0  0
 35 17  1  0  0  0
 35 36  1  0  0  0
 37 22  1  0  0  0
 37 38  1  0  0  0
  3 23  2  0  0  0
  4 26  2  0  0  0
  5  6  1  0  0  0
  5 25  1  0  0  0
 41 42  1  0  0  0
  6  7  1  0  0  0
  7  8  2  0  0  0
  7 27  1  0  0  0
  8  9  1  0  0  0
  9 10  2  0  0  0
 10 11  1  0  0  0
 11 12  1  0  0  0
 12 13  1  0  0  0
 13 14  2  0  0  0
 13 28  1  0  0  0
 14 15  1  0  0  0
 15 16  1  0  0  0
 15 29  1  0  0  0
 16 17  1  0  0  0
 17 18  1  0  0  0
 18 19  1  0  0  0
 19 20  1  0  0  0
 19 30  1  0  0  0
 20 21  1  0  0  0
 21 22  2  0  0  0
 21 26  1  0  0  0
 22 23  1  0  0  0
 23 24  1  0  0  0
 24 25  2  0  0  0
 25 26  1  0  0  0
  2 31  1  0  0  0
  5 32  1  0  0  0
 41 43  1  0  0  0
 41 44  1  0  0  0
M  END
> <minimizedAffinity>
-6.67287

$$$$
1YET_GDM_A_275


 44 45  0  0  0  0  0  0  0  0999 V2000
   38.0762  -45.4934   63.5730 O   0  0  0  0  0  0  0  0  0  0  0  0
   45.7550  -48.3284   70.3296 O   0  0  0  0  0  0  0  0  0  0  0  0
   40.9727  -50.9537   66.7018 O   0  0  0  0  0  0  0  0  0  0  0  0
   41.9060  -46.4814   64.0757 O   0  0  0  0  0  0  0  0  0  0  0  0
   39.3893  -47.2551   64.1157 N   0  0  0  0  0  0  0  0  0  0  0  0
   38.9826  -45.9102   64.2543 C   0  0  0  0  0  0  0  0  0  0  0  0
   39.7532  -45.0191   65.1804 C   0  0  0  0  0  0  0  0  0  0  0  0
   39.7916  -45.3073   66.5076 C   0  0  0  0  0  0  0  0  0  0  0  0
   40.4976  -44.5315   67.5224 C   0  0  0  0  0  0  0  0  0  0  0  0
   40.2507  -44.5545   68.8484 C   0  0  0  0  0  0  0  0  0  0  0  0
   39.2271  -45.3546   69.5738 C   0  0  0  0  0  0  0  0  0  0  0  0
   39.8423  -46.1922   70.7819 C   0  0  0  0  0  0  0  0  0  0  0  0
   40.9895  -47.2556   70.3102 C   0  0  0  0  0  0  0  0  0  0  0  0
   42.2077  -47.1976   70.8253 C   0  0  0  0  0  0  0  0  0  0  0  0
   43.3783  -48.0987   70.5683 C   0  0  0  0  0  0  0  0  0  0  0  0
   44.6963  -47.3418   70.3368 C   0  0  0  0  0  0  0  0  0  0  0  0
   44.6884  -46.5453   69.0314 C   0  0  0  0  0  0  0  0  0  0  0  0
   44.5941  -47.4174   67.7833 C   0  0  0  0  0  0  0  0  0  0  0  0
   44.5349  -46.6632   66.4340 C   0  0  0  0  0  0  0  0  0  0  0  0
   44.1892  -47.5958   65.2215 C   0  0  0  0  0  0  0  0  0  0  0  0
   42.8370  -48.2333   65.3542 C   0  0  0  0  0  0  0  0  0  0  0  0
   42.5469  -49.3666   66.0027 C   0  0  0  0  0  0  0  0  0  0  0  0
   41.1787  -49.9094   66.0918 C   0  0  0  0  0  0  0  0  0  0  0  0
   40.0747  -49.1862   65.4528 C   0  0  0  0  0  0  0  0  0  0  0  0
   40.3089  -48.0571   64.7873 C   0  0  0  0  0  0  0  0  0  0  0  0
   41.7038  -47.5214   64.6989 C   0  0  0  0  0  0  0  0  0  0  0  0
   40.4104  -43.8333   64.5459 C   0  0  0  0  0  0  0  0  0  0  0  0
   40.5438  -48.3151   69.3001 C   0  0  0  0  0  0  0  0  0  0  0  0
   43.5051  -49.0155   71.8055 C   0  0  0  0  0  0  0  0  0  0  0  0
   43.5848  -45.5052   66.5362 C   0  0  0  0  0  0  0  0  0  0  0  0
   45.7428  -48.8218   71.1647 H   0  0  0  0  0  0  0  0  0  0  0  0
   38.9230  -47.7271   63.3884 H   0  0  0  0  0  0  0  0  0  0  0  0
   38.1448  -44.5090   70.1354 O   0  0  0  0  0  0  0  0  0  0  0  0
   38.5804  -43.2317   70.7215 C   0  0  0  0  0  0  0  0  0  0  0  0
   45.9197  -45.7996   68.9159 O   0  0  0  0  0  0  0  0  0  0  0  0
   45.9395  -44.5896   69.7366 C   0  0  0  0  0  0  0  0  0  0  0  0
   43.5694  -50.1411   66.6662 O   0  0  0  0  0  0  0  0  0  0  0  0
   44.0151  -51.4419   66.2554 C   0  0  0  0  0  0  0  0  0  0  0  0
   38.8014  -46.8841   71.3894 O   0  0  0  0  0  0  0  0  0  0  0  0
   37.4285  -46.0331   73.0234 O   0  0  0  0  0  0  0  0  0  0  0  0
   39.6305  -46.4050   73.3805 N   0  0  0  0  0  0  0  0  0  0  0  0
   38.5146  -46.4019   72.6436 C   0  0  0  0  0  0  0  0  0  0  0  0
   40.4767  -46.7236   72.9910 H   0  0  0  0  0  0  0  0  0  0  0  0
   39.6058  -46.0887   74.3124 H   0  0  0  0  0  0  0  0  0  0  0  0
  1  6  2  0  0  0
 33 11  1  0  0  0
 33 34  1  0  0  0
 39 12  1  0  0  0
 39 42  1  0  0  0
 40 42  2  0  0  0
  2 16  1  0  0  0
 35 17  1  0  0  0
 35 36  1  0  0  0
 37 22  1  0  0  0
 37 38  1  0  0  0
  3 23  2  0  0  0
  4 26  2  0  0  0
  5  6  1  0  0  0
  5 25  1  0  0  0
 41 42  1  0  0  0
  6  7  1  0  0  0
  7  8  2  0  0  0
  7 27  1  0  0  0
  8  9  1  0  0  0
  9 10  2  0  0  0
 10 11  1  0  0  0
 11 12  1  0  0  0
 12 13  1  0  0  0
 13 14  2  0  0  0
 13 28  1  0  0  0
 14 15  1  0  0  0
 15 16  1  0  0  0
 15 29  1  0  0  0
 16 17  1  0  0  0
 17 18  1  0  0  0
 18 19  1  0  0  0
 19 20  1  0  0  0
 19 30  1  0  0  0
 20 21  1  0  0  0
 21 22  2  0  0  0
 21 26  1  0  0  0
 22 23  1  0  0  0
 23 24  1  0  0  0
 24 25  2  0  0  0
 25 26  1  0  0  0
  2 31  1  0  0  0
  5 32  1  0  0  0
 41 43  1  0  0  0
 41 44  1  0  0  0
M  END
> <minimizedAffinity>
-5.91729

$$$$
1YET_GDM_A_275


 44 45  0  0  0  0  0  0  0  0999 V2000
   47.1798  -46.9060   64.7353 O   0  0  0  0  0  0  0  0  0  0  0  0
   40.6114  -45.2792   72.9122 O   0  0  0  0  0  0  0  0  0  0  0  0
   45.0647  -49.5790   70.7665 O   0  0  0  0  0  0  0  0  0  0  0  0
   46.6077  -45.1915   68.2890 O   0  0  0  0  0  0  0  0  0  0  0  0
   46.9235  -47.4211   66.9241 N   0  0  0  0  0  0  0  0  0  0  0  0
   46.5351  -46.7491   65.7449 C   0  0  0  0  0  0  0  0  0  0  0  0
   45.3858  -45.7898   65.8107 C   0  0  0  0  0  0  0  0  0  0  0  0
   44.1505  -46.2481   66.1422 C   0  0  0  0  0  0  0  0  0  0  0  0
   42.9440  -45.4331   66.2435 C   0  0  0  0  0  0  0  0  0  0  0  0
   41.6755  -45.8885   66.1869 C   0  0  0  0  0  0  0  0  0  0  0  0
   41.2155  -47.2927   66.0123 C   0  0  0  0  0  0  0  0  0  0  0  0
   40.1685  -47.7412   67.1268 C   0  0  0  0  0  0  0  0  0  0  0  0
   40.7656  -47.6516   68.6450 C   0  0  0  0  0  0  0  0  0  0  0  0
   40.1589  -46.9117   69.5598 C   0  0  0  0  0  0  0  0  0  0  0  0
   40.5108  -46.7343   71.0066 C   0  0  0  0  0  0  0  0  0  0  0  0
   40.4764  -45.2692   71.4714 C   0  0  0  0  0  0  0  0  0  0  0  0
   41.5807  -44.4287   70.8291 C   0  0  0  0  0  0  0  0  0  0  0  0
   42.9884  -44.8604   71.2283 C   0  0  0  0  0  0  0  0  0  0  0  0
   44.1484  -44.0752   70.5718 C   0  0  0  0  0  0  0  0  0  0  0  0
   45.5532  -44.7240   70.8262 C   0  0  0  0  0  0  0  0  0  0  0  0
   45.6614  -46.1051   70.2487 C   0  0  0  0  0  0  0  0  0  0  0  0
   45.2909  -47.2488   70.8351 C   0  0  0  0  0  0  0  0  0  0  0  0
   45.4227  -48.5630   70.1793 C   0  0  0  0  0  0  0  0  0  0  0  0
   45.9765  -48.6384   68.8237 C   0  0  0  0  0  0  0  0  0  0  0  0
   46.3686  -47.5312   68.1969 C   0  0  0  0  0  0  0  0  0  0  0  0
   46.2356  -46.2046   68.8772 C   0  0  0  0  0  0  0  0  0  0  0  0
   45.7036  -44.3684   65.4650 C   0  0  0  0  0  0  0  0  0  0  0  0
   42.0078  -48.5002   68.9256 C   0  0  0  0  0  0  0  0  0  0  0  0
   39.4894  -47.5686   71.8112 C   0  0  0  0  0  0  0  0  0  0  0  0
   43.8762  -43.8895   69.1070 C   0  0  0  0  0  0  0  0  0  0  0  0
   39.9029  -45.8167   73.2996 H   0  0  0  0  0  0  0  0  0  0  0  0
   47.7673  -47.9185   66.8257 H   0  0  0  0  0  0  0  0  0  0  0  0
   40.5717  -47.5153   64.6940 O   0  0  0  0  0  0  0  0  0  0  0  0
   41.3649  -48.2891   63.7260 C   0  0  0  0  0  0  0  0  0  0  0  0
   41.4422  -43.0531   71.2464 O   0  0  0  0  0  0  0  0  0  0  0  0
   40.0505  -42.6462   71.4363 C   0  0  0  0  0  0  0  0  0  0  0  0
   44.7304  -47.2693   72.1658 O   0  0  0  0  0  0  0  0  0  0  0  0
   45.4920  -47.3338   73.3803 C   0  0  0  0  0  0  0  0  0  0  0  0
   39.8018  -49.0544   66.8579 O   0  0  0  0  0  0  0  0  0  0  0  0
   37.8745  -48.9448   68.1038 O   0  0  0  0  0  0  0  0  0  0  0  0
   39.2394  -50.7470   68.1617 N   0  0  0  0  0  0  0  0  0  0  0  0
   38.8700  -49.5301   67.7485 C   0  0  0  0  0  0  0  0  0  0  0  0
   40.0693  -51.1520   67.8202 H   0  0  0  0  0  0  0  0  0  0  0  0
   38.6815  -51.2381   68.8074 H   0  0  0  0  0  0  0  0  0  0  0  0
  1  6  2  0  0  0
 33 11  1  0  0  0
 33 34  1  0  0  0
 39 12  1  0  0  0
 39 42  1  0  0  0
 40 42  2  0  0  0
  2 16  1  0  0  0
 35 17  1  0  0  0
 35 36  1  0  0  0
 37 22  1  0  0  0
 37 38  1  0  0  0
  3 23  2  0  0  0
  4 26  2  0  0  0
  5  6  1  0  0  0
  5 25  1  0  0  0
 41 42  1  0  0  0
  6  7  1  0  0  0
  7  8  2  0  0  0
  7 27  1  0  0  0
  8  9  1  0  0  0
  9 10  2  0  0  0
 10 11  1  0  0  0
 11 12  1  0  0  0
 12 13  1  0  0  0
 13 14  2  0  0  0
 13 28  1  0  0  0
 14 15  1  0  0  0
 15 16  1  0  0  0
 15 29  1  0  0  0
 16 17  1  0  0  0
 17 18  1  0  0  0
 18 19  1  0  0  0
 19 20  1  0  0  0
 19 30  1  0  0  0
 20 21  1  0  0  0
 21 22  2  0  0  0
 21 26  1  0  0  0
 22 23  1  0  0  0
 23 24  1  0  0  0
 24 25  2  0  0  0
 25 26  1  0  0  0
  2 31  1  0  0  0
  5 32  1  0  0  0
 41 43  1  0  0  0
 41 44  1  0  0  0
M  END
> <minimizedAffinity>
-5.75120

$$$$
1YET_GDM_A_275


 44 45  0  0  0  0  0  0  0  0999 V2000
   38.2544  -48.6554   71.2366 O   0  0  0  0  0  0  0  0  0  0  0  0
   45.0312  -45.4539   63.7215 O   0  0  0  0  0  0  0  0  0  0  0  0
   42.4909  -50.9370   66.2526 O   0  0  0  0  0  0  0  0  0  0  0  0
   38.7589  -47.4243   67.4782 O   0  0  0  0  0  0  0  0  0  0  0  0
   39.1478  -49.3184   69.2657 N   0  0  0  0  0  0  0  0  0  0  0  0
   38.9632  -48.3747   70.2994 C   0  0  0  0  0  0  0  0  0  0  0  0
   39.5826  -47.0182   70.1521 C   0  0  0  0  0  0  0  0  0  0  0  0
   40.9345  -46.9050   70.0782 C   0  0  0  0  0  0  0  0  0  0  0  0
   41.6729  -45.6542   69.9359 C   0  0  0  0  0  0  0  0  0  0  0  0
   42.9734  -45.4650   70.2405 C   0  0  0  0  0  0  0  0  0  0  0  0
   43.9397  -46.4595   70.7802 C   0  0  0  0  0  0  0  0  0  0  0  0
   45.2819  -46.5413   69.9249 C   0  0  0  0  0  0  0  0  0  0  0  0
   45.0284  -46.9636   68.3671 C   0  0  0  0  0  0  0  0  0  0  0  0
   45.4366  -46.1749   67.3853 C   0  0  0  0  0  0  0  0  0  0  0  0
   45.3474  -46.3975   65.9051 C   0  0  0  0  0  0  0  0  0  0  0  0
   44.8507  -45.1672   65.1283 C   0  0  0  0  0  0  0  0  0  0  0  0
   43.3883  -44.8388   65.4316 C   0  0  0  0  0  0  0  0  0  0  0  0
   42.4122  -45.9207   64.9800 C   0  0  0  0  0  0  0  0  0  0  0  0
   40.9212  -45.6641   65.3030 C   0  0  0  0  0  0  0  0  0  0  0  0
   40.0102  -46.9133   65.0408 C   0  0  0  0  0  0  0  0  0  0  0  0
   40.3830  -48.0868   65.8990 C   0  0  0  0  0  0  0  0  0  0  0  0
   41.3157  -49.0080   65.6333 C   0  0  0  0  0  0  0  0  0  0  0  0
   41.6233  -50.1220   66.5494 C   0  0  0  0  0  0  0  0  0  0  0  0
   40.8893  -50.2377   67.8134 C   0  0  0  0  0  0  0  0  0  0  0  0
   39.9447  -49.3523   68.1239 C   0  0  0  0  0  0  0  0  0  0  0  0
   39.6379  -48.2306   67.1814 C   0  0  0  0  0  0  0  0  0  0  0  0
   38.6278  -45.8656   70.1283 C   0  0  0  0  0  0  0  0  0  0  0  0
   44.3510  -48.3175   68.1435 C   0  0  0  0  0  0  0  0  0  0  0  0
   46.7675  -46.7827   65.4339 C   0  0  0  0  0  0  0  0  0  0  0  0
   40.7822  -45.1570   66.7093 C   0  0  0  0  0  0  0  0  0  0  0  0
   45.9637  -45.6593   63.5504 H   0  0  0  0  0  0  0  0  0  0  0  0
   38.5948  -50.1254   69.3755 H   0  0  0  0  0  0  0  0  0  0  0  0
   44.3317  -46.1624   72.1802 O   0  0  0  0  0  0  0  0  0  0  0  0
   43.3839  -46.6136   73.2111 C   0  0  0  0  0  0  0  0  0  0  0  0
   43.0117  -43.6323   64.7331 O   0  0  0  0  0  0  0  0  0  0  0  0
   42.5940  -43.8725   63.3525 C   0  0  0  0  0  0  0  0  0  0  0  0
   42.0914  -48.9694   64.4159 O   0  0  0  0  0  0  0  0  0  0  0  0
   41.6294  -49.4074   63.1297 C   0  0  0  0  0  0  0  0  0  0  0  0
   46.1080  -47.4845   70.5243 O   0  0  0  0  0  0  0  0  0  0  0  0
   48.3558  -47.4857   70.0489 O   0  0  0  0  0  0  0  0  0  0  0  0
   47.4444  -46.0433   71.5332 N   0  0  0  0  0  0  0  0  0  0  0  0
   47.4033  -47.0432   70.6463 C   0  0  0  0  0  0  0  0  0  0  0  0
   46.6177  -45.7438   71.9760 H   0  0  0  0  0  0  0  0  0  0  0  0
   48.3014  -45.6067   71.7435 H   0  0  0  0  0  0  0  0  0  0  0  0
  1  6  2  0  0  0
 33 11  1  0  0  0
 33 34  1  0  0  0
 39 12  1  0  0  0
 39 42  1  0  0  0
 40 42  2  0  0  0
  2 16  1  0  0  0
 35 17  1  0  0  0
 35 36  1  0  0  0
 37 22  1  0  0  0
 37 38  1  0  0  0
  3 23  2  0  0  0
  4 26  2  0  0  0
  5  6  1  0  0  0
  5 25  1  0  0  0
 41 42  1  0  0  0
  6  7  1  0  0  0
  7  8  2  0  0  0
  7 27  1  0  0  0
  8  9  1  0  0  0
  9 10  2  0  0  0
 10 11  1  0  0  0
 11 12  1  0  0  0
 12 13  1  0  0  0
 13 14  2  0  0  0
 13 28  1  0  0  0
 14 15  1  0  0  0
 15 16  1  0  0  0
 15 29  1  0  0  0
 16 17  1  0  0  0
 17 18  1  0  0  0
 18 19  1  0  0  0
 19 20  1  0  0  0
 19 30  1  0  0  0
 20 21  1  0  0  0
 21 22  2  0  0  0
 21 26  1  0  0  0
 22 23  1  0  0  0
 23 24  1  0  0  0
 24 25  2  0  0  0
 25 26  1  0  0  0
  2 31  1  0  0  0
  5 32  1  0  0  0
 41 43  1  0  0  0
 41 44  1  0  0  0
M  END
> <minimizedAffinity>
-5.70175

$$$$
1YET_GDM_A_275


 44 45  0  0  0  0  0  0  0  0999 V2000
   41.2483  -45.5540   63.2122 O   0  0  0  0  0  0  0  0  0  0  0  0
   43.1823  -47.9031   73.3805 O   0  0  0  0  0  0  0  0  0  0  0  0
   39.6655  -43.7652   69.7152 O   0  0  0  0  0  0  0  0  0  0  0  0
   40.3081  -47.7908   66.3759 O   0  0  0  0  0  0  0  0  0  0  0  0
   40.3147  -45.4019   65.2683 N   0  0  0  0  0  0  0  0  0  0  0  0
   41.3370  -45.8177   64.3879 C   0  0  0  0  0  0  0  0  0  0  0  0
   42.4557  -46.6539   64.9307 C   0  0  0  0  0  0  0  0  0  0  0  0
   43.2733  -46.1384   65.8855 C   0  0  0  0  0  0  0  0  0  0  0  0
   44.3988  -46.8337   66.5020 C   0  0  0  0  0  0  0  0  0  0  0  0
   45.4340  -46.2506   67.1409 C   0  0  0  0  0  0  0  0  0  0  0  0
   45.6696  -44.7984   67.3637 C   0  0  0  0  0  0  0  0  0  0  0  0
   45.9470  -44.4467   68.8930 C   0  0  0  0  0  0  0  0  0  0  0  0
   44.7131  -44.8567   69.8824 C   0  0  0  0  0  0  0  0  0  0  0  0
   44.9164  -45.6790   70.8998 C   0  0  0  0  0  0  0  0  0  0  0  0
   43.9426  -46.1380   71.9434 C   0  0  0  0  0  0  0  0  0  0  0  0
   44.0000  -47.6505   72.2135 C   0  0  0  0  0  0  0  0  0  0  0  0
   43.5118  -48.4737   71.0208 C   0  0  0  0  0  0  0  0  0  0  0  0
   42.0372  -48.2606   70.6931 C   0  0  0  0  0  0  0  0  0  0  0  0
   41.4987  -49.0328   69.4655 C   0  0  0  0  0  0  0  0  0  0  0  0
   40.0593  -48.5816   69.0368 C   0  0  0  0  0  0  0  0  0  0  0  0
   40.0080  -47.1395   68.6245 C   0  0  0  0  0  0  0  0  0  0  0  0
   39.8422  -46.0830   69.4280 C   0  0  0  0  0  0  0  0  0  0  0  0
   39.8202  -44.6952   68.9301 C   0  0  0  0  0  0  0  0  0  0  0  0
   39.9917  -44.4425   67.4959 C   0  0  0  0  0  0  0  0  0  0  0  0
   40.1523  -45.4583   66.6505 C   0  0  0  0  0  0  0  0  0  0  0  0
   40.1655  -46.8625   67.1689 C   0  0  0  0  0  0  0  0  0  0  0  0
   42.5978  -48.0188   64.3325 C   0  0  0  0  0  0  0  0  0  0  0  0
   43.3657  -44.1980   69.5784 C   0  0  0  0  0  0  0  0  0  0  0  0
   44.2819  -45.3572   73.2327 C   0  0  0  0  0  0  0  0  0  0  0  0
   42.4760  -48.9343   68.3300 C   0  0  0  0  0  0  0  0  0  0  0  0
   43.5079  -47.3725   74.1244 H   0  0  0  0  0  0  0  0  0  0  0  0
   39.5535  -44.9820   64.8063 H   0  0  0  0  0  0  0  0  0  0  0  0
   46.8232  -44.2881   66.5822 O   0  0  0  0  0  0  0  0  0  0  0  0
   47.8447  -45.2890   66.2366 C   0  0  0  0  0  0  0  0  0  0  0  0
   43.6660  -49.8797   71.3118 O   0  0  0  0  0  0  0  0  0  0  0  0
   44.9796  -50.2137   71.8607 C   0  0  0  0  0  0  0  0  0  0  0  0
   39.6720  -46.2368   70.8538 O   0  0  0  0  0  0  0  0  0  0  0  0
   38.4231  -46.4943   71.5120 C   0  0  0  0  0  0  0  0  0  0  0  0
   46.1643  -43.0767   68.9787 O   0  0  0  0  0  0  0  0  0  0  0  0
   47.3728  -42.5834   70.8694 O   0  0  0  0  0  0  0  0  0  0  0  0
   48.3384  -42.7138   68.8285 N   0  0  0  0  0  0  0  0  0  0  0  0
   47.3070  -42.7711   69.6777 C   0  0  0  0  0  0  0  0  0  0  0  0
   48.1958  -42.8808   67.8688 H   0  0  0  0  0  0  0  0  0  0  0  0
   49.2404  -42.5046   69.1631 H   0  0  0  0  0  0  0  0  0  0  0  0
  1  6  2  0  0  0
 33 11  1  0  0  0
 33 34  1  0  0  0
 39 12  1  0  0  0
 39 42  1  0  0  0
 40 42  2  0  0  0
  2 16  1  0  0  0
 35 17  1  0  0  0
 35 36  1  0  0  0
 37 22  1  0  0  0
 37 38  1  0  0  0
  3 23  2  0  0  0
  4 26  2  0  0  0
  5  6  1  0  0  0
  5 25  1  0  0  0
 41 42  1  0  0  0
  6  7  1  0  0  0
  7  8  2  0  0  0
  7 27  1  0  0  0
  8  9  1  0  0  0
  9 10  2  0  0  0
 10 11  1  0  0  0
 11 12  1  0  0  0
 12 13  1  0  0  0
 13 14  2  0  0  0
 13 28  1  0  0  0
 14 15  1  0  0  0
 15 16  1  0  0  0
 15 29  1  0  0  0
 16 17  1  0  0  0
 17 18  1  0  0  0
 18 19  1  0  0  0
 19 20  1  0  0  0
 19 30  1  0  0  0
 20 21  1  0  0  0
 21 22  2  0  0  0
 21 26  1  0  0  0
 22 23  1  0  0  0
 23 24  1  0  0  0
 24 25  2  0  0  0
 25 26  1  0  0  0
  2 31  1  0  0  0
  5 32  1  0  0  0
 41 43  1  0  0  0
 41 44  1  0  0  0
M  END
> <minimizedAffinity>
-5.41255

$$$$
1YET_GDM_A_275


 44 45  0  0  0  0  0  0  0  0999 V2000
   48.3291  -47.1867   64.8915 O   0  0  0  0  0  0  0  0  0  0  0  0
   41.5102  -45.3945   72.8252 O   0  0  0  0  0  0  0  0  0  0  0  0
   45.5672  -50.0218   70.5773 O   0  0  0  0  0  0  0  0  0  0  0  0
   47.7437  -45.6786   68.5355 O   0  0  0  0  0  0  0  0  0  0  0  0
   47.8854  -47.8251   67.0170 N   0  0  0  0  0  0  0  0  0  0  0  0
   47.6471  -47.0284   65.8761 C   0  0  0  0  0  0  0  0  0  0  0  0
   46.6123  -45.9479   65.9586 C   0  0  0  0  0  0  0  0  0  0  0  0
   45.3153  -46.2803   66.1894 C   0  0  0  0  0  0  0  0  0  0  0  0
   44.2052  -45.3385   66.2929 C   0  0  0  0  0  0  0  0  0  0  0  0
   42.8989  -45.6361   66.1360 C   0  0  0  0  0  0  0  0  0  0  0  0
   42.2938  -46.9601   65.8279 C   0  0  0  0  0  0  0  0  0  0  0  0
   41.1378  -47.3618   66.8486 C   0  0  0  0  0  0  0  0  0  0  0  0
   41.6493  -47.4532   68.3977 C   0  0  0  0  0  0  0  0  0  0  0  0
   41.0768  -46.7152   69.3358 C   0  0  0  0  0  0  0  0  0  0  0  0
   41.3594  -46.6857   70.8081 C   0  0  0  0  0  0  0  0  0  0  0  0
   41.4637  -45.2643   71.3847 C   0  0  0  0  0  0  0  0  0  0  0  0
   42.6927  -44.5154   70.8679 C   0  0  0  0  0  0  0  0  0  0  0  0
   44.0158  -45.1375   71.3031 C   0  0  0  0  0  0  0  0  0  0  0  0
   45.2946  -44.4488   70.7707 C   0  0  0  0  0  0  0  0  0  0  0  0
   46.5990  -45.2752   71.0445 C   0  0  0  0  0  0  0  0  0  0  0  0
   46.5842  -46.6139   70.3662 C   0  0  0  0  0  0  0  0  0  0  0  0
   46.0518  -47.7455   70.8409 C   0  0  0  0  0  0  0  0  0  0  0  0
   46.0727  -49.0152   70.0911 C   0  0  0  0  0  0  0  0  0  0  0  0
   46.6944  -49.0569   68.7638 C   0  0  0  0  0  0  0  0  0  0  0  0
   47.2465  -47.9611   68.2471 C   0  0  0  0  0  0  0  0  0  0  0  0
   47.2244  -46.6808   69.0223 C   0  0  0  0  0  0  0  0  0  0  0  0
   47.1094  -44.5525   65.7427 C   0  0  0  0  0  0  0  0  0  0  0  0
   42.7681  -48.4602   68.6736 C   0  0  0  0  0  0  0  0  0  0  0  0
   40.2035  -47.4501   71.4913 C   0  0  0  0  0  0  0  0  0  0  0  0
   45.1335  -44.1268   69.3132 C   0  0  0  0  0  0  0  0  0  0  0  0
   40.7233  -45.8714   73.1323 H   0  0  0  0  0  0  0  0  0  0  0  0
   48.6718  -48.4100   66.9229 H   0  0  0  0  0  0  0  0  0  0  0  0
   41.7090  -47.0093   64.4649 O   0  0  0  0  0  0  0  0  0  0  0  0
   41.2289  -45.7227   63.9365 C   0  0  0  0  0  0  0  0  0  0  0  0
   42.6864  -43.1669   71.3848 O   0  0  0  0  0  0  0  0  0  0  0  0
   41.3473  -42.6850   71.7206 C   0  0  0  0  0  0  0  0  0  0  0  0
   45.4139  -47.7962   72.1355 O   0  0  0  0  0  0  0  0  0  0  0  0
   46.0888  -48.0410   73.3780 C   0  0  0  0  0  0  0  0  0  0  0  0
   40.6412  -48.5997   66.4586 O   0  0  0  0  0  0  0  0  0  0  0  0
   38.4871  -48.6808   67.2536 O   0  0  0  0  0  0  0  0  0  0  0  0
   38.9451  -48.4969   65.0466 N   0  0  0  0  0  0  0  0  0  0  0  0
   39.2725  -48.6002   66.3390 C   0  0  0  0  0  0  0  0  0  0  0  0
   39.6512  -48.4357   64.3633 H   0  0  0  0  0  0  0  0  0  0  0  0
   37.9980  -48.4820   64.7784 H   0  0  0  0  0  0  0  0  0  0  0  0
  1  6  2  0  0  0
 33 11  1  0  0  0
 33 34  1  0  0  0
 39 12  1  0  0  0
 39 42  1  0  0  0
 40 42  2  0  0  0
  2 16  1  0  0  0
 35 17  1  0  0  0
 35 36  1  0  0  0
 37 22  1  0  0  0
 37 38  1  0  0  0
  3 23  2  0  0  0
  4 26  2  0  0  0
  5  6  1  0  0  0
  5 25  1  0  0  0
 41 42  1  0  0  0
  6  7  1  0  0  0
  7  8  2  0  0  0
  7 27  1  0  0  0
  8  9  1  0  0  0
  9 10  2  0  0  0
 10 11  1  0  0  0
 11 12  1  0  0  0
 12 13  1  0  0  0
 13 14  2  0  0  0
 13 28  1  0  0  0
 14 15  1  0  0  0
 15 16  1  0  0  0
 15 29  1  0  0  0
 16 17  1  0  0  0
 17 18  1  0  0  0
 18 19  1  0  0  0
 19 20  1  0  0  0
 19 30  1  0  0  0
 20 21  1  0  0  0
 21 22  2  0  0  0
 21 26  1  0  0  0
 22 23  1  0  0  0
 23 24  1  0  0  0
 24 25  2  0  0  0
 25 26  1  0  0  0
  2 31  1  0  0  0
  5 32  1  0  0  0
 41 43  1  0  0  0
 41 44  1  0  0  0
M  END
> <minimizedAffinity>
-5.21321

$$$$
1YET_GDM_A_275


 44 45  0  0  0  0  0  0  0  0999 V2000
   38.8910  -46.9351   62.6016 O   0  0  0  0  0  0  0  0  0  0  0  0
   46.3064  -47.5625   70.1693 O   0  0  0  0  0  0  0  0  0  0  0  0
   40.8341  -44.2751   68.6960 O   0  0  0  0  0  0  0  0  0  0  0  0
   40.1266  -48.7155   65.9481 O   0  0  0  0  0  0  0  0  0  0  0  0
   39.2030  -46.5299   64.8062 N   0  0  0  0  0  0  0  0  0  0  0  0
   39.6352  -47.0086   63.5504 C   0  0  0  0  0  0  0  0  0  0  0  0
   40.9733  -47.6768   63.4587 C   0  0  0  0  0  0  0  0  0  0  0  0
   42.0957  -46.9685   63.7495 C   0  0  0  0  0  0  0  0  0  0  0  0
   43.4595  -47.4860   63.7020 C   0  0  0  0  0  0  0  0  0  0  0  0
   44.5829  -46.7455   63.6046 C   0  0  0  0  0  0  0  0  0  0  0  0
   44.6970  -45.2641   63.5244 C   0  0  0  0  0  0  0  0  0  0  0  0
   45.7031  -44.6642   64.6048 C   0  0  0  0  0  0  0  0  0  0  0  0
   45.2687  -44.9967   66.1443 C   0  0  0  0  0  0  0  0  0  0  0  0
   46.1003  -45.6379   66.9504 C   0  0  0  0  0  0  0  0  0  0  0  0
   45.9178  -45.9936   68.3956 C   0  0  0  0  0  0  0  0  0  0  0  0
   46.3213  -47.4395   68.7275 C   0  0  0  0  0  0  0  0  0  0  0  0
   45.3870  -48.4663   68.0859 C   0  0  0  0  0  0  0  0  0  0  0  0
   43.9559  -48.4026   68.6103 C   0  0  0  0  0  0  0  0  0  0  0  0
   42.9540  -49.3877   67.9630 C   0  0  0  0  0  0  0  0  0  0  0  0
   41.4645  -49.1025   68.3622 C   0  0  0  0  0  0  0  0  0  0  0  0
   40.9992  -47.7473   67.9157 C   0  0  0  0  0  0  0  0  0  0  0  0
   41.1479  -46.5930   68.5750 C   0  0  0  0  0  0  0  0  0  0  0  0
   40.6684  -45.3025   68.0464 C   0  0  0  0  0  0  0  0  0  0  0  0
   40.0025  -45.2626   66.7406 C   0  0  0  0  0  0  0  0  0  0  0  0
   39.8211  -46.3837   66.0458 C   0  0  0  0  0  0  0  0  0  0  0  0
   40.3067  -47.6876   66.5977 C   0  0  0  0  0  0  0  0  0  0  0  0
   40.9584  -49.1051   63.0110 C   0  0  0  0  0  0  0  0  0  0  0  0
   43.8940  -44.4818   66.5767 C   0  0  0  0  0  0  0  0  0  0  0  0
   46.7864  -45.0035   69.2033 C   0  0  0  0  0  0  0  0  0  0  0  0
   43.1398  -49.4015   66.4733 C   0  0  0  0  0  0  0  0  0  0  0  0
   46.9042  -46.9038   70.5562 H   0  0  0  0  0  0  0  0  0  0  0  0
   38.2632  -46.2365   64.8057 H   0  0  0  0  0  0  0  0  0  0  0  0
   45.1630  -44.8058   62.1922 O   0  0  0  0  0  0  0  0  0  0  0  0
   44.4061  -43.6874   61.6082 C   0  0  0  0  0  0  0  0  0  0  0  0
   45.8674  -49.7978   68.3718 O   0  0  0  0  0  0  0  0  0  0  0  0
   47.3130  -49.9375   68.2022 C   0  0  0  0  0  0  0  0  0  0  0  0
   41.7967  -46.5365   69.8639 O   0  0  0  0  0  0  0  0  0  0  0  0
   41.1579  -46.8039   71.1208 C   0  0  0  0  0  0  0  0  0  0  0  0
   45.7395  -43.2861   64.4289 O   0  0  0  0  0  0  0  0  0  0  0  0
   47.6082  -42.3150   65.3474 O   0  0  0  0  0  0  0  0  0  0  0  0
   47.5233  -42.9337   63.1738 N   0  0  0  0  0  0  0  0  0  0  0  0
   47.0227  -42.7954   64.4061 C   0  0  0  0  0  0  0  0  0  0  0  0
   46.9755  -43.3375   62.4624 H   0  0  0  0  0  0  0  0  0  0  0  0
   48.4396  -42.6316   62.9781 H   0  0  0  0  0  0  0  0  0  0  0  0
  1  6  2  0  0  0
 33 11  1  0  0  0
 33 34  1  0  0  0
 39 12  1  0  0  0
 39 42  1  0  0  0
 40 42  2  0  0  0
  2 16  1  0  0  0
 35 17  1  0  0  0
 35 36  1  0  0  0
 37 22  1  0  0  0
 37 38  1  0  0  0
  3 23  2  0  0  0
  4 26  2  0  0  0
  5  6  1  0  0  0
  5 25  1  0  0  0
 41 42  1  0  0  0
  6  7  1  0  0  0
  7  8  2  0  0  0
  7 27  1  0  0  0
  8  9  1  0  0  0
  9 10  2  0  0  0
 10 11  1  0  0  0
 11 12  1  0  0  0
 12 13  1  0  0  0
 13 14  2  0  0  0
 13 28  1  0  0  0
 14 15  1  0  0  0
 15 16  1  0  0  0
 15 29  1  0  0  0
 16 17  1  0  0  0
 17 18  1  0  0  0
 18 19  1  0  0  0
 19 20  1  0  0  0
 19 30  1  0  0  0
 20 21  1  0  0  0
 21 22  2  0  0  0
 21 26  1  0  0  0
 22 23  1  0  0  0
 23 24  1  0  0  0
 24 25  2  0  0  0
 25 26  1  0  0  0
  2 31  1  0  0  0
  5 32  1  0  0  0
 41 43  1  0  0  0
 41 44  1  0  0  0
M  END
> <minimizedAffinity>
-4.88783

$$$$
