5AFV_JH5_A_1463


 21 23  0  0  0  0  0  0  0  0999 V2000
   11.3917  -12.1620   -7.0992 C   0  0  0  0  0  0  0  0  0  0  0  0
   10.0636  -12.2530   -7.0598 N   0  0  0  0  0  0  0  0  0  0  0  0
    9.8476  -13.5099   -7.3331 C   0  0  0  0  0  0  0  0  0  0  0  0
   10.9929  -14.1591   -7.5397 N   0  0  0  0  0  0  0  0  0  0  0  0
   11.9064  -13.3652   -7.4088 N   0  0  0  0  0  0  0  0  0  0  0  0
    9.1248  -11.4730   -6.7402 N   0  0  0  0  0  0  0  0  0  0  0  0
    8.8138  -10.8615   -7.4463 H   0  0  0  0  0  0  0  0  0  0  0  0
    8.4221  -11.3606   -5.4173 C   0  0  0  0  0  0  0  0  0  0  0  0
    8.1848  -13.4840   -3.9420 C   0  0  0  0  0  0  0  0  0  0  0  0
    8.5378  -14.1404   -2.7472 C   0  0  0  0  0  0  0  0  0  0  0  0
    9.4085  -13.5862   -1.8240 C   0  0  0  0  0  0  0  0  0  0  0  0
    9.9131  -12.3261   -2.0868 C   0  0  0  0  0  0  0  0  0  0  0  0
    9.5504  -11.6575   -3.2684 C   0  0  0  0  0  0  0  0  0  0  0  0
    8.6782  -12.1989   -4.2376 C   0  0  0  0  0  0  0  0  0  0  0  0
   10.8523  -15.6075   -7.8565 C   0  0  0  0  0  0  0  0  0  0  0  0
   11.0202  -16.1146   -5.5382 C   0  0  0  0  0  0  0  0  0  0  0  0
   10.2978  -16.1159   -6.7254 C   0  0  0  0  0  0  0  0  0  0  0  0
   10.4599  -16.6030   -4.3690 C   0  0  0  0  0  0  0  0  0  0  0  0
    9.1644  -17.0967   -4.3863 C   0  0  0  0  0  0  0  0  0  0  0  0
    8.4488  -17.0853   -5.5747 C   0  0  0  0  0  0  0  0  0  0  0  0
    9.0001  -16.5885   -6.7436 C   0  0  0  0  0  0  0  0  0  0  0  0
  8 14  1  0  0  0
  8  6  1  0  0  0
 16 17  1  0  0  0
 16 18  2  0  0  0
 17 21  2  0  0  0
 17 15  1  0  0  0
 18 19  1  0  0  0
 19 20  2  0  0  0
 20 21  1  0  0  0
  9 10  2  0  0  0
  9 14  1  0  0  0
 10 11  1  0  0  0
 11 12  2  0  0  0
 12 13  1  0  0  0
 13 14  2  0  0  0
  1  2  1  0  0  0
  1  5  2  0  0  0
  2  3  2  0  0  0
  2  6  1  0  0  0
  3  4  1  0  0  0
  4  5  1  0  0  0
  4 15  1  0  0  0
  6  7  1  0  0  0
M  CHG 1   2   1
M  END
> <minimizedAffinity>
-7.85519

$$$$
5AFV_JH5_A_1463


 21 23  0  0  0  0  0  0  0  0999 V2000
   11.0913  -13.1880   -3.1562 C   0  0  0  0  0  0  0  0  0  0  0  0
   10.1636  -14.0561   -3.5557 N   0  0  0  0  0  0  0  0  0  0  0  0
    9.5909  -13.4362   -4.5502 C   0  0  0  0  0  0  0  0  0  0  0  0
   10.1377  -12.2369   -4.7460 N   0  0  0  0  0  0  0  0  0  0  0  0
   11.0196  -12.0841   -3.9209 N   0  0  0  0  0  0  0  0  0  0  0  0
    9.8640  -15.2439   -3.2539 N   0  0  0  0  0  0  0  0  0  0  0  0
    9.9614  -15.4845   -2.3042 H   0  0  0  0  0  0  0  0  0  0  0  0
    9.3774  -16.3371   -4.1620 C   0  0  0  0  0  0  0  0  0  0  0  0
   11.2201  -16.6497   -5.9643 C   0  0  0  0  0  0  0  0  0  0  0  0
   11.5237  -16.9387   -7.3087 C   0  0  0  0  0  0  0  0  0  0  0  0
   10.5474  -17.2448   -8.2418 C   0  0  0  0  0  0  0  0  0  0  0  0
    9.2287  -17.2276   -7.8270 C   0  0  0  0  0  0  0  0  0  0  0  0
    8.9172  -16.9218   -6.4912 C   0  0  0  0  0  0  0  0  0  0  0  0
    9.8875  -16.6204   -5.5109 C   0  0  0  0  0  0  0  0  0  0  0  0
    9.5530  -11.4488   -5.8664 C   0  0  0  0  0  0  0  0  0  0  0  0
    8.6460  -12.7703   -7.6245 C   0  0  0  0  0  0  0  0  0  0  0  0
    9.7422  -12.2578   -6.9412 C   0  0  0  0  0  0  0  0  0  0  0  0
    8.8203  -13.5737   -8.7397 C   0  0  0  0  0  0  0  0  0  0  0  0
   10.1029  -13.8671   -9.1767 C   0  0  0  0  0  0  0  0  0  0  0  0
   11.1903  -13.3433   -8.4928 C   0  0  0  0  0  0  0  0  0  0  0  0
   11.0216  -12.5311   -7.3842 C   0  0  0  0  0  0  0  0  0  0  0  0
  8 14  1  0  0  0
  8  6  1  0  0  0
 16 17  1  0  0  0
 16 18  2  0  0  0
 17 21  2  0  0  0
 17 15  1  0  0  0
 18 19  1  0  0  0
 19 20  2  0  0  0
 20 21  1  0  0  0
  9 10  2  0  0  0
  9 14  1  0  0  0
 10 11  1  0  0  0
 11 12  2  0  0  0
 12 13  1  0  0  0
 13 14  2  0  0  0
  1  2  1  0  0  0
  1  5  2  0  0  0
  2  3  2  0  0  0
  2  6  1  0  0  0
  3  4  1  0  0  0
  4  5  1  0  0  0
  4 15  1  0  0  0
  6  7  1  0  0  0
M  CHG 1   2   1
M  END
> <minimizedAffinity>
-7.66394

$$$$
5AFV_JH5_A_1463


 21 23  0  0  0  0  0  0  0  0999 V2000
   10.8023  -13.3654   -3.0555 C   0  0  0  0  0  0  0  0  0  0  0  0
    9.9791  -12.9196   -4.0028 N   0  0  0  0  0  0  0  0  0  0  0  0
    9.3669  -14.0033   -4.3930 C   0  0  0  0  0  0  0  0  0  0  0  0
    9.8022  -15.0681   -3.7204 N   0  0  0  0  0  0  0  0  0  0  0  0
   10.6542  -14.6965   -2.9344 N   0  0  0  0  0  0  0  0  0  0  0  0
    9.6579  -11.7816   -4.4427 N   0  0  0  0  0  0  0  0  0  0  0  0
    9.5378  -11.0766   -3.7661 H   0  0  0  0  0  0  0  0  0  0  0  0
    9.4356  -11.3675   -5.8695 C   0  0  0  0  0  0  0  0  0  0  0  0
   10.8429  -12.7266   -7.5766 C   0  0  0  0  0  0  0  0  0  0  0  0
   10.8473  -13.5314   -8.7323 C   0  0  0  0  0  0  0  0  0  0  0  0
    9.6836  -13.8978   -9.3872 C   0  0  0  0  0  0  0  0  0  0  0  0
    8.4850  -13.4179   -8.8927 C   0  0  0  0  0  0  0  0  0  0  0  0
    8.4747  -12.5990   -7.7507 C   0  0  0  0  0  0  0  0  0  0  0  0
    9.6399  -12.2188   -7.0500 C   0  0  0  0  0  0  0  0  0  0  0  0
    9.1591  -16.3591   -4.0920 C   0  0  0  0  0  0  0  0  0  0  0  0
   11.0058  -16.5691   -5.5771 C   0  0  0  0  0  0  0  0  0  0  0  0
    9.6361  -16.5899   -5.3429 C   0  0  0  0  0  0  0  0  0  0  0  0
   11.5111  -16.8304   -6.8404 C   0  0  0  0  0  0  0  0  0  0  0  0
   10.6389  -17.1162   -7.8796 C   0  0  0  0  0  0  0  0  0  0  0  0
    9.2740  -17.1431   -7.6331 C   0  0  0  0  0  0  0  0  0  0  0  0
    8.7643  -16.8933   -6.3703 C   0  0  0  0  0  0  0  0  0  0  0  0
  8 14  1  0  0  0
  8  6  1  0  0  0
 16 17  1  0  0  0
 16 18  2  0  0  0
 17 21  2  0  0  0
 17 15  1  0  0  0
 18 19  1  0  0  0
 19 20  2  0  0  0
 20 21  1  0  0  0
  9 10  2  0  0  0
  9 14  1  0  0  0
 10 11  1  0  0  0
 11 12  2  0  0  0
 12 13  1  0  0  0
 13 14  2  0  0  0
  1  2  1  0  0  0
  1  5  2  0  0  0
  2  3  2  0  0  0
  2  6  1  0  0  0
  3  4  1  0  0  0
  4  5  1  0  0  0
  4 15  1  0  0  0
  6  7  1  0  0  0
M  CHG 1   2   1
M  END
> <minimizedAffinity>
-7.62233

$$$$
5AFV_JH5_A_1463


 21 23  0  0  0  0  0  0  0  0999 V2000
    9.8969  -12.7779   -2.4623 C   0  0  0  0  0  0  0  0  0  0  0  0
    9.7041  -13.8383   -3.2446 N   0  0  0  0  0  0  0  0  0  0  0  0
    9.2518  -13.3102   -4.3481 C   0  0  0  0  0  0  0  0  0  0  0  0
    9.1628  -11.9847   -4.2437 N   0  0  0  0  0  0  0  0  0  0  0  0
    9.5367  -11.6673   -3.1297 N   0  0  0  0  0  0  0  0  0  0  0  0
    9.9534  -15.0717   -3.1532 N   0  0  0  0  0  0  0  0  0  0  0  0
   10.6243  -15.3266   -2.4793 H   0  0  0  0  0  0  0  0  0  0  0  0
    9.3549  -16.2001   -3.9439 C   0  0  0  0  0  0  0  0  0  0  0  0
    8.8171  -16.8979   -6.3863 C   0  0  0  0  0  0  0  0  0  0  0  0
    9.3160  -17.1969   -7.6688 C   0  0  0  0  0  0  0  0  0  0  0  0
   10.6633  -17.1190   -7.9789 C   0  0  0  0  0  0  0  0  0  0  0  0
   11.5396  -16.7657   -6.9696 C   0  0  0  0  0  0  0  0  0  0  0  0
   11.0505  -16.4841   -5.6825 C   0  0  0  0  0  0  0  0  0  0  0  0
    9.6830  -16.5388   -5.3358 C   0  0  0  0  0  0  0  0  0  0  0  0
    8.6578  -11.2857   -5.4580 C   0  0  0  0  0  0  0  0  0  0  0  0
   10.7052  -11.6318   -6.6190 C   0  0  0  0  0  0  0  0  0  0  0  0
    9.3473  -11.8834   -6.4644 C   0  0  0  0  0  0  0  0  0  0  0  0
   11.4300  -12.2547   -7.6222 C   0  0  0  0  0  0  0  0  0  0  0  0
   10.7914  -13.1383   -8.4787 C   0  0  0  0  0  0  0  0  0  0  0  0
    9.4374  -13.3891   -8.3102 C   0  0  0  0  0  0  0  0  0  0  0  0
    8.7107  -12.7777   -7.3027 C   0  0  0  0  0  0  0  0  0  0  0  0
  8 14  1  0  0  0
  8  6  1  0  0  0
 16 17  1  0  0  0
 16 18  2  0  0  0
 17 21  2  0  0  0
 17 15  1  0  0  0
 18 19  1  0  0  0
 19 20  2  0  0  0
 20 21  1  0  0  0
  9 10  2  0  0  0
  9 14  1  0  0  0
 10 11  1  0  0  0
 11 12  2  0  0  0
 12 13  1  0  0  0
 13 14  2  0  0  0
  1  2  1  0  0  0
  1  5  2  0  0  0
  2  3  2  0  0  0
  2  6  1  0  0  0
  3  4  1  0  0  0
  4  5  1  0  0  0
  4 15  1  0  0  0
  6  7  1  0  0  0
M  CHG 1   2   1
M  END
> <minimizedAffinity>
-7.54794

$$$$
5AFV_JH5_A_1463


 21 23  0  0  0  0  0  0  0  0999 V2000
   10.3570  -13.9956   -9.8848 C   0  0  0  0  0  0  0  0  0  0  0  0
   11.2643  -14.6557   -9.1673 N   0  0  0  0  0  0  0  0  0  0  0  0
   11.5526  -13.8141   -8.2134 C   0  0  0  0  0  0  0  0  0  0  0  0
   10.8590  -12.6840   -8.3456 N   0  0  0  0  0  0  0  0  0  0  0  0
   10.1568  -12.7849   -9.3348 N   0  0  0  0  0  0  0  0  0  0  0  0
   11.7382  -15.8248   -9.1857 N   0  0  0  0  0  0  0  0  0  0  0  0
   12.3170  -16.0428   -9.9517 H   0  0  0  0  0  0  0  0  0  0  0  0
   11.5298  -16.9260   -8.1855 C   0  0  0  0  0  0  0  0  0  0  0  0
    9.2105  -17.0573   -7.0257 C   0  0  0  0  0  0  0  0  0  0  0  0
    8.4821  -16.9743   -5.8233 C   0  0  0  0  0  0  0  0  0  0  0  0
    9.0914  -16.7566   -4.5990 C   0  0  0  0  0  0  0  0  0  0  0  0
   10.4628  -16.5829   -4.5811 C   0  0  0  0  0  0  0  0  0  0  0  0
   11.1937  -16.6459   -5.7798 C   0  0  0  0  0  0  0  0  0  0  0  0
   10.6072  -16.8813   -7.0423 C   0  0  0  0  0  0  0  0  0  0  0  0
   11.1160  -11.6563   -7.2986 C   0  0  0  0  0  0  0  0  0  0  0  0
    8.9031  -11.3903   -6.4667 C   0  0  0  0  0  0  0  0  0  0  0  0
   10.1765  -11.9359   -6.3580 C   0  0  0  0  0  0  0  0  0  0  0  0
    7.9244  -11.6874   -5.5322 C   0  0  0  0  0  0  0  0  0  0  0  0
    8.2212  -12.5390   -4.4791 C   0  0  0  0  0  0  0  0  0  0  0  0
    9.4929  -13.0853   -4.3847 C   0  0  0  0  0  0  0  0  0  0  0  0
   10.4714  -12.8003   -5.3218 C   0  0  0  0  0  0  0  0  0  0  0  0
  8 14  1  0  0  0
  8  6  1  0  0  0
 16 17  1  0  0  0
 16 18  2  0  0  0
 17 21  2  0  0  0
 17 15  1  0  0  0
 18 19  1  0  0  0
 19 20  2  0  0  0
 20 21  1  0  0  0
  9 10  2  0  0  0
  9 14  1  0  0  0
 10 11  1  0  0  0
 11 12  2  0  0  0
 12 13  1  0  0  0
 13 14  2  0  0  0
  1  2  1  0  0  0
  1  5  2  0  0  0
  2  3  2  0  0  0
  2  6  1  0  0  0
  3  4  1  0  0  0
  4  5  1  0  0  0
  4 15  1  0  0  0
  6  7  1  0  0  0
M  CHG 1   2   1
M  END
> <minimizedAffinity>
-7.18044

$$$$
5AFV_JH5_A_1463


 21 23  0  0  0  0  0  0  0  0999 V2000
   10.6120  -14.1932  -10.2971 C   0  0  0  0  0  0  0  0  0  0  0  0
    9.4670  -13.7739   -9.7614 N   0  0  0  0  0  0  0  0  0  0  0  0
    8.9988  -14.8496   -9.1913 C   0  0  0  0  0  0  0  0  0  0  0  0
    9.8167  -15.8851   -9.3771 N   0  0  0  0  0  0  0  0  0  0  0  0
   10.7671  -15.5031  -10.0349 N   0  0  0  0  0  0  0  0  0  0  0  0
    8.8984  -12.6549   -9.6341 N   0  0  0  0  0  0  0  0  0  0  0  0
    8.3775  -12.3459  -10.4103 H   0  0  0  0  0  0  0  0  0  0  0  0
    8.9165  -11.7349   -8.4467 C   0  0  0  0  0  0  0  0  0  0  0  0
   10.3307  -12.6942   -6.4919 C   0  0  0  0  0  0  0  0  0  0  0  0
   10.3886  -13.0251   -5.1243 C   0  0  0  0  0  0  0  0  0  0  0  0
    9.3346  -12.7901   -4.2575 C   0  0  0  0  0  0  0  0  0  0  0  0
    8.1783  -12.2408   -4.7798 C   0  0  0  0  0  0  0  0  0  0  0  0
    8.1070  -11.9254   -6.1474 C   0  0  0  0  0  0  0  0  0  0  0  0
    9.1670  -12.1372   -7.0556 C   0  0  0  0  0  0  0  0  0  0  0  0
    9.3703  -17.1644   -8.7587 C   0  0  0  0  0  0  0  0  0  0  0  0
   11.0100  -16.8951   -7.0562 C   0  0  0  0  0  0  0  0  0  0  0  0
    9.6802  -16.9949   -7.4469 C   0  0  0  0  0  0  0  0  0  0  0  0
   11.3431  -16.6936   -5.7265 C   0  0  0  0  0  0  0  0  0  0  0  0
   10.3370  -16.5899   -4.7782 C   0  0  0  0  0  0  0  0  0  0  0  0
    9.0124  -16.6821   -5.1801 C   0  0  0  0  0  0  0  0  0  0  0  0
    8.6737  -16.8726   -6.5090 C   0  0  0  0  0  0  0  0  0  0  0  0
  8 14  1  0  0  0
  8  6  1  0  0  0
 16 17  1  0  0  0
 16 18  2  0  0  0
 17 21  2  0  0  0
 17 15  1  0  0  0
 18 19  1  0  0  0
 19 20  2  0  0  0
 20 21  1  0  0  0
  9 10  2  0  0  0
  9 14  1  0  0  0
 10 11  1  0  0  0
 11 12  2  0  0  0
 12 13  1  0  0  0
 13 14  2  0  0  0
  1  2  1  0  0  0
  1  5  2  0  0  0
  2  3  2  0  0  0
  2  6  1  0  0  0
  3  4  1  0  0  0
  4  5  1  0  0  0
  4 15  1  0  0  0
  6  7  1  0  0  0
M  CHG 1   2   1
M  END
> <minimizedAffinity>
-6.95953

$$$$
5AFV_JH5_A_1463


 21 23  0  0  0  0  0  0  0  0999 V2000
    8.9990  -17.2519   -7.9303 C   0  0  0  0  0  0  0  0  0  0  0  0
    9.5682  -17.0589   -6.7418 N   0  0  0  0  0  0  0  0  0  0  0  0
   10.8243  -16.8793   -7.0440 C   0  0  0  0  0  0  0  0  0  0  0  0
   11.0180  -16.9673   -8.3594 N   0  0  0  0  0  0  0  0  0  0  0  0
    9.9438  -17.1934   -8.8855 N   0  0  0  0  0  0  0  0  0  0  0  0
    9.1450  -16.9277   -5.5605 N   0  0  0  0  0  0  0  0  0  0  0  0
    8.2850  -17.3632   -5.3604 H   0  0  0  0  0  0  0  0  0  0  0  0
    9.7889  -16.1904   -4.4211 C   0  0  0  0  0  0  0  0  0  0  0  0
    9.7277  -14.1430   -2.8254 C   0  0  0  0  0  0  0  0  0  0  0  0
    9.4374  -12.7741   -2.6672 C   0  0  0  0  0  0  0  0  0  0  0  0
    9.0019  -11.9808   -3.7153 C   0  0  0  0  0  0  0  0  0  0  0  0
    8.8186  -12.5808   -4.9473 C   0  0  0  0  0  0  0  0  0  0  0  0
    9.0885  -13.9506   -5.1077 C   0  0  0  0  0  0  0  0  0  0  0  0
    9.5481  -14.7848   -4.0656 C   0  0  0  0  0  0  0  0  0  0  0  0
   12.4250  -16.7723   -8.8074 C   0  0  0  0  0  0  0  0  0  0  0  0
   12.1612  -18.5891  -10.3204 C   0  0  0  0  0  0  0  0  0  0  0  0
   12.7890  -18.0136   -9.2223 C   0  0  0  0  0  0  0  0  0  0  0  0
   12.5394  -19.8422  -10.7747 C   0  0  0  0  0  0  0  0  0  0  0  0
   13.5556  -20.5264  -10.1255 C   0  0  0  0  0  0  0  0  0  0  0  0
   14.1818  -19.9391   -9.0357 C   0  0  0  0  0  0  0  0  0  0  0  0
   13.8152  -18.6826   -8.5843 C   0  0  0  0  0  0  0  0  0  0  0  0
  8 14  1  0  0  0
  8  6  1  0  0  0
 16 17  1  0  0  0
 16 18  2  0  0  0
 17 21  2  0  0  0
 17 15  1  0  0  0
 18 19  1  0  0  0
 19 20  2  0  0  0
 20 21  1  0  0  0
  9 10  2  0  0  0
  9 14  1  0  0  0
 10 11  1  0  0  0
 11 12  2  0  0  0
 12 13  1  0  0  0
 13 14  2  0  0  0
  1  2  1  0  0  0
  1  5  2  0  0  0
  2  3  2  0  0  0
  2  6  1  0  0  0
  3  4  1  0  0  0
  4  5  1  0  0  0
  4 15  1  0  0  0
  6  7  1  0  0  0
M  CHG 1   2   1
M  END
> <minimizedAffinity>
-6.89225

$$$$
5AFV_JH5_A_1463


 21 23  0  0  0  0  0  0  0  0999 V2000
   11.2397  -14.2332   -7.2433 C   0  0  0  0  0  0  0  0  0  0  0  0
   10.2386  -15.1028   -7.3676 N   0  0  0  0  0  0  0  0  0  0  0  0
    9.2549  -14.5074   -6.7519 C   0  0  0  0  0  0  0  0  0  0  0  0
    9.6386  -13.3283   -6.2638 N   0  0  0  0  0  0  0  0  0  0  0  0
   10.8115  -13.1658   -6.5464 N   0  0  0  0  0  0  0  0  0  0  0  0
   10.0732  -16.1910   -7.9843 N   0  0  0  0  0  0  0  0  0  0  0  0
    9.3570  -16.7744   -7.6438 H   0  0  0  0  0  0  0  0  0  0  0  0
   10.8321  -16.7079   -9.1732 C   0  0  0  0  0  0  0  0  0  0  0  0
   13.0362  -17.6826   -8.2070 C   0  0  0  0  0  0  0  0  0  0  0  0
   14.0515  -18.6519   -8.3205 C   0  0  0  0  0  0  0  0  0  0  0  0
   14.0410  -19.6274   -9.3032 C   0  0  0  0  0  0  0  0  0  0  0  0
   13.0050  -19.6119  -10.2185 C   0  0  0  0  0  0  0  0  0  0  0  0
   11.9984  -18.6359  -10.1224 C   0  0  0  0  0  0  0  0  0  0  0  0
   11.9697  -17.6372   -9.1250 C   0  0  0  0  0  0  0  0  0  0  0  0
    8.5813  -12.5660   -5.5432 C   0  0  0  0  0  0  0  0  0  0  0  0
    8.4167  -13.9514   -3.6163 C   0  0  0  0  0  0  0  0  0  0  0  0
    8.8748  -12.7955   -4.2369 C   0  0  0  0  0  0  0  0  0  0  0  0
    8.7305  -14.2154   -2.2929 C   0  0  0  0  0  0  0  0  0  0  0  0
    9.5106  -13.3154   -1.5830 C   0  0  0  0  0  0  0  0  0  0  0  0
    9.9702  -12.1689   -2.2145 C   0  0  0  0  0  0  0  0  0  0  0  0
    9.6686  -11.9056   -3.5399 C   0  0  0  0  0  0  0  0  0  0  0  0
  8 14  1  0  0  0
  8  6  1  0  0  0
 16 17  1  0  0  0
 16 18  2  0  0  0
 17 21  2  0  0  0
 17 15  1  0  0  0
 18 19  1  0  0  0
 19 20  2  0  0  0
 20 21  1  0  0  0
  9 10  2  0  0  0
  9 14  1  0  0  0
 10 11  1  0  0  0
 11 12  2  0  0  0
 12 13  1  0  0  0
 13 14  2  0  0  0
  1  2  1  0  0  0
  1  5  2  0  0  0
  2  3  2  0  0  0
  2  6  1  0  0  0
  3  4  1  0  0  0
  4  5  1  0  0  0
  4 15  1  0  0  0
  6  7  1  0  0  0
M  CHG 1   2   1
M  END
> <minimizedAffinity>
-6.72606

$$$$
5AFV_JH5_A_1463


 21 23  0  0  0  0  0  0  0  0999 V2000
   11.3055  -11.4831   -7.4250 C   0  0  0  0  0  0  0  0  0  0  0  0
   10.3922  -11.7263   -6.4867 N   0  0  0  0  0  0  0  0  0  0  0  0
    9.5259  -12.4773   -7.1084 C   0  0  0  0  0  0  0  0  0  0  0  0
    9.8877  -12.6784   -8.3751 N   0  0  0  0  0  0  0  0  0  0  0  0
   10.9346  -12.0878   -8.5675 N   0  0  0  0  0  0  0  0  0  0  0  0
   10.2944  -11.4836   -5.2524 N   0  0  0  0  0  0  0  0  0  0  0  0
   10.0887  -10.5513   -5.0119 H   0  0  0  0  0  0  0  0  0  0  0  0
   10.4524  -12.4388   -4.1039 C   0  0  0  0  0  0  0  0  0  0  0  0
    9.0161  -14.5614   -3.6878 C   0  0  0  0  0  0  0  0  0  0  0  0
    8.9120  -15.9611   -3.8026 C   0  0  0  0  0  0  0  0  0  0  0  0
    9.8970  -16.7335   -4.3947 C   0  0  0  0  0  0  0  0  0  0  0  0
   11.0328  -16.0924   -4.8534 C   0  0  0  0  0  0  0  0  0  0  0  0
   11.1515  -14.6980   -4.7252 C   0  0  0  0  0  0  0  0  0  0  0  0
   10.1609  -13.8788   -4.1414 C   0  0  0  0  0  0  0  0  0  0  0  0
    8.9614  -13.5304   -9.1714 C   0  0  0  0  0  0  0  0  0  0  0  0
   10.6754  -15.1801   -9.1762 C   0  0  0  0  0  0  0  0  0  0  0  0
    9.3754  -14.7904   -8.8776 C   0  0  0  0  0  0  0  0  0  0  0  0
   11.1232  -16.4520   -8.8577 C   0  0  0  0  0  0  0  0  0  0  0  0
   10.2633  -17.3428   -8.2338 C   0  0  0  0  0  0  0  0  0  0  0  0
    8.9703  -16.9409   -7.9321 C   0  0  0  0  0  0  0  0  0  0  0  0
    8.5211  -15.6676   -8.2384 C   0  0  0  0  0  0  0  0  0  0  0  0
  8 14  1  0  0  0
  8  6  1  0  0  0
 16 17  1  0  0  0
 16 18  2  0  0  0
 17 21  2  0  0  0
 17 15  1  0  0  0
 18 19  1  0  0  0
 19 20  2  0  0  0
 20 21  1  0  0  0
  9 10  2  0  0  0
  9 14  1  0  0  0
 10 11  1  0  0  0
 11 12  2  0  0  0
 12 13  1  0  0  0
 13 14  2  0  0  0
  1  2  1  0  0  0
  1  5  2  0  0  0
  2  3  2  0  0  0
  2  6  1  0  0  0
  3  4  1  0  0  0
  4  5  1  0  0  0
  4 15  1  0  0  0
  6  7  1  0  0  0
M  CHG 1   2   1
M  END
> <minimizedAffinity>
-6.68362

$$$$
5AFV_JH5_A_1463


 21 23  0  0  0  0  0  0  0  0999 V2000
   12.7323  -15.3638   -6.5826 C   0  0  0  0  0  0  0  0  0  0  0  0
   12.1437  -16.5143   -6.9048 N   0  0  0  0  0  0  0  0  0  0  0  0
   11.2571  -16.6647   -5.9601 C   0  0  0  0  0  0  0  0  0  0  0  0
   11.3060  -15.6549   -5.0918 N   0  0  0  0  0  0  0  0  0  0  0  0
   12.1799  -14.8882   -5.4525 N   0  0  0  0  0  0  0  0  0  0  0  0
   12.2110  -17.3077   -7.8835 N   0  0  0  0  0  0  0  0  0  0  0  0
   12.9712  -17.9332   -7.8792 H   0  0  0  0  0  0  0  0  0  0  0  0
   11.2764  -17.4174   -9.0544 C   0  0  0  0  0  0  0  0  0  0  0  0
    8.8767  -16.4835   -8.7217 C   0  0  0  0  0  0  0  0  0  0  0  0
    7.9034  -15.5498   -9.1267 C   0  0  0  0  0  0  0  0  0  0  0  0
    8.1445  -14.6036  -10.1087 C   0  0  0  0  0  0  0  0  0  0  0  0
    9.3812  -14.6139  -10.7266 C   0  0  0  0  0  0  0  0  0  0  0  0
   10.3508  -15.5551  -10.3403 C   0  0  0  0  0  0  0  0  0  0  0  0
   10.1443  -16.5228   -9.3333 C   0  0  0  0  0  0  0  0  0  0  0  0
   10.3258  -15.7328   -3.9732 C   0  0  0  0  0  0  0  0  0  0  0  0
    9.0849  -13.8674   -4.7732 C   0  0  0  0  0  0  0  0  0  0  0  0
    9.9245  -14.4432   -3.8274 C   0  0  0  0  0  0  0  0  0  0  0  0
    8.6429  -12.5627   -4.6256 C   0  0  0  0  0  0  0  0  0  0  0  0
    9.0434  -11.8264   -3.5211 C   0  0  0  0  0  0  0  0  0  0  0  0
    9.8747  -12.4135   -2.5783 C   0  0  0  0  0  0  0  0  0  0  0  0
   10.3105  -13.7204   -2.7154 C   0  0  0  0  0  0  0  0  0  0  0  0
  8 14  1  0  0  0
  8  6  1  0  0  0
 16 17  1  0  0  0
 16 18  2  0  0  0
 17 21  2  0  0  0
 17 15  1  0  0  0
 18 19  1  0  0  0
 19 20  2  0  0  0
 20 21  1  0  0  0
  9 10  2  0  0  0
  9 14  1  0  0  0
 10 11  1  0  0  0
 11 12  2  0  0  0
 12 13  1  0  0  0
 13 14  2  0  0  0
  1  2  1  0  0  0
  1  5  2  0  0  0
  2  3  2  0  0  0
  2  6  1  0  0  0
  3  4  1  0  0  0
  4  5  1  0  0  0
  4 15  1  0  0  0
  6  7  1  0  0  0
M  CHG 1   2   1
M  END
> <minimizedAffinity>
-6.47956

$$$$
