3TU7_0BM_H_1


 38 40  0  0  0  0  0  0  0  0999 V2000
   26.6986    4.1315   21.5437 C   0  0  0  0  0  0  0  0  0  0  0  0
   26.6357    4.6806   20.4576 O   0  0  0  0  0  0  0  0  0  0  0  0
   26.3951    2.8229   21.6950 N   0  0  0  0  0  0  0  0  0  0  0  0
   26.0440    1.9894   20.5377 C   0  0  0  0  0  0  0  0  0  0  0  0
   25.9961    0.5636   21.1203 C   0  0  0  0  0  0  0  0  0  0  0  0
   26.6414    0.6541   22.4805 C   0  0  0  0  0  0  0  0  0  0  0  0
   26.3287    2.0450   22.9420 C   0  0  0  0  0  0  0  0  0  0  0  0
   24.6781    2.4023   19.9984 C   0  0  0  0  0  0  0  0  0  0  0  0
   23.6901    2.3957   20.7312 O   0  0  0  0  0  0  0  0  0  0  0  0
   24.6253    2.7885   18.7296 N   0  0  0  0  0  0  0  0  0  0  0  0
   25.4353    2.7331   18.1727 H   0  0  0  0  0  0  0  0  0  0  0  0
   23.3896    3.2927   18.1474 C   0  0  0  0  0  0  0  0  0  0  0  0
   23.3829    4.6925   17.5470 C   0  0  0  0  0  0  0  0  0  0  0  0
   23.9896    4.7275   16.1469 C   0  0  0  0  0  0  0  0  0  0  0  0
   23.8009    6.0963   15.4737 C   0  0  0  0  0  0  0  0  0  0  0  0
   24.3230    7.1914   16.3100 N   0  0  0  0  0  0  0  0  0  0  0  0
   23.8010    7.2016   17.6933 C   0  0  0  0  0  0  0  0  0  0  0  0
   23.9708    5.8366   18.3744 C   0  0  0  0  0  0  0  0  0  0  0  0
   24.7611    8.3916   15.6416 C   0  0  0  0  0  0  0  0  0  0  0  0
   24.7117    9.6015   16.4411 N   0  0  0  0  0  0  0  0  0  0  0  0
   25.1942    8.5079   14.4249 N   0  0  0  0  0  0  0  0  0  0  0  0
   24.3902    9.5642   17.3709 H   0  0  0  0  0  0  0  0  0  0  0  0
   24.9997   10.4595   16.0538 H   0  0  0  0  0  0  0  0  0  0  0  0
   25.2462    7.7155   13.8430 H   0  0  0  0  0  0  0  0  0  0  0  0
   27.0469    4.9804   22.7756 C   0  0  0  0  0  0  0  0  0  0  0  0
   26.1982    6.1644   22.7247 N   0  0  0  0  0  0  0  0  0  0  0  0
   26.2091    6.4764   21.7537 H   0  0  0  0  0  0  0  0  0  0  0  0
   24.6249    6.1540   23.1775 S   0  0  0  0  0  0  0  0  0  0  0  0
   23.8812    5.9596   21.9752 O   0  0  0  0  0  0  0  0  0  0  0  0
   24.5244    5.1851   24.2229 O   0  0  0  0  0  0  0  0  0  0  0  0
   24.2117    7.7191   23.8374 C   0  0  0  0  0  0  0  0  0  0  0  0
   28.5082    5.4488   22.7447 C   0  0  0  0  0  0  0  0  0  0  0  0
   29.4922    4.3151   22.8824 C   0  0  0  0  0  0  0  0  0  0  0  0
   30.4236    4.0557   21.8809 C   0  0  0  0  0  0  0  0  0  0  0  0
   29.4859    3.4973   24.0086 C   0  0  0  0  0  0  0  0  0  0  0  0
   31.3195    3.0039   21.9994 C   0  0  0  0  0  0  0  0  0  0  0  0
   30.3847    2.4458   24.1274 C   0  0  0  0  0  0  0  0  0  0  0  0
   31.3007    2.1989   23.1247 C   0  0  0  0  0  0  0  0  0  0  0  0
 34 36  2  0  0  0
 34 33  1  0  0  0
 36 38  1  0  0  0
 38 37  2  0  0  0
 35 37  1  0  0  0
 33 35  2  0  0  0
 32 33  1  0  0  0
 25 32  1  0  0  0
 26 25  1  0  0  0
 26 28  1  0  0  0
 28 29  2  0  0  0
 30 28  2  0  0  0
 31 28  1  0  0  0
  1  3  1  0  0  0
  1 25  1  0  0  0
  2  1  2  0  0  0
  3  7  1  0  0  0
  6  7  1  0  0  0
  5  6  1  0  0  0
  4  5  1  0  0  0
  4  3  1  0  0  0
  8  4  1  0  0  0
  8  9  2  0  0  0
 10  8  1  0  0  0
 12 10  1  0  0  0
 13 12  1  0  0  0
 13 18  1  0  0  0
 14 13  1  0  0  0
 15 14  1  0  0  0
 15 16  1  0  0  0
 16 17  1  0  0  0
 17 18  1  0  0  0
 19 16  1  0  0  0
 19 20  1  0  0  0
 21 19  2  0  0  0
 26 27  1  0  0  0
 10 11  1  0  0  0
 20 22  1  0  0  0
 20 23  1  0  0  0
 21 24  1  0  0  0
M  END
> <minimizedAffinity>
-9.93962

$$$$
3TU7_0BM_H_1


 38 40  0  0  0  0  0  0  0  0999 V2000
   26.6633    4.1777   21.6713 C   0  0  0  0  0  0  0  0  0  0  0  0
   26.5769    4.8244   20.6420 O   0  0  0  0  0  0  0  0  0  0  0  0
   26.3805    2.8562   21.7040 N   0  0  0  0  0  0  0  0  0  0  0  0
   26.0243    2.1285   20.4789 C   0  0  0  0  0  0  0  0  0  0  0  0
   26.0049    0.6542   20.9267 C   0  0  0  0  0  0  0  0  0  0  0  0
   26.6686    0.6279   22.2808 C   0  0  0  0  0  0  0  0  0  0  0  0
   26.3431    1.9648   22.8739 C   0  0  0  0  0  0  0  0  0  0  0  0
   24.6450    2.5688   19.9984 C   0  0  0  0  0  0  0  0  0  0  0  0
   23.7376    2.7674   20.8048 O   0  0  0  0  0  0  0  0  0  0  0  0
   24.4937    2.7495   18.6921 N   0  0  0  0  0  0  0  0  0  0  0  0
   25.2376    2.5340   18.0844 H   0  0  0  0  0  0  0  0  0  0  0  0
   23.2460    3.2611   18.1430 C   0  0  0  0  0  0  0  0  0  0  0  0
   23.2445    4.6385   17.4928 C   0  0  0  0  0  0  0  0  0  0  0  0
   24.0963    4.6848   16.2272 C   0  0  0  0  0  0  0  0  0  0  0  0
   23.9325    6.0143   15.4734 C   0  0  0  0  0  0  0  0  0  0  0  0
   24.2052    7.1714   16.3440 N   0  0  0  0  0  0  0  0  0  0  0  0
   23.4360    7.1766   17.6067 C   0  0  0  0  0  0  0  0  0  0  0  0
   23.5796    5.8496   18.3646 C   0  0  0  0  0  0  0  0  0  0  0  0
   24.6673    8.3848   15.7168 C   0  0  0  0  0  0  0  0  0  0  0  0
   24.5315    9.5882   16.5162 N   0  0  0  0  0  0  0  0  0  0  0  0
   25.1892    8.5181   14.5373 N   0  0  0  0  0  0  0  0  0  0  0  0
   24.1410    9.5382   17.4186 H   0  0  0  0  0  0  0  0  0  0  0  0
   24.8298   10.4546   16.1562 H   0  0  0  0  0  0  0  0  0  0  0  0
   25.3022    7.7307   13.9572 H   0  0  0  0  0  0  0  0  0  0  0  0
   27.0175    4.9137   22.9722 C   0  0  0  0  0  0  0  0  0  0  0  0
   25.9414    5.8639   23.2248 N   0  0  0  0  0  0  0  0  0  0  0  0
   25.5414    6.0845   22.3128 H   0  0  0  0  0  0  0  0  0  0  0  0
   24.6729    5.5345   24.2059 S   0  0  0  0  0  0  0  0  0  0  0  0
   23.6388    5.0547   23.3475 O   0  0  0  0  0  0  0  0  0  0  0  0
   25.1816    4.6772   25.2297 O   0  0  0  0  0  0  0  0  0  0  0  0
   24.1292    7.0188   24.9521 C   0  0  0  0  0  0  0  0  0  0  0  0
   28.3231    5.7089   22.8344 C   0  0  0  0  0  0  0  0  0  0  0  0
   28.9584    6.0311   24.1630 C   0  0  0  0  0  0  0  0  0  0  0  0
   29.5991    5.0418   24.9038 C   0  0  0  0  0  0  0  0  0  0  0  0
   28.9111    7.3213   24.6827 C   0  0  0  0  0  0  0  0  0  0  0  0
   30.1709    5.3333   26.1330 C   0  0  0  0  0  0  0  0  0  0  0  0
   29.4858    7.6128   25.9125 C   0  0  0  0  0  0  0  0  0  0  0  0
   30.1153    6.6208   26.6372 C   0  0  0  0  0  0  0  0  0  0  0  0
 34 36  2  0  0  0
 34 33  1  0  0  0
 36 38  1  0  0  0
 38 37  2  0  0  0
 35 37  1  0  0  0
 33 35  2  0  0  0
 32 33  1  0  0  0
 25 32  1  0  0  0
 26 25  1  0  0  0
 26 28  1  0  0  0
 28 29  2  0  0  0
 30 28  2  0  0  0
 31 28  1  0  0  0
  1  3  1  0  0  0
  1 25  1  0  0  0
  2  1  2  0  0  0
  3  7  1  0  0  0
  6  7  1  0  0  0
  5  6  1  0  0  0
  4  5  1  0  0  0
  4  3  1  0  0  0
  8  4  1  0  0  0
  8  9  2  0  0  0
 10  8  1  0  0  0
 12 10  1  0  0  0
 13 12  1  0  0  0
 13 18  1  0  0  0
 14 13  1  0  0  0
 15 14  1  0  0  0
 15 16  1  0  0  0
 16 17  1  0  0  0
 17 18  1  0  0  0
 19 16  1  0  0  0
 19 20  1  0  0  0
 21 19  2  0  0  0
 26 27  1  0  0  0
 10 11  1  0  0  0
 20 22  1  0  0  0
 20 23  1  0  0  0
 21 24  1  0  0  0
M  END
> <minimizedAffinity>
-8.35066

$$$$
3TU7_0BM_H_1


 38 40  0  0  0  0  0  0  0  0999 V2000
   26.0526    4.5347   23.4161 C   0  0  0  0  0  0  0  0  0  0  0  0
   24.9246    4.3691   23.8463 O   0  0  0  0  0  0  0  0  0  0  0  0
   26.6590    5.7421   23.4631 N   0  0  0  0  0  0  0  0  0  0  0  0
   26.0059    6.8919   24.1023 C   0  0  0  0  0  0  0  0  0  0  0  0
   27.1093    7.9673   24.1261 C   0  0  0  0  0  0  0  0  0  0  0  0
   28.3931    7.2452   23.8017 C   0  0  0  0  0  0  0  0  0  0  0  0
   27.9655    6.1237   22.9046 C   0  0  0  0  0  0  0  0  0  0  0  0
   24.8203    7.3484   23.2578 C   0  0  0  0  0  0  0  0  0  0  0  0
   24.2073    8.3752   23.5465 O   0  0  0  0  0  0  0  0  0  0  0  0
   24.5148    6.6060   22.2007 N   0  0  0  0  0  0  0  0  0  0  0  0
   25.0075    5.7694   22.0382 H   0  0  0  0  0  0  0  0  0  0  0  0
   23.4631    7.0083   21.2774 C   0  0  0  0  0  0  0  0  0  0  0  0
   23.4408    6.3948   19.8835 C   0  0  0  0  0  0  0  0  0  0  0  0
   24.5980    5.4258   19.6563 C   0  0  0  0  0  0  0  0  0  0  0  0
   24.4580    4.6663   18.3274 C   0  0  0  0  0  0  0  0  0  0  0  0
   24.2999    5.5869   17.1877 N   0  0  0  0  0  0  0  0  0  0  0  0
   23.2144    6.5770   17.3523 C   0  0  0  0  0  0  0  0  0  0  0  0
   23.3336    7.3347   18.6819 C   0  0  0  0  0  0  0  0  0  0  0  0
   24.7350    5.1267   15.8922 C   0  0  0  0  0  0  0  0  0  0  0  0
   24.2580    3.8113   15.5077 N   0  0  0  0  0  0  0  0  0  0  0  0
   25.4891    5.7506   15.0417 N   0  0  0  0  0  0  0  0  0  0  0  0
   23.6825    3.2981   16.1198 H   0  0  0  0  0  0  0  0  0  0  0  0
   24.5099    3.4321   14.6348 H   0  0  0  0  0  0  0  0  0  0  0  0
   25.8375    6.6459   15.2570 H   0  0  0  0  0  0  0  0  0  0  0  0
   26.7553    3.3554   22.7270 C   0  0  0  0  0  0  0  0  0  0  0  0
   25.7186    2.3899   22.3834 N   0  0  0  0  0  0  0  0  0  0  0  0
   24.8321    2.8868   22.4703 H   0  0  0  0  0  0  0  0  0  0  0  0
   25.6629    1.6165   20.9415 S   0  0  0  0  0  0  0  0  0  0  0  0
   26.4417    2.4125   20.0492 O   0  0  0  0  0  0  0  0  0  0  0  0
   26.0631    0.2700   21.2034 O   0  0  0  0  0  0  0  0  0  0  0  0
   24.0115    1.5974   20.3688 C   0  0  0  0  0  0  0  0  0  0  0  0
   27.7495    2.6614   23.6682 C   0  0  0  0  0  0  0  0  0  0  0  0
   29.1868    2.8784   23.2691 C   0  0  0  0  0  0  0  0  0  0  0  0
   30.1848    2.9855   24.2337 C   0  0  0  0  0  0  0  0  0  0  0  0
   29.5471    2.9856   21.9290 C   0  0  0  0  0  0  0  0  0  0  0  0
   31.5052    3.2003   23.8687 C   0  0  0  0  0  0  0  0  0  0  0  0
   30.8698    3.1984   21.5643 C   0  0  0  0  0  0  0  0  0  0  0  0
   31.8482    3.3054   22.5322 C   0  0  0  0  0  0  0  0  0  0  0  0
 34 36  2  0  0  0
 34 33  1  0  0  0
 36 38  1  0  0  0
 38 37  2  0  0  0
 35 37  1  0  0  0
 33 35  2  0  0  0
 32 33  1  0  0  0
 25 32  1  0  0  0
 26 25  1  0  0  0
 26 28  1  0  0  0
 28 29  2  0  0  0
 30 28  2  0  0  0
 31 28  1  0  0  0
  1  3  1  0  0  0
  1 25  1  0  0  0
  2  1  2  0  0  0
  3  7  1  0  0  0
  6  7  1  0  0  0
  5  6  1  0  0  0
  4  5  1  0  0  0
  4  3  1  0  0  0
  8  4  1  0  0  0
  8  9  2  0  0  0
 10  8  1  0  0  0
 12 10  1  0  0  0
 13 12  1  0  0  0
 13 18  1  0  0  0
 14 13  1  0  0  0
 15 14  1  0  0  0
 15 16  1  0  0  0
 16 17  1  0  0  0
 17 18  1  0  0  0
 19 16  1  0  0  0
 19 20  1  0  0  0
 21 19  2  0  0  0
 26 27  1  0  0  0
 10 11  1  0  0  0
 20 22  1  0  0  0
 20 23  1  0  0  0
 21 24  1  0  0  0
M  END
> <minimizedAffinity>
-7.85318

$$$$
3TU7_0BM_H_1


 38 40  0  0  0  0  0  0  0  0999 V2000
   26.6911    4.0244   21.5840 C   0  0  0  0  0  0  0  0  0  0  0  0
   26.6083    4.6747   20.5567 O   0  0  0  0  0  0  0  0  0  0  0  0
   26.3721    2.7111   21.6193 N   0  0  0  0  0  0  0  0  0  0  0  0
   25.9789    1.9955   20.3984 C   0  0  0  0  0  0  0  0  0  0  0  0
   25.9248    0.5216   20.8449 C   0  0  0  0  0  0  0  0  0  0  0  0
   26.6063    0.4749   22.1895 C   0  0  0  0  0  0  0  0  0  0  0  0
   26.3264    1.8195   22.7886 C   0  0  0  0  0  0  0  0  0  0  0  0
   24.6058    2.4746   19.9377 C   0  0  0  0  0  0  0  0  0  0  0  0
   23.6690    2.5403   20.7324 O   0  0  0  0  0  0  0  0  0  0  0  0
   24.4916    2.8361   18.6657 N   0  0  0  0  0  0  0  0  0  0  0  0
   25.2590    2.7224   18.0596 H   0  0  0  0  0  0  0  0  0  0  0  0
   23.2505    3.3979   18.1517 C   0  0  0  0  0  0  0  0  0  0  0  0
   23.2883    4.7696   17.4906 C   0  0  0  0  0  0  0  0  0  0  0  0
   24.3688    4.8681   16.4172 C   0  0  0  0  0  0  0  0  0  0  0  0
   24.2713    6.1807   15.6234 C   0  0  0  0  0  0  0  0  0  0  0  0
   24.2906    7.3568   16.5110 N   0  0  0  0  0  0  0  0  0  0  0  0
   23.2881    7.3152   17.5969 C   0  0  0  0  0  0  0  0  0  0  0  0
   23.3648    6.0037   18.3907 C   0  0  0  0  0  0  0  0  0  0  0  0
   24.7879    8.5960   15.9666 C   0  0  0  0  0  0  0  0  0  0  0  0
   25.1346    8.5611   14.5581 N   0  0  0  0  0  0  0  0  0  0  0  0
   24.9517    9.7240   16.5849 N   0  0  0  0  0  0  0  0  0  0  0  0
   25.0277    7.7275   14.0453 H   0  0  0  0  0  0  0  0  0  0  0  0
   25.4768    9.3711   14.1151 H   0  0  0  0  0  0  0  0  0  0  0  0
   24.7305    9.7977   17.5414 H   0  0  0  0  0  0  0  0  0  0  0  0
   27.0836    4.7483   22.8807 C   0  0  0  0  0  0  0  0  0  0  0  0
   28.2032    4.0105   23.4525 N   0  0  0  0  0  0  0  0  0  0  0  0
   28.7725    3.7069   22.6625 H   0  0  0  0  0  0  0  0  0  0  0  0
   29.2441    4.6658   24.5331 S   0  0  0  0  0  0  0  0  0  0  0  0
   30.5190    4.1022   24.2275 O   0  0  0  0  0  0  0  0  0  0  0  0
   29.0675    6.0806   24.4389 O   0  0  0  0  0  0  0  0  0  0  0  0
   28.7868    4.1610   26.1429 C   0  0  0  0  0  0  0  0  0  0  0  0
   25.9403    4.7339   23.9046 C   0  0  0  0  0  0  0  0  0  0  0  0
   24.9433    5.8438   23.6884 C   0  0  0  0  0  0  0  0  0  0  0  0
   25.3344    7.1773   23.7688 C   0  0  0  0  0  0  0  0  0  0  0  0
   23.6087    5.5607   23.4128 C   0  0  0  0  0  0  0  0  0  0  0  0
   24.4153    8.1994   23.5851 C   0  0  0  0  0  0  0  0  0  0  0  0
   22.6896    6.5846   23.2268 C   0  0  0  0  0  0  0  0  0  0  0  0
   23.0916    7.9024   23.3123 C   0  0  0  0  0  0  0  0  0  0  0  0
 34 36  2  0  0  0
 34 33  1  0  0  0
 36 38  1  0  0  0
 38 37  2  0  0  0
 35 37  1  0  0  0
 33 35  2  0  0  0
 32 33  1  0  0  0
 25 32  1  0  0  0
 26 25  1  0  0  0
 26 28  1  0  0  0
 28 29  2  0  0  0
 30 28  2  0  0  0
 31 28  1  0  0  0
  1  3  1  0  0  0
  1 25  1  0  0  0
  2  1  2  0  0  0
  3  7  1  0  0  0
  6  7  1  0  0  0
  5  6  1  0  0  0
  4  5  1  0  0  0
  4  3  1  0  0  0
  8  4  1  0  0  0
  8  9  2  0  0  0
 10  8  1  0  0  0
 12 10  1  0  0  0
 13 12  1  0  0  0
 13 18  1  0  0  0
 14 13  1  0  0  0
 15 14  1  0  0  0
 15 16  1  0  0  0
 16 17  1  0  0  0
 17 18  1  0  0  0
 19 16  1  0  0  0
 19 20  1  0  0  0
 21 19  2  0  0  0
 26 27  1  0  0  0
 10 11  1  0  0  0
 20 22  1  0  0  0
 20 23  1  0  0  0
 21 24  1  0  0  0
M  END
> <minimizedAffinity>
-7.84076

$$$$
3TU7_0BM_H_1


 38 40  0  0  0  0  0  0  0  0999 V2000
   30.0175    4.0904   25.1176 C   0  0  0  0  0  0  0  0  0  0  0  0
   28.9609    4.6959   25.1647 O   0  0  0  0  0  0  0  0  0  0  0  0
   30.5555    3.6942   23.9424 N   0  0  0  0  0  0  0  0  0  0  0  0
   29.9203    4.0416   22.6645 C   0  0  0  0  0  0  0  0  0  0  0  0
   30.9557    3.5970   21.6134 C   0  0  0  0  0  0  0  0  0  0  0  0
   32.2297    3.3359   22.3772 C   0  0  0  0  0  0  0  0  0  0  0  0
   31.7612    2.8793   23.7253 C   0  0  0  0  0  0  0  0  0  0  0  0
   28.6173    3.2641   22.5066 C   0  0  0  0  0  0  0  0  0  0  0  0
   28.6316    2.0394   22.3917 O   0  0  0  0  0  0  0  0  0  0  0  0
   27.4919    3.9675   22.5296 N   0  0  0  0  0  0  0  0  0  0  0  0
   27.5360    4.9498   22.5787 H   0  0  0  0  0  0  0  0  0  0  0  0
   26.1931    3.3107   22.4836 C   0  0  0  0  0  0  0  0  0  0  0  0
   25.2678    3.6033   21.3097 C   0  0  0  0  0  0  0  0  0  0  0  0
   25.3508    2.5343   20.2235 C   0  0  0  0  0  0  0  0  0  0  0  0
   24.2775    2.7314   19.1411 C   0  0  0  0  0  0  0  0  0  0  0  0
   24.3289    4.0859   18.5631 N   0  0  0  0  0  0  0  0  0  0  0  0
   24.2843    5.1750   19.5621 C   0  0  0  0  0  0  0  0  0  0  0  0
   25.3427    4.9846   20.6573 C   0  0  0  0  0  0  0  0  0  0  0  0
   23.8470    4.2553   17.2146 C   0  0  0  0  0  0  0  0  0  0  0  0
   22.4064    4.1848   17.0562 N   0  0  0  0  0  0  0  0  0  0  0  0
   24.5469    4.4668   16.1437 N   0  0  0  0  0  0  0  0  0  0  0  0
   21.8321    4.0259   17.8399 H   0  0  0  0  0  0  0  0  0  0  0  0
   22.0032    4.2959   16.1649 H   0  0  0  0  0  0  0  0  0  0  0  0
   25.5282    4.5227   16.2000 H   0  0  0  0  0  0  0  0  0  0  0  0
   30.6975    3.6980   26.4379 C   0  0  0  0  0  0  0  0  0  0  0  0
   29.7488    2.8679   27.1697 N   0  0  0  0  0  0  0  0  0  0  0  0
   28.9439    2.7515   26.5540 H   0  0  0  0  0  0  0  0  0  0  0  0
   30.1147    1.3707   27.7218 S   0  0  0  0  0  0  0  0  0  0  0  0
   30.8357    1.5754   28.9361 O   0  0  0  0  0  0  0  0  0  0  0  0
   28.8792    0.6536   27.7579 O   0  0  0  0  0  0  0  0  0  0  0  0
   31.1734    0.5836   26.5750 C   0  0  0  0  0  0  0  0  0  0  0  0
   31.0079    4.9285   27.3014 C   0  0  0  0  0  0  0  0  0  0  0  0
   32.4595    5.3319   27.2500 C   0  0  0  0  0  0  0  0  0  0  0  0
   32.8380    6.6553   27.4575 C   0  0  0  0  0  0  0  0  0  0  0  0
   33.4523    4.3930   26.9853 C   0  0  0  0  0  0  0  0  0  0  0  0
   34.1715    7.0307   27.3956 C   0  0  0  0  0  0  0  0  0  0  0  0
   34.7875    4.7693   26.9258 C   0  0  0  0  0  0  0  0  0  0  0  0
   35.1474    6.0861   27.1308 C   0  0  0  0  0  0  0  0  0  0  0  0
 34 36  2  0  0  0
 34 33  1  0  0  0
 36 38  1  0  0  0
 38 37  2  0  0  0
 35 37  1  0  0  0
 33 35  2  0  0  0
 32 33  1  0  0  0
 25 32  1  0  0  0
 26 25  1  0  0  0
 26 28  1  0  0  0
 28 29  2  0  0  0
 30 28  2  0  0  0
 31 28  1  0  0  0
  1  3  1  0  0  0
  1 25  1  0  0  0
  2  1  2  0  0  0
  3  7  1  0  0  0
  6  7  1  0  0  0
  5  6  1  0  0  0
  4  5  1  0  0  0
  4  3  1  0  0  0
  8  4  1  0  0  0
  8  9  2  0  0  0
 10  8  1  0  0  0
 12 10  1  0  0  0
 13 12  1  0  0  0
 13 18  1  0  0  0
 14 13  1  0  0  0
 15 14  1  0  0  0
 15 16  1  0  0  0
 16 17  1  0  0  0
 17 18  1  0  0  0
 19 16  1  0  0  0
 19 20  1  0  0  0
 21 19  2  0  0  0
 26 27  1  0  0  0
 10 11  1  0  0  0
 20 22  1  0  0  0
 20 23  1  0  0  0
 21 24  1  0  0  0
M  END
> <minimizedAffinity>
-7.13695

$$$$
3TU7_0BM_H_1


 38 40  0  0  0  0  0  0  0  0999 V2000
   26.0935    5.6524   21.9685 C   0  0  0  0  0  0  0  0  0  0  0  0
   27.3092    5.5717   21.9406 O   0  0  0  0  0  0  0  0  0  0  0  0
   25.4577    6.4826   22.8254 N   0  0  0  0  0  0  0  0  0  0  0  0
   26.2130    7.3770   23.7123 C   0  0  0  0  0  0  0  0  0  0  0  0
   25.1248    8.2743   24.3329 C   0  0  0  0  0  0  0  0  0  0  0  0
   23.8828    8.0423   23.5094 C   0  0  0  0  0  0  0  0  0  0  0  0
   24.0100    6.6226   23.0472 C   0  0  0  0  0  0  0  0  0  0  0  0
   26.9227    6.5604   24.7879 C   0  0  0  0  0  0  0  0  0  0  0  0
   26.2767    5.8678   25.5730 O   0  0  0  0  0  0  0  0  0  0  0  0
   28.2487    6.6166   24.8073 N   0  0  0  0  0  0  0  0  0  0  0  0
   28.7166    7.2206   24.1864 H   0  0  0  0  0  0  0  0  0  0  0  0
   29.0229    5.7999   25.7314 C   0  0  0  0  0  0  0  0  0  0  0  0
   29.8286    4.6328   25.1759 C   0  0  0  0  0  0  0  0  0  0  0  0
   28.9409    3.4768   24.7232 C   0  0  0  0  0  0  0  0  0  0  0  0
   29.7427    2.3916   23.9870 C   0  0  0  0  0  0  0  0  0  0  0  0
   30.8771    1.9100   24.7949 N   0  0  0  0  0  0  0  0  0  0  0  0
   31.7649    2.9811   25.2953 C   0  0  0  0  0  0  0  0  0  0  0  0
   30.9762    4.0793   26.0219 C   0  0  0  0  0  0  0  0  0  0  0  0
   31.3466    0.5681   24.5537 C   0  0  0  0  0  0  0  0  0  0  0  0
   31.3478   -0.3071   25.7111 N   0  0  0  0  0  0  0  0  0  0  0  0
   31.7562    0.0613   23.4327 N   0  0  0  0  0  0  0  0  0  0  0  0
   31.0457    0.0316   26.5847 H   0  0  0  0  0  0  0  0  0  0  0  0
   31.6508   -1.2397   25.6227 H   0  0  0  0  0  0  0  0  0  0  0  0
   31.7738    0.6156   22.6192 H   0  0  0  0  0  0  0  0  0  0  0  0
   25.2755    4.7179   21.0646 C   0  0  0  0  0  0  0  0  0  0  0  0
   24.2546    5.5383   20.4247 N   0  0  0  0  0  0  0  0  0  0  0  0
   24.5254    6.5070   20.5943 H   0  0  0  0  0  0  0  0  0  0  0  0
   23.9038    5.4411   18.8284 S   0  0  0  0  0  0  0  0  0  0  0  0
   22.5886    5.9776   18.6916 O   0  0  0  0  0  0  0  0  0  0  0  0
   24.9890    6.0760   18.1494 O   0  0  0  0  0  0  0  0  0  0  0  0
   23.8679    3.7590   18.3545 C   0  0  0  0  0  0  0  0  0  0  0  0
   24.5612    3.6286   21.8764 C   0  0  0  0  0  0  0  0  0  0  0  0
   25.2160    2.2766   21.7502 C   0  0  0  0  0  0  0  0  0  0  0  0
   26.4807    2.0460   22.2842 C   0  0  0  0  0  0  0  0  0  0  0  0
   24.5755    1.2322   21.0899 C   0  0  0  0  0  0  0  0  0  0  0  0
   27.0907    0.8072   22.1558 C   0  0  0  0  0  0  0  0  0  0  0  0
   25.1860   -0.0084   20.9638 C   0  0  0  0  0  0  0  0  0  0  0  0
   26.4417   -0.2216   21.4960 C   0  0  0  0  0  0  0  0  0  0  0  0
 34 36  2  0  0  0
 34 33  1  0  0  0
 36 38  1  0  0  0
 38 37  2  0  0  0
 35 37  1  0  0  0
 33 35  2  0  0  0
 32 33  1  0  0  0
 25 32  1  0  0  0
 26 25  1  0  0  0
 26 28  1  0  0  0
 28 29  2  0  0  0
 30 28  2  0  0  0
 31 28  1  0  0  0
  1  3  1  0  0  0
  1 25  1  0  0  0
  2  1  2  0  0  0
  3  7  1  0  0  0
  6  7  1  0  0  0
  5  6  1  0  0  0
  4  5  1  0  0  0
  4  3  1  0  0  0
  8  4  1  0  0  0
  8  9  2  0  0  0
 10  8  1  0  0  0
 12 10  1  0  0  0
 13 12  1  0  0  0
 13 18  1  0  0  0
 14 13  1  0  0  0
 15 14  1  0  0  0
 15 16  1  0  0  0
 16 17  1  0  0  0
 17 18  1  0  0  0
 19 16  1  0  0  0
 19 20  1  0  0  0
 21 19  2  0  0  0
 26 27  1  0  0  0
 10 11  1  0  0  0
 20 22  1  0  0  0
 20 23  1  0  0  0
 21 24  1  0  0  0
M  END
> <minimizedAffinity>
-6.97770

$$$$
