1PDZ_PGA_A_439


 12 11  0  0  0  0  0  0  0  0999 V2000
   28.6548   70.6442   10.1007 P   0  0  0  0  0  0  0  0  0  0  0  0
   30.0091   70.0951    9.9824 O   0  0  0  0  0  0  0  0  0  0  0  0
   27.5185   69.6696   10.2164 O   0  0  0  0  0  0  0  0  0  0  0  0
   28.3848   71.7558    9.1710 O   0  0  0  0  0  0  0  0  0  0  0  0
   27.7581   68.9661   10.8398 H   0  0  0  0  0  0  0  0  0  0  0  0
   29.1535   72.3467    9.1414 H   0  0  0  0  0  0  0  0  0  0  0  0
   28.7068   71.2937   11.5570 O   0  0  0  0  0  0  0  0  0  0  0  0
   28.1466   72.5689   11.7134 C   0  0  0  0  0  0  0  0  0  0  0  0
   29.1970   73.5958   12.0531 C   0  0  0  0  0  0  0  0  0  0  0  0
   30.2930   73.1883   12.4989 O   0  0  0  0  0  0  0  0  0  0  0  0
   28.9521   74.8042   11.8190 O   0  0  0  0  0  0  0  0  0  0  0  0
   28.1136   75.0562   11.4851 H   0  0  0  0  0  0  0  0  0  0  0  0
  1  7  1  0  0  0
  1  2  2  0  0  0
  1  3  1  0  0  0
  1  4  1  0  0  0
  7  8  1  0  0  0
  8  9  1  0  0  0
  9 10  2  0  0  0
  9 11  1  0  0  0
  3  5  1  0  0  0
  4  6  1  0  0  0
 11 12  1  0  0  0
M  END
> <minimizedAffinity>
-6.05776

$$$$
1PDZ_PGA_A_439


 12 11  0  0  0  0  0  0  0  0999 V2000
   29.2884   73.4857   12.6472 P   0  0  0  0  0  0  0  0  0  0  0  0
   30.6575   72.9616   12.6319 O   0  0  0  0  0  0  0  0  0  0  0  0
   28.9438   74.5561   11.6523 O   0  0  0  0  0  0  0  0  0  0  0  0
   28.7736   73.7537   14.0023 O   0  0  0  0  0  0  0  0  0  0  0  0
   29.3093   74.3212   10.7850 H   0  0  0  0  0  0  0  0  0  0  0  0
   29.0287   73.0289   14.5944 H   0  0  0  0  0  0  0  0  0  0  0  0
   28.4665   72.2296   12.1068 O   0  0  0  0  0  0  0  0  0  0  0  0
   29.1464   71.3213   11.2838 C   0  0  0  0  0  0  0  0  0  0  0  0
   28.3165   70.9326   10.0865 C   0  0  0  0  0  0  0  0  0  0  0  0
   28.2858   71.7192    9.1138 O   0  0  0  0  0  0  0  0  0  0  0  0
   27.7437   69.8159   10.0910 O   0  0  0  0  0  0  0  0  0  0  0  0
   27.7982   69.2644   10.8466 H   0  0  0  0  0  0  0  0  0  0  0  0
  1  7  1  0  0  0
  1  2  2  0  0  0
  1  3  1  0  0  0
  1  4  1  0  0  0
  7  8  1  0  0  0
  8  9  1  0  0  0
  9 10  2  0  0  0
  9 11  1  0  0  0
  3  5  1  0  0  0
  4  6  1  0  0  0
 11 12  1  0  0  0
M  END
> <minimizedAffinity>
-6.03102

$$$$
1PDZ_PGA_A_439


 12 11  0  0  0  0  0  0  0  0999 V2000
   30.7047   69.9181   12.9902 P   0  0  0  0  0  0  0  0  0  0  0  0
   31.3839   68.6199   12.9376 O   0  0  0  0  0  0  0  0  0  0  0  0
   31.4368   71.1073   12.4384 O   0  0  0  0  0  0  0  0  0  0  0  0
   30.0362   70.1834   14.2770 O   0  0  0  0  0  0  0  0  0  0  0  0
   31.8526   70.8683   11.5952 H   0  0  0  0  0  0  0  0  0  0  0  0
   29.5839   69.3798   14.5781 H   0  0  0  0  0  0  0  0  0  0  0  0
   29.5362   69.7031   11.9255 O   0  0  0  0  0  0  0  0  0  0  0  0
   29.7138   70.2631   10.6530 C   0  0  0  0  0  0  0  0  0  0  0  0
   28.3959   70.6483   10.0302 C   0  0  0  0  0  0  0  0  0  0  0  0
   28.3424   71.7199    9.3863 O   0  0  0  0  0  0  0  0  0  0  0  0
   27.4297   69.8536   10.1315 O   0  0  0  0  0  0  0  0  0  0  0  0
   27.5230   69.0634   10.6264 H   0  0  0  0  0  0  0  0  0  0  0  0
  1  7  1  0  0  0
  1  2  2  0  0  0
  1  3  1  0  0  0
  1  4  1  0  0  0
  7  8  1  0  0  0
  8  9  1  0  0  0
  9 10  2  0  0  0
  9 11  1  0  0  0
  3  5  1  0  0  0
  4  6  1  0  0  0
 11 12  1  0  0  0
M  END
> <minimizedAffinity>
-5.68291

$$$$
1PDZ_PGA_A_439


 12 11  0  0  0  0  0  0  0  0999 V2000
   28.8380   72.8887   12.1052 P   0  0  0  0  0  0  0  0  0  0  0  0
   27.7743   72.1922   11.3752 O   0  0  0  0  0  0  0  0  0  0  0  0
   28.7733   72.8763   13.6052 O   0  0  0  0  0  0  0  0  0  0  0  0
   29.1750   74.2084   11.5413 O   0  0  0  0  0  0  0  0  0  0  0  0
   28.5485   71.9839   13.9118 H   0  0  0  0  0  0  0  0  0  0  0  0
   29.2008   74.1494   10.5734 H   0  0  0  0  0  0  0  0  0  0  0  0
   30.0917   71.9497   11.8024 O   0  0  0  0  0  0  0  0  0  0  0  0
   29.8482   70.5768   11.6603 C   0  0  0  0  0  0  0  0  0  0  0  0
   30.3948   69.7951   12.8280 C   0  0  0  0  0  0  0  0  0  0  0  0
   29.8618   69.9635   13.9475 O   0  0  0  0  0  0  0  0  0  0  0  0
   31.3157   68.9686   12.6179 O   0  0  0  0  0  0  0  0  0  0  0  0
   31.6806   68.8819   11.7592 H   0  0  0  0  0  0  0  0  0  0  0  0
  1  7  1  0  0  0
  1  2  2  0  0  0
  1  3  1  0  0  0
  1  4  1  0  0  0
  7  8  1  0  0  0
  8  9  1  0  0  0
  9 10  2  0  0  0
  9 11  1  0  0  0
  3  5  1  0  0  0
  4  6  1  0  0  0
 11 12  1  0  0  0
M  END
> <minimizedAffinity>
-5.56415

$$$$
1PDZ_PGA_A_439


 12 11  0  0  0  0  0  0  0  0999 V2000
   30.9445   70.4730   12.4523 P   0  0  0  0  0  0  0  0  0  0  0  0
   30.7666   70.2393   11.0159 O   0  0  0  0  0  0  0  0  0  0  0  0
   32.0130   71.4413   12.8708 O   0  0  0  0  0  0  0  0  0  0  0  0
   30.9191   69.2395   13.2591 O   0  0  0  0  0  0  0  0  0  0  0  0
   31.9768   72.2276   12.3039 H   0  0  0  0  0  0  0  0  0  0  0  0
   30.2105   68.6589   12.9399 H   0  0  0  0  0  0  0  0  0  0  0  0
   29.6027   71.2583   12.8099 O   0  0  0  0  0  0  0  0  0  0  0  0
   29.4126   72.5126   12.2140 C   0  0  0  0  0  0  0  0  0  0  0  0
   28.1640   72.5391   11.3692 C   0  0  0  0  0  0  0  0  0  0  0  0
   28.2444   72.1264   10.1906 O   0  0  0  0  0  0  0  0  0  0  0  0
   27.0898   72.9148   11.8985 O   0  0  0  0  0  0  0  0  0  0  0  0
   27.0848   73.2154   12.7859 H   0  0  0  0  0  0  0  0  0  0  0  0
  1  7  1  0  0  0
  1  2  2  0  0  0
  1  3  1  0  0  0
  1  4  1  0  0  0
  7  8  1  0  0  0
  8  9  1  0  0  0
  9 10  2  0  0  0
  9 11  1  0  0  0
  3  5  1  0  0  0
  4  6  1  0  0  0
 11 12  1  0  0  0
M  END
> <minimizedAffinity>
-5.47252

$$$$
1PDZ_PGA_A_439


 12 11  0  0  0  0  0  0  0  0999 V2000
   29.8820   73.8632   13.8525 P   0  0  0  0  0  0  0  0  0  0  0  0
   29.8449   73.7365   15.3126 O   0  0  0  0  0  0  0  0  0  0  0  0
   31.2210   73.7617   13.1808 O   0  0  0  0  0  0  0  0  0  0  0  0
   29.0444   74.9596   13.3332 O   0  0  0  0  0  0  0  0  0  0  0  0
   31.7208   73.0249   13.5658 H   0  0  0  0  0  0  0  0  0  0  0  0
   28.1975   74.9713   13.8059 H   0  0  0  0  0  0  0  0  0  0  0  0
   29.1630   72.5119   13.4030 O   0  0  0  0  0  0  0  0  0  0  0  0
   29.3555   72.0894   12.0805 C   0  0  0  0  0  0  0  0  0  0  0  0
   28.1387   72.3588   11.2319 C   0  0  0  0  0  0  0  0  0  0  0  0
   28.1515   71.9616   10.0454 O   0  0  0  0  0  0  0  0  0  0  0  0
   27.1466   72.9127   11.7649 O   0  0  0  0  0  0  0  0  0  0  0  0
   27.1897   73.1918   12.6584 H   0  0  0  0  0  0  0  0  0  0  0  0
  1  7  1  0  0  0
  1  2  2  0  0  0
  1  3  1  0  0  0
  1  4  1  0  0  0
  7  8  1  0  0  0
  8  9  1  0  0  0
  9 10  2  0  0  0
  9 11  1  0  0  0
  3  5  1  0  0  0
  4  6  1  0  0  0
 11 12  1  0  0  0
M  END
> <minimizedAffinity>
-5.35641

$$$$
1PDZ_PGA_A_439


 12 11  0  0  0  0  0  0  0  0999 V2000
   28.5224   73.0550   11.8746 P   0  0  0  0  0  0  0  0  0  0  0  0
   29.1881   72.3254   12.9581 O   0  0  0  0  0  0  0  0  0  0  0  0
   28.9745   74.4611   11.6045 O   0  0  0  0  0  0  0  0  0  0  0  0
   27.0568   72.8964   11.8689 O   0  0  0  0  0  0  0  0  0  0  0  0
   29.9436   74.4981   11.6219 H   0  0  0  0  0  0  0  0  0  0  0  0
   26.8311   71.9703   12.0486 H   0  0  0  0  0  0  0  0  0  0  0  0
   29.0535   72.2659   10.5938 O   0  0  0  0  0  0  0  0  0  0  0  0
   29.7297   71.0585   10.8162 C   0  0  0  0  0  0  0  0  0  0  0  0
   28.7756   69.8922   10.8667 C   0  0  0  0  0  0  0  0  0  0  0  0
   28.9100   69.0643   11.7953 O   0  0  0  0  0  0  0  0  0  0  0  0
   27.8545   69.8337   10.0161 O   0  0  0  0  0  0  0  0  0  0  0  0
   27.7994   70.4802    9.3401 H   0  0  0  0  0  0  0  0  0  0  0  0
  1  7  1  0  0  0
  1  2  2  0  0  0
  1  3  1  0  0  0
  1  4  1  0  0  0
  7  8  1  0  0  0
  8  9  1  0  0  0
  9 10  2  0  0  0
  9 11  1  0  0  0
  3  5  1  0  0  0
  4  6  1  0  0  0
 11 12  1  0  0  0
M  END
> <minimizedAffinity>
-5.24586

$$$$
1PDZ_PGA_A_439


 12 11  0  0  0  0  0  0  0  0999 V2000
   31.1689   70.0260   13.1102 P   0  0  0  0  0  0  0  0  0  0  0  0
   31.3512   68.6012   12.8169 O   0  0  0  0  0  0  0  0  0  0  0  0
   31.9581   71.0090   12.2946 O   0  0  0  0  0  0  0  0  0  0  0  0
   31.1533   70.3351   14.5515 O   0  0  0  0  0  0  0  0  0  0  0  0
   31.9292   70.7507   11.3600 H   0  0  0  0  0  0  0  0  0  0  0  0
   30.6297   69.6663   15.0200 H   0  0  0  0  0  0  0  0  0  0  0  0
   29.6777   70.2631   12.5950 O   0  0  0  0  0  0  0  0  0  0  0  0
   29.4996   71.1529   11.5269 C   0  0  0  0  0  0  0  0  0  0  0  0
   29.0700   72.5154   12.0089 C   0  0  0  0  0  0  0  0  0  0  0  0
   29.9597   73.3679   12.2268 O   0  0  0  0  0  0  0  0  0  0  0  0
   27.8424   72.7553   12.1125 O   0  0  0  0  0  0  0  0  0  0  0  0
   27.2167   72.0801   11.9376 H   0  0  0  0  0  0  0  0  0  0  0  0
  1  7  1  0  0  0
  1  2  2  0  0  0
  1  3  1  0  0  0
  1  4  1  0  0  0
  7  8  1  0  0  0
  8  9  1  0  0  0
  9 10  2  0  0  0
  9 11  1  0  0  0
  3  5  1  0  0  0
  4  6  1  0  0  0
 11 12  1  0  0  0
M  END
> <minimizedAffinity>
-5.05642

$$$$
1PDZ_PGA_A_439


 12 11  0  0  0  0  0  0  0  0999 V2000
   30.6755   70.4243   12.3522 P   0  0  0  0  0  0  0  0  0  0  0  0
   30.5535   69.3891   13.3832 O   0  0  0  0  0  0  0  0  0  0  0  0
   30.5008   70.0030   10.9217 O   0  0  0  0  0  0  0  0  0  0  0  0
   31.8144   71.3362   12.5626 O   0  0  0  0  0  0  0  0  0  0  0  0
   29.7388   69.4070   10.8508 H   0  0  0  0  0  0  0  0  0  0  0  0
   31.8725   71.5697   13.5023 H   0  0  0  0  0  0  0  0  0  0  0  0
   29.3640   71.2914   12.6230 O   0  0  0  0  0  0  0  0  0  0  0  0
   29.0836   72.3316   11.7264 C   0  0  0  0  0  0  0  0  0  0  0  0
   29.2939   73.6818   12.3637 C   0  0  0  0  0  0  0  0  0  0  0  0
   29.9603   73.7336   13.4215 O   0  0  0  0  0  0  0  0  0  0  0  0
   28.8463   74.6976   11.7780 O   0  0  0  0  0  0  0  0  0  0  0  0
   28.3524   74.6029   10.9873 H   0  0  0  0  0  0  0  0  0  0  0  0
  1  7  1  0  0  0
  1  2  2  0  0  0
  1  3  1  0  0  0
  1  4  1  0  0  0
  7  8  1  0  0  0
  8  9  1  0  0  0
  9 10  2  0  0  0
  9 11  1  0  0  0
  3  5  1  0  0  0
  4  6  1  0  0  0
 11 12  1  0  0  0
M  END
> <minimizedAffinity>
-4.96827

$$$$
1PDZ_PGA_A_439


 12 11  0  0  0  0  0  0  0  0999 V2000
   29.1947   73.3047   12.1467 P   0  0  0  0  0  0  0  0  0  0  0  0
   29.1487   72.3847   11.0061 O   0  0  0  0  0  0  0  0  0  0  0  0
   28.4939   72.8842   13.4063 O   0  0  0  0  0  0  0  0  0  0  0  0
   28.9533   74.7121   11.7805 O   0  0  0  0  0  0  0  0  0  0  0  0
   28.6923   71.9528   13.5911 H   0  0  0  0  0  0  0  0  0  0  0  0
   29.4312   74.9198   10.9623 H   0  0  0  0  0  0  0  0  0  0  0  0
   30.7336   73.2166   12.5577 O   0  0  0  0  0  0  0  0  0  0  0  0
   31.0493   73.3924   13.9120 C   0  0  0  0  0  0  0  0  0  0  0  0
   32.4773   73.8415   14.0924 C   0  0  0  0  0  0  0  0  0  0  0  0
   33.3220   73.4628   13.2505 O   0  0  0  0  0  0  0  0  0  0  0  0
   32.7457   74.6206   15.0390 O   0  0  0  0  0  0  0  0  0  0  0  0
   32.0750   74.8732   15.6426 H   0  0  0  0  0  0  0  0  0  0  0  0
  1  7  1  0  0  0
  1  2  2  0  0  0
  1  3  1  0  0  0
  1  4  1  0  0  0
  7  8  1  0  0  0
  8  9  1  0  0  0
  9 10  2  0  0  0
  9 11  1  0  0  0
  3  5  1  0  0  0
  4  6  1  0  0  0
 11 12  1  0  0  0
M  END
> <minimizedAffinity>
-4.89948

$$$$
