2JDM_MFU_B_1117


 15 15  0  0  0  0  0  0  0  0999 V2000
   12.3387    4.9214   -3.4886 C   0  0  0  0  0  0  0  0  0  0  0  0
   10.9933    4.6824   -2.7720 C   0  0  0  0  0  0  0  0  0  0  0  0
   10.2410    3.5345   -3.4388 C   0  0  0  0  0  0  0  0  0  0  0  0
   11.1392    2.3065   -3.5879 C   0  0  0  0  0  0  0  0  0  0  0  0
   12.4966    2.6316   -4.2251 C   0  0  0  0  0  0  0  0  0  0  0  0
   13.4121    1.4052   -4.2866 C   0  0  0  0  0  0  0  0  0  0  0  0
   10.1208    5.8439   -2.7058 O   0  0  0  0  0  0  0  0  0  0  0  0
    9.1316    3.1468   -2.6167 O   0  0  0  0  0  0  0  0  0  0  0  0
   11.3538    1.7449   -2.2794 O   0  0  0  0  0  0  0  0  0  0  0  0
   13.1231    3.7072   -3.5110 O   0  0  0  0  0  0  0  0  0  0  0  0
    9.8549    6.1001   -3.6028 H   0  0  0  0  0  0  0  0  0  0  0  0
    9.4579    2.8457   -1.7543 H   0  0  0  0  0  0  0  0  0  0  0  0
   11.8010    2.3967   -1.7172 H   0  0  0  0  0  0  0  0  0  0  0  0
   12.0798    5.3613   -4.8346 O   0  0  0  0  0  0  0  0  0  0  0  0
   12.6070    6.6563   -5.1621 C   0  0  0  0  0  0  0  0  0  0  0  0
  1  2  1  0  0  0
  1 14  1  0  0  0
  1 10  1  0  0  0
  2  3  1  0  0  0
  2  7  1  0  0  0
  3  4  1  0  0  0
  3  8  1  0  0  0
  4  5  1  0  0  0
  4  9  1  0  0  0
  5  6  1  0  0  0
  5 10  1  0  0  0
 14 15  1  0  0  0
  7 11  1  0  0  0
  8 12  1  0  0  0
  9 13  1  0  0  0
M  END
> <minimizedAffinity>
-6.66692

$$$$
2JDM_MFU_B_1117


 15 15  0  0  0  0  0  0  0  0999 V2000
   11.0285    2.9404   -5.6888 C   0  0  0  0  0  0  0  0  0  0  0  0
   10.9550    1.9235   -4.5306 C   0  0  0  0  0  0  0  0  0  0  0  0
   11.4263    2.5728   -3.2326 C   0  0  0  0  0  0  0  0  0  0  0  0
   10.7083    3.9011   -2.9942 C   0  0  0  0  0  0  0  0  0  0  0  0
   10.7420    4.8276   -4.2168 C   0  0  0  0  0  0  0  0  0  0  0  0
    9.9450    6.1149   -3.9857 C   0  0  0  0  0  0  0  0  0  0  0  0
   11.7059    0.6968   -4.7452 O   0  0  0  0  0  0  0  0  0  0  0  0
   11.1078    1.7180   -2.1259 O   0  0  0  0  0  0  0  0  0  0  0  0
    9.3381    3.6168   -2.6545 O   0  0  0  0  0  0  0  0  0  0  0  0
   10.2622    4.1247   -5.3722 O   0  0  0  0  0  0  0  0  0  0  0  0
   12.6520    0.9027   -4.8034 H   0  0  0  0  0  0  0  0  0  0  0  0
   10.1471    1.5925   -2.0803 H   0  0  0  0  0  0  0  0  0  0  0  0
    8.9109    3.1552   -3.3930 H   0  0  0  0  0  0  0  0  0  0  0  0
   12.4057    3.2945   -5.9135 O   0  0  0  0  0  0  0  0  0  0  0  0
   12.8642    3.1228   -7.2634 C   0  0  0  0  0  0  0  0  0  0  0  0
  1  2  1  0  0  0
  1 14  1  0  0  0
  1 10  1  0  0  0
  2  3  1  0  0  0
  2  7  1  0  0  0
  3  4  1  0  0  0
  3  8  1  0  0  0
  4  5  1  0  0  0
  4  9  1  0  0  0
  5  6  1  0  0  0
  5 10  1  0  0  0
 14 15  1  0  0  0
  7 11  1  0  0  0
  8 12  1  0  0  0
  9 13  1  0  0  0
M  END
> <minimizedAffinity>
-5.61782

$$$$
2JDM_MFU_B_1117


 15 15  0  0  0  0  0  0  0  0999 V2000
   12.1231    2.6291   -4.9184 C   0  0  0  0  0  0  0  0  0  0  0  0
   10.7207    2.4555   -4.2990 C   0  0  0  0  0  0  0  0  0  0  0  0
   10.6203    3.2479   -2.9989 C   0  0  0  0  0  0  0  0  0  0  0  0
   11.0805    4.6914   -3.2022 C   0  0  0  0  0  0  0  0  0  0  0  0
   12.4409    4.7928   -3.9045 C   0  0  0  0  0  0  0  0  0  0  0  0
   12.8425    6.2459   -4.1745 C   0  0  0  0  0  0  0  0  0  0  0  0
   10.3308    1.0779   -4.0441 O   0  0  0  0  0  0  0  0  0  0  0  0
    9.2518    3.2988   -2.5729 O   0  0  0  0  0  0  0  0  0  0  0  0
   10.0884    5.3724   -3.9932 O   0  0  0  0  0  0  0  0  0  0  0  0
   12.4179    4.0300   -5.1198 O   0  0  0  0  0  0  0  0  0  0  0  0
   10.9202    0.6933   -3.3766 H   0  0  0  0  0  0  0  0  0  0  0  0
    8.7186    3.7434   -3.2504 H   0  0  0  0  0  0  0  0  0  0  0  0
   10.0125    4.9405   -4.8584 H   0  0  0  0  0  0  0  0  0  0  0  0
   13.0995    2.0458   -4.0359 O   0  0  0  0  0  0  0  0  0  0  0  0
   13.7530    0.8725   -4.5440 C   0  0  0  0  0  0  0  0  0  0  0  0
  1  2  1  0  0  0
  1 14  1  0  0  0
  1 10  1  0  0  0
  2  3  1  0  0  0
  2  7  1  0  0  0
  3  4  1  0  0  0
  3  8  1  0  0  0
  4  5  1  0  0  0
  4  9  1  0  0  0
  5  6  1  0  0  0
  5 10  1  0  0  0
 14 15  1  0  0  0
  7 11  1  0  0  0
  8 12  1  0  0  0
  9 13  1  0  0  0
M  END
> <minimizedAffinity>
-5.61444

$$$$
2JDM_MFU_B_1117


 15 15  0  0  0  0  0  0  0  0999 V2000
   11.2144    2.9509   -4.4661 C   0  0  0  0  0  0  0  0  0  0  0  0
   10.1865    3.7851   -3.6735 C   0  0  0  0  0  0  0  0  0  0  0  0
   10.8612    5.0147   -3.0725 C   0  0  0  0  0  0  0  0  0  0  0  0
   11.6544    5.7762   -4.1345 C   0  0  0  0  0  0  0  0  0  0  0  0
   12.5903    4.8710   -4.9463 C   0  0  0  0  0  0  0  0  0  0  0  0
   13.3105    5.6380   -6.0593 C   0  0  0  0  0  0  0  0  0  0  0  0
    9.4955    3.0619   -2.6179 O   0  0  0  0  0  0  0  0  0  0  0  0
    9.8619    5.9122   -2.5699 O   0  0  0  0  0  0  0  0  0  0  0  0
   10.7183    6.4094   -5.0268 O   0  0  0  0  0  0  0  0  0  0  0  0
   11.8517    3.7620   -5.4790 O   0  0  0  0  0  0  0  0  0  0  0  0
   10.1343    2.7902   -1.9404 H   0  0  0  0  0  0  0  0  0  0  0  0
    9.2874    6.1969   -3.2978 H   0  0  0  0  0  0  0  0  0  0  0  0
   10.1776    5.7319   -5.4621 H   0  0  0  0  0  0  0  0  0  0  0  0
   12.2044    2.4397   -3.5545 O   0  0  0  0  0  0  0  0  0  0  0  0
   12.9818    1.3415   -4.0559 C   0  0  0  0  0  0  0  0  0  0  0  0
  1  2  1  0  0  0
  1 14  1  0  0  0
  1 10  1  0  0  0
  2  3  1  0  0  0
  2  7  1  0  0  0
  3  4  1  0  0  0
  3  8  1  0  0  0
  4  5  1  0  0  0
  4  9  1  0  0  0
  5  6  1  0  0  0
  5 10  1  0  0  0
 14 15  1  0  0  0
  7 11  1  0  0  0
  8 12  1  0  0  0
  9 13  1  0  0  0
M  END
> <minimizedAffinity>
-5.44383

$$$$
2JDM_MFU_B_1117


 15 15  0  0  0  0  0  0  0  0999 V2000
   11.0019    3.4973   -4.9935 C   0  0  0  0  0  0  0  0  0  0  0  0
   10.2228    4.0720   -3.7921 C   0  0  0  0  0  0  0  0  0  0  0  0
   10.6089    5.5309   -3.5665 C   0  0  0  0  0  0  0  0  0  0  0  0
   10.5067    6.3301   -4.8656 C   0  0  0  0  0  0  0  0  0  0  0  0
   11.2272    5.6566   -6.0410 C   0  0  0  0  0  0  0  0  0  0  0  0
   11.0403    6.4296   -7.3499 C   0  0  0  0  0  0  0  0  0  0  0  0
   10.3920    3.3404   -2.5468 O   0  0  0  0  0  0  0  0  0  0  0  0
    9.6995    6.1285   -2.6323 O   0  0  0  0  0  0  0  0  0  0  0  0
    9.1123    6.4827   -5.1910 O   0  0  0  0  0  0  0  0  0  0  0  0
   10.7767    4.3007   -6.1741 O   0  0  0  0  0  0  0  0  0  0  0  0
   11.3175    3.3968   -2.2618 H   0  0  0  0  0  0  0  0  0  0  0  0
    8.7993    6.0969   -2.9921 H   0  0  0  0  0  0  0  0  0  0  0  0
    8.7143    5.6085   -5.3261 H   0  0  0  0  0  0  0  0  0  0  0  0
   12.4057    3.4790   -4.6748 O   0  0  0  0  0  0  0  0  0  0  0  0
   12.9772    2.1702   -4.5253 C   0  0  0  0  0  0  0  0  0  0  0  0
  1  2  1  0  0  0
  1 14  1  0  0  0
  1 10  1  0  0  0
  2  3  1  0  0  0
  2  7  1  0  0  0
  3  4  1  0  0  0
  3  8  1  0  0  0
  4  5  1  0  0  0
  4  9  1  0  0  0
  5  6  1  0  0  0
  5 10  1  0  0  0
 14 15  1  0  0  0
  7 11  1  0  0  0
  8 12  1  0  0  0
  9 13  1  0  0  0
M  END
> <minimizedAffinity>
-5.27647

$$$$
2JDM_MFU_B_1117


 15 15  0  0  0  0  0  0  0  0999 V2000
   11.4437    4.9883   -4.6778 C   0  0  0  0  0  0  0  0  0  0  0  0
   11.3061    4.3597   -3.2754 C   0  0  0  0  0  0  0  0  0  0  0  0
   10.8764    2.9005   -3.3951 C   0  0  0  0  0  0  0  0  0  0  0  0
   11.7751    2.1450   -4.3741 C   0  0  0  0  0  0  0  0  0  0  0  0
   11.9414    2.8705   -5.7159 C   0  0  0  0  0  0  0  0  0  0  0  0
   12.9121    2.1402   -6.6487 C   0  0  0  0  0  0  0  0  0  0  0  0
   10.3893    5.0506   -2.3827 O   0  0  0  0  0  0  0  0  0  0  0  0
   11.0077    2.2560   -2.1206 O   0  0  0  0  0  0  0  0  0  0  0  0
   13.0683    1.9808   -3.7624 O   0  0  0  0  0  0  0  0  0  0  0  0
   12.3644    4.2226   -5.4877 O   0  0  0  0  0  0  0  0  0  0  0  0
    9.4892    4.9996   -2.7409 H   0  0  0  0  0  0  0  0  0  0  0  0
   11.9350    2.2852   -1.8375 H   0  0  0  0  0  0  0  0  0  0  0  0
   13.4558    2.8525   -3.5864 H   0  0  0  0  0  0  0  0  0  0  0  0
   10.1486    5.0187   -5.3057 O   0  0  0  0  0  0  0  0  0  0  0  0
    9.6589    6.3305   -5.6239 C   0  0  0  0  0  0  0  0  0  0  0  0
  1  2  1  0  0  0
  1 14  1  0  0  0
  1 10  1  0  0  0
  2  3  1  0  0  0
  2  7  1  0  0  0
  3  4  1  0  0  0
  3  8  1  0  0  0
  4  5  1  0  0  0
  4  9  1  0  0  0
  5  6  1  0  0  0
  5 10  1  0  0  0
 14 15  1  0  0  0
  7 11  1  0  0  0
  8 12  1  0  0  0
  9 13  1  0  0  0
M  END
> <minimizedAffinity>
-5.21145

$$$$
2JDM_MFU_B_1117


 15 15  0  0  0  0  0  0  0  0999 V2000
   10.8301    5.0998   -6.0734 C   0  0  0  0  0  0  0  0  0  0  0  0
   10.3171    5.9405   -4.8857 C   0  0  0  0  0  0  0  0  0  0  0  0
   10.1145    5.0509   -3.6627 C   0  0  0  0  0  0  0  0  0  0  0  0
   11.3598    4.2078   -3.3883 C   0  0  0  0  0  0  0  0  0  0  0  0
   11.8693    3.4698   -4.6333 C   0  0  0  0  0  0  0  0  0  0  0  0
   13.1645    2.7006   -4.3568 C   0  0  0  0  0  0  0  0  0  0  0  0
    9.0899    6.6772   -5.1426 O   0  0  0  0  0  0  0  0  0  0  0  0
    9.8974    5.8694   -2.5052 O   0  0  0  0  0  0  0  0  0  0  0  0
   12.3953    5.0810   -2.8998 O   0  0  0  0  0  0  0  0  0  0  0  0
   12.0424    4.4000   -5.7122 O   0  0  0  0  0  0  0  0  0  0  0  0
    8.3657    6.0526   -5.3049 H   0  0  0  0  0  0  0  0  0  0  0  0
   10.6739    6.4313   -2.3562 H   0  0  0  0  0  0  0  0  0  0  0  0
   12.6055    5.7435   -3.5765 H   0  0  0  0  0  0  0  0  0  0  0  0
    9.8129    4.1533   -6.4502 O   0  0  0  0  0  0  0  0  0  0  0  0
    9.3026    4.3090   -7.7833 C   0  0  0  0  0  0  0  0  0  0  0  0
  1  2  1  0  0  0
  1 14  1  0  0  0
  1 10  1  0  0  0
  2  3  1  0  0  0
  2  7  1  0  0  0
  3  4  1  0  0  0
  3  8  1  0  0  0
  4  5  1  0  0  0
  4  9  1  0  0  0
  5  6  1  0  0  0
  5 10  1  0  0  0
 14 15  1  0  0  0
  7 11  1  0  0  0
  8 12  1  0  0  0
  9 13  1  0  0  0
M  END
> <minimizedAffinity>
-5.07100

$$$$
2JDM_MFU_B_1117


 15 15  0  0  0  0  0  0  0  0999 V2000
   12.5125    4.9282   -5.0946 C   0  0  0  0  0  0  0  0  0  0  0  0
   11.8630    5.7102   -3.9338 C   0  0  0  0  0  0  0  0  0  0  0  0
   10.4092    5.2802   -3.7611 C   0  0  0  0  0  0  0  0  0  0  0  0
   10.2958    3.7580   -3.6793 C   0  0  0  0  0  0  0  0  0  0  0  0
   11.0401    3.0405   -4.8132 C   0  0  0  0  0  0  0  0  0  0  0  0
   10.9854    1.5172   -4.6642 C   0  0  0  0  0  0  0  0  0  0  0  0
   11.9153    7.1574   -4.0664 O   0  0  0  0  0  0  0  0  0  0  0  0
    9.8967    5.8069   -2.5294 O   0  0  0  0  0  0  0  0  0  0  0  0
   10.8392    3.3339   -2.4150 O   0  0  0  0  0  0  0  0  0  0  0  0
   12.3967    3.5043   -4.8733 O   0  0  0  0  0  0  0  0  0  0  0  0
   11.3961    7.4302   -4.8390 H   0  0  0  0  0  0  0  0  0  0  0  0
   10.4149    5.4572   -1.7878 H   0  0  0  0  0  0  0  0  0  0  0  0
   11.7752    3.5839   -2.3652 H   0  0  0  0  0  0  0  0  0  0  0  0
   11.8563    5.2869   -6.3248 O   0  0  0  0  0  0  0  0  0  0  0  0
   12.7337    5.7090   -7.3802 C   0  0  0  0  0  0  0  0  0  0  0  0
  1  2  1  0  0  0
  1 14  1  0  0  0
  1 10  1  0  0  0
  2  3  1  0  0  0
  2  7  1  0  0  0
  3  4  1  0  0  0
  3  8  1  0  0  0
  4  5  1  0  0  0
  4  9  1  0  0  0
  5  6  1  0  0  0
  5 10  1  0  0  0
 14 15  1  0  0  0
  7 11  1  0  0  0
  8 12  1  0  0  0
  9 13  1  0  0  0
M  END
> <minimizedAffinity>
-4.80231

$$$$
2JDM_MFU_B_1117


 15 15  0  0  0  0  0  0  0  0999 V2000
   10.8737    3.3147   -5.9791 C   0  0  0  0  0  0  0  0  0  0  0  0
    9.8534    2.2381   -5.5539 C   0  0  0  0  0  0  0  0  0  0  0  0
   10.3077    1.5670   -4.2611 C   0  0  0  0  0  0  0  0  0  0  0  0
   10.6534    2.6088   -3.1972 C   0  0  0  0  0  0  0  0  0  0  0  0
   11.6005    3.7001   -3.7133 C   0  0  0  0  0  0  0  0  0  0  0  0
   11.8653    4.7785   -2.6586 C   0  0  0  0  0  0  0  0  0  0  0  0
    9.5936    1.2133   -6.5524 O   0  0  0  0  0  0  0  0  0  0  0  0
    9.2398    0.7671   -3.7352 O   0  0  0  0  0  0  0  0  0  0  0  0
    9.4280    3.2191   -2.7507 O   0  0  0  0  0  0  0  0  0  0  0  0
   11.0693    4.2748   -4.9162 O   0  0  0  0  0  0  0  0  0  0  0  0
   10.4038    0.7043   -6.7117 H   0  0  0  0  0  0  0  0  0  0  0  0
    8.4771    1.3338   -3.5403 H   0  0  0  0  0  0  0  0  0  0  0  0
    8.9965    3.6623   -3.4979 H   0  0  0  0  0  0  0  0  0  0  0  0
   12.1236    2.6748   -6.2964 O   0  0  0  0  0  0  0  0  0  0  0  0
   12.7368    3.1128   -7.5187 C   0  0  0  0  0  0  0  0  0  0  0  0
  1  2  1  0  0  0
  1 14  1  0  0  0
  1 10  1  0  0  0
  2  3  1  0  0  0
  2  7  1  0  0  0
  3  4  1  0  0  0
  3  8  1  0  0  0
  4  5  1  0  0  0
  4  9  1  0  0  0
  5  6  1  0  0  0
  5 10  1  0  0  0
 14 15  1  0  0  0
  7 11  1  0  0  0
  8 12  1  0  0  0
  9 13  1  0  0  0
M  END
> <minimizedAffinity>
-4.69858

$$$$
2JDM_MFU_B_1117


 15 15  0  0  0  0  0  0  0  0999 V2000
   12.9573    5.9877   -4.8038 C   0  0  0  0  0  0  0  0  0  0  0  0
   12.7976    4.8476   -3.7764 C   0  0  0  0  0  0  0  0  0  0  0  0
   11.4276    4.9309   -3.1099 C   0  0  0  0  0  0  0  0  0  0  0  0
   10.3175    5.0408   -4.1550 C   0  0  0  0  0  0  0  0  0  0  0  0
   10.5838    6.1337   -5.1985 C   0  0  0  0  0  0  0  0  0  0  0  0
    9.5033    6.1694   -6.2834 C   0  0  0  0  0  0  0  0  0  0  0  0
   13.8228    4.8049   -2.7459 O   0  0  0  0  0  0  0  0  0  0  0  0
   11.1844    3.7312   -2.3625 O   0  0  0  0  0  0  0  0  0  0  0  0
   10.2000    3.7698   -4.8215 O   0  0  0  0  0  0  0  0  0  0  0  0
   11.8857    5.9493   -5.7733 O   0  0  0  0  0  0  0  0  0  0  0  0
   13.7682    5.6063   -2.2021 H   0  0  0  0  0  0  0  0  0  0  0  0
   11.1928    2.9692   -2.9626 H   0  0  0  0  0  0  0  0  0  0  0  0
   11.0351    3.5608   -5.2687 H   0  0  0  0  0  0  0  0  0  0  0  0
   12.9433    7.2485   -4.1090 O   0  0  0  0  0  0  0  0  0  0  0  0
   14.0663    8.1021   -4.3776 C   0  0  0  0  0  0  0  0  0  0  0  0
  1  2  1  0  0  0
  1 14  1  0  0  0
  1 10  1  0  0  0
  2  3  1  0  0  0
  2  7  1  0  0  0
  3  4  1  0  0  0
  3  8  1  0  0  0
  4  5  1  0  0  0
  4  9  1  0  0  0
  5  6  1  0  0  0
  5 10  1  0  0  0
 14 15  1  0  0  0
  7 11  1  0  0  0
  8 12  1  0  0  0
  9 13  1  0  0  0
M  END
> <minimizedAffinity>
-4.44970

$$$$
