2HU6_37A_A_400


 31 34  0  0  0  0  0  0  0  0999 V2000
    1.1268   -5.0365    6.8386 O   0  0  0  0  0  0  0  0  0  0  0  0
    2.1108   -5.4521    6.2336 C   0  0  0  0  0  0  0  0  0  0  0  0
    3.2016   -5.9385    6.8287 N   0  0  0  0  0  0  0  0  0  0  0  0
    3.9401   -6.2472    6.2555 H   0  0  0  0  0  0  0  0  0  0  0  0
    2.1275   -5.4474    4.7265 C   0  0  0  0  0  0  0  0  0  0  0  0
    2.8611   -4.3371    4.1964 O   0  0  0  0  0  0  0  0  0  0  0  0
    0.7531   -5.2394    4.1172 C   0  0  0  0  0  0  0  0  0  0  0  0
    0.7538   -5.8282    2.7091 C   0  0  0  0  0  0  0  0  0  0  0  0
    1.8446   -5.1866    1.9430 N   0  0  0  0  0  0  0  0  0  0  0  0
    2.7306   -5.8482    1.1883 C   0  0  0  0  0  0  0  0  0  0  0  0
    3.1537   -5.3509    0.1508 O   0  0  0  0  0  0  0  0  0  0  0  0
    3.1532   -7.0565    1.5527 N   0  0  0  0  0  0  0  0  0  0  0  0
    4.0001   -7.7813    0.7107 O   0  0  0  0  0  0  0  0  0  0  0  0
    1.9544   -3.7303    2.0394 C   0  0  0  0  0  0  0  0  0  0  0  0
    0.6603   -3.8294    3.9840 O   0  0  0  0  0  0  0  0  0  0  0  0
    1.9482   -3.4507    3.5324 C   0  0  0  0  0  0  0  0  0  0  0  0
    2.8695   -7.4389    2.4144 H   0  0  0  0  0  0  0  0  0  0  0  0
    4.1799   -7.2642   -0.0900 H   0  0  0  0  0  0  0  0  0  0  0  0
    3.3697   -6.0418    8.2708 C   0  0  0  0  0  0  0  0  0  0  0  0
    4.7809   -6.5048    8.5965 C   0  0  0  0  0  0  0  0  0  0  0  0
    5.7727   -6.5621    7.6122 C   0  0  0  0  0  0  0  0  0  0  0  0
    7.0584   -6.9987    7.9373 C   0  0  0  0  0  0  0  0  0  0  0  0
    7.3753   -7.3845    9.2450 C   0  0  0  0  0  0  0  0  0  0  0  0
    6.3835   -7.3219   10.2246 C   0  0  0  0  0  0  0  0  0  0  0  0
    5.0974   -6.8952    9.8968 C   0  0  0  0  0  0  0  0  0  0  0  0
    8.7598   -7.8351    9.5971 C   0  0  0  0  0  0  0  0  0  0  0  0
    9.7689   -7.9233    8.6325 C   0  0  0  0  0  0  0  0  0  0  0  0
   11.0491   -8.3536    8.9864 C   0  0  0  0  0  0  0  0  0  0  0  0
    9.0476   -8.1946   10.9161 C   0  0  0  0  0  0  0  0  0  0  0  0
   10.3292   -8.6192   11.2736 C   0  0  0  0  0  0  0  0  0  0  0  0
   11.3316   -8.7002   10.3081 C   0  0  0  0  0  0  0  0  0  0  0  0
  1  2  2  0  0  0
  2  5  1  0  0  0
  2  3  1  0  0  0
  5  7  1  0  0  0
  5  6  1  0  0  0
  6 16  1  0  0  0
  7  8  1  0  0  0
  7 15  1  0  0  0
  8  9  1  0  0  0
  9 14  1  0  0  0
  9 10  1  0  0  0
 10 11  2  0  0  0
 10 12  1  0  0  0
 12 13  1  0  0  0
 14 16  1  0  0  0
 15 16  1  0  0  0
  3 19  1  0  0  0
 19 20  1  0  0  0
 20 25  1  0  0  0
 20 21  2  0  0  0
 21 22  1  0  0  0
 22 23  2  0  0  0
 23 24  1  0  0  0
 23 26  1  0  0  0
 24 25  2  0  0  0
 26 27  2  0  0  0
 26 29  1  0  0  0
 27 28  1  0  0  0
 28 31  2  0  0  0
 29 30  2  0  0  0
 30 31  1  0  0  0
 12 17  1  0  0  0
 13 18  1  0  0  0
  3  4  1  0  0  0
M  END
> <minimizedAffinity>
-11.40913

$$$$
2HU6_37A_A_400


 31 34  0  0  0  0  0  0  0  0999 V2000
    0.6891   -5.4198    6.1655 O   0  0  0  0  0  0  0  0  0  0  0  0
    1.7673   -5.7013    5.6504 C   0  0  0  0  0  0  0  0  0  0  0  0
    2.8883   -5.9212    6.3400 N   0  0  0  0  0  0  0  0  0  0  0  0
    3.7044   -6.1404    5.8348 H   0  0  0  0  0  0  0  0  0  0  0  0
    1.8767   -5.8332    4.1530 C   0  0  0  0  0  0  0  0  0  0  0  0
    2.4420   -4.6653    3.5462 O   0  0  0  0  0  0  0  0  0  0  0  0
    0.5276   -5.9270    3.4641 C   0  0  0  0  0  0  0  0  0  0  0  0
    0.7160   -6.6342    2.1249 C   0  0  0  0  0  0  0  0  0  0  0  0
    1.7273   -5.8848    1.3475 N   0  0  0  0  0  0  0  0  0  0  0  0
    2.7581   -6.4476    0.7049 C   0  0  0  0  0  0  0  0  0  0  0  0
    3.1541   -5.9819   -0.3576 O   0  0  0  0  0  0  0  0  0  0  0  0
    3.3568   -7.5240    1.2094 N   0  0  0  0  0  0  0  0  0  0  0  0
    4.3654   -8.1636    0.4848 O   0  0  0  0  0  0  0  0  0  0  0  0
    1.5812   -4.4293    1.2998 C   0  0  0  0  0  0  0  0  0  0  0  0
    0.2045   -4.5736    3.1839 O   0  0  0  0  0  0  0  0  0  0  0  0
    1.4347   -4.0182    2.7547 C   0  0  0  0  0  0  0  0  0  0  0  0
    3.0893   -7.8688    2.0918 H   0  0  0  0  0  0  0  0  0  0  0  0
    4.5040   -7.6993   -0.3555 H   0  0  0  0  0  0  0  0  0  0  0  0
    2.9821   -5.8578    7.7911 C   0  0  0  0  0  0  0  0  0  0  0  0
    4.3563   -6.3263    8.2429 C   0  0  0  0  0  0  0  0  0  0  0  0
    4.6242   -6.6044    9.5870 C   0  0  0  0  0  0  0  0  0  0  0  0
    5.8974   -7.0255    9.9753 C   0  0  0  0  0  0  0  0  0  0  0  0
    6.9216   -7.1753    9.0328 C   0  0  0  0  0  0  0  0  0  0  0  0
    6.6485   -6.9003    7.6923 C   0  0  0  0  0  0  0  0  0  0  0  0
    5.3795   -6.4704    7.3071 C   0  0  0  0  0  0  0  0  0  0  0  0
    8.2823   -7.6449    9.4474 C   0  0  0  0  0  0  0  0  0  0  0  0
    8.5617   -8.0040   10.7701 C   0  0  0  0  0  0  0  0  0  0  0  0
    9.8408   -8.4314   11.1311 C   0  0  0  0  0  0  0  0  0  0  0  0
    9.3033   -7.7085    8.4961 C   0  0  0  0  0  0  0  0  0  0  0  0
   10.5820   -8.1417    8.8537 C   0  0  0  0  0  0  0  0  0  0  0  0
   10.8524   -8.5028   10.1728 C   0  0  0  0  0  0  0  0  0  0  0  0
  1  2  2  0  0  0
  2  5  1  0  0  0
  2  3  1  0  0  0
  5  7  1  0  0  0
  5  6  1  0  0  0
  6 16  1  0  0  0
  7  8  1  0  0  0
  7 15  1  0  0  0
  8  9  1  0  0  0
  9 14  1  0  0  0
  9 10  1  0  0  0
 10 11  2  0  0  0
 10 12  1  0  0  0
 12 13  1  0  0  0
 14 16  1  0  0  0
 15 16  1  0  0  0
  3 19  1  0  0  0
 19 20  1  0  0  0
 20 25  1  0  0  0
 20 21  2  0  0  0
 21 22  1  0  0  0
 22 23  2  0  0  0
 23 24  1  0  0  0
 23 26  1  0  0  0
 24 25  2  0  0  0
 26 27  2  0  0  0
 26 29  1  0  0  0
 27 28  1  0  0  0
 28 31  2  0  0  0
 29 30  2  0  0  0
 30 31  1  0  0  0
 12 17  1  0  0  0
 13 18  1  0  0  0
  3  4  1  0  0  0
M  END
> <minimizedAffinity>
-11.21682

$$$$
2HU6_37A_A_400


 31 34  0  0  0  0  0  0  0  0999 V2000
    2.3450   -3.1926    5.3957 O   0  0  0  0  0  0  0  0  0  0  0  0
    2.2342   -4.3224    4.9284 C   0  0  0  0  0  0  0  0  0  0  0  0
    2.1625   -5.4312    5.6672 N   0  0  0  0  0  0  0  0  0  0  0  0
    2.0752   -6.2924    5.1982 H   0  0  0  0  0  0  0  0  0  0  0  0
    2.1542   -4.5171    3.4360 C   0  0  0  0  0  0  0  0  0  0  0  0
    1.0358   -3.8324    2.8597 O   0  0  0  0  0  0  0  0  0  0  0  0
    1.8844   -5.9565    3.0377 C   0  0  0  0  0  0  0  0  0  0  0  0
    2.4015   -6.1708    1.6178 C   0  0  0  0  0  0  0  0  0  0  0  0
    1.7474   -5.1796    0.7357 N   0  0  0  0  0  0  0  0  0  0  0  0
    2.3904   -4.4283   -0.1667 C   0  0  0  0  0  0  0  0  0  0  0  0
    1.8514   -4.1403   -1.2293 O   0  0  0  0  0  0  0  0  0  0  0  0
    3.6248   -3.9949    0.0776 N   0  0  0  0  0  0  0  0  0  0  0  0
    4.3256   -3.2963   -0.9086 O   0  0  0  0  0  0  0  0  0  0  0  0
    0.3007   -5.0141    0.8833 C   0  0  0  0  0  0  0  0  0  0  0  0
    0.4678   -6.0251    2.9848 O   0  0  0  0  0  0  0  0  0  0  0  0
    0.0964   -4.8026    2.3735 C   0  0  0  0  0  0  0  0  0  0  0  0
    4.0435   -4.1662    0.9520 H   0  0  0  0  0  0  0  0  0  0  0  0
    3.7731   -3.2153   -1.7017 H   0  0  0  0  0  0  0  0  0  0  0  0
    2.2051   -5.4493    7.1221 C   0  0  0  0  0  0  0  0  0  0  0  0
    3.5527   -5.9710    7.5950 C   0  0  0  0  0  0  0  0  0  0  0  0
    4.6392   -6.0762    6.7208 C   0  0  0  0  0  0  0  0  0  0  0  0
    5.8633   -6.5661    7.1798 C   0  0  0  0  0  0  0  0  0  0  0  0
    6.0237   -6.9586    8.5139 C   0  0  0  0  0  0  0  0  0  0  0  0
    4.9378   -6.8482    9.3834 C   0  0  0  0  0  0  0  0  0  0  0  0
    3.7132   -6.3681    8.9216 C   0  0  0  0  0  0  0  0  0  0  0  0
    7.3425   -7.4668    9.0103 C   0  0  0  0  0  0  0  0  0  0  0  0
    8.4800   -7.4689    8.1962 C   0  0  0  0  0  0  0  0  0  0  0  0
    9.6953   -7.9553    8.6816 C   0  0  0  0  0  0  0  0  0  0  0  0
    7.4368   -7.9685   10.3107 C   0  0  0  0  0  0  0  0  0  0  0  0
    8.6530   -8.4497   10.8004 C   0  0  0  0  0  0  0  0  0  0  0  0
    9.7840   -8.4445    9.9853 C   0  0  0  0  0  0  0  0  0  0  0  0
  1  2  2  0  0  0
  2  5  1  0  0  0
  2  3  1  0  0  0
  5  7  1  0  0  0
  5  6  1  0  0  0
  6 16  1  0  0  0
  7  8  1  0  0  0
  7 15  1  0  0  0
  8  9  1  0  0  0
  9 14  1  0  0  0
  9 10  1  0  0  0
 10 11  2  0  0  0
 10 12  1  0  0  0
 12 13  1  0  0  0
 14 16  1  0  0  0
 15 16  1  0  0  0
  3 19  1  0  0  0
 19 20  1  0  0  0
 20 25  1  0  0  0
 20 21  2  0  0  0
 21 22  1  0  0  0
 22 23  2  0  0  0
 23 24  1  0  0  0
 23 26  1  0  0  0
 24 25  2  0  0  0
 26 27  2  0  0  0
 26 29  1  0  0  0
 27 28  1  0  0  0
 28 31  2  0  0  0
 29 30  2  0  0  0
 30 31  1  0  0  0
 12 17  1  0  0  0
 13 18  1  0  0  0
  3  4  1  0  0  0
M  END
> <minimizedAffinity>
-10.44893

$$$$
2HU6_37A_A_400


 31 34  0  0  0  0  0  0  0  0999 V2000
    0.5257   -3.9490    4.3188 O   0  0  0  0  0  0  0  0  0  0  0  0
    0.7563   -5.1539    4.2746 C   0  0  0  0  0  0  0  0  0  0  0  0
    1.1589   -5.8750    5.3227 N   0  0  0  0  0  0  0  0  0  0  0  0
    1.3187   -6.8368    5.1861 H   0  0  0  0  0  0  0  0  0  0  0  0
    0.5722   -5.9106    2.9843 C   0  0  0  0  0  0  0  0  0  0  0  0
    0.9981   -7.2742    3.0905 O   0  0  0  0  0  0  0  0  0  0  0  0
    1.4493   -5.3912    1.8598 C   0  0  0  0  0  0  0  0  0  0  0  0
    0.8024   -5.7653    0.5291 C   0  0  0  0  0  0  0  0  0  0  0  0
    0.6157   -7.2326    0.5051 N   0  0  0  0  0  0  0  0  0  0  0  0
   -0.5155   -7.8461    0.1356 C   0  0  0  0  0  0  0  0  0  0  0  0
   -0.4730   -8.9153   -0.4623 O   0  0  0  0  0  0  0  0  0  0  0  0
   -1.6968   -7.2958    0.4060 N   0  0  0  0  0  0  0  0  0  0  0  0
   -2.8676   -7.8913   -0.0694 O   0  0  0  0  0  0  0  0  0  0  0  0
    1.7517   -8.0521    0.9295 C   0  0  0  0  0  0  0  0  0  0  0  0
    2.6352   -6.1611    1.9828 O   0  0  0  0  0  0  0  0  0  0  0  0
    2.1598   -7.4642    2.2692 C   0  0  0  0  0  0  0  0  0  0  0  0
   -1.7454   -6.4703    0.9403 H   0  0  0  0  0  0  0  0  0  0  0  0
   -2.6430   -8.6895   -0.5728 H   0  0  0  0  0  0  0  0  0  0  0  0
    1.3769   -5.3309    6.6551 C   0  0  0  0  0  0  0  0  0  0  0  0
    2.7260   -5.7876    7.1873 C   0  0  0  0  0  0  0  0  0  0  0  0
    3.8748   -5.7430    6.3910 C   0  0  0  0  0  0  0  0  0  0  0  0
    5.0995   -6.1761    6.9026 C   0  0  0  0  0  0  0  0  0  0  0  0
    5.1986   -6.6598    8.2125 C   0  0  0  0  0  0  0  0  0  0  0  0
    4.0504   -6.6988    9.0045 C   0  0  0  0  0  0  0  0  0  0  0  0
    2.8262   -6.2753    8.4894 C   0  0  0  0  0  0  0  0  0  0  0  0
    6.5164   -7.1070    8.7669 C   0  0  0  0  0  0  0  0  0  0  0  0
    7.6608   -7.1813    7.9659 C   0  0  0  0  0  0  0  0  0  0  0  0
    8.8750   -7.6086    8.5065 C   0  0  0  0  0  0  0  0  0  0  0  0
    6.6029   -7.4774   10.1111 C   0  0  0  0  0  0  0  0  0  0  0  0
    7.8179   -7.8991   10.6555 C   0  0  0  0  0  0  0  0  0  0  0  0
    8.9558   -7.9662    9.8527 C   0  0  0  0  0  0  0  0  0  0  0  0
  1  2  2  0  0  0
  2  5  1  0  0  0
  2  3  1  0  0  0
  5  7  1  0  0  0
  5  6  1  0  0  0
  6 16  1  0  0  0
  7  8  1  0  0  0
  7 15  1  0  0  0
  8  9  1  0  0  0
  9 14  1  0  0  0
  9 10  1  0  0  0
 10 11  2  0  0  0
 10 12  1  0  0  0
 12 13  1  0  0  0
 14 16  1  0  0  0
 15 16  1  0  0  0
  3 19  1  0  0  0
 19 20  1  0  0  0
 20 25  1  0  0  0
 20 21  2  0  0  0
 21 22  1  0  0  0
 22 23  2  0  0  0
 23 24  1  0  0  0
 23 26  1  0  0  0
 24 25  2  0  0  0
 26 27  2  0  0  0
 26 29  1  0  0  0
 27 28  1  0  0  0
 28 31  2  0  0  0
 29 30  2  0  0  0
 30 31  1  0  0  0
 12 17  1  0  0  0
 13 18  1  0  0  0
  3  4  1  0  0  0
M  END
> <minimizedAffinity>
-9.71257

$$$$
