4MRZ_2ZV_A_900


 13 13  0  0  0  0  0  0  0  0999 V2000
    5.3886  -30.2361  -33.0163 C   0  0  0  0  0  0  0  0  0  0  0  0
    4.7263  -28.9177  -33.3634 C   0  0  0  0  0  0  0  0  0  0  0  0
    4.7676  -28.5134  -34.6952 C   0  0  0  0  0  0  0  0  0  0  0  0
    4.1729  -27.3119  -35.0632 C   0  0  0  0  0  0  0  0  0  0  0  0
    3.5539  -26.5447  -34.1331 N   0  0  0  0  0  0  0  0  0  0  0  0
    3.4870  -26.9057  -32.8359 C   0  0  0  0  0  0  0  0  0  0  0  0
    2.8342  -26.1101  -31.9699 N   0  0  0  0  0  0  0  0  0  0  0  0
    4.0664  -28.1148  -32.4106 C   0  0  0  0  0  0  0  0  0  0  0  0
    2.4337  -25.2667  -32.2821 H   0  0  0  0  0  0  0  0  0  0  0  0
    2.7569  -26.3712  -31.0238 H   0  0  0  0  0  0  0  0  0  0  0  0
    4.0088  -28.4620  -31.1019 N   0  0  0  0  0  0  0  0  0  0  0  0
    3.0068  -29.0329  -30.6851 O   0  0  0  0  0  0  0  0  0  0  0  0
    4.9323  -28.2764  -30.3152 O   0  0  0  0  0  0  0  0  0  0  0  0
  4  3  2  0  0  0
  4  5  1  0  0  0
  3  2  1  0  0  0
  5  6  2  0  0  0
  2  1  1  0  0  0
  2  8  2  0  0  0
  6  8  1  0  0  0
  6  7  1  0  0  0
  8 11  1  0  0  0
 11 12  1  0  0  0
 11 13  2  0  0  0
  7  9  1  0  0  0
  7 10  1  0  0  0
M  CHG 1  11   1
M  CHG 1  12  -1
M  END
> <minimizedAffinity>
-5.71212

$$$$
4MRZ_2ZV_A_900


 13 13  0  0  0  0  0  0  0  0999 V2000
    5.4506  -29.0614  -34.8602 C   0  0  0  0  0  0  0  0  0  0  0  0
    4.7341  -28.5841  -33.6128 C   0  0  0  0  0  0  0  0  0  0  0  0
    4.7897  -29.4062  -32.4904 C   0  0  0  0  0  0  0  0  0  0  0  0
    4.1489  -29.0110  -31.3216 C   0  0  0  0  0  0  0  0  0  0  0  0
    3.4810  -27.8326  -31.2754 N   0  0  0  0  0  0  0  0  0  0  0  0
    3.4107  -27.0068  -32.3388 C   0  0  0  0  0  0  0  0  0  0  0  0
    2.7535  -25.8397  -32.2164 N   0  0  0  0  0  0  0  0  0  0  0  0
    4.0467  -27.3550  -33.5440 C   0  0  0  0  0  0  0  0  0  0  0  0
    2.3131  -25.6096  -31.3665 H   0  0  0  0  0  0  0  0  0  0  0  0
    2.7128  -25.2156  -32.9767 H   0  0  0  0  0  0  0  0  0  0  0  0
    3.9571  -26.5267  -34.6129 N   0  0  0  0  0  0  0  0  0  0  0  0
    3.0545  -26.7035  -35.4240 O   0  0  0  0  0  0  0  0  0  0  0  0
    4.7085  -25.5726  -34.7897 O   0  0  0  0  0  0  0  0  0  0  0  0
  4  3  2  0  0  0
  4  5  1  0  0  0
  3  2  1  0  0  0
  5  6  2  0  0  0
  2  1  1  0  0  0
  2  8  2  0  0  0
  6  8  1  0  0  0
  6  7  1  0  0  0
  8 11  1  0  0  0
 11 12  1  0  0  0
 11 13  2  0  0  0
  7  9  1  0  0  0
  7 10  1  0  0  0
M  CHG 1  11   1
M  CHG 1  12  -1
M  END
> <minimizedAffinity>
-5.55101

$$$$
4MRZ_2ZV_A_900


 13 13  0  0  0  0  0  0  0  0999 V2000
    4.0620  -27.5210  -33.2618 C   0  0  0  0  0  0  0  0  0  0  0  0
    5.0033  -28.6919  -33.0612 C   0  0  0  0  0  0  0  0  0  0  0  0
    5.7532  -29.1038  -34.1596 C   0  0  0  0  0  0  0  0  0  0  0  0
    6.6317  -30.1729  -34.0249 C   0  0  0  0  0  0  0  0  0  0  0  0
    6.7599  -30.8038  -32.8323 N   0  0  0  0  0  0  0  0  0  0  0  0
    6.0565  -30.4296  -31.7447 C   0  0  0  0  0  0  0  0  0  0  0  0
    6.2517  -31.0824  -30.5850 N   0  0  0  0  0  0  0  0  0  0  0  0
    5.1585  -29.3500  -31.8239 C   0  0  0  0  0  0  0  0  0  0  0  0
    6.8835  -31.8364  -30.5448 H   0  0  0  0  0  0  0  0  0  0  0  0
    5.7627  -30.8063  -29.7764 H   0  0  0  0  0  0  0  0  0  0  0  0
    4.4435  -28.9911  -30.7301 N   0  0  0  0  0  0  0  0  0  0  0  0
    5.0381  -28.5421  -29.7561 O   0  0  0  0  0  0  0  0  0  0  0  0
    3.2186  -29.0478  -30.6785 O   0  0  0  0  0  0  0  0  0  0  0  0
  4  3  2  0  0  0
  4  5  1  0  0  0
  3  2  1  0  0  0
  5  6  2  0  0  0
  2  1  1  0  0  0
  2  8  2  0  0  0
  6  8  1  0  0  0
  6  7  1  0  0  0
  8 11  1  0  0  0
 11 12  1  0  0  0
 11 13  2  0  0  0
  7  9  1  0  0  0
  7 10  1  0  0  0
M  CHG 1  11   1
M  CHG 1  12  -1
M  END
> <minimizedAffinity>
-5.51088

$$$$
4MRZ_2ZV_A_900


 13 13  0  0  0  0  0  0  0  0999 V2000
    4.7355  -28.1121  -35.3436 C   0  0  0  0  0  0  0  0  0  0  0  0
    4.3701  -27.9651  -33.8800 C   0  0  0  0  0  0  0  0  0  0  0  0
    3.5069  -26.9274  -33.5383 C   0  0  0  0  0  0  0  0  0  0  0  0
    3.1413  -26.7527  -32.2084 C   0  0  0  0  0  0  0  0  0  0  0  0
    3.6176  -27.5897  -31.2549 N   0  0  0  0  0  0  0  0  0  0  0  0
    4.4493  -28.6096  -31.5475 C   0  0  0  0  0  0  0  0  0  0  0  0
    4.8637  -29.4187  -30.5561 N   0  0  0  0  0  0  0  0  0  0  0  0
    4.8458  -28.8355  -32.8779 C   0  0  0  0  0  0  0  0  0  0  0  0
    4.5780  -29.2481  -29.6296 H   0  0  0  0  0  0  0  0  0  0  0  0
    5.4528  -30.1815  -30.7570 H   0  0  0  0  0  0  0  0  0  0  0  0
    5.6951  -29.8530  -33.1608 N   0  0  0  0  0  0  0  0  0  0  0  0
    6.9019  -29.6631  -33.0537 O   0  0  0  0  0  0  0  0  0  0  0  0
    5.3170  -30.9773  -33.4758 O   0  0  0  0  0  0  0  0  0  0  0  0
  4  3  2  0  0  0
  4  5  1  0  0  0
  3  2  1  0  0  0
  5  6  2  0  0  0
  2  1  1  0  0  0
  2  8  2  0  0  0
  6  8  1  0  0  0
  6  7  1  0  0  0
  8 11  1  0  0  0
 11 12  1  0  0  0
 11 13  2  0  0  0
  7  9  1  0  0  0
  7 10  1  0  0  0
M  CHG 1  11   1
M  CHG 1  12  -1
M  END
> <minimizedAffinity>
-5.46860

$$$$
4MRZ_2ZV_A_900


 13 13  0  0  0  0  0  0  0  0999 V2000
    4.8585  -28.8181  -34.3630 C   0  0  0  0  0  0  0  0  0  0  0  0
    4.9686  -29.2018  -32.9008 C   0  0  0  0  0  0  0  0  0  0  0  0
    4.1737  -28.5033  -31.9958 C   0  0  0  0  0  0  0  0  0  0  0  0
    4.2385  -28.8198  -30.6435 C   0  0  0  0  0  0  0  0  0  0  0  0
    5.0647  -29.8038  -30.2126 N   0  0  0  0  0  0  0  0  0  0  0  0
    5.8439  -30.5068  -31.0589 C   0  0  0  0  0  0  0  0  0  0  0  0
    6.6213  -31.4883  -30.5674 N   0  0  0  0  0  0  0  0  0  0  0  0
    5.8126  -30.2320  -32.4379 C   0  0  0  0  0  0  0  0  0  0  0  0
    6.6330  -31.6691  -29.5997 H   0  0  0  0  0  0  0  0  0  0  0  0
    7.1787  -32.0258  -31.1754 H   0  0  0  0  0  0  0  0  0  0  0  0
    6.6113  -30.9324  -33.2794 N   0  0  0  0  0  0  0  0  0  0  0  0
    7.7540  -30.5343  -33.4784 O   0  0  0  0  0  0  0  0  0  0  0  0
    6.2655  -31.9779  -33.8212 O   0  0  0  0  0  0  0  0  0  0  0  0
  4  3  2  0  0  0
  4  5  1  0  0  0
  3  2  1  0  0  0
  5  6  2  0  0  0
  2  1  1  0  0  0
  2  8  2  0  0  0
  6  8  1  0  0  0
  6  7  1  0  0  0
  8 11  1  0  0  0
 11 12  1  0  0  0
 11 13  2  0  0  0
  7  9  1  0  0  0
  7 10  1  0  0  0
M  CHG 1  11   1
M  CHG 1  12  -1
M  END
> <minimizedAffinity>
-5.28419

$$$$
4MRZ_2ZV_A_900


 13 13  0  0  0  0  0  0  0  0999 V2000
    4.0395  -27.0844  -36.2248 C   0  0  0  0  0  0  0  0  0  0  0  0
    4.3580  -28.0840  -35.1309 C   0  0  0  0  0  0  0  0  0  0  0  0
    4.8372  -29.3306  -35.5248 C   0  0  0  0  0  0  0  0  0  0  0  0
    5.1448  -30.2810  -34.5579 C   0  0  0  0  0  0  0  0  0  0  0  0
    4.9842  -29.9927  -33.2434 N   0  0  0  0  0  0  0  0  0  0  0  0
    4.5297  -28.7951  -32.8229 C   0  0  0  0  0  0  0  0  0  0  0  0
    4.4191  -28.5662  -31.5021 N   0  0  0  0  0  0  0  0  0  0  0  0
    4.2098  -27.7952  -33.7589 C   0  0  0  0  0  0  0  0  0  0  0  0
    4.6466  -29.2758  -30.8588 H   0  0  0  0  0  0  0  0  0  0  0  0
    4.1105  -27.6890  -31.1787 H   0  0  0  0  0  0  0  0  0  0  0  0
    3.7380  -26.6000  -33.3282 N   0  0  0  0  0  0  0  0  0  0  0  0
    2.7360  -26.5797  -32.6215 O   0  0  0  0  0  0  0  0  0  0  0  0
    4.2909  -25.5314  -33.5703 O   0  0  0  0  0  0  0  0  0  0  0  0
  4  3  2  0  0  0
  4  5  1  0  0  0
  3  2  1  0  0  0
  5  6  2  0  0  0
  2  1  1  0  0  0
  2  8  2  0  0  0
  6  8  1  0  0  0
  6  7  1  0  0  0
  8 11  1  0  0  0
 11 12  1  0  0  0
 11 13  2  0  0  0
  7  9  1  0  0  0
  7 10  1  0  0  0
M  CHG 1  11   1
M  CHG 1  12  -1
M  END
> <minimizedAffinity>
-5.24856

$$$$
4MRZ_2ZV_A_900


 13 13  0  0  0  0  0  0  0  0999 V2000
    5.0184  -29.4916  -31.3615 C   0  0  0  0  0  0  0  0  0  0  0  0
    4.4323  -28.4992  -32.3458 C   0  0  0  0  0  0  0  0  0  0  0  0
    3.6257  -27.4884  -31.8297 C   0  0  0  0  0  0  0  0  0  0  0  0
    3.0660  -26.5532  -32.6928 C   0  0  0  0  0  0  0  0  0  0  0  0
    3.3091  -26.6231  -34.0243 N   0  0  0  0  0  0  0  0  0  0  0  0
    4.0901  -27.5824  -34.5605 C   0  0  0  0  0  0  0  0  0  0  0  0
    4.3114  -27.5779  -35.8871 N   0  0  0  0  0  0  0  0  0  0  0  0
    4.6865  -28.5498  -33.7317 C   0  0  0  0  0  0  0  0  0  0  0  0
    3.8869  -26.8944  -36.4546 H   0  0  0  0  0  0  0  0  0  0  0  0
    4.8977  -28.2580  -36.2907 H   0  0  0  0  0  0  0  0  0  0  0  0
    5.4568  -29.5202  -34.2810 N   0  0  0  0  0  0  0  0  0  0  0  0
    4.9175  -30.5436  -34.6879 O   0  0  0  0  0  0  0  0  0  0  0  0
    6.6690  -29.4094  -34.4371 O   0  0  0  0  0  0  0  0  0  0  0  0
  4  3  2  0  0  0
  4  5  1  0  0  0
  3  2  1  0  0  0
  5  6  2  0  0  0
  2  1  1  0  0  0
  2  8  2  0  0  0
  6  8  1  0  0  0
  6  7  1  0  0  0
  8 11  1  0  0  0
 11 12  1  0  0  0
 11 13  2  0  0  0
  7  9  1  0  0  0
  7 10  1  0  0  0
M  CHG 1  11   1
M  CHG 1  12  -1
M  END
> <minimizedAffinity>
-5.06537

$$$$
4MRZ_2ZV_A_900


 13 13  0  0  0  0  0  0  0  0999 V2000
    3.5932  -26.4882  -33.2009 C   0  0  0  0  0  0  0  0  0  0  0  0
    4.1291  -27.7105  -33.9193 C   0  0  0  0  0  0  0  0  0  0  0  0
    4.4840  -28.8065  -33.1373 C   0  0  0  0  0  0  0  0  0  0  0  0
    4.9794  -29.9516  -33.7506 C   0  0  0  0  0  0  0  0  0  0  0  0
    5.1099  -30.0008  -35.0986 N   0  0  0  0  0  0  0  0  0  0  0  0
    4.7705  -28.9631  -35.8896 C   0  0  0  0  0  0  0  0  0  0  0  0
    4.9006  -29.0886  -37.2224 N   0  0  0  0  0  0  0  0  0  0  0  0
    4.2580  -27.7829  -35.3215 C   0  0  0  0  0  0  0  0  0  0  0  0
    5.2610  -29.9208  -37.6056 H   0  0  0  0  0  0  0  0  0  0  0  0
    4.6355  -28.3482  -37.8147 H   0  0  0  0  0  0  0  0  0  0  0  0
    3.9348  -26.7387  -36.1226 N   0  0  0  0  0  0  0  0  0  0  0  0
    4.7016  -25.7838  -36.1877 O   0  0  0  0  0  0  0  0  0  0  0  0
    2.9310  -26.7174  -36.8283 O   0  0  0  0  0  0  0  0  0  0  0  0
  4  3  2  0  0  0
  4  5  1  0  0  0
  3  2  1  0  0  0
  5  6  2  0  0  0
  2  1  1  0  0  0
  2  8  2  0  0  0
  6  8  1  0  0  0
  6  7  1  0  0  0
  8 11  1  0  0  0
 11 12  1  0  0  0
 11 13  2  0  0  0
  7  9  1  0  0  0
  7 10  1  0  0  0
M  CHG 1  11   1
M  CHG 1  12  -1
M  END
> <minimizedAffinity>
-5.00536

$$$$
4MRZ_2ZV_A_900


 13 13  0  0  0  0  0  0  0  0999 V2000
    4.8174  -28.9076  -32.0568 C   0  0  0  0  0  0  0  0  0  0  0  0
    4.7425  -28.9039  -33.5706 C   0  0  0  0  0  0  0  0  0  0  0  0
    5.1659  -30.0527  -34.2337 C   0  0  0  0  0  0  0  0  0  0  0  0
    5.1151  -30.0980  -35.6223 C   0  0  0  0  0  0  0  0  0  0  0  0
    4.6519  -29.0342  -36.3225 N   0  0  0  0  0  0  0  0  0  0  0  0
    4.2266  -27.9076  -35.7162 C   0  0  0  0  0  0  0  0  0  0  0  0
    3.7541  -26.8991  -36.4703 N   0  0  0  0  0  0  0  0  0  0  0  0
    4.2503  -27.8111  -34.3132 C   0  0  0  0  0  0  0  0  0  0  0  0
    3.7438  -26.9810  -37.4513 H   0  0  0  0  0  0  0  0  0  0  0  0
    3.4186  -26.0790  -36.0413 H   0  0  0  0  0  0  0  0  0  0  0  0
    3.8364  -26.6689  -33.7127 N   0  0  0  0  0  0  0  0  0  0  0  0
    4.4052  -25.6174  -33.9862 O   0  0  0  0  0  0  0  0  0  0  0  0
    2.8848  -26.6220  -32.9391 O   0  0  0  0  0  0  0  0  0  0  0  0
  4  3  2  0  0  0
  4  5  1  0  0  0
  3  2  1  0  0  0
  5  6  2  0  0  0
  2  1  1  0  0  0
  2  8  2  0  0  0
  6  8  1  0  0  0
  6  7  1  0  0  0
  8 11  1  0  0  0
 11 12  1  0  0  0
 11 13  2  0  0  0
  7  9  1  0  0  0
  7 10  1  0  0  0
M  CHG 1  11   1
M  CHG 1  12  -1
M  END
> <minimizedAffinity>
-4.99598

$$$$
4MRZ_2ZV_A_900


 13 13  0  0  0  0  0  0  0  0999 V2000
    3.8533  -26.5614  -33.6937 C   0  0  0  0  0  0  0  0  0  0  0  0
    4.2582  -27.7228  -34.5794 C   0  0  0  0  0  0  0  0  0  0  0  0
    4.0659  -27.5773  -35.9508 C   0  0  0  0  0  0  0  0  0  0  0  0
    4.4231  -28.6147  -36.8046 C   0  0  0  0  0  0  0  0  0  0  0  0
    4.9588  -29.7550  -36.3050 N   0  0  0  0  0  0  0  0  0  0  0  0
    5.1668  -29.9302  -34.9845 C   0  0  0  0  0  0  0  0  0  0  0  0
    5.7269  -31.0764  -34.5585 N   0  0  0  0  0  0  0  0  0  0  0  0
    4.8295  -28.9099  -34.0770 C   0  0  0  0  0  0  0  0  0  0  0  0
    5.9576  -31.7818  -35.2055 H   0  0  0  0  0  0  0  0  0  0  0  0
    5.9062  -31.2101  -33.5998 H   0  0  0  0  0  0  0  0  0  0  0  0
    5.0266  -29.1009  -32.7499 N   0  0  0  0  0  0  0  0  0  0  0  0
    6.1739  -29.1026  -32.3167 O   0  0  0  0  0  0  0  0  0  0  0  0
    4.1092  -29.2264  -31.9445 O   0  0  0  0  0  0  0  0  0  0  0  0
  4  3  2  0  0  0
  4  5  1  0  0  0
  3  2  1  0  0  0
  5  6  2  0  0  0
  2  1  1  0  0  0
  2  8  2  0  0  0
  6  8  1  0  0  0
  6  7  1  0  0  0
  8 11  1  0  0  0
 11 12  1  0  0  0
 11 13  2  0  0  0
  7  9  1  0  0  0
  7 10  1  0  0  0
M  CHG 1  11   1
M  CHG 1  12  -1
M  END
> <minimizedAffinity>
-4.86565

$$$$
