4R76_R5X_A_1004


 31 33  0  0  0  0  0  0  0  0999 V2000
   87.4998   73.6198   31.1133 C   0  0  0  0  0  0  0  0  0  0  0  0
   84.0323   73.4139   32.2592 C   0  0  0  0  0  0  0  0  0  0  0  0
   85.3331   73.8366   32.0407 C   0  0  0  0  0  0  0  0  0  0  0  0
   86.2147   73.0835   31.2719 C   0  0  0  0  0  0  0  0  0  0  0  0
   85.7836   71.8908   30.7007 C   0  0  0  0  0  0  0  0  0  0  0  0
   84.4716   71.4648   30.9219 C   0  0  0  0  0  0  0  0  0  0  0  0
   83.5970   72.2247   31.6978 C   0  0  0  0  0  0  0  0  0  0  0  0
   80.5005   71.5593   32.9839 C   0  0  0  0  0  0  0  0  0  0  0  0
   82.3429   71.8389   31.9262 N   0  0  0  0  0  0  0  0  0  0  0  0
   81.6084   71.2639   31.1721 N   0  0  0  0  0  0  0  0  0  0  0  0
   80.4317   71.0519   31.7620 C   0  0  0  0  0  0  0  0  0  0  0  0
   81.7210   72.0623   33.0852 C   0  0  0  0  0  0  0  0  0  0  0  0
   87.4440   74.8418   30.2006 C   0  0  0  0  0  0  0  0  0  0  0  0
   86.7946   74.8287   29.1563 O   0  0  0  0  0  0  0  0  0  0  0  0
   88.1754   75.8789   30.6233 N   0  0  0  0  0  0  0  0  0  0  0  0
   88.1757   77.0293   29.8165 O   0  0  0  0  0  0  0  0  0  0  0  0
   88.6901   75.8380   31.4615 H   0  0  0  0  0  0  0  0  0  0  0  0
   87.6148   76.8794   29.0394 H   0  0  0  0  0  0  0  0  0  0  0  0
   88.5684   72.7500   30.5920 N   0  0  0  0  0  0  0  0  0  0  0  0
   89.8688   72.9278   30.8600 C   0  0  0  0  0  0  0  0  0  0  0  0
   90.3115   73.7831   31.6237 O   0  0  0  0  0  0  0  0  0  0  0  0
   88.3123   71.9953   30.0140 H   0  0  0  0  0  0  0  0  0  0  0  0
   90.3755   71.6175   28.8827 C   0  0  0  0  0  0  0  0  0  0  0  0
   91.2394   70.7594   28.2084 C   0  0  0  0  0  0  0  0  0  0  0  0
   92.7652   70.8172   30.0708 C   0  0  0  0  0  0  0  0  0  0  0  0
   90.7162   72.0877   30.1463 C   0  0  0  0  0  0  0  0  0  0  0  0
   92.4325   70.3582   28.8015 C   0  0  0  0  0  0  0  0  0  0  0  0
   91.9034   71.6753   30.7424 C   0  0  0  0  0  0  0  0  0  0  0  0
   90.9246   70.3188   26.9917 N   0  0  0  0  0  0  0  0  0  0  0  0
   90.0813   70.6006   26.5691 H   0  0  0  0  0  0  0  0  0  0  0  0
   91.5352   69.7113   26.5149 H   0  0  0  0  0  0  0  0  0  0  0  0
 29 24  1  0  0  0
 16 15  1  0  0  0
 24 23  2  0  0  0
 24 27  1  0  0  0
 23 26  1  0  0  0
 14 13  2  0  0  0
 15 13  1  0  0  0
 27 25  2  0  0  0
 13  1  1  0  0  0
 26 20  1  0  0  0
 26 28  2  0  0  0
 19 20  1  0  0  0
 19  1  1  0  0  0
 20 21  2  0  0  0
  1  4  1  0  0  0
 25 28  1  0  0  0
  4  5  2  0  0  0
  4  3  1  0  0  0
  5  6  1  0  0  0
  3  2  2  0  0  0
  6  7  2  0  0  0
  2  7  1  0  0  0
  7  9  1  0  0  0
  9 10  1  0  0  0
  9 12  1  0  0  0
 10 11  2  0  0  0
 12  8  2  0  0  0
 11  8  1  0  0  0
 19 22  1  0  0  0
 15 17  1  0  0  0
 16 18  1  0  0  0
 29 30  1  0  0  0
 29 31  1  0  0  0
M  END
> <minimizedAffinity>
-9.47005

$$$$
4R76_R5X_A_1004


 31 33  0  0  0  0  0  0  0  0999 V2000
   89.5686   73.9189   30.8587 C   0  0  0  0  0  0  0  0  0  0  0  0
   92.7493   72.1148   30.7742 C   0  0  0  0  0  0  0  0  0  0  0  0
   91.6411   72.8649   30.4169 C   0  0  0  0  0  0  0  0  0  0  0  0
   90.6332   73.1416   31.3350 C   0  0  0  0  0  0  0  0  0  0  0  0
   90.7413   72.6694   32.6387 C   0  0  0  0  0  0  0  0  0  0  0  0
   91.8592   71.9124   32.9984 C   0  0  0  0  0  0  0  0  0  0  0  0
   92.8619   71.6367   32.0695 C   0  0  0  0  0  0  0  0  0  0  0  0
   95.8768   70.4620   33.1718 C   0  0  0  0  0  0  0  0  0  0  0  0
   93.9354   70.9149   32.3865 N   0  0  0  0  0  0  0  0  0  0  0  0
   94.1141   69.7465   32.1828 N   0  0  0  0  0  0  0  0  0  0  0  0
   95.3105   69.3853   32.6470 C   0  0  0  0  0  0  0  0  0  0  0  0
   94.9960   71.4363   33.0054 C   0  0  0  0  0  0  0  0  0  0  0  0
   89.7939   75.3850   31.2183 C   0  0  0  0  0  0  0  0  0  0  0  0
   90.7157   75.7260   31.9577 O   0  0  0  0  0  0  0  0  0  0  0  0
   88.8968   76.2255   30.6912 N   0  0  0  0  0  0  0  0  0  0  0  0
   89.0434   77.5887   30.9988 O   0  0  0  0  0  0  0  0  0  0  0  0
   88.1671   75.9037   30.1140 H   0  0  0  0  0  0  0  0  0  0  0  0
   89.8138   77.7090   31.5757 H   0  0  0  0  0  0  0  0  0  0  0  0
   88.2006   73.5823   31.2898 N   0  0  0  0  0  0  0  0  0  0  0  0
   87.3115   72.9486   30.5138 C   0  0  0  0  0  0  0  0  0  0  0  0
   87.5540   72.5123   29.3905 O   0  0  0  0  0  0  0  0  0  0  0  0
   87.9243   73.8376   32.1996 H   0  0  0  0  0  0  0  0  0  0  0  0
   85.1880   71.8041   30.7671 C   0  0  0  0  0  0  0  0  0  0  0  0
   83.9096   71.7679   31.3162 C   0  0  0  0  0  0  0  0  0  0  0  0
   84.3163   73.8666   32.4252 C   0  0  0  0  0  0  0  0  0  0  0  0
   86.0361   72.8661   31.0614 C   0  0  0  0  0  0  0  0  0  0  0  0
   83.4730   72.7981   32.1434 C   0  0  0  0  0  0  0  0  0  0  0  0
   85.5930   73.9010   31.8783 C   0  0  0  0  0  0  0  0  0  0  0  0
   83.0993   70.7451   31.0497 N   0  0  0  0  0  0  0  0  0  0  0  0
   83.4049   70.0145   30.4648 H   0  0  0  0  0  0  0  0  0  0  0  0
   82.1948   70.7197   31.4375 H   0  0  0  0  0  0  0  0  0  0  0  0
 29 24  1  0  0  0
 16 15  1  0  0  0
 24 23  2  0  0  0
 24 27  1  0  0  0
 23 26  1  0  0  0
 14 13  2  0  0  0
 15 13  1  0  0  0
 27 25  2  0  0  0
 13  1  1  0  0  0
 26 20  1  0  0  0
 26 28  2  0  0  0
 19 20  1  0  0  0
 19  1  1  0  0  0
 20 21  2  0  0  0
  1  4  1  0  0  0
 25 28  1  0  0  0
  4  5  2  0  0  0
  4  3  1  0  0  0
  5  6  1  0  0  0
  3  2  2  0  0  0
  6  7  2  0  0  0
  2  7  1  0  0  0
  7  9  1  0  0  0
  9 10  1  0  0  0
  9 12  1  0  0  0
 10 11  2  0  0  0
 12  8  2  0  0  0
 11  8  1  0  0  0
 19 22  1  0  0  0
 15 17  1  0  0  0
 16 18  1  0  0  0
 29 30  1  0  0  0
 29 31  1  0  0  0
M  END
> <minimizedAffinity>
-8.69878

$$$$
4R76_R5X_A_1004


 31 33  0  0  0  0  0  0  0  0999 V2000
   87.0959   73.0482   30.1426 C   0  0  0  0  0  0  0  0  0  0  0  0
   90.5853   71.9687   29.9490 C   0  0  0  0  0  0  0  0  0  0  0  0
   89.2688   72.2606   29.6329 C   0  0  0  0  0  0  0  0  0  0  0  0
   88.3994   72.7840   30.5846 C   0  0  0  0  0  0  0  0  0  0  0  0
   88.8588   73.0316   31.8739 C   0  0  0  0  0  0  0  0  0  0  0  0
   90.1868   72.7365   32.1922 C   0  0  0  0  0  0  0  0  0  0  0  0
   91.0490   72.2079   31.2323 C   0  0  0  0  0  0  0  0  0  0  0  0
   94.3103   71.1840   31.2167 C   0  0  0  0  0  0  0  0  0  0  0  0
   92.3179   71.9151   31.5114 N   0  0  0  0  0  0  0  0  0  0  0  0
   92.9033   72.1165   32.5388 N   0  0  0  0  0  0  0  0  0  0  0  0
   94.1606   71.6857   32.4336 C   0  0  0  0  0  0  0  0  0  0  0  0
   93.1329   71.3332   30.6299 C   0  0  0  0  0  0  0  0  0  0  0  0
   86.8178   74.5474   30.2110 C   0  0  0  0  0  0  0  0  0  0  0  0
   87.6237   75.3663   29.7722 O   0  0  0  0  0  0  0  0  0  0  0  0
   85.6634   74.8668   30.8062 N   0  0  0  0  0  0  0  0  0  0  0  0
   85.3583   76.2343   30.9125 O   0  0  0  0  0  0  0  0  0  0  0  0
   85.0551   74.1753   31.1540 H   0  0  0  0  0  0  0  0  0  0  0  0
   86.0727   76.7567   30.5155 H   0  0  0  0  0  0  0  0  0  0  0  0
   85.9718   72.3775   30.8185 N   0  0  0  0  0  0  0  0  0  0  0  0
   85.1949   71.4567   30.2330 C   0  0  0  0  0  0  0  0  0  0  0  0
   85.3731   71.0142   29.1001 O   0  0  0  0  0  0  0  0  0  0  0  0
   85.7808   72.6197   31.7535 H   0  0  0  0  0  0  0  0  0  0  0  0
   83.3661   71.9855   31.7359 C   0  0  0  0  0  0  0  0  0  0  0  0
   82.2928   71.5521   32.5088 C   0  0  0  0  0  0  0  0  0  0  0  0
   82.7121   69.2789   31.8330 C   0  0  0  0  0  0  0  0  0  0  0  0
   84.1025   71.0647   30.9986 C   0  0  0  0  0  0  0  0  0  0  0  0
   81.9663   70.2004   32.5589 C   0  0  0  0  0  0  0  0  0  0  0  0
   83.7821   69.7126   31.0601 C   0  0  0  0  0  0  0  0  0  0  0  0
   81.5750   72.4322   33.2044 N   0  0  0  0  0  0  0  0  0  0  0  0
   81.8032   73.3893   33.1713 H   0  0  0  0  0  0  0  0  0  0  0  0
   80.8163   72.1256   33.7517 H   0  0  0  0  0  0  0  0  0  0  0  0
 29 24  1  0  0  0
 16 15  1  0  0  0
 24 23  2  0  0  0
 24 27  1  0  0  0
 23 26  1  0  0  0
 14 13  2  0  0  0
 15 13  1  0  0  0
 27 25  2  0  0  0
 13  1  1  0  0  0
 26 20  1  0  0  0
 26 28  2  0  0  0
 19 20  1  0  0  0
 19  1  1  0  0  0
 20 21  2  0  0  0
  1  4  1  0  0  0
 25 28  1  0  0  0
  4  5  2  0  0  0
  4  3  1  0  0  0
  5  6  1  0  0  0
  3  2  2  0  0  0
  6  7  2  0  0  0
  2  7  1  0  0  0
  7  9  1  0  0  0
  9 10  1  0  0  0
  9 12  1  0  0  0
 10 11  2  0  0  0
 12  8  2  0  0  0
 11  8  1  0  0  0
 19 22  1  0  0  0
 15 17  1  0  0  0
 16 18  1  0  0  0
 29 30  1  0  0  0
 29 31  1  0  0  0
M  END
> <minimizedAffinity>
-8.69366

$$$$
4R76_R5X_A_1004


 31 33  0  0  0  0  0  0  0  0999 V2000
   87.4401   73.8399   30.2982 C   0  0  0  0  0  0  0  0  0  0  0  0
   90.7143   72.2321   30.0266 C   0  0  0  0  0  0  0  0  0  0  0  0
   89.4364   72.6912   29.7534 C   0  0  0  0  0  0  0  0  0  0  0  0
   88.7175   73.4211   30.6945 C   0  0  0  0  0  0  0  0  0  0  0  0
   89.2923   73.7080   31.9282 C   0  0  0  0  0  0  0  0  0  0  0  0
   90.5812   73.2443   32.2033 C   0  0  0  0  0  0  0  0  0  0  0  0
   91.2917   72.5096   31.2548 C   0  0  0  0  0  0  0  0  0  0  0  0
   94.3920   71.0748   31.1355 C   0  0  0  0  0  0  0  0  0  0  0  0
   92.5200   72.0536   31.4940 N   0  0  0  0  0  0  0  0  0  0  0  0
   93.1567   72.1694   32.5039 N   0  0  0  0  0  0  0  0  0  0  0  0
   94.3443   71.5814   32.3587 C   0  0  0  0  0  0  0  0  0  0  0  0
   93.2268   71.3791   30.5855 C   0  0  0  0  0  0  0  0  0  0  0  0
   87.3231   75.3552   30.4384 C   0  0  0  0  0  0  0  0  0  0  0  0
   86.2589   75.8866   30.7512 O   0  0  0  0  0  0  0  0  0  0  0  0
   88.4493   76.0224   30.1632 N   0  0  0  0  0  0  0  0  0  0  0  0
   88.3999   77.4233   30.2607 O   0  0  0  0  0  0  0  0  0  0  0  0
   89.2751   75.5533   29.9041 H   0  0  0  0  0  0  0  0  0  0  0  0
   87.5084   77.6977   30.5266 H   0  0  0  0  0  0  0  0  0  0  0  0
   86.2660   73.2601   30.9732 N   0  0  0  0  0  0  0  0  0  0  0  0
   85.6110   72.1796   30.5282 C   0  0  0  0  0  0  0  0  0  0  0  0
   85.9538   71.5089   29.5569 O   0  0  0  0  0  0  0  0  0  0  0  0
   85.9446   73.6910   31.7980 H   0  0  0  0  0  0  0  0  0  0  0  0
   83.8846   70.6204   31.2149 C   0  0  0  0  0  0  0  0  0  0  0  0
   82.7038   70.3773   31.9104 C   0  0  0  0  0  0  0  0  0  0  0  0
   82.6283   72.6816   32.6064 C   0  0  0  0  0  0  0  0  0  0  0  0
   84.4451   71.8930   31.2294 C   0  0  0  0  0  0  0  0  0  0  0  0
   82.0750   71.4064   32.6046 C   0  0  0  0  0  0  0  0  0  0  0  0
   83.8081   72.9230   31.9135 C   0  0  0  0  0  0  0  0  0  0  0  0
   82.1715   69.1565   31.9122 N   0  0  0  0  0  0  0  0  0  0  0  0
   82.6136   68.4260   31.4221 H   0  0  0  0  0  0  0  0  0  0  0  0
   81.3359   68.9845   32.4036 H   0  0  0  0  0  0  0  0  0  0  0  0
 29 24  1  0  0  0
 16 15  1  0  0  0
 24 23  2  0  0  0
 24 27  1  0  0  0
 23 26  1  0  0  0
 14 13  2  0  0  0
 15 13  1  0  0  0
 27 25  2  0  0  0
 13  1  1  0  0  0
 26 20  1  0  0  0
 26 28  2  0  0  0
 19 20  1  0  0  0
 19  1  1  0  0  0
 20 21  2  0  0  0
  1  4  1  0  0  0
 25 28  1  0  0  0
  4  5  2  0  0  0
  4  3  1  0  0  0
  5  6  1  0  0  0
  3  2  2  0  0  0
  6  7  2  0  0  0
  2  7  1  0  0  0
  7  9  1  0  0  0
  9 10  1  0  0  0
  9 12  1  0  0  0
 10 11  2  0  0  0
 12  8  2  0  0  0
 11  8  1  0  0  0
 19 22  1  0  0  0
 15 17  1  0  0  0
 16 18  1  0  0  0
 29 30  1  0  0  0
 29 31  1  0  0  0
M  END
> <minimizedAffinity>
-8.66063

$$$$
4R76_R5X_A_1004


 31 33  0  0  0  0  0  0  0  0999 V2000
   87.0849   72.9606   30.1618 C   0  0  0  0  0  0  0  0  0  0  0  0
   89.9981   72.3215   32.2793 C   0  0  0  0  0  0  0  0  0  0  0  0
   88.7361   72.6781   31.8337 C   0  0  0  0  0  0  0  0  0  0  0  0
   88.3939   72.5813   30.4888 C   0  0  0  0  0  0  0  0  0  0  0  0
   89.3279   72.1073   29.5736 C   0  0  0  0  0  0  0  0  0  0  0  0
   90.6008   71.7482   30.0235 C   0  0  0  0  0  0  0  0  0  0  0  0
   90.9354   71.8532   31.3731 C   0  0  0  0  0  0  0  0  0  0  0  0
   93.7940   70.2726   32.3807 C   0  0  0  0  0  0  0  0  0  0  0  0
   92.1427   71.5205   31.8265 N   0  0  0  0  0  0  0  0  0  0  0  0
   93.0001   72.2583   32.2258 N   0  0  0  0  0  0  0  0  0  0  0  0
   94.0692   71.5512   32.5923 C   0  0  0  0  0  0  0  0  0  0  0  0
   92.5643   70.2564   31.8905 C   0  0  0  0  0  0  0  0  0  0  0  0
   86.9068   74.4597   30.3863 C   0  0  0  0  0  0  0  0  0  0  0  0
   85.9432   74.9012   31.0102 O   0  0  0  0  0  0  0  0  0  0  0  0
   87.8559   75.2173   29.8255 N   0  0  0  0  0  0  0  0  0  0  0  0
   87.7381   76.6083   29.9855 O   0  0  0  0  0  0  0  0  0  0  0  0
   88.6030   74.8184   29.3235 H   0  0  0  0  0  0  0  0  0  0  0  0
   86.9439   76.8078   30.5055 H   0  0  0  0  0  0  0  0  0  0  0  0
   85.9645   72.2934   30.8473 N   0  0  0  0  0  0  0  0  0  0  0  0
   85.1587   71.4001   30.2583 C   0  0  0  0  0  0  0  0  0  0  0  0
   85.3037   70.9814   29.1118 O   0  0  0  0  0  0  0  0  0  0  0  0
   85.7986   72.5168   31.7916 H   0  0  0  0  0  0  0  0  0  0  0  0
   83.3345   71.9341   31.7651 C   0  0  0  0  0  0  0  0  0  0  0  0
   82.2724   71.5018   32.5539 C   0  0  0  0  0  0  0  0  0  0  0  0
   82.7148   69.2219   31.9167 C   0  0  0  0  0  0  0  0  0  0  0  0
   84.0768   71.0089   31.0392 C   0  0  0  0  0  0  0  0  0  0  0  0
   81.9630   70.1473   32.6312 C   0  0  0  0  0  0  0  0  0  0  0  0
   83.7736   69.6543   31.1279 C   0  0  0  0  0  0  0  0  0  0  0  0
   81.5489   72.3856   33.2387 N   0  0  0  0  0  0  0  0  0  0  0  0
   81.7650   73.3447   33.1864 H   0  0  0  0  0  0  0  0  0  0  0  0
   80.7980   72.0800   33.7973 H   0  0  0  0  0  0  0  0  0  0  0  0
 29 24  1  0  0  0
 16 15  1  0  0  0
 24 23  2  0  0  0
 24 27  1  0  0  0
 23 26  1  0  0  0
 14 13  2  0  0  0
 15 13  1  0  0  0
 27 25  2  0  0  0
 13  1  1  0  0  0
 26 20  1  0  0  0
 26 28  2  0  0  0
 19 20  1  0  0  0
 19  1  1  0  0  0
 20 21  2  0  0  0
  1  4  1  0  0  0
 25 28  1  0  0  0
  4  5  2  0  0  0
  4  3  1  0  0  0
  5  6  1  0  0  0
  3  2  2  0  0  0
  6  7  2  0  0  0
  2  7  1  0  0  0
  7  9  1  0  0  0
  9 10  1  0  0  0
  9 12  1  0  0  0
 10 11  2  0  0  0
 12  8  2  0  0  0
 11  8  1  0  0  0
 19 22  1  0  0  0
 15 17  1  0  0  0
 16 18  1  0  0  0
 29 30  1  0  0  0
 29 31  1  0  0  0
M  END
> <minimizedAffinity>
-8.34390

$$$$
4R76_R5X_A_1004


 31 33  0  0  0  0  0  0  0  0999 V2000
   87.1844   73.3305   30.1571 C   0  0  0  0  0  0  0  0  0  0  0  0
   90.0990   72.6026   32.2438 C   0  0  0  0  0  0  0  0  0  0  0  0
   88.8428   72.9949   31.8120 C   0  0  0  0  0  0  0  0  0  0  0  0
   88.4858   72.9148   30.4698 C   0  0  0  0  0  0  0  0  0  0  0  0
   89.3985   72.4215   29.5433 C   0  0  0  0  0  0  0  0  0  0  0  0
   90.6656   72.0263   29.9794 C   0  0  0  0  0  0  0  0  0  0  0  0
   91.0152   72.1148   31.3264 C   0  0  0  0  0  0  0  0  0  0  0  0
   93.8518   70.4565   32.2689 C   0  0  0  0  0  0  0  0  0  0  0  0
   92.2174   71.7478   31.7667 N   0  0  0  0  0  0  0  0  0  0  0  0
   93.0833   72.4568   32.1983 N   0  0  0  0  0  0  0  0  0  0  0  0
   94.1427   71.7212   32.5355 C   0  0  0  0  0  0  0  0  0  0  0  0
   92.6229   70.4768   31.7769 C   0  0  0  0  0  0  0  0  0  0  0  0
   87.0437   74.8297   30.4061 C   0  0  0  0  0  0  0  0  0  0  0  0
   86.0804   75.2868   31.0191 O   0  0  0  0  0  0  0  0  0  0  0  0
   88.0247   75.5701   29.8784 N   0  0  0  0  0  0  0  0  0  0  0  0
   87.9426   76.9608   30.0620 O   0  0  0  0  0  0  0  0  0  0  0  0
   88.7703   75.1594   29.3838 H   0  0  0  0  0  0  0  0  0  0  0  0
   87.1440   77.1733   30.5699 H   0  0  0  0  0  0  0  0  0  0  0  0
   86.0524   72.6796   30.8393 N   0  0  0  0  0  0  0  0  0  0  0  0
   85.3257   71.6933   30.2977 C   0  0  0  0  0  0  0  0  0  0  0  0
   85.5620   71.1708   29.2106 O   0  0  0  0  0  0  0  0  0  0  0  0
   85.8168   72.9869   31.7445 H   0  0  0  0  0  0  0  0  0  0  0  0
   83.8611   69.9939   31.2200 C   0  0  0  0  0  0  0  0  0  0  0  0
   82.7280   69.6681   31.9596 C   0  0  0  0  0  0  0  0  0  0  0  0
   82.2850   72.0064   32.3284 C   0  0  0  0  0  0  0  0  0  0  0  0
   84.2140   71.3281   31.0488 C   0  0  0  0  0  0  0  0  0  0  0  0
   81.9396   70.6726   32.5125 C   0  0  0  0  0  0  0  0  0  0  0  0
   83.4174   72.3308   31.5917 C   0  0  0  0  0  0  0  0  0  0  0  0
   82.3947   68.3913   32.1393 N   0  0  0  0  0  0  0  0  0  0  0  0
   82.9502   67.6780   31.7495 H   0  0  0  0  0  0  0  0  0  0  0  0
   81.5928   68.1607   32.6618 H   0  0  0  0  0  0  0  0  0  0  0  0
 29 24  1  0  0  0
 16 15  1  0  0  0
 24 23  2  0  0  0
 24 27  1  0  0  0
 23 26  1  0  0  0
 14 13  2  0  0  0
 15 13  1  0  0  0
 27 25  2  0  0  0
 13  1  1  0  0  0
 26 20  1  0  0  0
 26 28  2  0  0  0
 19 20  1  0  0  0
 19  1  1  0  0  0
 20 21  2  0  0  0
  1  4  1  0  0  0
 25 28  1  0  0  0
  4  5  2  0  0  0
  4  3  1  0  0  0
  5  6  1  0  0  0
  3  2  2  0  0  0
  6  7  2  0  0  0
  2  7  1  0  0  0
  7  9  1  0  0  0
  9 10  1  0  0  0
  9 12  1  0  0  0
 10 11  2  0  0  0
 12  8  2  0  0  0
 11  8  1  0  0  0
 19 22  1  0  0  0
 15 17  1  0  0  0
 16 18  1  0  0  0
 29 30  1  0  0  0
 29 31  1  0  0  0
M  END
> <minimizedAffinity>
-8.31033

$$$$
4R76_R5X_A_1004


 31 33  0  0  0  0  0  0  0  0999 V2000
   89.2385   71.5112   30.1013 C   0  0  0  0  0  0  0  0  0  0  0  0
   92.0236   70.6040   32.2920 C   0  0  0  0  0  0  0  0  0  0  0  0
   90.8032   70.6200   31.6373 C   0  0  0  0  0  0  0  0  0  0  0  0
   90.4997   71.6071   30.7051 C   0  0  0  0  0  0  0  0  0  0  0  0
   91.4395   72.5900   30.4131 C   0  0  0  0  0  0  0  0  0  0  0  0
   92.6702   72.5735   31.0741 C   0  0  0  0  0  0  0  0  0  0  0  0
   92.9629   71.5824   32.0102 C   0  0  0  0  0  0  0  0  0  0  0  0
   95.9834   70.7632   33.3852 C   0  0  0  0  0  0  0  0  0  0  0  0
   94.1271   71.5467   32.6562 N   0  0  0  0  0  0  0  0  0  0  0  0
   94.6302   72.4242   33.3008 N   0  0  0  0  0  0  0  0  0  0  0  0
   95.7986   72.0105   33.7918 C   0  0  0  0  0  0  0  0  0  0  0  0
   94.9156   70.4705   32.6593 C   0  0  0  0  0  0  0  0  0  0  0  0
   88.4853   72.8292   30.2589 C   0  0  0  0  0  0  0  0  0  0  0  0
   88.2912   73.3242   31.3679 O   0  0  0  0  0  0  0  0  0  0  0  0
   88.0456   73.3532   29.1095 N   0  0  0  0  0  0  0  0  0  0  0  0
   87.3313   74.5604   29.1916 O   0  0  0  0  0  0  0  0  0  0  0  0
   88.2147   72.9130   28.2453 H   0  0  0  0  0  0  0  0  0  0  0  0
   87.2677   74.8360   30.1195 H   0  0  0  0  0  0  0  0  0  0  0  0
   88.3235   70.4446   30.5434 N   0  0  0  0  0  0  0  0  0  0  0  0
   87.3077   69.9823   29.8027 C   0  0  0  0  0  0  0  0  0  0  0  0
   87.0681   70.3375   28.6506 O   0  0  0  0  0  0  0  0  0  0  0  0
   88.4666   70.0493   31.4337 H   0  0  0  0  0  0  0  0  0  0  0  0
   85.1572   68.8965   30.0855 C   0  0  0  0  0  0  0  0  0  0  0  0
   84.3530   68.0066   30.7916 C   0  0  0  0  0  0  0  0  0  0  0  0
   86.1825   67.5199   32.2802 C   0  0  0  0  0  0  0  0  0  0  0  0
   86.4805   69.0851   30.4692 C   0  0  0  0  0  0  0  0  0  0  0  0
   84.8639   67.3196   31.8885 C   0  0  0  0  0  0  0  0  0  0  0  0
   86.9853   68.4069   31.5737 C   0  0  0  0  0  0  0  0  0  0  0  0
   83.0897   67.8110   30.4184 N   0  0  0  0  0  0  0  0  0  0  0  0
   82.7249   68.2953   29.6428 H   0  0  0  0  0  0  0  0  0  0  0  0
   82.5205   67.1820   30.9181 H   0  0  0  0  0  0  0  0  0  0  0  0
 29 24  1  0  0  0
 16 15  1  0  0  0
 24 23  2  0  0  0
 24 27  1  0  0  0
 23 26  1  0  0  0
 14 13  2  0  0  0
 15 13  1  0  0  0
 27 25  2  0  0  0
 13  1  1  0  0  0
 26 20  1  0  0  0
 26 28  2  0  0  0
 19 20  1  0  0  0
 19  1  1  0  0  0
 20 21  2  0  0  0
  1  4  1  0  0  0
 25 28  1  0  0  0
  4  5  2  0  0  0
  4  3  1  0  0  0
  5  6  1  0  0  0
  3  2  2  0  0  0
  6  7  2  0  0  0
  2  7  1  0  0  0
  7  9  1  0  0  0
  9 10  1  0  0  0
  9 12  1  0  0  0
 10 11  2  0  0  0
 12  8  2  0  0  0
 11  8  1  0  0  0
 19 22  1  0  0  0
 15 17  1  0  0  0
 16 18  1  0  0  0
 29 30  1  0  0  0
 29 31  1  0  0  0
M  END
> <minimizedAffinity>
-8.06051

$$$$
4R76_R5X_A_1004


 31 33  0  0  0  0  0  0  0  0999 V2000
   89.7151   73.3034   30.6097 C   0  0  0  0  0  0  0  0  0  0  0  0
   90.7548   69.8575   29.9586 C   0  0  0  0  0  0  0  0  0  0  0  0
   90.0299   70.9726   30.3452 C   0  0  0  0  0  0  0  0  0  0  0  0
   90.5464   72.2552   30.1920 C   0  0  0  0  0  0  0  0  0  0  0  0
   91.8072   72.4266   29.6300 C   0  0  0  0  0  0  0  0  0  0  0  0
   92.5380   71.3014   29.2406 C   0  0  0  0  0  0  0  0  0  0  0  0
   92.0131   70.0198   29.4026 C   0  0  0  0  0  0  0  0  0  0  0  0
   93.4957   66.9491   29.1623 C   0  0  0  0  0  0  0  0  0  0  0  0
   92.6910   68.9313   29.0426 N   0  0  0  0  0  0  0  0  0  0  0  0
   93.3190   68.7640   28.0344 N   0  0  0  0  0  0  0  0  0  0  0  0
   93.8549   67.5433   28.0339 C   0  0  0  0  0  0  0  0  0  0  0  0
   92.7516   67.8369   29.8032 C   0  0  0  0  0  0  0  0  0  0  0  0
   90.3363   74.0127   31.8099 C   0  0  0  0  0  0  0  0  0  0  0  0
   90.7867   73.3785   32.7626 O   0  0  0  0  0  0  0  0  0  0  0  0
   90.3103   75.3478   31.7347 N   0  0  0  0  0  0  0  0  0  0  0  0
   90.8551   76.0578   32.8180 O   0  0  0  0  0  0  0  0  0  0  0  0
   89.9269   75.8121   30.9558 H   0  0  0  0  0  0  0  0  0  0  0  0
   91.1808   75.4319   33.4837 H   0  0  0  0  0  0  0  0  0  0  0  0
   88.3210   72.9964   30.9738 N   0  0  0  0  0  0  0  0  0  0  0  0
   87.2573   73.5085   30.3406 C   0  0  0  0  0  0  0  0  0  0  0  0
   87.3191   74.2276   29.3457 O   0  0  0  0  0  0  0  0  0  0  0  0
   88.1620   72.3801   31.7249 H   0  0  0  0  0  0  0  0  0  0  0  0
   85.3533   72.0360   30.6402 C   0  0  0  0  0  0  0  0  0  0  0  0
   84.1255   71.7802   31.2438 C   0  0  0  0  0  0  0  0  0  0  0  0
   84.2562   73.8776   32.4201 C   0  0  0  0  0  0  0  0  0  0  0  0
   86.0396   73.2076   30.9405 C   0  0  0  0  0  0  0  0  0  0  0  0
   83.5763   72.6999   32.1318 C   0  0  0  0  0  0  0  0  0  0  0  0
   85.4827   74.1313   31.8188 C   0  0  0  0  0  0  0  0  0  0  0  0
   83.4719   70.6524   30.9711 N   0  0  0  0  0  0  0  0  0  0  0  0
   83.8575   69.9994   30.3433 H   0  0  0  0  0  0  0  0  0  0  0  0
   82.6031   70.4716   31.3974 H   0  0  0  0  0  0  0  0  0  0  0  0
 29 24  1  0  0  0
 16 15  1  0  0  0
 24 23  2  0  0  0
 24 27  1  0  0  0
 23 26  1  0  0  0
 14 13  2  0  0  0
 15 13  1  0  0  0
 27 25  2  0  0  0
 13  1  1  0  0  0
 26 20  1  0  0  0
 26 28  2  0  0  0
 19 20  1  0  0  0
 19  1  1  0  0  0
 20 21  2  0  0  0
  1  4  1  0  0  0
 25 28  1  0  0  0
  4  5  2  0  0  0
  4  3  1  0  0  0
  5  6  1  0  0  0
  3  2  2  0  0  0
  6  7  2  0  0  0
  2  7  1  0  0  0
  7  9  1  0  0  0
  9 10  1  0  0  0
  9 12  1  0  0  0
 10 11  2  0  0  0
 12  8  2  0  0  0
 11  8  1  0  0  0
 19 22  1  0  0  0
 15 17  1  0  0  0
 16 18  1  0  0  0
 29 30  1  0  0  0
 29 31  1  0  0  0
M  END
> <minimizedAffinity>
-7.92369

$$$$
4R76_R5X_A_1004


 31 33  0  0  0  0  0  0  0  0999 V2000
   90.0412   70.5937   29.7371 C   0  0  0  0  0  0  0  0  0  0  0  0
   92.9531   69.9684   31.8606 C   0  0  0  0  0  0  0  0  0  0  0  0
   91.8259   69.7997   31.0735 C   0  0  0  0  0  0  0  0  0  0  0  0
   91.1620   70.8918   30.5240 C   0  0  0  0  0  0  0  0  0  0  0  0
   91.6417   72.1766   30.7561 C   0  0  0  0  0  0  0  0  0  0  0  0
   92.7784   72.3461   31.5504 C   0  0  0  0  0  0  0  0  0  0  0  0
   93.4340   71.2451   32.1003 C   0  0  0  0  0  0  0  0  0  0  0  0
   96.3461   70.8520   33.8468 C   0  0  0  0  0  0  0  0  0  0  0  0
   94.5172   71.3803   32.8634 N   0  0  0  0  0  0  0  0  0  0  0  0
   94.8606   72.3529   33.4757 N   0  0  0  0  0  0  0  0  0  0  0  0
   96.0007   72.1016   34.1194 C   0  0  0  0  0  0  0  0  0  0  0  0
   95.3981   70.3948   33.0437 C   0  0  0  0  0  0  0  0  0  0  0  0
   90.4310   70.5794   28.2616 C   0  0  0  0  0  0  0  0  0  0  0  0
   91.4279   71.1769   27.8594 O   0  0  0  0  0  0  0  0  0  0  0  0
   89.5874   69.9014   27.4756 N   0  0  0  0  0  0  0  0  0  0  0  0
   89.8856   69.8646   26.1030 O   0  0  0  0  0  0  0  0  0  0  0  0
   88.7936   69.4488   27.8421 H   0  0  0  0  0  0  0  0  0  0  0  0
   90.7001   70.3640   25.9355 H   0  0  0  0  0  0  0  0  0  0  0  0
   88.8494   71.4521   29.8522 N   0  0  0  0  0  0  0  0  0  0  0  0
   87.9795   71.3839   30.8686 C   0  0  0  0  0  0  0  0  0  0  0  0
   88.1122   70.6569   31.8508 O   0  0  0  0  0  0  0  0  0  0  0  0
   88.6829   72.1132   29.1420 H   0  0  0  0  0  0  0  0  0  0  0  0
   86.9503   73.5301   30.4021 C   0  0  0  0  0  0  0  0  0  0  0  0
   85.7962   74.2962   30.2667 C   0  0  0  0  0  0  0  0  0  0  0  0
   84.4451   72.3656   30.7640 C   0  0  0  0  0  0  0  0  0  0  0  0
   86.8490   72.1762   30.7033 C   0  0  0  0  0  0  0  0  0  0  0  0
   84.5447   73.7158   30.4485 C   0  0  0  0  0  0  0  0  0  0  0  0
   85.5975   71.6011   30.8969 C   0  0  0  0  0  0  0  0  0  0  0  0
   85.8876   75.5897   29.9632 N   0  0  0  0  0  0  0  0  0  0  0  0
   86.7715   76.0037   29.8339 H   0  0  0  0  0  0  0  0  0  0  0  0
   85.0714   76.1319   29.8680 H   0  0  0  0  0  0  0  0  0  0  0  0
 29 24  1  0  0  0
 16 15  1  0  0  0
 24 23  2  0  0  0
 24 27  1  0  0  0
 23 26  1  0  0  0
 14 13  2  0  0  0
 15 13  1  0  0  0
 27 25  2  0  0  0
 13  1  1  0  0  0
 26 20  1  0  0  0
 26 28  2  0  0  0
 19 20  1  0  0  0
 19  1  1  0  0  0
 20 21  2  0  0  0
  1  4  1  0  0  0
 25 28  1  0  0  0
  4  5  2  0  0  0
  4  3  1  0  0  0
  5  6  1  0  0  0
  3  2  2  0  0  0
  6  7  2  0  0  0
  2  7  1  0  0  0
  7  9  1  0  0  0
  9 10  1  0  0  0
  9 12  1  0  0  0
 10 11  2  0  0  0
 12  8  2  0  0  0
 11  8  1  0  0  0
 19 22  1  0  0  0
 15 17  1  0  0  0
 16 18  1  0  0  0
 29 30  1  0  0  0
 29 31  1  0  0  0
M  END
> <minimizedAffinity>
-7.88192

$$$$
4R76_R5X_A_1004


 31 33  0  0  0  0  0  0  0  0999 V2000
   90.1197   69.8001   32.1151 C   0  0  0  0  0  0  0  0  0  0  0  0
   87.0813   71.3687   30.8165 C   0  0  0  0  0  0  0  0  0  0  0  0
   88.0322   70.4375   31.1999 C   0  0  0  0  0  0  0  0  0  0  0  0
   89.2436   70.8339   31.7574 C   0  0  0  0  0  0  0  0  0  0  0  0
   89.5041   72.1871   31.9462 C   0  0  0  0  0  0  0  0  0  0  0  0
   88.5447   73.1259   31.5589 C   0  0  0  0  0  0  0  0  0  0  0  0
   87.3353   72.7185   30.9969 C   0  0  0  0  0  0  0  0  0  0  0  0
   85.4541   75.4881   30.3078 C   0  0  0  0  0  0  0  0  0  0  0  0
   86.4062   73.5936   30.6164 N   0  0  0  0  0  0  0  0  0  0  0  0
   85.3577   73.3580   30.0837 N   0  0  0  0  0  0  0  0  0  0  0  0
   84.7012   74.4959   29.8565 C   0  0  0  0  0  0  0  0  0  0  0  0
   86.5424   74.9092   30.7909 C   0  0  0  0  0  0  0  0  0  0  0  0
   89.5363   69.0038   33.2791 C   0  0  0  0  0  0  0  0  0  0  0  0
   88.9460   69.5629   34.2020 O   0  0  0  0  0  0  0  0  0  0  0  0
   89.7552   67.6861   33.2097 N   0  0  0  0  0  0  0  0  0  0  0  0
   89.2541   66.9007   34.2615 O   0  0  0  0  0  0  0  0  0  0  0  0
   90.2451   67.2848   32.4559 H   0  0  0  0  0  0  0  0  0  0  0  0
   88.8049   67.4707   34.9051 H   0  0  0  0  0  0  0  0  0  0  0  0
   91.5027   70.1442   32.4881 N   0  0  0  0  0  0  0  0  0  0  0  0
   92.5406   70.0701   31.6445 C   0  0  0  0  0  0  0  0  0  0  0  0
   92.4500   69.7810   30.4532 O   0  0  0  0  0  0  0  0  0  0  0  0
   91.6739   70.4458   33.4095 H   0  0  0  0  0  0  0  0  0  0  0  0
   94.6748   69.2552   32.4594 C   0  0  0  0  0  0  0  0  0  0  0  0
   95.8927   69.5141   33.0815 C   0  0  0  0  0  0  0  0  0  0  0  0
   95.2995   71.8383   33.2964 C   0  0  0  0  0  0  0  0  0  0  0  0
   93.7759   70.2938   32.2421 C   0  0  0  0  0  0  0  0  0  0  0  0
   96.2050   70.8036   33.5010 C   0  0  0  0  0  0  0  0  0  0  0  0
   94.0849   71.5795   32.6735 C   0  0  0  0  0  0  0  0  0  0  0  0
   96.7633   68.5256   33.2779 N   0  0  0  0  0  0  0  0  0  0  0  0
   96.5456   67.6120   32.9824 H   0  0  0  0  0  0  0  0  0  0  0  0
   97.6245   68.7084   33.7185 H   0  0  0  0  0  0  0  0  0  0  0  0
 29 24  1  0  0  0
 16 15  1  0  0  0
 24 23  2  0  0  0
 24 27  1  0  0  0
 23 26  1  0  0  0
 14 13  2  0  0  0
 15 13  1  0  0  0
 27 25  2  0  0  0
 13  1  1  0  0  0
 26 20  1  0  0  0
 26 28  2  0  0  0
 19 20  1  0  0  0
 19  1  1  0  0  0
 20 21  2  0  0  0
  1  4  1  0  0  0
 25 28  1  0  0  0
  4  5  2  0  0  0
  4  3  1  0  0  0
  5  6  1  0  0  0
  3  2  2  0  0  0
  6  7  2  0  0  0
  2  7  1  0  0  0
  7  9  1  0  0  0
  9 10  1  0  0  0
  9 12  1  0  0  0
 10 11  2  0  0  0
 12  8  2  0  0  0
 11  8  1  0  0  0
 19 22  1  0  0  0
 15 17  1  0  0  0
 16 18  1  0  0  0
 29 30  1  0  0  0
 29 31  1  0  0  0
M  END
> <minimizedAffinity>
-7.79302

$$$$
