6DAR_G2J_A_401


 30 34  0  0  0  0  0  0  0  0999 V2000
   20.7604   28.0353    5.1606 O   0  0  0  0  0  0  0  0  0  0  0  0
   21.8196   28.6139    5.4145 C   0  0  0  0  0  0  0  0  0  0  0  0
   22.3847   28.5685    6.6634 N   0  0  0  0  0  0  0  0  0  0  0  0
   22.4438   29.4000    4.2876 C   0  0  0  0  0  0  0  0  0  0  0  0
   22.5751   30.8036    4.3742 C   0  0  0  0  0  0  0  0  0  0  0  0
   23.1428   31.5374    3.3171 C   0  0  0  0  0  0  0  0  0  0  0  0
   23.5530   30.8798    2.1452 C   0  0  0  0  0  0  0  0  0  0  0  0
   23.4095   29.4757    2.0224 C   0  0  0  0  0  0  0  0  0  0  0  0
   22.8619   28.7445    3.1042 C   0  0  0  0  0  0  0  0  0  0  0  0
   23.7924   28.7903    0.8897 O   0  0  0  0  0  0  0  0  0  0  0  0
   24.1677   27.4222    0.9552 C   0  0  0  0  0  0  0  0  0  0  0  0
   23.6548   29.2522    6.9779 C   0  0  0  0  0  0  0  0  0  0  0  0
   24.9357   28.5940    6.4999 C   0  0  0  0  0  0  0  0  0  0  0  0
   26.2749   28.8354    7.1566 C   0  0  0  0  0  0  0  0  0  0  0  0
   25.9857   29.4254    5.7994 C   0  0  0  0  0  0  0  0  0  0  0  0
   21.7798   27.8169    7.7780 C   0  0  0  0  0  0  0  0  0  0  0  0
   22.4746   26.4827    7.9763 C   0  0  0  0  0  0  0  0  0  0  0  0
   23.3455   26.3049    9.0662 C   0  0  0  0  0  0  0  0  0  0  0  0
   24.0065   25.0786    9.2414 C   0  0  0  0  0  0  0  0  0  0  0  0
   23.8050   24.0254    8.3228 C   0  0  0  0  0  0  0  0  0  0  0  0
   22.9479   24.1878    7.2118 C   0  0  0  0  0  0  0  0  0  0  0  0
   22.2952   25.4336    7.0464 C   0  0  0  0  0  0  0  0  0  0  0  0
   22.8007   23.1160    6.2010 C   0  0  0  0  0  0  0  0  0  0  0  0
   23.8153   22.3243    5.7104 C   0  0  0  0  0  0  0  0  0  0  0  0
   23.2147   21.5223    4.7786 N   0  0  0  0  0  0  0  0  0  0  0  0
   23.6416   20.4621    3.8798 C   0  0  0  0  0  0  0  0  0  0  0  0
   22.3244   20.0511    3.1568 C   0  0  0  0  0  0  0  0  0  0  0  0
   21.2061   21.0010    3.6590 C   0  0  0  0  0  0  0  0  0  0  0  0
   21.9308   21.8002    4.6687 C   0  0  0  0  0  0  0  0  0  0  0  0
   21.6389   22.7794    5.5338 N   0  0  0  0  0  0  0  0  0  0  0  0
 11 10  1  0  0  0
 10  8  1  0  0  0
  8  7  2  0  0  0
  8  9  1  0  0  0
  7  6  1  0  0  0
 27 28  1  0  0  0
 27 26  1  0  0  0
  9  4  2  0  0  0
  6  5  2  0  0  0
 28 29  1  0  0  0
 26 25  1  0  0  0
  5  4  1  0  0  0
  4  2  1  0  0  0
 29 25  1  0  0  0
 29 30  2  0  0  0
 25 24  1  0  0  0
  1  2  2  0  0  0
 30 23  1  0  0  0
  2  3  1  0  0  0
 24 23  2  0  0  0
 23 21  1  0  0  0
  3 12  1  0  0  0
  3 16  1  0  0  0
 22 21  2  0  0  0
 22 17  1  0  0  0
 21 20  1  0  0  0
 12 13  1  0  0  0
 16 17  1  0  0  0
 17 18  2  0  0  0
 20 19  2  0  0  0
 13 15  1  0  0  0
 13 14  1  0  0  0
 18 19  1  0  0  0
 15 14  1  0  0  0
M  END
> <minimizedAffinity>
-8.41120

$$$$
6DAR_G2J_A_401


 30 34  0  0  0  0  0  0  0  0999 V2000
   20.6790   28.0648    5.2459 O   0  0  0  0  0  0  0  0  0  0  0  0
   21.7814   28.6096    5.3418 C   0  0  0  0  0  0  0  0  0  0  0  0
   22.4615   28.6566    6.5319 N   0  0  0  0  0  0  0  0  0  0  0  0
   22.3272   29.2490    4.0885 C   0  0  0  0  0  0  0  0  0  0  0  0
   22.9852   28.4711    3.1103 C   0  0  0  0  0  0  0  0  0  0  0  0
   23.5073   29.0699    1.9497 C   0  0  0  0  0  0  0  0  0  0  0  0
   23.4094   30.4600    1.7707 C   0  0  0  0  0  0  0  0  0  0  0  0
   22.7765   31.2669    2.7483 C   0  0  0  0  0  0  0  0  0  0  0  0
   22.2305   30.6489    3.8993 C   0  0  0  0  0  0  0  0  0  0  0  0
   22.6631   32.6340    2.6172 O   0  0  0  0  0  0  0  0  0  0  0  0
   21.4622   33.3050    2.9698 C   0  0  0  0  0  0  0  0  0  0  0  0
   23.7839   29.3007    6.6577 C   0  0  0  0  0  0  0  0  0  0  0  0
   24.9915   28.5051    6.1984 C   0  0  0  0  0  0  0  0  0  0  0  0
   26.0495   27.9990    7.1511 C   0  0  0  0  0  0  0  0  0  0  0  0
   26.3603   29.1455    6.2223 C   0  0  0  0  0  0  0  0  0  0  0  0
   21.9353   28.0492    7.7677 C   0  0  0  0  0  0  0  0  0  0  0  0
   22.5623   26.6903    8.0171 C   0  0  0  0  0  0  0  0  0  0  0  0
   23.3760   26.4944    9.1474 C   0  0  0  0  0  0  0  0  0  0  0  0
   23.9750   25.2442    9.3706 C   0  0  0  0  0  0  0  0  0  0  0  0
   23.7685   24.1849    8.4602 C   0  0  0  0  0  0  0  0  0  0  0  0
   22.9688   24.3646    7.3098 C   0  0  0  0  0  0  0  0  0  0  0  0
   22.3785   25.6340    7.0963 C   0  0  0  0  0  0  0  0  0  0  0  0
   22.8198   23.2827    6.3099 C   0  0  0  0  0  0  0  0  0  0  0  0
   23.8370   22.5005    5.8094 C   0  0  0  0  0  0  0  0  0  0  0  0
   23.2324   21.6832    4.8937 N   0  0  0  0  0  0  0  0  0  0  0  0
   23.6590   20.6214    3.9965 C   0  0  0  0  0  0  0  0  0  0  0  0
   22.3361   20.1874    3.2979 C   0  0  0  0  0  0  0  0  0  0  0  0
   21.2133   21.1266    3.8104 C   0  0  0  0  0  0  0  0  0  0  0  0
   21.9433   21.9434    4.8020 C   0  0  0  0  0  0  0  0  0  0  0  0
   21.6522   22.9255    5.6639 N   0  0  0  0  0  0  0  0  0  0  0  0
 11 10  1  0  0  0
 10  8  1  0  0  0
  8  7  2  0  0  0
  8  9  1  0  0  0
  7  6  1  0  0  0
 27 28  1  0  0  0
 27 26  1  0  0  0
  9  4  2  0  0  0
  6  5  2  0  0  0
 28 29  1  0  0  0
 26 25  1  0  0  0
  5  4  1  0  0  0
  4  2  1  0  0  0
 29 25  1  0  0  0
 29 30  2  0  0  0
 25 24  1  0  0  0
  1  2  2  0  0  0
 30 23  1  0  0  0
  2  3  1  0  0  0
 24 23  2  0  0  0
 23 21  1  0  0  0
  3 12  1  0  0  0
  3 16  1  0  0  0
 22 21  2  0  0  0
 22 17  1  0  0  0
 21 20  1  0  0  0
 12 13  1  0  0  0
 16 17  1  0  0  0
 17 18  2  0  0  0
 20 19  2  0  0  0
 13 15  1  0  0  0
 13 14  1  0  0  0
 18 19  1  0  0  0
 15 14  1  0  0  0
M  END
> <minimizedAffinity>
-8.22336

$$$$
6DAR_G2J_A_401


 30 34  0  0  0  0  0  0  0  0999 V2000
   26.8138   27.6269    6.3420 O   0  0  0  0  0  0  0  0  0  0  0  0
   26.0851   28.5138    6.7932 C   0  0  0  0  0  0  0  0  0  0  0  0
   25.5805   28.4538    8.0671 N   0  0  0  0  0  0  0  0  0  0  0  0
   25.7528   29.6516    5.8592 C   0  0  0  0  0  0  0  0  0  0  0  0
   26.4473   30.8786    5.9423 C   0  0  0  0  0  0  0  0  0  0  0  0
   26.1266   31.9439    5.0818 C   0  0  0  0  0  0  0  0  0  0  0  0
   25.0823   31.8069    4.1519 C   0  0  0  0  0  0  0  0  0  0  0  0
   24.3529   30.5954    4.0650 C   0  0  0  0  0  0  0  0  0  0  0  0
   24.7034   29.5208    4.9177 C   0  0  0  0  0  0  0  0  0  0  0  0
   23.3177   30.4189    3.1726 O   0  0  0  0  0  0  0  0  0  0  0  0
   23.2662   29.2771    2.3296 C   0  0  0  0  0  0  0  0  0  0  0  0
   24.7121   29.5118    8.6202 C   0  0  0  0  0  0  0  0  0  0  0  0
   23.2141   29.2740    8.5791 C   0  0  0  0  0  0  0  0  0  0  0  0
   22.5189   28.6306    7.4019 C   0  0  0  0  0  0  0  0  0  0  0  0
   22.3511   30.1069    7.6593 C   0  0  0  0  0  0  0  0  0  0  0  0
   25.8844   27.3422    8.9864 C   0  0  0  0  0  0  0  0  0  0  0  0
   24.7303   26.3597    9.0540 C   0  0  0  0  0  0  0  0  0  0  0  0
   23.9592   26.2690   10.2267 C   0  0  0  0  0  0  0  0  0  0  0  0
   22.9034   25.3463   10.3009 C   0  0  0  0  0  0  0  0  0  0  0  0
   22.6176   24.5043    9.2040 C   0  0  0  0  0  0  0  0  0  0  0  0
   23.3897   24.5669    8.0228 C   0  0  0  0  0  0  0  0  0  0  0  0
   24.4553   25.4979    7.9681 C   0  0  0  0  0  0  0  0  0  0  0  0
   23.1470   23.6275    6.9043 C   0  0  0  0  0  0  0  0  0  0  0  0
   21.9293   23.3738    6.3130 C   0  0  0  0  0  0  0  0  0  0  0  0
   22.1898   22.4162    5.3710 N   0  0  0  0  0  0  0  0  0  0  0  0
   21.4153   21.6824    4.3832 C   0  0  0  0  0  0  0  0  0  0  0  0
   22.4792   20.7809    3.6890 C   0  0  0  0  0  0  0  0  0  0  0  0
   23.8292   21.0170    4.4149 C   0  0  0  0  0  0  0  0  0  0  0  0
   23.4623   22.0722    5.3820 C   0  0  0  0  0  0  0  0  0  0  0  0
   24.0850   22.8015    6.3162 N   0  0  0  0  0  0  0  0  0  0  0  0
 11 10  1  0  0  0
 10  8  1  0  0  0
  8  7  2  0  0  0
  8  9  1  0  0  0
  7  6  1  0  0  0
 27 28  1  0  0  0
 27 26  1  0  0  0
  9  4  2  0  0  0
  6  5  2  0  0  0
 28 29  1  0  0  0
 26 25  1  0  0  0
  5  4  1  0  0  0
  4  2  1  0  0  0
 29 25  1  0  0  0
 29 30  2  0  0  0
 25 24  1  0  0  0
  1  2  2  0  0  0
 30 23  1  0  0  0
  2  3  1  0  0  0
 24 23  2  0  0  0
 23 21  1  0  0  0
  3 12  1  0  0  0
  3 16  1  0  0  0
 22 21  2  0  0  0
 22 17  1  0  0  0
 21 20  1  0  0  0
 12 13  1  0  0  0
 16 17  1  0  0  0
 17 18  2  0  0  0
 20 19  2  0  0  0
 13 15  1  0  0  0
 13 14  1  0  0  0
 18 19  1  0  0  0
 15 14  1  0  0  0
M  END
> <minimizedAffinity>
-7.47880

$$$$
6DAR_G2J_A_401


 30 34  0  0  0  0  0  0  0  0999 V2000
   20.8624   30.9144    3.8615 O   0  0  0  0  0  0  0  0  0  0  0  0
   22.0620   31.1846    3.7660 C   0  0  0  0  0  0  0  0  0  0  0  0
   22.7084   31.9400    4.7108 N   0  0  0  0  0  0  0  0  0  0  0  0
   22.7728   30.6672    2.5394 C   0  0  0  0  0  0  0  0  0  0  0  0
   23.0282   31.5182    1.4415 C   0  0  0  0  0  0  0  0  0  0  0  0
   23.6768   31.0315    0.2924 C   0  0  0  0  0  0  0  0  0  0  0  0
   24.0454   29.6780    0.2131 C   0  0  0  0  0  0  0  0  0  0  0  0
   23.7784   28.7970    1.2900 C   0  0  0  0  0  0  0  0  0  0  0  0
   23.1497   29.3051    2.4525 C   0  0  0  0  0  0  0  0  0  0  0  0
   24.1168   27.4616    1.2532 O   0  0  0  0  0  0  0  0  0  0  0  0
   24.4967   26.8372    0.0356 C   0  0  0  0  0  0  0  0  0  0  0  0
   24.1450   32.2653    4.6103 C   0  0  0  0  0  0  0  0  0  0  0  0
   25.1324   31.1781    4.9914 C   0  0  0  0  0  0  0  0  0  0  0  0
   25.9296   31.2089    6.2746 C   0  0  0  0  0  0  0  0  0  0  0  0
   26.6148   31.4708    4.9572 C   0  0  0  0  0  0  0  0  0  0  0  0
   22.0248   32.4645    5.9069 C   0  0  0  0  0  0  0  0  0  0  0  0
   22.3167   31.6047    7.1225 C   0  0  0  0  0  0  0  0  0  0  0  0
   22.5612   32.2147    8.3659 C   0  0  0  0  0  0  0  0  0  0  0  0
   22.8523   31.4235    9.4887 C   0  0  0  0  0  0  0  0  0  0  0  0
   22.9071   30.0175    9.3720 C   0  0  0  0  0  0  0  0  0  0  0  0
   22.6814   29.3848    8.1294 C   0  0  0  0  0  0  0  0  0  0  0  0
   22.3966   30.1985    7.0059 C   0  0  0  0  0  0  0  0  0  0  0  0
   22.8221   27.9179    7.9855 C   0  0  0  0  0  0  0  0  0  0  0  0
   23.8941   27.1644    8.4094 C   0  0  0  0  0  0  0  0  0  0  0  0
   23.5982   25.8855    8.0233 N   0  0  0  0  0  0  0  0  0  0  0  0
   24.2407   24.5855    8.1295 C   0  0  0  0  0  0  0  0  0  0  0  0
   23.2243   23.6247    7.4437 C   0  0  0  0  0  0  0  0  0  0  0  0
   22.0602   24.4942    6.9014 C   0  0  0  0  0  0  0  0  0  0  0  0
   22.4462   25.8363    7.3843 C   0  0  0  0  0  0  0  0  0  0  0  0
   21.9371   27.0738    7.3432 N   0  0  0  0  0  0  0  0  0  0  0  0
 11 10  1  0  0  0
 10  8  1  0  0  0
  8  7  2  0  0  0
  8  9  1  0  0  0
  7  6  1  0  0  0
 27 28  1  0  0  0
 27 26  1  0  0  0
  9  4  2  0  0  0
  6  5  2  0  0  0
 28 29  1  0  0  0
 26 25  1  0  0  0
  5  4  1  0  0  0
  4  2  1  0  0  0
 29 25  1  0  0  0
 29 30  2  0  0  0
 25 24  1  0  0  0
  1  2  2  0  0  0
 30 23  1  0  0  0
  2  3  1  0  0  0
 24 23  2  0  0  0
 23 21  1  0  0  0
  3 12  1  0  0  0
  3 16  1  0  0  0
 22 21  2  0  0  0
 22 17  1  0  0  0
 21 20  1  0  0  0
 12 13  1  0  0  0
 16 17  1  0  0  0
 17 18  2  0  0  0
 20 19  2  0  0  0
 13 15  1  0  0  0
 13 14  1  0  0  0
 18 19  1  0  0  0
 15 14  1  0  0  0
M  END
> <minimizedAffinity>
-7.33738

$$$$
6DAR_G2J_A_401


 30 34  0  0  0  0  0  0  0  0999 V2000
   20.5831   28.0008    5.9614 O   0  0  0  0  0  0  0  0  0  0  0  0
   21.6812   28.2590    6.4602 C   0  0  0  0  0  0  0  0  0  0  0  0
   22.4235   29.3372    6.0511 N   0  0  0  0  0  0  0  0  0  0  0  0
   22.1783   27.3081    7.5214 C   0  0  0  0  0  0  0  0  0  0  0  0
   22.4050   27.7560    8.8416 C   0  0  0  0  0  0  0  0  0  0  0  0
   22.8830   26.8729    9.8264 C   0  0  0  0  0  0  0  0  0  0  0  0
   23.1748   25.5395    9.4935 C   0  0  0  0  0  0  0  0  0  0  0  0
   22.9803   25.0709    8.1706 C   0  0  0  0  0  0  0  0  0  0  0  0
   22.4725   25.9621    7.1946 C   0  0  0  0  0  0  0  0  0  0  0  0
   23.2586   23.7736    7.7981 O   0  0  0  0  0  0  0  0  0  0  0  0
   22.5323   23.1411    6.7545 C   0  0  0  0  0  0  0  0  0  0  0  0
   23.7363   29.6596    6.6445 C   0  0  0  0  0  0  0  0  0  0  0  0
   24.9643   29.0645    5.9810 C   0  0  0  0  0  0  0  0  0  0  0  0
   26.2856   28.9052    6.6964 C   0  0  0  0  0  0  0  0  0  0  0  0
   26.1305   29.9596    5.6297 C   0  0  0  0  0  0  0  0  0  0  0  0
   21.9580   30.2668    5.0061 C   0  0  0  0  0  0  0  0  0  0  0  0
   22.5483   29.9082    3.6552 C   0  0  0  0  0  0  0  0  0  0  0  0
   22.8349   28.5647    3.3536 C   0  0  0  0  0  0  0  0  0  0  0  0
   23.4006   28.2310    2.1126 C   0  0  0  0  0  0  0  0  0  0  0  0
   23.6889   29.2409    1.1688 C   0  0  0  0  0  0  0  0  0  0  0  0
   23.4248   30.5982    1.4573 C   0  0  0  0  0  0  0  0  0  0  0  0
   22.8612   30.9175    2.7166 C   0  0  0  0  0  0  0  0  0  0  0  0
   23.8043   31.6666    0.5051 C   0  0  0  0  0  0  0  0  0  0  0  0
   23.6083   31.6400   -0.8579 C   0  0  0  0  0  0  0  0  0  0  0  0
   24.1543   32.8091   -1.3134 N   0  0  0  0  0  0  0  0  0  0  0  0
   24.3118   33.4564   -2.6057 C   0  0  0  0  0  0  0  0  0  0  0  0
   25.0329   34.7917   -2.2539 C   0  0  0  0  0  0  0  0  0  0  0  0
   25.3186   34.7747   -0.7296 C   0  0  0  0  0  0  0  0  0  0  0  0
   24.6766   33.5070   -0.3245 C   0  0  0  0  0  0  0  0  0  0  0  0
   24.4777   32.8323    0.8147 N   0  0  0  0  0  0  0  0  0  0  0  0
 11 10  1  0  0  0
 10  8  1  0  0  0
  8  7  2  0  0  0
  8  9  1  0  0  0
  7  6  1  0  0  0
 27 28  1  0  0  0
 27 26  1  0  0  0
  9  4  2  0  0  0
  6  5  2  0  0  0
 28 29  1  0  0  0
 26 25  1  0  0  0
  5  4  1  0  0  0
  4  2  1  0  0  0
 29 25  1  0  0  0
 29 30  2  0  0  0
 25 24  1  0  0  0
  1  2  2  0  0  0
 30 23  1  0  0  0
  2  3  1  0  0  0
 24 23  2  0  0  0
 23 21  1  0  0  0
  3 12  1  0  0  0
  3 16  1  0  0  0
 22 21  2  0  0  0
 22 17  1  0  0  0
 21 20  1  0  0  0
 12 13  1  0  0  0
 16 17  1  0  0  0
 17 18  2  0  0  0
 20 19  2  0  0  0
 13 15  1  0  0  0
 13 14  1  0  0  0
 18 19  1  0  0  0
 15 14  1  0  0  0
M  END
> <minimizedAffinity>
-7.20831

$$$$
6DAR_G2J_A_401


 30 34  0  0  0  0  0  0  0  0999 V2000
   24.1735   31.0758    8.6391 O   0  0  0  0  0  0  0  0  0  0  0  0
   23.8646   30.2452    9.4970 C   0  0  0  0  0  0  0  0  0  0  0  0
   24.0256   28.8992    9.2884 N   0  0  0  0  0  0  0  0  0  0  0  0
   23.2713   30.7864   10.7747 C   0  0  0  0  0  0  0  0  0  0  0  0
   24.0693   30.9458   11.9291 C   0  0  0  0  0  0  0  0  0  0  0  0
   23.5122   31.4356   13.1240 C   0  0  0  0  0  0  0  0  0  0  0  0
   22.1416   31.7377   13.1889 C   0  0  0  0  0  0  0  0  0  0  0  0
   21.3135   31.5632   12.0527 C   0  0  0  0  0  0  0  0  0  0  0  0
   21.8914   31.0955   10.8476 C   0  0  0  0  0  0  0  0  0  0  0  0
   19.9638   31.8409   12.0726 O   0  0  0  0  0  0  0  0  0  0  0  0
   19.2382   31.8533   13.2933 C   0  0  0  0  0  0  0  0  0  0  0  0
   23.6649   27.8960   10.3097 C   0  0  0  0  0  0  0  0  0  0  0  0
   24.7541   27.4611   11.2724 C   0  0  0  0  0  0  0  0  0  0  0  0
   25.6686   26.2897   10.9995 C   0  0  0  0  0  0  0  0  0  0  0  0
   24.5931   26.1752   12.0501 C   0  0  0  0  0  0  0  0  0  0  0  0
   24.5904   28.3545    8.0406 C   0  0  0  0  0  0  0  0  0  0  0  0
   23.5405   28.2964    6.9467 C   0  0  0  0  0  0  0  0  0  0  0  0
   22.4605   27.4032    7.0632 C   0  0  0  0  0  0  0  0  0  0  0  0
   21.4981   27.3315    6.0433 C   0  0  0  0  0  0  0  0  0  0  0  0
   21.6149   28.1487    4.8977 C   0  0  0  0  0  0  0  0  0  0  0  0
   22.7005   29.0407    4.7524 C   0  0  0  0  0  0  0  0  0  0  0  0
   23.6658   29.0946    5.7871 C   0  0  0  0  0  0  0  0  0  0  0  0
   22.8717   29.8360    3.5152 C   0  0  0  0  0  0  0  0  0  0  0  0
   22.3772   31.1024    3.2949 C   0  0  0  0  0  0  0  0  0  0  0  0
   22.7443   31.4036    2.0116 N   0  0  0  0  0  0  0  0  0  0  0  0
   22.5823   32.5375    1.1160 C   0  0  0  0  0  0  0  0  0  0  0  0
   23.3204   32.0822   -0.1781 C   0  0  0  0  0  0  0  0  0  0  0  0
   23.8038   30.6269    0.0536 C   0  0  0  0  0  0  0  0  0  0  0  0
   23.3948   30.4010    1.4554 C   0  0  0  0  0  0  0  0  0  0  0  0
   23.4937   29.4153    2.3558 N   0  0  0  0  0  0  0  0  0  0  0  0
 11 10  1  0  0  0
 10  8  1  0  0  0
  8  7  2  0  0  0
  8  9  1  0  0  0
  7  6  1  0  0  0
 27 28  1  0  0  0
 27 26  1  0  0  0
  9  4  2  0  0  0
  6  5  2  0  0  0
 28 29  1  0  0  0
 26 25  1  0  0  0
  5  4  1  0  0  0
  4  2  1  0  0  0
 29 25  1  0  0  0
 29 30  2  0  0  0
 25 24  1  0  0  0
  1  2  2  0  0  0
 30 23  1  0  0  0
  2  3  1  0  0  0
 24 23  2  0  0  0
 23 21  1  0  0  0
  3 12  1  0  0  0
  3 16  1  0  0  0
 22 21  2  0  0  0
 22 17  1  0  0  0
 21 20  1  0  0  0
 12 13  1  0  0  0
 16 17  1  0  0  0
 17 18  2  0  0  0
 20 19  2  0  0  0
 13 15  1  0  0  0
 13 14  1  0  0  0
 18 19  1  0  0  0
 15 14  1  0  0  0
M  END
> <minimizedAffinity>
-7.17513

$$$$
6DAR_G2J_A_401


 30 34  0  0  0  0  0  0  0  0999 V2000
   20.6708   27.7617    5.9765 O   0  0  0  0  0  0  0  0  0  0  0  0
   21.7747   28.0309    6.4564 C   0  0  0  0  0  0  0  0  0  0  0  0
   22.4829   29.1366    6.0604 N   0  0  0  0  0  0  0  0  0  0  0  0
   22.3182   27.0627    7.4785 C   0  0  0  0  0  0  0  0  0  0  0  0
   22.4130   25.6841    7.1864 C   0  0  0  0  0  0  0  0  0  0  0  0
   22.9052   24.7801    8.1449 C   0  0  0  0  0  0  0  0  0  0  0  0
   23.2746   25.2394    9.4203 C   0  0  0  0  0  0  0  0  0  0  0  0
   23.1658   26.6135    9.7477 C   0  0  0  0  0  0  0  0  0  0  0  0
   22.6949   27.5179    8.7653 C   0  0  0  0  0  0  0  0  0  0  0  0
   23.5107   27.1070   10.9874 O   0  0  0  0  0  0  0  0  0  0  0  0
   24.4963   26.4634   11.7818 C   0  0  0  0  0  0  0  0  0  0  0  0
   23.8023   29.4722    6.6315 C   0  0  0  0  0  0  0  0  0  0  0  0
   25.0003   28.6956    6.1178 C   0  0  0  0  0  0  0  0  0  0  0  0
   26.2538   28.4883    6.9355 C   0  0  0  0  0  0  0  0  0  0  0  0
   26.2703   29.4329    5.7603 C   0  0  0  0  0  0  0  0  0  0  0  0
   21.9719   30.0838    5.0531 C   0  0  0  0  0  0  0  0  0  0  0  0
   22.5489   29.7855    3.6820 C   0  0  0  0  0  0  0  0  0  0  0  0
   22.8751   28.4621    3.3352 C   0  0  0  0  0  0  0  0  0  0  0  0
   23.4288   28.1846    2.0751 C   0  0  0  0  0  0  0  0  0  0  0  0
   23.6655   29.2311    1.1572 C   0  0  0  0  0  0  0  0  0  0  0  0
   23.3611   30.5695    1.4909 C   0  0  0  0  0  0  0  0  0  0  0  0
   22.8103   30.8321    2.7688 C   0  0  0  0  0  0  0  0  0  0  0  0
   23.6868   31.6778    0.5647 C   0  0  0  0  0  0  0  0  0  0  0  0
   24.0488   32.9553    0.9304 C   0  0  0  0  0  0  0  0  0  0  0  0
   24.2040   33.6275   -0.2514 N   0  0  0  0  0  0  0  0  0  0  0  0
   24.5716   34.9775   -0.6465 C   0  0  0  0  0  0  0  0  0  0  0  0
   24.5333   34.9200   -2.2027 C   0  0  0  0  0  0  0  0  0  0  0  0
   24.0487   33.5016   -2.6008 C   0  0  0  0  0  0  0  0  0  0  0  0
   23.9370   32.8479   -1.2803 C   0  0  0  0  0  0  0  0  0  0  0  0
   23.6151   31.6349   -0.8141 N   0  0  0  0  0  0  0  0  0  0  0  0
 11 10  1  0  0  0
 10  8  1  0  0  0
  8  7  2  0  0  0
  8  9  1  0  0  0
  7  6  1  0  0  0
 27 28  1  0  0  0
 27 26  1  0  0  0
  9  4  2  0  0  0
  6  5  2  0  0  0
 28 29  1  0  0  0
 26 25  1  0  0  0
  5  4  1  0  0  0
  4  2  1  0  0  0
 29 25  1  0  0  0
 29 30  2  0  0  0
 25 24  1  0  0  0
  1  2  2  0  0  0
 30 23  1  0  0  0
  2  3  1  0  0  0
 24 23  2  0  0  0
 23 21  1  0  0  0
  3 12  1  0  0  0
  3 16  1  0  0  0
 22 21  2  0  0  0
 22 17  1  0  0  0
 21 20  1  0  0  0
 12 13  1  0  0  0
 16 17  1  0  0  0
 17 18  2  0  0  0
 20 19  2  0  0  0
 13 15  1  0  0  0
 13 14  1  0  0  0
 18 19  1  0  0  0
 15 14  1  0  0  0
M  END
> <minimizedAffinity>
-7.15636

$$$$
6DAR_G2J_A_401


 30 34  0  0  0  0  0  0  0  0999 V2000
   22.6530   28.3565    4.8035 O   0  0  0  0  0  0  0  0  0  0  0  0
   23.1405   28.9749    5.7528 C   0  0  0  0  0  0  0  0  0  0  0  0
   22.6720   28.8185    7.0322 N   0  0  0  0  0  0  0  0  0  0  0  0
   24.2579   29.9357    5.4272 C   0  0  0  0  0  0  0  0  0  0  0  0
   25.5916   29.6376    5.7839 C   0  0  0  0  0  0  0  0  0  0  0  0
   26.6304   30.5404    5.4940 C   0  0  0  0  0  0  0  0  0  0  0  0
   26.3424   31.7690    4.8762 C   0  0  0  0  0  0  0  0  0  0  0  0
   25.0098   32.1037    4.5306 C   0  0  0  0  0  0  0  0  0  0  0  0
   23.9763   31.1748    4.8026 C   0  0  0  0  0  0  0  0  0  0  0  0
   24.6807   33.2992    3.9292 O   0  0  0  0  0  0  0  0  0  0  0  0
   25.2069   34.5280    4.4091 C   0  0  0  0  0  0  0  0  0  0  0  0
   23.2510   29.5488    8.1772 C   0  0  0  0  0  0  0  0  0  0  0  0
   22.2847   30.1204    9.1979 C   0  0  0  0  0  0  0  0  0  0  0  0
   22.7251   31.0221   10.3275 C   0  0  0  0  0  0  0  0  0  0  0  0
   22.3064   29.6029   10.6178 C   0  0  0  0  0  0  0  0  0  0  0  0
   21.5721   27.8948    7.3640 C   0  0  0  0  0  0  0  0  0  0  0  0
   22.1059   26.5279    7.7497 C   0  0  0  0  0  0  0  0  0  0  0  0
   22.6737   26.3342    9.0217 C   0  0  0  0  0  0  0  0  0  0  0  0
   23.1877   25.0762    9.3748 C   0  0  0  0  0  0  0  0  0  0  0  0
   23.1424   24.0065    8.4543 C   0  0  0  0  0  0  0  0  0  0  0  0
   22.5919   24.1832    7.1655 C   0  0  0  0  0  0  0  0  0  0  0  0
   22.0850   25.4605    6.8235 C   0  0  0  0  0  0  0  0  0  0  0  0
   22.6203   23.0884    6.1691 C   0  0  0  0  0  0  0  0  0  0  0  0
   23.7292   22.3578    5.8040 C   0  0  0  0  0  0  0  0  0  0  0  0
   23.2821   21.5035    4.8332 N   0  0  0  0  0  0  0  0  0  0  0  0
   23.8677   20.4599    4.0074 C   0  0  0  0  0  0  0  0  0  0  0  0
   22.6625   19.9519    3.1611 C   0  0  0  0  0  0  0  0  0  0  0  0
   21.4393   20.8338    3.5234 C   0  0  0  0  0  0  0  0  0  0  0  0
   22.0017   21.6946    4.5846 C   0  0  0  0  0  0  0  0  0  0  0  0
   21.5588   22.6657    5.3927 N   0  0  0  0  0  0  0  0  0  0  0  0
 11 10  1  0  0  0
 10  8  1  0  0  0
  8  7  2  0  0  0
  8  9  1  0  0  0
  7  6  1  0  0  0
 27 28  1  0  0  0
 27 26  1  0  0  0
  9  4  2  0  0  0
  6  5  2  0  0  0
 28 29  1  0  0  0
 26 25  1  0  0  0
  5  4  1  0  0  0
  4  2  1  0  0  0
 29 25  1  0  0  0
 29 30  2  0  0  0
 25 24  1  0  0  0
  1  2  2  0  0  0
 30 23  1  0  0  0
  2  3  1  0  0  0
 24 23  2  0  0  0
 23 21  1  0  0  0
  3 12  1  0  0  0
  3 16  1  0  0  0
 22 21  2  0  0  0
 22 17  1  0  0  0
 21 20  1  0  0  0
 12 13  1  0  0  0
 16 17  1  0  0  0
 17 18  2  0  0  0
 20 19  2  0  0  0
 13 15  1  0  0  0
 13 14  1  0  0  0
 18 19  1  0  0  0
 15 14  1  0  0  0
M  END
> <minimizedAffinity>
-7.05179

$$$$
6DAR_G2J_A_401


 30 34  0  0  0  0  0  0  0  0999 V2000
   21.7918   31.7384    5.1319 O   0  0  0  0  0  0  0  0  0  0  0  0
   22.6223   31.0674    4.5145 C   0  0  0  0  0  0  0  0  0  0  0  0
   22.4804   29.7126    4.3553 N   0  0  0  0  0  0  0  0  0  0  0  0
   23.8180   31.8108    3.9711 C   0  0  0  0  0  0  0  0  0  0  0  0
   25.0189   31.8831    4.7109 C   0  0  0  0  0  0  0  0  0  0  0  0
   26.1279   32.5891    4.2110 C   0  0  0  0  0  0  0  0  0  0  0  0
   26.0369   33.2620    2.9809 C   0  0  0  0  0  0  0  0  0  0  0  0
   24.8357   33.2264    2.2305 C   0  0  0  0  0  0  0  0  0  0  0  0
   23.7353   32.4895    2.7312 C   0  0  0  0  0  0  0  0  0  0  0  0
   24.6997   33.8763    1.0228 O   0  0  0  0  0  0  0  0  0  0  0  0
   24.1200   33.2234   -0.0972 C   0  0  0  0  0  0  0  0  0  0  0  0
   23.4647   28.8999    3.6136 C   0  0  0  0  0  0  0  0  0  0  0  0
   23.1132   28.5102    2.1899 C   0  0  0  0  0  0  0  0  0  0  0  0
   24.0451   27.7167    1.3042 C   0  0  0  0  0  0  0  0  0  0  0  0
   23.8197   29.1833    1.0358 C   0  0  0  0  0  0  0  0  0  0  0  0
   21.3256   28.9702    4.8922 C   0  0  0  0  0  0  0  0  0  0  0  0
   21.7122   28.1806    6.1288 C   0  0  0  0  0  0  0  0  0  0  0  0
   21.6374   26.7763    6.1114 C   0  0  0  0  0  0  0  0  0  0  0  0
   21.9743   26.0430    7.2604 C   0  0  0  0  0  0  0  0  0  0  0  0
   22.3815   26.7114    8.4356 C   0  0  0  0  0  0  0  0  0  0  0  0
   22.4476   28.1216    8.4805 C   0  0  0  0  0  0  0  0  0  0  0  0
   22.0970   28.8456    7.3150 C   0  0  0  0  0  0  0  0  0  0  0  0
   22.7915   28.8279    9.7356 C   0  0  0  0  0  0  0  0  0  0  0  0
   24.0114   28.7916   10.3740 C   0  0  0  0  0  0  0  0  0  0  0  0
   23.8400   29.5490   11.5006 N   0  0  0  0  0  0  0  0  0  0  0  0
   24.6691   29.9564   12.6234 C   0  0  0  0  0  0  0  0  0  0  0  0
   23.7116   30.8422   13.4750 C   0  0  0  0  0  0  0  0  0  0  0  0
   22.3211   30.8112   12.7889 C   0  0  0  0  0  0  0  0  0  0  0  0
   22.6062   30.0060   11.5832 C   0  0  0  0  0  0  0  0  0  0  0  0
   21.9298   29.5816   10.5086 N   0  0  0  0  0  0  0  0  0  0  0  0
 11 10  1  0  0  0
 10  8  1  0  0  0
  8  7  2  0  0  0
  8  9  1  0  0  0
  7  6  1  0  0  0
 27 28  1  0  0  0
 27 26  1  0  0  0
  9  4  2  0  0  0
  6  5  2  0  0  0
 28 29  1  0  0  0
 26 25  1  0  0  0
  5  4  1  0  0  0
  4  2  1  0  0  0
 29 25  1  0  0  0
 29 30  2  0  0  0
 25 24  1  0  0  0
  1  2  2  0  0  0
 30 23  1  0  0  0
  2  3  1  0  0  0
 24 23  2  0  0  0
 23 21  1  0  0  0
  3 12  1  0  0  0
  3 16  1  0  0  0
 22 21  2  0  0  0
 22 17  1  0  0  0
 21 20  1  0  0  0
 12 13  1  0  0  0
 16 17  1  0  0  0
 17 18  2  0  0  0
 20 19  2  0  0  0
 13 15  1  0  0  0
 13 14  1  0  0  0
 18 19  1  0  0  0
 15 14  1  0  0  0
M  END
> <minimizedAffinity>
-6.92085

$$$$
6DAR_G2J_A_401


 30 34  0  0  0  0  0  0  0  0999 V2000
   21.4553   31.6168    5.0271 O   0  0  0  0  0  0  0  0  0  0  0  0
   22.3425   30.9864    4.4469 C   0  0  0  0  0  0  0  0  0  0  0  0
   22.3074   29.6191    4.3458 N   0  0  0  0  0  0  0  0  0  0  0  0
   23.4839   31.7963    3.8822 C   0  0  0  0  0  0  0  0  0  0  0  0
   23.3577   32.4480    2.6356 C   0  0  0  0  0  0  0  0  0  0  0  0
   24.4272   33.1899    2.1026 C   0  0  0  0  0  0  0  0  0  0  0  0
   25.6486   33.2587    2.7935 C   0  0  0  0  0  0  0  0  0  0  0  0
   25.8101   32.5935    4.0340 C   0  0  0  0  0  0  0  0  0  0  0  0
   24.7173   31.8727    4.5735 C   0  0  0  0  0  0  0  0  0  0  0  0
   26.9914   32.6289    4.7428 O   0  0  0  0  0  0  0  0  0  0  0  0
   27.0578   33.2415    6.0224 C   0  0  0  0  0  0  0  0  0  0  0  0
   23.3604   28.8542    3.6490 C   0  0  0  0  0  0  0  0  0  0  0  0
   23.0884   28.4455    2.2133 C   0  0  0  0  0  0  0  0  0  0  0  0
   24.1122   27.7403    1.3545 C   0  0  0  0  0  0  0  0  0  0  0  0
   23.7708   29.1841    1.0849 C   0  0  0  0  0  0  0  0  0  0  0  0
   21.2068   28.8130    4.9044 C   0  0  0  0  0  0  0  0  0  0  0  0
   21.6512   28.0748    6.1532 C   0  0  0  0  0  0  0  0  0  0  0  0
   21.6823   26.6688    6.1585 C   0  0  0  0  0  0  0  0  0  0  0  0
   22.0729   25.9814    7.3189 C   0  0  0  0  0  0  0  0  0  0  0  0
   22.4281   26.6974    8.4829 C   0  0  0  0  0  0  0  0  0  0  0  0
   22.3878   28.1092    8.5051 C   0  0  0  0  0  0  0  0  0  0  0  0
   21.9843   28.7859    7.3284 C   0  0  0  0  0  0  0  0  0  0  0  0
   22.6770   28.8594    9.7484 C   0  0  0  0  0  0  0  0  0  0  0  0
   23.8647   28.8396   10.4453 C   0  0  0  0  0  0  0  0  0  0  0  0
   23.6457   29.6392   11.5339 N   0  0  0  0  0  0  0  0  0  0  0  0
   24.4235   30.0831   12.6793 C   0  0  0  0  0  0  0  0  0  0  0  0
   23.4334   31.0054   13.4510 C   0  0  0  0  0  0  0  0  0  0  0  0
   22.0770   30.9573   12.7007 C   0  0  0  0  0  0  0  0  0  0  0  0
   22.4130   30.1063   11.5405 C   0  0  0  0  0  0  0  0  0  0  0  0
   21.7853   29.6463   10.4511 N   0  0  0  0  0  0  0  0  0  0  0  0
 11 10  1  0  0  0
 10  8  1  0  0  0
  8  7  2  0  0  0
  8  9  1  0  0  0
  7  6  1  0  0  0
 27 28  1  0  0  0
 27 26  1  0  0  0
  9  4  2  0  0  0
  6  5  2  0  0  0
 28 29  1  0  0  0
 26 25  1  0  0  0
  5  4  1  0  0  0
  4  2  1  0  0  0
 29 25  1  0  0  0
 29 30  2  0  0  0
 25 24  1  0  0  0
  1  2  2  0  0  0
 30 23  1  0  0  0
  2  3  1  0  0  0
 24 23  2  0  0  0
 23 21  1  0  0  0
  3 12  1  0  0  0
  3 16  1  0  0  0
 22 21  2  0  0  0
 22 17  1  0  0  0
 21 20  1  0  0  0
 12 13  1  0  0  0
 16 17  1  0  0  0
 17 18  2  0  0  0
 20 19  2  0  0  0
 13 15  1  0  0  0
 13 14  1  0  0  0
 18 19  1  0  0  0
 15 14  1  0  0  0
M  END
> <minimizedAffinity>
-6.90790

$$$$
