2VPN_4CS_A_1311


 12 12  0  0  0  0  0  0  0  0999 V2000
   43.3624   32.2334   32.8699 C   0  0  0  0  0  0  0  0  0  0  0  0
   42.5672   33.3842   33.4751 C   0  0  0  0  0  0  0  0  0  0  0  0
   42.4360   34.4900   32.4352 C   0  0  0  0  0  0  0  0  0  0  0  0
   42.0176   33.9685   31.1413 N   0  0  0  0  0  0  0  0  0  0  0  0
   42.1430   32.7094   30.8022 C   0  0  0  0  0  0  0  0  0  0  0  0
   41.5512   32.2837   29.4820 C   0  0  0  0  0  0  0  0  0  0  0  0
   42.7354   31.8408   31.6089 N   0  0  0  0  0  0  0  0  0  0  0  0
   41.6217   34.5921   30.4904 H   0  0  0  0  0  0  0  0  0  0  0  0
   43.9945   31.3107   34.9564 O   0  0  0  0  0  0  0  0  0  0  0  0
   43.5396   31.0874   33.8082 C   0  0  0  0  0  0  0  0  0  0  0  0
   43.2770   29.9478   33.3947 O   0  0  0  0  0  0  0  0  0  0  0  0
   42.9387   29.8300   32.5288 H   0  0  0  0  0  0  0  0  0  0  0  0
  9 10  2  0  0  0
 10 11  1  0  0  0
 10  1  1  0  0  0
  1  2  1  0  0  0
  1  7  1  0  0  0
  2  3  1  0  0  0
  3  4  1  0  0  0
  4  5  1  0  0  0
  5  6  1  0  0  0
  5  7  2  0  0  0
 11 12  1  0  0  0
  4  8  1  0  0  0
M  END
> <minimizedAffinity>
-7.37763

$$$$
2VPN_4CS_A_1311


 12 12  0  0  0  0  0  0  0  0999 V2000
   42.6896   32.1898   33.3478 C   0  0  0  0  0  0  0  0  0  0  0  0
   42.5262   33.0046   32.0702 C   0  0  0  0  0  0  0  0  0  0  0  0
   41.8409   34.3216   32.4127 C   0  0  0  0  0  0  0  0  0  0  0  0
   42.4527   34.9651   33.5672 N   0  0  0  0  0  0  0  0  0  0  0  0
   43.1941   34.3231   34.4356 C   0  0  0  0  0  0  0  0  0  0  0  0
   43.8686   35.1386   35.5100 C   0  0  0  0  0  0  0  0  0  0  0  0
   43.3703   33.0126   34.3463 N   0  0  0  0  0  0  0  0  0  0  0  0
   42.3018   35.9287   33.7013 H   0  0  0  0  0  0  0  0  0  0  0  0
   44.5046   30.8669   32.5990 O   0  0  0  0  0  0  0  0  0  0  0  0
   43.3642   30.8784   33.1232 C   0  0  0  0  0  0  0  0  0  0  0  0
   42.7451   29.8449   33.4180 O   0  0  0  0  0  0  0  0  0  0  0  0
   41.8952   29.9031   33.8082 H   0  0  0  0  0  0  0  0  0  0  0  0
  9 10  2  0  0  0
 10 11  1  0  0  0
 10  1  1  0  0  0
  1  2  1  0  0  0
  1  7  1  0  0  0
  2  3  1  0  0  0
  3  4  1  0  0  0
  4  5  1  0  0  0
  5  6  1  0  0  0
  5  7  2  0  0  0
 11 12  1  0  0  0
  4  8  1  0  0  0
M  END
> <minimizedAffinity>
-6.11104

$$$$
2VPN_4CS_A_1311


 12 12  0  0  0  0  0  0  0  0999 V2000
   43.1212   33.3950   34.1390 C   0  0  0  0  0  0  0  0  0  0  0  0
   43.9797   32.1431   34.2762 C   0  0  0  0  0  0  0  0  0  0  0  0
   43.2341   30.9669   33.6582 C   0  0  0  0  0  0  0  0  0  0  0  0
   42.7000   31.2958   32.3438 N   0  0  0  0  0  0  0  0  0  0  0  0
   42.5167   32.5260   31.9326 C   0  0  0  0  0  0  0  0  0  0  0  0
   42.0780   32.7222   30.5032 C   0  0  0  0  0  0  0  0  0  0  0  0
   42.7449   33.5554   32.7354 N   0  0  0  0  0  0  0  0  0  0  0  0
   42.4656   30.5583   31.7351 H   0  0  0  0  0  0  0  0  0  0  0  0
   43.3469   35.0701   35.7967 O   0  0  0  0  0  0  0  0  0  0  0  0
   43.7684   34.6134   34.7063 C   0  0  0  0  0  0  0  0  0  0  0  0
   44.6674   35.1578   34.0475 O   0  0  0  0  0  0  0  0  0  0  0  0
   44.9496   34.7796   33.2380 H   0  0  0  0  0  0  0  0  0  0  0  0
  9 10  2  0  0  0
 10 11  1  0  0  0
 10  1  1  0  0  0
  1  2  1  0  0  0
  1  7  1  0  0  0
  2  3  1  0  0  0
  3  4  1  0  0  0
  4  5  1  0  0  0
  5  6  1  0  0  0
  5  7  2  0  0  0
 11 12  1  0  0  0
  4  8  1  0  0  0
M  END
> <minimizedAffinity>
-6.10318

$$$$
2VPN_4CS_A_1311


 12 12  0  0  0  0  0  0  0  0999 V2000
   42.8696   33.4253   32.5932 C   0  0  0  0  0  0  0  0  0  0  0  0
   42.6112   32.0675   33.2355 C   0  0  0  0  0  0  0  0  0  0  0  0
   43.7325   31.7710   34.2235 C   0  0  0  0  0  0  0  0  0  0  0  0
   43.9988   32.9066   35.0957 N   0  0  0  0  0  0  0  0  0  0  0  0
   43.6343   34.1315   34.8080 C   0  0  0  0  0  0  0  0  0  0  0  0
   43.8610   35.1885   35.8595 C   0  0  0  0  0  0  0  0  0  0  0  0
   43.0558   34.4177   33.6505 N   0  0  0  0  0  0  0  0  0  0  0  0
   44.4756   32.7460   35.9420 H   0  0  0  0  0  0  0  0  0  0  0  0
   41.8789   33.3615   30.4440 O   0  0  0  0  0  0  0  0  0  0  0  0
   41.8173   33.8180   31.6115 C   0  0  0  0  0  0  0  0  0  0  0  0
   40.9491   34.6248   31.9772 O   0  0  0  0  0  0  0  0  0  0  0  0
   40.9431   34.9383   32.8602 H   0  0  0  0  0  0  0  0  0  0  0  0
  9 10  2  0  0  0
 10 11  1  0  0  0
 10  1  1  0  0  0
  1  2  1  0  0  0
  1  7  1  0  0  0
  2  3  1  0  0  0
  3  4  1  0  0  0
  4  5  1  0  0  0
  5  6  1  0  0  0
  5  7  2  0  0  0
 11 12  1  0  0  0
  4  8  1  0  0  0
M  END
> <minimizedAffinity>
-5.82763

$$$$
2VPN_4CS_A_1311


 12 12  0  0  0  0  0  0  0  0999 V2000
   43.6543   33.9849   33.5515 C   0  0  0  0  0  0  0  0  0  0  0  0
   42.4691   34.3449   32.6633 C   0  0  0  0  0  0  0  0  0  0  0  0
   42.4124   33.3631   31.4996 C   0  0  0  0  0  0  0  0  0  0  0  0
   42.5432   31.9839   31.9489 N   0  0  0  0  0  0  0  0  0  0  0  0
   43.0530   31.6543   33.1097 C   0  0  0  0  0  0  0  0  0  0  0  0
   43.0097   30.1978   33.4986 C   0  0  0  0  0  0  0  0  0  0  0  0
   43.5526   32.5744   33.9221 N   0  0  0  0  0  0  0  0  0  0  0  0
   42.2337   31.2650   31.3517 H   0  0  0  0  0  0  0  0  0  0  0  0
   42.9009   34.8667   35.6154 O   0  0  0  0  0  0  0  0  0  0  0  0
   43.7939   34.8840   34.7336 C   0  0  0  0  0  0  0  0  0  0  0  0
   44.7663   35.6532   34.7709 O   0  0  0  0  0  0  0  0  0  0  0  0
   45.4085   35.6298   34.0891 H   0  0  0  0  0  0  0  0  0  0  0  0
  9 10  2  0  0  0
 10 11  1  0  0  0
 10  1  1  0  0  0
  1  2  1  0  0  0
  1  7  1  0  0  0
  2  3  1  0  0  0
  3  4  1  0  0  0
  4  5  1  0  0  0
  5  6  1  0  0  0
  5  7  2  0  0  0
 11 12  1  0  0  0
  4  8  1  0  0  0
M  END
> <minimizedAffinity>
-5.22780

$$$$
2VPN_4CS_A_1311


 12 12  0  0  0  0  0  0  0  0999 V2000
   42.2206   33.4795   33.2046 C   0  0  0  0  0  0  0  0  0  0  0  0
   43.5634   34.0330   33.6668 C   0  0  0  0  0  0  0  0  0  0  0  0
   43.9970   33.2845   34.9210 C   0  0  0  0  0  0  0  0  0  0  0  0
   43.8631   31.8428   34.7636 N   0  0  0  0  0  0  0  0  0  0  0  0
   43.0974   31.2895   33.8561 C   0  0  0  0  0  0  0  0  0  0  0  0
   43.1528   29.7884   33.7222 C   0  0  0  0  0  0  0  0  0  0  0  0
   42.3334   32.0286   33.0646 N   0  0  0  0  0  0  0  0  0  0  0  0
   44.3724   31.2560   35.3682 H   0  0  0  0  0  0  0  0  0  0  0  0
   42.2486   33.8678   30.8694 O   0  0  0  0  0  0  0  0  0  0  0  0
   41.7090   34.1408   31.9692 C   0  0  0  0  0  0  0  0  0  0  0  0
   40.8004   34.9768   32.0877 O   0  0  0  0  0  0  0  0  0  0  0  0
   40.4276   35.1474   32.9303 H   0  0  0  0  0  0  0  0  0  0  0  0
  9 10  2  0  0  0
 10 11  1  0  0  0
 10  1  1  0  0  0
  1  2  1  0  0  0
  1  7  1  0  0  0
  2  3  1  0  0  0
  3  4  1  0  0  0
  4  5  1  0  0  0
  5  6  1  0  0  0
  5  7  2  0  0  0
 11 12  1  0  0  0
  4  8  1  0  0  0
M  END
> <minimizedAffinity>
-4.61747

$$$$
