2ZXD_ZXD_A_901


 16 16  0  0  0  0  0  0  0  0999 V2000
   -0.0257   28.3588   25.5480 C   0  0  0  0  0  0  0  0  0  0  0  0
   -0.1908   27.2116   26.4571 N   0  0  0  0  0  0  0  0  0  0  0  0
   -1.6105   26.8385   26.5743 C   0  0  0  0  0  0  0  0  0  0  0  0
   -2.1233   26.4105   25.1929 C   0  0  0  0  0  0  0  0  0  0  0  0
   -3.4875   25.9892   25.2677 O   0  0  0  0  0  0  0  0  0  0  0  0
   -1.9984   27.5885   24.2235 C   0  0  0  0  0  0  0  0  0  0  0  0
   -2.4740   27.2084   22.9316 O   0  0  0  0  0  0  0  0  0  0  0  0
   -0.5274   28.0007   24.1453 C   0  0  0  0  0  0  0  0  0  0  0  0
    0.2352   26.9056   23.6350 O   0  0  0  0  0  0  0  0  0  0  0  0
    0.1668   27.4613   27.3792 H   0  0  0  0  0  0  0  0  0  0  0  0
   -4.0362   26.7245   25.5827 H   0  0  0  0  0  0  0  0  0  0  0  0
   -1.9510   26.4612   22.6014 H   0  0  0  0  0  0  0  0  0  0  0  0
    0.1353   26.1403   24.2226 H   0  0  0  0  0  0  0  0  0  0  0  0
    1.7362   29.5772   26.8508 C   0  0  0  0  0  0  0  0  0  0  0  0
    1.4308   28.8371   25.5444 C   0  0  0  0  0  0  0  0  0  0  0  0
    2.4001   27.6604   25.4007 C   0  0  0  0  0  0  0  0  0  0  0  0
 14 15  1  0  0  0
 15 16  1  0  0  0
 15  1  1  0  0  0
  1  2  1  0  0  0
  1  8  1  0  0  0
  2  3  1  0  0  0
  3  4  1  0  0  0
  4  5  1  0  0  0
  4  6  1  0  0  0
  6  7  1  0  0  0
  6  8  1  0  0  0
  8  9  1  0  0  0
  2 10  1  0  0  0
  5 11  1  0  0  0
  7 12  1  0  0  0
  9 13  1  0  0  0
M  END
> <minimizedAffinity>
-8.09542

$$$$
2ZXD_ZXD_A_901


 16 16  0  0  0  0  0  0  0  0999 V2000
   -2.3438   28.0902   26.7299 C   0  0  0  0  0  0  0  0  0  0  0  0
   -2.1631   27.6702   25.3297 N   0  0  0  0  0  0  0  0  0  0  0  0
   -1.1152   28.4716   24.6753 C   0  0  0  0  0  0  0  0  0  0  0  0
    0.2141   28.2339   25.4039 C   0  0  0  0  0  0  0  0  0  0  0  0
    1.2744   28.9539   24.7701 O   0  0  0  0  0  0  0  0  0  0  0  0
    0.0779   28.6887   26.8591 C   0  0  0  0  0  0  0  0  0  0  0  0
    1.3082   28.4768   27.5526 O   0  0  0  0  0  0  0  0  0  0  0  0
   -1.0453   27.8854   27.5171 C   0  0  0  0  0  0  0  0  0  0  0  0
   -0.6959   26.5001   27.5017 O   0  0  0  0  0  0  0  0  0  0  0  0
   -3.0420   27.7944   24.8271 H   0  0  0  0  0  0  0  0  0  0  0  0
    1.0792   29.9038   24.7932 H   0  0  0  0  0  0  0  0  0  0  0  0
    1.5348   27.5339   27.5285 H   0  0  0  0  0  0  0  0  0  0  0  0
   -0.5715   26.2082   26.5851 H   0  0  0  0  0  0  0  0  0  0  0  0
   -4.4956   28.3749   27.9848 C   0  0  0  0  0  0  0  0  0  0  0  0
   -3.5332   27.3582   27.3620 C   0  0  0  0  0  0  0  0  0  0  0  0
   -4.2904   26.5291   26.3208 C   0  0  0  0  0  0  0  0  0  0  0  0
 14 15  1  0  0  0
 15 16  1  0  0  0
 15  1  1  0  0  0
  1  2  1  0  0  0
  1  8  1  0  0  0
  2  3  1  0  0  0
  3  4  1  0  0  0
  4  5  1  0  0  0
  4  6  1  0  0  0
  6  7  1  0  0  0
  6  8  1  0  0  0
  8  9  1  0  0  0
  2 10  1  0  0  0
  5 11  1  0  0  0
  7 12  1  0  0  0
  9 13  1  0  0  0
M  END
> <minimizedAffinity>
-6.72418

$$$$
2ZXD_ZXD_A_901


 16 16  0  0  0  0  0  0  0  0999 V2000
   -1.9743   27.6589   26.1973 C   0  0  0  0  0  0  0  0  0  0  0  0
   -1.4742   29.0194   26.4591 N   0  0  0  0  0  0  0  0  0  0  0  0
   -0.0029   29.0540   26.4062 C   0  0  0  0  0  0  0  0  0  0  0  0
    0.4487   28.6599   24.9938 C   0  0  0  0  0  0  0  0  0  0  0  0
    1.8723   28.7293   24.8799 O   0  0  0  0  0  0  0  0  0  0  0  0
   -0.0250   27.2356   24.6939 C   0  0  0  0  0  0  0  0  0  0  0  0
    0.3893   26.8507   23.3825 O   0  0  0  0  0  0  0  0  0  0  0  0
   -1.5505   27.1977   24.7990 C   0  0  0  0  0  0  0  0  0  0  0  0
   -2.1054   28.0796   23.8214 O   0  0  0  0  0  0  0  0  0  0  0  0
   -1.7828   29.3169   27.3847 H   0  0  0  0  0  0  0  0  0  0  0  0
    2.2776   28.1157   25.5124 H   0  0  0  0  0  0  0  0  0  0  0  0
    0.0100   27.4613   22.7312 H   0  0  0  0  0  0  0  0  0  0  0  0
   -1.7836   28.9810   23.9793 H   0  0  0  0  0  0  0  0  0  0  0  0
   -3.9839   26.1598   26.1875 C   0  0  0  0  0  0  0  0  0  0  0  0
   -3.4926   27.5955   26.3996 C   0  0  0  0  0  0  0  0  0  0  0  0
   -3.8835   28.0525   27.8079 C   0  0  0  0  0  0  0  0  0  0  0  0
 14 15  1  0  0  0
 15 16  1  0  0  0
 15  1  1  0  0  0
  1  2  1  0  0  0
  1  8  1  0  0  0
  2  3  1  0  0  0
  3  4  1  0  0  0
  4  5  1  0  0  0
  4  6  1  0  0  0
  6  7  1  0  0  0
  6  8  1  0  0  0
  8  9  1  0  0  0
  2 10  1  0  0  0
  5 11  1  0  0  0
  7 12  1  0  0  0
  9 13  1  0  0  0
M  END
> <minimizedAffinity>
-6.41485

$$$$
2ZXD_ZXD_A_901


 16 16  0  0  0  0  0  0  0  0999 V2000
    0.1704   28.0256   25.9246 C   0  0  0  0  0  0  0  0  0  0  0  0
   -0.5148   28.2573   24.6414 N   0  0  0  0  0  0  0  0  0  0  0  0
   -1.4414   27.1538   24.3376 C   0  0  0  0  0  0  0  0  0  0  0  0
   -2.5160   27.0975   25.4313 C   0  0  0  0  0  0  0  0  0  0  0  0
   -3.4706   26.0707   25.1504 O   0  0  0  0  0  0  0  0  0  0  0  0
   -1.8461   26.8254   26.7804 C   0  0  0  0  0  0  0  0  0  0  0  0
   -2.8330   26.7671   27.8111 O   0  0  0  0  0  0  0  0  0  0  0  0
   -0.8500   27.9508   27.0651 C   0  0  0  0  0  0  0  0  0  0  0  0
   -1.5590   29.1885   27.1478 O   0  0  0  0  0  0  0  0  0  0  0  0
    0.1806   28.3245   23.8982 H   0  0  0  0  0  0  0  0  0  0  0  0
   -3.0215   25.2115   25.1190 H   0  0  0  0  0  0  0  0  0  0  0  0
   -3.3091   27.6113   27.8510 H   0  0  0  0  0  0  0  0  0  0  0  0
   -2.0179   29.3549   26.3096 H   0  0  0  0  0  0  0  0  0  0  0  0
    1.9300   28.8483   27.5099 C   0  0  0  0  0  0  0  0  0  0  0  0
    1.2396   29.0976   26.1649 C   0  0  0  0  0  0  0  0  0  0  0  0
    2.2941   29.0873   25.0546 C   0  0  0  0  0  0  0  0  0  0  0  0
 14 15  1  0  0  0
 15 16  1  0  0  0
 15  1  1  0  0  0
  1  2  1  0  0  0
  1  8  1  0  0  0
  2  3  1  0  0  0
  3  4  1  0  0  0
  4  5  1  0  0  0
  4  6  1  0  0  0
  6  7  1  0  0  0
  6  8  1  0  0  0
  8  9  1  0  0  0
  2 10  1  0  0  0
  5 11  1  0  0  0
  7 12  1  0  0  0
  9 13  1  0  0  0
M  END
> <minimizedAffinity>
-6.35727

$$$$
2ZXD_ZXD_A_901


 16 16  0  0  0  0  0  0  0  0999 V2000
   -0.8134   28.1774   26.8208 C   0  0  0  0  0  0  0  0  0  0  0  0
   -0.8487   27.5557   28.1557 N   0  0  0  0  0  0  0  0  0  0  0  0
   -2.1871   27.6843   28.7562 C   0  0  0  0  0  0  0  0  0  0  0  0
   -3.1971   26.9398   27.8731 C   0  0  0  0  0  0  0  0  0  0  0  0
   -4.5063   26.9940   28.4454 O   0  0  0  0  0  0  0  0  0  0  0  0
   -3.2143   27.5777   26.4818 C   0  0  0  0  0  0  0  0  0  0  0  0
   -4.1520   26.8981   25.6461 O   0  0  0  0  0  0  0  0  0  0  0  0
   -1.8089   27.4833   25.8856 C   0  0  0  0  0  0  0  0  0  0  0  0
   -1.4524   26.1061   25.7528 O   0  0  0  0  0  0  0  0  0  0  0  0
   -0.1663   28.0165   28.7576 H   0  0  0  0  0  0  0  0  0  0  0  0
   -4.7889   27.9189   28.5193 H   0  0  0  0  0  0  0  0  0  0  0  0
   -3.9003   25.9644   25.5704 H   0  0  0  0  0  0  0  0  0  0  0  0
   -1.4729   25.6813   26.6246 H   0  0  0  0  0  0  0  0  0  0  0  0
    0.6159   28.7378   24.8386 C   0  0  0  0  0  0  0  0  0  0  0  0
    0.6146   28.1733   26.2630 C   0  0  0  0  0  0  0  0  0  0  0  0
    1.5518   29.0156   27.1331 C   0  0  0  0  0  0  0  0  0  0  0  0
 14 15  1  0  0  0
 15 16  1  0  0  0
 15  1  1  0  0  0
  1  2  1  0  0  0
  1  8  1  0  0  0
  2  3  1  0  0  0
  3  4  1  0  0  0
  4  5  1  0  0  0
  4  6  1  0  0  0
  6  7  1  0  0  0
  6  8  1  0  0  0
  8  9  1  0  0  0
  2 10  1  0  0  0
  5 11  1  0  0  0
  7 12  1  0  0  0
  9 13  1  0  0  0
M  END
> <minimizedAffinity>
-6.33606

$$$$
2ZXD_ZXD_A_901


 16 16  0  0  0  0  0  0  0  0999 V2000
   -4.4926   26.6303   27.1515 C   0  0  0  0  0  0  0  0  0  0  0  0
   -3.8265   27.7794   27.7882 N   0  0  0  0  0  0  0  0  0  0  0  0
   -2.4294   27.4542   28.1213 C   0  0  0  0  0  0  0  0  0  0  0  0
   -1.6729   27.1432   26.8231 C   0  0  0  0  0  0  0  0  0  0  0  0
   -0.2954   26.8710   27.0928 O   0  0  0  0  0  0  0  0  0  0  0  0
   -2.3162   25.9311   26.1448 C   0  0  0  0  0  0  0  0  0  0  0  0
   -1.6224   25.6253   24.9345 O   0  0  0  0  0  0  0  0  0  0  0  0
   -3.7800   26.2600   25.8466 C   0  0  0  0  0  0  0  0  0  0  0  0
   -3.8329   27.3690   24.9473 O   0  0  0  0  0  0  0  0  0  0  0  0
   -4.3260   28.0240   28.6432 H   0  0  0  0  0  0  0  0  0  0  0  0
   -0.2267   26.1007   27.6783 H   0  0  0  0  0  0  0  0  0  0  0  0
   -1.6620   26.3887   24.3373 H   0  0  0  0  0  0  0  0  0  0  0  0
   -3.3959   28.1346   25.3520 H   0  0  0  0  0  0  0  0  0  0  0  0
   -6.8235   25.8896   27.7033 C   0  0  0  0  0  0  0  0  0  0  0  0
   -5.9833   26.9206   26.9424 C   0  0  0  0  0  0  0  0  0  0  0  0
   -6.3493   28.3231   27.4363 C   0  0  0  0  0  0  0  0  0  0  0  0
 14 15  1  0  0  0
 15 16  1  0  0  0
 15  1  1  0  0  0
  1  2  1  0  0  0
  1  8  1  0  0  0
  2  3  1  0  0  0
  3  4  1  0  0  0
  4  5  1  0  0  0
  4  6  1  0  0  0
  6  7  1  0  0  0
  6  8  1  0  0  0
  8  9  1  0  0  0
  2 10  1  0  0  0
  5 11  1  0  0  0
  7 12  1  0  0  0
  9 13  1  0  0  0
M  END
> <minimizedAffinity>
-6.32886

$$$$
2ZXD_ZXD_A_901


 16 16  0  0  0  0  0  0  0  0999 V2000
   -1.6287   28.0685   26.9651 C   0  0  0  0  0  0  0  0  0  0  0  0
   -2.1964   26.9731   26.1604 N   0  0  0  0  0  0  0  0  0  0  0  0
   -2.2153   27.3304   24.7319 C   0  0  0  0  0  0  0  0  0  0  0  0
   -0.7721   27.5502   24.2597 C   0  0  0  0  0  0  0  0  0  0  0  0
   -0.7369   27.8498   22.8621 O   0  0  0  0  0  0  0  0  0  0  0  0
   -0.1547   28.7054   25.0517 C   0  0  0  0  0  0  0  0  0  0  0  0
    1.1897   28.9260   24.6231 O   0  0  0  0  0  0  0  0  0  0  0  0
   -0.1836   28.3466   26.5384 C   0  0  0  0  0  0  0  0  0  0  0  0
    0.6059   27.1745   26.7486 O   0  0  0  0  0  0  0  0  0  0  0  0
   -3.1500   26.7887   26.4718 H   0  0  0  0  0  0  0  0  0  0  0  0
   -1.2406   28.6613   22.6926 H   0  0  0  0  0  0  0  0  0  0  0  0
    1.7110   28.1207   24.7665 H   0  0  0  0  0  0  0  0  0  0  0  0
    0.2454   26.4432   26.2231 H   0  0  0  0  0  0  0  0  0  0  0  0
   -2.9492   28.4983   29.0526 C   0  0  0  0  0  0  0  0  0  0  0  0
   -1.7473   27.7546   28.4609 C   0  0  0  0  0  0  0  0  0  0  0  0
   -1.9249   26.2524   28.6995 C   0  0  0  0  0  0  0  0  0  0  0  0
 14 15  1  0  0  0
 15 16  1  0  0  0
 15  1  1  0  0  0
  1  2  1  0  0  0
  1  8  1  0  0  0
  2  3  1  0  0  0
  3  4  1  0  0  0
  4  5  1  0  0  0
  4  6  1  0  0  0
  6  7  1  0  0  0
  6  8  1  0  0  0
  8  9  1  0  0  0
  2 10  1  0  0  0
  5 11  1  0  0  0
  7 12  1  0  0  0
  9 13  1  0  0  0
M  END
> <minimizedAffinity>
-6.28073

$$$$
2ZXD_ZXD_A_901


 16 16  0  0  0  0  0  0  0  0999 V2000
   -1.1417   27.8174   26.0644 C   0  0  0  0  0  0  0  0  0  0  0  0
   -2.4843   27.5490   25.5212 N   0  0  0  0  0  0  0  0  0  0  0  0
   -3.2562   26.6922   26.4369 C   0  0  0  0  0  0  0  0  0  0  0  0
   -3.4365   27.4315   27.7693 C   0  0  0  0  0  0  0  0  0  0  0  0
   -4.2265   26.6569   28.6750 O   0  0  0  0  0  0  0  0  0  0  0  0
   -2.0610   27.7018   28.3840 C   0  0  0  0  0  0  0  0  0  0  0  0
   -2.2098   28.3880   29.6277 O   0  0  0  0  0  0  0  0  0  0  0  0
   -1.2487   28.5513   27.4052 C   0  0  0  0  0  0  0  0  0  0  0  0
   -1.9155   29.7997   27.2096 O   0  0  0  0  0  0  0  0  0  0  0  0
   -2.3930   27.0792   24.6205 H   0  0  0  0  0  0  0  0  0  0  0  0
   -3.7818   25.8132   28.8517 H   0  0  0  0  0  0  0  0  0  0  0  0
   -2.6687   29.2297   29.4796 H   0  0  0  0  0  0  0  0  0  0  0  0
   -2.8034   29.6396   26.8533 H   0  0  0  0  0  0  0  0  0  0  0  0
    1.1937   28.2993   25.2900 C   0  0  0  0  0  0  0  0  0  0  0  0
   -0.2917   28.5833   25.0440 C   0  0  0  0  0  0  0  0  0  0  0  0
   -0.6456   28.1760   23.6109 C   0  0  0  0  0  0  0  0  0  0  0  0
 14 15  1  0  0  0
 15 16  1  0  0  0
 15  1  1  0  0  0
  1  2  1  0  0  0
  1  8  1  0  0  0
  2  3  1  0  0  0
  3  4  1  0  0  0
  4  5  1  0  0  0
  4  6  1  0  0  0
  6  7  1  0  0  0
  6  8  1  0  0  0
  8  9  1  0  0  0
  2 10  1  0  0  0
  5 11  1  0  0  0
  7 12  1  0  0  0
  9 13  1  0  0  0
M  END
> <minimizedAffinity>
-6.15198

$$$$
2ZXD_ZXD_A_901


 16 16  0  0  0  0  0  0  0  0999 V2000
   -1.9932   27.1538   26.9157 C   0  0  0  0  0  0  0  0  0  0  0  0
   -1.6057   28.5542   26.6741 N   0  0  0  0  0  0  0  0  0  0  0  0
   -0.7194   28.6559   25.5024 C   0  0  0  0  0  0  0  0  0  0  0  0
   -1.4821   28.1676   24.2638 C   0  0  0  0  0  0  0  0  0  0  0  0
   -0.6762   28.2965   23.0898 O   0  0  0  0  0  0  0  0  0  0  0  0
   -1.8762   26.7018   24.4619 C   0  0  0  0  0  0  0  0  0  0  0  0
   -2.5857   26.2293   23.3161 O   0  0  0  0  0  0  0  0  0  0  0  0
   -2.7563   26.5986   25.7086 C   0  0  0  0  0  0  0  0  0  0  0  0
   -3.9430   27.3677   25.5043 O   0  0  0  0  0  0  0  0  0  0  0  0
   -1.1176   28.9126   27.4949 H   0  0  0  0  0  0  0  0  0  0  0  0
    0.1250   27.7584   23.1869 H   0  0  0  0  0  0  0  0  0  0  0  0
   -3.3846   26.7642   23.1871 H   0  0  0  0  0  0  0  0  0  0  0  0
   -3.7042   28.2936   25.3418 H   0  0  0  0  0  0  0  0  0  0  0  0
   -1.9360   26.3484   29.2893 C   0  0  0  0  0  0  0  0  0  0  0  0
   -2.7917   27.0337   28.2189 C   0  0  0  0  0  0  0  0  0  0  0  0
   -3.2237   28.4099   28.7329 C   0  0  0  0  0  0  0  0  0  0  0  0
 14 15  1  0  0  0
 15 16  1  0  0  0
 15  1  1  0  0  0
  1  2  1  0  0  0
  1  8  1  0  0  0
  2  3  1  0  0  0
  3  4  1  0  0  0
  4  5  1  0  0  0
  4  6  1  0  0  0
  6  7  1  0  0  0
  6  8  1  0  0  0
  8  9  1  0  0  0
  2 10  1  0  0  0
  5 11  1  0  0  0
  7 12  1  0  0  0
  9 13  1  0  0  0
M  END
> <minimizedAffinity>
-6.08356

$$$$
2ZXD_ZXD_A_901


 16 16  0  0  0  0  0  0  0  0999 V2000
   -4.4937   27.5229   27.1239 C   0  0  0  0  0  0  0  0  0  0  0  0
   -3.9193   26.4994   26.2339 N   0  0  0  0  0  0  0  0  0  0  0  0
   -2.4735   26.7148   26.0553 C   0  0  0  0  0  0  0  0  0  0  0  0
   -1.7832   26.5808   27.4191 C   0  0  0  0  0  0  0  0  0  0  0  0
   -0.3675   26.7317   27.2868 O   0  0  0  0  0  0  0  0  0  0  0  0
   -2.3308   27.6509   28.3668 C   0  0  0  0  0  0  0  0  0  0  0  0
   -1.6967   27.5426   29.6419 O   0  0  0  0  0  0  0  0  0  0  0  0
   -3.8405   27.4496   28.5080 C   0  0  0  0  0  0  0  0  0  0  0  0
   -4.0860   26.1634   29.0797 O   0  0  0  0  0  0  0  0  0  0  0  0
   -4.3797   26.5498   25.3251 H   0  0  0  0  0  0  0  0  0  0  0  0
   -0.1681   27.6109   26.9287 H   0  0  0  0  0  0  0  0  0  0  0  0
   -1.8673   26.6632   30.0142 H   0  0  0  0  0  0  0  0  0  0  0  0
   -3.7115   25.4774   28.5053 H   0  0  0  0  0  0  0  0  0  0  0  0
   -6.5767   28.3050   28.2795 C   0  0  0  0  0  0  0  0  0  0  0  0
   -6.0191   27.3850   27.1885 C   0  0  0  0  0  0  0  0  0  0  0  0
   -6.6658   27.7516   25.8497 C   0  0  0  0  0  0  0  0  0  0  0  0
 14 15  1  0  0  0
 15 16  1  0  0  0
 15  1  1  0  0  0
  1  2  1  0  0  0
  1  8  1  0  0  0
  2  3  1  0  0  0
  3  4  1  0  0  0
  4  5  1  0  0  0
  4  6  1  0  0  0
  6  7  1  0  0  0
  6  8  1  0  0  0
  8  9  1  0  0  0
  2 10  1  0  0  0
  5 11  1  0  0  0
  7 12  1  0  0  0
  9 13  1  0  0  0
M  END
> <minimizedAffinity>
-5.84173

$$$$
