3VD9_IPT_A_2001


 19 19  0  0  0  0  0  0  0  0999 V2000
  -14.8660  -27.8986  -26.2628 C   0  0  0  0  0  0  0  0  0  0  0  0
  -13.7108  -27.5870  -25.2991 C   0  0  0  0  0  0  0  0  0  0  0  0
  -14.1132  -26.5571  -24.4029 O   0  0  0  0  0  0  0  0  0  0  0  0
  -12.4316  -27.1381  -26.0183 C   0  0  0  0  0  0  0  0  0  0  0  0
  -11.3267  -27.1168  -25.0970 O   0  0  0  0  0  0  0  0  0  0  0  0
  -12.1112  -28.0310  -27.2160 C   0  0  0  0  0  0  0  0  0  0  0  0
  -11.6435  -29.2985  -26.7417 O   0  0  0  0  0  0  0  0  0  0  0  0
  -13.3697  -28.1961  -28.0757 C   0  0  0  0  0  0  0  0  0  0  0  0
  -14.3945  -28.7813  -27.2755 O   0  0  0  0  0  0  0  0  0  0  0  0
  -14.3088  -25.7502  -24.9046 H   0  0  0  0  0  0  0  0  0  0  0  0
  -11.1728  -28.0118  -24.7560 H   0  0  0  0  0  0  0  0  0  0  0  0
  -12.3290  -29.7116  -26.1936 H   0  0  0  0  0  0  0  0  0  0  0  0
  -13.2126  -29.0627  -29.3184 C   0  0  0  0  0  0  0  0  0  0  0  0
  -11.8456  -29.1464  -29.7341 O   0  0  0  0  0  0  0  0  0  0  0  0
  -11.5193  -28.2596  -29.9529 H   0  0  0  0  0  0  0  0  0  0  0  0
  -16.1882  -28.6868  -25.3935 S   0  0  0  0  0  0  0  0  0  0  0  0
  -17.8070  -28.5494  -26.1208 C   0  0  0  0  0  0  0  0  0  0  0  0
  -18.4862  -27.2881  -25.6075 C   0  0  0  0  0  0  0  0  0  0  0  0
  -17.8166  -28.5848  -27.6489 C   0  0  0  0  0  0  0  0  0  0  0  0
  1  2  1  0  0  0
  1  9  1  0  0  0
  1 16  1  0  0  0
  2  3  1  0  0  0
  2  4  1  0  0  0
  4  5  1  0  0  0
  4  6  1  0  0  0
  6  7  1  0  0  0
  6  8  1  0  0  0
  8  9  1  0  0  0
  8 13  1  0  0  0
 13 14  1  0  0  0
 16 17  1  0  0  0
 17 18  1  0  0  0
 17 19  1  0  0  0
  3 10  1  0  0  0
  5 11  1  0  0  0
  7 12  1  0  0  0
 14 15  1  0  0  0
M  END
> <minimizedAffinity>
-7.39603

$$$$
3VD9_IPT_A_2001


 19 19  0  0  0  0  0  0  0  0999 V2000
  -13.6724  -27.8111  -25.7294 C   0  0  0  0  0  0  0  0  0  0  0  0
  -14.1349  -27.8785  -27.1928 C   0  0  0  0  0  0  0  0  0  0  0  0
  -15.4920  -28.3054  -27.2361 O   0  0  0  0  0  0  0  0  0  0  0  0
  -13.2929  -28.8362  -28.0466 C   0  0  0  0  0  0  0  0  0  0  0  0
  -13.6013  -28.6585  -29.4407 O   0  0  0  0  0  0  0  0  0  0  0  0
  -11.7965  -28.6472  -27.8023 C   0  0  0  0  0  0  0  0  0  0  0  0
  -11.3770  -27.4171  -28.4031 O   0  0  0  0  0  0  0  0  0  0  0  0
  -11.5264  -28.6422  -26.2933 C   0  0  0  0  0  0  0  0  0  0  0  0
  -12.2683  -27.5781  -25.7013 O   0  0  0  0  0  0  0  0  0  0  0  0
  -15.5627  -29.1967  -26.8598 H   0  0  0  0  0  0  0  0  0  0  0  0
  -13.3779  -27.7534  -29.7085 H   0  0  0  0  0  0  0  0  0  0  0  0
  -11.8728  -26.6807  -28.0123 H   0  0  0  0  0  0  0  0  0  0  0  0
  -10.0704  -28.4648  -25.8828 C   0  0  0  0  0  0  0  0  0  0  0  0
   -9.9524  -27.7314  -24.6595 O   0  0  0  0  0  0  0  0  0  0  0  0
  -10.3335  -26.8468  -24.7748 H   0  0  0  0  0  0  0  0  0  0  0  0
  -14.4852  -26.4816  -24.8946 S   0  0  0  0  0  0  0  0  0  0  0  0
  -15.9766  -26.8930  -24.0143 C   0  0  0  0  0  0  0  0  0  0  0  0
  -15.9485  -26.2403  -22.6400 C   0  0  0  0  0  0  0  0  0  0  0  0
  -17.2648  -26.5365  -24.7558 C   0  0  0  0  0  0  0  0  0  0  0  0
  1  2  1  0  0  0
  1  9  1  0  0  0
  1 16  1  0  0  0
  2  3  1  0  0  0
  2  4  1  0  0  0
  4  5  1  0  0  0
  4  6  1  0  0  0
  6  7  1  0  0  0
  6  8  1  0  0  0
  8  9  1  0  0  0
  8 13  1  0  0  0
 13 14  1  0  0  0
 16 17  1  0  0  0
 17 18  1  0  0  0
 17 19  1  0  0  0
  3 10  1  0  0  0
  5 11  1  0  0  0
  7 12  1  0  0  0
 14 15  1  0  0  0
M  END
> <minimizedAffinity>
-6.74372

$$$$
3VD9_IPT_A_2001


 19 19  0  0  0  0  0  0  0  0999 V2000
  -13.8972  -27.8425  -25.8699 C   0  0  0  0  0  0  0  0  0  0  0  0
  -15.1425  -28.4631  -26.5214 C   0  0  0  0  0  0  0  0  0  0  0  0
  -14.8402  -28.8176  -27.8663 O   0  0  0  0  0  0  0  0  0  0  0  0
  -16.3534  -27.5204  -26.5238 C   0  0  0  0  0  0  0  0  0  0  0  0
  -17.5409  -28.2401  -26.9006 O   0  0  0  0  0  0  0  0  0  0  0  0
  -16.5473  -26.8425  -25.1683 C   0  0  0  0  0  0  0  0  0  0  0  0
  -17.0414  -27.8056  -24.2310 O   0  0  0  0  0  0  0  0  0  0  0  0
  -15.2109  -26.2551  -24.7001 C   0  0  0  0  0  0  0  0  0  0  0  0
  -14.2591  -27.3121  -24.5993 O   0  0  0  0  0  0  0  0  0  0  0  0
  -14.6084  -28.0196  -28.3667 H   0  0  0  0  0  0  0  0  0  0  0  0
  -17.7149  -28.9394  -26.2512 H   0  0  0  0  0  0  0  0  0  0  0  0
  -16.4057  -28.5338  -24.1502 H   0  0  0  0  0  0  0  0  0  0  0  0
  -15.2383  -25.5383  -23.3565 C   0  0  0  0  0  0  0  0  0  0  0  0
  -15.1367  -26.4585  -22.2650 O   0  0  0  0  0  0  0  0  0  0  0  0
  -15.8899  -27.0694  -22.2859 H   0  0  0  0  0  0  0  0  0  0  0  0
  -12.6533  -29.0767  -25.6363 S   0  0  0  0  0  0  0  0  0  0  0  0
  -11.1648  -28.8922  -26.5948 C   0  0  0  0  0  0  0  0  0  0  0  0
  -11.3925  -27.8581  -27.6877 C   0  0  0  0  0  0  0  0  0  0  0  0
   -9.9243  -28.5449  -25.7720 C   0  0  0  0  0  0  0  0  0  0  0  0
  1  2  1  0  0  0
  1  9  1  0  0  0
  1 16  1  0  0  0
  2  3  1  0  0  0
  2  4  1  0  0  0
  4  5  1  0  0  0
  4  6  1  0  0  0
  6  7  1  0  0  0
  6  8  1  0  0  0
  8  9  1  0  0  0
  8 13  1  0  0  0
 13 14  1  0  0  0
 16 17  1  0  0  0
 17 18  1  0  0  0
 17 19  1  0  0  0
  3 10  1  0  0  0
  5 11  1  0  0  0
  7 12  1  0  0  0
 14 15  1  0  0  0
M  END
> <minimizedAffinity>
-6.06822

$$$$
3VD9_IPT_A_2001


 19 19  0  0  0  0  0  0  0  0999 V2000
  -14.7718  -28.7952  -27.5518 C   0  0  0  0  0  0  0  0  0  0  0  0
  -13.9519  -29.0200  -28.8315 C   0  0  0  0  0  0  0  0  0  0  0  0
  -14.3288  -30.2612  -29.4173 O   0  0  0  0  0  0  0  0  0  0  0  0
  -12.4379  -29.0365  -28.5810 C   0  0  0  0  0  0  0  0  0  0  0  0
  -11.7282  -28.9864  -29.8316 O   0  0  0  0  0  0  0  0  0  0  0  0
  -12.0007  -27.8885  -27.6725 C   0  0  0  0  0  0  0  0  0  0  0  0
  -12.0722  -26.6602  -28.4048 O   0  0  0  0  0  0  0  0  0  0  0  0
  -12.9085  -27.8460  -26.4377 C   0  0  0  0  0  0  0  0  0  0  0  0
  -14.2548  -27.6583  -26.8684 O   0  0  0  0  0  0  0  0  0  0  0  0
  -14.1261  -30.9837  -28.8026 H   0  0  0  0  0  0  0  0  0  0  0  0
  -11.9405  -28.1588  -30.2909 H   0  0  0  0  0  0  0  0  0  0  0  0
  -12.9827  -26.5163  -28.7069 H   0  0  0  0  0  0  0  0  0  0  0  0
  -12.5978  -26.7505  -25.4262 C   0  0  0  0  0  0  0  0  0  0  0  0
  -13.7226  -25.8907  -25.2170 O   0  0  0  0  0  0  0  0  0  0  0  0
  -13.9590  -25.4585  -26.0526 H   0  0  0  0  0  0  0  0  0  0  0  0
  -16.4649  -28.4909  -27.9592 S   0  0  0  0  0  0  0  0  0  0  0  0
  -17.5424  -28.0731  -26.6055 C   0  0  0  0  0  0  0  0  0  0  0  0
  -18.9787  -28.4067  -26.9814 C   0  0  0  0  0  0  0  0  0  0  0  0
  -17.1661  -28.7262  -25.2757 C   0  0  0  0  0  0  0  0  0  0  0  0
  1  2  1  0  0  0
  1  9  1  0  0  0
  1 16  1  0  0  0
  2  3  1  0  0  0
  2  4  1  0  0  0
  4  5  1  0  0  0
  4  6  1  0  0  0
  6  7  1  0  0  0
  6  8  1  0  0  0
  8  9  1  0  0  0
  8 13  1  0  0  0
 13 14  1  0  0  0
 16 17  1  0  0  0
 17 18  1  0  0  0
 17 19  1  0  0  0
  3 10  1  0  0  0
  5 11  1  0  0  0
  7 12  1  0  0  0
 14 15  1  0  0  0
M  END
> <minimizedAffinity>
-5.69724

$$$$
3VD9_IPT_A_2001


 19 19  0  0  0  0  0  0  0  0999 V2000
  -16.3984  -27.8455  -26.2760 C   0  0  0  0  0  0  0  0  0  0  0  0
  -16.0540  -27.0333  -25.0182 C   0  0  0  0  0  0  0  0  0  0  0  0
  -17.0949  -26.0958  -24.7664 O   0  0  0  0  0  0  0  0  0  0  0  0
  -14.7273  -26.2714  -25.1384 C   0  0  0  0  0  0  0  0  0  0  0  0
  -14.3361  -25.7520  -23.8549 O   0  0  0  0  0  0  0  0  0  0  0  0
  -13.6198  -27.1490  -25.7196 C   0  0  0  0  0  0  0  0  0  0  0  0
  -13.2161  -28.1055  -24.7335 O   0  0  0  0  0  0  0  0  0  0  0  0
  -14.1369  -27.8467  -26.9829 C   0  0  0  0  0  0  0  0  0  0  0  0
  -15.2711  -28.6376  -26.6347 O   0  0  0  0  0  0  0  0  0  0  0  0
  -17.1609  -25.4781  -25.5113 H   0  0  0  0  0  0  0  0  0  0  0  0
  -14.1973  -26.4870  -23.2374 H   0  0  0  0  0  0  0  0  0  0  0  0
  -13.9769  -28.6529  -24.4836 H   0  0  0  0  0  0  0  0  0  0  0  0
  -13.1432  -28.7617  -27.6866 C   0  0  0  0  0  0  0  0  0  0  0  0
  -12.5411  -28.1189  -28.8148 O   0  0  0  0  0  0  0  0  0  0  0  0
  -13.2283  -27.8840  -29.4578 H   0  0  0  0  0  0  0  0  0  0  0  0
  -17.7658  -28.9182  -25.9525 S   0  0  0  0  0  0  0  0  0  0  0  0
  -18.6953  -29.4653  -27.3685 C   0  0  0  0  0  0  0  0  0  0  0  0
  -17.9430  -29.0983  -28.6393 C   0  0  0  0  0  0  0  0  0  0  0  0
  -19.0434  -30.9536  -27.3572 C   0  0  0  0  0  0  0  0  0  0  0  0
  1  2  1  0  0  0
  1  9  1  0  0  0
  1 16  1  0  0  0
  2  3  1  0  0  0
  2  4  1  0  0  0
  4  5  1  0  0  0
  4  6  1  0  0  0
  6  7  1  0  0  0
  6  8  1  0  0  0
  8  9  1  0  0  0
  8 13  1  0  0  0
 13 14  1  0  0  0
 16 17  1  0  0  0
 17 18  1  0  0  0
 17 19  1  0  0  0
  3 10  1  0  0  0
  5 11  1  0  0  0
  7 12  1  0  0  0
 14 15  1  0  0  0
M  END
> <minimizedAffinity>
-5.69336

$$$$
3VD9_IPT_A_2001


 19 19  0  0  0  0  0  0  0  0999 V2000
  -15.0028  -27.2611  -25.5621 C   0  0  0  0  0  0  0  0  0  0  0  0
  -15.7993  -28.2504  -24.6976 C   0  0  0  0  0  0  0  0  0  0  0  0
  -16.2645  -29.3182  -25.5157 O   0  0  0  0  0  0  0  0  0  0  0  0
  -17.0055  -27.6055  -24.0016 C   0  0  0  0  0  0  0  0  0  0  0  0
  -17.5465  -28.5027  -23.0154 O   0  0  0  0  0  0  0  0  0  0  0  0
  -16.6424  -26.2659  -23.3629 C   0  0  0  0  0  0  0  0  0  0  0  0
  -15.8409  -26.5046  -22.2007 O   0  0  0  0  0  0  0  0  0  0  0  0
  -15.8882  -25.4060  -24.3837 C   0  0  0  0  0  0  0  0  0  0  0  0
  -14.7115  -26.1036  -24.7861 O   0  0  0  0  0  0  0  0  0  0  0  0
  -16.8616  -28.9684  -26.1953 H   0  0  0  0  0  0  0  0  0  0  0  0
  -16.8763  -28.6795  -22.3369 H   0  0  0  0  0  0  0  0  0  0  0  0
  -15.0348  -26.9801  -22.4559 H   0  0  0  0  0  0  0  0  0  0  0  0
  -15.4563  -24.0287  -23.8973 C   0  0  0  0  0  0  0  0  0  0  0  0
  -16.1592  -23.6433  -22.7117 O   0  0  0  0  0  0  0  0  0  0  0  0
  -17.1102  -23.6025  -22.8984 H   0  0  0  0  0  0  0  0  0  0  0  0
  -13.4802  -27.9947  -26.0805 S   0  0  0  0  0  0  0  0  0  0  0  0
  -13.0535  -27.8035  -27.7980 C   0  0  0  0  0  0  0  0  0  0  0  0
  -11.5563  -28.0116  -27.9728 C   0  0  0  0  0  0  0  0  0  0  0  0
  -13.8394  -28.7079  -28.7471 C   0  0  0  0  0  0  0  0  0  0  0  0
  1  2  1  0  0  0
  1  9  1  0  0  0
  1 16  1  0  0  0
  2  3  1  0  0  0
  2  4  1  0  0  0
  4  5  1  0  0  0
  4  6  1  0  0  0
  6  7  1  0  0  0
  6  8  1  0  0  0
  8  9  1  0  0  0
  8 13  1  0  0  0
 13 14  1  0  0  0
 16 17  1  0  0  0
 17 18  1  0  0  0
 17 19  1  0  0  0
  3 10  1  0  0  0
  5 11  1  0  0  0
  7 12  1  0  0  0
 14 15  1  0  0  0
M  END
> <minimizedAffinity>
-5.68046

$$$$
3VD9_IPT_A_2001


 19 19  0  0  0  0  0  0  0  0999 V2000
  -14.8030  -26.2399  -24.3591 C   0  0  0  0  0  0  0  0  0  0  0  0
  -15.9556  -27.1845  -24.7325 C   0  0  0  0  0  0  0  0  0  0  0  0
  -16.8216  -27.3324  -23.6127 O   0  0  0  0  0  0  0  0  0  0  0  0
  -15.4764  -28.5758  -25.1681 C   0  0  0  0  0  0  0  0  0  0  0  0
  -16.5654  -29.3158  -25.7483 O   0  0  0  0  0  0  0  0  0  0  0  0
  -14.3062  -28.4919  -26.1470 C   0  0  0  0  0  0  0  0  0  0  0  0
  -14.7903  -28.0374  -27.4156 O   0  0  0  0  0  0  0  0  0  0  0  0
  -13.2461  -27.5357  -25.5884 C   0  0  0  0  0  0  0  0  0  0  0  0
  -13.8403  -26.2521  -25.4079 O   0  0  0  0  0  0  0  0  0  0  0  0
  -16.3333  -27.7343  -22.8772 H   0  0  0  0  0  0  0  0  0  0  0  0
  -16.8845  -28.8545  -26.5396 H   0  0  0  0  0  0  0  0  0  0  0  0
  -15.1994  -27.1640  -27.3115 H   0  0  0  0  0  0  0  0  0  0  0  0
  -12.0064  -27.3454  -26.4525 C   0  0  0  0  0  0  0  0  0  0  0  0
  -12.3429  -26.8784  -27.7629 O   0  0  0  0  0  0  0  0  0  0  0  0
  -12.9089  -27.5315  -28.2034 H   0  0  0  0  0  0  0  0  0  0  0  0
  -15.4071  -24.5902  -24.1625 S   0  0  0  0  0  0  0  0  0  0  0  0
  -15.7832  -24.0774  -22.5000 C   0  0  0  0  0  0  0  0  0  0  0  0
  -17.2836  -23.8629  -22.3646 C   0  0  0  0  0  0  0  0  0  0  0  0
  -15.2730  -25.0275  -21.4168 C   0  0  0  0  0  0  0  0  0  0  0  0
  1  2  1  0  0  0
  1  9  1  0  0  0
  1 16  1  0  0  0
  2  3  1  0  0  0
  2  4  1  0  0  0
  4  5  1  0  0  0
  4  6  1  0  0  0
  6  7  1  0  0  0
  6  8  1  0  0  0
  8  9  1  0  0  0
  8 13  1  0  0  0
 13 14  1  0  0  0
 16 17  1  0  0  0
 17 18  1  0  0  0
 17 19  1  0  0  0
  3 10  1  0  0  0
  5 11  1  0  0  0
  7 12  1  0  0  0
 14 15  1  0  0  0
M  END
> <minimizedAffinity>
-5.51228

$$$$
3VD9_IPT_A_2001


 19 19  0  0  0  0  0  0  0  0999 V2000
  -17.5516  -26.7451  -24.6635 C   0  0  0  0  0  0  0  0  0  0  0  0
  -17.3719  -27.5325  -23.3566 C   0  0  0  0  0  0  0  0  0  0  0  0
  -18.2677  -28.6385  -23.3491 O   0  0  0  0  0  0  0  0  0  0  0  0
  -17.6294  -26.6852  -22.1033 C   0  0  0  0  0  0  0  0  0  0  0  0
  -17.1951  -27.3934  -20.9286 O   0  0  0  0  0  0  0  0  0  0  0  0
  -16.9441  -25.3224  -22.1893 C   0  0  0  0  0  0  0  0  0  0  0  0
  -15.5322  -25.4987  -22.0287 O   0  0  0  0  0  0  0  0  0  0  0  0
  -17.2673  -24.6774  -23.5420 C   0  0  0  0  0  0  0  0  0  0  0  0
  -16.8020  -25.5377  -24.5796 O   0  0  0  0  0  0  0  0  0  0  0  0
  -19.1816  -28.3146  -23.3787 H   0  0  0  0  0  0  0  0  0  0  0  0
  -16.2400  -27.5543  -20.9827 H   0  0  0  0  0  0  0  0  0  0  0  0
  -15.1979  -26.0831  -22.7270 H   0  0  0  0  0  0  0  0  0  0  0  0
  -16.6557  -23.3033  -23.7822 C   0  0  0  0  0  0  0  0  0  0  0  0
  -15.2452  -23.3858  -24.0100 O   0  0  0  0  0  0  0  0  0  0  0  0
  -14.8132  -23.7656  -23.2289 H   0  0  0  0  0  0  0  0  0  0  0  0
  -16.9525  -27.6911  -26.0315 S   0  0  0  0  0  0  0  0  0  0  0  0
  -18.1432  -28.7172  -26.8667 C   0  0  0  0  0  0  0  0  0  0  0  0
  -19.5434  -28.1816  -26.6055 C   0  0  0  0  0  0  0  0  0  0  0  0
  -17.8964  -28.8760  -28.3668 C   0  0  0  0  0  0  0  0  0  0  0  0
  1  2  1  0  0  0
  1  9  1  0  0  0
  1 16  1  0  0  0
  2  3  1  0  0  0
  2  4  1  0  0  0
  4  5  1  0  0  0
  4  6  1  0  0  0
  6  7  1  0  0  0
  6  8  1  0  0  0
  8  9  1  0  0  0
  8 13  1  0  0  0
 13 14  1  0  0  0
 16 17  1  0  0  0
 17 18  1  0  0  0
 17 19  1  0  0  0
  3 10  1  0  0  0
  5 11  1  0  0  0
  7 12  1  0  0  0
 14 15  1  0  0  0
M  END
> <minimizedAffinity>
-5.31135

$$$$
3VD9_IPT_A_2001


 19 19  0  0  0  0  0  0  0  0999 V2000
  -16.5479  -26.9300  -24.6181 C   0  0  0  0  0  0  0  0  0  0  0  0
  -15.0579  -26.9615  -24.2452 C   0  0  0  0  0  0  0  0  0  0  0  0
  -14.7548  -25.8343  -23.4308 O   0  0  0  0  0  0  0  0  0  0  0  0
  -14.1310  -26.9453  -25.4683 C   0  0  0  0  0  0  0  0  0  0  0  0
  -12.7799  -27.2389  -25.0700 O   0  0  0  0  0  0  0  0  0  0  0  0
  -14.5953  -27.9251  -26.5448 C   0  0  0  0  0  0  0  0  0  0  0  0
  -14.3292  -29.2618  -26.1059 O   0  0  0  0  0  0  0  0  0  0  0  0
  -16.0921  -27.7196  -26.8051 C   0  0  0  0  0  0  0  0  0  0  0  0
  -16.8007  -27.9412  -25.5878 O   0  0  0  0  0  0  0  0  0  0  0  0
  -14.9195  -25.0200  -23.9314 H   0  0  0  0  0  0  0  0  0  0  0  0
  -12.7423  -28.1286  -24.6853 H   0  0  0  0  0  0  0  0  0  0  0  0
  -14.8036  -29.4303  -25.2768 H   0  0  0  0  0  0  0  0  0  0  0  0
  -16.7098  -28.6255  -27.8623 C   0  0  0  0  0  0  0  0  0  0  0  0
  -15.7273  -29.1050  -28.7859 O   0  0  0  0  0  0  0  0  0  0  0  0
  -15.3217  -28.3534  -29.2458 H   0  0  0  0  0  0  0  0  0  0  0  0
  -17.5397  -27.2518  -23.1906 S   0  0  0  0  0  0  0  0  0  0  0  0
  -18.7458  -26.0128  -22.7685 C   0  0  0  0  0  0  0  0  0  0  0  0
  -18.0328  -24.7322  -22.3595 C   0  0  0  0  0  0  0  0  0  0  0  0
  -19.7725  -25.7330  -23.8658 C   0  0  0  0  0  0  0  0  0  0  0  0
  1  2  1  0  0  0
  1  9  1  0  0  0
  1 16  1  0  0  0
  2  3  1  0  0  0
  2  4  1  0  0  0
  4  5  1  0  0  0
  4  6  1  0  0  0
  6  7  1  0  0  0
  6  8  1  0  0  0
  8  9  1  0  0  0
  8 13  1  0  0  0
 13 14  1  0  0  0
 16 17  1  0  0  0
 17 18  1  0  0  0
 17 19  1  0  0  0
  3 10  1  0  0  0
  5 11  1  0  0  0
  7 12  1  0  0  0
 14 15  1  0  0  0
M  END
> <minimizedAffinity>
-5.26947

$$$$
3VD9_IPT_A_2001


 19 19  0  0  0  0  0  0  0  0999 V2000
  -15.0691  -28.3184  -25.8760 C   0  0  0  0  0  0  0  0  0  0  0  0
  -15.1621  -26.9891  -25.1113 C   0  0  0  0  0  0  0  0  0  0  0  0
  -13.9093  -26.7152  -24.4938 O   0  0  0  0  0  0  0  0  0  0  0  0
  -16.2509  -26.9920  -24.0298 C   0  0  0  0  0  0  0  0  0  0  0  0
  -16.4638  -25.6569  -23.5375 O   0  0  0  0  0  0  0  0  0  0  0  0
  -17.5607  -27.5864  -24.5450 C   0  0  0  0  0  0  0  0  0  0  0  0
  -18.1724  -26.6574  -25.4467 O   0  0  0  0  0  0  0  0  0  0  0  0
  -17.2715  -28.9205  -25.2428 C   0  0  0  0  0  0  0  0  0  0  0  0
  -16.3706  -28.6840  -26.3224 O   0  0  0  0  0  0  0  0  0  0  0  0
  -13.7051  -27.4141  -23.8529 H   0  0  0  0  0  0  0  0  0  0  0  0
  -16.7717  -25.0904  -24.2621 H   0  0  0  0  0  0  0  0  0  0  0  0
  -17.5720  -26.4838  -26.1885 H   0  0  0  0  0  0  0  0  0  0  0  0
  -18.4840  -29.6450  -25.8128 C   0  0  0  0  0  0  0  0  0  0  0  0
  -18.1466  -30.9577  -26.2726 O   0  0  0  0  0  0  0  0  0  0  0  0
  -17.4858  -30.8927  -26.9797 H   0  0  0  0  0  0  0  0  0  0  0  0
  -14.0159  -28.1381  -27.2843 S   0  0  0  0  0  0  0  0  0  0  0  0
  -12.3832  -28.8336  -27.1463 C   0  0  0  0  0  0  0  0  0  0  0  0
  -11.3601  -27.8242  -27.6463 C   0  0  0  0  0  0  0  0  0  0  0  0
  -12.0217  -29.3197  -25.7430 C   0  0  0  0  0  0  0  0  0  0  0  0
  1  2  1  0  0  0
  1  9  1  0  0  0
  1 16  1  0  0  0
  2  3  1  0  0  0
  2  4  1  0  0  0
  4  5  1  0  0  0
  4  6  1  0  0  0
  6  7  1  0  0  0
  6  8  1  0  0  0
  8  9  1  0  0  0
  8 13  1  0  0  0
 13 14  1  0  0  0
 16 17  1  0  0  0
 17 18  1  0  0  0
 17 19  1  0  0  0
  3 10  1  0  0  0
  5 11  1  0  0  0
  7 12  1  0  0  0
 14 15  1  0  0  0
M  END
> <minimizedAffinity>
-5.20296

$$$$
