4LM4_JPZ_A_900


 12 13  0  0  0  0  0  0  0  0999 V2000
    3.0707   14.4549   44.6066 C   0  0  0  0  0  0  0  0  0  0  0  0
    3.4844   14.0824   43.3266 C   0  0  0  0  0  0  0  0  0  0  0  0
    3.5153   13.7505   45.7286 C   0  0  0  0  0  0  0  0  0  0  0  0
    4.3508   12.9954   43.1600 C   0  0  0  0  0  0  0  0  0  0  0  0
    6.0787   10.5458   45.2287 C   0  0  0  0  0  0  0  0  0  0  0  0
    4.3833   12.6649   45.5694 C   0  0  0  0  0  0  0  0  0  0  0  0
    4.8002   12.2911   44.2838 C   0  0  0  0  0  0  0  0  0  0  0  0
    4.8520   11.9336   46.6715 C   0  0  0  0  0  0  0  0  0  0  0  0
    5.6464   11.2385   44.1427 N   0  0  0  0  0  0  0  0  0  0  0  0
    5.6923   10.8849   46.4790 N   0  0  0  0  0  0  0  0  0  0  0  0
    4.4788   12.2480   47.9067 O   0  0  0  0  0  0  0  0  0  0  0  0
    5.9499   10.9746   43.2441 H   0  0  0  0  0  0  0  0  0  0  0  0
  1  2  2  0  0  0
  1  3  1  0  0  0
  2  4  1  0  0  0
  3  6  2  0  0  0
  4  7  2  0  0  0
  5  9  1  0  0  0
  5 10  2  0  0  0
  6  7  1  0  0  0
  6  8  1  0  0  0
  7  9  1  0  0  0
  8 10  1  0  0  0
  8 11  2  0  0  0
  9 12  1  0  0  0
M  END
> <minimizedAffinity>
-6.57809

$$$$
4LM4_JPZ_A_900


 12 13  0  0  0  0  0  0  0  0999 V2000
    3.9161   13.5820   42.2104 C   0  0  0  0  0  0  0  0  0  0  0  0
    4.6304   12.3829   42.1940 C   0  0  0  0  0  0  0  0  0  0  0  0
    3.4941   14.1396   43.4201 C   0  0  0  0  0  0  0  0  0  0  0  0
    4.9284   11.7297   43.3958 C   0  0  0  0  0  0  0  0  0  0  0  0
    4.3838   12.2076   46.9652 C   0  0  0  0  0  0  0  0  0  0  0  0
    3.7909   13.4933   44.6249 C   0  0  0  0  0  0  0  0  0  0  0  0
    4.5096   12.2893   44.6091 C   0  0  0  0  0  0  0  0  0  0  0  0
    3.3851   14.0223   45.8597 C   0  0  0  0  0  0  0  0  0  0  0  0
    4.7954   11.6739   45.7854 N   0  0  0  0  0  0  0  0  0  0  0  0
    3.6896   13.3668   47.0089 N   0  0  0  0  0  0  0  0  0  0  0  0
    2.6973   15.1567   45.9223 O   0  0  0  0  0  0  0  0  0  0  0  0
    5.3062   10.8323   45.7833 H   0  0  0  0  0  0  0  0  0  0  0  0
  1  2  2  0  0  0
  1  3  1  0  0  0
  2  4  1  0  0  0
  3  6  2  0  0  0
  4  7  2  0  0  0
  5  9  1  0  0  0
  5 10  2  0  0  0
  6  7  1  0  0  0
  6  8  1  0  0  0
  7  9  1  0  0  0
  8 10  1  0  0  0
  8 11  2  0  0  0
  9 12  1  0  0  0
M  END
> <minimizedAffinity>
-6.41862

$$$$
4LM4_JPZ_A_900


 12 13  0  0  0  0  0  0  0  0999 V2000
    4.9047   11.9137   42.4660 C   0  0  0  0  0  0  0  0  0  0  0  0
    4.2586   12.9593   41.8047 C   0  0  0  0  0  0  0  0  0  0  0  0
    4.9080   11.8519   43.8619 C   0  0  0  0  0  0  0  0  0  0  0  0
    3.6078   13.9566   42.5408 C   0  0  0  0  0  0  0  0  0  0  0  0
    2.9785   14.7971   46.0284 C   0  0  0  0  0  0  0  0  0  0  0  0
    4.2573   12.8438   44.6036 C   0  0  0  0  0  0  0  0  0  0  0  0
    3.6069   13.8938   43.9397 C   0  0  0  0  0  0  0  0  0  0  0  0
    4.2379   12.8158   46.0065 C   0  0  0  0  0  0  0  0  0  0  0  0
    2.9749   14.8480   44.6706 N   0  0  0  0  0  0  0  0  0  0  0  0
    3.5977   13.7963   46.6934 N   0  0  0  0  0  0  0  0  0  0  0  0
    4.8456   11.8440   46.6773 O   0  0  0  0  0  0  0  0  0  0  0  0
    2.5094   15.5842   44.2119 H   0  0  0  0  0  0  0  0  0  0  0  0
  1  2  2  0  0  0
  1  3  1  0  0  0
  2  4  1  0  0  0
  3  6  2  0  0  0
  4  7  2  0  0  0
  5  9  1  0  0  0
  5 10  2  0  0  0
  6  7  1  0  0  0
  6  8  1  0  0  0
  7  9  1  0  0  0
  8 10  1  0  0  0
  8 11  2  0  0  0
  9 12  1  0  0  0
M  END
> <minimizedAffinity>
-6.41252

$$$$
4LM4_JPZ_A_900


 12 13  0  0  0  0  0  0  0  0999 V2000
    4.0013   13.7178   43.0496 C   0  0  0  0  0  0  0  0  0  0  0  0
    3.1327   14.4800   43.8325 C   0  0  0  0  0  0  0  0  0  0  0  0
    4.7680   12.7014   43.6255 C   0  0  0  0  0  0  0  0  0  0  0  0
    3.0253   14.2285   45.2055 C   0  0  0  0  0  0  0  0  0  0  0  0
    4.4403   11.9609   47.6795 C   0  0  0  0  0  0  0  0  0  0  0  0
    4.6635   12.4431   44.9965 C   0  0  0  0  0  0  0  0  0  0  0  0
    3.7900   13.2076   45.7832 C   0  0  0  0  0  0  0  0  0  0  0  0
    5.4160   11.4305   45.6110 C   0  0  0  0  0  0  0  0  0  0  0  0
    3.6941   12.9443   47.1119 N   0  0  0  0  0  0  0  0  0  0  0  0
    5.2900   11.2092   46.9444 N   0  0  0  0  0  0  0  0  0  0  0  0
    6.2602   10.6857   44.9064 O   0  0  0  0  0  0  0  0  0  0  0  0
    3.0775   13.4714   47.6696 H   0  0  0  0  0  0  0  0  0  0  0  0
  1  2  2  0  0  0
  1  3  1  0  0  0
  2  4  1  0  0  0
  3  6  2  0  0  0
  4  7  2  0  0  0
  5  9  1  0  0  0
  5 10  2  0  0  0
  6  7  1  0  0  0
  6  8  1  0  0  0
  7  9  1  0  0  0
  8 10  1  0  0  0
  8 11  2  0  0  0
  9 12  1  0  0  0
M  END
> <minimizedAffinity>
-6.38930

$$$$
4LM4_JPZ_A_900


 12 13  0  0  0  0  0  0  0  0999 V2000
    5.5724   11.0335   42.9254 C   0  0  0  0  0  0  0  0  0  0  0  0
    5.6855   10.6998   44.2760 C   0  0  0  0  0  0  0  0  0  0  0  0
    4.8358   12.1536   42.5310 C   0  0  0  0  0  0  0  0  0  0  0  0
    5.0581   11.4896   45.2468 C   0  0  0  0  0  0  0  0  0  0  0  0
    2.9911   14.4843   45.4043 C   0  0  0  0  0  0  0  0  0  0  0  0
    4.2084   12.9486   43.4962 C   0  0  0  0  0  0  0  0  0  0  0  0
    4.3230   12.6146   44.8532 C   0  0  0  0  0  0  0  0  0  0  0  0
    3.4610   14.0814   43.1395 C   0  0  0  0  0  0  0  0  0  0  0  0
    3.7132   13.3967   45.7808 N   0  0  0  0  0  0  0  0  0  0  0  0
    2.8646   14.8288   44.1032 N   0  0  0  0  0  0  0  0  0  0  0  0
    3.3205   14.4322   41.8663 O   0  0  0  0  0  0  0  0  0  0  0  0
    3.7952   13.1734   46.7362 H   0  0  0  0  0  0  0  0  0  0  0  0
  1  2  2  0  0  0
  1  3  1  0  0  0
  2  4  1  0  0  0
  3  6  2  0  0  0
  4  7  2  0  0  0
  5  9  1  0  0  0
  5 10  2  0  0  0
  6  7  1  0  0  0
  6  8  1  0  0  0
  7  9  1  0  0  0
  8 10  1  0  0  0
  8 11  2  0  0  0
  9 12  1  0  0  0
M  END
> <minimizedAffinity>
-5.99928

$$$$
4LM4_JPZ_A_900


 12 13  0  0  0  0  0  0  0  0999 V2000
    5.2647   11.4649   45.0723 C   0  0  0  0  0  0  0  0  0  0  0  0
    5.6858   10.6411   44.0272 C   0  0  0  0  0  0  0  0  0  0  0  0
    4.5458   12.6337   44.8084 C   0  0  0  0  0  0  0  0  0  0  0  0
    5.3888   10.9841   42.7028 C   0  0  0  0  0  0  0  0  0  0  0  0
    3.6672   13.6363   40.8951 C   0  0  0  0  0  0  0  0  0  0  0  0
    4.2434   12.9810   43.4874 C   0  0  0  0  0  0  0  0  0  0  0  0
    4.6651   12.1530   42.4371 C   0  0  0  0  0  0  0  0  0  0  0  0
    3.5229   14.1459   43.1824 C   0  0  0  0  0  0  0  0  0  0  0  0
    4.3614   12.4985   41.1595 N   0  0  0  0  0  0  0  0  0  0  0  0
    3.2489   14.4521   41.8885 N   0  0  0  0  0  0  0  0  0  0  0  0
    3.1088   14.9627   44.1443 O   0  0  0  0  0  0  0  0  0  0  0  0
    4.6472   11.9186   40.4170 H   0  0  0  0  0  0  0  0  0  0  0  0
  1  2  2  0  0  0
  1  3  1  0  0  0
  2  4  1  0  0  0
  3  6  2  0  0  0
  4  7  2  0  0  0
  5  9  1  0  0  0
  5 10  2  0  0  0
  6  7  1  0  0  0
  6  8  1  0  0  0
  7  9  1  0  0  0
  8 10  1  0  0  0
  8 11  2  0  0  0
  9 12  1  0  0  0
M  END
> <minimizedAffinity>
-5.81817

$$$$
4LM4_JPZ_A_900


 12 13  0  0  0  0  0  0  0  0999 V2000
    3.1461   14.4822   44.1079 C   0  0  0  0  0  0  0  0  0  0  0  0
    2.9298   14.4843   45.4868 C   0  0  0  0  0  0  0  0  0  0  0  0
    3.9895   13.5335   43.5238 C   0  0  0  0  0  0  0  0  0  0  0  0
    3.5606   13.5312   46.2954 C   0  0  0  0  0  0  0  0  0  0  0  0
    5.8434   10.7185   45.9175 C   0  0  0  0  0  0  0  0  0  0  0  0
    4.6209   12.5766   44.3257 C   0  0  0  0  0  0  0  0  0  0  0  0
    4.4029   12.5775   45.7109 C   0  0  0  0  0  0  0  0  0  0  0  0
    5.4740   11.6074   43.7761 C   0  0  0  0  0  0  0  0  0  0  0  0
    5.0179   11.6408   46.4780 N   0  0  0  0  0  0  0  0  0  0  0  0
    6.0710   10.6953   44.5852 N   0  0  0  0  0  0  0  0  0  0  0  0
    5.7144   11.5725   42.4705 O   0  0  0  0  0  0  0  0  0  0  0  0
    4.8640   11.6298   47.4503 H   0  0  0  0  0  0  0  0  0  0  0  0
  1  2  2  0  0  0
  1  3  1  0  0  0
  2  4  1  0  0  0
  3  6  2  0  0  0
  4  7  2  0  0  0
  5  9  1  0  0  0
  5 10  2  0  0  0
  6  7  1  0  0  0
  6  8  1  0  0  0
  7  9  1  0  0  0
  8 10  1  0  0  0
  8 11  2  0  0  0
  9 12  1  0  0  0
M  END
> <minimizedAffinity>
-5.79144

$$$$
4LM4_JPZ_A_900


 12 13  0  0  0  0  0  0  0  0999 V2000
    4.2463   12.6274   40.7295 C   0  0  0  0  0  0  0  0  0  0  0  0
    4.8197   11.3734   40.9463 C   0  0  0  0  0  0  0  0  0  0  0  0
    3.8846   13.4380   41.8087 C   0  0  0  0  0  0  0  0  0  0  0  0
    5.0359   10.9195   42.2528 C   0  0  0  0  0  0  0  0  0  0  0  0
    4.5323   12.0928   45.6639 C   0  0  0  0  0  0  0  0  0  0  0  0
    4.1004   12.9915   43.1169 C   0  0  0  0  0  0  0  0  0  0  0  0
    4.6777   11.7324   43.3353 C   0  0  0  0  0  0  0  0  0  0  0  0
    3.7515   13.7768   44.2263 C   0  0  0  0  0  0  0  0  0  0  0  0
    4.8862   11.3121   44.6096 N   0  0  0  0  0  0  0  0  0  0  0  0
    3.9741   13.3104   45.4816 N   0  0  0  0  0  0  0  0  0  0  0  0
    3.1967   14.9730   44.0672 O   0  0  0  0  0  0  0  0  0  0  0  0
    5.2981   10.4327   44.7713 H   0  0  0  0  0  0  0  0  0  0  0  0
  1  2  2  0  0  0
  1  3  1  0  0  0
  2  4  1  0  0  0
  3  6  2  0  0  0
  4  7  2  0  0  0
  5  9  1  0  0  0
  5 10  2  0  0  0
  6  7  1  0  0  0
  6  8  1  0  0  0
  7  9  1  0  0  0
  8 10  1  0  0  0
  8 11  2  0  0  0
  9 12  1  0  0  0
M  END
> <minimizedAffinity>
-5.75014

$$$$
4LM4_JPZ_A_900


 12 13  0  0  0  0  0  0  0  0999 V2000
    3.5417   13.4229   46.3798 C   0  0  0  0  0  0  0  0  0  0  0  0
    3.0370   14.5045   45.6562 C   0  0  0  0  0  0  0  0  0  0  0  0
    4.1731   12.3632   45.7233 C   0  0  0  0  0  0  0  0  0  0  0  0
    3.1613   14.5327   44.2621 C   0  0  0  0  0  0  0  0  0  0  0  0
    4.5419   12.4569   41.6067 C   0  0  0  0  0  0  0  0  0  0  0  0
    4.3030   12.3863   44.3305 C   0  0  0  0  0  0  0  0  0  0  0  0
    3.7974   13.4733   43.6032 C   0  0  0  0  0  0  0  0  0  0  0  0
    4.9313   11.3415   43.6356 C   0  0  0  0  0  0  0  0  0  0  0  0
    3.9337   13.4863   42.2522 N   0  0  0  0  0  0  0  0  0  0  0  0
    5.0380   11.3970   42.2834 N   0  0  0  0  0  0  0  0  0  0  0  0
    5.4196   10.2894   44.2825 O   0  0  0  0  0  0  0  0  0  0  0  0
    3.5882   14.2495   41.7351 H   0  0  0  0  0  0  0  0  0  0  0  0
  1  2  2  0  0  0
  1  3  1  0  0  0
  2  4  1  0  0  0
  3  6  2  0  0  0
  4  7  2  0  0  0
  5  9  1  0  0  0
  5 10  2  0  0  0
  6  7  1  0  0  0
  6  8  1  0  0  0
  7  9  1  0  0  0
  8 10  1  0  0  0
  8 11  2  0  0  0
  9 12  1  0  0  0
M  END
> <minimizedAffinity>
-5.72080

$$$$
4LM4_JPZ_A_900


 12 13  0  0  0  0  0  0  0  0999 V2000
    4.9200   12.7827   43.8249 C   0  0  0  0  0  0  0  0  0  0  0  0
    4.2863   12.8619   45.0660 C   0  0  0  0  0  0  0  0  0  0  0  0
    5.8968   11.8120   43.5880 C   0  0  0  0  0  0  0  0  0  0  0  0
    4.6286   11.9647   46.0848 C   0  0  0  0  0  0  0  0  0  0  0  0
    6.8974    9.1624   46.5995 C   0  0  0  0  0  0  0  0  0  0  0  0
    6.2417   10.9107   44.6009 C   0  0  0  0  0  0  0  0  0  0  0  0
    5.6045   10.9889   45.8475 C   0  0  0  0  0  0  0  0  0  0  0  0
    7.2170    9.9217   44.4010 C   0  0  0  0  0  0  0  0  0  0  0  0
    5.9448   10.1056   46.8211 N   0  0  0  0  0  0  0  0  0  0  0  0
    7.5272    9.0650   45.4074 N   0  0  0  0  0  0  0  0  0  0  0  0
    7.8506    9.8142   43.2388 O   0  0  0  0  0  0  0  0  0  0  0  0
    5.4965   10.1489   47.6966 H   0  0  0  0  0  0  0  0  0  0  0  0
  1  2  2  0  0  0
  1  3  1  0  0  0
  2  4  1  0  0  0
  3  6  2  0  0  0
  4  7  2  0  0  0
  5  9  1  0  0  0
  5 10  2  0  0  0
  6  7  1  0  0  0
  6  8  1  0  0  0
  7  9  1  0  0  0
  8 10  1  0  0  0
  8 11  2  0  0  0
  9 12  1  0  0  0
M  END
> <minimizedAffinity>
-5.66041

$$$$
