4DKO_0LM_A_513


 27 28  0  0  0  0  0  0  0  0999 V2000
   27.5192  -15.6679   37.5265 C   0  0  0  0  0  0  0  0  0  0  0  0
   27.4611  -14.9398   36.2963 N   0  0  0  0  0  0  0  0  0  0  0  0
   28.0868  -16.7485   37.5992 O   0  0  0  0  0  0  0  0  0  0  0  0
   26.9985  -14.0708   36.2889 H   0  0  0  0  0  0  0  0  0  0  0  0
   28.0719  -15.4356   35.0123 C   0  0  0  0  0  0  0  0  0  0  0  0
   28.1026  -13.4067   33.5577 C   0  0  0  0  0  0  0  0  0  0  0  0
   30.1699  -14.0680   34.8009 C   0  0  0  0  0  0  0  0  0  0  0  0
   31.5901  -14.2978   34.4011 C   0  0  0  0  0  0  0  0  0  0  0  0
   27.3698  -12.3173   34.2624 C   0  0  0  0  0  0  0  0  0  0  0  0
   27.8542  -13.1722   32.1019 C   0  0  0  0  0  0  0  0  0  0  0  0
   27.4954  -14.7370   33.8980 C   0  0  0  0  0  0  0  0  0  0  0  0
   29.5411  -13.2582   33.7758 N   0  0  0  0  0  0  0  0  0  0  0  0
   29.5503  -15.4009   35.0094 C   0  0  0  0  0  0  0  0  0  0  0  0
   30.1932  -13.3284   36.0978 C   0  0  0  0  0  0  0  0  0  0  0  0
   30.2041  -12.0393   33.4112 C   0  0  0  0  0  0  0  0  0  0  0  0
   27.3728  -15.4856   40.0372 N   0  0  0  0  0  0  0  0  0  0  0  0
   26.8762  -15.1011   38.7486 C   0  0  0  0  0  0  0  0  0  0  0  0
   25.9472  -14.3173   38.6269 O   0  0  0  0  0  0  0  0  0  0  0  0
   28.1302  -16.1139   40.0658 H   0  0  0  0  0  0  0  0  0  0  0  0
   27.2416  -14.3029   43.5576 C   0  0  0  0  0  0  0  0  0  0  0  0
   25.8774  -14.1401   43.7495 C   0  0  0  0  0  0  0  0  0  0  0  0
   24.9961  -14.4193   42.7154 C   0  0  0  0  0  0  0  0  0  0  0  0
   25.4771  -14.8622   41.4915 C   0  0  0  0  0  0  0  0  0  0  0  0
   26.8446  -15.0198   41.2917 C   0  0  0  0  0  0  0  0  0  0  0  0
   27.7215  -14.7460   42.3319 C   0  0  0  0  0  0  0  0  0  0  0  0
   25.2716  -13.5893   45.2717 Cl  0  0  0  0  0  0  0  0  0  0  0  0
   23.6886  -14.2627   42.9023 F   0  0  0  0  0  0  0  0  0  0  0  0
  8  7  1  0  0  0
 15 12  1  0  0  0
  7 12  1  0  0  0
  7 13  1  0  0  0
  7 14  1  0  0  0
 12  6  1  0  0  0
 13  5  1  0  0  0
 10  6  1  0  0  0
  6 11  1  0  0  0
  6  9  1  0  0  0
  5 11  1  0  0  0
  5  2  1  0  0  0
  3  1  2  0  0  0
  2  1  1  0  0  0
  1 17  1  0  0  0
 17 16  1  0  0  0
 17 18  2  0  0  0
 16 24  1  0  0  0
 25 24  2  0  0  0
 25 20  1  0  0  0
 24 23  1  0  0  0
 20 21  2  0  0  0
 23 22  2  0  0  0
 21 22  1  0  0  0
 21 26  1  0  0  0
 22 27  1  0  0  0
 16 19  1  0  0  0
  2  4  1  0  0  0
M  END
> <minimizedAffinity>
-8.67584

$$$$
4DKO_0LM_A_513


 27 28  0  0  0  0  0  0  0  0999 V2000
   28.6630  -15.8012   38.1286 C   0  0  0  0  0  0  0  0  0  0  0  0
   29.0821  -14.9133   37.0879 N   0  0  0  0  0  0  0  0  0  0  0  0
   29.0815  -16.9483   38.1920 O   0  0  0  0  0  0  0  0  0  0  0  0
   28.7226  -13.9968   37.0825 H   0  0  0  0  0  0  0  0  0  0  0  0
   30.0452  -15.3100   36.0004 C   0  0  0  0  0  0  0  0  0  0  0  0
   28.5685  -15.7010   34.0256 C   0  0  0  0  0  0  0  0  0  0  0  0
   29.7460  -13.5082   34.2739 C   0  0  0  0  0  0  0  0  0  0  0  0
   30.6212  -12.6952   33.3780 C   0  0  0  0  0  0  0  0  0  0  0  0
   27.1517  -15.6115   34.4785 C   0  0  0  0  0  0  0  0  0  0  0  0
   28.5659  -16.7044   32.9168 C   0  0  0  0  0  0  0  0  0  0  0  0
   29.4237  -16.2630   35.1243 C   0  0  0  0  0  0  0  0  0  0  0  0
   28.9856  -14.4245   33.4466 N   0  0  0  0  0  0  0  0  0  0  0  0
   30.6262  -14.1585   35.2772 C   0  0  0  0  0  0  0  0  0  0  0  0
   28.8264  -12.5589   34.9686 C   0  0  0  0  0  0  0  0  0  0  0  0
   28.2573  -13.8582   32.3480 C   0  0  0  0  0  0  0  0  0  0  0  0
   28.0603  -15.4027   40.5444 N   0  0  0  0  0  0  0  0  0  0  0  0
   27.6963  -15.3222   39.1602 C   0  0  0  0  0  0  0  0  0  0  0  0
   26.6204  -14.8654   38.8054 O   0  0  0  0  0  0  0  0  0  0  0  0
   28.9462  -15.7725   40.7628 H   0  0  0  0  0  0  0  0  0  0  0  0
   27.0372  -14.2341   43.9203 C   0  0  0  0  0  0  0  0  0  0  0  0
   25.6565  -14.1855   43.7952 C   0  0  0  0  0  0  0  0  0  0  0  0
   25.0588  -14.5376   42.5939 C   0  0  0  0  0  0  0  0  0  0  0  0
   25.8397  -14.9391   41.5195 C   0  0  0  0  0  0  0  0  0  0  0  0
   27.2249  -14.9822   41.6375 C   0  0  0  0  0  0  0  0  0  0  0  0
   27.8174  -14.6359   42.8438 C   0  0  0  0  0  0  0  0  0  0  0  0
   24.6780  -13.6867   45.1298 Cl  0  0  0  0  0  0  0  0  0  0  0  0
   23.7348  -14.4904   42.4769 F   0  0  0  0  0  0  0  0  0  0  0  0
  8  7  1  0  0  0
 15 12  1  0  0  0
  7 12  1  0  0  0
  7 13  1  0  0  0
  7 14  1  0  0  0
 12  6  1  0  0  0
 13  5  1  0  0  0
 10  6  1  0  0  0
  6 11  1  0  0  0
  6  9  1  0  0  0
  5 11  1  0  0  0
  5  2  1  0  0  0
  3  1  2  0  0  0
  2  1  1  0  0  0
  1 17  1  0  0  0
 17 16  1  0  0  0
 17 18  2  0  0  0
 16 24  1  0  0  0
 25 24  2  0  0  0
 25 20  1  0  0  0
 24 23  1  0  0  0
 20 21  2  0  0  0
 23 22  2  0  0  0
 21 22  1  0  0  0
 21 26  1  0  0  0
 22 27  1  0  0  0
 16 19  1  0  0  0
  2  4  1  0  0  0
M  END
> <minimizedAffinity>
-8.64556

$$$$
4DKO_0LM_A_513


 27 28  0  0  0  0  0  0  0  0999 V2000
   27.0773  -15.7103   37.5592 C   0  0  0  0  0  0  0  0  0  0  0  0
   27.5223  -14.8600   36.4981 N   0  0  0  0  0  0  0  0  0  0  0  0
   27.1282  -16.9281   37.4616 O   0  0  0  0  0  0  0  0  0  0  0  0
   27.4676  -13.8854   36.6259 H   0  0  0  0  0  0  0  0  0  0  0  0
   28.0700  -15.3807   35.1956 C   0  0  0  0  0  0  0  0  0  0  0  0
   29.8579  -13.7376   34.6146 C   0  0  0  0  0  0  0  0  0  0  0  0
   30.4716  -15.8873   35.7364 C   0  0  0  0  0  0  0  0  0  0  0  0
   31.4563  -16.9686   35.4352 C   0  0  0  0  0  0  0  0  0  0  0  0
   29.7930  -12.6141   35.5913 C   0  0  0  0  0  0  0  0  0  0  0  0
   30.3211  -13.1209   33.3336 C   0  0  0  0  0  0  0  0  0  0  0  0
   28.4807  -14.2821   34.3670 C   0  0  0  0  0  0  0  0  0  0  0  0
   30.8856  -14.6933   35.0258 N   0  0  0  0  0  0  0  0  0  0  0  0
   29.1284  -16.3994   35.3650 C   0  0  0  0  0  0  0  0  0  0  0  0
   30.5171  -15.6503   37.2100 C   0  0  0  0  0  0  0  0  0  0  0  0
   32.2398  -14.2594   35.2155 C   0  0  0  0  0  0  0  0  0  0  0  0
   27.1023  -15.4960   40.0715 N   0  0  0  0  0  0  0  0  0  0  0  0
   26.5398  -15.1036   38.8127 C   0  0  0  0  0  0  0  0  0  0  0  0
   25.6391  -14.2815   38.7409 O   0  0  0  0  0  0  0  0  0  0  0  0
   27.8325  -16.1562   40.0594 H   0  0  0  0  0  0  0  0  0  0  0  0
   27.2554  -14.2225   43.5591 C   0  0  0  0  0  0  0  0  0  0  0  0
   25.9114  -14.0462   43.8540 C   0  0  0  0  0  0  0  0  0  0  0  0
   24.9497  -14.3465   42.9005 C   0  0  0  0  0  0  0  0  0  0  0  0
   25.3304  -14.8236   41.6544 C   0  0  0  0  0  0  0  0  0  0  0  0
   26.6771  -14.9948   41.3512 C   0  0  0  0  0  0  0  0  0  0  0  0
   27.6348  -14.6999   42.3113 C   0  0  0  0  0  0  0  0  0  0  0  0
   25.4304  -13.4528   45.4045 Cl  0  0  0  0  0  0  0  0  0  0  0  0
   23.6619  -14.1769   43.1861 F   0  0  0  0  0  0  0  0  0  0  0  0
  8  7  1  0  0  0
 15 12  1  0  0  0
  7 12  1  0  0  0
  7 13  1  0  0  0
  7 14  1  0  0  0
 12  6  1  0  0  0
 13  5  1  0  0  0
 10  6  1  0  0  0
  6 11  1  0  0  0
  6  9  1  0  0  0
  5 11  1  0  0  0
  5  2  1  0  0  0
  3  1  2  0  0  0
  2  1  1  0  0  0
  1 17  1  0  0  0
 17 16  1  0  0  0
 17 18  2  0  0  0
 16 24  1  0  0  0
 25 24  2  0  0  0
 25 20  1  0  0  0
 24 23  1  0  0  0
 20 21  2  0  0  0
 23 22  2  0  0  0
 21 22  1  0  0  0
 21 26  1  0  0  0
 22 27  1  0  0  0
 16 19  1  0  0  0
  2  4  1  0  0  0
M  END
> <minimizedAffinity>
-8.30960

$$$$
4DKO_0LM_A_513


 27 28  0  0  0  0  0  0  0  0999 V2000
   27.5541  -15.7558   37.6724 C   0  0  0  0  0  0  0  0  0  0  0  0
   28.8439  -15.8189   37.0566 N   0  0  0  0  0  0  0  0  0  0  0  0
   26.5346  -15.9830   37.0368 O   0  0  0  0  0  0  0  0  0  0  0  0
   29.6362  -15.6344   37.6111 H   0  0  0  0  0  0  0  0  0  0  0  0
   29.0508  -16.1534   35.6030 C   0  0  0  0  0  0  0  0  0  0  0  0
   30.1606  -14.1136   34.6858 C   0  0  0  0  0  0  0  0  0  0  0  0
   31.5496  -16.0877   35.3417 C   0  0  0  0  0  0  0  0  0  0  0  0
   32.5987  -16.8925   34.6480 C   0  0  0  0  0  0  0  0  0  0  0  0
   30.1654  -13.0686   35.7480 C   0  0  0  0  0  0  0  0  0  0  0  0
   30.0489  -13.3652   33.3961 C   0  0  0  0  0  0  0  0  0  0  0  0
   28.9290  -14.9637   34.8081 C   0  0  0  0  0  0  0  0  0  0  0  0
   31.4475  -14.8081   34.6677 N   0  0  0  0  0  0  0  0  0  0  0  0
   30.3032  -16.8943   35.3399 C   0  0  0  0  0  0  0  0  0  0  0  0
   32.0063  -15.8918   36.7498 C   0  0  0  0  0  0  0  0  0  0  0  0
   32.6636  -14.0691   34.4858 C   0  0  0  0  0  0  0  0  0  0  0  0
   26.1543  -15.4178   39.7424 N   0  0  0  0  0  0  0  0  0  0  0  0
   27.4454  -15.4067   39.1197 C   0  0  0  0  0  0  0  0  0  0  0  0
   28.4568  -15.1266   39.7450 O   0  0  0  0  0  0  0  0  0  0  0  0
   25.3805  -15.6614   39.1846 H   0  0  0  0  0  0  0  0  0  0  0  0
   24.5204  -14.0254   42.7756 C   0  0  0  0  0  0  0  0  0  0  0  0
   25.3922  -14.4297   43.7760 C   0  0  0  0  0  0  0  0  0  0  0  0
   26.5226  -15.1654   43.4516 C   0  0  0  0  0  0  0  0  0  0  0  0
   26.7824  -15.4952   42.1291 C   0  0  0  0  0  0  0  0  0  0  0  0
   25.9074  -15.0986   41.1232 C   0  0  0  0  0  0  0  0  0  0  0  0
   24.7818  -14.3566   41.4524 C   0  0  0  0  0  0  0  0  0  0  0  0
   25.0747  -14.0217   45.4253 Cl  0  0  0  0  0  0  0  0  0  0  0  0
   27.3569  -15.5515   44.4128 F   0  0  0  0  0  0  0  0  0  0  0  0
  8  7  1  0  0  0
 15 12  1  0  0  0
  7 12  1  0  0  0
  7 13  1  0  0  0
  7 14  1  0  0  0
 12  6  1  0  0  0
 13  5  1  0  0  0
 10  6  1  0  0  0
  6 11  1  0  0  0
  6  9  1  0  0  0
  5 11  1  0  0  0
  5  2  1  0  0  0
  3  1  2  0  0  0
  2  1  1  0  0  0
  1 17  1  0  0  0
 17 16  1  0  0  0
 17 18  2  0  0  0
 16 24  1  0  0  0
 25 24  2  0  0  0
 25 20  1  0  0  0
 24 23  1  0  0  0
 20 21  2  0  0  0
 23 22  2  0  0  0
 21 22  1  0  0  0
 21 26  1  0  0  0
 22 27  1  0  0  0
 16 19  1  0  0  0
  2  4  1  0  0  0
M  END
> <minimizedAffinity>
-7.93136

$$$$
4DKO_0LM_A_513


 27 28  0  0  0  0  0  0  0  0999 V2000
   28.7099  -15.7455   37.5013 C   0  0  0  0  0  0  0  0  0  0  0  0
   28.3331  -15.8399   36.1243 N   0  0  0  0  0  0  0  0  0  0  0  0
   29.8799  -15.8274   37.8470 O   0  0  0  0  0  0  0  0  0  0  0  0
   27.3791  -15.7613   35.8943 H   0  0  0  0  0  0  0  0  0  0  0  0
   29.3222  -16.0534   35.0091 C   0  0  0  0  0  0  0  0  0  0  0  0
   27.8883  -16.1573   32.9678 C   0  0  0  0  0  0  0  0  0  0  0  0
   29.0262  -14.0132   33.5716 C   0  0  0  0  0  0  0  0  0  0  0  0
   29.9047  -13.0617   32.8283 C   0  0  0  0  0  0  0  0  0  0  0  0
   26.4623  -16.1562   33.3999 C   0  0  0  0  0  0  0  0  0  0  0  0
   27.9220  -16.9795   31.7193 C   0  0  0  0  0  0  0  0  0  0  0  0
   28.7321  -16.8694   33.9854 C   0  0  0  0  0  0  0  0  0  0  0  0
   28.2957  -14.8020   32.5989 N   0  0  0  0  0  0  0  0  0  0  0  0
   29.8981  -14.7976   34.4819 C   0  0  0  0  0  0  0  0  0  0  0  0
   28.0790  -13.1930   34.3839 C   0  0  0  0  0  0  0  0  0  0  0  0
   27.5787  -14.0841   31.5847 C   0  0  0  0  0  0  0  0  0  0  0  0
   28.0566  -15.3008   39.8958 N   0  0  0  0  0  0  0  0  0  0  0  0
   27.6576  -15.5422   38.5403 C   0  0  0  0  0  0  0  0  0  0  0  0
   26.4807  -15.5780   38.2148 O   0  0  0  0  0  0  0  0  0  0  0  0
   29.0214  -15.2750   40.0901 H   0  0  0  0  0  0  0  0  0  0  0  0
   24.9692  -14.4201   41.7668 C   0  0  0  0  0  0  0  0  0  0  0  0
   25.3591  -14.6500   43.0781 C   0  0  0  0  0  0  0  0  0  0  0  0
   26.6437  -15.0983   43.3484 C   0  0  0  0  0  0  0  0  0  0  0  0
   27.5380  -15.3152   42.3099 C   0  0  0  0  0  0  0  0  0  0  0  0
   27.1494  -15.0934   40.9929 C   0  0  0  0  0  0  0  0  0  0  0  0
   25.8654  -14.6379   40.7285 C   0  0  0  0  0  0  0  0  0  0  0  0
   24.2502  -14.3813   44.3765 Cl  0  0  0  0  0  0  0  0  0  0  0  0
   27.0149  -15.3176   44.6066 F   0  0  0  0  0  0  0  0  0  0  0  0
  8  7  1  0  0  0
 15 12  1  0  0  0
  7 12  1  0  0  0
  7 13  1  0  0  0
  7 14  1  0  0  0
 12  6  1  0  0  0
 13  5  1  0  0  0
 10  6  1  0  0  0
  6 11  1  0  0  0
  6  9  1  0  0  0
  5 11  1  0  0  0
  5  2  1  0  0  0
  3  1  2  0  0  0
  2  1  1  0  0  0
  1 17  1  0  0  0
 17 16  1  0  0  0
 17 18  2  0  0  0
 16 24  1  0  0  0
 25 24  2  0  0  0
 25 20  1  0  0  0
 24 23  1  0  0  0
 20 21  2  0  0  0
 23 22  2  0  0  0
 21 22  1  0  0  0
 21 26  1  0  0  0
 22 27  1  0  0  0
 16 19  1  0  0  0
  2  4  1  0  0  0
M  END
> <minimizedAffinity>
-7.83408

$$$$
4DKO_0LM_A_513


 27 28  0  0  0  0  0  0  0  0999 V2000
   27.5594  -15.7909   35.9338 C   0  0  0  0  0  0  0  0  0  0  0  0
   27.5379  -14.4959   35.3261 N   0  0  0  0  0  0  0  0  0  0  0  0
   27.9056  -16.7817   35.3064 O   0  0  0  0  0  0  0  0  0  0  0  0
   27.2581  -13.7272   35.8738 H   0  0  0  0  0  0  0  0  0  0  0  0
   27.9218  -14.2494   33.8911 C   0  0  0  0  0  0  0  0  0  0  0  0
   27.8883  -11.7605   33.6960 C   0  0  0  0  0  0  0  0  0  0  0  0
   30.0599  -12.9416   34.0780 C   0  0  0  0  0  0  0  0  0  0  0  0
   31.3883  -12.9133   33.3967 C   0  0  0  0  0  0  0  0  0  0  0  0
   27.3433  -11.2013   34.9651 C   0  0  0  0  0  0  0  0  0  0  0  0
   27.4514  -10.8113   32.6264 C   0  0  0  0  0  0  0  0  0  0  0  0
   27.2430  -13.0834   33.3995 C   0  0  0  0  0  0  0  0  0  0  0  0
   29.3501  -11.7272   33.7270 N   0  0  0  0  0  0  0  0  0  0  0  0
   29.3832  -14.1988   33.6709 C   0  0  0  0  0  0  0  0  0  0  0  0
   30.3211  -12.9778   35.5477 C   0  0  0  0  0  0  0  0  0  0  0  0
   30.0391  -10.4865   33.9371 C   0  0  0  0  0  0  0  0  0  0  0  0
   27.0026  -14.7656   38.1692 N   0  0  0  0  0  0  0  0  0  0  0  0
   27.1526  -15.9408   37.3622 C   0  0  0  0  0  0  0  0  0  0  0  0
   26.9487  -17.0582   37.8121 O   0  0  0  0  0  0  0  0  0  0  0  0
   27.1729  -13.8945   37.7433 H   0  0  0  0  0  0  0  0  0  0  0  0
   27.1916  -15.2291   41.8514 C   0  0  0  0  0  0  0  0  0  0  0  0
   25.9298  -14.8154   42.2526 C   0  0  0  0  0  0  0  0  0  0  0  0
   25.0123  -14.3804   41.3074 C   0  0  0  0  0  0  0  0  0  0  0  0
   25.3548  -14.3603   39.9630 C   0  0  0  0  0  0  0  0  0  0  0  0
   26.6213  -14.7669   39.5564 C   0  0  0  0  0  0  0  0  0  0  0  0
   27.5329  -15.2080   40.5053 C   0  0  0  0  0  0  0  0  0  0  0  0
   25.4966  -14.8385   43.9257 Cl  0  0  0  0  0  0  0  0  0  0  0  0
   23.8031  -13.9847   41.6949 F   0  0  0  0  0  0  0  0  0  0  0  0
  8  7  1  0  0  0
 15 12  1  0  0  0
  7 12  1  0  0  0
  7 13  1  0  0  0
  7 14  1  0  0  0
 12  6  1  0  0  0
 13  5  1  0  0  0
 10  6  1  0  0  0
  6 11  1  0  0  0
  6  9  1  0  0  0
  5 11  1  0  0  0
  5  2  1  0  0  0
  3  1  2  0  0  0
  2  1  1  0  0  0
  1 17  1  0  0  0
 17 16  1  0  0  0
 17 18  2  0  0  0
 16 24  1  0  0  0
 25 24  2  0  0  0
 25 20  1  0  0  0
 24 23  1  0  0  0
 20 21  2  0  0  0
 23 22  2  0  0  0
 21 22  1  0  0  0
 21 26  1  0  0  0
 22 27  1  0  0  0
 16 19  1  0  0  0
  2  4  1  0  0  0
M  END
> <minimizedAffinity>
-7.61088

$$$$
4DKO_0LM_A_513


 27 28  0  0  0  0  0  0  0  0999 V2000
   27.2749  -14.4876   37.3592 C   0  0  0  0  0  0  0  0  0  0  0  0
   27.3105  -15.5148   36.3640 N   0  0  0  0  0  0  0  0  0  0  0  0
   27.3381  -13.3051   37.0546 O   0  0  0  0  0  0  0  0  0  0  0  0
   27.2499  -16.4525   36.6578 H   0  0  0  0  0  0  0  0  0  0  0  0
   27.4361  -15.2340   34.8900 C   0  0  0  0  0  0  0  0  0  0  0  0
   29.8995  -15.3013   34.4896 C   0  0  0  0  0  0  0  0  0  0  0  0
   28.5103  -17.3206   33.9906 C   0  0  0  0  0  0  0  0  0  0  0  0
   28.3565  -18.2026   32.7956 C   0  0  0  0  0  0  0  0  0  0  0  0
   30.5825  -15.4238   35.8083 C   0  0  0  0  0  0  0  0  0  0  0  0
   30.8320  -14.5041   33.6346 C   0  0  0  0  0  0  0  0  0  0  0  0
   28.6412  -14.4955   34.6365 C   0  0  0  0  0  0  0  0  0  0  0  0
   29.7745  -16.6208   33.8715 N   0  0  0  0  0  0  0  0  0  0  0  0
   27.3146  -16.4423   34.0461 C   0  0  0  0  0  0  0  0  0  0  0  0
   28.5249  -18.2075   35.1917 C   0  0  0  0  0  0  0  0  0  0  0  0
   30.9419  -17.4208   33.6363 C   0  0  0  0  0  0  0  0  0  0  0  0
   26.1091  -14.2805   39.5855 N   0  0  0  0  0  0  0  0  0  0  0  0
   27.1577  -14.8616   38.7996 C   0  0  0  0  0  0  0  0  0  0  0  0
   27.9506  -15.6590   39.2770 O   0  0  0  0  0  0  0  0  0  0  0  0
   25.4977  -13.6520   39.1379 H   0  0  0  0  0  0  0  0  0  0  0  0
   24.3849  -14.5496   42.8663 C   0  0  0  0  0  0  0  0  0  0  0  0
   25.4016  -15.0267   43.6807 C   0  0  0  0  0  0  0  0  0  0  0  0
   26.6604  -15.2626   43.1478 C   0  0  0  0  0  0  0  0  0  0  0  0
   26.9035  -15.0205   41.8033 C   0  0  0  0  0  0  0  0  0  0  0  0
   25.8854  -14.5493   40.9810 C   0  0  0  0  0  0  0  0  0  0  0  0
   24.6298  -14.3081   41.5207 C   0  0  0  0  0  0  0  0  0  0  0  0
   25.1056  -15.3299   45.3564 Cl  0  0  0  0  0  0  0  0  0  0  0  0
   27.6334  -15.7198   43.9309 F   0  0  0  0  0  0  0  0  0  0  0  0
  8  7  1  0  0  0
 15 12  1  0  0  0
  7 12  1  0  0  0
  7 13  1  0  0  0
  7 14  1  0  0  0
 12  6  1  0  0  0
 13  5  1  0  0  0
 10  6  1  0  0  0
  6 11  1  0  0  0
  6  9  1  0  0  0
  5 11  1  0  0  0
  5  2  1  0  0  0
  3  1  2  0  0  0
  2  1  1  0  0  0
  1 17  1  0  0  0
 17 16  1  0  0  0
 17 18  2  0  0  0
 16 24  1  0  0  0
 25 24  2  0  0  0
 25 20  1  0  0  0
 24 23  1  0  0  0
 20 21  2  0  0  0
 23 22  2  0  0  0
 21 22  1  0  0  0
 21 26  1  0  0  0
 22 27  1  0  0  0
 16 19  1  0  0  0
  2  4  1  0  0  0
M  END
> <minimizedAffinity>
-6.90865

$$$$
4DKO_0LM_A_513


 27 28  0  0  0  0  0  0  0  0999 V2000
   28.2437  -15.8771   36.6182 C   0  0  0  0  0  0  0  0  0  0  0  0
   29.4681  -16.3793   36.0746 N   0  0  0  0  0  0  0  0  0  0  0  0
   27.3219  -15.5299   35.8938 O   0  0  0  0  0  0  0  0  0  0  0  0
   30.1791  -16.6525   36.6983 H   0  0  0  0  0  0  0  0  0  0  0  0
   29.7241  -16.5109   34.5965 C   0  0  0  0  0  0  0  0  0  0  0  0
   31.4508  -14.7651   34.1443 C   0  0  0  0  0  0  0  0  0  0  0  0
   32.1543  -17.1416   34.4817 C   0  0  0  0  0  0  0  0  0  0  0  0
   33.0025  -18.0915   33.7020 C   0  0  0  0  0  0  0  0  0  0  0  0
   31.6369  -13.9618   35.3854 C   0  0  0  0  0  0  0  0  0  0  0  0
   31.6891  -13.8116   33.0173 C   0  0  0  0  0  0  0  0  0  0  0  0
   30.0246  -15.2224   34.0383 C   0  0  0  0  0  0  0  0  0  0  0  0
   32.4860  -15.7947   34.0602 N   0  0  0  0  0  0  0  0  0  0  0  0
   30.7392  -17.5328   34.2616 C   0  0  0  0  0  0  0  0  0  0  0  0
   32.4974  -17.3283   35.9229 C   0  0  0  0  0  0  0  0  0  0  0  0
   33.8726  -15.4273   34.0858 C   0  0  0  0  0  0  0  0  0  0  0  0
   26.9063  -15.1496   38.6283 N   0  0  0  0  0  0  0  0  0  0  0  0
   28.0832  -15.7736   38.0987 C   0  0  0  0  0  0  0  0  0  0  0  0
   28.9516  -16.2281   38.8278 O   0  0  0  0  0  0  0  0  0  0  0  0
   26.2402  -14.8124   37.9866 H   0  0  0  0  0  0  0  0  0  0  0  0
   27.4114  -15.0262   42.3078 C   0  0  0  0  0  0  0  0  0  0  0  0
   26.1417  -14.6916   42.7554 C   0  0  0  0  0  0  0  0  0  0  0  0
   25.1144  -14.5041   41.8424 C   0  0  0  0  0  0  0  0  0  0  0  0
   25.3550  -14.6524   40.4839 C   0  0  0  0  0  0  0  0  0  0  0  0
   26.6281  -14.9804   40.0295 C   0  0  0  0  0  0  0  0  0  0  0  0
   27.6506  -15.1740   40.9477 C   0  0  0  0  0  0  0  0  0  0  0  0
   25.8351  -14.5059   44.4463 Cl  0  0  0  0  0  0  0  0  0  0  0  0
   23.8980  -14.1836   42.2744 F   0  0  0  0  0  0  0  0  0  0  0  0
  8  7  1  0  0  0
 15 12  1  0  0  0
  7 12  1  0  0  0
  7 13  1  0  0  0
  7 14  1  0  0  0
 12  6  1  0  0  0
 13  5  1  0  0  0
 10  6  1  0  0  0
  6 11  1  0  0  0
  6  9  1  0  0  0
  5 11  1  0  0  0
  5  2  1  0  0  0
  3  1  2  0  0  0
  2  1  1  0  0  0
  1 17  1  0  0  0
 17 16  1  0  0  0
 17 18  2  0  0  0
 16 24  1  0  0  0
 25 24  2  0  0  0
 25 20  1  0  0  0
 24 23  1  0  0  0
 20 21  2  0  0  0
 23 22  2  0  0  0
 21 22  1  0  0  0
 21 26  1  0  0  0
 22 27  1  0  0  0
 16 19  1  0  0  0
  2  4  1  0  0  0
M  END
> <minimizedAffinity>
-6.87414

$$$$
4DKO_0LM_A_513


 27 28  0  0  0  0  0  0  0  0999 V2000
   29.4711  -16.7758   35.3571 C   0  0  0  0  0  0  0  0  0  0  0  0
   30.6658  -15.9964   35.2470 N   0  0  0  0  0  0  0  0  0  0  0  0
   29.0814  -17.4754   34.4332 O   0  0  0  0  0  0  0  0  0  0  0  0
   30.9428  -15.4538   36.0204 H   0  0  0  0  0  0  0  0  0  0  0  0
   31.5209  -15.9641   34.0080 C   0  0  0  0  0  0  0  0  0  0  0  0
   33.6572  -14.9419   34.7983 C   0  0  0  0  0  0  0  0  0  0  0  0
   33.4721  -17.4293   34.6104 C   0  0  0  0  0  0  0  0  0  0  0  0
   34.2961  -18.4820   33.9454 C   0  0  0  0  0  0  0  0  0  0  0  0
   33.4638  -14.4872   36.2041 C   0  0  0  0  0  0  0  0  0  0  0  0
   34.6252  -13.9723   34.1993 C   0  0  0  0  0  0  0  0  0  0  0  0
   32.3717  -14.8076   34.0343 C   0  0  0  0  0  0  0  0  0  0  0  0
   34.3028  -16.2541   34.7860 N   0  0  0  0  0  0  0  0  0  0  0  0
   32.2654  -17.2197   33.7713 C   0  0  0  0  0  0  0  0  0  0  0  0
   33.0587  -17.9698   35.9395 C   0  0  0  0  0  0  0  0  0  0  0  0
   35.5674  -16.4421   35.4369 C   0  0  0  0  0  0  0  0  0  0  0  0
   28.2915  -15.4681   37.1618 N   0  0  0  0  0  0  0  0  0  0  0  0
   28.6814  -16.7381   36.6233 C   0  0  0  0  0  0  0  0  0  0  0  0
   28.3772  -17.7874   37.1700 O   0  0  0  0  0  0  0  0  0  0  0  0
   28.5606  -14.6605   36.6674 H   0  0  0  0  0  0  0  0  0  0  0  0
   25.4294  -14.7961   39.4346 C   0  0  0  0  0  0  0  0  0  0  0  0
   26.0282  -14.9042   40.6813 C   0  0  0  0  0  0  0  0  0  0  0  0
   27.3800  -15.2011   40.7751 C   0  0  0  0  0  0  0  0  0  0  0  0
   28.1328  -15.3881   39.6247 C   0  0  0  0  0  0  0  0  0  0  0  0
   27.5355  -15.2882   38.3725 C   0  0  0  0  0  0  0  0  0  0  0  0
   26.1844  -14.9839   38.2841 C   0  0  0  0  0  0  0  0  0  0  0  0
   25.0962  -14.6719   42.1183 Cl  0  0  0  0  0  0  0  0  0  0  0  0
   27.9515  -15.3038   41.9716 F   0  0  0  0  0  0  0  0  0  0  0  0
  8  7  1  0  0  0
 15 12  1  0  0  0
  7 12  1  0  0  0
  7 13  1  0  0  0
  7 14  1  0  0  0
 12  6  1  0  0  0
 13  5  1  0  0  0
 10  6  1  0  0  0
  6 11  1  0  0  0
  6  9  1  0  0  0
  5 11  1  0  0  0
  5  2  1  0  0  0
  3  1  2  0  0  0
  2  1  1  0  0  0
  1 17  1  0  0  0
 17 16  1  0  0  0
 17 18  2  0  0  0
 16 24  1  0  0  0
 25 24  2  0  0  0
 25 20  1  0  0  0
 24 23  1  0  0  0
 20 21  2  0  0  0
 23 22  2  0  0  0
 21 22  1  0  0  0
 21 26  1  0  0  0
 22 27  1  0  0  0
 16 19  1  0  0  0
  2  4  1  0  0  0
M  END
> <minimizedAffinity>
-6.58085

$$$$
4DKO_0LM_A_513


 27 28  0  0  0  0  0  0  0  0999 V2000
   29.0148  -16.3730   35.5204 C   0  0  0  0  0  0  0  0  0  0  0  0
   28.9359  -15.1925   34.7160 N   0  0  0  0  0  0  0  0  0  0  0  0
   29.6588  -17.3471   35.1579 O   0  0  0  0  0  0  0  0  0  0  0  0
   28.4105  -14.4313   35.0533 H   0  0  0  0  0  0  0  0  0  0  0  0
   29.6161  -15.0555   33.3795 C   0  0  0  0  0  0  0  0  0  0  0  0
   28.2693  -13.3055   32.2146 C   0  0  0  0  0  0  0  0  0  0  0  0
   30.3955  -12.6662   33.3665 C   0  0  0  0  0  0  0  0  0  0  0  0
   31.6162  -11.9158   32.9463 C   0  0  0  0  0  0  0  0  0  0  0  0
   27.0801  -12.9953   33.0573 C   0  0  0  0  0  0  0  0  0  0  0  0
   27.8123  -13.1192   30.8031 C   0  0  0  0  0  0  0  0  0  0  0  0
   28.6434  -14.7515   32.3678 C   0  0  0  0  0  0  0  0  0  0  0  0
   29.3205  -12.3184   32.4580 N   0  0  0  0  0  0  0  0  0  0  0  0
   30.7509  -14.1075   33.3887 C   0  0  0  0  0  0  0  0  0  0  0  0
   30.0619  -12.2208   34.7521 C   0  0  0  0  0  0  0  0  0  0  0  0
   29.0569  -10.9213   32.2659 C   0  0  0  0  0  0  0  0  0  0  0  0
   28.0108  -15.1929   37.5098 N   0  0  0  0  0  0  0  0  0  0  0  0
   28.2989  -16.4212   36.8294 C   0  0  0  0  0  0  0  0  0  0  0  0
   27.9668  -17.5029   37.2900 O   0  0  0  0  0  0  0  0  0  0  0  0
   28.2973  -14.3548   37.0799 H   0  0  0  0  0  0  0  0  0  0  0  0
   25.3150  -14.6212   40.0028 C   0  0  0  0  0  0  0  0  0  0  0  0
   25.9779  -14.8679   41.1962 C   0  0  0  0  0  0  0  0  0  0  0  0
   27.3182  -15.2254   41.1809 C   0  0  0  0  0  0  0  0  0  0  0  0
   27.9955  -15.3348   39.9749 C   0  0  0  0  0  0  0  0  0  0  0  0
   27.3333  -15.0960   38.7752 C   0  0  0  0  0  0  0  0  0  0  0  0
   25.9944  -14.7315   38.7965 C   0  0  0  0  0  0  0  0  0  0  0  0
   25.1402  -14.7328   42.7020 Cl  0  0  0  0  0  0  0  0  0  0  0  0
   27.9513  -15.4610   42.3266 F   0  0  0  0  0  0  0  0  0  0  0  0
  8  7  1  0  0  0
 15 12  1  0  0  0
  7 12  1  0  0  0
  7 13  1  0  0  0
  7 14  1  0  0  0
 12  6  1  0  0  0
 13  5  1  0  0  0
 10  6  1  0  0  0
  6 11  1  0  0  0
  6  9  1  0  0  0
  5 11  1  0  0  0
  5  2  1  0  0  0
  3  1  2  0  0  0
  2  1  1  0  0  0
  1 17  1  0  0  0
 17 16  1  0  0  0
 17 18  2  0  0  0
 16 24  1  0  0  0
 25 24  2  0  0  0
 25 20  1  0  0  0
 24 23  1  0  0  0
 20 21  2  0  0  0
 23 22  2  0  0  0
 21 22  1  0  0  0
 21 26  1  0  0  0
 22 27  1  0  0  0
 16 19  1  0  0  0
  2  4  1  0  0  0
M  END
> <minimizedAffinity>
-6.37753

$$$$
