2P95_ME5_A_1


 32 35  0  0  0  0  0  0  0  0999 V2000
    6.2053   43.1216   59.9253 C   0  0  0  0  0  0  0  0  0  0  0  0
    6.1560   43.0150   61.2671 N   0  0  0  0  0  0  0  0  0  0  0  0
    5.7445   44.0867   59.3325 O   0  0  0  0  0  0  0  0  0  0  0  0
    6.5688   42.2432   61.7178 H   0  0  0  0  0  0  0  0  0  0  0  0
    6.8308   41.9663   59.2770 C   0  0  0  0  0  0  0  0  0  0  0  0
    8.1697   41.0068   57.4143 C   0  0  0  0  0  0  0  0  0  0  0  0
    7.7551   39.6564   57.8155 C   0  0  0  0  0  0  0  0  0  0  0  0
    6.3424   40.6293   59.6604 C   0  0  0  0  0  0  0  0  0  0  0  0
    7.7203   42.1634   58.1596 C   0  0  0  0  0  0  0  0  0  0  0  0
    6.7978   39.4720   58.9153 C   0  0  0  0  0  0  0  0  0  0  0  0
    9.5628   38.0284   57.4852 C   0  0  0  0  0  0  0  0  0  0  0  0
    7.6573   38.1387   55.9189 C   0  0  0  0  0  0  0  0  0  0  0  0
    8.2769   37.0904   55.0422 C   0  0  0  0  0  0  0  0  0  0  0  0
    8.3451   38.5721   57.1157 N   0  0  0  0  0  0  0  0  0  0  0  0
   10.1670   37.0220   56.6534 C   0  0  0  0  0  0  0  0  0  0  0  0
    9.5444   36.5664   55.4611 C   0  0  0  0  0  0  0  0  0  0  0  0
    6.5729   38.6521   55.6432 O   0  0  0  0  0  0  0  0  0  0  0  0
    5.2398   45.6836   63.4828 C   0  0  0  0  0  0  0  0  0  0  0  0
    4.5388   44.6029   64.2707 C   0  0  0  0  0  0  0  0  0  0  0  0
    5.0330   43.4939   63.3718 C   0  0  0  0  0  0  0  0  0  0  0  0
    5.4971   44.0345   62.0376 C   0  0  0  0  0  0  0  0  0  0  0  0
    6.3959   45.1309   62.6518 C   0  0  0  0  0  0  0  0  0  0  0  0
    8.6714   45.0298   63.4891 C   0  0  0  0  0  0  0  0  0  0  0  0
    7.3929   44.5146   63.6074 N   0  0  0  0  0  0  0  0  0  0  0  0
    8.9903   45.8752   62.6444 O   0  0  0  0  0  0  0  0  0  0  0  0
    7.1542   43.8117   64.2540 H   0  0  0  0  0  0  0  0  0  0  0  0
    9.3668   43.8399   65.5577 C   0  0  0  0  0  0  0  0  0  0  0  0
    9.6651   44.5853   64.3777 C   0  0  0  0  0  0  0  0  0  0  0  0
   10.5889   43.5397   66.2357 C   0  0  0  0  0  0  0  0  0  0  0  0
   11.3232   44.8929   64.1170 S   0  0  0  0  0  0  0  0  0  0  0  0
   11.7521   44.0638   65.5339 C   0  0  0  0  0  0  0  0  0  0  0  0
   13.4691   43.8889   66.0043 Cl  0  0  0  0  0  0  0  0  0  0  0  0
 23 25  2  0  0  0
 23 24  1  0  0  0
 23 28  1  0  0  0
 27 28  2  0  0  0
 27 29  1  0  0  0
 28 30  1  0  0  0
  5  9  2  0  0  0
  5  8  1  0  0  0
  5  1  1  0  0  0
 18 22  1  0  0  0
 18 19  1  0  0  0
 19 20  1  0  0  0
 20 21  1  0  0  0
 21  2  1  0  0  0
 21 22  1  0  0  0
  6  7  2  0  0  0
  6  9  1  0  0  0
 11 15  2  0  0  0
 11 14  1  0  0  0
  7 14  1  0  0  0
  7 10  1  0  0  0
 22 24  1  0  0  0
 12 13  1  0  0  0
 12 17  2  0  0  0
 12 14  1  0  0  0
  8 10  2  0  0  0
 13 16  2  0  0  0
  1  3  2  0  0  0
  1  2  1  0  0  0
 15 16  1  0  0  0
 29 31  2  0  0  0
 30 31  1  0  0  0
 31 32  1  0  0  0
  2  4  1  0  0  0
 24 26  1  0  0  0
M  END
> <minimizedAffinity>
-10.18002

$$$$
2P95_ME5_A_1


 32 35  0  0  0  0  0  0  0  0999 V2000
    5.3746   43.0616   59.6811 C   0  0  0  0  0  0  0  0  0  0  0  0
    5.5652   42.9557   61.0103 N   0  0  0  0  0  0  0  0  0  0  0  0
    4.6752   43.9373   59.1924 O   0  0  0  0  0  0  0  0  0  0  0  0
    6.1638   42.2623   61.3709 H   0  0  0  0  0  0  0  0  0  0  0  0
    6.0595   42.0175   58.9148 C   0  0  0  0  0  0  0  0  0  0  0  0
    6.3434   39.6201   58.3196 C   0  0  0  0  0  0  0  0  0  0  0  0
    7.6315   39.9324   57.6873 C   0  0  0  0  0  0  0  0  0  0  0  0
    7.3799   42.3498   58.3496 C   0  0  0  0  0  0  0  0  0  0  0  0
    5.5472   40.6700   58.9186 C   0  0  0  0  0  0  0  0  0  0  0  0
    8.1734   41.2972   57.7459 C   0  0  0  0  0  0  0  0  0  0  0  0
    9.2197   38.0611   57.6280 C   0  0  0  0  0  0  0  0  0  0  0  0
    8.0039   38.7540   55.5937 C   0  0  0  0  0  0  0  0  0  0  0  0
    8.7502   37.7481   54.7674 C   0  0  0  0  0  0  0  0  0  0  0  0
    8.2844   38.8711   57.0083 N   0  0  0  0  0  0  0  0  0  0  0  0
    9.9413   37.0922   56.8469 C   0  0  0  0  0  0  0  0  0  0  0  0
    9.7171   36.9407   55.4528 C   0  0  0  0  0  0  0  0  0  0  0  0
    7.1563   39.4959   55.0972 O   0  0  0  0  0  0  0  0  0  0  0  0
    4.6170   45.4454   63.4131 C   0  0  0  0  0  0  0  0  0  0  0  0
    4.2117   44.2677   64.2669 C   0  0  0  0  0  0  0  0  0  0  0  0
    4.7199   43.2500   63.2729 C   0  0  0  0  0  0  0  0  0  0  0  0
    4.8895   43.8611   61.8997 C   0  0  0  0  0  0  0  0  0  0  0  0
    5.7007   45.0763   62.4020 C   0  0  0  0  0  0  0  0  0  0  0  0
    8.0490   45.3631   62.9430 C   0  0  0  0  0  0  0  0  0  0  0  0
    6.9120   44.6110   63.1787 N   0  0  0  0  0  0  0  0  0  0  0  0
    8.0935   46.2953   62.1312 O   0  0  0  0  0  0  0  0  0  0  0  0
    6.8932   43.8436   63.7952 H   0  0  0  0  0  0  0  0  0  0  0  0
   10.5122   45.4977   63.2471 C   0  0  0  0  0  0  0  0  0  0  0  0
    9.2171   45.0691   63.6666 C   0  0  0  0  0  0  0  0  0  0  0  0
   11.4792   45.0432   64.1967 C   0  0  0  0  0  0  0  0  0  0  0  0
    9.1869   44.1768   65.1207 S   0  0  0  0  0  0  0  0  0  0  0  0
   10.8704   44.3010   65.2916 C   0  0  0  0  0  0  0  0  0  0  0  0
   11.6987   43.5886   66.7081 Cl  0  0  0  0  0  0  0  0  0  0  0  0
 23 25  2  0  0  0
 23 24  1  0  0  0
 23 28  1  0  0  0
 27 28  2  0  0  0
 27 29  1  0  0  0
 28 30  1  0  0  0
  5  9  2  0  0  0
  5  8  1  0  0  0
  5  1  1  0  0  0
 18 22  1  0  0  0
 18 19  1  0  0  0
 19 20  1  0  0  0
 20 21  1  0  0  0
 21  2  1  0  0  0
 21 22  1  0  0  0
  6  7  2  0  0  0
  6  9  1  0  0  0
 11 15  2  0  0  0
 11 14  1  0  0  0
  7 14  1  0  0  0
  7 10  1  0  0  0
 22 24  1  0  0  0
 12 13  1  0  0  0
 12 17  2  0  0  0
 12 14  1  0  0  0
  8 10  2  0  0  0
 13 16  2  0  0  0
  1  3  2  0  0  0
  1  2  1  0  0  0
 15 16  1  0  0  0
 29 31  2  0  0  0
 30 31  1  0  0  0
 31 32  1  0  0  0
  2  4  1  0  0  0
 24 26  1  0  0  0
M  END
> <minimizedAffinity>
-9.52396

$$$$
2P95_ME5_A_1


 32 35  0  0  0  0  0  0  0  0999 V2000
    5.2962   43.0664   57.3413 C   0  0  0  0  0  0  0  0  0  0  0  0
    6.0313   42.6342   56.2986 N   0  0  0  0  0  0  0  0  0  0  0  0
    4.0774   43.1474   57.2881 O   0  0  0  0  0  0  0  0  0  0  0  0
    7.0080   42.5450   56.3847 H   0  0  0  0  0  0  0  0  0  0  0  0
    6.1066   43.4447   58.5016 C   0  0  0  0  0  0  0  0  0  0  0  0
    7.7266   42.8349   60.2868 C   0  0  0  0  0  0  0  0  0  0  0  0
    7.4213   44.0884   60.9882 C   0  0  0  0  0  0  0  0  0  0  0  0
    5.7287   44.6766   59.2176 C   0  0  0  0  0  0  0  0  0  0  0  0
    7.0802   42.5219   59.0301 C   0  0  0  0  0  0  0  0  0  0  0  0
    6.3812   44.9903   60.4738 C   0  0  0  0  0  0  0  0  0  0  0  0
    7.8065   43.9872   63.4108 C   0  0  0  0  0  0  0  0  0  0  0  0
    9.3571   45.2154   61.9331 C   0  0  0  0  0  0  0  0  0  0  0  0
   10.1571   45.6863   63.1120 C   0  0  0  0  0  0  0  0  0  0  0  0
    8.1943   44.3801   62.1419 N   0  0  0  0  0  0  0  0  0  0  0  0
    8.5655   44.4314   64.5493 C   0  0  0  0  0  0  0  0  0  0  0  0
    9.7084   45.2622   64.4065 C   0  0  0  0  0  0  0  0  0  0  0  0
    9.6596   45.5280   60.7815 O   0  0  0  0  0  0  0  0  0  0  0  0
    4.6542   41.0735   53.3766 C   0  0  0  0  0  0  0  0  0  0  0  0
    5.7372   41.8215   52.6365 C   0  0  0  0  0  0  0  0  0  0  0  0
    6.3518   42.3748   53.9006 C   0  0  0  0  0  0  0  0  0  0  0  0
    5.3819   42.3040   55.0591 C   0  0  0  0  0  0  0  0  0  0  0  0
    5.0270   40.8171   54.8354 C   0  0  0  0  0  0  0  0  0  0  0  0
    6.5650   39.4088   56.0766 C   0  0  0  0  0  0  0  0  0  0  0  0
    6.2818   39.9730   54.8456 N   0  0  0  0  0  0  0  0  0  0  0  0
    5.8913   39.6164   57.0929 O   0  0  0  0  0  0  0  0  0  0  0  0
    6.8452   39.8376   54.0497 H   0  0  0  0  0  0  0  0  0  0  0  0
    8.5665   38.5785   57.2944 C   0  0  0  0  0  0  0  0  0  0  0  0
    7.6666   38.5434   56.1872 C   0  0  0  0  0  0  0  0  0  0  0  0
    9.5678   37.5756   57.1078 C   0  0  0  0  0  0  0  0  0  0  0  0
    8.0205   37.3645   55.0054 S   0  0  0  0  0  0  0  0  0  0  0  0
    9.3737   36.8251   55.8752 C   0  0  0  0  0  0  0  0  0  0  0  0
   10.3641   35.4639   55.2700 Cl  0  0  0  0  0  0  0  0  0  0  0  0
 23 25  2  0  0  0
 23 24  1  0  0  0
 23 28  1  0  0  0
 27 28  2  0  0  0
 27 29  1  0  0  0
 28 30  1  0  0  0
  5  9  2  0  0  0
  5  8  1  0  0  0
  5  1  1  0  0  0
 18 22  1  0  0  0
 18 19  1  0  0  0
 19 20  1  0  0  0
 20 21  1  0  0  0
 21  2  1  0  0  0
 21 22  1  0  0  0
  6  7  2  0  0  0
  6  9  1  0  0  0
 11 15  2  0  0  0
 11 14  1  0  0  0
  7 14  1  0  0  0
  7 10  1  0  0  0
 22 24  1  0  0  0
 12 13  1  0  0  0
 12 17  2  0  0  0
 12 14  1  0  0  0
  8 10  2  0  0  0
 13 16  2  0  0  0
  1  3  2  0  0  0
  1  2  1  0  0  0
 15 16  1  0  0  0
 29 31  2  0  0  0
 30 31  1  0  0  0
 31 32  1  0  0  0
  2  4  1  0  0  0
 24 26  1  0  0  0
M  END
> <minimizedAffinity>
-8.00002

$$$$
2P95_ME5_A_1


 32 35  0  0  0  0  0  0  0  0999 V2000
    6.2384   44.6213   57.6576 C   0  0  0  0  0  0  0  0  0  0  0  0
    6.0362   43.3620   57.2245 N   0  0  0  0  0  0  0  0  0  0  0  0
    5.8004   45.5930   57.0584 O   0  0  0  0  0  0  0  0  0  0  0  0
    6.3700   42.5986   57.7489 H   0  0  0  0  0  0  0  0  0  0  0  0
    7.0455   44.6893   58.8784 C   0  0  0  0  0  0  0  0  0  0  0  0
    7.9196   43.6154   60.9436 C   0  0  0  0  0  0  0  0  0  0  0  0
    8.3339   44.9305   61.4489 C   0  0  0  0  0  0  0  0  0  0  0  0
    7.3871   46.0293   59.3893 C   0  0  0  0  0  0  0  0  0  0  0  0
    7.2902   43.4937   59.6458 C   0  0  0  0  0  0  0  0  0  0  0  0
    8.0218   46.1480   60.6874 C   0  0  0  0  0  0  0  0  0  0  0  0
   10.4038   45.2799   62.7221 C   0  0  0  0  0  0  0  0  0  0  0  0
    8.3507   44.4828   63.8383 C   0  0  0  0  0  0  0  0  0  0  0  0
    9.0786   44.3381   65.1425 C   0  0  0  0  0  0  0  0  0  0  0  0
    9.0617   44.9472   62.6669 N   0  0  0  0  0  0  0  0  0  0  0  0
   11.1128   45.1462   63.9668 C   0  0  0  0  0  0  0  0  0  0  0  0
   10.4703   44.6840   65.1459 C   0  0  0  0  0  0  0  0  0  0  0  0
    7.1554   44.2081   63.7324 O   0  0  0  0  0  0  0  0  0  0  0  0
    4.4995   42.0511   54.2596 C   0  0  0  0  0  0  0  0  0  0  0  0
    5.5786   42.8148   53.5300 C   0  0  0  0  0  0  0  0  0  0  0  0
    6.2581   43.2598   54.8036 C   0  0  0  0  0  0  0  0  0  0  0  0
    5.3303   43.1388   55.9920 C   0  0  0  0  0  0  0  0  0  0  0  0
    4.9176   41.6826   55.6817 C   0  0  0  0  0  0  0  0  0  0  0  0
    6.3845   40.0541   56.7235 C   0  0  0  0  0  0  0  0  0  0  0  0
    6.1429   40.8016   55.5848 N   0  0  0  0  0  0  0  0  0  0  0  0
    5.6997   40.1355   57.7504 O   0  0  0  0  0  0  0  0  0  0  0  0
    6.7159   40.7635   54.7850 H   0  0  0  0  0  0  0  0  0  0  0  0
    8.4194   39.0838   57.7705 C   0  0  0  0  0  0  0  0  0  0  0  0
    7.4542   39.1428   56.7208 C   0  0  0  0  0  0  0  0  0  0  0  0
    9.3655   38.0551   57.4706 C   0  0  0  0  0  0  0  0  0  0  0  0
    7.6879   38.0171   55.4599 S   0  0  0  0  0  0  0  0  0  0  0  0
    9.0673   37.3804   56.2152 C   0  0  0  0  0  0  0  0  0  0  0  0
    9.9629   36.0174   55.4802 Cl  0  0  0  0  0  0  0  0  0  0  0  0
 23 25  2  0  0  0
 23 24  1  0  0  0
 23 28  1  0  0  0
 27 28  2  0  0  0
 27 29  1  0  0  0
 28 30  1  0  0  0
  5  9  2  0  0  0
  5  8  1  0  0  0
  5  1  1  0  0  0
 18 22  1  0  0  0
 18 19  1  0  0  0
 19 20  1  0  0  0
 20 21  1  0  0  0
 21  2  1  0  0  0
 21 22  1  0  0  0
  6  7  2  0  0  0
  6  9  1  0  0  0
 11 15  2  0  0  0
 11 14  1  0  0  0
  7 14  1  0  0  0
  7 10  1  0  0  0
 22 24  1  0  0  0
 12 13  1  0  0  0
 12 17  2  0  0  0
 12 14  1  0  0  0
  8 10  2  0  0  0
 13 16  2  0  0  0
  1  3  2  0  0  0
  1  2  1  0  0  0
 15 16  1  0  0  0
 29 31  2  0  0  0
 30 31  1  0  0  0
 31 32  1  0  0  0
  2  4  1  0  0  0
 24 26  1  0  0  0
M  END
> <minimizedAffinity>
-7.97537

$$$$
2P95_ME5_A_1


 32 35  0  0  0  0  0  0  0  0999 V2000
    4.4197   43.5286   59.4021 C   0  0  0  0  0  0  0  0  0  0  0  0
    4.7808   42.6907   58.4112 N   0  0  0  0  0  0  0  0  0  0  0  0
    3.2799   43.9584   59.5068 O   0  0  0  0  0  0  0  0  0  0  0  0
    5.6972   42.3326   58.3751 H   0  0  0  0  0  0  0  0  0  0  0  0
    5.5271   43.8771   60.2957 C   0  0  0  0  0  0  0  0  0  0  0  0
    7.8526   43.4988   61.0905 C   0  0  0  0  0  0  0  0  0  0  0  0
    7.5759   44.3142   62.2800 C   0  0  0  0  0  0  0  0  0  0  0  0
    5.1990   44.6419   61.5126 C   0  0  0  0  0  0  0  0  0  0  0  0
    6.8297   43.2957   60.0867 C   0  0  0  0  0  0  0  0  0  0  0  0
    6.2268   44.8479   62.5142 C   0  0  0  0  0  0  0  0  0  0  0  0
    8.7241   44.0778   64.4371 C   0  0  0  0  0  0  0  0  0  0  0  0
    9.6756   45.4839   62.6444 C   0  0  0  0  0  0  0  0  0  0  0  0
   10.7973   45.9214   63.5400 C   0  0  0  0  0  0  0  0  0  0  0  0
    8.6696   44.5733   63.1462 N   0  0  0  0  0  0  0  0  0  0  0  0
    9.7949   44.4891   65.3055 C   0  0  0  0  0  0  0  0  0  0  0  0
   10.8035   45.3899   64.8720 C   0  0  0  0  0  0  0  0  0  0  0  0
    9.5807   45.8870   61.4851 O   0  0  0  0  0  0  0  0  0  0  0  0
    2.7661   41.0746   55.9213 C   0  0  0  0  0  0  0  0  0  0  0  0
    3.4476   42.0166   54.9578 C   0  0  0  0  0  0  0  0  0  0  0  0
    4.3531   42.5985   56.0177 C   0  0  0  0  0  0  0  0  0  0  0  0
    3.8208   42.3224   57.4063 C   0  0  0  0  0  0  0  0  0  0  0  0
    3.6143   40.8106   57.1637 C   0  0  0  0  0  0  0  0  0  0  0  0
    5.6355   39.5935   57.7318 C   0  0  0  0  0  0  0  0  0  0  0  0
    4.9077   40.1731   56.7079 N   0  0  0  0  0  0  0  0  0  0  0  0
    5.2951   39.6378   58.9200 O   0  0  0  0  0  0  0  0  0  0  0  0
    5.2044   40.1708   55.7692 H   0  0  0  0  0  0  0  0  0  0  0  0
    7.9230   38.8158   58.3159 C   0  0  0  0  0  0  0  0  0  0  0  0
    6.8193   38.9056   57.4154 C   0  0  0  0  0  0  0  0  0  0  0  0
    8.9610   38.0506   57.6993 C   0  0  0  0  0  0  0  0  0  0  0  0
    7.0373   38.1072   55.9231 S   0  0  0  0  0  0  0  0  0  0  0  0
    8.5913   37.5915   56.3679 C   0  0  0  0  0  0  0  0  0  0  0  0
    9.5680   36.5796   55.2623 Cl  0  0  0  0  0  0  0  0  0  0  0  0
 23 25  2  0  0  0
 23 24  1  0  0  0
 23 28  1  0  0  0
 27 28  2  0  0  0
 27 29  1  0  0  0
 28 30  1  0  0  0
  5  9  2  0  0  0
  5  8  1  0  0  0
  5  1  1  0  0  0
 18 22  1  0  0  0
 18 19  1  0  0  0
 19 20  1  0  0  0
 20 21  1  0  0  0
 21  2  1  0  0  0
 21 22  1  0  0  0
  6  7  2  0  0  0
  6  9  1  0  0  0
 11 15  2  0  0  0
 11 14  1  0  0  0
  7 14  1  0  0  0
  7 10  1  0  0  0
 22 24  1  0  0  0
 12 13  1  0  0  0
 12 17  2  0  0  0
 12 14  1  0  0  0
  8 10  2  0  0  0
 13 16  2  0  0  0
  1  3  2  0  0  0
  1  2  1  0  0  0
 15 16  1  0  0  0
 29 31  2  0  0  0
 30 31  1  0  0  0
 31 32  1  0  0  0
  2  4  1  0  0  0
 24 26  1  0  0  0
M  END
> <minimizedAffinity>
-7.77251

$$$$
2P95_ME5_A_1


 32 35  0  0  0  0  0  0  0  0999 V2000
    3.8946   42.3423   58.5667 C   0  0  0  0  0  0  0  0  0  0  0  0
    4.0161   42.5968   59.8839 N   0  0  0  0  0  0  0  0  0  0  0  0
    3.0377   42.8771   57.8777 O   0  0  0  0  0  0  0  0  0  0  0  0
    4.7397   42.1784   60.4041 H   0  0  0  0  0  0  0  0  0  0  0  0
    4.8619   41.3567   58.0775 C   0  0  0  0  0  0  0  0  0  0  0  0
    5.8326   39.0690   58.1594 C   0  0  0  0  0  0  0  0  0  0  0  0
    6.9850   39.5328   57.3762 C   0  0  0  0  0  0  0  0  0  0  0  0
    6.0385   41.8672   57.3507 C   0  0  0  0  0  0  0  0  0  0  0  0
    4.7594   39.9805   58.4946 C   0  0  0  0  0  0  0  0  0  0  0  0
    7.1100   40.9511   57.0120 C   0  0  0  0  0  0  0  0  0  0  0  0
    9.0529   38.2563   57.7252 C   0  0  0  0  0  0  0  0  0  0  0  0
    7.7016   37.9428   55.6826 C   0  0  0  0  0  0  0  0  0  0  0  0
    8.7160   36.9909   55.1201 C   0  0  0  0  0  0  0  0  0  0  0  0
    7.9254   38.5477   56.9777 N   0  0  0  0  0  0  0  0  0  0  0  0
   10.0326   37.3447   57.1972 C   0  0  0  0  0  0  0  0  0  0  0  0
    9.8725   36.7302   55.9270 C   0  0  0  0  0  0  0  0  0  0  0  0
    6.6770   38.2333   55.0651 O   0  0  0  0  0  0  0  0  0  0  0  0
    2.3454   45.1904   61.7147 C   0  0  0  0  0  0  0  0  0  0  0  0
    2.0140   44.0924   62.6968 C   0  0  0  0  0  0  0  0  0  0  0  0
    2.8164   43.0522   61.9511 C   0  0  0  0  0  0  0  0  0  0  0  0
    3.0832   43.4826   60.5259 C   0  0  0  0  0  0  0  0  0  0  0  0
    3.6088   44.8827   60.9135 C   0  0  0  0  0  0  0  0  0  0  0  0
    6.0029   44.8681   61.3099 C   0  0  0  0  0  0  0  0  0  0  0  0
    4.7536   44.7582   61.8938 N   0  0  0  0  0  0  0  0  0  0  0  0
    6.1774   44.9990   60.0924 O   0  0  0  0  0  0  0  0  0  0  0  0
    4.6219   44.6124   62.8585 H   0  0  0  0  0  0  0  0  0  0  0  0
    7.1294   44.2779   63.4456 C   0  0  0  0  0  0  0  0  0  0  0  0
    7.1402   44.8427   62.1349 C   0  0  0  0  0  0  0  0  0  0  0  0
    8.4346   44.4055   64.0143 C   0  0  0  0  0  0  0  0  0  0  0  0
    8.6419   45.4807   61.6352 S   0  0  0  0  0  0  0  0  0  0  0  0
    9.3712   45.0518   63.1060 C   0  0  0  0  0  0  0  0  0  0  0  0
   11.1065   45.3780   63.3930 Cl  0  0  0  0  0  0  0  0  0  0  0  0
 23 25  2  0  0  0
 23 24  1  0  0  0
 23 28  1  0  0  0
 27 28  2  0  0  0
 27 29  1  0  0  0
 28 30  1  0  0  0
  5  9  2  0  0  0
  5  8  1  0  0  0
  5  1  1  0  0  0
 18 22  1  0  0  0
 18 19  1  0  0  0
 19 20  1  0  0  0
 20 21  1  0  0  0
 21  2  1  0  0  0
 21 22  1  0  0  0
  6  7  2  0  0  0
  6  9  1  0  0  0
 11 15  2  0  0  0
 11 14  1  0  0  0
  7 14  1  0  0  0
  7 10  1  0  0  0
 22 24  1  0  0  0
 12 13  1  0  0  0
 12 17  2  0  0  0
 12 14  1  0  0  0
  8 10  2  0  0  0
 13 16  2  0  0  0
  1  3  2  0  0  0
  1  2  1  0  0  0
 15 16  1  0  0  0
 29 31  2  0  0  0
 30 31  1  0  0  0
 31 32  1  0  0  0
  2  4  1  0  0  0
 24 26  1  0  0  0
M  END
> <minimizedAffinity>
-7.63897

$$$$
2P95_ME5_A_1


 32 35  0  0  0  0  0  0  0  0999 V2000
    6.1753   41.3499   54.9038 C   0  0  0  0  0  0  0  0  0  0  0  0
    6.6348   41.4300   56.1675 N   0  0  0  0  0  0  0  0  0  0  0  0
    5.9960   40.2777   54.3441 O   0  0  0  0  0  0  0  0  0  0  0  0
    6.7337   42.3071   56.6035 H   0  0  0  0  0  0  0  0  0  0  0  0
    5.9504   42.6597   54.2872 C   0  0  0  0  0  0  0  0  0  0  0  0
    5.1624   45.0120   54.4568 C   0  0  0  0  0  0  0  0  0  0  0  0
    5.1771   45.1196   52.9923 C   0  0  0  0  0  0  0  0  0  0  0  0
    5.9085   42.7156   52.8147 C   0  0  0  0  0  0  0  0  0  0  0  0
    5.5684   43.7834   55.1056 C   0  0  0  0  0  0  0  0  0  0  0  0
    5.5062   43.9488   52.1672 C   0  0  0  0  0  0  0  0  0  0  0  0
    3.6606   46.7101   51.8978 C   0  0  0  0  0  0  0  0  0  0  0  0
    6.0048   47.3207   52.3756 C   0  0  0  0  0  0  0  0  0  0  0  0
    5.8331   48.6434   51.6882 C   0  0  0  0  0  0  0  0  0  0  0  0
    4.8936   46.3965   52.4422 N   0  0  0  0  0  0  0  0  0  0  0  0
    3.4830   47.9754   51.2367 C   0  0  0  0  0  0  0  0  0  0  0  0
    4.5407   48.9169   51.1300 C   0  0  0  0  0  0  0  0  0  0  0  0
    7.0767   46.9917   52.8836 O   0  0  0  0  0  0  0  0  0  0  0  0
    7.5359   38.9156   58.5625 C   0  0  0  0  0  0  0  0  0  0  0  0
    8.8593   38.8949   57.8357 C   0  0  0  0  0  0  0  0  0  0  0  0
    8.4792   40.0293   56.9133 C   0  0  0  0  0  0  0  0  0  0  0  0
    6.9802   40.2275   56.8759 C   0  0  0  0  0  0  0  0  0  0  0  0
    6.8186   40.2556   58.4122 C   0  0  0  0  0  0  0  0  0  0  0  0
    7.0684   42.5290   59.2238 C   0  0  0  0  0  0  0  0  0  0  0  0
    7.7086   41.3211   59.0119 N   0  0  0  0  0  0  0  0  0  0  0  0
    5.8932   42.7432   58.9028 O   0  0  0  0  0  0  0  0  0  0  0  0
    8.6563   41.1691   59.2312 H   0  0  0  0  0  0  0  0  0  0  0  0
    8.6770   44.4220   59.1375 C   0  0  0  0  0  0  0  0  0  0  0  0
    7.7770   43.5706   59.8462 C   0  0  0  0  0  0  0  0  0  0  0  0
    9.2278   45.3739   60.0505 C   0  0  0  0  0  0  0  0  0  0  0  0
    7.6156   43.9144   61.5098 S   0  0  0  0  0  0  0  0  0  0  0  0
    8.7135   45.2036   61.4020 C   0  0  0  0  0  0  0  0  0  0  0  0
    9.1026   46.1932   62.8405 Cl  0  0  0  0  0  0  0  0  0  0  0  0
 23 25  2  0  0  0
 23 24  1  0  0  0
 23 28  1  0  0  0
 27 28  2  0  0  0
 27 29  1  0  0  0
 28 30  1  0  0  0
  5  9  2  0  0  0
  5  8  1  0  0  0
  5  1  1  0  0  0
 18 22  1  0  0  0
 18 19  1  0  0  0
 19 20  1  0  0  0
 20 21  1  0  0  0
 21  2  1  0  0  0
 21 22  1  0  0  0
  6  7  2  0  0  0
  6  9  1  0  0  0
 11 15  2  0  0  0
 11 14  1  0  0  0
  7 14  1  0  0  0
  7 10  1  0  0  0
 22 24  1  0  0  0
 12 13  1  0  0  0
 12 17  2  0  0  0
 12 14  1  0  0  0
  8 10  2  0  0  0
 13 16  2  0  0  0
  1  3  2  0  0  0
  1  2  1  0  0  0
 15 16  1  0  0  0
 29 31  2  0  0  0
 30 31  1  0  0  0
 31 32  1  0  0  0
  2  4  1  0  0  0
 24 26  1  0  0  0
M  END
> <minimizedAffinity>
-7.18710

$$$$
