4I5C_C5I_A_1201


 24 27  0  0  0  0  0  0  0  0999 V2000
   16.7843    2.9437    0.9357 C   0  0  0  0  0  0  0  0  0  0  0  0
   17.5568    1.8489    1.1317 C   0  0  0  0  0  0  0  0  0  0  0  0
   16.9989    0.7543    0.5163 N   0  0  0  0  0  0  0  0  0  0  0  0
   15.8184    1.1270   -0.1017 C   0  0  0  0  0  0  0  0  0  0  0  0
   15.6379    2.5171    0.1396 C   0  0  0  0  0  0  0  0  0  0  0  0
   14.4744    3.1578   -0.3643 C   0  0  0  0  0  0  0  0  0  0  0  0
   13.5354    2.3975   -1.0803 C   0  0  0  0  0  0  0  0  0  0  0  0
   13.8012    1.0233   -1.2835 C   0  0  0  0  0  0  0  0  0  0  0  0
   14.8996    0.4495   -0.8049 N   0  0  0  0  0  0  0  0  0  0  0  0
   12.5107    3.2263   -1.4116 N   0  0  0  0  0  0  0  0  0  0  0  0
   12.6948    4.4091   -0.9280 N   0  0  0  0  0  0  0  0  0  0  0  0
   13.9472    4.4241   -0.3007 N   0  0  0  0  0  0  0  0  0  0  0  0
   17.3798   -0.1536    0.5151 H   0  0  0  0  0  0  0  0  0  0  0  0
   14.5231    5.5334    0.4701 C   0  0  0  0  0  0  0  0  0  0  0  0
   14.1430    5.2870    1.9612 C   0  0  0  0  0  0  0  0  0  0  0  0
   14.6930    6.3877    2.8631 C   0  0  0  0  0  0  0  0  0  0  0  0
   14.1432    7.7401    2.3612 C   0  0  0  0  0  0  0  0  0  0  0  0
   14.5363    7.8879    0.9365 N   0  0  0  0  0  0  0  0  0  0  0  0
   13.9957    6.8981   -0.0104 C   0  0  0  0  0  0  0  0  0  0  0  0
   15.4562    8.8131    0.5295 C   0  0  0  0  0  0  0  0  0  0  0  0
   15.7875    8.8813   -0.6544 O   0  0  0  0  0  0  0  0  0  0  0  0
   16.0333    9.7964    1.5278 C   0  0  0  0  0  0  0  0  0  0  0  0
   17.1638   10.5559    0.9690 C   0  0  0  0  0  0  0  0  0  0  0  0
   18.0310   11.1429    0.5373 N   0  0  0  0  0  0  0  0  0  0  0  0
  1  2  2  0  0  0
  1  5  1  0  0  0
  2  3  1  0  0  0
  3  4  1  0  0  0
  4  5  2  0  0  0
  4  9  1  0  0  0
  5  6  1  0  0  0
  6  7  2  0  0  0
  6 12  1  0  0  0
  7  8  1  0  0  0
  7 10  1  0  0  0
  8  9  2  0  0  0
 10 11  2  0  0  0
 11 12  1  0  0  0
 12 14  1  0  0  0
 14 15  1  0  0  0
 14 19  1  0  0  0
 15 16  1  0  0  0
 16 17  1  0  0  0
 17 18  1  0  0  0
 18 19  1  0  0  0
 18 20  1  0  0  0
 20 21  2  0  0  0
 20 22  1  0  0  0
 22 23  1  0  0  0
 23 24  3  0  0  0
  3 13  1  0  0  0
M  END
> <minimizedAffinity>
-9.22607

$$$$
4I5C_C5I_A_1201


 24 27  0  0  0  0  0  0  0  0999 V2000
   12.5243    3.1620   -1.3807 C   0  0  0  0  0  0  0  0  0  0  0  0
   11.9147    2.1516   -2.0450 C   0  0  0  0  0  0  0  0  0  0  0  0
   12.6684    1.0053   -1.9667 N   0  0  0  0  0  0  0  0  0  0  0  0
   13.8156    1.2591   -1.2360 C   0  0  0  0  0  0  0  0  0  0  0  0
   13.7694    2.6248   -0.8411 C   0  0  0  0  0  0  0  0  0  0  0  0
   14.8523    3.1628   -0.0956 C   0  0  0  0  0  0  0  0  0  0  0  0
   15.9380    2.3310    0.2236 C   0  0  0  0  0  0  0  0  0  0  0  0
   15.8953    0.9821   -0.1995 C   0  0  0  0  0  0  0  0  0  0  0  0
   14.8681    0.5029   -0.8923 N   0  0  0  0  0  0  0  0  0  0  0  0
   16.8449    3.0880    0.8953 N   0  0  0  0  0  0  0  0  0  0  0  0
   16.4549    4.3159    0.9779 N   0  0  0  0  0  0  0  0  0  0  0  0
   15.1778    4.3980    0.4083 N   0  0  0  0  0  0  0  0  0  0  0  0
   12.4293    0.1386   -2.3679 H   0  0  0  0  0  0  0  0  0  0  0  0
   14.3944    5.6218    0.1966 C   0  0  0  0  0  0  0  0  0  0  0  0
   15.3476    6.8195    0.4891 C   0  0  0  0  0  0  0  0  0  0  0  0
   14.6347    8.1549    0.3000 C   0  0  0  0  0  0  0  0  0  0  0  0
   13.4036    8.1789    1.2311 C   0  0  0  0  0  0  0  0  0  0  0  0
   12.5602    7.0028    0.8967 N   0  0  0  0  0  0  0  0  0  0  0  0
   13.1557    5.6730    1.1102 C   0  0  0  0  0  0  0  0  0  0  0  0
   11.3385    7.1323    0.2980 C   0  0  0  0  0  0  0  0  0  0  0  0
   10.6835    6.1335   -0.0008 O   0  0  0  0  0  0  0  0  0  0  0  0
   10.7605    8.5107    0.0479 C   0  0  0  0  0  0  0  0  0  0  0  0
    9.4817    8.7122    0.7487 C   0  0  0  0  0  0  0  0  0  0  0  0
    8.4957    8.8649    1.2850 N   0  0  0  0  0  0  0  0  0  0  0  0
  1  2  2  0  0  0
  1  5  1  0  0  0
  2  3  1  0  0  0
  3  4  1  0  0  0
  4  5  2  0  0  0
  4  9  1  0  0  0
  5  6  1  0  0  0
  6  7  2  0  0  0
  6 12  1  0  0  0
  7  8  1  0  0  0
  7 10  1  0  0  0
  8  9  2  0  0  0
 10 11  2  0  0  0
 11 12  1  0  0  0
 12 14  1  0  0  0
 14 15  1  0  0  0
 14 19  1  0  0  0
 15 16  1  0  0  0
 16 17  1  0  0  0
 17 18  1  0  0  0
 18 19  1  0  0  0
 18 20  1  0  0  0
 20 21  2  0  0  0
 20 22  1  0  0  0
 22 23  1  0  0  0
 23 24  3  0  0  0
  3 13  1  0  0  0
M  END
> <minimizedAffinity>
-8.96339

$$$$
4I5C_C5I_A_1201


 24 27  0  0  0  0  0  0  0  0999 V2000
   16.0910    3.9183    0.9007 C   0  0  0  0  0  0  0  0  0  0  0  0
   17.1637    3.1495    1.2040 C   0  0  0  0  0  0  0  0  0  0  0  0
   17.0407    1.9087    0.6265 N   0  0  0  0  0  0  0  0  0  0  0  0
   15.8501    1.8451   -0.0757 C   0  0  0  0  0  0  0  0  0  0  0  0
   15.2073    3.1054    0.0711 C   0  0  0  0  0  0  0  0  0  0  0  0
   13.9370    3.3046   -0.5327 C   0  0  0  0  0  0  0  0  0  0  0  0
   13.3523    2.2489   -1.2512 C   0  0  0  0  0  0  0  0  0  0  0  0
   14.0677    1.0334   -1.3563 C   0  0  0  0  0  0  0  0  0  0  0  0
   15.2566    0.8746   -0.7853 N   0  0  0  0  0  0  0  0  0  0  0  0
   12.1388    2.6782   -1.6869 N   0  0  0  0  0  0  0  0  0  0  0  0
   11.8903    3.8732   -1.2664 N   0  0  0  0  0  0  0  0  0  0  0  0
   13.0207    4.3265   -0.5744 N   0  0  0  0  0  0  0  0  0  0  0  0
   17.6972    1.1788    0.7009 H   0  0  0  0  0  0  0  0  0  0  0  0
   13.1450    5.5932    0.1580 C   0  0  0  0  0  0  0  0  0  0  0  0
   11.7267    6.2389    0.1791 C   0  0  0  0  0  0  0  0  0  0  0  0
   11.7353    7.5723    0.9203 C   0  0  0  0  0  0  0  0  0  0  0  0
   12.7618    8.4980    0.2329 C   0  0  0  0  0  0  0  0  0  0  0  0
   14.0751    7.8043    0.2433 N   0  0  0  0  0  0  0  0  0  0  0  0
   14.1661    6.5379   -0.5026 C   0  0  0  0  0  0  0  0  0  0  0  0
   15.1201    8.2399    1.0088 C   0  0  0  0  0  0  0  0  0  0  0  0
   16.1823    7.6175    1.0231 O   0  0  0  0  0  0  0  0  0  0  0  0
   14.9925    9.5241    1.8034 C   0  0  0  0  0  0  0  0  0  0  0  0
   16.1349   10.4270    1.5866 C   0  0  0  0  0  0  0  0  0  0  0  0
   17.0119   11.1246    1.4222 N   0  0  0  0  0  0  0  0  0  0  0  0
  1  2  2  0  0  0
  1  5  1  0  0  0
  2  3  1  0  0  0
  3  4  1  0  0  0
  4  5  2  0  0  0
  4  9  1  0  0  0
  5  6  1  0  0  0
  6  7  2  0  0  0
  6 12  1  0  0  0
  7  8  1  0  0  0
  7 10  1  0  0  0
  8  9  2  0  0  0
 10 11  2  0  0  0
 11 12  1  0  0  0
 12 14  1  0  0  0
 14 15  1  0  0  0
 14 19  1  0  0  0
 15 16  1  0  0  0
 16 17  1  0  0  0
 17 18  1  0  0  0
 18 19  1  0  0  0
 18 20  1  0  0  0
 20 21  2  0  0  0
 20 22  1  0  0  0
 22 23  1  0  0  0
 23 24  3  0  0  0
  3 13  1  0  0  0
M  END
> <minimizedAffinity>
-8.53997

$$$$
4I5C_C5I_A_1201


 24 27  0  0  0  0  0  0  0  0999 V2000
   15.7698    5.0345    0.8997 C   0  0  0  0  0  0  0  0  0  0  0  0
   16.8035    4.1797    1.0856 C   0  0  0  0  0  0  0  0  0  0  0  0
   16.5171    2.9558    0.5304 N   0  0  0  0  0  0  0  0  0  0  0  0
   15.2550    2.9926   -0.0357 C   0  0  0  0  0  0  0  0  0  0  0  0
   14.7368    4.3001    0.1762 C   0  0  0  0  0  0  0  0  0  0  0  0
   13.4279    4.6046   -0.2842 C   0  0  0  0  0  0  0  0  0  0  0  0
   12.6836    3.6035   -0.9293 C   0  0  0  0  0  0  0  0  0  0  0  0
   13.2819    2.3344   -1.1079 C   0  0  0  0  0  0  0  0  0  0  0  0
   14.5099    2.0769   -0.6712 N   0  0  0  0  0  0  0  0  0  0  0  0
   11.4682    4.1318   -1.2299 N   0  0  0  0  0  0  0  0  0  0  0  0
   11.3656    5.3410   -0.7893 N   0  0  0  0  0  0  0  0  0  0  0  0
   12.5986    5.6977   -0.2285 N   0  0  0  0  0  0  0  0  0  0  0  0
   17.1164    2.1747    0.5346 H   0  0  0  0  0  0  0  0  0  0  0  0
   12.9055    6.9465    0.4805 C   0  0  0  0  0  0  0  0  0  0  0  0
   11.5624    7.7251    0.6173 C   0  0  0  0  0  0  0  0  0  0  0  0
   11.7617    9.0514    1.3443 C   0  0  0  0  0  0  0  0  0  0  0  0
   12.8092    9.8746    0.5646 C   0  0  0  0  0  0  0  0  0  0  0  0
   14.0464    9.0583    0.4685 N   0  0  0  0  0  0  0  0  0  0  0  0
   13.9519    7.7891   -0.2723 C   0  0  0  0  0  0  0  0  0  0  0  0
   15.1899    9.3917    1.1386 C   0  0  0  0  0  0  0  0  0  0  0  0
   16.1851    8.6703    1.0673 O   0  0  0  0  0  0  0  0  0  0  0  0
   15.2540   10.6820    1.9308 C   0  0  0  0  0  0  0  0  0  0  0  0
   16.6350   11.0468    2.2872 C   0  0  0  0  0  0  0  0  0  0  0  0
   17.6962   11.3285    2.5652 N   0  0  0  0  0  0  0  0  0  0  0  0
  1  2  2  0  0  0
  1  5  1  0  0  0
  2  3  1  0  0  0
  3  4  1  0  0  0
  4  5  2  0  0  0
  4  9  1  0  0  0
  5  6  1  0  0  0
  6  7  2  0  0  0
  6 12  1  0  0  0
  7  8  1  0  0  0
  7 10  1  0  0  0
  8  9  2  0  0  0
 10 11  2  0  0  0
 11 12  1  0  0  0
 12 14  1  0  0  0
 14 15  1  0  0  0
 14 19  1  0  0  0
 15 16  1  0  0  0
 16 17  1  0  0  0
 17 18  1  0  0  0
 18 19  1  0  0  0
 18 20  1  0  0  0
 20 21  2  0  0  0
 20 22  1  0  0  0
 22 23  1  0  0  0
 23 24  3  0  0  0
  3 13  1  0  0  0
M  END
> <minimizedAffinity>
-8.15766

$$$$
4I5C_C5I_A_1201


 24 27  0  0  0  0  0  0  0  0999 V2000
   14.6271    8.5197    0.4367 C   0  0  0  0  0  0  0  0  0  0  0  0
   15.3853    9.6311    0.5902 C   0  0  0  0  0  0  0  0  0  0  0  0
   14.6047   10.6913    0.9838 N   0  0  0  0  0  0  0  0  0  0  0  0
   13.2885   10.2780    1.0895 C   0  0  0  0  0  0  0  0  0  0  0  0
   13.2522    8.8976    0.7482 C   0  0  0  0  0  0  0  0  0  0  0  0
   12.0028    8.2218    0.7455 C   0  0  0  0  0  0  0  0  0  0  0  0
   10.8408    8.9390    1.0743 C   0  0  0  0  0  0  0  0  0  0  0  0
   10.9709   10.3062    1.4124 C   0  0  0  0  0  0  0  0  0  0  0  0
   12.1525   10.9134    1.4111 N   0  0  0  0  0  0  0  0  0  0  0  0
    9.7906    8.0844    0.9587 N   0  0  0  0  0  0  0  0  0  0  0  0
   10.1780    6.9260    0.5407 N   0  0  0  0  0  0  0  0  0  0  0  0
   11.5749    6.9532    0.4402 N   0  0  0  0  0  0  0  0  0  0  0  0
   14.9311   11.6027    1.1628 H   0  0  0  0  0  0  0  0  0  0  0  0
   12.4319    5.8854   -0.0905 C   0  0  0  0  0  0  0  0  0  0  0  0
   11.4963    4.8952   -0.8474 C   0  0  0  0  0  0  0  0  0  0  0  0
   12.2848    3.7343   -1.4455 C   0  0  0  0  0  0  0  0  0  0  0  0
   13.0409    3.0262   -0.3010 C   0  0  0  0  0  0  0  0  0  0  0  0
   13.8937    4.0387    0.3727 N   0  0  0  0  0  0  0  0  0  0  0  0
   13.2032    5.1617    1.0289 C   0  0  0  0  0  0  0  0  0  0  0  0
   15.2574    4.0129    0.2858 C   0  0  0  0  0  0  0  0  0  0  0  0
   15.9314    4.8912    0.8244 O   0  0  0  0  0  0  0  0  0  0  0  0
   15.9486    2.8703   -0.4307 C   0  0  0  0  0  0  0  0  0  0  0  0
   16.9127    2.1734    0.4364 C   0  0  0  0  0  0  0  0  0  0  0  0
   17.6576    1.6395    1.1020 N   0  0  0  0  0  0  0  0  0  0  0  0
  1  2  2  0  0  0
  1  5  1  0  0  0
  2  3  1  0  0  0
  3  4  1  0  0  0
  4  5  2  0  0  0
  4  9  1  0  0  0
  5  6  1  0  0  0
  6  7  2  0  0  0
  6 12  1  0  0  0
  7  8  1  0  0  0
  7 10  1  0  0  0
  8  9  2  0  0  0
 10 11  2  0  0  0
 11 12  1  0  0  0
 12 14  1  0  0  0
 14 15  1  0  0  0
 14 19  1  0  0  0
 15 16  1  0  0  0
 16 17  1  0  0  0
 17 18  1  0  0  0
 18 19  1  0  0  0
 18 20  1  0  0  0
 20 21  2  0  0  0
 20 22  1  0  0  0
 22 23  1  0  0  0
 23 24  3  0  0  0
  3 13  1  0  0  0
M  END
> <minimizedAffinity>
-7.78860

$$$$
4I5C_C5I_A_1201


 24 27  0  0  0  0  0  0  0  0999 V2000
   15.7214    5.7645    1.4268 C   0  0  0  0  0  0  0  0  0  0  0  0
   16.9742    5.4682    1.8469 C   0  0  0  0  0  0  0  0  0  0  0  0
   17.3616    4.2408    1.3659 N   0  0  0  0  0  0  0  0  0  0  0  0
   16.3368    3.6998    0.6096 C   0  0  0  0  0  0  0  0  0  0  0  0
   15.2664    4.6364    0.6204 C   0  0  0  0  0  0  0  0  0  0  0  0
   14.0635    4.3147   -0.0632 C   0  0  0  0  0  0  0  0  0  0  0  0
   13.9660    3.0791   -0.7238 C   0  0  0  0  0  0  0  0  0  0  0  0
   15.0839    2.2132   -0.6928 C   0  0  0  0  0  0  0  0  0  0  0  0
   16.1992    2.5404   -0.0494 N   0  0  0  0  0  0  0  0  0  0  0  0
   12.7180    3.0010   -1.2557 N   0  0  0  0  0  0  0  0  0  0  0  0
   12.0154    4.0391   -0.9466 N   0  0  0  0  0  0  0  0  0  0  0  0
   12.8420    4.9182   -0.2352 N   0  0  0  0  0  0  0  0  0  0  0  0
   18.2323    3.8129    1.5332 H   0  0  0  0  0  0  0  0  0  0  0  0
   12.4341    6.1787    0.3980 C   0  0  0  0  0  0  0  0  0  0  0  0
   10.9017    6.3258    0.1559 C   0  0  0  0  0  0  0  0  0  0  0  0
   10.3631    7.6118    0.7752 C   0  0  0  0  0  0  0  0  0  0  0  0
   11.1420    8.7996    0.1706 C   0  0  0  0  0  0  0  0  0  0  0  0
   12.5865    8.5739    0.4325 N   0  0  0  0  0  0  0  0  0  0  0  0
   13.1976    7.3836   -0.1825 C   0  0  0  0  0  0  0  0  0  0  0  0
   13.2965    9.3515    1.3039 C   0  0  0  0  0  0  0  0  0  0  0  0
   14.4833    9.1111    1.5266 O   0  0  0  0  0  0  0  0  0  0  0  0
   12.6376   10.5482    1.9598 C   0  0  0  0  0  0  0  0  0  0  0  0
   13.6239   11.5025    2.4923 C   0  0  0  0  0  0  0  0  0  0  0  0
   14.3807   12.2400    2.9002 N   0  0  0  0  0  0  0  0  0  0  0  0
  1  2  2  0  0  0
  1  5  1  0  0  0
  2  3  1  0  0  0
  3  4  1  0  0  0
  4  5  2  0  0  0
  4  9  1  0  0  0
  5  6  1  0  0  0
  6  7  2  0  0  0
  6 12  1  0  0  0
  7  8  1  0  0  0
  7 10  1  0  0  0
  8  9  2  0  0  0
 10 11  2  0  0  0
 11 12  1  0  0  0
 12 14  1  0  0  0
 14 15  1  0  0  0
 14 19  1  0  0  0
 15 16  1  0  0  0
 16 17  1  0  0  0
 17 18  1  0  0  0
 18 19  1  0  0  0
 18 20  1  0  0  0
 20 21  2  0  0  0
 20 22  1  0  0  0
 22 23  1  0  0  0
 23 24  3  0  0  0
  3 13  1  0  0  0
M  END
> <minimizedAffinity>
-7.72014

$$$$
4I5C_C5I_A_1201


 24 27  0  0  0  0  0  0  0  0999 V2000
   11.1906    7.1719    0.7323 C   0  0  0  0  0  0  0  0  0  0  0  0
    9.9553    7.7248    0.7796 C   0  0  0  0  0  0  0  0  0  0  0  0
   10.0385    9.0502    1.1324 N   0  0  0  0  0  0  0  0  0  0  0  0
   11.3649    9.3897    1.3327 C   0  0  0  0  0  0  0  0  0  0  0  0
   12.1393    8.2216    1.0902 C   0  0  0  0  0  0  0  0  0  0  0  0
   13.5488    8.2835    1.2559 C   0  0  0  0  0  0  0  0  0  0  0  0
   14.1336    9.4949    1.6598 C   0  0  0  0  0  0  0  0  0  0  0  0
   13.2887   10.6099    1.8675 C   0  0  0  0  0  0  0  0  0  0  0  0
   11.9733   10.5261    1.7014 N   0  0  0  0  0  0  0  0  0  0  0  0
   15.4697    9.2791    1.7824 N   0  0  0  0  0  0  0  0  0  0  0  0
   15.7644    8.0444    1.5469 N   0  0  0  0  0  0  0  0  0  0  0  0
   14.5872    7.3900    1.1619 N   0  0  0  0  0  0  0  0  0  0  0  0
    9.2737    9.6628    1.2278 H   0  0  0  0  0  0  0  0  0  0  0  0
   14.4349    5.9538    0.8964 C   0  0  0  0  0  0  0  0  0  0  0  0
   15.7373    5.2644    1.4033 C   0  0  0  0  0  0  0  0  0  0  0  0
   15.6912    3.7565    1.1764 C   0  0  0  0  0  0  0  0  0  0  0  0
   15.4739    3.5034   -0.3309 C   0  0  0  0  0  0  0  0  0  0  0  0
   14.2265    4.2028   -0.7322 N   0  0  0  0  0  0  0  0  0  0  0  0
   14.2127    5.6695   -0.6008 C   0  0  0  0  0  0  0  0  0  0  0  0
   13.0946    3.5231   -1.0851 C   0  0  0  0  0  0  0  0  0  0  0  0
   12.0663    4.1355   -1.3742 O   0  0  0  0  0  0  0  0  0  0  0  0
   13.1168    2.0104   -1.1738 C   0  0  0  0  0  0  0  0  0  0  0  0
   12.1771    1.4997   -2.1853 C   0  0  0  0  0  0  0  0  0  0  0  0
   11.4515    1.1098   -2.9628 N   0  0  0  0  0  0  0  0  0  0  0  0
  1  2  2  0  0  0
  1  5  1  0  0  0
  2  3  1  0  0  0
  3  4  1  0  0  0
  4  5  2  0  0  0
  4  9  1  0  0  0
  5  6  1  0  0  0
  6  7  2  0  0  0
  6 12  1  0  0  0
  7  8  1  0  0  0
  7 10  1  0  0  0
  8  9  2  0  0  0
 10 11  2  0  0  0
 11 12  1  0  0  0
 12 14  1  0  0  0
 14 15  1  0  0  0
 14 19  1  0  0  0
 15 16  1  0  0  0
 16 17  1  0  0  0
 17 18  1  0  0  0
 18 19  1  0  0  0
 18 20  1  0  0  0
 20 21  2  0  0  0
 20 22  1  0  0  0
 22 23  1  0  0  0
 23 24  3  0  0  0
  3 13  1  0  0  0
M  END
> <minimizedAffinity>
-7.67537

$$$$
4I5C_C5I_A_1201


 24 27  0  0  0  0  0  0  0  0999 V2000
   12.7592    4.5314   -0.3238 C   0  0  0  0  0  0  0  0  0  0  0  0
   11.7230    4.0512   -1.0514 C   0  0  0  0  0  0  0  0  0  0  0  0
   12.0202    2.8013   -1.5388 N   0  0  0  0  0  0  0  0  0  0  0  0
   13.2921    2.4400   -1.1311 C   0  0  0  0  0  0  0  0  0  0  0  0
   13.8055    3.5144   -0.3531 C   0  0  0  0  0  0  0  0  0  0  0  0
   15.1222    3.4168    0.1711 C   0  0  0  0  0  0  0  0  0  0  0  0
   15.8787    2.2649   -0.1000 C   0  0  0  0  0  0  0  0  0  0  0  0
   15.2846    1.2402   -0.8729 C   0  0  0  0  0  0  0  0  0  0  0  0
   14.0492    1.3549   -1.3478 N   0  0  0  0  0  0  0  0  0  0  0  0
   17.0988    2.4370    0.4730 N   0  0  0  0  0  0  0  0  0  0  0  0
   17.1927    3.6000    1.0256 N   0  0  0  0  0  0  0  0  0  0  0  0
   15.9496    4.2336    0.9018 N   0  0  0  0  0  0  0  0  0  0  0  0
   11.4215    2.2490   -2.0918 H   0  0  0  0  0  0  0  0  0  0  0  0
   15.6292    5.6104    1.2995 C   0  0  0  0  0  0  0  0  0  0  0  0
   14.6054    5.5112    2.4703 C   0  0  0  0  0  0  0  0  0  0  0  0
   14.1966    6.8940    2.9684 C   0  0  0  0  0  0  0  0  0  0  0  0
   13.6099    7.6804    1.7766 C   0  0  0  0  0  0  0  0  0  0  0  0
   14.6392    7.7150    0.7063 N   0  0  0  0  0  0  0  0  0  0  0  0
   15.0443    6.4223    0.1289 C   0  0  0  0  0  0  0  0  0  0  0  0
   15.2818    8.8686    0.3542 C   0  0  0  0  0  0  0  0  0  0  0  0
   16.1581    8.8532   -0.5106 O   0  0  0  0  0  0  0  0  0  0  0  0
   14.8794   10.1837    0.9908 C   0  0  0  0  0  0  0  0  0  0  0  0
   15.9726   10.7769    1.7783 C   0  0  0  0  0  0  0  0  0  0  0  0
   16.8156   11.2345    2.3806 N   0  0  0  0  0  0  0  0  0  0  0  0
  1  2  2  0  0  0
  1  5  1  0  0  0
  2  3  1  0  0  0
  3  4  1  0  0  0
  4  5  2  0  0  0
  4  9  1  0  0  0
  5  6  1  0  0  0
  6  7  2  0  0  0
  6 12  1  0  0  0
  7  8  1  0  0  0
  7 10  1  0  0  0
  8  9  2  0  0  0
 10 11  2  0  0  0
 11 12  1  0  0  0
 12 14  1  0  0  0
 14 15  1  0  0  0
 14 19  1  0  0  0
 15 16  1  0  0  0
 16 17  1  0  0  0
 17 18  1  0  0  0
 18 19  1  0  0  0
 18 20  1  0  0  0
 20 21  2  0  0  0
 20 22  1  0  0  0
 22 23  1  0  0  0
 23 24  3  0  0  0
  3 13  1  0  0  0
M  END
> <minimizedAffinity>
-7.59173

$$$$
4I5C_C5I_A_1201


 24 27  0  0  0  0  0  0  0  0999 V2000
   15.9680    4.2753    0.6335 C   0  0  0  0  0  0  0  0  0  0  0  0
   17.0974    3.7990    1.2091 C   0  0  0  0  0  0  0  0  0  0  0  0
   17.2161    2.4489    0.9827 N   0  0  0  0  0  0  0  0  0  0  0  0
   16.1330    2.0107    0.2414 C   0  0  0  0  0  0  0  0  0  0  0  0
   15.3066    3.1418   -0.0050 C   0  0  0  0  0  0  0  0  0  0  0  0
   14.0969    2.9659   -0.7286 C   0  0  0  0  0  0  0  0  0  0  0  0
   13.7512    1.6794   -1.1733 C   0  0  0  0  0  0  0  0  0  0  0  0
   14.6380    0.6135   -0.8938 C   0  0  0  0  0  0  0  0  0  0  0  0
   15.7656    0.8061   -0.2184 N   0  0  0  0  0  0  0  0  0  0  0  0
   12.5461    1.7750   -1.7939 N   0  0  0  0  0  0  0  0  0  0  0  0
   12.0860    2.9797   -1.7320 N   0  0  0  0  0  0  0  0  0  0  0  0
   13.0563    3.7764   -1.1107 N   0  0  0  0  0  0  0  0  0  0  0  0
   17.9563    1.8818    1.2985 H   0  0  0  0  0  0  0  0  0  0  0  0
   12.9177    5.1911   -0.7424 C   0  0  0  0  0  0  0  0  0  0  0  0
   14.3505    5.8036   -0.7720 C   0  0  0  0  0  0  0  0  0  0  0  0
   14.3289    7.2834   -0.4019 C   0  0  0  0  0  0  0  0  0  0  0  0
   13.6904    7.4200    0.9970 C   0  0  0  0  0  0  0  0  0  0  0  0
   12.3409    6.8021    0.9408 N   0  0  0  0  0  0  0  0  0  0  0  0
   12.2794    5.3600    0.6488 C   0  0  0  0  0  0  0  0  0  0  0  0
   11.1976    7.5463    1.0254 C   0  0  0  0  0  0  0  0  0  0  0  0
   10.0954    7.0051    0.9355 O   0  0  0  0  0  0  0  0  0  0  0  0
   11.2825    9.0370    1.2843 C   0  0  0  0  0  0  0  0  0  0  0  0
   10.0387    9.7354    0.9207 C   0  0  0  0  0  0  0  0  0  0  0  0
    9.0800   10.2718    0.6446 N   0  0  0  0  0  0  0  0  0  0  0  0
  1  2  2  0  0  0
  1  5  1  0  0  0
  2  3  1  0  0  0
  3  4  1  0  0  0
  4  5  2  0  0  0
  4  9  1  0  0  0
  5  6  1  0  0  0
  6  7  2  0  0  0
  6 12  1  0  0  0
  7  8  1  0  0  0
  7 10  1  0  0  0
  8  9  2  0  0  0
 10 11  2  0  0  0
 11 12  1  0  0  0
 12 14  1  0  0  0
 14 15  1  0  0  0
 14 19  1  0  0  0
 15 16  1  0  0  0
 16 17  1  0  0  0
 17 18  1  0  0  0
 18 19  1  0  0  0
 18 20  1  0  0  0
 20 21  2  0  0  0
 20 22  1  0  0  0
 22 23  1  0  0  0
 23 24  3  0  0  0
  3 13  1  0  0  0
M  END
> <minimizedAffinity>
-7.47530

$$$$
4I5C_C5I_A_1201


 24 27  0  0  0  0  0  0  0  0999 V2000
   11.3864    8.7940    1.0302 C   0  0  0  0  0  0  0  0  0  0  0  0
   10.0349    8.7233    1.0761 C   0  0  0  0  0  0  0  0  0  0  0  0
    9.6063    7.4896    0.6488 N   0  0  0  0  0  0  0  0  0  0  0  0
   10.7013    6.7181    0.3018 C   0  0  0  0  0  0  0  0  0  0  0  0
   11.8617    7.5091    0.5270 C   0  0  0  0  0  0  0  0  0  0  0  0
   13.1369    6.9633    0.2205 C   0  0  0  0  0  0  0  0  0  0  0  0
   13.2121    5.6615   -0.3010 C   0  0  0  0  0  0  0  0  0  0  0  0
   12.0079    4.9420   -0.4819 C   0  0  0  0  0  0  0  0  0  0  0  0
   10.8281    5.4746   -0.1831 N   0  0  0  0  0  0  0  0  0  0  0  0
   14.5228    5.3967   -0.5430 N   0  0  0  0  0  0  0  0  0  0  0  0
   15.2610    6.4212   -0.2742 N   0  0  0  0  0  0  0  0  0  0  0  0
   14.4323    7.4173    0.2580 N   0  0  0  0  0  0  0  0  0  0  0  0
    8.6668    7.1999    0.5976 H   0  0  0  0  0  0  0  0  0  0  0  0
   14.8303    8.7860    0.6110 C   0  0  0  0  0  0  0  0  0  0  0  0
   16.2565    9.0034    0.0217 C   0  0  0  0  0  0  0  0  0  0  0  0
   16.7766   10.4040    0.3302 C   0  0  0  0  0  0  0  0  0  0  0  0
   16.7690   10.5931    1.8623 C   0  0  0  0  0  0  0  0  0  0  0  0
   15.3832   10.3555    2.3409 N   0  0  0  0  0  0  0  0  0  0  0  0
   14.8289    9.0068    2.1351 C   0  0  0  0  0  0  0  0  0  0  0  0
   14.6021   11.3634    2.8326 C   0  0  0  0  0  0  0  0  0  0  0  0
   13.4438   11.1375    3.1839 O   0  0  0  0  0  0  0  0  0  0  0  0
   15.1781   12.7554    2.9975 C   0  0  0  0  0  0  0  0  0  0  0  0
   14.1282   13.7770    3.1431 C   0  0  0  0  0  0  0  0  0  0  0  0
   13.3204   14.5625    3.2593 N   0  0  0  0  0  0  0  0  0  0  0  0
  1  2  2  0  0  0
  1  5  1  0  0  0
  2  3  1  0  0  0
  3  4  1  0  0  0
  4  5  2  0  0  0
  4  9  1  0  0  0
  5  6  1  0  0  0
  6  7  2  0  0  0
  6 12  1  0  0  0
  7  8  1  0  0  0
  7 10  1  0  0  0
  8  9  2  0  0  0
 10 11  2  0  0  0
 11 12  1  0  0  0
 12 14  1  0  0  0
 14 15  1  0  0  0
 14 19  1  0  0  0
 15 16  1  0  0  0
 16 17  1  0  0  0
 17 18  1  0  0  0
 18 19  1  0  0  0
 18 20  1  0  0  0
 20 21  2  0  0  0
 20 22  1  0  0  0
 22 23  1  0  0  0
 23 24  3  0  0  0
  3 13  1  0  0  0
M  END
> <minimizedAffinity>
-7.32652

$$$$
