3KYQ_DPV_A_201


 23 22  0  0  0  0  0  0  0  0999 V2000
   -2.0296   17.4804   13.1587 C   0  0  0  0  0  0  0  0  0  0  0  0
   -2.5416   18.8088   12.9060 O   0  0  0  0  0  0  0  0  0  0  0  0
   -2.2367   20.0325   13.9464 P   0  0  0  0  0  0  0  0  0  0  0  0
   -3.5321   20.5172   14.5213 O   0  0  0  0  0  0  0  0  0  0  0  0
   -1.1456   19.5910   14.8637 O   0  0  0  0  0  0  0  0  0  0  0  0
   -1.6126   21.1928   12.9881 O   0  0  0  0  0  0  0  0  0  0  0  0
   -0.8293   20.8399   11.8421 C   0  0  0  0  0  0  0  0  0  0  0  0
    0.6213   21.3239   12.0081 C   0  0  0  0  0  0  0  0  0  0  0  0
    1.5853   20.2020   12.0152 N   0  0  0  0  0  0  0  0  0  0  0  0
    2.8068   20.5446   11.2716 C   0  0  0  0  0  0  0  0  0  0  0  0
    0.9633   19.0392   11.3639 C   0  0  0  0  0  0  0  0  0  0  0  0
    1.9375   19.8226   13.3964 C   0  0  0  0  0  0  0  0  0  0  0  0
   -2.4515   16.5633   12.0031 C   0  0  0  0  0  0  0  0  0  0  0  0
   -1.2261   16.0278   11.2547 C   0  0  0  0  0  0  0  0  0  0  0  0
   -0.5997   14.8511   12.0057 C   0  0  0  0  0  0  0  0  0  0  0  0
   -1.6688   13.9828   12.6575 C   0  0  0  0  0  0  0  0  0  0  0  0
   -1.2200   12.5263   12.6857 C   0  0  0  0  0  0  0  0  0  0  0  0
   -2.2565   11.6343   12.0072 C   0  0  0  0  0  0  0  0  0  0  0  0
   -3.4965   12.4499   11.6320 C   0  0  0  0  0  0  0  0  0  0  0  0
   -4.1342   11.8946   10.3605 C   0  0  0  0  0  0  0  0  0  0  0  0
   -3.9988   12.8825    9.2059 C   0  0  0  0  0  0  0  0  0  0  0  0
   -4.5580   14.2484    9.5964 C   0  0  0  0  0  0  0  0  0  0  0  0
   -5.9666   14.4250    9.0382 C   0  0  0  0  0  0  0  0  0  0  0  0
  9  8  1  0  0  0
  9 10  1  0  0  0
  9 11  1  0  0  0
  9 12  1  0  0  0
  3  4  1  0  0  0
  3  5  2  0  0  0
  3  2  1  0  0  0
  3  6  1  0  0  0
  1 13  1  0  0  0
  1  2  1  0  0  0
 13 14  1  0  0  0
 14 15  1  0  0  0
  7  8  1  0  0  0
  7  6  1  0  0  0
 15 16  1  0  0  0
 16 17  1  0  0  0
 17 18  1  0  0  0
 18 19  1  0  0  0
 19 20  1  0  0  0
 20 21  1  0  0  0
 21 22  1  0  0  0
 22 23  1  0  0  0
M  CHG 1   4  -1
M  CHG 1   9   1
M  END
> <minimizedAffinity>
-6.07964

$$$$
3KYQ_DPV_A_201


 23 22  0  0  0  0  0  0  0  0999 V2000
   -1.6738   17.5521   13.2302 C   0  0  0  0  0  0  0  0  0  0  0  0
   -1.4394   18.7576   12.4671 O   0  0  0  0  0  0  0  0  0  0  0  0
   -1.6404   20.2296   13.1496 P   0  0  0  0  0  0  0  0  0  0  0  0
   -1.9378   20.0541   14.6071 O   0  0  0  0  0  0  0  0  0  0  0  0
   -0.4927   21.0872   12.7324 O   0  0  0  0  0  0  0  0  0  0  0  0
   -2.9659   20.8117   12.4024 O   0  0  0  0  0  0  0  0  0  0  0  0
   -3.4981   20.1455   11.2516 C   0  0  0  0  0  0  0  0  0  0  0  0
   -2.8102   20.6462    9.9701 C   0  0  0  0  0  0  0  0  0  0  0  0
   -2.6291   19.5655    8.9765 N   0  0  0  0  0  0  0  0  0  0  0  0
   -1.2549   19.0428    9.0026 C   0  0  0  0  0  0  0  0  0  0  0  0
   -2.8876   20.1082    7.6342 C   0  0  0  0  0  0  0  0  0  0  0  0
   -3.5810   18.4653    9.2197 C   0  0  0  0  0  0  0  0  0  0  0  0
   -2.3182   16.5063   12.3107 C   0  0  0  0  0  0  0  0  0  0  0  0
   -2.2453   15.1092   12.9360 C   0  0  0  0  0  0  0  0  0  0  0  0
   -1.5727   14.1194   11.9827 C   0  0  0  0  0  0  0  0  0  0  0  0
   -1.8173   12.6807   12.4211 C   0  0  0  0  0  0  0  0  0  0  0  0
   -2.7514   11.9821   11.4399 C   0  0  0  0  0  0  0  0  0  0  0  0
   -4.1539   12.5799   11.5189 C   0  0  0  0  0  0  0  0  0  0  0  0
   -4.8995   12.3639   10.1994 C   0  0  0  0  0  0  0  0  0  0  0  0
   -5.4525   13.6881    9.6775 C   0  0  0  0  0  0  0  0  0  0  0  0
   -4.3448   14.7291    9.5485 C   0  0  0  0  0  0  0  0  0  0  0  0
   -3.3863   14.3596    8.4191 C   0  0  0  0  0  0  0  0  0  0  0  0
   -2.1174   15.2022    8.5023 C   0  0  0  0  0  0  0  0  0  0  0  0
  9  8  1  0  0  0
  9 10  1  0  0  0
  9 11  1  0  0  0
  9 12  1  0  0  0
  3  4  1  0  0  0
  3  5  2  0  0  0
  3  2  1  0  0  0
  3  6  1  0  0  0
  1 13  1  0  0  0
  1  2  1  0  0  0
 13 14  1  0  0  0
 14 15  1  0  0  0
  7  8  1  0  0  0
  7  6  1  0  0  0
 15 16  1  0  0  0
 16 17  1  0  0  0
 17 18  1  0  0  0
 18 19  1  0  0  0
 19 20  1  0  0  0
 20 21  1  0  0  0
 21 22  1  0  0  0
 22 23  1  0  0  0
M  CHG 1   4  -1
M  CHG 1   9   1
M  END
> <minimizedAffinity>
-6.04951

$$$$
3KYQ_DPV_A_201


 23 22  0  0  0  0  0  0  0  0999 V2000
   -2.5183   13.4060   11.8266 C   0  0  0  0  0  0  0  0  0  0  0  0
   -3.8730   13.8441   11.5744 O   0  0  0  0  0  0  0  0  0  0  0  0
   -4.4030   14.0789   10.0457 P   0  0  0  0  0  0  0  0  0  0  0  0
   -3.7499   13.0765    9.1444 O   0  0  0  0  0  0  0  0  0  0  0  0
   -5.8920   14.1686   10.0872 O   0  0  0  0  0  0  0  0  0  0  0  0
   -3.8466   15.5656    9.6798 O   0  0  0  0  0  0  0  0  0  0  0  0
   -3.1056   15.7835    8.4736 C   0  0  0  0  0  0  0  0  0  0  0  0
   -3.9951   16.4380    7.4028 C   0  0  0  0  0  0  0  0  0  0  0  0
   -3.4445   17.7283    6.9340 N   0  0  0  0  0  0  0  0  0  0  0  0
   -4.1784   18.8629    7.5141 C   0  0  0  0  0  0  0  0  0  0  0  0
   -3.5777   17.7962    5.4708 C   0  0  0  0  0  0  0  0  0  0  0  0
   -2.0132   17.8408    7.2719 C   0  0  0  0  0  0  0  0  0  0  0  0
   -1.6959   14.6072   12.3117 C   0  0  0  0  0  0  0  0  0  0  0  0
   -2.4975   15.4526   13.3071 C   0  0  0  0  0  0  0  0  0  0  0  0
   -2.2228   16.9437   13.1015 C   0  0  0  0  0  0  0  0  0  0  0  0
   -1.0181   17.1609   12.1941 C   0  0  0  0  0  0  0  0  0  0  0  0
   -1.4338   17.9184   10.9383 C   0  0  0  0  0  0  0  0  0  0  0  0
   -2.7978   18.5746   11.1367 C   0  0  0  0  0  0  0  0  0  0  0  0
   -2.7255   20.0655   10.7967 C   0  0  0  0  0  0  0  0  0  0  0  0
   -2.3068   20.8717   12.0240 C   0  0  0  0  0  0  0  0  0  0  0  0
   -3.3572   20.7731   13.1259 C   0  0  0  0  0  0  0  0  0  0  0  0
   -2.7080   20.4084   14.4588 C   0  0  0  0  0  0  0  0  0  0  0  0
   -1.2028   20.2313   14.2856 C   0  0  0  0  0  0  0  0  0  0  0  0
  9  8  1  0  0  0
  9 10  1  0  0  0
  9 11  1  0  0  0
  9 12  1  0  0  0
  3  4  1  0  0  0
  3  5  2  0  0  0
  3  2  1  0  0  0
  3  6  1  0  0  0
  1 13  1  0  0  0
  1  2  1  0  0  0
 13 14  1  0  0  0
 14 15  1  0  0  0
  7  8  1  0  0  0
  7  6  1  0  0  0
 15 16  1  0  0  0
 16 17  1  0  0  0
 17 18  1  0  0  0
 18 19  1  0  0  0
 19 20  1  0  0  0
 20 21  1  0  0  0
 21 22  1  0  0  0
 22 23  1  0  0  0
M  CHG 1   4  -1
M  CHG 1   9   1
M  END
> <minimizedAffinity>
-5.91898

$$$$
3KYQ_DPV_A_201


 23 22  0  0  0  0  0  0  0  0999 V2000
   -2.2000   17.2642   12.7803 C   0  0  0  0  0  0  0  0  0  0  0  0
   -1.8692   18.0745   13.9313 O   0  0  0  0  0  0  0  0  0  0  0  0
   -1.9123   19.7064   13.8431 P   0  0  0  0  0  0  0  0  0  0  0  0
   -3.2496   20.1848   14.3189 O   0  0  0  0  0  0  0  0  0  0  0  0
   -0.6728   20.2315   14.4873 O   0  0  0  0  0  0  0  0  0  0  0  0
   -1.7795   19.9995   12.2461 O   0  0  0  0  0  0  0  0  0  0  0  0
   -0.6005   20.6203   11.7206 C   0  0  0  0  0  0  0  0  0  0  0  0
    0.2163   19.6151   10.8908 C   0  0  0  0  0  0  0  0  0  0  0  0
    1.5329   19.3289   11.5011 N   0  0  0  0  0  0  0  0  0  0  0  0
    2.0310   20.4857   12.2602 C   0  0  0  0  0  0  0  0  0  0  0  0
    2.4970   19.0339   10.4303 C   0  0  0  0  0  0  0  0  0  0  0  0
    1.4548   18.1526   12.3876 C   0  0  0  0  0  0  0  0  0  0  0  0
   -2.3218   15.8016   13.2278 C   0  0  0  0  0  0  0  0  0  0  0  0
   -2.5647   14.8808   12.0273 C   0  0  0  0  0  0  0  0  0  0  0  0
   -1.9679   13.4938   12.2741 C   0  0  0  0  0  0  0  0  0  0  0  0
   -2.6768   12.4336   11.4403 C   0  0  0  0  0  0  0  0  0  0  0  0
   -4.1786   12.4779   11.6976 C   0  0  0  0  0  0  0  0  0  0  0  0
   -4.9426   11.9120   10.5033 C   0  0  0  0  0  0  0  0  0  0  0  0
   -4.5965   12.6920    9.2323 C   0  0  0  0  0  0  0  0  0  0  0  0
   -5.2856   14.0546    9.2396 C   0  0  0  0  0  0  0  0  0  0  0  0
   -4.3493   15.1424    8.7223 C   0  0  0  0  0  0  0  0  0  0  0  0
   -3.0321   14.5372    8.2434 C   0  0  0  0  0  0  0  0  0  0  0  0
   -1.8758   15.4918    8.5242 C   0  0  0  0  0  0  0  0  0  0  0  0
  9  8  1  0  0  0
  9 10  1  0  0  0
  9 11  1  0  0  0
  9 12  1  0  0  0
  3  4  1  0  0  0
  3  5  2  0  0  0
  3  2  1  0  0  0
  3  6  1  0  0  0
  1 13  1  0  0  0
  1  2  1  0  0  0
 13 14  1  0  0  0
 14 15  1  0  0  0
  7  8  1  0  0  0
  7  6  1  0  0  0
 15 16  1  0  0  0
 16 17  1  0  0  0
 17 18  1  0  0  0
 18 19  1  0  0  0
 19 20  1  0  0  0
 20 21  1  0  0  0
 21 22  1  0  0  0
 22 23  1  0  0  0
M  CHG 1   4  -1
M  CHG 1   9   1
M  END
> <minimizedAffinity>
-5.86663

$$$$
3KYQ_DPV_A_201


 23 22  0  0  0  0  0  0  0  0999 V2000
   -1.5372   16.8948    8.7658 C   0  0  0  0  0  0  0  0  0  0  0  0
   -2.7666   17.3398    9.3833 O   0  0  0  0  0  0  0  0  0  0  0  0
   -3.3356   18.8491    9.1168 P   0  0  0  0  0  0  0  0  0  0  0  0
   -2.2471   19.6799    8.5097 O   0  0  0  0  0  0  0  0  0  0  0  0
   -4.6451   18.7258    8.4118 O   0  0  0  0  0  0  0  0  0  0  0  0
   -3.6525   19.4008   10.6165 O   0  0  0  0  0  0  0  0  0  0  0  0
   -2.9175   18.9026   11.7403 C   0  0  0  0  0  0  0  0  0  0  0  0
   -2.5003   20.0561   12.6685 C   0  0  0  0  0  0  0  0  0  0  0  0
   -1.0584   20.0138   12.9958 N   0  0  0  0  0  0  0  0  0  0  0  0
   -0.3472   21.1641   12.4185 C   0  0  0  0  0  0  0  0  0  0  0  0
   -0.4801   18.7859   12.4292 C   0  0  0  0  0  0  0  0  0  0  0  0
   -0.8533   19.9881   14.4563 C   0  0  0  0  0  0  0  0  0  0  0  0
   -1.0780   15.6053    9.4592 C   0  0  0  0  0  0  0  0  0  0  0  0
   -1.5468   15.5719   10.9177 C   0  0  0  0  0  0  0  0  0  0  0  0
   -0.4632   14.9867   11.8256 C   0  0  0  0  0  0  0  0  0  0  0  0
   -0.9468   13.7135   12.5089 C   0  0  0  0  0  0  0  0  0  0  0  0
   -2.4465   13.5393   12.2986 C   0  0  0  0  0  0  0  0  0  0  0  0
   -2.7369   12.2211   11.5857 C   0  0  0  0  0  0  0  0  0  0  0  0
   -4.2053   12.1601   11.1572 C   0  0  0  0  0  0  0  0  0  0  0  0
   -4.3118   12.0177    9.6406 C   0  0  0  0  0  0  0  0  0  0  0  0
   -3.9562   13.3272    8.9433 C   0  0  0  0  0  0  0  0  0  0  0  0
   -4.8970   14.4458    9.3843 C   0  0  0  0  0  0  0  0  0  0  0  0
   -6.3097   14.1850    8.8711 C   0  0  0  0  0  0  0  0  0  0  0  0
  9  8  1  0  0  0
  9 10  1  0  0  0
  9 11  1  0  0  0
  9 12  1  0  0  0
  3  4  1  0  0  0
  3  5  2  0  0  0
  3  2  1  0  0  0
  3  6  1  0  0  0
  1 13  1  0  0  0
  1  2  1  0  0  0
 13 14  1  0  0  0
 14 15  1  0  0  0
  7  8  1  0  0  0
  7  6  1  0  0  0
 15 16  1  0  0  0
 16 17  1  0  0  0
 17 18  1  0  0  0
 18 19  1  0  0  0
 19 20  1  0  0  0
 20 21  1  0  0  0
 21 22  1  0  0  0
 22 23  1  0  0  0
M  CHG 1   4  -1
M  CHG 1   9   1
M  END
> <minimizedAffinity>
-5.85130

$$$$
3KYQ_DPV_A_201


 23 22  0  0  0  0  0  0  0  0999 V2000
   -1.1428   16.4847    8.3381 C   0  0  0  0  0  0  0  0  0  0  0  0
   -1.0381   17.3722    9.4748 O   0  0  0  0  0  0  0  0  0  0  0  0
   -0.9495   18.9911    9.2640 P   0  0  0  0  0  0  0  0  0  0  0  0
    0.1601   19.5326   10.1120 O   0  0  0  0  0  0  0  0  0  0  0  0
   -0.9512   19.2614    7.7965 O   0  0  0  0  0  0  0  0  0  0  0  0
   -2.3740   19.5239    9.8479 O   0  0  0  0  0  0  0  0  0  0  0  0
   -2.4108   20.5975   10.7952 C   0  0  0  0  0  0  0  0  0  0  0  0
   -3.2428   20.2036   12.0276 C   0  0  0  0  0  0  0  0  0  0  0  0
   -2.4210   20.1347   13.2555 N   0  0  0  0  0  0  0  0  0  0  0  0
   -3.1217   20.7362   14.3999 C   0  0  0  0  0  0  0  0  0  0  0  0
   -1.1757   20.8856   13.0344 C   0  0  0  0  0  0  0  0  0  0  0  0
   -2.0668   18.7381   13.5712 C   0  0  0  0  0  0  0  0  0  0  0  0
   -2.0687   15.3187    8.7091 C   0  0  0  0  0  0  0  0  0  0  0  0
   -3.4265   15.8331    9.1991 C   0  0  0  0  0  0  0  0  0  0  0  0
   -4.2554   14.6966    9.8009 C   0  0  0  0  0  0  0  0  0  0  0  0
   -4.2449   13.4699    8.8971 C   0  0  0  0  0  0  0  0  0  0  0  0
   -4.1263   12.2005    9.7327 C   0  0  0  0  0  0  0  0  0  0  0  0
   -3.9998   12.5456   11.2143 C   0  0  0  0  0  0  0  0  0  0  0  0
   -2.7658   11.8675   11.8151 C   0  0  0  0  0  0  0  0  0  0  0  0
   -1.6626   12.8935   12.0637 C   0  0  0  0  0  0  0  0  0  0  0  0
   -2.1813   14.0614   12.8970 C   0  0  0  0  0  0  0  0  0  0  0  0
   -1.5958   15.3807   12.3997 C   0  0  0  0  0  0  0  0  0  0  0  0
   -0.1190   15.2110   12.0572 C   0  0  0  0  0  0  0  0  0  0  0  0
  9  8  1  0  0  0
  9 10  1  0  0  0
  9 11  1  0  0  0
  9 12  1  0  0  0
  3  4  1  0  0  0
  3  5  2  0  0  0
  3  2  1  0  0  0
  3  6  1  0  0  0
  1 13  1  0  0  0
  1  2  1  0  0  0
 13 14  1  0  0  0
 14 15  1  0  0  0
  7  8  1  0  0  0
  7  6  1  0  0  0
 15 16  1  0  0  0
 16 17  1  0  0  0
 17 18  1  0  0  0
 18 19  1  0  0  0
 19 20  1  0  0  0
 20 21  1  0  0  0
 21 22  1  0  0  0
 22 23  1  0  0  0
M  CHG 1   4  -1
M  CHG 1   9   1
M  END
> <minimizedAffinity>
-5.83973

$$$$
3KYQ_DPV_A_201


 23 22  0  0  0  0  0  0  0  0999 V2000
   -5.2801   14.9249    8.7674 C   0  0  0  0  0  0  0  0  0  0  0  0
   -5.6247   14.1041    9.9068 O   0  0  0  0  0  0  0  0  0  0  0  0
   -4.9063   12.6538   10.1382 P   0  0  0  0  0  0  0  0  0  0  0  0
   -5.3681   12.0844   11.4444 O   0  0  0  0  0  0  0  0  0  0  0  0
   -5.0750   11.8559    8.8886 O   0  0  0  0  0  0  0  0  0  0  0  0
   -3.3257   13.0320   10.2517 O   0  0  0  0  0  0  0  0  0  0  0  0
   -2.6918   13.1118   11.5337 C   0  0  0  0  0  0  0  0  0  0  0  0
   -2.8565   14.5192   12.1321 C   0  0  0  0  0  0  0  0  0  0  0  0
   -1.6164   15.3184   12.0251 N   0  0  0  0  0  0  0  0  0  0  0  0
   -0.4251   14.4858   12.2484 C   0  0  0  0  0  0  0  0  0  0  0  0
   -1.6404   16.3695   13.0537 C   0  0  0  0  0  0  0  0  0  0  0  0
   -1.5246   15.9686   10.7043 C   0  0  0  0  0  0  0  0  0  0  0  0
   -6.5569   15.5915    8.2382 C   0  0  0  0  0  0  0  0  0  0  0  0
   -6.2267   16.8836    7.4835 C   0  0  0  0  0  0  0  0  0  0  0  0
   -4.7154   17.1183    7.4392 C   0  0  0  0  0  0  0  0  0  0  0  0
   -4.3570   18.4976    7.9786 C   0  0  0  0  0  0  0  0  0  0  0  0
   -3.6648   18.3713    9.3308 C   0  0  0  0  0  0  0  0  0  0  0  0
   -3.3539   19.7519    9.9033 C   0  0  0  0  0  0  0  0  0  0  0  0
   -2.8273   19.6278   11.3354 C   0  0  0  0  0  0  0  0  0  0  0  0
   -3.5802   20.5782   12.2636 C   0  0  0  0  0  0  0  0  0  0  0  0
   -2.7137   20.9792   13.4534 C   0  0  0  0  0  0  0  0  0  0  0  0
   -2.1472   19.7438   14.1488 C   0  0  0  0  0  0  0  0  0  0  0  0
   -0.6748   19.9537   14.4882 C   0  0  0  0  0  0  0  0  0  0  0  0
  9  8  1  0  0  0
  9 10  1  0  0  0
  9 11  1  0  0  0
  9 12  1  0  0  0
  3  4  1  0  0  0
  3  5  2  0  0  0
  3  2  1  0  0  0
  3  6  1  0  0  0
  1 13  1  0  0  0
  1  2  1  0  0  0
 13 14  1  0  0  0
 14 15  1  0  0  0
  7  8  1  0  0  0
  7  6  1  0  0  0
 15 16  1  0  0  0
 16 17  1  0  0  0
 17 18  1  0  0  0
 18 19  1  0  0  0
 19 20  1  0  0  0
 20 21  1  0  0  0
 21 22  1  0  0  0
 22 23  1  0  0  0
M  CHG 1   4  -1
M  CHG 1   9   1
M  END
> <minimizedAffinity>
-5.69503

$$$$
3KYQ_DPV_A_201


 23 22  0  0  0  0  0  0  0  0999 V2000
   -1.4741   18.2301   12.9587 C   0  0  0  0  0  0  0  0  0  0  0  0
   -2.5706   19.0999   13.3221 O   0  0  0  0  0  0  0  0  0  0  0  0
   -2.8213   20.5045   12.5239 P   0  0  0  0  0  0  0  0  0  0  0  0
   -3.7377   21.3685   13.3347 O   0  0  0  0  0  0  0  0  0  0  0  0
   -1.4912   21.0355   12.1049 O   0  0  0  0  0  0  0  0  0  0  0  0
   -3.5940   20.0335   11.1693 O   0  0  0  0  0  0  0  0  0  0  0  0
   -2.9572   20.1603    9.8926 C   0  0  0  0  0  0  0  0  0  0  0  0
   -3.5960   19.2033    8.8718 C   0  0  0  0  0  0  0  0  0  0  0  0
   -3.2540   19.5655    7.4790 N   0  0  0  0  0  0  0  0  0  0  0  0
   -3.2754   21.0232    7.2872 C   0  0  0  0  0  0  0  0  0  0  0  0
   -4.2509   18.9697    6.5765 C   0  0  0  0  0  0  0  0  0  0  0  0
   -1.9264   19.0380    7.1115 C   0  0  0  0  0  0  0  0  0  0  0  0
   -2.0491   16.9299   12.3814 C   0  0  0  0  0  0  0  0  0  0  0  0
   -0.9846   15.8281   12.3493 C   0  0  0  0  0  0  0  0  0  0  0  0
   -0.4047   15.6709   10.9422 C   0  0  0  0  0  0  0  0  0  0  0  0
   -1.2154   16.4605    9.9218 C   0  0  0  0  0  0  0  0  0  0  0  0
   -1.4269   15.6309    8.6606 C   0  0  0  0  0  0  0  0  0  0  0  0
   -2.9050   15.6039    8.2800 C   0  0  0  0  0  0  0  0  0  0  0  0
   -3.7561   15.1833    9.4809 C   0  0  0  0  0  0  0  0  0  0  0  0
   -3.6757   13.6725    9.6874 C   0  0  0  0  0  0  0  0  0  0  0  0
   -4.0978   13.2919   11.1031 C   0  0  0  0  0  0  0  0  0  0  0  0
   -3.3842   12.0202   11.5552 C   0  0  0  0  0  0  0  0  0  0  0  0
   -1.9765   12.3463   12.0442 C   0  0  0  0  0  0  0  0  0  0  0  0
  9  8  1  0  0  0
  9 10  1  0  0  0
  9 11  1  0  0  0
  9 12  1  0  0  0
  3  4  1  0  0  0
  3  5  2  0  0  0
  3  2  1  0  0  0
  3  6  1  0  0  0
  1 13  1  0  0  0
  1  2  1  0  0  0
 13 14  1  0  0  0
 14 15  1  0  0  0
  7  8  1  0  0  0
  7  6  1  0  0  0
 15 16  1  0  0  0
 16 17  1  0  0  0
 17 18  1  0  0  0
 18 19  1  0  0  0
 19 20  1  0  0  0
 20 21  1  0  0  0
 21 22  1  0  0  0
 22 23  1  0  0  0
M  CHG 1   4  -1
M  CHG 1   9   1
M  END
> <minimizedAffinity>
-5.68009

$$$$
3KYQ_DPV_A_201


 23 22  0  0  0  0  0  0  0  0999 V2000
   -3.4805   17.1896    9.0029 C   0  0  0  0  0  0  0  0  0  0  0  0
   -2.5702   17.7584    9.9716 O   0  0  0  0  0  0  0  0  0  0  0  0
   -2.5996   19.3587   10.3051 P   0  0  0  0  0  0  0  0  0  0  0  0
   -2.8716   20.1147    9.0410 O   0  0  0  0  0  0  0  0  0  0  0  0
   -3.4863   19.5625   11.4879 O   0  0  0  0  0  0  0  0  0  0  0  0
   -1.0764   19.6682   10.7931 O   0  0  0  0  0  0  0  0  0  0  0  0
   -0.8120   20.0237   12.1552 C   0  0  0  0  0  0  0  0  0  0  0  0
    0.1690   21.2065   12.2251 C   0  0  0  0  0  0  0  0  0  0  0  0
    1.5433   20.7714   12.5565 N   0  0  0  0  0  0  0  0  0  0  0  0
    1.5698   19.9957   13.8056 C   0  0  0  0  0  0  0  0  0  0  0  0
    2.3860   21.9629   12.7390 C   0  0  0  0  0  0  0  0  0  0  0  0
    2.1159   19.9654   11.4620 C   0  0  0  0  0  0  0  0  0  0  0  0
   -3.5176   15.6681    9.1980 C   0  0  0  0  0  0  0  0  0  0  0  0
   -4.8841   15.0991    8.8017 C   0  0  0  0  0  0  0  0  0  0  0  0
   -5.1815   13.8096    9.5695 C   0  0  0  0  0  0  0  0  0  0  0  0
   -4.1810   12.7160    9.2162 C   0  0  0  0  0  0  0  0  0  0  0  0
   -4.1024   11.6900   10.3408 C   0  0  0  0  0  0  0  0  0  0  0  0
   -3.7415   12.3688   11.6596 C   0  0  0  0  0  0  0  0  0  0  0  0
   -2.2305   12.3020   11.8963 C   0  0  0  0  0  0  0  0  0  0  0  0
   -1.6848   13.6846   12.2459 C   0  0  0  0  0  0  0  0  0  0  0  0
   -2.8112   14.6279   12.6568 C   0  0  0  0  0  0  0  0  0  0  0  0
   -2.2568   16.0024   13.0235 C   0  0  0  0  0  0  0  0  0  0  0  0
   -0.8083   16.1311   12.5626 C   0  0  0  0  0  0  0  0  0  0  0  0
  9  8  1  0  0  0
  9 10  1  0  0  0
  9 11  1  0  0  0
  9 12  1  0  0  0
  3  4  1  0  0  0
  3  5  2  0  0  0
  3  2  1  0  0  0
  3  6  1  0  0  0
  1 13  1  0  0  0
  1  2  1  0  0  0
 13 14  1  0  0  0
 14 15  1  0  0  0
  7  8  1  0  0  0
  7  6  1  0  0  0
 15 16  1  0  0  0
 16 17  1  0  0  0
 17 18  1  0  0  0
 18 19  1  0  0  0
 19 20  1  0  0  0
 20 21  1  0  0  0
 21 22  1  0  0  0
 22 23  1  0  0  0
M  CHG 1   4  -1
M  CHG 1   9   1
M  END
> <minimizedAffinity>
-5.65028

$$$$
3KYQ_DPV_A_201


 23 22  0  0  0  0  0  0  0  0999 V2000
   -3.0874   19.5077    9.4320 C   0  0  0  0  0  0  0  0  0  0  0  0
   -3.9628   18.5897    8.7380 O   0  0  0  0  0  0  0  0  0  0  0  0
   -3.3638   17.2528    8.0123 P   0  0  0  0  0  0  0  0  0  0  0  0
   -4.3473   16.7712    6.9904 O   0  0  0  0  0  0  0  0  0  0  0  0
   -1.9604   17.5473    7.5991 O   0  0  0  0  0  0  0  0  0  0  0  0
   -3.2851   16.1699    9.2269 O   0  0  0  0  0  0  0  0  0  0  0  0
   -3.9204   14.8926    9.0988 C   0  0  0  0  0  0  0  0  0  0  0  0
   -4.4446   14.4099   10.4620 C   0  0  0  0  0  0  0  0  0  0  0  0
   -4.1934   12.9680   10.6763 N   0  0  0  0  0  0  0  0  0  0  0  0
   -5.1589   12.3945   11.6257 C   0  0  0  0  0  0  0  0  0  0  0  0
   -2.8442   12.8008   11.2376 C   0  0  0  0  0  0  0  0  0  0  0  0
   -4.2564   12.2300    9.4008 C   0  0  0  0  0  0  0  0  0  0  0  0
   -3.5491   19.6186   10.8911 C   0  0  0  0  0  0  0  0  0  0  0  0
   -2.6626   20.5942   11.6725 C   0  0  0  0  0  0  0  0  0  0  0  0
   -3.0508   20.6184   13.1522 C   0  0  0  0  0  0  0  0  0  0  0  0
   -1.8420   20.3570   14.0423 C   0  0  0  0  0  0  0  0  0  0  0  0
   -0.5563   20.7029   13.3002 C   0  0  0  0  0  0  0  0  0  0  0  0
    0.6006   19.8451   13.8063 C   0  0  0  0  0  0  0  0  0  0  0  0
    1.5530   19.5046   12.6572 C   0  0  0  0  0  0  0  0  0  0  0  0
    0.8634   18.5901   11.6474 C   0  0  0  0  0  0  0  0  0  0  0  0
    0.3335   17.3303   12.3251 C   0  0  0  0  0  0  0  0  0  0  0  0
   -1.1223   17.0815   11.9381 C   0  0  0  0  0  0  0  0  0  0  0  0
   -1.9465   16.7261   13.1716 C   0  0  0  0  0  0  0  0  0  0  0  0
  9  8  1  0  0  0
  9 10  1  0  0  0
  9 11  1  0  0  0
  9 12  1  0  0  0
  3  4  1  0  0  0
  3  5  2  0  0  0
  3  2  1  0  0  0
  3  6  1  0  0  0
  1 13  1  0  0  0
  1  2  1  0  0  0
 13 14  1  0  0  0
 14 15  1  0  0  0
  7  8  1  0  0  0
  7  6  1  0  0  0
 15 16  1  0  0  0
 16 17  1  0  0  0
 17 18  1  0  0  0
 18 19  1  0  0  0
 19 20  1  0  0  0
 20 21  1  0  0  0
 21 22  1  0  0  0
 22 23  1  0  0  0
M  CHG 1   4  -1
M  CHG 1   9   1
M  END
> <minimizedAffinity>
-5.58629

$$$$
