3DDF_GB6_A_4001


 24 25  0  0  0  0  0  0  0  0999 V2000
   28.7505   64.3496   10.1399 N   0  0  0  0  0  0  0  0  0  0  0  0
   28.6235   63.7399    9.3322 H   0  0  0  0  0  0  0  0  0  0  0  0
   27.3951   64.6127   10.7766 C   0  0  0  0  0  0  0  0  0  0  0  0
   25.6662   64.9996    8.8720 C   0  0  0  0  0  0  0  0  0  0  0  0
   24.6569   64.4824    8.0822 C   0  0  0  0  0  0  0  0  0  0  0  0
   24.1796   63.1814    8.2426 C   0  0  0  0  0  0  0  0  0  0  0  0
   24.7267   62.3242    9.2090 C   0  0  0  0  0  0  0  0  0  0  0  0
   25.7512   62.7699   10.0213 C   0  0  0  0  0  0  0  0  0  0  0  0
   26.2407   64.0793    9.8982 C   0  0  0  0  0  0  0  0  0  0  0  0
   27.1476   66.1599   10.8701 C   0  0  0  0  0  0  0  0  0  0  0  0
   27.0838   66.4108   12.2684 O   0  0  0  0  0  0  0  0  0  0  0  0
   26.3801   65.8716   12.6619 H   0  0  0  0  0  0  0  0  0  0  0  0
   29.4025   65.6083    9.6952 C   0  0  0  0  0  0  0  0  0  0  0  0
   30.6288   65.3778    8.7981 C   0  0  0  0  0  0  0  0  0  0  0  0
   30.3268   66.0019    7.4867 N   0  0  0  0  0  0  0  0  0  0  0  0
   31.2600   66.7865    6.9938 C   0  0  0  0  0  0  0  0  0  0  0  0
   31.2545   67.3701    5.8904 O   0  0  0  0  0  0  0  0  0  0  0  0
   32.4142   66.8645    7.9812 C   0  0  0  0  0  0  0  0  0  0  0  0
   33.5214   66.1208    7.3868 O   0  0  0  0  0  0  0  0  0  0  0  0
   31.8884   66.1723    9.2132 C   0  0  0  0  0  0  0  0  0  0  0  0
   32.8601   65.2968    9.8147 O   0  0  0  0  0  0  0  0  0  0  0  0
   29.4790   65.8385    7.0138 H   0  0  0  0  0  0  0  0  0  0  0  0
   33.2283   65.2216    7.1714 H   0  0  0  0  0  0  0  0  0  0  0  0
   33.1079   64.6050    9.1815 H   0  0  0  0  0  0  0  0  0  0  0  0
  4  5  2  0  0  0
  4  9  1  0  0  0
  5  6  1  0  0  0
  6  7  2  0  0  0
  7  8  1  0  0  0
  8  9  2  0  0  0
  9  3  1  0  0  0
  3 10  1  0  0  0
  3  1  1  0  0  0
 10 11  1  0  0  0
  1 13  1  0  0  0
 13 14  1  0  0  0
 14 15  1  0  0  0
 14 20  1  0  0  0
 15 16  1  0  0  0
 16 17  2  0  0  0
 16 18  1  0  0  0
 18 19  1  0  0  0
 18 20  1  0  0  0
 20 21  1  0  0  0
 11 12  1  0  0  0
  1  2  1  0  0  0
 15 22  1  0  0  0
 19 23  1  0  0  0
 21 24  1  0  0  0
M  END
> <minimizedAffinity>
-8.67670

$$$$
3DDF_GB6_A_4001


 24 25  0  0  0  0  0  0  0  0999 V2000
   28.8565   64.2980   10.1112 N   0  0  0  0  0  0  0  0  0  0  0  0
   28.4144   63.8699    9.2977 H   0  0  0  0  0  0  0  0  0  0  0  0
   27.8015   64.5270   11.1818 C   0  0  0  0  0  0  0  0  0  0  0  0
   25.9587   65.3621    9.5468 C   0  0  0  0  0  0  0  0  0  0  0  0
   25.0429   66.3424    9.2149 C   0  0  0  0  0  0  0  0  0  0  0  0
   24.9116   67.5185    9.9536 C   0  0  0  0  0  0  0  0  0  0  0  0
   25.6973   67.7486   11.0929 C   0  0  0  0  0  0  0  0  0  0  0  0
   26.6206   66.8024   11.4929 C   0  0  0  0  0  0  0  0  0  0  0  0
   26.7906   65.6175   10.7604 C   0  0  0  0  0  0  0  0  0  0  0  0
   28.4812   65.0887   12.4804 C   0  0  0  0  0  0  0  0  0  0  0  0
   29.3925   64.0645   12.8583 O   0  0  0  0  0  0  0  0  0  0  0  0
   28.9089   63.2341   12.9905 H   0  0  0  0  0  0  0  0  0  0  0  0
   29.5021   65.5697    9.6947 C   0  0  0  0  0  0  0  0  0  0  0  0
   30.7349   65.3651    8.8003 C   0  0  0  0  0  0  0  0  0  0  0  0
   30.4300   65.9995    7.4944 N   0  0  0  0  0  0  0  0  0  0  0  0
   31.3546   66.8017    7.0140 C   0  0  0  0  0  0  0  0  0  0  0  0
   31.3458   67.3971    5.9170 O   0  0  0  0  0  0  0  0  0  0  0  0
   32.5037   66.8841    8.0069 C   0  0  0  0  0  0  0  0  0  0  0  0
   33.6231   66.1616    7.4091 O   0  0  0  0  0  0  0  0  0  0  0  0
   31.9823   66.1716    9.2291 C   0  0  0  0  0  0  0  0  0  0  0  0
   32.9630   65.3025    9.8252 O   0  0  0  0  0  0  0  0  0  0  0  0
   29.5862   65.8301    7.0163 H   0  0  0  0  0  0  0  0  0  0  0  0
   33.3427   65.2611    7.1827 H   0  0  0  0  0  0  0  0  0  0  0  0
   33.2225   64.6210    9.1855 H   0  0  0  0  0  0  0  0  0  0  0  0
  4  5  2  0  0  0
  4  9  1  0  0  0
  5  6  1  0  0  0
  6  7  2  0  0  0
  7  8  1  0  0  0
  8  9  2  0  0  0
  9  3  1  0  0  0
  3 10  1  0  0  0
  3  1  1  0  0  0
 10 11  1  0  0  0
  1 13  1  0  0  0
 13 14  1  0  0  0
 14 15  1  0  0  0
 14 20  1  0  0  0
 15 16  1  0  0  0
 16 17  2  0  0  0
 16 18  1  0  0  0
 18 19  1  0  0  0
 18 20  1  0  0  0
 20 21  1  0  0  0
 11 12  1  0  0  0
  1  2  1  0  0  0
 15 22  1  0  0  0
 19 23  1  0  0  0
 21 24  1  0  0  0
M  END
> <minimizedAffinity>
-8.32143

$$$$
3DDF_GB6_A_4001


 24 25  0  0  0  0  0  0  0  0999 V2000
   29.3640   64.5518   10.2476 N   0  0  0  0  0  0  0  0  0  0  0  0
   29.8754   64.8855   11.0646 H   0  0  0  0  0  0  0  0  0  0  0  0
   28.9709   65.7449    9.3912 C   0  0  0  0  0  0  0  0  0  0  0  0
   31.5054   66.2577    9.1090 C   0  0  0  0  0  0  0  0  0  0  0  0
   32.5357   66.6536    8.2774 C   0  0  0  0  0  0  0  0  0  0  0  0
   32.3205   67.0178    6.9480 C   0  0  0  0  0  0  0  0  0  0  0  0
   31.0362   66.9747    6.3851 C   0  0  0  0  0  0  0  0  0  0  0  0
   29.9624   66.5706    7.1543 C   0  0  0  0  0  0  0  0  0  0  0  0
   30.1424   66.2164    8.5001 C   0  0  0  0  0  0  0  0  0  0  0  0
   28.6478   66.9729   10.3138 C   0  0  0  0  0  0  0  0  0  0  0  0
   27.3476   67.3758    9.9019 O   0  0  0  0  0  0  0  0  0  0  0  0
   27.3584   67.5830    8.9543 H   0  0  0  0  0  0  0  0  0  0  0  0
   28.1747   63.7868   10.7036 C   0  0  0  0  0  0  0  0  0  0  0  0
   28.1404   63.5585   12.2230 C   0  0  0  0  0  0  0  0  0  0  0  0
   29.1963   64.4180   12.8119 N   0  0  0  0  0  0  0  0  0  0  0  0
   28.8332   65.1540   13.8394 C   0  0  0  0  0  0  0  0  0  0  0  0
   29.5557   65.9045   14.5270 O   0  0  0  0  0  0  0  0  0  0  0  0
   27.3530   64.9321   14.1094 C   0  0  0  0  0  0  0  0  0  0  0  0
   27.2662   64.1666   15.3498 O   0  0  0  0  0  0  0  0  0  0  0  0
   26.8845   64.1182   12.9298 C   0  0  0  0  0  0  0  0  0  0  0  0
   26.0018   63.0467   13.3107 O   0  0  0  0  0  0  0  0  0  0  0  0
   30.1137   64.4363   12.4550 H   0  0  0  0  0  0  0  0  0  0  0  0
   27.7923   63.3559   15.2669 H   0  0  0  0  0  0  0  0  0  0  0  0
   26.4672   62.4416   13.9091 H   0  0  0  0  0  0  0  0  0  0  0  0
  4  5  2  0  0  0
  4  9  1  0  0  0
  5  6  1  0  0  0
  6  7  2  0  0  0
  7  8  1  0  0  0
  8  9  2  0  0  0
  9  3  1  0  0  0
  3 10  1  0  0  0
  3  1  1  0  0  0
 10 11  1  0  0  0
  1 13  1  0  0  0
 13 14  1  0  0  0
 14 15  1  0  0  0
 14 20  1  0  0  0
 15 16  1  0  0  0
 16 17  2  0  0  0
 16 18  1  0  0  0
 18 19  1  0  0  0
 18 20  1  0  0  0
 20 21  1  0  0  0
 11 12  1  0  0  0
  1  2  1  0  0  0
 15 22  1  0  0  0
 19 23  1  0  0  0
 21 24  1  0  0  0
M  END
> <minimizedAffinity>
-8.31266

$$$$
3DDF_GB6_A_4001


 24 25  0  0  0  0  0  0  0  0999 V2000
   29.0116   64.3938   10.1412 N   0  0  0  0  0  0  0  0  0  0  0  0
   29.9986   64.2245   10.3354 H   0  0  0  0  0  0  0  0  0  0  0  0
   28.8565   65.7894    9.5582 C   0  0  0  0  0  0  0  0  0  0  0  0
   29.8212   66.5588    7.2683 C   0  0  0  0  0  0  0  0  0  0  0  0
   30.9265   66.9351    6.5288 C   0  0  0  0  0  0  0  0  0  0  0  0
   32.2135   66.9442    7.0669 C   0  0  0  0  0  0  0  0  0  0  0  0
   32.4405   66.5898    8.4052 C   0  0  0  0  0  0  0  0  0  0  0  0
   31.3784   66.2205    9.2074 C   0  0  0  0  0  0  0  0  0  0  0  0
   30.0741   66.1824    8.6911 C   0  0  0  0  0  0  0  0  0  0  0  0
   28.8313   66.8460   10.7187 C   0  0  0  0  0  0  0  0  0  0  0  0
   27.9554   67.8583   10.2388 O   0  0  0  0  0  0  0  0  0  0  0  0
   28.2898   68.2023    9.3957 H   0  0  0  0  0  0  0  0  0  0  0  0
   28.2391   64.2352   11.4003 C   0  0  0  0  0  0  0  0  0  0  0  0
   27.0006   63.3380   11.2488 C   0  0  0  0  0  0  0  0  0  0  0  0
   25.8129   64.2169   11.3814 N   0  0  0  0  0  0  0  0  0  0  0  0
   24.8898   64.0811   10.4547 C   0  0  0  0  0  0  0  0  0  0  0  0
   23.7889   64.6658   10.3904 O   0  0  0  0  0  0  0  0  0  0  0  0
   25.3519   63.0436    9.4432 C   0  0  0  0  0  0  0  0  0  0  0  0
   24.5170   61.8630    9.6465 O   0  0  0  0  0  0  0  0  0  0  0  0
   26.7850   62.7733    9.8259 C   0  0  0  0  0  0  0  0  0  0  0  0
   27.1154   61.3727    9.7848 O   0  0  0  0  0  0  0  0  0  0  0  0
   25.7214   64.8629   12.1186 H   0  0  0  0  0  0  0  0  0  0  0  0
   24.5733   61.5830   10.5735 H   0  0  0  0  0  0  0  0  0  0  0  0
   26.5555   60.8899   10.4128 H   0  0  0  0  0  0  0  0  0  0  0  0
  4  5  2  0  0  0
  4  9  1  0  0  0
  5  6  1  0  0  0
  6  7  2  0  0  0
  7  8  1  0  0  0
  8  9  2  0  0  0
  9  3  1  0  0  0
  3 10  1  0  0  0
  3  1  1  0  0  0
 10 11  1  0  0  0
  1 13  1  0  0  0
 13 14  1  0  0  0
 14 15  1  0  0  0
 14 20  1  0  0  0
 15 16  1  0  0  0
 16 17  2  0  0  0
 16 18  1  0  0  0
 18 19  1  0  0  0
 18 20  1  0  0  0
 20 21  1  0  0  0
 11 12  1  0  0  0
  1  2  1  0  0  0
 15 22  1  0  0  0
 19 23  1  0  0  0
 21 24  1  0  0  0
M  END
> <minimizedAffinity>
-8.27850

$$$$
3DDF_GB6_A_4001


 24 25  0  0  0  0  0  0  0  0999 V2000
   29.4290   66.5335   11.2477 N   0  0  0  0  0  0  0  0  0  0  0  0
   30.0501   67.3214   11.0637 H   0  0  0  0  0  0  0  0  0  0  0  0
   29.2810   65.7151    9.9750 C   0  0  0  0  0  0  0  0  0  0  0  0
   29.7767   66.4723    7.5363 C   0  0  0  0  0  0  0  0  0  0  0  0
   30.7090   66.8876    6.6044 C   0  0  0  0  0  0  0  0  0  0  0  0
   32.0684   66.9816    6.9032 C   0  0  0  0  0  0  0  0  0  0  0  0
   32.5499   66.6771    8.1852 C   0  0  0  0  0  0  0  0  0  0  0  0
   31.6707   66.2729    9.1710 C   0  0  0  0  0  0  0  0  0  0  0  0
   30.3000   66.1497    8.8972 C   0  0  0  0  0  0  0  0  0  0  0  0
   27.8751   65.9883    9.3326 C   0  0  0  0  0  0  0  0  0  0  0  0
   27.1832   64.7558    9.4902 O   0  0  0  0  0  0  0  0  0  0  0  0
   27.6852   64.0460    9.0600 H   0  0  0  0  0  0  0  0  0  0  0  0
   28.1205   67.0528   11.7226 C   0  0  0  0  0  0  0  0  0  0  0  0
   27.6033   66.3446   12.9846 C   0  0  0  0  0  0  0  0  0  0  0  0
   26.4404   65.5217   12.5711 N   0  0  0  0  0  0  0  0  0  0  0  0
   26.4419   64.2735   12.9850 C   0  0  0  0  0  0  0  0  0  0  0  0
   25.5511   63.4165   12.8115 O   0  0  0  0  0  0  0  0  0  0  0  0
   27.7196   64.0125   13.7676 C   0  0  0  0  0  0  0  0  0  0  0  0
   27.3303   63.8817   15.1689 O   0  0  0  0  0  0  0  0  0  0  0  0
   28.5459   65.2534   13.5424 C   0  0  0  0  0  0  0  0  0  0  0  0
   29.1940   65.7136   14.7426 O   0  0  0  0  0  0  0  0  0  0  0  0
   25.7114   65.8879   12.0201 H   0  0  0  0  0  0  0  0  0  0  0  0
   26.8377   64.6712   15.4426 H   0  0  0  0  0  0  0  0  0  0  0  0
   28.5234   65.9332   15.4083 H   0  0  0  0  0  0  0  0  0  0  0  0
  4  5  2  0  0  0
  4  9  1  0  0  0
  5  6  1  0  0  0
  6  7  2  0  0  0
  7  8  1  0  0  0
  8  9  2  0  0  0
  9  3  1  0  0  0
  3 10  1  0  0  0
  3  1  1  0  0  0
 10 11  1  0  0  0
  1 13  1  0  0  0
 13 14  1  0  0  0
 14 15  1  0  0  0
 14 20  1  0  0  0
 15 16  1  0  0  0
 16 17  2  0  0  0
 16 18  1  0  0  0
 18 19  1  0  0  0
 18 20  1  0  0  0
 20 21  1  0  0  0
 11 12  1  0  0  0
  1  2  1  0  0  0
 15 22  1  0  0  0
 19 23  1  0  0  0
 21 24  1  0  0  0
M  END
> <minimizedAffinity>
-8.00944

$$$$
3DDF_GB6_A_4001


 24 25  0  0  0  0  0  0  0  0999 V2000
   27.5603   65.8035    8.5732 N   0  0  0  0  0  0  0  0  0  0  0  0
   27.5233   64.7872    8.6527 H   0  0  0  0  0  0  0  0  0  0  0  0
   28.7231   66.3207    9.4051 C   0  0  0  0  0  0  0  0  0  0  0  0
   29.8292   66.8026    7.1006 C   0  0  0  0  0  0  0  0  0  0  0  0
   30.9898   66.9832    6.3724 C   0  0  0  0  0  0  0  0  0  0  0  0
   32.2551   66.8645    6.9477 C   0  0  0  0  0  0  0  0  0  0  0  0
   32.4049   66.5761    8.3125 C   0  0  0  0  0  0  0  0  0  0  0  0
   31.2866   66.4012    9.1042 C   0  0  0  0  0  0  0  0  0  0  0  0
   30.0000   66.4949    8.5519 C   0  0  0  0  0  0  0  0  0  0  0  0
   29.1081   65.2565   10.4927 C   0  0  0  0  0  0  0  0  0  0  0  0
   28.9692   64.0130    9.8168 O   0  0  0  0  0  0  0  0  0  0  0  0
   28.0635   63.9272    9.4805 H   0  0  0  0  0  0  0  0  0  0  0  0
   26.2642   66.3695    9.0284 C   0  0  0  0  0  0  0  0  0  0  0  0
   25.3546   65.3388    9.7156 C   0  0  0  0  0  0  0  0  0  0  0  0
   25.7223   64.0087    9.1711 N   0  0  0  0  0  0  0  0  0  0  0  0
   25.9233   63.0589   10.0581 C   0  0  0  0  0  0  0  0  0  0  0  0
   26.1838   61.8584    9.8370 O   0  0  0  0  0  0  0  0  0  0  0  0
   25.7560   63.6405   11.4534 C   0  0  0  0  0  0  0  0  0  0  0  0
   24.5116   63.0927   11.9862 O   0  0  0  0  0  0  0  0  0  0  0  0
   25.6444   65.1258   11.2192 C   0  0  0  0  0  0  0  0  0  0  0  0
   24.6178   65.7382   12.0213 O   0  0  0  0  0  0  0  0  0  0  0  0
   25.8104   63.8469    8.2040 H   0  0  0  0  0  0  0  0  0  0  0  0
   23.7849   63.2857   11.3735 H   0  0  0  0  0  0  0  0  0  0  0  0
   23.7580   65.3481   11.7990 H   0  0  0  0  0  0  0  0  0  0  0  0
  4  5  2  0  0  0
  4  9  1  0  0  0
  5  6  1  0  0  0
  6  7  2  0  0  0
  7  8  1  0  0  0
  8  9  2  0  0  0
  9  3  1  0  0  0
  3 10  1  0  0  0
  3  1  1  0  0  0
 10 11  1  0  0  0
  1 13  1  0  0  0
 13 14  1  0  0  0
 14 15  1  0  0  0
 14 20  1  0  0  0
 15 16  1  0  0  0
 16 17  2  0  0  0
 16 18  1  0  0  0
 18 19  1  0  0  0
 18 20  1  0  0  0
 20 21  1  0  0  0
 11 12  1  0  0  0
  1  2  1  0  0  0
 15 22  1  0  0  0
 19 23  1  0  0  0
 21 24  1  0  0  0
M  END
> <minimizedAffinity>
-7.97520

$$$$
3DDF_GB6_A_4001


 24 25  0  0  0  0  0  0  0  0999 V2000
   28.4723   66.7917   10.5889 N   0  0  0  0  0  0  0  0  0  0  0  0
   27.4893   67.0477   10.6823 H   0  0  0  0  0  0  0  0  0  0  0  0
   28.6426   65.9370    9.3431 C   0  0  0  0  0  0  0  0  0  0  0  0
   29.8621   66.6799    7.1689 C   0  0  0  0  0  0  0  0  0  0  0  0
   31.0523   66.9993    6.5432 C   0  0  0  0  0  0  0  0  0  0  0  0
   32.2813   66.9226    7.1988 C   0  0  0  0  0  0  0  0  0  0  0  0
   32.3600   66.5356    8.5450 C   0  0  0  0  0  0  0  0  0  0  0  0
   31.2073   66.2197    9.2373 C   0  0  0  0  0  0  0  0  0  0  0  0
   29.9574   66.2682    8.6012 C   0  0  0  0  0  0  0  0  0  0  0  0
   27.5051   66.2713    8.3144 C   0  0  0  0  0  0  0  0  0  0  0  0
   26.6598   65.1286    8.3579 O   0  0  0  0  0  0  0  0  0  0  0  0
   27.1748   64.3368    8.1370 H   0  0  0  0  0  0  0  0  0  0  0  0
   28.8999   66.0686   11.8143 C   0  0  0  0  0  0  0  0  0  0  0  0
   28.0299   64.8433   12.1361 C   0  0  0  0  0  0  0  0  0  0  0  0
   28.2432   64.5280   13.5699 N   0  0  0  0  0  0  0  0  0  0  0  0
   27.1563   64.3406   14.2861 C   0  0  0  0  0  0  0  0  0  0  0  0
   27.0883   64.0122   15.4884 O   0  0  0  0  0  0  0  0  0  0  0  0
   25.9373   64.5564   13.4025 C   0  0  0  0  0  0  0  0  0  0  0  0
   25.3399   63.2412   13.1888 O   0  0  0  0  0  0  0  0  0  0  0  0
   26.5078   65.1132   12.1227 C   0  0  0  0  0  0  0  0  0  0  0  0
   25.9047   64.5366   10.9496 O   0  0  0  0  0  0  0  0  0  0  0  0
   29.1440   64.4629   13.9616 H   0  0  0  0  0  0  0  0  0  0  0  0
   26.0069   62.6385   12.8245 H   0  0  0  0  0  0  0  0  0  0  0  0
   26.0637   63.5797   10.9414 H   0  0  0  0  0  0  0  0  0  0  0  0
  4  5  2  0  0  0
  4  9  1  0  0  0
  5  6  1  0  0  0
  6  7  2  0  0  0
  7  8  1  0  0  0
  8  9  2  0  0  0
  9  3  1  0  0  0
  3 10  1  0  0  0
  3  1  1  0  0  0
 10 11  1  0  0  0
  1 13  1  0  0  0
 13 14  1  0  0  0
 14 15  1  0  0  0
 14 20  1  0  0  0
 15 16  1  0  0  0
 16 17  2  0  0  0
 16 18  1  0  0  0
 18 19  1  0  0  0
 18 20  1  0  0  0
 20 21  1  0  0  0
 11 12  1  0  0  0
  1  2  1  0  0  0
 15 22  1  0  0  0
 19 23  1  0  0  0
 21 24  1  0  0  0
M  END
> <minimizedAffinity>
-7.76049

$$$$
3DDF_GB6_A_4001


 24 25  0  0  0  0  0  0  0  0999 V2000
   28.3416   64.8008    9.6953 N   0  0  0  0  0  0  0  0  0  0  0  0
   29.2051   64.2928    9.8870 H   0  0  0  0  0  0  0  0  0  0  0  0
   28.6712   66.2697    9.4820 C   0  0  0  0  0  0  0  0  0  0  0  0
   29.8705   66.8252    7.2416 C   0  0  0  0  0  0  0  0  0  0  0  0
   31.0605   67.0080    6.5630 C   0  0  0  0  0  0  0  0  0  0  0  0
   32.3011   66.8308    7.1758 C   0  0  0  0  0  0  0  0  0  0  0  0
   32.3949   66.4778    8.5304 C   0  0  0  0  0  0  0  0  0  0  0  0
   31.2450   66.2968    9.2741 C   0  0  0  0  0  0  0  0  0  0  0  0
   29.9817   66.4486    8.6824 C   0  0  0  0  0  0  0  0  0  0  0  0
   28.9484   66.9546   10.8669 C   0  0  0  0  0  0  0  0  0  0  0  0
   28.0629   68.0673   10.8800 O   0  0  0  0  0  0  0  0  0  0  0  0
   28.2440   68.6336   10.1136 H   0  0  0  0  0  0  0  0  0  0  0  0
   27.4062   64.6070   10.8331 C   0  0  0  0  0  0  0  0  0  0  0  0
   25.9310   64.5415   10.4074 C   0  0  0  0  0  0  0  0  0  0  0  0
   25.3828   65.9135   10.5401 N   0  0  0  0  0  0  0  0  0  0  0  0
   24.7082   66.3666    9.5062 C   0  0  0  0  0  0  0  0  0  0  0  0
   24.1123   67.4591    9.4100 O   0  0  0  0  0  0  0  0  0  0  0  0
   24.7257   65.3178    8.4050 C   0  0  0  0  0  0  0  0  0  0  0  0
   23.3738   64.7711    8.3292 O   0  0  0  0  0  0  0  0  0  0  0  0
   25.7070   64.2852    8.8994 C   0  0  0  0  0  0  0  0  0  0  0  0
   25.2514   62.9374    8.6801 O   0  0  0  0  0  0  0  0  0  0  0  0
   25.5160   66.4524   11.3532 H   0  0  0  0  0  0  0  0  0  0  0  0
   23.1086   64.4421    9.2023 H   0  0  0  0  0  0  0  0  0  0  0  0
   24.4203   62.7950    9.1595 H   0  0  0  0  0  0  0  0  0  0  0  0
  4  5  2  0  0  0
  4  9  1  0  0  0
  5  6  1  0  0  0
  6  7  2  0  0  0
  7  8  1  0  0  0
  8  9  2  0  0  0
  9  3  1  0  0  0
  3 10  1  0  0  0
  3  1  1  0  0  0
 10 11  1  0  0  0
  1 13  1  0  0  0
 13 14  1  0  0  0
 14 15  1  0  0  0
 14 20  1  0  0  0
 15 16  1  0  0  0
 16 17  2  0  0  0
 16 18  1  0  0  0
 18 19  1  0  0  0
 18 20  1  0  0  0
 20 21  1  0  0  0
 11 12  1  0  0  0
  1  2  1  0  0  0
 15 22  1  0  0  0
 19 23  1  0  0  0
 21 24  1  0  0  0
M  END
> <minimizedAffinity>
-7.60788

$$$$
3DDF_GB6_A_4001


 24 25  0  0  0  0  0  0  0  0999 V2000
   28.3748   66.6752    9.0480 N   0  0  0  0  0  0  0  0  0  0  0  0
   28.6997   67.5707    8.6835 H   0  0  0  0  0  0  0  0  0  0  0  0
   27.1978   66.9199    9.9789 C   0  0  0  0  0  0  0  0  0  0  0  0
   26.4617   64.5838   10.8548 C   0  0  0  0  0  0  0  0  0  0  0  0
   26.4647   63.6646   11.8868 C   0  0  0  0  0  0  0  0  0  0  0  0
   27.0568   63.9337   13.1209 C   0  0  0  0  0  0  0  0  0  0  0  0
   27.7030   65.1554   13.3621 C   0  0  0  0  0  0  0  0  0  0  0  0
   27.7538   66.1133   12.3682 C   0  0  0  0  0  0  0  0  0  0  0  0
   27.1512   65.8812   11.1224 C   0  0  0  0  0  0  0  0  0  0  0  0
   25.8536   66.7153    9.1946 C   0  0  0  0  0  0  0  0  0  0  0  0
   26.2716   66.4992    7.8526 O   0  0  0  0  0  0  0  0  0  0  0  0
   26.7958   67.2576    7.5511 H   0  0  0  0  0  0  0  0  0  0  0  0
   29.4997   66.0040    9.7490 C   0  0  0  0  0  0  0  0  0  0  0  0
   30.6672   65.6368    8.8195 C   0  0  0  0  0  0  0  0  0  0  0  0
   30.3775   66.2507    7.5005 N   0  0  0  0  0  0  0  0  0  0  0  0
   31.3607   66.9319    6.9540 C   0  0  0  0  0  0  0  0  0  0  0  0
   31.3696   67.4837    5.8344 O   0  0  0  0  0  0  0  0  0  0  0  0
   32.5514   66.9291    7.9002 C   0  0  0  0  0  0  0  0  0  0  0  0
   33.5640   66.0703    7.2925 O   0  0  0  0  0  0  0  0  0  0  0  0
   32.0083   66.3219    9.1690 C   0  0  0  0  0  0  0  0  0  0  0  0
   32.9162   65.3767    9.7644 O   0  0  0  0  0  0  0  0  0  0  0  0
   29.5020   66.1540    7.0608 H   0  0  0  0  0  0  0  0  0  0  0  0
   33.1822   65.1967    7.1139 H   0  0  0  0  0  0  0  0  0  0  0  0
   33.0770   64.6481    9.1445 H   0  0  0  0  0  0  0  0  0  0  0  0
  4  5  2  0  0  0
  4  9  1  0  0  0
  5  6  1  0  0  0
  6  7  2  0  0  0
  7  8  1  0  0  0
  8  9  2  0  0  0
  9  3  1  0  0  0
  3 10  1  0  0  0
  3  1  1  0  0  0
 10 11  1  0  0  0
  1 13  1  0  0  0
 13 14  1  0  0  0
 14 15  1  0  0  0
 14 20  1  0  0  0
 15 16  1  0  0  0
 16 17  2  0  0  0
 16 18  1  0  0  0
 18 19  1  0  0  0
 18 20  1  0  0  0
 20 21  1  0  0  0
 11 12  1  0  0  0
  1  2  1  0  0  0
 15 22  1  0  0  0
 19 23  1  0  0  0
 21 24  1  0  0  0
M  END
> <minimizedAffinity>
-7.51771

$$$$
3DDF_GB6_A_4001


 24 25  0  0  0  0  0  0  0  0999 V2000
   28.2719   67.4152   10.2600 N   0  0  0  0  0  0  0  0  0  0  0  0
   27.3347   67.0611   10.0685 H   0  0  0  0  0  0  0  0  0  0  0  0
   29.2666   66.2729   10.1285 C   0  0  0  0  0  0  0  0  0  0  0  0
   29.4980   66.5880    7.5568 C   0  0  0  0  0  0  0  0  0  0  0  0
   30.3299   66.7697    6.4683 C   0  0  0  0  0  0  0  0  0  0  0  0
   31.7193   66.7949    6.5900 C   0  0  0  0  0  0  0  0  0  0  0  0
   32.3384   66.6586    7.8415 C   0  0  0  0  0  0  0  0  0  0  0  0
   31.5666   66.4920    8.9749 C   0  0  0  0  0  0  0  0  0  0  0  0
   30.1671   66.4429    8.8839 C   0  0  0  0  0  0  0  0  0  0  0  0
   28.4955   64.9273    9.8861 C   0  0  0  0  0  0  0  0  0  0  0  0
   28.8208   64.1385   11.0238 O   0  0  0  0  0  0  0  0  0  0  0  0
   29.7839   64.0391   11.0837 H   0  0  0  0  0  0  0  0  0  0  0  0
   28.2934   68.0086   11.6219 C   0  0  0  0  0  0  0  0  0  0  0  0
   29.1662   67.2263   12.6159 C   0  0  0  0  0  0  0  0  0  0  0  0
   30.0573   68.2120   13.2755 N   0  0  0  0  0  0  0  0  0  0  0  0
   30.1158   68.1478   14.5876 C   0  0  0  0  0  0  0  0  0  0  0  0
   30.8327   68.8298   15.3485 O   0  0  0  0  0  0  0  0  0  0  0  0
   29.1725   67.0580   15.0729 C   0  0  0  0  0  0  0  0  0  0  0  0
   30.0121   65.9617   15.5479 O   0  0  0  0  0  0  0  0  0  0  0  0
   28.4038   66.6632   13.8373 C   0  0  0  0  0  0  0  0  0  0  0  0
   28.2422   65.2379   13.7164 O   0  0  0  0  0  0  0  0  0  0  0  0
   30.5738   68.8742   12.7618 H   0  0  0  0  0  0  0  0  0  0  0  0
   30.6203   65.6912   14.8423 H   0  0  0  0  0  0  0  0  0  0  0  0
   29.1143   64.8175   13.6573 H   0  0  0  0  0  0  0  0  0  0  0  0
  4  5  2  0  0  0
  4  9  1  0  0  0
  5  6  1  0  0  0
  6  7  2  0  0  0
  7  8  1  0  0  0
  8  9  2  0  0  0
  9  3  1  0  0  0
  3 10  1  0  0  0
  3  1  1  0  0  0
 10 11  1  0  0  0
  1 13  1  0  0  0
 13 14  1  0  0  0
 14 15  1  0  0  0
 14 20  1  0  0  0
 15 16  1  0  0  0
 16 17  2  0  0  0
 16 18  1  0  0  0
 18 19  1  0  0  0
 18 20  1  0  0  0
 20 21  1  0  0  0
 11 12  1  0  0  0
  1  2  1  0  0  0
 15 22  1  0  0  0
 19 23  1  0  0  0
 21 24  1  0  0  0
M  END
> <minimizedAffinity>
-6.77887

$$$$
