3U81_SAH_A_222


 33 35  0  0  0  0  0  0  0  0999 V2000
  -16.3952  -12.1456   15.6577 C   0  0  0  0  0  0  0  0  0  0  0  0
  -16.7125  -13.2637   16.4843 O   0  0  0  0  0  0  0  0  0  0  0  0
  -17.5198  -11.9750   14.6372 C   0  0  0  0  0  0  0  0  0  0  0  0
  -17.1171  -12.1714   13.2941 O   0  0  0  0  0  0  0  0  0  0  0  0
  -18.5300  -13.0552   15.1177 C   0  0  0  0  0  0  0  0  0  0  0  0
  -19.3397  -13.6388   14.0828 O   0  0  0  0  0  0  0  0  0  0  0  0
  -17.6492  -14.0730   15.7907 C   0  0  0  0  0  0  0  0  0  0  0  0
  -16.7389  -13.0593   13.1965 H   0  0  0  0  0  0  0  0  0  0  0  0
  -18.7672  -14.0662   13.4267 H   0  0  0  0  0  0  0  0  0  0  0  0
  -18.3083  -14.9184   16.7866 N   0  0  0  0  0  0  0  0  0  0  0  0
  -19.1558  -14.4764   17.7671 C   0  0  0  0  0  0  0  0  0  0  0  0
  -19.4882  -15.4865   18.6133 N   0  0  0  0  0  0  0  0  0  0  0  0
  -18.8104  -16.5863   18.1171 C   0  0  0  0  0  0  0  0  0  0  0  0
  -18.7264  -17.9381   18.5446 C   0  0  0  0  0  0  0  0  0  0  0  0
  -19.4194  -18.3777   19.6298 N   0  0  0  0  0  0  0  0  0  0  0  0
  -17.9539  -18.7619   17.8493 N   0  0  0  0  0  0  0  0  0  0  0  0
  -17.3066  -18.3148   16.7577 C   0  0  0  0  0  0  0  0  0  0  0  0
  -17.3024  -17.0604   16.2718 N   0  0  0  0  0  0  0  0  0  0  0  0
  -18.0764  -16.2256   16.9675 C   0  0  0  0  0  0  0  0  0  0  0  0
  -19.9889  -17.7541   20.1359 H   0  0  0  0  0  0  0  0  0  0  0  0
  -19.3514  -19.3193   19.9090 H   0  0  0  0  0  0  0  0  0  0  0  0
  -16.1314  -10.9471   16.5814 C   0  0  0  0  0  0  0  0  0  0  0  0
  -15.1779   -9.6530   15.8175 S   0  0  0  0  0  0  0  0  0  0  0  0
  -13.6714  -10.5740   15.4632 C   0  0  0  0  0  0  0  0  0  0  0  0
  -12.5679   -9.5900   15.1802 C   0  0  0  0  0  0  0  0  0  0  0  0
  -10.7169  -11.2690   15.4740 N   0  0  0  0  0  0  0  0  0  0  0  0
  -11.3037  -10.2378   14.5953 C   0  0  0  0  0  0  0  0  0  0  0  0
  -11.4134  -11.9893   15.6651 H   0  0  0  0  0  0  0  0  0  0  0  0
  -10.4217  -10.8403   16.3513 H   0  0  0  0  0  0  0  0  0  0  0  0
  -10.2529   -9.1771   14.3236 C   0  0  0  0  0  0  0  0  0  0  0  0
   -9.3226   -9.3966   13.5351 O   0  0  0  0  0  0  0  0  0  0  0  0
  -10.3758   -8.1282   14.9571 O   0  0  0  0  0  0  0  0  0  0  0  0
  -11.1000   -8.0155   15.5409 H   0  0  0  0  0  0  0  0  0  0  0  0
 26 27  1  0  0  0
 27 25  1  0  0  0
 27 30  1  0  0  0
 25 24  1  0  0  0
 24 23  1  0  0  0
 23 22  1  0  0  0
 30 31  2  0  0  0
 30 32  1  0  0  0
 22  1  1  0  0  0
  1  2  1  0  0  0
  1  3  1  0  0  0
  2  7  1  0  0  0
  3  4  1  0  0  0
  3  5  1  0  0  0
  5  6  1  0  0  0
  5  7  1  0  0  0
  7 10  1  0  0  0
 10 11  1  0  0  0
 10 19  1  0  0  0
 11 12  2  0  0  0
 12 13  1  0  0  0
 13 14  1  0  0  0
 13 19  2  0  0  0
 14 15  1  0  0  0
 14 16  2  0  0  0
 16 17  1  0  0  0
 17 18  2  0  0  0
 18 19  1  0  0  0
 26 28  1  0  0  0
 26 29  1  0  0  0
 32 33  1  0  0  0
  4  8  1  0  0  0
  6  9  1  0  0  0
 15 20  1  0  0  0
 15 21  1  0  0  0
M  END
> <minimizedAffinity>
-10.09955

$$$$
3U81_SAH_A_222


 33 35  0  0  0  0  0  0  0  0999 V2000
  -16.3753  -12.1270   15.6622 C   0  0  0  0  0  0  0  0  0  0  0  0
  -16.6894  -13.2436   16.4922 O   0  0  0  0  0  0  0  0  0  0  0  0
  -17.4921  -11.9731   14.6305 C   0  0  0  0  0  0  0  0  0  0  0  0
  -17.0751  -12.1732   13.2923 O   0  0  0  0  0  0  0  0  0  0  0  0
  -18.4962  -13.0605   15.1079 C   0  0  0  0  0  0  0  0  0  0  0  0
  -19.2906  -13.6577   14.0689 O   0  0  0  0  0  0  0  0  0  0  0  0
  -17.6118  -14.0658   15.7947 C   0  0  0  0  0  0  0  0  0  0  0  0
  -16.6874  -13.0579   13.2032 H   0  0  0  0  0  0  0  0  0  0  0  0
  -18.7079  -14.0832   13.4205 H   0  0  0  0  0  0  0  0  0  0  0  0
  -18.2717  -14.9120   16.7894 N   0  0  0  0  0  0  0  0  0  0  0  0
  -19.1115  -14.4695   17.7763 C   0  0  0  0  0  0  0  0  0  0  0  0
  -19.4466  -15.4818   18.6188 N   0  0  0  0  0  0  0  0  0  0  0  0
  -18.7788  -16.5835   18.1134 C   0  0  0  0  0  0  0  0  0  0  0  0
  -18.7019  -17.9381   18.5334 C   0  0  0  0  0  0  0  0  0  0  0  0
  -19.3927  -18.3787   19.6197 N   0  0  0  0  0  0  0  0  0  0  0  0
  -17.9384  -18.7634   17.8300 N   0  0  0  0  0  0  0  0  0  0  0  0
  -17.2933  -18.3149   16.7376 C   0  0  0  0  0  0  0  0  0  0  0  0
  -17.2830  -17.0580   16.2583 N   0  0  0  0  0  0  0  0  0  0  0  0
  -18.0479  -16.2217   16.9622 C   0  0  0  0  0  0  0  0  0  0  0  0
  -19.9554  -17.7540   20.1318 H   0  0  0  0  0  0  0  0  0  0  0  0
  -19.3297  -19.3223   19.8935 H   0  0  0  0  0  0  0  0  0  0  0  0
  -16.1317  -10.9209   16.5814 C   0  0  0  0  0  0  0  0  0  0  0  0
  -16.1132   -9.3615   15.7237 S   0  0  0  0  0  0  0  0  0  0  0  0
  -14.3420   -9.2108   15.4354 C   0  0  0  0  0  0  0  0  0  0  0  0
  -13.6949   -8.7131   16.7001 C   0  0  0  0  0  0  0  0  0  0  0  0
  -11.5010   -7.7299   15.9573 N   0  0  0  0  0  0  0  0  0  0  0  0
  -12.8458   -7.4489   16.4981 C   0  0  0  0  0  0  0  0  0  0  0  0
  -11.5881   -8.2287   15.0718 H   0  0  0  0  0  0  0  0  0  0  0  0
  -10.9807   -8.3036   16.6210 H   0  0  0  0  0  0  0  0  0  0  0  0
  -12.6943   -6.7076   17.8136 C   0  0  0  0  0  0  0  0  0  0  0  0
  -13.5440   -5.8812   18.1748 O   0  0  0  0  0  0  0  0  0  0  0  0
  -11.6733   -6.9593   18.4547 O   0  0  0  0  0  0  0  0  0  0  0  0
  -11.0636   -7.5946   18.1342 H   0  0  0  0  0  0  0  0  0  0  0  0
 26 27  1  0  0  0
 27 25  1  0  0  0
 27 30  1  0  0  0
 25 24  1  0  0  0
 24 23  1  0  0  0
 23 22  1  0  0  0
 30 31  2  0  0  0
 30 32  1  0  0  0
 22  1  1  0  0  0
  1  2  1  0  0  0
  1  3  1  0  0  0
  2  7  1  0  0  0
  3  4  1  0  0  0
  3  5  1  0  0  0
  5  6  1  0  0  0
  5  7  1  0  0  0
  7 10  1  0  0  0
 10 11  1  0  0  0
 10 19  1  0  0  0
 11 12  2  0  0  0
 12 13  1  0  0  0
 13 14  1  0  0  0
 13 19  2  0  0  0
 14 15  1  0  0  0
 14 16  2  0  0  0
 16 17  1  0  0  0
 17 18  2  0  0  0
 18 19  1  0  0  0
 26 28  1  0  0  0
 26 29  1  0  0  0
 32 33  1  0  0  0
  4  8  1  0  0  0
  6  9  1  0  0  0
 15 20  1  0  0  0
 15 21  1  0  0  0
M  END
> <minimizedAffinity>
-9.83346

$$$$
3U81_SAH_A_222


 33 35  0  0  0  0  0  0  0  0999 V2000
  -18.0448  -11.3498   15.7352 C   0  0  0  0  0  0  0  0  0  0  0  0
  -17.3503  -10.2608   16.3402 O   0  0  0  0  0  0  0  0  0  0  0  0
  -17.0080  -12.3107   15.1549 C   0  0  0  0  0  0  0  0  0  0  0  0
  -17.0563  -12.4317   13.7450 O   0  0  0  0  0  0  0  0  0  0  0  0
  -15.6843  -11.6615   15.6496 C   0  0  0  0  0  0  0  0  0  0  0  0
  -14.5477  -11.8601   14.7916 O   0  0  0  0  0  0  0  0  0  0  0  0
  -16.0456  -10.2069   15.7848 C   0  0  0  0  0  0  0  0  0  0  0  0
  -16.9333  -11.5584   13.3412 H   0  0  0  0  0  0  0  0  0  0  0  0
  -14.7326  -11.4825   13.9175 H   0  0  0  0  0  0  0  0  0  0  0  0
  -15.2160   -9.4336   16.7093 N   0  0  0  0  0  0  0  0  0  0  0  0
  -15.5253   -9.1607   18.0150 C   0  0  0  0  0  0  0  0  0  0  0  0
  -14.6203   -8.3059   18.5600 N   0  0  0  0  0  0  0  0  0  0  0  0
  -13.7251   -8.0554   17.5349 C   0  0  0  0  0  0  0  0  0  0  0  0
  -12.5624   -7.2441   17.4497 C   0  0  0  0  0  0  0  0  0  0  0  0
  -12.1158   -6.5388   18.5241 N   0  0  0  0  0  0  0  0  0  0  0  0
  -11.9212   -7.1986   16.2897 N   0  0  0  0  0  0  0  0  0  0  0  0
  -12.3592   -7.9331   15.2509 C   0  0  0  0  0  0  0  0  0  0  0  0
  -13.4491   -8.7209   15.2144 N   0  0  0  0  0  0  0  0  0  0  0  0
  -14.1002   -8.7700   16.3778 C   0  0  0  0  0  0  0  0  0  0  0  0
  -12.6026   -6.5826   19.3787 H   0  0  0  0  0  0  0  0  0  0  0  0
  -11.3057   -5.9846   18.4469 H   0  0  0  0  0  0  0  0  0  0  0  0
  -18.9956  -11.9356   16.7896 C   0  0  0  0  0  0  0  0  0  0  0  0
  -19.5558  -13.5817   16.4103 S   0  0  0  0  0  0  0  0  0  0  0  0
  -18.7330  -14.4803   17.7364 C   0  0  0  0  0  0  0  0  0  0  0  0
  -18.8443  -15.9544   17.4524 C   0  0  0  0  0  0  0  0  0  0  0  0
  -17.3226  -16.2937   15.4773 N   0  0  0  0  0  0  0  0  0  0  0  0
  -17.5477  -16.5739   16.9093 C   0  0  0  0  0  0  0  0  0  0  0  0
  -17.3093  -15.2851   15.3262 H   0  0  0  0  0  0  0  0  0  0  0  0
  -18.0739  -16.7101   14.9272 H   0  0  0  0  0  0  0  0  0  0  0  0
  -17.5639  -18.0777   17.1125 C   0  0  0  0  0  0  0  0  0  0  0  0
  -18.0237  -18.5699   18.1526 O   0  0  0  0  0  0  0  0  0  0  0  0
  -17.0664  -18.7453   16.2051 O   0  0  0  0  0  0  0  0  0  0  0  0
  -16.7333  -18.3203   15.4392 H   0  0  0  0  0  0  0  0  0  0  0  0
 26 27  1  0  0  0
 27 25  1  0  0  0
 27 30  1  0  0  0
 25 24  1  0  0  0
 24 23  1  0  0  0
 23 22  1  0  0  0
 30 31  2  0  0  0
 30 32  1  0  0  0
 22  1  1  0  0  0
  1  2  1  0  0  0
  1  3  1  0  0  0
  2  7  1  0  0  0
  3  4  1  0  0  0
  3  5  1  0  0  0
  5  6  1  0  0  0
  5  7  1  0  0  0
  7 10  1  0  0  0
 10 11  1  0  0  0
 10 19  1  0  0  0
 11 12  2  0  0  0
 12 13  1  0  0  0
 13 14  1  0  0  0
 13 19  2  0  0  0
 14 15  1  0  0  0
 14 16  2  0  0  0
 16 17  1  0  0  0
 17 18  2  0  0  0
 18 19  1  0  0  0
 26 28  1  0  0  0
 26 29  1  0  0  0
 32 33  1  0  0  0
  4  8  1  0  0  0
  6  9  1  0  0  0
 15 20  1  0  0  0
 15 21  1  0  0  0
M  END
> <minimizedAffinity>
-9.12188

$$$$
3U81_SAH_A_222


 33 35  0  0  0  0  0  0  0  0999 V2000
  -16.3920  -12.2573   15.3936 C   0  0  0  0  0  0  0  0  0  0  0  0
  -16.6973  -13.3406   16.2696 O   0  0  0  0  0  0  0  0  0  0  0  0
  -17.5731  -12.0681   14.4427 C   0  0  0  0  0  0  0  0  0  0  0  0
  -17.2661  -12.3144   13.0825 O   0  0  0  0  0  0  0  0  0  0  0  0
  -18.5903  -13.0949   15.0165 C   0  0  0  0  0  0  0  0  0  0  0  0
  -19.4870  -13.6720   14.0520 O   0  0  0  0  0  0  0  0  0  0  0  0
  -17.7070  -14.1295   15.6600 C   0  0  0  0  0  0  0  0  0  0  0  0
  -16.9290  -13.2187   12.9858 H   0  0  0  0  0  0  0  0  0  0  0  0
  -18.9748  -14.1383   13.3729 H   0  0  0  0  0  0  0  0  0  0  0  0
  -18.3317  -14.9225   16.7191 N   0  0  0  0  0  0  0  0  0  0  0  0
  -19.1292  -14.4275   17.7161 C   0  0  0  0  0  0  0  0  0  0  0  0
  -19.4362  -15.3960   18.6184 N   0  0  0  0  0  0  0  0  0  0  0  0
  -18.7951  -16.5254   18.1403 C   0  0  0  0  0  0  0  0  0  0  0  0
  -18.7091  -17.8591   18.6211 C   0  0  0  0  0  0  0  0  0  0  0  0
  -19.3587  -18.2426   19.7535 N   0  0  0  0  0  0  0  0  0  0  0  0
  -17.9787  -18.7225   17.9284 N   0  0  0  0  0  0  0  0  0  0  0  0
  -17.3750  -18.3312   16.7914 C   0  0  0  0  0  0  0  0  0  0  0  0
  -17.3767  -17.0986   16.2526 N   0  0  0  0  0  0  0  0  0  0  0  0
  -18.1084  -16.2242   16.9453 C   0  0  0  0  0  0  0  0  0  0  0  0
  -19.8972  -17.5901   20.2570 H   0  0  0  0  0  0  0  0  0  0  0  0
  -19.2902  -19.1725   20.0694 H   0  0  0  0  0  0  0  0  0  0  0  0
  -16.0236  -11.0472   16.2649 C   0  0  0  0  0  0  0  0  0  0  0  0
  -17.1298  -10.7908   17.6354 S   0  0  0  0  0  0  0  0  0  0  0  0
  -17.8553   -9.2212   17.1321 C   0  0  0  0  0  0  0  0  0  0  0  0
  -16.7627   -8.1870   17.0807 C   0  0  0  0  0  0  0  0  0  0  0  0
  -16.9598   -6.1100   18.4874 N   0  0  0  0  0  0  0  0  0  0  0  0
  -16.4948   -7.5102   18.4335 C   0  0  0  0  0  0  0  0  0  0  0  0
  -17.9576   -6.0748   18.2789 H   0  0  0  0  0  0  0  0  0  0  0  0
  -16.4491   -5.5555   17.8002 H   0  0  0  0  0  0  0  0  0  0  0  0
  -15.0101   -7.5405   18.7461 C   0  0  0  0  0  0  0  0  0  0  0  0
  -14.4065   -8.6183   18.8431 O   0  0  0  0  0  0  0  0  0  0  0  0
  -14.4789   -6.4439   18.9253 O   0  0  0  0  0  0  0  0  0  0  0  0
  -14.9836   -5.6592   18.8388 H   0  0  0  0  0  0  0  0  0  0  0  0
 26 27  1  0  0  0
 27 25  1  0  0  0
 27 30  1  0  0  0
 25 24  1  0  0  0
 24 23  1  0  0  0
 23 22  1  0  0  0
 30 31  2  0  0  0
 30 32  1  0  0  0
 22  1  1  0  0  0
  1  2  1  0  0  0
  1  3  1  0  0  0
  2  7  1  0  0  0
  3  4  1  0  0  0
  3  5  1  0  0  0
  5  6  1  0  0  0
  5  7  1  0  0  0
  7 10  1  0  0  0
 10 11  1  0  0  0
 10 19  1  0  0  0
 11 12  2  0  0  0
 12 13  1  0  0  0
 13 14  1  0  0  0
 13 19  2  0  0  0
 14 15  1  0  0  0
 14 16  2  0  0  0
 16 17  1  0  0  0
 17 18  2  0  0  0
 18 19  1  0  0  0
 26 28  1  0  0  0
 26 29  1  0  0  0
 32 33  1  0  0  0
  4  8  1  0  0  0
  6  9  1  0  0  0
 15 20  1  0  0  0
 15 21  1  0  0  0
M  END
> <minimizedAffinity>
-9.10386

$$$$
3U81_SAH_A_222


 33 35  0  0  0  0  0  0  0  0999 V2000
  -16.1610   -7.7222   16.2732 C   0  0  0  0  0  0  0  0  0  0  0  0
  -16.4860   -9.0021   15.7344 O   0  0  0  0  0  0  0  0  0  0  0  0
  -15.8060   -7.9040   17.7483 C   0  0  0  0  0  0  0  0  0  0  0  0
  -16.6953   -7.2585   18.6413 O   0  0  0  0  0  0  0  0  0  0  0  0
  -15.8520   -9.4527   17.8813 C   0  0  0  0  0  0  0  0  0  0  0  0
  -16.2322   -9.9442   19.1780 O   0  0  0  0  0  0  0  0  0  0  0  0
  -16.8290   -9.8597   16.8116 C   0  0  0  0  0  0  0  0  0  0  0  0
  -17.5962   -7.5867   18.4941 H   0  0  0  0  0  0  0  0  0  0  0  0
  -17.1192   -9.6200   19.3993 H   0  0  0  0  0  0  0  0  0  0  0  0
  -16.6977  -11.2339   16.3263 N   0  0  0  0  0  0  0  0  0  0  0  0
  -15.9107  -11.6343   15.2797 C   0  0  0  0  0  0  0  0  0  0  0  0
  -16.1162  -12.9464   14.9918 N   0  0  0  0  0  0  0  0  0  0  0  0
  -17.0693  -13.3532   15.9090 C   0  0  0  0  0  0  0  0  0  0  0  0
  -17.7178  -14.5964   16.1354 C   0  0  0  0  0  0  0  0  0  0  0  0
  -17.4178  -15.6933   15.3884 N   0  0  0  0  0  0  0  0  0  0  0  0
  -18.6234  -14.6568   17.1024 N   0  0  0  0  0  0  0  0  0  0  0  0
  -18.8778  -13.5695   17.8531 C   0  0  0  0  0  0  0  0  0  0  0  0
  -18.3371  -12.3449   17.7200 N   0  0  0  0  0  0  0  0  0  0  0  0
  -17.4263  -12.2764   16.7477 C   0  0  0  0  0  0  0  0  0  0  0  0
  -16.7432  -15.6329   14.6739 H   0  0  0  0  0  0  0  0  0  0  0  0
  -17.8753  -16.5475   15.5624 H   0  0  0  0  0  0  0  0  0  0  0  0
  -15.0685   -7.1095   15.3843 C   0  0  0  0  0  0  0  0  0  0  0  0
  -13.4693   -7.0418   16.1626 S   0  0  0  0  0  0  0  0  0  0  0  0
  -12.4290   -7.1625   14.6975 C   0  0  0  0  0  0  0  0  0  0  0  0
  -11.2995   -8.1126   14.9933 C   0  0  0  0  0  0  0  0  0  0  0  0
  -11.3835  -10.6265   15.0655 N   0  0  0  0  0  0  0  0  0  0  0  0
  -11.3816   -9.4277   14.2036 C   0  0  0  0  0  0  0  0  0  0  0  0
  -12.1626  -10.5722   15.7216 H   0  0  0  0  0  0  0  0  0  0  0  0
  -10.5059  -10.6745   15.5830 H   0  0  0  0  0  0  0  0  0  0  0  0
  -10.2166   -9.5279   13.2362 C   0  0  0  0  0  0  0  0  0  0  0  0
   -9.0629   -9.2698   13.6074 O   0  0  0  0  0  0  0  0  0  0  0  0
  -10.5064   -9.8413   12.0810 O   0  0  0  0  0  0  0  0  0  0  0  0
  -11.3967  -10.0263   11.8550 H   0  0  0  0  0  0  0  0  0  0  0  0
 26 27  1  0  0  0
 27 25  1  0  0  0
 27 30  1  0  0  0
 25 24  1  0  0  0
 24 23  1  0  0  0
 23 22  1  0  0  0
 30 31  2  0  0  0
 30 32  1  0  0  0
 22  1  1  0  0  0
  1  2  1  0  0  0
  1  3  1  0  0  0
  2  7  1  0  0  0
  3  4  1  0  0  0
  3  5  1  0  0  0
  5  6  1  0  0  0
  5  7  1  0  0  0
  7 10  1  0  0  0
 10 11  1  0  0  0
 10 19  1  0  0  0
 11 12  2  0  0  0
 12 13  1  0  0  0
 13 14  1  0  0  0
 13 19  2  0  0  0
 14 15  1  0  0  0
 14 16  2  0  0  0
 16 17  1  0  0  0
 17 18  2  0  0  0
 18 19  1  0  0  0
 26 28  1  0  0  0
 26 29  1  0  0  0
 32 33  1  0  0  0
  4  8  1  0  0  0
  6  9  1  0  0  0
 15 20  1  0  0  0
 15 21  1  0  0  0
M  END
> <minimizedAffinity>
-8.57327

$$$$
3U81_SAH_A_222


 33 35  0  0  0  0  0  0  0  0999 V2000
  -17.8382  -11.7713   16.2350 C   0  0  0  0  0  0  0  0  0  0  0  0
  -18.5479  -12.5800   17.1712 O   0  0  0  0  0  0  0  0  0  0  0  0
  -17.2948  -12.6833   15.1358 C   0  0  0  0  0  0  0  0  0  0  0  0
  -15.8812  -12.7362   15.0741 O   0  0  0  0  0  0  0  0  0  0  0  0
  -17.9225  -14.0481   15.5379 C   0  0  0  0  0  0  0  0  0  0  0  0
  -17.1474  -15.2060   15.1831 O   0  0  0  0  0  0  0  0  0  0  0  0
  -18.0996  -13.9185   17.0267 C   0  0  0  0  0  0  0  0  0  0  0  0
  -15.5312  -13.0339   15.9283 H   0  0  0  0  0  0  0  0  0  0  0  0
  -16.2808  -15.1603   15.6166 H   0  0  0  0  0  0  0  0  0  0  0  0
  -19.1227  -14.7812   17.6183 N   0  0  0  0  0  0  0  0  0  0  0  0
  -20.3289  -14.3597   18.1105 C   0  0  0  0  0  0  0  0  0  0  0  0
  -20.9900  -15.3809   18.7160 N   0  0  0  0  0  0  0  0  0  0  0  0
  -20.1426  -16.4664   18.5794 C   0  0  0  0  0  0  0  0  0  0  0  0
  -20.2375  -17.8199   18.9992 C   0  0  0  0  0  0  0  0  0  0  0  0
  -21.3381  -18.2782   19.6550 N   0  0  0  0  0  0  0  0  0  0  0  0
  -19.2204  -18.6266   18.7278 N   0  0  0  0  0  0  0  0  0  0  0  0
  -18.1578  -18.1615   18.0457 C   0  0  0  0  0  0  0  0  0  0  0  0
  -17.9563  -16.9036   17.6135 N   0  0  0  0  0  0  0  0  0  0  0  0
  -18.9751  -16.0861   17.8848 C   0  0  0  0  0  0  0  0  0  0  0  0
  -22.0852  -17.6672   19.8494 H   0  0  0  0  0  0  0  0  0  0  0  0
  -21.3873  -19.2207   19.9351 H   0  0  0  0  0  0  0  0  0  0  0  0
  -18.7853  -10.6515   15.7790 C   0  0  0  0  0  0  0  0  0  0  0  0
  -17.9731   -9.3557   14.8687 S   0  0  0  0  0  0  0  0  0  0  0  0
  -16.8644   -8.7510   16.1526 C   0  0  0  0  0  0  0  0  0  0  0  0
  -15.5604   -8.3606   15.5098 C   0  0  0  0  0  0  0  0  0  0  0  0
  -14.4637  -10.4655   16.3454 N   0  0  0  0  0  0  0  0  0  0  0  0
  -14.3332   -9.0051   16.1719 C   0  0  0  0  0  0  0  0  0  0  0  0
  -14.6322  -10.9019   15.4391 H   0  0  0  0  0  0  0  0  0  0  0  0
  -15.2454  -10.6651   16.9695 H   0  0  0  0  0  0  0  0  0  0  0  0
  -14.0833   -8.3758   17.5300 C   0  0  0  0  0  0  0  0  0  0  0  0
  -13.4942   -7.2897   17.6245 O   0  0  0  0  0  0  0  0  0  0  0  0
  -14.4689   -9.0281   18.5007 O   0  0  0  0  0  0  0  0  0  0  0  0
  -14.9100   -9.8446   18.3711 H   0  0  0  0  0  0  0  0  0  0  0  0
 26 27  1  0  0  0
 27 25  1  0  0  0
 27 30  1  0  0  0
 25 24  1  0  0  0
 24 23  1  0  0  0
 23 22  1  0  0  0
 30 31  2  0  0  0
 30 32  1  0  0  0
 22  1  1  0  0  0
  1  2  1  0  0  0
  1  3  1  0  0  0
  2  7  1  0  0  0
  3  4  1  0  0  0
  3  5  1  0  0  0
  5  6  1  0  0  0
  5  7  1  0  0  0
  7 10  1  0  0  0
 10 11  1  0  0  0
 10 19  1  0  0  0
 11 12  2  0  0  0
 12 13  1  0  0  0
 13 14  1  0  0  0
 13 19  2  0  0  0
 14 15  1  0  0  0
 14 16  2  0  0  0
 16 17  1  0  0  0
 17 18  2  0  0  0
 18 19  1  0  0  0
 26 28  1  0  0  0
 26 29  1  0  0  0
 32 33  1  0  0  0
  4  8  1  0  0  0
  6  9  1  0  0  0
 15 20  1  0  0  0
 15 21  1  0  0  0
M  END
> <minimizedAffinity>
-8.54453

$$$$
3U81_SAH_A_222


 33 35  0  0  0  0  0  0  0  0999 V2000
  -14.1884   -7.4375   16.9893 C   0  0  0  0  0  0  0  0  0  0  0  0
  -14.8495   -8.4127   16.1855 O   0  0  0  0  0  0  0  0  0  0  0  0
  -14.3486   -7.8418   18.4542 C   0  0  0  0  0  0  0  0  0  0  0  0
  -15.1011   -6.9257   19.2284 O   0  0  0  0  0  0  0  0  0  0  0  0
  -15.0561   -9.2193   18.3117 C   0  0  0  0  0  0  0  0  0  0  0  0
  -15.9363   -9.5696   19.3933 O   0  0  0  0  0  0  0  0  0  0  0  0
  -15.7877   -9.0950   17.0025 C   0  0  0  0  0  0  0  0  0  0  0  0
  -15.9816   -6.8177   18.8361 H   0  0  0  0  0  0  0  0  0  0  0  0
  -16.6376   -8.9036   19.4681 H   0  0  0  0  0  0  0  0  0  0  0  0
  -16.1033  -10.3573   16.3333 N   0  0  0  0  0  0  0  0  0  0  0  0
  -15.5573  -10.7888   15.1540 C   0  0  0  0  0  0  0  0  0  0  0  0
  -16.1594  -11.9305   14.7290 N   0  0  0  0  0  0  0  0  0  0  0  0
  -17.1096  -12.1982   15.6988 C   0  0  0  0  0  0  0  0  0  0  0  0
  -18.0709  -13.2336   15.8441 C   0  0  0  0  0  0  0  0  0  0  0  0
  -18.1669  -14.2383   14.9316 N   0  0  0  0  0  0  0  0  0  0  0  0
  -18.8708  -13.1938   16.9012 N   0  0  0  0  0  0  0  0  0  0  0  0
  -18.7339  -12.2114   17.8104 C   0  0  0  0  0  0  0  0  0  0  0  0
  -17.8731  -11.1785   17.7680 N   0  0  0  0  0  0  0  0  0  0  0  0
  -17.0662  -11.2113   16.7061 C   0  0  0  0  0  0  0  0  0  0  0  0
  -17.5660  -14.2542   14.1519 H   0  0  0  0  0  0  0  0  0  0  0  0
  -18.8372  -14.9494   15.0511 H   0  0  0  0  0  0  0  0  0  0  0  0
  -12.7465   -7.3137   16.4748 C   0  0  0  0  0  0  0  0  0  0  0  0
  -12.5917   -7.5565   14.7185 S   0  0  0  0  0  0  0  0  0  0  0  0
  -10.9278   -8.2434   14.6668 C   0  0  0  0  0  0  0  0  0  0  0  0
  -10.1696   -7.5701   13.5542 C   0  0  0  0  0  0  0  0  0  0  0  0
  -10.6120   -5.5638   12.1015 N   0  0  0  0  0  0  0  0  0  0  0  0
  -10.4084   -6.0545   13.4790 C   0  0  0  0  0  0  0  0  0  0  0  0
  -11.3991   -6.0555   11.6783 H   0  0  0  0  0  0  0  0  0  0  0  0
   -9.7697   -5.7338   11.5520 H   0  0  0  0  0  0  0  0  0  0  0  0
   -9.2347   -5.3114   14.0899 C   0  0  0  0  0  0  0  0  0  0  0  0
   -9.1629   -5.1417   15.3153 O   0  0  0  0  0  0  0  0  0  0  0  0
   -8.4051   -4.8738   13.2919 O   0  0  0  0  0  0  0  0  0  0  0  0
   -8.5088   -5.0321   12.3742 H   0  0  0  0  0  0  0  0  0  0  0  0
 26 27  1  0  0  0
 27 25  1  0  0  0
 27 30  1  0  0  0
 25 24  1  0  0  0
 24 23  1  0  0  0
 23 22  1  0  0  0
 30 31  2  0  0  0
 30 32  1  0  0  0
 22  1  1  0  0  0
  1  2  1  0  0  0
  1  3  1  0  0  0
  2  7  1  0  0  0
  3  4  1  0  0  0
  3  5  1  0  0  0
  5  6  1  0  0  0
  5  7  1  0  0  0
  7 10  1  0  0  0
 10 11  1  0  0  0
 10 19  1  0  0  0
 11 12  2  0  0  0
 12 13  1  0  0  0
 13 14  1  0  0  0
 13 19  2  0  0  0
 14 15  1  0  0  0
 14 16  2  0  0  0
 16 17  1  0  0  0
 17 18  2  0  0  0
 18 19  1  0  0  0
 26 28  1  0  0  0
 26 29  1  0  0  0
 32 33  1  0  0  0
  4  8  1  0  0  0
  6  9  1  0  0  0
 15 20  1  0  0  0
 15 21  1  0  0  0
M  END
> <minimizedAffinity>
-8.16317

$$$$
3U81_SAH_A_222


 33 35  0  0  0  0  0  0  0  0999 V2000
  -16.4286  -12.2598   15.3916 C   0  0  0  0  0  0  0  0  0  0  0  0
  -16.7178  -13.3463   16.2691 O   0  0  0  0  0  0  0  0  0  0  0  0
  -17.6138  -12.0873   14.4426 C   0  0  0  0  0  0  0  0  0  0  0  0
  -17.3059  -12.3308   13.0821 O   0  0  0  0  0  0  0  0  0  0  0  0
  -18.6162  -13.1271   15.0192 C   0  0  0  0  0  0  0  0  0  0  0  0
  -19.5068  -13.7170   14.0568 O   0  0  0  0  0  0  0  0  0  0  0  0
  -17.7180  -14.1491   15.6621 C   0  0  0  0  0  0  0  0  0  0  0  0
  -16.9569  -13.2307   12.9857 H   0  0  0  0  0  0  0  0  0  0  0  0
  -18.9896  -14.1771   13.3772 H   0  0  0  0  0  0  0  0  0  0  0  0
  -18.3302  -14.9494   16.7231 N   0  0  0  0  0  0  0  0  0  0  0  0
  -19.1131  -14.4607   17.7346 C   0  0  0  0  0  0  0  0  0  0  0  0
  -19.4102  -15.4360   18.6332 N   0  0  0  0  0  0  0  0  0  0  0  0
  -18.7781  -16.5628   18.1374 C   0  0  0  0  0  0  0  0  0  0  0  0
  -18.6887  -17.9005   18.6062 C   0  0  0  0  0  0  0  0  0  0  0  0
  -19.3238  -18.2918   19.7441 N   0  0  0  0  0  0  0  0  0  0  0  0
  -17.9696  -18.7599   17.8968 N   0  0  0  0  0  0  0  0  0  0  0  0
  -17.3804  -18.3606   16.7549 C   0  0  0  0  0  0  0  0  0  0  0  0
  -17.3865  -17.1236   16.2261 N   0  0  0  0  0  0  0  0  0  0  0  0
  -18.1069  -16.2533   16.9357 C   0  0  0  0  0  0  0  0  0  0  0  0
  -19.8540  -17.6422   20.2601 H   0  0  0  0  0  0  0  0  0  0  0  0
  -19.2532  -19.2244   20.0515 H   0  0  0  0  0  0  0  0  0  0  0  0
  -16.0749  -11.0440   16.2611 C   0  0  0  0  0  0  0  0  0  0  0  0
  -17.4423   -9.9374   16.5315 S   0  0  0  0  0  0  0  0  0  0  0  0
  -17.2418   -8.8725   15.0931 C   0  0  0  0  0  0  0  0  0  0  0  0
  -18.4134   -7.9294   15.0326 C   0  0  0  0  0  0  0  0  0  0  0  0
  -20.2767   -7.0077   13.6147 N   0  0  0  0  0  0  0  0  0  0  0  0
  -19.2040   -8.0169   13.7184 C   0  0  0  0  0  0  0  0  0  0  0  0
  -19.8762   -6.0747   13.7115 H   0  0  0  0  0  0  0  0  0  0  0  0
  -20.9615   -7.1622   14.3546 H   0  0  0  0  0  0  0  0  0  0  0  0
  -19.8199   -9.3961   13.5719 C   0  0  0  0  0  0  0  0  0  0  0  0
  -20.5652   -9.8519   14.4507 O   0  0  0  0  0  0  0  0  0  0  0  0
  -19.5005  -10.0195   12.5590 O   0  0  0  0  0  0  0  0  0  0  0  0
  -18.9329   -9.6257   11.9260 H   0  0  0  0  0  0  0  0  0  0  0  0
 26 27  1  0  0  0
 27 25  1  0  0  0
 27 30  1  0  0  0
 25 24  1  0  0  0
 24 23  1  0  0  0
 23 22  1  0  0  0
 30 31  2  0  0  0
 30 32  1  0  0  0
 22  1  1  0  0  0
  1  2  1  0  0  0
  1  3  1  0  0  0
  2  7  1  0  0  0
  3  4  1  0  0  0
  3  5  1  0  0  0
  5  6  1  0  0  0
  5  7  1  0  0  0
  7 10  1  0  0  0
 10 11  1  0  0  0
 10 19  1  0  0  0
 11 12  2  0  0  0
 12 13  1  0  0  0
 13 14  1  0  0  0
 13 19  2  0  0  0
 14 15  1  0  0  0
 14 16  2  0  0  0
 16 17  1  0  0  0
 17 18  2  0  0  0
 18 19  1  0  0  0
 26 28  1  0  0  0
 26 29  1  0  0  0
 32 33  1  0  0  0
  4  8  1  0  0  0
  6  9  1  0  0  0
 15 20  1  0  0  0
 15 21  1  0  0  0
M  END
> <minimizedAffinity>
-8.04348

$$$$
3U81_SAH_A_222


 33 35  0  0  0  0  0  0  0  0999 V2000
  -16.8080   -9.9742   15.9895 C   0  0  0  0  0  0  0  0  0  0  0  0
  -15.6951   -9.4978   15.2355 O   0  0  0  0  0  0  0  0  0  0  0  0
  -16.5739   -9.6194   17.4574 C   0  0  0  0  0  0  0  0  0  0  0  0
  -16.4317  -10.7421   18.3084 O   0  0  0  0  0  0  0  0  0  0  0  0
  -15.2689   -8.7793   17.3606 C   0  0  0  0  0  0  0  0  0  0  0  0
  -14.4108   -8.8474   18.5123 O   0  0  0  0  0  0  0  0  0  0  0  0
  -14.6034   -9.3210   16.1244 C   0  0  0  0  0  0  0  0  0  0  0  0
  -15.6947  -11.2914   17.9985 H   0  0  0  0  0  0  0  0  0  0  0  0
  -14.1389   -9.7669   18.6589 H   0  0  0  0  0  0  0  0  0  0  0  0
  -13.6569   -8.4176   15.4694 N   0  0  0  0  0  0  0  0  0  0  0  0
  -13.8723   -7.0890   15.2174 C   0  0  0  0  0  0  0  0  0  0  0  0
  -12.8621   -6.5657   14.4744 N   0  0  0  0  0  0  0  0  0  0  0  0
  -11.9991   -7.6285   14.2723 C   0  0  0  0  0  0  0  0  0  0  0  0
  -10.7686   -7.7493   13.5735 C   0  0  0  0  0  0  0  0  0  0  0  0
  -10.2019   -6.6780   12.9551 N   0  0  0  0  0  0  0  0  0  0  0  0
  -10.1849   -8.9399   13.5461 N   0  0  0  0  0  0  0  0  0  0  0  0
  -10.7440   -9.9771   14.1957 C   0  0  0  0  0  0  0  0  0  0  0  0
  -11.9060   -9.9809   14.8735 N   0  0  0  0  0  0  0  0  0  0  0  0
  -12.4997   -8.7866   14.9037 C   0  0  0  0  0  0  0  0  0  0  0  0
  -10.6473   -5.8005   12.9842 H   0  0  0  0  0  0  0  0  0  0  0  0
   -9.3466   -6.7803   12.4785 H   0  0  0  0  0  0  0  0  0  0  0  0
  -18.0808   -9.4008   15.3490 C   0  0  0  0  0  0  0  0  0  0  0  0
  -18.7852  -10.4508   14.0965 S   0  0  0  0  0  0  0  0  0  0  0  0
  -19.5591  -11.6851   15.1551 C   0  0  0  0  0  0  0  0  0  0  0  0
  -18.9784  -13.0324   14.8179 C   0  0  0  0  0  0  0  0  0  0  0  0
  -17.3589  -14.8368   15.4908 N   0  0  0  0  0  0  0  0  0  0  0  0
  -17.9560  -13.5348   15.8486 C   0  0  0  0  0  0  0  0  0  0  0  0
  -16.9154  -14.7672   14.5749 H   0  0  0  0  0  0  0  0  0  0  0  0
  -18.0884  -15.5491   15.4621 H   0  0  0  0  0  0  0  0  0  0  0  0
  -18.6097  -13.6595   17.2125 C   0  0  0  0  0  0  0  0  0  0  0  0
  -18.5414  -12.7335   18.0330 O   0  0  0  0  0  0  0  0  0  0  0  0
  -19.1643  -14.7346   17.4433 O   0  0  0  0  0  0  0  0  0  0  0  0
  -19.1864  -15.4012   16.7852 H   0  0  0  0  0  0  0  0  0  0  0  0
 26 27  1  0  0  0
 27 25  1  0  0  0
 27 30  1  0  0  0
 25 24  1  0  0  0
 24 23  1  0  0  0
 23 22  1  0  0  0
 30 31  2  0  0  0
 30 32  1  0  0  0
 22  1  1  0  0  0
  1  2  1  0  0  0
  1  3  1  0  0  0
  2  7  1  0  0  0
  3  4  1  0  0  0
  3  5  1  0  0  0
  5  6  1  0  0  0
  5  7  1  0  0  0
  7 10  1  0  0  0
 10 11  1  0  0  0
 10 19  1  0  0  0
 11 12  2  0  0  0
 12 13  1  0  0  0
 13 14  1  0  0  0
 13 19  2  0  0  0
 14 15  1  0  0  0
 14 16  2  0  0  0
 16 17  1  0  0  0
 17 18  2  0  0  0
 18 19  1  0  0  0
 26 28  1  0  0  0
 26 29  1  0  0  0
 32 33  1  0  0  0
  4  8  1  0  0  0
  6  9  1  0  0  0
 15 20  1  0  0  0
 15 21  1  0  0  0
M  END
> <minimizedAffinity>
-8.00173

$$$$
3U81_SAH_A_222


 33 35  0  0  0  0  0  0  0  0999 V2000
  -16.8742  -11.7713   15.9464 C   0  0  0  0  0  0  0  0  0  0  0  0
  -17.0964  -12.9180   16.7649 O   0  0  0  0  0  0  0  0  0  0  0  0
  -17.8856  -11.8021   14.8012 C   0  0  0  0  0  0  0  0  0  0  0  0
  -17.3031  -11.9426   13.5184 O   0  0  0  0  0  0  0  0  0  0  0  0
  -18.7526  -13.0309   15.1969 C   0  0  0  0  0  0  0  0  0  0  0  0
  -19.3294  -13.7527   14.0952 O   0  0  0  0  0  0  0  0  0  0  0  0
  -17.8000  -13.8799   15.9947 C   0  0  0  0  0  0  0  0  0  0  0  0
  -16.7748  -12.7557   13.4905 H   0  0  0  0  0  0  0  0  0  0  0  0
  -18.6221  -14.0852   13.5208 H   0  0  0  0  0  0  0  0  0  0  0  0
  -18.4215  -14.8129   16.9349 N   0  0  0  0  0  0  0  0  0  0  0  0
  -19.2655  -14.4666   17.9561 C   0  0  0  0  0  0  0  0  0  0  0  0
  -19.5584  -15.5441   18.7306 N   0  0  0  0  0  0  0  0  0  0  0  0
  -18.8596  -16.5861   18.1466 C   0  0  0  0  0  0  0  0  0  0  0  0
  -18.7337  -17.9626   18.4731 C   0  0  0  0  0  0  0  0  0  0  0  0
  -19.3985  -18.4985   19.5325 N   0  0  0  0  0  0  0  0  0  0  0  0
  -17.9504  -18.7123   17.7095 N   0  0  0  0  0  0  0  0  0  0  0  0
  -17.3316  -18.1697   16.6450 C   0  0  0  0  0  0  0  0  0  0  0  0
  -17.3677  -16.8837   16.2519 N   0  0  0  0  0  0  0  0  0  0  0  0
  -18.1527  -16.1231   17.0169 C   0  0  0  0  0  0  0  0  0  0  0  0
  -19.9764  -17.9291   20.0902 H   0  0  0  0  0  0  0  0  0  0  0  0
  -19.3016  -19.4557   19.7412 H   0  0  0  0  0  0  0  0  0  0  0  0
  -16.9207  -10.5359   16.8578 C   0  0  0  0  0  0  0  0  0  0  0  0
  -15.4372   -9.5539   16.8058 S   0  0  0  0  0  0  0  0  0  0  0  0
  -15.4742   -9.0651   15.0729 C   0  0  0  0  0  0  0  0  0  0  0  0
  -15.6482   -7.5715   15.0037 C   0  0  0  0  0  0  0  0  0  0  0  0
  -18.0465   -8.0271   14.3933 N   0  0  0  0  0  0  0  0  0  0  0  0
  -17.1140   -7.1201   15.0917 C   0  0  0  0  0  0  0  0  0  0  0  0
  -17.9549   -8.9685   14.7750 H   0  0  0  0  0  0  0  0  0  0  0  0
  -17.8257   -8.0409   13.3976 H   0  0  0  0  0  0  0  0  0  0  0  0
  -17.2657   -5.7267   14.5098 C   0  0  0  0  0  0  0  0  0  0  0  0
  -16.5813   -5.3685   13.5409 O   0  0  0  0  0  0  0  0  0  0  0  0
  -18.0719   -4.9929   15.0827 O   0  0  0  0  0  0  0  0  0  0  0  0
  -18.5639   -5.3163   15.8116 H   0  0  0  0  0  0  0  0  0  0  0  0
 26 27  1  0  0  0
 27 25  1  0  0  0
 27 30  1  0  0  0
 25 24  1  0  0  0
 24 23  1  0  0  0
 23 22  1  0  0  0
 30 31  2  0  0  0
 30 32  1  0  0  0
 22  1  1  0  0  0
  1  2  1  0  0  0
  1  3  1  0  0  0
  2  7  1  0  0  0
  3  4  1  0  0  0
  3  5  1  0  0  0
  5  6  1  0  0  0
  5  7  1  0  0  0
  7 10  1  0  0  0
 10 11  1  0  0  0
 10 19  1  0  0  0
 11 12  2  0  0  0
 12 13  1  0  0  0
 13 14  1  0  0  0
 13 19  2  0  0  0
 14 15  1  0  0  0
 14 16  2  0  0  0
 16 17  1  0  0  0
 17 18  2  0  0  0
 18 19  1  0  0  0
 26 28  1  0  0  0
 26 29  1  0  0  0
 32 33  1  0  0  0
  4  8  1  0  0  0
  6  9  1  0  0  0
 15 20  1  0  0  0
 15 21  1  0  0  0
M  END
> <minimizedAffinity>
-7.99617

$$$$
