2BOJ_ARW_A_1115


 14 14  0  0  0  0  0  0  0  0999 V2000
   22.8167   22.5946   29.7884 C   0  0  0  0  0  0  0  0  0  0  0  0
   21.9042   23.3415   28.8120 C   0  0  0  0  0  0  0  0  0  0  0  0
   20.8367   22.3742   28.2921 C   0  0  0  0  0  0  0  0  0  0  0  0
   20.0436   21.7809   29.4492 C   0  0  0  0  0  0  0  0  0  0  0  0
   20.9365   21.1908   30.5377 C   0  0  0  0  0  0  0  0  0  0  0  0
   22.6476   23.9233   27.7192 O   0  0  0  0  0  0  0  0  0  0  0  0
   19.9252   23.1278   27.4650 O   0  0  0  0  0  0  0  0  0  0  0  0
   19.2709   22.8303   30.0472 O   0  0  0  0  0  0  0  0  0  0  0  0
   21.9998   22.0987   30.8772 O   0  0  0  0  0  0  0  0  0  0  0  0
   23.0907   23.2201   27.2190 H   0  0  0  0  0  0  0  0  0  0  0  0
   19.5188   23.8337   27.9917 H   0  0  0  0  0  0  0  0  0  0  0  0
   19.8662   23.5153   30.3897 H   0  0  0  0  0  0  0  0  0  0  0  0
   23.5029   21.5837   29.0388 O   0  0  0  0  0  0  0  0  0  0  0  0
   24.9300   21.6201   29.2013 C   0  0  0  0  0  0  0  0  0  0  0  0
  1  2  1  0  0  0
  1 13  1  0  0  0
  1  9  1  0  0  0
  2  3  1  0  0  0
  2  6  1  0  0  0
  3  4  1  0  0  0
  3  7  1  0  0  0
  4  5  1  0  0  0
  4  8  1  0  0  0
  5  9  1  0  0  0
 13 14  1  0  0  0
  6 10  1  0  0  0
  7 11  1  0  0  0
  8 12  1  0  0  0
M  END
> <minimizedAffinity>
-6.49208

$$$$
2BOJ_ARW_A_1115


 14 14  0  0  0  0  0  0  0  0999 V2000
   22.4995   21.3778   30.7863 C   0  0  0  0  0  0  0  0  0  0  0  0
   22.7772   22.6088   29.9196 C   0  0  0  0  0  0  0  0  0  0  0  0
   22.0445   22.4507   28.5841 C   0  0  0  0  0  0  0  0  0  0  0  0
   20.5510   22.2589   28.8130 C   0  0  0  0  0  0  0  0  0  0  0  0
   20.2438   21.1556   29.8223 C   0  0  0  0  0  0  0  0  0  0  0  0
   24.1916   22.8109   29.7099 O   0  0  0  0  0  0  0  0  0  0  0  0
   22.2291   23.6696   27.8337 O   0  0  0  0  0  0  0  0  0  0  0  0
   20.0172   23.4826   29.3362 O   0  0  0  0  0  0  0  0  0  0  0  0
   21.0686   21.2876   30.9938 O   0  0  0  0  0  0  0  0  0  0  0  0
   24.5628   22.0433   29.2473 H   0  0  0  0  0  0  0  0  0  0  0  0
   21.8667   24.4164   28.3357 H   0  0  0  0  0  0  0  0  0  0  0  0
   20.4440   23.6854   30.1833 H   0  0  0  0  0  0  0  0  0  0  0  0
   23.0860   20.2507   30.1225 O   0  0  0  0  0  0  0  0  0  0  0  0
   23.4901   19.2041   31.0201 C   0  0  0  0  0  0  0  0  0  0  0  0
  1  2  1  0  0  0
  1 13  1  0  0  0
  1  9  1  0  0  0
  2  3  1  0  0  0
  2  6  1  0  0  0
  3  4  1  0  0  0
  3  7  1  0  0  0
  4  5  1  0  0  0
  4  8  1  0  0  0
  5  9  1  0  0  0
 13 14  1  0  0  0
  6 10  1  0  0  0
  7 11  1  0  0  0
  8 12  1  0  0  0
M  END
> <minimizedAffinity>
-5.54991

$$$$
2BOJ_ARW_A_1115


 14 14  0  0  0  0  0  0  0  0999 V2000
   23.1709   20.2948   28.3332 C   0  0  0  0  0  0  0  0  0  0  0  0
   23.4902   21.7103   27.8454 C   0  0  0  0  0  0  0  0  0  0  0  0
   22.2666   22.6021   28.0760 C   0  0  0  0  0  0  0  0  0  0  0  0
   21.8717   22.5982   29.5469 C   0  0  0  0  0  0  0  0  0  0  0  0
   21.7275   21.1896   30.1173 C   0  0  0  0  0  0  0  0  0  0  0  0
   23.8828   21.7245   26.4558 O   0  0  0  0  0  0  0  0  0  0  0  0
   22.6307   23.9510   27.7141 O   0  0  0  0  0  0  0  0  0  0  0  0
   22.9039   23.2606   30.2896 O   0  0  0  0  0  0  0  0  0  0  0  0
   22.8477   20.3676   29.7434 O   0  0  0  0  0  0  0  0  0  0  0  0
   23.1539   21.3893   25.9104 H   0  0  0  0  0  0  0  0  0  0  0  0
   23.3747   24.2435   28.2634 H   0  0  0  0  0  0  0  0  0  0  0  0
   23.7385   22.7776   30.1846 H   0  0  0  0  0  0  0  0  0  0  0  0
   22.1230   19.7848   27.4986 O   0  0  0  0  0  0  0  0  0  0  0  0
   22.2813   18.3963   27.1648 C   0  0  0  0  0  0  0  0  0  0  0  0
  1  2  1  0  0  0
  1 13  1  0  0  0
  1  9  1  0  0  0
  2  3  1  0  0  0
  2  6  1  0  0  0
  3  4  1  0  0  0
  3  7  1  0  0  0
  4  5  1  0  0  0
  4  8  1  0  0  0
  5  9  1  0  0  0
 13 14  1  0  0  0
  6 10  1  0  0  0
  7 11  1  0  0  0
  8 12  1  0  0  0
M  END
> <minimizedAffinity>
-5.38867

$$$$
2BOJ_ARW_A_1115


 14 14  0  0  0  0  0  0  0  0999 V2000
   22.2163   20.3158   29.1595 C   0  0  0  0  0  0  0  0  0  0  0  0
   21.2667   20.9880   28.1645 C   0  0  0  0  0  0  0  0  0  0  0  0
   20.9337   22.3949   28.6696 C   0  0  0  0  0  0  0  0  0  0  0  0
   22.2062   23.2101   28.8592 C   0  0  0  0  0  0  0  0  0  0  0  0
   23.2552   22.4835   29.6970 C   0  0  0  0  0  0  0  0  0  0  0  0
   20.0634   20.2152   27.9634 O   0  0  0  0  0  0  0  0  0  0  0  0
   20.1314   23.0459   27.6619 O   0  0  0  0  0  0  0  0  0  0  0  0
   22.7790   23.4532   27.5674 O   0  0  0  0  0  0  0  0  0  0  0  0
   23.4148   21.1242   29.2533 O   0  0  0  0  0  0  0  0  0  0  0  0
   19.5878   20.1326   28.8048 H   0  0  0  0  0  0  0  0  0  0  0  0
   20.6297   23.0906   26.8309 H   0  0  0  0  0  0  0  0  0  0  0  0
   23.0041   22.6075   27.1491 H   0  0  0  0  0  0  0  0  0  0  0  0
   21.4978   20.1556   30.3895 O   0  0  0  0  0  0  0  0  0  0  0  0
   21.5101   18.8082   30.8884 C   0  0  0  0  0  0  0  0  0  0  0  0
  1  2  1  0  0  0
  1 13  1  0  0  0
  1  9  1  0  0  0
  2  3  1  0  0  0
  2  6  1  0  0  0
  3  4  1  0  0  0
  3  7  1  0  0  0
  4  5  1  0  0  0
  4  8  1  0  0  0
  5  9  1  0  0  0
 13 14  1  0  0  0
  6 10  1  0  0  0
  7 11  1  0  0  0
  8 12  1  0  0  0
M  END
> <minimizedAffinity>
-5.30354

$$$$
2BOJ_ARW_A_1115


 14 14  0  0  0  0  0  0  0  0999 V2000
   23.3784   22.3173   28.0311 C   0  0  0  0  0  0  0  0  0  0  0  0
   22.1310   22.8259   28.7584 C   0  0  0  0  0  0  0  0  0  0  0  0
   21.7773   21.8460   29.8810 C   0  0  0  0  0  0  0  0  0  0  0  0
   22.9504   21.6840   30.8387 C   0  0  0  0  0  0  0  0  0  0  0  0
   24.2587   21.3590   30.1225 C   0  0  0  0  0  0  0  0  0  0  0  0
   21.0163   22.9999   27.8569 O   0  0  0  0  0  0  0  0  0  0  0  0
   20.6703   22.4042   30.6199 O   0  0  0  0  0  0  0  0  0  0  0  0
   23.1359   22.9245   31.5336 O   0  0  0  0  0  0  0  0  0  0  0  0
   24.4565   22.2305   28.9948 O   0  0  0  0  0  0  0  0  0  0  0  0
   20.7883   22.1464   27.4562 H   0  0  0  0  0  0  0  0  0  0  0  0
   20.9273   23.2648   30.9863 H   0  0  0  0  0  0  0  0  0  0  0  0
   23.3427   23.6249   30.8952 H   0  0  0  0  0  0  0  0  0  0  0  0
   23.0275   21.0772   27.4037 O   0  0  0  0  0  0  0  0  0  0  0  0
   24.1078   20.4828   26.6660 C   0  0  0  0  0  0  0  0  0  0  0  0
  1  2  1  0  0  0
  1 13  1  0  0  0
  1  9  1  0  0  0
  2  3  1  0  0  0
  2  6  1  0  0  0
  3  4  1  0  0  0
  3  7  1  0  0  0
  4  5  1  0  0  0
  4  8  1  0  0  0
  5  9  1  0  0  0
 13 14  1  0  0  0
  6 10  1  0  0  0
  7 11  1  0  0  0
  8 12  1  0  0  0
M  END
> <minimizedAffinity>
-5.23103

$$$$
2BOJ_ARW_A_1115


 14 14  0  0  0  0  0  0  0  0999 V2000
   20.2866   20.6984   28.8241 C   0  0  0  0  0  0  0  0  0  0  0  0
   20.4170   22.2199   28.7161 C   0  0  0  0  0  0  0  0  0  0  0  0
   21.7388   22.6512   29.3584 C   0  0  0  0  0  0  0  0  0  0  0  0
   22.9124   21.9452   28.6923 C   0  0  0  0  0  0  0  0  0  0  0  0
   22.7263   20.4320   28.6149 C   0  0  0  0  0  0  0  0  0  0  0  0
   19.3006   22.9002   29.3296 O   0  0  0  0  0  0  0  0  0  0  0  0
   21.8901   24.0703   29.1436 O   0  0  0  0  0  0  0  0  0  0  0  0
   23.0261   22.4348   27.3494 O   0  0  0  0  0  0  0  0  0  0  0  0
   21.4113   20.1007   28.1340 O   0  0  0  0  0  0  0  0  0  0  0  0
   19.2671   22.6802   30.2737 H   0  0  0  0  0  0  0  0  0  0  0  0
   21.8973   24.2543   28.1913 H   0  0  0  0  0  0  0  0  0  0  0  0
   22.2139   22.2292   26.8605 H   0  0  0  0  0  0  0  0  0  0  0  0
   20.1939   20.3785   30.2184 O   0  0  0  0  0  0  0  0  0  0  0  0
   19.7194   19.0458   30.4698 C   0  0  0  0  0  0  0  0  0  0  0  0
  1  2  1  0  0  0
  1 13  1  0  0  0
  1  9  1  0  0  0
  2  3  1  0  0  0
  2  6  1  0  0  0
  3  4  1  0  0  0
  3  7  1  0  0  0
  4  5  1  0  0  0
  4  8  1  0  0  0
  5  9  1  0  0  0
 13 14  1  0  0  0
  6 10  1  0  0  0
  7 11  1  0  0  0
  8 12  1  0  0  0
M  END
> <minimizedAffinity>
-5.21882

$$$$
2BOJ_ARW_A_1115


 14 14  0  0  0  0  0  0  0  0999 V2000
   21.5597   20.0317   29.3969 C   0  0  0  0  0  0  0  0  0  0  0  0
   20.2477   20.7925   29.1888 C   0  0  0  0  0  0  0  0  0  0  0  0
   20.3981   22.2059   29.7591 C   0  0  0  0  0  0  0  0  0  0  0  0
   21.5675   22.9264   29.1010 C   0  0  0  0  0  0  0  0  0  0  0  0
   22.8561   22.1084   29.1255 C   0  0  0  0  0  0  0  0  0  0  0  0
   19.1283   20.1098   29.7941 O   0  0  0  0  0  0  0  0  0  0  0  0
   19.1919   22.9358   29.4503 O   0  0  0  0  0  0  0  0  0  0  0  0
   21.2324   23.1620   27.7269 O   0  0  0  0  0  0  0  0  0  0  0  0
   22.6114   20.7529   28.7096 O   0  0  0  0  0  0  0  0  0  0  0  0
   19.2717   20.0390   30.7508 H   0  0  0  0  0  0  0  0  0  0  0  0
   19.0701   22.9670   28.4885 H   0  0  0  0  0  0  0  0  0  0  0  0
   21.0905   22.3135   27.2787 H   0  0  0  0  0  0  0  0  0  0  0  0
   21.7484   19.8904   30.8108 O   0  0  0  0  0  0  0  0  0  0  0  0
   22.5864   18.7793   31.1685 C   0  0  0  0  0  0  0  0  0  0  0  0
  1  2  1  0  0  0
  1 13  1  0  0  0
  1  9  1  0  0  0
  2  3  1  0  0  0
  2  6  1  0  0  0
  3  4  1  0  0  0
  3  7  1  0  0  0
  4  5  1  0  0  0
  4  8  1  0  0  0
  5  9  1  0  0  0
 13 14  1  0  0  0
  6 10  1  0  0  0
  7 11  1  0  0  0
  8 12  1  0  0  0
M  END
> <minimizedAffinity>
-5.20653

$$$$
2BOJ_ARW_A_1115


 14 14  0  0  0  0  0  0  0  0999 V2000
   24.1364   21.9571   30.2675 C   0  0  0  0  0  0  0  0  0  0  0  0
   24.6238   22.0643   28.8203 C   0  0  0  0  0  0  0  0  0  0  0  0
   23.4794   21.6719   27.8812 C   0  0  0  0  0  0  0  0  0  0  0  0
   22.2623   22.5548   28.1233 C   0  0  0  0  0  0  0  0  0  0  0  0
   21.8613   22.6194   29.5948 C   0  0  0  0  0  0  0  0  0  0  0  0
   25.7885   21.2441   28.5830 O   0  0  0  0  0  0  0  0  0  0  0  0
   23.9274   21.8893   26.5265 O   0  0  0  0  0  0  0  0  0  0  0  0
   22.5858   23.8878   27.7057 O   0  0  0  0  0  0  0  0  0  0  0  0
   23.0096   22.8530   30.4298 O   0  0  0  0  0  0  0  0  0  0  0  0
   25.5670   20.3136   28.7443 H   0  0  0  0  0  0  0  0  0  0  0  0
   24.1604   22.8235   26.4090 H   0  0  0  0  0  0  0  0  0  0  0  0
   23.3285   24.2207   28.2334 H   0  0  0  0  0  0  0  0  0  0  0  0
   23.8503   20.5750   30.5175 O   0  0  0  0  0  0  0  0  0  0  0  0
   24.4721   20.0680   31.7095 C   0  0  0  0  0  0  0  0  0  0  0  0
  1  2  1  0  0  0
  1 13  1  0  0  0
  1  9  1  0  0  0
  2  3  1  0  0  0
  2  6  1  0  0  0
  3  4  1  0  0  0
  3  7  1  0  0  0
  4  5  1  0  0  0
  4  8  1  0  0  0
  5  9  1  0  0  0
 13 14  1  0  0  0
  6 10  1  0  0  0
  7 11  1  0  0  0
  8 12  1  0  0  0
M  END
> <minimizedAffinity>
-5.06752

$$$$
2BOJ_ARW_A_1115


 14 14  0  0  0  0  0  0  0  0999 V2000
   23.8816   21.3612   27.0413 C   0  0  0  0  0  0  0  0  0  0  0  0
   23.3169   22.4764   27.9251 C   0  0  0  0  0  0  0  0  0  0  0  0
   23.5805   22.1275   29.3929 C   0  0  0  0  0  0  0  0  0  0  0  0
   25.0708   21.9281   29.6358 C   0  0  0  0  0  0  0  0  0  0  0  0
   25.7073   20.9572   28.6446 C   0  0  0  0  0  0  0  0  0  0  0  0
   21.9075   22.6864   27.6912 O   0  0  0  0  0  0  0  0  0  0  0  0
   23.1417   23.2433   30.1962 O   0  0  0  0  0  0  0  0  0  0  0  0
   25.7237   23.1949   29.4783 O   0  0  0  0  0  0  0  0  0  0  0  0
   25.3039   21.2614   27.2974 O   0  0  0  0  0  0  0  0  0  0  0  0
   21.4200   21.8753   27.9042 H   0  0  0  0  0  0  0  0  0  0  0  0
   23.6340   24.0391   29.9408 H   0  0  0  0  0  0  0  0  0  0  0  0
   25.5907   23.5169   28.5730 H   0  0  0  0  0  0  0  0  0  0  0  0
   23.1315   20.1734   27.3262 O   0  0  0  0  0  0  0  0  0  0  0  0
   23.4846   19.0590   26.4907 C   0  0  0  0  0  0  0  0  0  0  0  0
  1  2  1  0  0  0
  1 13  1  0  0  0
  1  9  1  0  0  0
  2  3  1  0  0  0
  2  6  1  0  0  0
  3  4  1  0  0  0
  3  7  1  0  0  0
  4  5  1  0  0  0
  4  8  1  0  0  0
  5  9  1  0  0  0
 13 14  1  0  0  0
  6 10  1  0  0  0
  7 11  1  0  0  0
  8 12  1  0  0  0
M  END
> <minimizedAffinity>
-4.56354

$$$$
2BOJ_ARW_A_1115


 14 14  0  0  0  0  0  0  0  0999 V2000
   20.1764   20.8961   30.5039 C   0  0  0  0  0  0  0  0  0  0  0  0
   21.6861   21.1453   30.5515 C   0  0  0  0  0  0  0  0  0  0  0  0
   22.1922   21.3980   29.1283 C   0  0  0  0  0  0  0  0  0  0  0  0
   21.4556   22.5735   28.4996 C   0  0  0  0  0  0  0  0  0  0  0  0
   19.9380   22.4448   28.6034 C   0  0  0  0  0  0  0  0  0  0  0  0
   22.3939   20.0443   31.1616 O   0  0  0  0  0  0  0  0  0  0  0  0
   23.5916   21.7407   29.2132 O   0  0  0  0  0  0  0  0  0  0  0  0
   21.8360   23.7662   29.1988 O   0  0  0  0  0  0  0  0  0  0  0  0
   19.5448   22.0695   29.9356 O   0  0  0  0  0  0  0  0  0  0  0  0
   22.2511   19.2392   30.6396 H   0  0  0  0  0  0  0  0  0  0  0  0
   23.6973   22.5355   29.7593 H   0  0  0  0  0  0  0  0  0  0  0  0
   21.5765   23.6915   30.1304 H   0  0  0  0  0  0  0  0  0  0  0  0
   19.9697   19.6830   29.7689 O   0  0  0  0  0  0  0  0  0  0  0  0
   19.0666   18.7698   30.4132 C   0  0  0  0  0  0  0  0  0  0  0  0
  1  2  1  0  0  0
  1 13  1  0  0  0
  1  9  1  0  0  0
  2  3  1  0  0  0
  2  6  1  0  0  0
  3  4  1  0  0  0
  3  7  1  0  0  0
  4  5  1  0  0  0
  4  8  1  0  0  0
  5  9  1  0  0  0
 13 14  1  0  0  0
  6 10  1  0  0  0
  7 11  1  0  0  0
  8 12  1  0  0  0
M  END
> <minimizedAffinity>
-4.46690

$$$$
