4BCP_T3C_A_1299


 33 36  0  0  0  0  0  0  0  0999 V2000
    4.0932   23.0980   21.7040 C   0  0  0  0  0  0  0  0  0  0  0  0
    5.1716   22.7995   22.4840 N   0  0  0  0  0  0  0  0  0  0  0  0
    5.4486   23.5046   23.5859 C   0  0  0  0  0  0  0  0  0  0  0  0
    4.6581   24.5556   23.9570 N   0  0  0  0  0  0  0  0  0  0  0  0
    3.5561   24.8982   23.2161 C   0  0  0  0  0  0  0  0  0  0  0  0
    3.2511   24.1733   22.0761 C   0  0  0  0  0  0  0  0  0  0  0  0
    2.8546   20.8140   18.7408 C   0  0  0  0  0  0  0  0  0  0  0  0
    4.1473   21.1354   18.5685 N   0  0  0  0  0  0  0  0  0  0  0  0
    4.6993   21.9199   19.5199 C   0  0  0  0  0  0  0  0  0  0  0  0
    6.1779   22.3478   19.4277 C   0  0  0  0  0  0  0  0  0  0  0  0
    3.8493   22.3053   20.5809 C   0  0  0  0  0  0  0  0  0  0  0  0
    2.3387   21.5716   20.2149 S   0  0  0  0  0  0  0  0  0  0  0  0
    1.2155   20.6376   16.8952 C   0  0  0  0  0  0  0  0  0  0  0  0
    2.0420   20.0020   17.8803 N   0  0  0  0  0  0  0  0  0  0  0  0
    2.0518   19.0212   17.9650 H   0  0  0  0  0  0  0  0  0  0  0  0
    6.6321   23.1662   24.4008 N   0  0  0  0  0  0  0  0  0  0  0  0
    6.6269   23.4040   25.3561 H   0  0  0  0  0  0  0  0  0  0  0  0
    7.7724   22.5173   23.8753 C   0  0  0  0  0  0  0  0  0  0  0  0
    9.0697   22.9127   24.3436 C   0  0  0  0  0  0  0  0  0  0  0  0
   10.2186   22.2927   23.8414 C   0  0  0  0  0  0  0  0  0  0  0  0
   10.1028   21.2779   22.8693 C   0  0  0  0  0  0  0  0  0  0  0  0
    8.8278   20.8831   22.4004 C   0  0  0  0  0  0  0  0  0  0  0  0
    7.6588   21.5182   22.9162 C   0  0  0  0  0  0  0  0  0  0  0  0
    8.7167   19.8210   21.3752 N   0  0  0  0  0  0  0  0  0  0  0  0
    8.0746   18.5355   21.4940 C   0  0  0  0  0  0  0  0  0  0  0  0
    6.9594   18.3682   20.5158 C   0  0  0  0  0  0  0  0  0  0  0  0
    7.4558   18.5043   19.1071 C   0  0  0  0  0  0  0  0  0  0  0  0
    8.8569   18.2074   19.0073 N   0  0  0  0  0  0  0  0  0  0  0  0
    9.6998   19.3574   19.1500 C   0  0  0  0  0  0  0  0  0  0  0  0
    9.9045   19.8242   20.5669 C   0  0  0  0  0  0  0  0  0  0  0  0
    9.0335   17.7897   18.0937 H   0  0  0  0  0  0  0  0  0  0  0  0
    2.0558   24.5368   21.2690 C   0  0  0  0  0  0  0  0  0  0  0  0
    1.1421   24.8127   20.6551 N   0  0  0  0  0  0  0  0  0  0  0  0
 13 14  1  0  0  0
 14  7  1  0  0  0
  7  8  2  0  0  0
  7 12  1  0  0  0
  8  9  1  0  0  0
  9 10  1  0  0  0
  9 11  2  0  0  0
 11  1  1  0  0  0
 11 12  1  0  0  0
  1  2  1  0  0  0
  1  6  2  0  0  0
  2  3  2  0  0  0
  3 16  1  0  0  0
  3  4  1  0  0  0
 16 18  1  0  0  0
 18 19  1  0  0  0
 18 23  2  0  0  0
 19 20  2  0  0  0
 20 21  1  0  0  0
 21 22  2  0  0  0
 22 24  1  0  0  0
 22 23  1  0  0  0
 24 25  1  0  0  0
 24 30  1  0  0  0
 25 26  1  0  0  0
 26 27  1  0  0  0
 27 28  1  0  0  0
 28 29  1  0  0  0
 29 30  1  0  0  0
  4  5  2  0  0  0
  5  6  1  0  0  0
  6 32  1  0  0  0
 32 33  3  0  0  0
 14 15  1  0  0  0
 16 17  1  0  0  0
 28 31  1  0  0  0
M  END
> <minimizedAffinity>
-9.72125

$$$$
4BCP_T3C_A_1299


 33 36  0  0  0  0  0  0  0  0999 V2000
    2.2421   23.0446   21.0352 C   0  0  0  0  0  0  0  0  0  0  0  0
    3.4257   23.4499   21.5785 N   0  0  0  0  0  0  0  0  0  0  0  0
    3.4610   24.2653   22.6378 C   0  0  0  0  0  0  0  0  0  0  0  0
    2.3042   24.7243   23.2019 N   0  0  0  0  0  0  0  0  0  0  0  0
    1.0841   24.3453   22.7034 C   0  0  0  0  0  0  0  0  0  0  0  0
    1.0302   23.4953   21.6113 C   0  0  0  0  0  0  0  0  0  0  0  0
    2.0396   21.0012   17.6715 C   0  0  0  0  0  0  0  0  0  0  0  0
    2.7219   20.3052   18.5957 N   0  0  0  0  0  0  0  0  0  0  0  0
    2.8653   20.8959   19.8023 C   0  0  0  0  0  0  0  0  0  0  0  0
    3.6262   20.1869   20.9409 C   0  0  0  0  0  0  0  0  0  0  0  0
    2.2785   22.1734   19.9448 C   0  0  0  0  0  0  0  0  0  0  0  0
    1.5632   22.4953   18.4156 S   0  0  0  0  0  0  0  0  0  0  0  0
    0.5797   19.8162   16.0626 C   0  0  0  0  0  0  0  0  0  0  0  0
    1.7520   20.6005   16.3236 N   0  0  0  0  0  0  0  0  0  0  0  0
    2.3517   20.8607   15.5875 H   0  0  0  0  0  0  0  0  0  0  0  0
    4.7584   24.6983   23.1932 N   0  0  0  0  0  0  0  0  0  0  0  0
    4.8902   25.6548   23.3855 H   0  0  0  0  0  0  0  0  0  0  0  0
    5.8205   23.8055   23.4624 C   0  0  0  0  0  0  0  0  0  0  0  0
    6.5849   23.9829   24.6636 C   0  0  0  0  0  0  0  0  0  0  0  0
    7.6446   23.1187   24.9580 C   0  0  0  0  0  0  0  0  0  0  0  0
    7.9657   22.0713   24.0703 C   0  0  0  0  0  0  0  0  0  0  0  0
    7.2188   21.8901   22.8826 C   0  0  0  0  0  0  0  0  0  0  0  0
    6.1384   22.7741   22.5870 C   0  0  0  0  0  0  0  0  0  0  0  0
    7.5675   20.7914   21.9538 N   0  0  0  0  0  0  0  0  0  0  0  0
    8.5937   19.7903   22.1078 C   0  0  0  0  0  0  0  0  0  0  0  0
    8.0344   18.4064   22.1304 C   0  0  0  0  0  0  0  0  0  0  0  0
    7.2888   18.1077   20.8638 C   0  0  0  0  0  0  0  0  0  0  0  0
    7.7385   18.9308   19.7769 N   0  0  0  0  0  0  0  0  0  0  0  0
    6.9959   20.1477   19.6318 C   0  0  0  0  0  0  0  0  0  0  0  0
    7.3645   21.2375   20.6033 C   0  0  0  0  0  0  0  0  0  0  0  0
    7.6542   18.3968   18.9119 H   0  0  0  0  0  0  0  0  0  0  0  0
   -0.2894   23.0771   21.0669 C   0  0  0  0  0  0  0  0  0  0  0  0
   -1.2967   22.7566   20.6540 N   0  0  0  0  0  0  0  0  0  0  0  0
 13 14  1  0  0  0
 14  7  1  0  0  0
  7  8  2  0  0  0
  7 12  1  0  0  0
  8  9  1  0  0  0
  9 10  1  0  0  0
  9 11  2  0  0  0
 11  1  1  0  0  0
 11 12  1  0  0  0
  1  2  1  0  0  0
  1  6  2  0  0  0
  2  3  2  0  0  0
  3 16  1  0  0  0
  3  4  1  0  0  0
 16 18  1  0  0  0
 18 19  1  0  0  0
 18 23  2  0  0  0
 19 20  2  0  0  0
 20 21  1  0  0  0
 21 22  2  0  0  0
 22 24  1  0  0  0
 22 23  1  0  0  0
 24 25  1  0  0  0
 24 30  1  0  0  0
 25 26  1  0  0  0
 26 27  1  0  0  0
 27 28  1  0  0  0
 28 29  1  0  0  0
 29 30  1  0  0  0
  4  5  2  0  0  0
  5  6  1  0  0  0
  6 32  1  0  0  0
 32 33  3  0  0  0
 14 15  1  0  0  0
 16 17  1  0  0  0
 28 31  1  0  0  0
M  END
> <minimizedAffinity>
-9.68966

$$$$
4BCP_T3C_A_1299


 33 36  0  0  0  0  0  0  0  0999 V2000
    2.9779   22.3793   20.5848 C   0  0  0  0  0  0  0  0  0  0  0  0
    3.9271   21.4045   20.4899 N   0  0  0  0  0  0  0  0  0  0  0  0
    3.9352   20.5394   19.4701 C   0  0  0  0  0  0  0  0  0  0  0  0
    2.9807   20.6044   18.4945 N   0  0  0  0  0  0  0  0  0  0  0  0
    2.0052   21.5675   18.5328 C   0  0  0  0  0  0  0  0  0  0  0  0
    1.9871   22.4757   19.5783 C   0  0  0  0  0  0  0  0  0  0  0  0
    3.6338   25.1031   23.3564 C   0  0  0  0  0  0  0  0  0  0  0  0
    2.5561   24.3677   23.6758 N   0  0  0  0  0  0  0  0  0  0  0  0
    2.2195   23.3921   22.8039 C   0  0  0  0  0  0  0  0  0  0  0  0
    1.0031   22.4826   23.0708 C   0  0  0  0  0  0  0  0  0  0  0  0
    3.0433   23.2638   21.6631 C   0  0  0  0  0  0  0  0  0  0  0  0
    4.2341   24.4893   21.8478 S   0  0  0  0  0  0  0  0  0  0  0  0
    4.4780   26.0050   25.5006 C   0  0  0  0  0  0  0  0  0  0  0  0
    4.1933   26.1910   24.1072 N   0  0  0  0  0  0  0  0  0  0  0  0
    4.3792   27.0539   23.6712 H   0  0  0  0  0  0  0  0  0  0  0  0
    4.9671   19.4858   19.4040 N   0  0  0  0  0  0  0  0  0  0  0  0
    4.9169   18.8258   18.6753 H   0  0  0  0  0  0  0  0  0  0  0  0
    6.0236   19.3792   20.3367 C   0  0  0  0  0  0  0  0  0  0  0  0
    6.6951   18.1192   20.4792 C   0  0  0  0  0  0  0  0  0  0  0  0
    7.7425   17.9792   21.3956 C   0  0  0  0  0  0  0  0  0  0  0  0
    8.1386   19.0785   22.1848 C   0  0  0  0  0  0  0  0  0  0  0  0
    7.4809   20.3240   22.0523 C   0  0  0  0  0  0  0  0  0  0  0  0
    6.4133   20.4619   21.1158 C   0  0  0  0  0  0  0  0  0  0  0  0
    7.8998   21.4706   22.8897 N   0  0  0  0  0  0  0  0  0  0  0  0
    7.2150   22.7242   23.0860 C   0  0  0  0  0  0  0  0  0  0  0  0
    6.8499   22.9511   24.5155 C   0  0  0  0  0  0  0  0  0  0  0  0
    8.0702   22.9539   25.3875 C   0  0  0  0  0  0  0  0  0  0  0  0
    9.2517   23.2928   24.6454 N   0  0  0  0  0  0  0  0  0  0  0  0
    9.9416   22.1556   24.1124 C   0  0  0  0  0  0  0  0  0  0  0  0
    9.3330   21.5689   22.8663 C   0  0  0  0  0  0  0  0  0  0  0  0
    9.8881   23.7948   25.2645 H   0  0  0  0  0  0  0  0  0  0  0  0
    0.9342   23.5252   19.6252 C   0  0  0  0  0  0  0  0  0  0  0  0
    0.1303   24.3253   19.6637 N   0  0  0  0  0  0  0  0  0  0  0  0
 13 14  1  0  0  0
 14  7  1  0  0  0
  7  8  2  0  0  0
  7 12  1  0  0  0
  8  9  1  0  0  0
  9 10  1  0  0  0
  9 11  2  0  0  0
 11  1  1  0  0  0
 11 12  1  0  0  0
  1  2  1  0  0  0
  1  6  2  0  0  0
  2  3  2  0  0  0
  3 16  1  0  0  0
  3  4  1  0  0  0
 16 18  1  0  0  0
 18 19  1  0  0  0
 18 23  2  0  0  0
 19 20  2  0  0  0
 20 21  1  0  0  0
 21 22  2  0  0  0
 22 24  1  0  0  0
 22 23  1  0  0  0
 24 25  1  0  0  0
 24 30  1  0  0  0
 25 26  1  0  0  0
 26 27  1  0  0  0
 27 28  1  0  0  0
 28 29  1  0  0  0
 29 30  1  0  0  0
  4  5  2  0  0  0
  5  6  1  0  0  0
  6 32  1  0  0  0
 32 33  3  0  0  0
 14 15  1  0  0  0
 16 17  1  0  0  0
 28 31  1  0  0  0
M  END
> <minimizedAffinity>
-9.64320

$$$$
4BCP_T3C_A_1299


 33 36  0  0  0  0  0  0  0  0999 V2000
    1.4159   22.6551   20.9842 C   0  0  0  0  0  0  0  0  0  0  0  0
    2.5616   23.3298   21.2887 N   0  0  0  0  0  0  0  0  0  0  0  0
    2.8005   23.7691   22.5289 C   0  0  0  0  0  0  0  0  0  0  0  0
    1.8927   23.5600   23.5285 N   0  0  0  0  0  0  0  0  0  0  0  0
    0.7262   22.8817   23.2839 C   0  0  0  0  0  0  0  0  0  0  0  0
    0.4670   22.4136   22.0064 C   0  0  0  0  0  0  0  0  0  0  0  0
    1.3841   21.0266   17.3956 C   0  0  0  0  0  0  0  0  0  0  0  0
    0.3971   21.9315   17.5022 N   0  0  0  0  0  0  0  0  0  0  0  0
    0.2961   22.5674   18.6899 C   0  0  0  0  0  0  0  0  0  0  0  0
   -0.7968   23.6299   18.9240 C   0  0  0  0  0  0  0  0  0  0  0  0
    1.2421   22.2037   19.6745 C   0  0  0  0  0  0  0  0  0  0  0  0
    2.2180   21.0082   18.9178 S   0  0  0  0  0  0  0  0  0  0  0  0
    0.6560   19.8715   15.3316 C   0  0  0  0  0  0  0  0  0  0  0  0
    1.7006   20.2213   16.2504 N   0  0  0  0  0  0  0  0  0  0  0  0
    2.6229   19.9130   16.0974 H   0  0  0  0  0  0  0  0  0  0  0  0
    4.0432   24.5097   22.8231 N   0  0  0  0  0  0  0  0  0  0  0  0
    4.0406   25.4888   22.7206 H   0  0  0  0  0  0  0  0  0  0  0  0
    5.2364   23.8805   23.2449 C   0  0  0  0  0  0  0  0  0  0  0  0
    5.8856   24.3558   24.4330 C   0  0  0  0  0  0  0  0  0  0  0  0
    7.0697   23.7573   24.8757 C   0  0  0  0  0  0  0  0  0  0  0  0
    7.6300   22.6853   24.1511 C   0  0  0  0  0  0  0  0  0  0  0  0
    6.9978   22.2114   22.9775 C   0  0  0  0  0  0  0  0  0  0  0  0
    5.7897   22.8250   22.5302 C   0  0  0  0  0  0  0  0  0  0  0  0
    7.5969   21.0895   22.2201 N   0  0  0  0  0  0  0  0  0  0  0  0
    6.9503   19.8895   21.7502 C   0  0  0  0  0  0  0  0  0  0  0  0
    7.0082   19.7610   20.2641 C   0  0  0  0  0  0  0  0  0  0  0  0
    8.4283   19.7354   19.7822 C   0  0  0  0  0  0  0  0  0  0  0  0
    9.3286   19.2901   20.8081 N   0  0  0  0  0  0  0  0  0  0  0  0
    9.8776   20.3557   21.5933 C   0  0  0  0  0  0  0  0  0  0  0  0
    8.9563   20.9083   22.6484 C   0  0  0  0  0  0  0  0  0  0  0  0
   10.0975   18.7866   20.3657 H   0  0  0  0  0  0  0  0  0  0  0  0
   -0.7946   21.6742   21.7339 C   0  0  0  0  0  0  0  0  0  0  0  0
   -1.7572   21.1093   21.5287 N   0  0  0  0  0  0  0  0  0  0  0  0
 13 14  1  0  0  0
 14  7  1  0  0  0
  7  8  2  0  0  0
  7 12  1  0  0  0
  8  9  1  0  0  0
  9 10  1  0  0  0
  9 11  2  0  0  0
 11  1  1  0  0  0
 11 12  1  0  0  0
  1  2  1  0  0  0
  1  6  2  0  0  0
  2  3  2  0  0  0
  3 16  1  0  0  0
  3  4  1  0  0  0
 16 18  1  0  0  0
 18 19  1  0  0  0
 18 23  2  0  0  0
 19 20  2  0  0  0
 20 21  1  0  0  0
 21 22  2  0  0  0
 22 24  1  0  0  0
 22 23  1  0  0  0
 24 25  1  0  0  0
 24 30  1  0  0  0
 25 26  1  0  0  0
 26 27  1  0  0  0
 27 28  1  0  0  0
 28 29  1  0  0  0
 29 30  1  0  0  0
  4  5  2  0  0  0
  5  6  1  0  0  0
  6 32  1  0  0  0
 32 33  3  0  0  0
 14 15  1  0  0  0
 16 17  1  0  0  0
 28 31  1  0  0  0
M  END
> <minimizedAffinity>
-9.01092

$$$$
4BCP_T3C_A_1299


 33 36  0  0  0  0  0  0  0  0999 V2000
    0.9147   23.6942   22.0345 C   0  0  0  0  0  0  0  0  0  0  0  0
    2.1711   24.2129   22.1476 N   0  0  0  0  0  0  0  0  0  0  0  0
    3.2291   23.4275   22.3762 C   0  0  0  0  0  0  0  0  0  0  0  0
    3.0767   22.0764   22.5123 N   0  0  0  0  0  0  0  0  0  0  0  0
    1.8388   21.4970   22.4013 C   0  0  0  0  0  0  0  0  0  0  0  0
    0.7338   22.2956   22.1573 C   0  0  0  0  0  0  0  0  0  0  0  0
   -1.8746   26.1559   20.7343 C   0  0  0  0  0  0  0  0  0  0  0  0
   -2.0290   25.9346   22.0501 N   0  0  0  0  0  0  0  0  0  0  0  0
   -1.1326   25.1032   22.6248 C   0  0  0  0  0  0  0  0  0  0  0  0
   -1.2102   24.7807   24.1308 C   0  0  0  0  0  0  0  0  0  0  0  0
   -0.1410   24.5691   21.7715 C   0  0  0  0  0  0  0  0  0  0  0  0
   -0.4933   25.2354   20.2269 S   0  0  0  0  0  0  0  0  0  0  0  0
   -3.0064   28.3191   20.3295 C   0  0  0  0  0  0  0  0  0  0  0  0
   -2.6874   26.9898   19.8951 N   0  0  0  0  0  0  0  0  0  0  0  0
   -3.0218   26.6536   19.0323 H   0  0  0  0  0  0  0  0  0  0  0  0
    4.5742   24.0212   22.5089 N   0  0  0  0  0  0  0  0  0  0  0  0
    4.6910   24.9722   22.2830 H   0  0  0  0  0  0  0  0  0  0  0  0
    5.7022   23.2897   22.9447 C   0  0  0  0  0  0  0  0  0  0  0  0
    6.2977   23.6245   24.2065 C   0  0  0  0  0  0  0  0  0  0  0  0
    7.4170   22.9222   24.6652 C   0  0  0  0  0  0  0  0  0  0  0  0
    7.9648   21.8837   23.8844 C   0  0  0  0  0  0  0  0  0  0  0  0
    7.3854   21.5481   22.6382 C   0  0  0  0  0  0  0  0  0  0  0  0
    6.2433   22.2672   22.1748 C   0  0  0  0  0  0  0  0  0  0  0  0
    7.9714   20.4605   21.8228 N   0  0  0  0  0  0  0  0  0  0  0  0
    7.6801   19.0496   21.8830 C   0  0  0  0  0  0  0  0  0  0  0  0
    7.1416   18.5280   20.5921 C   0  0  0  0  0  0  0  0  0  0  0  0
    8.1182   18.7473   19.4751 C   0  0  0  0  0  0  0  0  0  0  0  0
    9.4635   18.8659   19.9623 N   0  0  0  0  0  0  0  0  0  0  0  0
    9.8582   20.2156   20.2376 C   0  0  0  0  0  0  0  0  0  0  0  0
    9.3434   20.7765   21.5367 C   0  0  0  0  0  0  0  0  0  0  0  0
   10.0956   18.4822   19.2598 H   0  0  0  0  0  0  0  0  0  0  0  0
   -0.6119   21.6743   22.0324 C   0  0  0  0  0  0  0  0  0  0  0  0
   -1.6395   21.2020   21.9391 N   0  0  0  0  0  0  0  0  0  0  0  0
 13 14  1  0  0  0
 14  7  1  0  0  0
  7  8  2  0  0  0
  7 12  1  0  0  0
  8  9  1  0  0  0
  9 10  1  0  0  0
  9 11  2  0  0  0
 11  1  1  0  0  0
 11 12  1  0  0  0
  1  2  1  0  0  0
  1  6  2  0  0  0
  2  3  2  0  0  0
  3 16  1  0  0  0
  3  4  1  0  0  0
 16 18  1  0  0  0
 18 19  1  0  0  0
 18 23  2  0  0  0
 19 20  2  0  0  0
 20 21  1  0  0  0
 21 22  2  0  0  0
 22 24  1  0  0  0
 22 23  1  0  0  0
 24 25  1  0  0  0
 24 30  1  0  0  0
 25 26  1  0  0  0
 26 27  1  0  0  0
 27 28  1  0  0  0
 28 29  1  0  0  0
 29 30  1  0  0  0
  4  5  2  0  0  0
  5  6  1  0  0  0
  6 32  1  0  0  0
 32 33  3  0  0  0
 14 15  1  0  0  0
 16 17  1  0  0  0
 28 31  1  0  0  0
M  END
> <minimizedAffinity>
-8.68462

$$$$
4BCP_T3C_A_1299


 33 36  0  0  0  0  0  0  0  0999 V2000
   -0.0165   24.1723   21.2818 C   0  0  0  0  0  0  0  0  0  0  0  0
    1.3055   24.5040   21.3347 N   0  0  0  0  0  0  0  0  0  0  0  0
    2.2175   23.8414   20.6153 C   0  0  0  0  0  0  0  0  0  0  0  0
    1.8473   22.8016   19.8097 N   0  0  0  0  0  0  0  0  0  0  0  0
    0.5319   22.4272   19.7103 C   0  0  0  0  0  0  0  0  0  0  0  0
   -0.4260   23.1080   20.4432 C   0  0  0  0  0  0  0  0  0  0  0  0
   -2.4330   25.9145   23.8619 C   0  0  0  0  0  0  0  0  0  0  0  0
   -2.4714   26.5585   22.6837 N   0  0  0  0  0  0  0  0  0  0  0  0
   -1.6841   26.0604   21.7053 C   0  0  0  0  0  0  0  0  0  0  0  0
   -1.6516   26.7165   20.3100 C   0  0  0  0  0  0  0  0  0  0  0  0
   -0.9175   24.9218   22.0405 C   0  0  0  0  0  0  0  0  0  0  0  0
   -1.3173   24.5972   23.6803 S   0  0  0  0  0  0  0  0  0  0  0  0
   -2.5957   27.1575   25.9955 C   0  0  0  0  0  0  0  0  0  0  0  0
   -3.1667   26.2408   25.0515 N   0  0  0  0  0  0  0  0  0  0  0  0
   -4.0507   25.8406   25.2175 H   0  0  0  0  0  0  0  0  0  0  0  0
    3.6428   24.2146   20.7062 N   0  0  0  0  0  0  0  0  0  0  0  0
    3.9537   25.0028   20.2048 H   0  0  0  0  0  0  0  0  0  0  0  0
    4.5825   23.4949   21.4784 C   0  0  0  0  0  0  0  0  0  0  0  0
    4.8579   23.9333   22.8166 C   0  0  0  0  0  0  0  0  0  0  0  0
    5.7850   23.2451   23.6062 C   0  0  0  0  0  0  0  0  0  0  0  0
    6.4541   22.1186   23.0853 C   0  0  0  0  0  0  0  0  0  0  0  0
    6.1903   21.6805   21.7663 C   0  0  0  0  0  0  0  0  0  0  0  0
    5.2434   22.3856   20.9649 C   0  0  0  0  0  0  0  0  0  0  0  0
    6.9024   20.5004   21.2260 N   0  0  0  0  0  0  0  0  0  0  0  0
    8.2573   20.0833   21.4894 C   0  0  0  0  0  0  0  0  0  0  0  0
    8.3204   18.7295   22.1152 C   0  0  0  0  0  0  0  0  0  0  0  0
    7.6871   17.6983   21.2292 C   0  0  0  0  0  0  0  0  0  0  0  0
    7.6896   18.1076   19.8530 N   0  0  0  0  0  0  0  0  0  0  0  0
    6.5041   18.8104   19.4603 C   0  0  0  0  0  0  0  0  0  0  0  0
    6.4504   20.2541   19.8847 C   0  0  0  0  0  0  0  0  0  0  0  0
    7.7793   17.2758   19.2696 H   0  0  0  0  0  0  0  0  0  0  0  0
   -1.8554   22.7099   20.3383 C   0  0  0  0  0  0  0  0  0  0  0  0
   -2.9451   22.4034   20.2584 N   0  0  0  0  0  0  0  0  0  0  0  0
 13 14  1  0  0  0
 14  7  1  0  0  0
  7  8  2  0  0  0
  7 12  1  0  0  0
  8  9  1  0  0  0
  9 10  1  0  0  0
  9 11  2  0  0  0
 11  1  1  0  0  0
 11 12  1  0  0  0
  1  2  1  0  0  0
  1  6  2  0  0  0
  2  3  2  0  0  0
  3 16  1  0  0  0
  3  4  1  0  0  0
 16 18  1  0  0  0
 18 19  1  0  0  0
 18 23  2  0  0  0
 19 20  2  0  0  0
 20 21  1  0  0  0
 21 22  2  0  0  0
 22 24  1  0  0  0
 22 23  1  0  0  0
 24 25  1  0  0  0
 24 30  1  0  0  0
 25 26  1  0  0  0
 26 27  1  0  0  0
 27 28  1  0  0  0
 28 29  1  0  0  0
 29 30  1  0  0  0
  4  5  2  0  0  0
  5  6  1  0  0  0
  6 32  1  0  0  0
 32 33  3  0  0  0
 14 15  1  0  0  0
 16 17  1  0  0  0
 28 31  1  0  0  0
M  END
> <minimizedAffinity>
-8.56252

$$$$
4BCP_T3C_A_1299


 33 36  0  0  0  0  0  0  0  0999 V2000
    0.4960   23.7345   21.3973 C   0  0  0  0  0  0  0  0  0  0  0  0
    1.7944   24.1522   21.3862 N   0  0  0  0  0  0  0  0  0  0  0  0
    2.4599   24.3827   22.5230 C   0  0  0  0  0  0  0  0  0  0  0  0
    1.8494   24.2133   23.7337 N   0  0  0  0  0  0  0  0  0  0  0  0
    0.5478   23.7882   23.8077 C   0  0  0  0  0  0  0  0  0  0  0  0
   -0.1532   23.5379   22.6397 C   0  0  0  0  0  0  0  0  0  0  0  0
   -0.9417   22.5553   17.9226 C   0  0  0  0  0  0  0  0  0  0  0  0
   -1.5245   23.7056   18.2985 N   0  0  0  0  0  0  0  0  0  0  0  0
   -1.1193   24.2221   19.4793 C   0  0  0  0  0  0  0  0  0  0  0  0
   -1.7166   25.5417   20.0084 C   0  0  0  0  0  0  0  0  0  0  0  0
   -0.1306   23.4895   20.1739 C   0  0  0  0  0  0  0  0  0  0  0  0
    0.1883   22.1314   19.1700 S   0  0  0  0  0  0  0  0  0  0  0  0
   -2.5449   21.6617   16.2627 C   0  0  0  0  0  0  0  0  0  0  0  0
   -1.1944   21.8080   16.7235 N   0  0  0  0  0  0  0  0  0  0  0  0
   -0.4503   21.4010   16.2237 H   0  0  0  0  0  0  0  0  0  0  0  0
    3.8598   24.8490   22.4773 N   0  0  0  0  0  0  0  0  0  0  0  0
    4.0391   25.7630   22.1585 H   0  0  0  0  0  0  0  0  0  0  0  0
    4.9549   24.0462   22.8692 C   0  0  0  0  0  0  0  0  0  0  0  0
    5.6823   24.4004   24.0542 C   0  0  0  0  0  0  0  0  0  0  0  0
    6.7732   23.6288   24.4678 C   0  0  0  0  0  0  0  0  0  0  0  0
    7.1623   22.5007   23.7167 C   0  0  0  0  0  0  0  0  0  0  0  0
    6.4522   22.1452   22.5459 C   0  0  0  0  0  0  0  0  0  0  0  0
    5.3397   22.9353   22.1284 C   0  0  0  0  0  0  0  0  0  0  0  0
    6.8720   20.9627   21.7605 N   0  0  0  0  0  0  0  0  0  0  0  0
    8.2116   20.5551   21.4164 C   0  0  0  0  0  0  0  0  0  0  0  0
    8.5510   19.2086   21.9643 C   0  0  0  0  0  0  0  0  0  0  0  0
    7.6068   18.1646   21.4467 C   0  0  0  0  0  0  0  0  0  0  0  0
    7.0112   18.5587   20.2012 N   0  0  0  0  0  0  0  0  0  0  0  0
    5.7660   19.2513   20.3532 C   0  0  0  0  0  0  0  0  0  0  0  0
    5.8876   20.6993   20.7478 C   0  0  0  0  0  0  0  0  0  0  0  0
    6.8479   17.7209   19.6427 H   0  0  0  0  0  0  0  0  0  0  0  0
   -1.5644   23.0734   22.7118 C   0  0  0  0  0  0  0  0  0  0  0  0
   -2.6414   22.7204   22.7694 N   0  0  0  0  0  0  0  0  0  0  0  0
 13 14  1  0  0  0
 14  7  1  0  0  0
  7  8  2  0  0  0
  7 12  1  0  0  0
  8  9  1  0  0  0
  9 10  1  0  0  0
  9 11  2  0  0  0
 11  1  1  0  0  0
 11 12  1  0  0  0
  1  2  1  0  0  0
  1  6  2  0  0  0
  2  3  2  0  0  0
  3 16  1  0  0  0
  3  4  1  0  0  0
 16 18  1  0  0  0
 18 19  1  0  0  0
 18 23  2  0  0  0
 19 20  2  0  0  0
 20 21  1  0  0  0
 21 22  2  0  0  0
 22 24  1  0  0  0
 22 23  1  0  0  0
 24 25  1  0  0  0
 24 30  1  0  0  0
 25 26  1  0  0  0
 26 27  1  0  0  0
 27 28  1  0  0  0
 28 29  1  0  0  0
 29 30  1  0  0  0
  4  5  2  0  0  0
  5  6  1  0  0  0
  6 32  1  0  0  0
 32 33  3  0  0  0
 14 15  1  0  0  0
 16 17  1  0  0  0
 28 31  1  0  0  0
M  END
> <minimizedAffinity>
-8.55852

$$$$
4BCP_T3C_A_1299


 33 36  0  0  0  0  0  0  0  0999 V2000
    3.6854   25.9605   26.8308 C   0  0  0  0  0  0  0  0  0  0  0  0
    3.5250   25.9347   25.4766 N   0  0  0  0  0  0  0  0  0  0  0  0
    4.5263   25.5783   24.6650 C   0  0  0  0  0  0  0  0  0  0  0  0
    5.7475   25.2370   25.1743 N   0  0  0  0  0  0  0  0  0  0  0  0
    5.9661   25.2376   26.5281 C   0  0  0  0  0  0  0  0  0  0  0  0
    4.9372   25.5970   27.3827 C   0  0  0  0  0  0  0  0  0  0  0  0
    0.4645   26.3973   29.0594 C   0  0  0  0  0  0  0  0  0  0  0  0
    1.0527   27.5878   28.8573 N   0  0  0  0  0  0  0  0  0  0  0  0
    2.1744   27.5793   28.1042 C   0  0  0  0  0  0  0  0  0  0  0  0
    2.9306   28.8890   27.8029 C   0  0  0  0  0  0  0  0  0  0  0  0
    2.5909   26.3189   27.6200 C   0  0  0  0  0  0  0  0  0  0  0  0
    1.4219   25.2138   28.2252 S   0  0  0  0  0  0  0  0  0  0  0  0
   -1.6850   25.1975   29.3123 C   0  0  0  0  0  0  0  0  0  0  0  0
   -0.7263   26.1372   29.8173 N   0  0  0  0  0  0  0  0  0  0  0  0
   -0.8830   26.5980   30.6731 H   0  0  0  0  0  0  0  0  0  0  0  0
    4.3256   25.5751   23.2024 N   0  0  0  0  0  0  0  0  0  0  0  0
    4.2239   26.4391   22.7415 H   0  0  0  0  0  0  0  0  0  0  0  0
    4.2724   24.3914   22.4322 C   0  0  0  0  0  0  0  0  0  0  0  0
    3.1050   24.1355   21.6381 C   0  0  0  0  0  0  0  0  0  0  0  0
    3.0192   22.9717   20.8670 C   0  0  0  0  0  0  0  0  0  0  0  0
    4.0815   22.0445   20.8717 C   0  0  0  0  0  0  0  0  0  0  0  0
    5.2355   22.2877   21.6532 C   0  0  0  0  0  0  0  0  0  0  0  0
    5.3184   23.4766   22.4378 C   0  0  0  0  0  0  0  0  0  0  0  0
    6.3430   21.3054   21.6565 N   0  0  0  0  0  0  0  0  0  0  0  0
    6.3895   20.0172   21.0104 C   0  0  0  0  0  0  0  0  0  0  0  0
    7.4910   19.9277   20.0068 C   0  0  0  0  0  0  0  0  0  0  0  0
    8.8246   20.1664   20.6503 C   0  0  0  0  0  0  0  0  0  0  0  0
    8.7959   19.8720   22.0552 N   0  0  0  0  0  0  0  0  0  0  0  0
    8.4787   21.0048   22.8736 C   0  0  0  0  0  0  0  0  0  0  0  0
    7.0172   21.3639   22.9238 C   0  0  0  0  0  0  0  0  0  0  0  0
    9.7140   19.5228   22.3301 H   0  0  0  0  0  0  0  0  0  0  0  0
    5.1656   25.5970   28.8525 C   0  0  0  0  0  0  0  0  0  0  0  0
    5.3426   25.5964   29.9735 N   0  0  0  0  0  0  0  0  0  0  0  0
 13 14  1  0  0  0
 14  7  1  0  0  0
  7  8  2  0  0  0
  7 12  1  0  0  0
  8  9  1  0  0  0
  9 10  1  0  0  0
  9 11  2  0  0  0
 11  1  1  0  0  0
 11 12  1  0  0  0
  1  2  1  0  0  0
  1  6  2  0  0  0
  2  3  2  0  0  0
  3 16  1  0  0  0
  3  4  1  0  0  0
 16 18  1  0  0  0
 18 19  1  0  0  0
 18 23  2  0  0  0
 19 20  2  0  0  0
 20 21  1  0  0  0
 21 22  2  0  0  0
 22 24  1  0  0  0
 22 23  1  0  0  0
 24 25  1  0  0  0
 24 30  1  0  0  0
 25 26  1  0  0  0
 26 27  1  0  0  0
 27 28  1  0  0  0
 28 29  1  0  0  0
 29 30  1  0  0  0
  4  5  2  0  0  0
  5  6  1  0  0  0
  6 32  1  0  0  0
 32 33  3  0  0  0
 14 15  1  0  0  0
 16 17  1  0  0  0
 28 31  1  0  0  0
M  END
> <minimizedAffinity>
-8.25529

$$$$
4BCP_T3C_A_1299


 33 36  0  0  0  0  0  0  0  0999 V2000
    1.6568   23.0457   21.0394 C   0  0  0  0  0  0  0  0  0  0  0  0
    2.5339   23.4040   22.0206 N   0  0  0  0  0  0  0  0  0  0  0  0
    3.8552   23.3698   21.8179 C   0  0  0  0  0  0  0  0  0  0  0  0
    4.3651   22.9636   20.6170 N   0  0  0  0  0  0  0  0  0  0  0  0
    3.5322   22.5984   19.5906 C   0  0  0  0  0  0  0  0  0  0  0  0
    2.1609   22.6353   19.7819 C   0  0  0  0  0  0  0  0  0  0  0  0
   -2.1376   22.7510   22.0623 C   0  0  0  0  0  0  0  0  0  0  0  0
   -1.9180   23.9146   21.4283 N   0  0  0  0  0  0  0  0  0  0  0  0
   -0.6501   24.1426   21.0214 C   0  0  0  0  0  0  0  0  0  0  0  0
   -0.2831   25.4435   20.2790 C   0  0  0  0  0  0  0  0  0  0  0  0
    0.2899   23.1283   21.3113 C   0  0  0  0  0  0  0  0  0  0  0  0
   -0.6165   21.9174   22.1276 S   0  0  0  0  0  0  0  0  0  0  0  0
   -3.4194   21.7335   23.9186 C   0  0  0  0  0  0  0  0  0  0  0  0
   -3.3842   22.2745   22.5906 N   0  0  0  0  0  0  0  0  0  0  0  0
   -4.2047   22.3184   22.0484 H   0  0  0  0  0  0  0  0  0  0  0  0
    4.7789   23.7492   22.9052 N   0  0  0  0  0  0  0  0  0  0  0  0
    4.5427   24.5170   23.4743 H   0  0  0  0  0  0  0  0  0  0  0  0
    5.9861   23.0630   23.1683 C   0  0  0  0  0  0  0  0  0  0  0  0
    6.7787   23.4659   24.2945 C   0  0  0  0  0  0  0  0  0  0  0  0
    7.9803   22.8097   24.5807 C   0  0  0  0  0  0  0  0  0  0  0  0
    8.4169   21.7506   23.7585 C   0  0  0  0  0  0  0  0  0  0  0  0
    7.6428   21.3480   22.6448 C   0  0  0  0  0  0  0  0  0  0  0  0
    6.4175   22.0202   22.3574 C   0  0  0  0  0  0  0  0  0  0  0  0
    8.1125   20.2392   21.7839 N   0  0  0  0  0  0  0  0  0  0  0  0
    7.8737   18.8265   21.9458 C   0  0  0  0  0  0  0  0  0  0  0  0
    7.1401   18.2405   20.7852 C   0  0  0  0  0  0  0  0  0  0  0  0
    7.9088   18.4325   19.5117 C   0  0  0  0  0  0  0  0  0  0  0  0
    9.3131   18.5986   19.7597 N   0  0  0  0  0  0  0  0  0  0  0  0
    9.7120   19.9664   19.9130 C   0  0  0  0  0  0  0  0  0  0  0  0
    9.4079   20.5707   21.2582 C   0  0  0  0  0  0  0  0  0  0  0  0
    9.8283   18.1986   18.9754 H   0  0  0  0  0  0  0  0  0  0  0  0
    1.2509   22.2437   18.6724 C   0  0  0  0  0  0  0  0  0  0  0  0
    0.5585   21.9459   17.8240 N   0  0  0  0  0  0  0  0  0  0  0  0
 13 14  1  0  0  0
 14  7  1  0  0  0
  7  8  2  0  0  0
  7 12  1  0  0  0
  8  9  1  0  0  0
  9 10  1  0  0  0
  9 11  2  0  0  0
 11  1  1  0  0  0
 11 12  1  0  0  0
  1  2  1  0  0  0
  1  6  2  0  0  0
  2  3  2  0  0  0
  3 16  1  0  0  0
  3  4  1  0  0  0
 16 18  1  0  0  0
 18 19  1  0  0  0
 18 23  2  0  0  0
 19 20  2  0  0  0
 20 21  1  0  0  0
 21 22  2  0  0  0
 22 24  1  0  0  0
 22 23  1  0  0  0
 24 25  1  0  0  0
 24 30  1  0  0  0
 25 26  1  0  0  0
 26 27  1  0  0  0
 27 28  1  0  0  0
 28 29  1  0  0  0
 29 30  1  0  0  0
  4  5  2  0  0  0
  5  6  1  0  0  0
  6 32  1  0  0  0
 32 33  3  0  0  0
 14 15  1  0  0  0
 16 17  1  0  0  0
 28 31  1  0  0  0
M  END
> <minimizedAffinity>
-8.21128

$$$$
4BCP_T3C_A_1299


 33 36  0  0  0  0  0  0  0  0999 V2000
    3.9690   26.3572   26.7295 C   0  0  0  0  0  0  0  0  0  0  0  0
    3.8429   26.2467   25.3759 N   0  0  0  0  0  0  0  0  0  0  0  0
    4.7250   25.5511   24.6503 C   0  0  0  0  0  0  0  0  0  0  0  0
    5.7881   24.9361   25.2492 N   0  0  0  0  0  0  0  0  0  0  0  0
    5.9630   25.0062   26.6076 C   0  0  0  0  0  0  0  0  0  0  0  0
    5.0542   25.7165   27.3743 C   0  0  0  0  0  0  0  0  0  0  0  0
    1.5452   28.8701   28.5575 C   0  0  0  0  0  0  0  0  0  0  0  0
    1.0899   27.6127   28.6841 N   0  0  0  0  0  0  0  0  0  0  0  0
    1.8327   26.6473   28.0996 C   0  0  0  0  0  0  0  0  0  0  0  0
    1.4084   25.1672   28.1847 C   0  0  0  0  0  0  0  0  0  0  0  0
    2.9986   27.0783   27.4277 C   0  0  0  0  0  0  0  0  0  0  0  0
    3.0118   28.7847   27.6331 S   0  0  0  0  0  0  0  0  0  0  0  0
   -0.4760   30.2325   28.9846 C   0  0  0  0  0  0  0  0  0  0  0  0
    0.9454   30.0649   29.0797 N   0  0  0  0  0  0  0  0  0  0  0  0
    1.5025   30.7606   29.4979 H   0  0  0  0  0  0  0  0  0  0  0  0
    4.5694   25.4631   23.1850 N   0  0  0  0  0  0  0  0  0  0  0  0
    4.7330   26.2713   22.6470 H   0  0  0  0  0  0  0  0  0  0  0  0
    4.1970   24.2745   22.5173 C   0  0  0  0  0  0  0  0  0  0  0  0
    2.8122   24.0599   22.2089 C   0  0  0  0  0  0  0  0  0  0  0  0
    2.4099   22.8925   21.5518 C   0  0  0  0  0  0  0  0  0  0  0  0
    3.3671   21.9212   21.1935 C   0  0  0  0  0  0  0  0  0  0  0  0
    4.7344   22.1235   21.4953 C   0  0  0  0  0  0  0  0  0  0  0  0
    5.1399   23.3162   22.1654 C   0  0  0  0  0  0  0  0  0  0  0  0
    5.7311   21.0951   21.1207 N   0  0  0  0  0  0  0  0  0  0  0  0
    7.1673   21.2196   21.0907 C   0  0  0  0  0  0  0  0  0  0  0  0
    7.8372   20.2620   22.0196 C   0  0  0  0  0  0  0  0  0  0  0  0
    7.4924   18.8448   21.6704 C   0  0  0  0  0  0  0  0  0  0  0  0
    7.1058   18.7167   20.2936 N   0  0  0  0  0  0  0  0  0  0  0  0
    5.6953   18.8492   20.0780 C   0  0  0  0  0  0  0  0  0  0  0  0
    5.1807   20.2642   20.0859 C   0  0  0  0  0  0  0  0  0  0  0  0
    7.3977   17.7977   19.9611 H   0  0  0  0  0  0  0  0  0  0  0  0
    5.2352   25.7945   28.8486 C   0  0  0  0  0  0  0  0  0  0  0  0
    5.3737   25.8569   29.9732 N   0  0  0  0  0  0  0  0  0  0  0  0
 13 14  1  0  0  0
 14  7  1  0  0  0
  7  8  2  0  0  0
  7 12  1  0  0  0
  8  9  1  0  0  0
  9 10  1  0  0  0
  9 11  2  0  0  0
 11  1  1  0  0  0
 11 12  1  0  0  0
  1  2  1  0  0  0
  1  6  2  0  0  0
  2  3  2  0  0  0
  3 16  1  0  0  0
  3  4  1  0  0  0
 16 18  1  0  0  0
 18 19  1  0  0  0
 18 23  2  0  0  0
 19 20  2  0  0  0
 20 21  1  0  0  0
 21 22  2  0  0  0
 22 24  1  0  0  0
 22 23  1  0  0  0
 24 25  1  0  0  0
 24 30  1  0  0  0
 25 26  1  0  0  0
 26 27  1  0  0  0
 27 28  1  0  0  0
 28 29  1  0  0  0
 29 30  1  0  0  0
  4  5  2  0  0  0
  5  6  1  0  0  0
  6 32  1  0  0  0
 32 33  3  0  0  0
 14 15  1  0  0  0
 16 17  1  0  0  0
 28 31  1  0  0  0
M  END
> <minimizedAffinity>
-8.16871

$$$$
