2E92_M0N_A_901


 25 26  0  0  0  0  0  0  0  0999 V2000
   29.1476   47.8087    5.8231 O   0  0  0  0  0  0  0  0  0  0  0  0
   28.9180   46.4267    6.1163 C   0  0  0  0  0  0  0  0  0  0  0  0
   28.5132   48.3533    6.3149 H   0  0  0  0  0  0  0  0  0  0  0  0
   30.1542   45.4254    5.1537 P   0  0  0  0  0  0  0  0  0  0  0  0
   30.2434   45.8697    3.7470 O   0  0  0  0  0  0  0  0  0  0  0  0
   31.5573   45.5497    5.9352 O   0  0  0  0  0  0  0  0  0  0  0  0
   29.6732   43.9062    5.3615 O   0  0  0  0  0  0  0  0  0  0  0  0
   30.5395   46.7930    3.7178 H   0  0  0  0  0  0  0  0  0  0  0  0
   29.6441   43.7030    6.3095 H   0  0  0  0  0  0  0  0  0  0  0  0
   27.2083   45.9163    5.5691 P   0  0  0  0  0  0  0  0  0  0  0  0
   26.9292   44.4834    6.2506 O   0  0  0  0  0  0  0  0  0  0  0  0
   27.3292   45.6284    3.9935 O   0  0  0  0  0  0  0  0  0  0  0  0
   26.1796   46.9368    5.8667 O   0  0  0  0  0  0  0  0  0  0  0  0
   27.6406   43.8683    6.0130 H   0  0  0  0  0  0  0  0  0  0  0  0
   26.4125   47.7688    5.4258 H   0  0  0  0  0  0  0  0  0  0  0  0
   29.1440   46.1490    7.6016 C   0  0  0  0  0  0  0  0  0  0  0  0
   29.0176   47.4192    8.4555 C   0  0  0  0  0  0  0  0  0  0  0  0
   27.9250   48.0376    8.8788 C   0  0  0  0  0  0  0  0  0  0  0  0
   28.2740   49.0968    9.6137 N   0  0  0  0  0  0  0  0  0  0  0  0
   29.6004   49.1862    9.6726 C   0  0  0  0  0  0  0  0  0  0  0  0
   30.4600   50.0954   10.2744 C   0  0  0  0  0  0  0  0  0  0  0  0
   31.8362   49.9443   10.1405 C   0  0  0  0  0  0  0  0  0  0  0  0
   32.3589   48.8816    9.4058 C   0  0  0  0  0  0  0  0  0  0  0  0
   31.5138   47.9656    8.7976 C   0  0  0  0  0  0  0  0  0  0  0  0
   30.1252   48.1201    8.9321 N   0  0  0  0  0  0  0  0  0  0  0  0
  1  2  1  0  0  0
  2 10  1  0  0  0
  2 16  1  0  0  0
  2  4  1  0  0  0
 16 17  1  0  0  0
 17 18  2  0  0  0
 17 25  1  0  0  0
 18 19  1  0  0  0
 19 20  2  0  0  0
 20 25  1  0  0  0
 20 21  1  0  0  0
 21 22  2  0  0  0
 22 23  1  0  0  0
 23 24  2  0  0  0
 24 25  1  0  0  0
  4  6  2  0  0  0
  4  7  1  0  0  0
  4  5  1  0  0  0
 10 12  2  0  0  0
 10 11  1  0  0  0
 10 13  1  0  0  0
  1  3  1  0  0  0
  5  8  1  0  0  0
  7  9  1  0  0  0
 11 14  1  0  0  0
 13 15  1  0  0  0
M  END
> <minimizedAffinity>
-8.64405

$$$$
2E92_M0N_A_901


 25 26  0  0  0  0  0  0  0  0999 V2000
   29.3824   45.6644    8.0005 O   0  0  0  0  0  0  0  0  0  0  0  0
   28.8701   46.0890    6.7333 C   0  0  0  0  0  0  0  0  0  0  0  0
   30.3341   45.8473    8.0422 H   0  0  0  0  0  0  0  0  0  0  0  0
   27.0480   45.7191    6.7008 P   0  0  0  0  0  0  0  0  0  0  0  0
   26.4873   45.6052    8.0633 O   0  0  0  0  0  0  0  0  0  0  0  0
   26.3549   46.8903    5.8390 O   0  0  0  0  0  0  0  0  0  0  0  0
   26.9348   44.3918    5.8018 O   0  0  0  0  0  0  0  0  0  0  0  0
   26.5989   46.4480    8.5304 H   0  0  0  0  0  0  0  0  0  0  0  0
   27.3258   44.5576    4.9297 H   0  0  0  0  0  0  0  0  0  0  0  0
   29.6787   45.1360    5.3474 P   0  0  0  0  0  0  0  0  0  0  0  0
   31.1712   45.7268    5.2091 O   0  0  0  0  0  0  0  0  0  0  0  0
   28.9108   45.5866    4.0105 O   0  0  0  0  0  0  0  0  0  0  0  0
   29.6256   43.6714    5.5479 O   0  0  0  0  0  0  0  0  0  0  0  0
   31.1280   46.6873    5.0806 H   0  0  0  0  0  0  0  0  0  0  0  0
   28.7008   43.3885    5.6223 H   0  0  0  0  0  0  0  0  0  0  0  0
   29.0458   47.5970    6.5619 C   0  0  0  0  0  0  0  0  0  0  0  0
   29.1127   48.3305    7.9095 C   0  0  0  0  0  0  0  0  0  0  0  0
   28.1533   48.5334    8.8003 C   0  0  0  0  0  0  0  0  0  0  0  0
   28.6532   49.2015    9.8431 N   0  0  0  0  0  0  0  0  0  0  0  0
   29.9451   49.4490    9.6414 C   0  0  0  0  0  0  0  0  0  0  0  0
   30.9066   50.1171   10.3876 C   0  0  0  0  0  0  0  0  0  0  0  0
   32.2024   50.2432    9.8982 C   0  0  0  0  0  0  0  0  0  0  0  0
   32.5431   49.6994    8.6611 C   0  0  0  0  0  0  0  0  0  0  0  0
   31.5941   49.0302    7.9029 C   0  0  0  0  0  0  0  0  0  0  0  0
   30.2863   48.9051    8.3971 N   0  0  0  0  0  0  0  0  0  0  0  0
  1  2  1  0  0  0
  2 10  1  0  0  0
  2 16  1  0  0  0
  2  4  1  0  0  0
 16 17  1  0  0  0
 17 18  2  0  0  0
 17 25  1  0  0  0
 18 19  1  0  0  0
 19 20  2  0  0  0
 20 25  1  0  0  0
 20 21  1  0  0  0
 21 22  2  0  0  0
 22 23  1  0  0  0
 23 24  2  0  0  0
 24 25  1  0  0  0
  4  6  2  0  0  0
  4  7  1  0  0  0
  4  5  1  0  0  0
 10 12  2  0  0  0
 10 11  1  0  0  0
 10 13  1  0  0  0
  1  3  1  0  0  0
  5  8  1  0  0  0
  7  9  1  0  0  0
 11 14  1  0  0  0
 13 15  1  0  0  0
M  END
> <minimizedAffinity>
-8.49542

$$$$
2E92_M0N_A_901


 25 26  0  0  0  0  0  0  0  0999 V2000
   29.4416   47.2204    5.5329 O   0  0  0  0  0  0  0  0  0  0  0  0
   28.7338   46.1925    6.2336 C   0  0  0  0  0  0  0  0  0  0  0  0
   29.7383   47.8957    6.1629 H   0  0  0  0  0  0  0  0  0  0  0  0
   28.1865   44.9249    4.9881 P   0  0  0  0  0  0  0  0  0  0  0  0
   27.8525   45.5426    3.6877 O   0  0  0  0  0  0  0  0  0  0  0  0
   29.3761   43.8446    4.8761 O   0  0  0  0  0  0  0  0  0  0  0  0
   26.9727   44.1622    5.7145 O   0  0  0  0  0  0  0  0  0  0  0  0
   28.6398   45.9776    3.3247 H   0  0  0  0  0  0  0  0  0  0  0  0
   27.2815   43.7904    6.5555 H   0  0  0  0  0  0  0  0  0  0  0  0
   27.2109   46.8901    7.0565 P   0  0  0  0  0  0  0  0  0  0  0  0
   26.6399   45.7207    8.0063 O   0  0  0  0  0  0  0  0  0  0  0  0
   26.1276   47.0601    5.8829 O   0  0  0  0  0  0  0  0  0  0  0  0
   27.4691   48.1661    7.7590 O   0  0  0  0  0  0  0  0  0  0  0  0
   26.4953   44.9186    7.4804 H   0  0  0  0  0  0  0  0  0  0  0  0
   27.8092   48.8195    7.1279 H   0  0  0  0  0  0  0  0  0  0  0  0
   29.6524   45.4977    7.2375 C   0  0  0  0  0  0  0  0  0  0  0  0
   30.3590   46.4966    8.1656 C   0  0  0  0  0  0  0  0  0  0  0  0
   31.3106   47.3736    7.8818 C   0  0  0  0  0  0  0  0  0  0  0  0
   31.6231   48.0584    8.9850 N   0  0  0  0  0  0  0  0  0  0  0  0
   30.8830   47.6306   10.0049 C   0  0  0  0  0  0  0  0  0  0  0  0
   30.8298   47.9833   11.3467 C   0  0  0  0  0  0  0  0  0  0  0  0
   29.9513   47.3281   12.2032 C   0  0  0  0  0  0  0  0  0  0  0  0
   29.1203   46.3185   11.7209 C   0  0  0  0  0  0  0  0  0  0  0  0
   29.1622   45.9536   10.3836 C   0  0  0  0  0  0  0  0  0  0  0  0
   30.0503   46.6144    9.5206 N   0  0  0  0  0  0  0  0  0  0  0  0
  1  2  1  0  0  0
  2 10  1  0  0  0
  2 16  1  0  0  0
  2  4  1  0  0  0
 16 17  1  0  0  0
 17 18  2  0  0  0
 17 25  1  0  0  0
 18 19  1  0  0  0
 19 20  2  0  0  0
 20 25  1  0  0  0
 20 21  1  0  0  0
 21 22  2  0  0  0
 22 23  1  0  0  0
 23 24  2  0  0  0
 24 25  1  0  0  0
  4  6  2  0  0  0
  4  7  1  0  0  0
  4  5  1  0  0  0
 10 12  2  0  0  0
 10 11  1  0  0  0
 10 13  1  0  0  0
  1  3  1  0  0  0
  5  8  1  0  0  0
  7  9  1  0  0  0
 11 14  1  0  0  0
 13 15  1  0  0  0
M  END
> <minimizedAffinity>
-8.49022

$$$$
2E92_M0N_A_901


 25 26  0  0  0  0  0  0  0  0999 V2000
   29.5076   45.0752    7.7203 O   0  0  0  0  0  0  0  0  0  0  0  0
   28.9689   45.8426    6.6388 C   0  0  0  0  0  0  0  0  0  0  0  0
   30.4752   45.1431    7.7144 H   0  0  0  0  0  0  0  0  0  0  0  0
   27.1172   45.6821    6.6911 P   0  0  0  0  0  0  0  0  0  0  0  0
   26.6052   45.6886    8.0775 O   0  0  0  0  0  0  0  0  0  0  0  0
   26.5243   46.8887    5.8037 O   0  0  0  0  0  0  0  0  0  0  0  0
   26.8175   44.3409    5.8581 O   0  0  0  0  0  0  0  0  0  0  0  0
   26.8305   46.5315    8.5014 H   0  0  0  0  0  0  0  0  0  0  0  0
   27.1874   44.4253    4.9654 H   0  0  0  0  0  0  0  0  0  0  0  0
   29.5617   45.1722    5.0011 P   0  0  0  0  0  0  0  0  0  0  0  0
   29.6388   43.5722    5.1738 O   0  0  0  0  0  0  0  0  0  0  0  0
   31.0840   45.6647    4.8604 O   0  0  0  0  0  0  0  0  0  0  0  0
   28.7298   45.6168    3.8616 O   0  0  0  0  0  0  0  0  0  0  0  0
   30.1981   43.3559    5.9362 H   0  0  0  0  0  0  0  0  0  0  0  0
   28.7298   46.5859    3.8200 H   0  0  0  0  0  0  0  0  0  0  0  0
   29.3166   47.3211    6.8051 C   0  0  0  0  0  0  0  0  0  0  0  0
   30.4013   47.5462    7.8687 C   0  0  0  0  0  0  0  0  0  0  0  0
   31.7139   47.6433    7.7177 C   0  0  0  0  0  0  0  0  0  0  0  0
   32.2803   47.8603    8.9076 N   0  0  0  0  0  0  0  0  0  0  0  0
   31.3430   47.9002    9.8515 C   0  0  0  0  0  0  0  0  0  0  0  0
   31.3957   48.0708   11.2283 C   0  0  0  0  0  0  0  0  0  0  0  0
   30.2243   48.0404   11.9778 C   0  0  0  0  0  0  0  0  0  0  0  0
   28.9945   47.8415   11.3530 C   0  0  0  0  0  0  0  0  0  0  0  0
   28.9250   47.6683    9.9788 C   0  0  0  0  0  0  0  0  0  0  0  0
   30.1079   47.6976    9.2238 N   0  0  0  0  0  0  0  0  0  0  0  0
  1  2  1  0  0  0
  2 10  1  0  0  0
  2 16  1  0  0  0
  2  4  1  0  0  0
 16 17  1  0  0  0
 17 18  2  0  0  0
 17 25  1  0  0  0
 18 19  1  0  0  0
 19 20  2  0  0  0
 20 25  1  0  0  0
 20 21  1  0  0  0
 21 22  2  0  0  0
 22 23  1  0  0  0
 23 24  2  0  0  0
 24 25  1  0  0  0
  4  6  2  0  0  0
  4  7  1  0  0  0
  4  5  1  0  0  0
 10 12  2  0  0  0
 10 11  1  0  0  0
 10 13  1  0  0  0
  1  3  1  0  0  0
  5  8  1  0  0  0
  7  9  1  0  0  0
 11 14  1  0  0  0
 13 15  1  0  0  0
M  END
> <minimizedAffinity>
-8.40195

$$$$
2E92_M0N_A_901


 25 26  0  0  0  0  0  0  0  0999 V2000
   29.1422   47.4493    5.6325 O   0  0  0  0  0  0  0  0  0  0  0  0
   29.0200   46.0820    6.0373 C   0  0  0  0  0  0  0  0  0  0  0  0
   28.8915   48.0283    6.3693 H   0  0  0  0  0  0  0  0  0  0  0  0
   29.5098   45.0136    4.5964 P   0  0  0  0  0  0  0  0  0  0  0  0
   28.5814   45.1702    3.4572 O   0  0  0  0  0  0  0  0  0  0  0  0
   31.0255   45.4102    4.2222 O   0  0  0  0  0  0  0  0  0  0  0  0
   29.5875   43.5330    5.2163 O   0  0  0  0  0  0  0  0  0  0  0  0
   28.5994   46.0899    3.1495 H   0  0  0  0  0  0  0  0  0  0  0  0
   30.2171   43.5240    5.9541 H   0  0  0  0  0  0  0  0  0  0  0  0
   27.2503   45.6846    6.4769 P   0  0  0  0  0  0  0  0  0  0  0  0
   26.8903   44.3219    5.6966 O   0  0  0  0  0  0  0  0  0  0  0  0
   26.3662   46.8287    5.7774 O   0  0  0  0  0  0  0  0  0  0  0  0
   27.0193   45.6233    7.9367 O   0  0  0  0  0  0  0  0  0  0  0  0
   27.0658   44.4356    4.7494 H   0  0  0  0  0  0  0  0  0  0  0  0
   27.2564   46.4741    8.3377 H   0  0  0  0  0  0  0  0  0  0  0  0
   29.9728   45.7775    7.1923 C   0  0  0  0  0  0  0  0  0  0  0  0
   30.8893   46.9661    7.5174 C   0  0  0  0  0  0  0  0  0  0  0  0
   32.0595   47.2901    6.9873 C   0  0  0  0  0  0  0  0  0  0  0  0
   32.5025   48.4171    7.5505 N   0  0  0  0  0  0  0  0  0  0  0  0
   31.6286   48.8385    8.4614 C   0  0  0  0  0  0  0  0  0  0  0  0
   31.6176   49.9219    9.3295 C   0  0  0  0  0  0  0  0  0  0  0  0
   30.5546   50.0968   10.2093 C   0  0  0  0  0  0  0  0  0  0  0  0
   29.4965   49.1899   10.2231 C   0  0  0  0  0  0  0  0  0  0  0  0
   29.4930   48.1019    9.3632 C   0  0  0  0  0  0  0  0  0  0  0  0
   30.5670   47.9256    8.4770 N   0  0  0  0  0  0  0  0  0  0  0  0
  1  2  1  0  0  0
  2 10  1  0  0  0
  2 16  1  0  0  0
  2  4  1  0  0  0
 16 17  1  0  0  0
 17 18  2  0  0  0
 17 25  1  0  0  0
 18 19  1  0  0  0
 19 20  2  0  0  0
 20 25  1  0  0  0
 20 21  1  0  0  0
 21 22  2  0  0  0
 22 23  1  0  0  0
 23 24  2  0  0  0
 24 25  1  0  0  0
  4  6  2  0  0  0
  4  7  1  0  0  0
  4  5  1  0  0  0
 10 12  2  0  0  0
 10 11  1  0  0  0
 10 13  1  0  0  0
  1  3  1  0  0  0
  5  8  1  0  0  0
  7  9  1  0  0  0
 11 14  1  0  0  0
 13 15  1  0  0  0
M  END
> <minimizedAffinity>
-8.17171

$$$$
2E92_M0N_A_901


 25 26  0  0  0  0  0  0  0  0999 V2000
   27.6477   48.5121    7.9767 O   0  0  0  0  0  0  0  0  0  0  0  0
   28.1761   47.2437    7.5762 C   0  0  0  0  0  0  0  0  0  0  0  0
   27.2759   48.4402    8.8697 H   0  0  0  0  0  0  0  0  0  0  0  0
   28.8753   47.4310    5.8635 P   0  0  0  0  0  0  0  0  0  0  0  0
   29.4124   48.7888    5.6360 O   0  0  0  0  0  0  0  0  0  0  0  0
   29.9931   46.2836    5.6935 O   0  0  0  0  0  0  0  0  0  0  0  0
   27.6635   47.0046    4.8979 O   0  0  0  0  0  0  0  0  0  0  0  0
   30.1357   48.9591    6.2596 H   0  0  0  0  0  0  0  0  0  0  0  0
   27.3765   46.1044    5.1174 H   0  0  0  0  0  0  0  0  0  0  0  0
   26.8219   45.9611    7.5112 P   0  0  0  0  0  0  0  0  0  0  0  0
   27.4098   44.7326    6.6503 O   0  0  0  0  0  0  0  0  0  0  0  0
   25.6621   46.6059    6.6062 O   0  0  0  0  0  0  0  0  0  0  0  0
   26.3276   45.5769    8.8514 O   0  0  0  0  0  0  0  0  0  0  0  0
   27.7134   45.0579    5.7884 H   0  0  0  0  0  0  0  0  0  0  0  0
   25.9906   46.3628    9.3093 H   0  0  0  0  0  0  0  0  0  0  0  0
   29.3139   46.8198    8.5037 C   0  0  0  0  0  0  0  0  0  0  0  0
   29.5867   47.8597    9.6004 C   0  0  0  0  0  0  0  0  0  0  0  0
   29.0336   47.9768   10.7986 C   0  0  0  0  0  0  0  0  0  0  0  0
   29.5822   49.0128   11.4386 N   0  0  0  0  0  0  0  0  0  0  0  0
   30.4958   49.5891   10.6614 C   0  0  0  0  0  0  0  0  0  0  0  0
   31.3215   50.6921   10.8327 C   0  0  0  0  0  0  0  0  0  0  0  0
   32.1786   51.0842    9.8098 C   0  0  0  0  0  0  0  0  0  0  0  0
   32.2154   50.3733    8.6117 C   0  0  0  0  0  0  0  0  0  0  0  0
   31.3962   49.2701    8.4244 C   0  0  0  0  0  0  0  0  0  0  0  0
   30.5306   48.8763    9.4568 N   0  0  0  0  0  0  0  0  0  0  0  0
  1  2  1  0  0  0
  2 10  1  0  0  0
  2 16  1  0  0  0
  2  4  1  0  0  0
 16 17  1  0  0  0
 17 18  2  0  0  0
 17 25  1  0  0  0
 18 19  1  0  0  0
 19 20  2  0  0  0
 20 25  1  0  0  0
 20 21  1  0  0  0
 21 22  2  0  0  0
 22 23  1  0  0  0
 23 24  2  0  0  0
 24 25  1  0  0  0
  4  6  2  0  0  0
  4  7  1  0  0  0
  4  5  1  0  0  0
 10 12  2  0  0  0
 10 11  1  0  0  0
 10 13  1  0  0  0
  1  3  1  0  0  0
  5  8  1  0  0  0
  7  9  1  0  0  0
 11 14  1  0  0  0
 13 15  1  0  0  0
M  END
> <minimizedAffinity>
-8.10378

$$$$
2E92_M0N_A_901


 25 26  0  0  0  0  0  0  0  0999 V2000
   29.6730   43.7069    5.5407 O   0  0  0  0  0  0  0  0  0  0  0  0
   29.3242   44.9993    5.0344 C   0  0  0  0  0  0  0  0  0  0  0  0
   29.0238   43.0540    5.2354 H   0  0  0  0  0  0  0  0  0  0  0  0
   30.5935   46.2136    5.6444 P   0  0  0  0  0  0  0  0  0  0  0  0
   30.8783   46.0326    7.0832 O   0  0  0  0  0  0  0  0  0  0  0  0
   31.8998   46.0175    4.7225 O   0  0  0  0  0  0  0  0  0  0  0  0
   29.9880   47.6469    5.2424 O   0  0  0  0  0  0  0  0  0  0  0  0
   31.2385   45.1444    7.2323 H   0  0  0  0  0  0  0  0  0  0  0  0
   29.8334   47.6756    4.2852 H   0  0  0  0  0  0  0  0  0  0  0  0
   27.6571   45.5295    5.6847 P   0  0  0  0  0  0  0  0  0  0  0  0
   27.0835   46.6001    4.6262 O   0  0  0  0  0  0  0  0  0  0  0  0
   27.9632   46.3659    7.0214 O   0  0  0  0  0  0  0  0  0  0  0  0
   26.7501   44.3896    5.9420 O   0  0  0  0  0  0  0  0  0  0  0  0
   27.7280   47.3152    4.5081 H   0  0  0  0  0  0  0  0  0  0  0  0
   27.1591   43.7898    6.5852 H   0  0  0  0  0  0  0  0  0  0  0  0
   29.3647   45.0058    3.5071 C   0  0  0  0  0  0  0  0  0  0  0  0
   28.7341   43.7418    2.9044 C   0  0  0  0  0  0  0  0  0  0  0  0
   27.4578   43.4727    2.6722 C   0  0  0  0  0  0  0  0  0  0  0  0
   27.3559   42.2623    2.1168 N   0  0  0  0  0  0  0  0  0  0  0  0
   28.5658   41.7237    1.9866 C   0  0  0  0  0  0  0  0  0  0  0  0
   29.0078   40.5004    1.5011 C   0  0  0  0  0  0  0  0  0  0  0  0
   30.3652   40.1970    1.5138 C   0  0  0  0  0  0  0  0  0  0  0  0
   31.2869   41.1170    2.0103 C   0  0  0  0  0  0  0  0  0  0  0  0
   30.8614   42.3427    2.4999 C   0  0  0  0  0  0  0  0  0  0  0  0
   29.4913   42.6470    2.4880 N   0  0  0  0  0  0  0  0  0  0  0  0
  1  2  1  0  0  0
  2 10  1  0  0  0
  2 16  1  0  0  0
  2  4  1  0  0  0
 16 17  1  0  0  0
 17 18  2  0  0  0
 17 25  1  0  0  0
 18 19  1  0  0  0
 19 20  2  0  0  0
 20 25  1  0  0  0
 20 21  1  0  0  0
 21 22  2  0  0  0
 22 23  1  0  0  0
 23 24  2  0  0  0
 24 25  1  0  0  0
  4  6  2  0  0  0
  4  7  1  0  0  0
  4  5  1  0  0  0
 10 12  2  0  0  0
 10 11  1  0  0  0
 10 13  1  0  0  0
  1  3  1  0  0  0
  5  8  1  0  0  0
  7  9  1  0  0  0
 11 14  1  0  0  0
 13 15  1  0  0  0
M  END
> <minimizedAffinity>
-7.84132

$$$$
2E92_M0N_A_901


 25 26  0  0  0  0  0  0  0  0999 V2000
   29.8594   45.6753    7.3604 O   0  0  0  0  0  0  0  0  0  0  0  0
   28.6381   46.4215    7.3585 C   0  0  0  0  0  0  0  0  0  0  0  0
   30.2941   45.7645    6.4978 H   0  0  0  0  0  0  0  0  0  0  0  0
   27.8432   46.2207    9.0275 P   0  0  0  0  0  0  0  0  0  0  0  0
   28.6457   45.3545    9.9162 O   0  0  0  0  0  0  0  0  0  0  0  0
   27.6393   47.7035    9.6228 O   0  0  0  0  0  0  0  0  0  0  0  0
   26.3675   45.6783    8.6947 O   0  0  0  0  0  0  0  0  0  0  0  0
   29.5158   45.7579   10.0614 H   0  0  0  0  0  0  0  0  0  0  0  0
   25.9166   46.3065    8.1091 H   0  0  0  0  0  0  0  0  0  0  0  0
   27.4626   45.7507    6.0734 P   0  0  0  0  0  0  0  0  0  0  0  0
   28.1590   46.0199    4.6458 O   0  0  0  0  0  0  0  0  0  0  0  0
   26.1806   46.7174    6.1171 O   0  0  0  0  0  0  0  0  0  0  0  0
   27.0968   44.3370    6.3095 O   0  0  0  0  0  0  0  0  0  0  0  0
   28.3699   46.9629    4.5615 H   0  0  0  0  0  0  0  0  0  0  0  0
   26.6849   44.2512    7.1835 H   0  0  0  0  0  0  0  0  0  0  0  0
   28.9186   47.9087    7.1484 C   0  0  0  0  0  0  0  0  0  0  0  0
   30.4143   48.2387    7.2606 C   0  0  0  0  0  0  0  0  0  0  0  0
   31.4141   47.8687    6.4740 C   0  0  0  0  0  0  0  0  0  0  0  0
   32.5526   48.3992    6.9280 N   0  0  0  0  0  0  0  0  0  0  0  0
   32.3097   49.1168    8.0221 C   0  0  0  0  0  0  0  0  0  0  0  0
   33.1289   49.8401    8.8784 C   0  0  0  0  0  0  0  0  0  0  0  0
   32.5830   50.4832    9.9844 C   0  0  0  0  0  0  0  0  0  0  0  0
   31.2145   50.4076   10.2375 C   0  0  0  0  0  0  0  0  0  0  0  0
   30.3829   49.6882    9.3924 C   0  0  0  0  0  0  0  0  0  0  0  0
   30.9353   49.0384    8.2776 N   0  0  0  0  0  0  0  0  0  0  0  0
  1  2  1  0  0  0
  2 10  1  0  0  0
  2 16  1  0  0  0
  2  4  1  0  0  0
 16 17  1  0  0  0
 17 18  2  0  0  0
 17 25  1  0  0  0
 18 19  1  0  0  0
 19 20  2  0  0  0
 20 25  1  0  0  0
 20 21  1  0  0  0
 21 22  2  0  0  0
 22 23  1  0  0  0
 23 24  2  0  0  0
 24 25  1  0  0  0
  4  6  2  0  0  0
  4  7  1  0  0  0
  4  5  1  0  0  0
 10 12  2  0  0  0
 10 11  1  0  0  0
 10 13  1  0  0  0
  1  3  1  0  0  0
  5  8  1  0  0  0
  7  9  1  0  0  0
 11 14  1  0  0  0
 13 15  1  0  0  0
M  END
> <minimizedAffinity>
-7.72835

$$$$
2E92_M0N_A_901


 25 26  0  0  0  0  0  0  0  0999 V2000
   29.2489   47.7891    5.6501 O   0  0  0  0  0  0  0  0  0  0  0  0
   28.6592   46.8198    6.5225 C   0  0  0  0  0  0  0  0  0  0  0  0
   28.5725   48.4250    5.3689 H   0  0  0  0  0  0  0  0  0  0  0  0
   29.9903   45.6262    7.0334 P   0  0  0  0  0  0  0  0  0  0  0  0
   29.6714   44.9656    8.3164 O   0  0  0  0  0  0  0  0  0  0  0  0
   30.1616   44.5797    5.8209 O   0  0  0  0  0  0  0  0  0  0  0  0
   31.3304   46.5131    7.0358 O   0  0  0  0  0  0  0  0  0  0  0  0
   28.8517   44.4556    8.2224 H   0  0  0  0  0  0  0  0  0  0  0  0
   31.4597   46.9060    6.1584 H   0  0  0  0  0  0  0  0  0  0  0  0
   27.3311   45.8583    5.6309 P   0  0  0  0  0  0  0  0  0  0  0  0
   27.7986   45.7710    4.0916 O   0  0  0  0  0  0  0  0  0  0  0  0
   26.0361   46.8085    5.6352 O   0  0  0  0  0  0  0  0  0  0  0  0
   27.0547   44.5451    6.2531 O   0  0  0  0  0  0  0  0  0  0  0  0
   27.9610   46.6649    3.7518 H   0  0  0  0  0  0  0  0  0  0  0  0
   26.7800   44.6751    7.1743 H   0  0  0  0  0  0  0  0  0  0  0  0
   28.1215   47.4915    7.7851 C   0  0  0  0  0  0  0  0  0  0  0  0
   29.1866   48.3482    8.4853 C   0  0  0  0  0  0  0  0  0  0  0  0
   29.8861   49.3677    8.0092 C   0  0  0  0  0  0  0  0  0  0  0  0
   30.6889   49.8379    8.9673 N   0  0  0  0  0  0  0  0  0  0  0  0
   30.5277   49.1250   10.0794 C   0  0  0  0  0  0  0  0  0  0  0  0
   31.1237   49.1812   11.3321 C   0  0  0  0  0  0  0  0  0  0  0  0
   30.7628   48.2658   12.3152 C   0  0  0  0  0  0  0  0  0  0  0  0
   29.8021   47.2915   12.0504 C   0  0  0  0  0  0  0  0  0  0  0  0
   29.1983   47.2212   10.8040 C   0  0  0  0  0  0  0  0  0  0  0  0
   29.5646   48.1444    9.8122 N   0  0  0  0  0  0  0  0  0  0  0  0
  1  2  1  0  0  0
  2 10  1  0  0  0
  2 16  1  0  0  0
  2  4  1  0  0  0
 16 17  1  0  0  0
 17 18  2  0  0  0
 17 25  1  0  0  0
 18 19  1  0  0  0
 19 20  2  0  0  0
 20 25  1  0  0  0
 20 21  1  0  0  0
 21 22  2  0  0  0
 22 23  1  0  0  0
 23 24  2  0  0  0
 24 25  1  0  0  0
  4  6  2  0  0  0
  4  7  1  0  0  0
  4  5  1  0  0  0
 10 12  2  0  0  0
 10 11  1  0  0  0
 10 13  1  0  0  0
  1  3  1  0  0  0
  5  8  1  0  0  0
  7  9  1  0  0  0
 11 14  1  0  0  0
 13 15  1  0  0  0
M  END
> <minimizedAffinity>
-7.60863

$$$$
2E92_M0N_A_901


 25 26  0  0  0  0  0  0  0  0999 V2000
   30.5265   46.8762    8.7956 O   0  0  0  0  0  0  0  0  0  0  0  0
   29.6473   47.3389    7.7653 C   0  0  0  0  0  0  0  0  0  0  0  0
   31.4089   47.2564    8.6624 H   0  0  0  0  0  0  0  0  0  0  0  0
   27.9733   46.5858    8.0621 P   0  0  0  0  0  0  0  0  0  0  0  0
   27.6234   46.5755    9.4979 O   0  0  0  0  0  0  0  0  0  0  0  0
   26.9253   47.4258    7.1728 O   0  0  0  0  0  0  0  0  0  0  0  0
   28.0681   45.1379    7.3713 O   0  0  0  0  0  0  0  0  0  0  0  0
   27.5890   47.4867    9.8288 H   0  0  0  0  0  0  0  0  0  0  0  0
   28.3011   45.2409    6.4353 H   0  0  0  0  0  0  0  0  0  0  0  0
   30.2468   46.7746    6.0905 P   0  0  0  0  0  0  0  0  0  0  0  0
   30.9806   45.3606    6.3306 O   0  0  0  0  0  0  0  0  0  0  0  0
   31.4124   47.8017    5.6826 O   0  0  0  0  0  0  0  0  0  0  0  0
   29.1696   46.7312    5.0777 O   0  0  0  0  0  0  0  0  0  0  0  0
   31.6712   45.4649    7.0037 H   0  0  0  0  0  0  0  0  0  0  0  0
   28.7755   47.6128    4.9868 H   0  0  0  0  0  0  0  0  0  0  0  0
   29.4967   48.8579    7.8311 C   0  0  0  0  0  0  0  0  0  0  0  0
   30.1139   49.4476    9.1077 C   0  0  0  0  0  0  0  0  0  0  0  0
   29.6097   49.5049   10.3316 C   0  0  0  0  0  0  0  0  0  0  0  0
   30.4946   50.0845   11.1469 N   0  0  0  0  0  0  0  0  0  0  0  0
   31.5853   50.4195   10.4619 C   0  0  0  0  0  0  0  0  0  0  0  0
   32.7670   51.0546   10.8192 C   0  0  0  0  0  0  0  0  0  0  0  0
   33.7425   51.2995    9.8584 C   0  0  0  0  0  0  0  0  0  0  0  0
   33.5412   50.9078    8.5361 C   0  0  0  0  0  0  0  0  0  0  0  0
   32.3659   50.2734    8.1628 C   0  0  0  0  0  0  0  0  0  0  0  0
   31.3816   50.0284    9.1330 N   0  0  0  0  0  0  0  0  0  0  0  0
  1  2  1  0  0  0
  2 10  1  0  0  0
  2 16  1  0  0  0
  2  4  1  0  0  0
 16 17  1  0  0  0
 17 18  2  0  0  0
 17 25  1  0  0  0
 18 19  1  0  0  0
 19 20  2  0  0  0
 20 25  1  0  0  0
 20 21  1  0  0  0
 21 22  2  0  0  0
 22 23  1  0  0  0
 23 24  2  0  0  0
 24 25  1  0  0  0
  4  6  2  0  0  0
  4  7  1  0  0  0
  4  5  1  0  0  0
 10 12  2  0  0  0
 10 11  1  0  0  0
 10 13  1  0  0  0
  1  3  1  0  0  0
  5  8  1  0  0  0
  7  9  1  0  0  0
 11 14  1  0  0  0
 13 15  1  0  0  0
M  END
> <minimizedAffinity>
-7.41606

$$$$
