4UYF_73B_A_1191


 33 36  0  0  0  0  0  0  0  0999 V2000
   20.0519   11.9168  -14.5046 C   0  0  0  0  0  0  0  0  0  0  0  0
   19.8262   12.7750  -13.2561 C   0  0  0  0  0  0  0  0  0  0  0  0
   18.5073   12.3785  -12.5603 C   0  0  0  0  0  0  0  0  0  0  0  0
   18.6035   12.5026  -11.0516 C   0  0  0  0  0  0  0  0  0  0  0  0
   19.7937   11.6797  -10.6244 C   0  0  0  0  0  0  0  0  0  0  0  0
   19.7047   10.7554   -9.5683 C   0  0  0  0  0  0  0  0  0  0  0  0
   20.7944    9.9566   -9.1844 C   0  0  0  0  0  0  0  0  0  0  0  0
   21.9968   10.0971   -9.8789 C   0  0  0  0  0  0  0  0  0  0  0  0
   22.1024   10.9903  -10.9423 C   0  0  0  0  0  0  0  0  0  0  0  0
   21.0055   11.7736  -11.3035 C   0  0  0  0  0  0  0  0  0  0  0  0
   21.0262   12.6970  -12.3811 N   0  0  0  0  0  0  0  0  0  0  0  0
   22.0294   13.5397  -12.6845 C   0  0  0  0  0  0  0  0  0  0  0  0
   23.2018   13.6888  -11.7564 C   0  0  0  0  0  0  0  0  0  0  0  0
   21.9699   14.2080  -13.7138 O   0  0  0  0  0  0  0  0  0  0  0  0
   20.7021    8.9593   -8.0549 C   0  0  0  0  0  0  0  0  0  0  0  0
   21.7637    8.0810   -7.7860 C   0  0  0  0  0  0  0  0  0  0  0  0
   21.6595    7.1160   -6.7827 C   0  0  0  0  0  0  0  0  0  0  0  0
   20.4998    7.0169   -6.0171 C   0  0  0  0  0  0  0  0  0  0  0  0
   19.4498    7.8958   -6.2592 C   0  0  0  0  0  0  0  0  0  0  0  0
   19.5519    8.8630   -7.2603 C   0  0  0  0  0  0  0  0  0  0  0  0
   20.3678    5.9856   -4.9265 C   0  0  0  0  0  0  0  0  0  0  0  0
   20.8385    4.8662   -5.0537 O   0  0  0  0  0  0  0  0  0  0  0  0
   19.7062    6.3722   -3.8456 O   0  0  0  0  0  0  0  0  0  0  0  0
   19.3625    7.2423   -3.7929 H   0  0  0  0  0  0  0  0  0  0  0  0
   17.3845   12.0518  -10.4065 N   0  0  0  0  0  0  0  0  0  0  0  0
   17.1318   12.4742   -9.5539 H   0  0  0  0  0  0  0  0  0  0  0  0
   16.5498   11.0617  -10.9143 C   0  0  0  0  0  0  0  0  0  0  0  0
   15.5488   11.3168  -11.8550 C   0  0  0  0  0  0  0  0  0  0  0  0
   14.7407   10.2754  -12.3084 C   0  0  0  0  0  0  0  0  0  0  0  0
   14.9415    8.9943  -11.8110 C   0  0  0  0  0  0  0  0  0  0  0  0
   13.9495    7.6716  -12.3516 Cl  0  0  0  0  0  0  0  0  0  0  0  0
   15.9319    8.7384  -10.8778 C   0  0  0  0  0  0  0  0  0  0  0  0
   16.7385    9.7729  -10.4265 C   0  0  0  0  0  0  0  0  0  0  0  0
 31 30  1  0  0  0
 29 30  2  0  0  0
 29 28  1  0  0  0
 30 32  1  0  0  0
 28 27  2  0  0  0
 32 33  2  0  0  0
 27 33  1  0  0  0
 27 25  1  0  0  0
 25  4  1  0  0  0
  4  3  1  0  0  0
  4  5  1  0  0  0
  3  2  1  0  0  0
  2  1  1  0  0  0
  2 11  1  0  0  0
  5  6  2  0  0  0
  5 10  1  0  0  0
  6  7  1  0  0  0
 11 10  1  0  0  0
 11 12  1  0  0  0
 14 12  2  0  0  0
 10  9  2  0  0  0
 12 13  1  0  0  0
 20 19  2  0  0  0
 20 15  1  0  0  0
  7 15  1  0  0  0
  7  8  2  0  0  0
 19 18  1  0  0  0
 15 16  2  0  0  0
  9  8  1  0  0  0
 22 21  2  0  0  0
 18 21  1  0  0  0
 18 17  2  0  0  0
 16 17  1  0  0  0
 21 23  1  0  0  0
 25 26  1  0  0  0
 23 24  1  0  0  0
M  END
> <minimizedAffinity>
-10.53013

$$$$
4UYF_73B_A_1191


 33 36  0  0  0  0  0  0  0  0999 V2000
   22.2313    7.9072  -10.6719 C   0  0  0  0  0  0  0  0  0  0  0  0
   21.9726    9.2080   -9.9056 C   0  0  0  0  0  0  0  0  0  0  0  0
   21.8843   10.4003  -10.8812 C   0  0  0  0  0  0  0  0  0  0  0  0
   20.8828   11.4400  -10.4155 C   0  0  0  0  0  0  0  0  0  0  0  0
   19.5740   10.7185  -10.2086 C   0  0  0  0  0  0  0  0  0  0  0  0
   18.3715   11.2139  -10.7437 C   0  0  0  0  0  0  0  0  0  0  0  0
   17.1524   10.5333  -10.5903 C   0  0  0  0  0  0  0  0  0  0  0  0
   17.1484    9.3318   -9.8803 C   0  0  0  0  0  0  0  0  0  0  0  0
   18.3306    8.8106   -9.3599 C   0  0  0  0  0  0  0  0  0  0  0  0
   19.5288    9.5065   -9.5249 C   0  0  0  0  0  0  0  0  0  0  0  0
   20.7770    9.0389   -9.0375 N   0  0  0  0  0  0  0  0  0  0  0  0
   20.9974    8.4680   -7.8400 C   0  0  0  0  0  0  0  0  0  0  0  0
   19.9074    8.4280   -6.8064 C   0  0  0  0  0  0  0  0  0  0  0  0
   22.1051    8.0014   -7.5851 O   0  0  0  0  0  0  0  0  0  0  0  0
   15.8600   11.0585  -11.1673 C   0  0  0  0  0  0  0  0  0  0  0  0
   15.8486   11.7452  -12.3916 C   0  0  0  0  0  0  0  0  0  0  0  0
   14.6662   12.2862  -12.8994 C   0  0  0  0  0  0  0  0  0  0  0  0
   13.4680   12.1407  -12.2035 C   0  0  0  0  0  0  0  0  0  0  0  0
   13.4625   11.4433  -11.0005 C   0  0  0  0  0  0  0  0  0  0  0  0
   14.6428   10.8995  -10.4913 C   0  0  0  0  0  0  0  0  0  0  0  0
   12.1796   12.7130  -12.7355 C   0  0  0  0  0  0  0  0  0  0  0  0
   12.1723   13.7168  -13.4304 O   0  0  0  0  0  0  0  0  0  0  0  0
   11.0763   12.0654  -12.3905 O   0  0  0  0  0  0  0  0  0  0  0  0
   11.1313   11.2985  -11.8550 H   0  0  0  0  0  0  0  0  0  0  0  0
   20.7519   12.5156  -11.3803 N   0  0  0  0  0  0  0  0  0  0  0  0
   20.6215   12.2728  -12.3254 H   0  0  0  0  0  0  0  0  0  0  0  0
   20.7988   13.8677  -11.0569 C   0  0  0  0  0  0  0  0  0  0  0  0
   21.9498   14.6466  -11.2000 C   0  0  0  0  0  0  0  0  0  0  0  0
   21.9255   15.9935  -10.8419 C   0  0  0  0  0  0  0  0  0  0  0  0
   20.7518   16.5416  -10.3409 C   0  0  0  0  0  0  0  0  0  0  0  0
   20.6863   18.2179   -9.8806 Cl  0  0  0  0  0  0  0  0  0  0  0  0
   19.6097   15.7722  -10.1967 C   0  0  0  0  0  0  0  0  0  0  0  0
   19.6311   14.4320  -10.5542 C   0  0  0  0  0  0  0  0  0  0  0  0
 31 30  1  0  0  0
 29 30  2  0  0  0
 29 28  1  0  0  0
 30 32  1  0  0  0
 28 27  2  0  0  0
 32 33  2  0  0  0
 27 33  1  0  0  0
 27 25  1  0  0  0
 25  4  1  0  0  0
  4  3  1  0  0  0
  4  5  1  0  0  0
  3  2  1  0  0  0
  2  1  1  0  0  0
  2 11  1  0  0  0
  5  6  2  0  0  0
  5 10  1  0  0  0
  6  7  1  0  0  0
 11 10  1  0  0  0
 11 12  1  0  0  0
 14 12  2  0  0  0
 10  9  2  0  0  0
 12 13  1  0  0  0
 20 19  2  0  0  0
 20 15  1  0  0  0
  7 15  1  0  0  0
  7  8  2  0  0  0
 19 18  1  0  0  0
 15 16  2  0  0  0
  9  8  1  0  0  0
 22 21  2  0  0  0
 18 21  1  0  0  0
 18 17  2  0  0  0
 16 17  1  0  0  0
 21 23  1  0  0  0
 25 26  1  0  0  0
 23 24  1  0  0  0
M  END
> <minimizedAffinity>
-10.31520

$$$$
4UYF_73B_A_1191


 33 36  0  0  0  0  0  0  0  0999 V2000
   18.5120   13.0855  -14.8854 C   0  0  0  0  0  0  0  0  0  0  0  0
   17.6795   13.3476  -13.6266 C   0  0  0  0  0  0  0  0  0  0  0  0
   16.8199   12.1135  -13.2819 C   0  0  0  0  0  0  0  0  0  0  0  0
   16.6635   11.9329  -11.7839 C   0  0  0  0  0  0  0  0  0  0  0  0
   18.0561   11.8914  -11.2050 C   0  0  0  0  0  0  0  0  0  0  0  0
   18.4457   10.8840  -10.3044 C   0  0  0  0  0  0  0  0  0  0  0  0
   19.7494   10.8121   -9.7865 C   0  0  0  0  0  0  0  0  0  0  0  0
   20.6751   11.7780  -10.1841 C   0  0  0  0  0  0  0  0  0  0  0  0
   20.3183   12.7723  -11.0917 C   0  0  0  0  0  0  0  0  0  0  0  0
   19.0162   12.8229  -11.5909 C   0  0  0  0  0  0  0  0  0  0  0  0
   18.5760   13.7943  -12.5273 N   0  0  0  0  0  0  0  0  0  0  0  0
   18.8741   15.1056  -12.5094 C   0  0  0  0  0  0  0  0  0  0  0  0
   19.6040   15.7018  -11.3390 C   0  0  0  0  0  0  0  0  0  0  0  0
   18.5229   15.8203  -13.4451 O   0  0  0  0  0  0  0  0  0  0  0  0
   20.1737    9.7297   -8.8236 C   0  0  0  0  0  0  0  0  0  0  0  0
   19.5210    9.5712   -7.5909 C   0  0  0  0  0  0  0  0  0  0  0  0
   19.9489    8.6123   -6.6710 C   0  0  0  0  0  0  0  0  0  0  0  0
   21.0274    7.7820   -6.9677 C   0  0  0  0  0  0  0  0  0  0  0  0
   21.6681    7.9144   -8.1948 C   0  0  0  0  0  0  0  0  0  0  0  0
   21.2413    8.8708   -9.1173 C   0  0  0  0  0  0  0  0  0  0  0  0
   21.5030    6.7376   -5.9912 C   0  0  0  0  0  0  0  0  0  0  0  0
   22.4125    5.9740   -6.2744 O   0  0  0  0  0  0  0  0  0  0  0  0
   20.8657    6.7027   -4.8300 O   0  0  0  0  0  0  0  0  0  0  0  0
   20.1731    7.3096   -4.6572 H   0  0  0  0  0  0  0  0  0  0  0  0
   15.9206   10.7261  -11.4728 N   0  0  0  0  0  0  0  0  0  0  0  0
   16.3577    9.8602  -11.6417 H   0  0  0  0  0  0  0  0  0  0  0  0
   14.6310   10.7128  -10.9515 C   0  0  0  0  0  0  0  0  0  0  0  0
   13.6335   11.6008  -11.3619 C   0  0  0  0  0  0  0  0  0  0  0  0
   12.3666   11.5369  -10.7839 C   0  0  0  0  0  0  0  0  0  0  0  0
   12.1165   10.5891   -9.8000 C   0  0  0  0  0  0  0  0  0  0  0  0
   10.5484   10.4831   -9.0544 Cl  0  0  0  0  0  0  0  0  0  0  0  0
   13.1032    9.7083   -9.3902 C   0  0  0  0  0  0  0  0  0  0  0  0
   14.3642    9.7690   -9.9654 C   0  0  0  0  0  0  0  0  0  0  0  0
 31 30  1  0  0  0
 29 30  2  0  0  0
 29 28  1  0  0  0
 30 32  1  0  0  0
 28 27  2  0  0  0
 32 33  2  0  0  0
 27 33  1  0  0  0
 27 25  1  0  0  0
 25  4  1  0  0  0
  4  3  1  0  0  0
  4  5  1  0  0  0
  3  2  1  0  0  0
  2  1  1  0  0  0
  2 11  1  0  0  0
  5  6  2  0  0  0
  5 10  1  0  0  0
  6  7  1  0  0  0
 11 10  1  0  0  0
 11 12  1  0  0  0
 14 12  2  0  0  0
 10  9  2  0  0  0
 12 13  1  0  0  0
 20 19  2  0  0  0
 20 15  1  0  0  0
  7 15  1  0  0  0
  7  8  2  0  0  0
 19 18  1  0  0  0
 15 16  2  0  0  0
  9  8  1  0  0  0
 22 21  2  0  0  0
 18 21  1  0  0  0
 18 17  2  0  0  0
 16 17  1  0  0  0
 21 23  1  0  0  0
 25 26  1  0  0  0
 23 24  1  0  0  0
M  END
> <minimizedAffinity>
-9.73986

$$$$
4UYF_73B_A_1191


 33 36  0  0  0  0  0  0  0  0999 V2000
   22.2330    7.7756  -10.4669 C   0  0  0  0  0  0  0  0  0  0  0  0
   21.9976    9.1286   -9.7886 C   0  0  0  0  0  0  0  0  0  0  0  0
   22.0269   10.2665  -10.8303 C   0  0  0  0  0  0  0  0  0  0  0  0
   21.0548   11.3778  -10.4826 C   0  0  0  0  0  0  0  0  0  0  0  0
   19.7010   10.7328  -10.3167 C   0  0  0  0  0  0  0  0  0  0  0  0
   18.5584   11.2542  -10.9493 C   0  0  0  0  0  0  0  0  0  0  0  0
   17.2991   10.6427  -10.8335 C   0  0  0  0  0  0  0  0  0  0  0  0
   17.1927    9.4849  -10.0615 C   0  0  0  0  0  0  0  0  0  0  0  0
   18.3146    8.9380   -9.4434 C   0  0  0  0  0  0  0  0  0  0  0  0
   19.5544    9.5651   -9.5728 C   0  0  0  0  0  0  0  0  0  0  0  0
   20.7468    9.0665   -8.9865 N   0  0  0  0  0  0  0  0  0  0  0  0
   20.8683    8.5545   -7.7489 C   0  0  0  0  0  0  0  0  0  0  0  0
   19.7198    8.6255   -6.7823 C   0  0  0  0  0  0  0  0  0  0  0  0
   21.9341    8.0505   -7.4028 O   0  0  0  0  0  0  0  0  0  0  0  0
   16.0708   11.1957  -11.5148 C   0  0  0  0  0  0  0  0  0  0  0  0
   16.1893   12.0583  -12.6159 C   0  0  0  0  0  0  0  0  0  0  0  0
   15.0588   12.6211  -13.2110 C   0  0  0  0  0  0  0  0  0  0  0  0
   13.7860   12.3234  -12.7292 C   0  0  0  0  0  0  0  0  0  0  0  0
   13.6544   11.4527  -11.6529 C   0  0  0  0  0  0  0  0  0  0  0  0
   14.7827   10.8870  -11.0572 C   0  0  0  0  0  0  0  0  0  0  0  0
   12.5523   12.9163  -13.3592 C   0  0  0  0  0  0  0  0  0  0  0  0
   12.5511   13.2854  -14.5230 O   0  0  0  0  0  0  0  0  0  0  0  0
   11.4935   13.0160  -12.5688 O   0  0  0  0  0  0  0  0  0  0  0  0
   11.5417   12.7190  -11.6815 H   0  0  0  0  0  0  0  0  0  0  0  0
   21.0351   12.4021  -11.5099 N   0  0  0  0  0  0  0  0  0  0  0  0
   20.2832   12.4020  -12.1455 H   0  0  0  0  0  0  0  0  0  0  0  0
   22.0094   13.3842  -11.6555 C   0  0  0  0  0  0  0  0  0  0  0  0
   21.9762   14.5993  -10.9666 C   0  0  0  0  0  0  0  0  0  0  0  0
   22.9814   15.5424  -11.1740 C   0  0  0  0  0  0  0  0  0  0  0  0
   24.0032   15.2595  -12.0712 C   0  0  0  0  0  0  0  0  0  0  0  0
   25.2720   16.4145  -12.3574 Cl  0  0  0  0  0  0  0  0  0  0  0  0
   24.0384   14.0567  -12.7563 C   0  0  0  0  0  0  0  0  0  0  0  0
   23.0400   13.1158  -12.5501 C   0  0  0  0  0  0  0  0  0  0  0  0
 31 30  1  0  0  0
 29 30  2  0  0  0
 29 28  1  0  0  0
 30 32  1  0  0  0
 28 27  2  0  0  0
 32 33  2  0  0  0
 27 33  1  0  0  0
 27 25  1  0  0  0
 25  4  1  0  0  0
  4  3  1  0  0  0
  4  5  1  0  0  0
  3  2  1  0  0  0
  2  1  1  0  0  0
  2 11  1  0  0  0
  5  6  2  0  0  0
  5 10  1  0  0  0
  6  7  1  0  0  0
 11 10  1  0  0  0
 11 12  1  0  0  0
 14 12  2  0  0  0
 10  9  2  0  0  0
 12 13  1  0  0  0
 20 19  2  0  0  0
 20 15  1  0  0  0
  7 15  1  0  0  0
  7  8  2  0  0  0
 19 18  1  0  0  0
 15 16  2  0  0  0
  9  8  1  0  0  0
 22 21  2  0  0  0
 18 21  1  0  0  0
 18 17  2  0  0  0
 16 17  1  0  0  0
 21 23  1  0  0  0
 25 26  1  0  0  0
 23 24  1  0  0  0
M  END
> <minimizedAffinity>
-9.71844

$$$$
4UYF_73B_A_1191


 33 36  0  0  0  0  0  0  0  0999 V2000
   22.1070    7.4641  -10.5516 C   0  0  0  0  0  0  0  0  0  0  0  0
   22.0515    8.9050  -10.0351 C   0  0  0  0  0  0  0  0  0  0  0  0
   22.0770    9.9015  -11.2130 C   0  0  0  0  0  0  0  0  0  0  0  0
   21.2391   11.1339  -10.9303 C   0  0  0  0  0  0  0  0  0  0  0  0
   19.8579   10.6454  -10.5700 C   0  0  0  0  0  0  0  0  0  0  0  0
   18.7081   11.1933  -11.1661 C   0  0  0  0  0  0  0  0  0  0  0  0
   17.4187   10.7227  -10.8674 C   0  0  0  0  0  0  0  0  0  0  0  0
   17.2895    9.6816   -9.9471 C   0  0  0  0  0  0  0  0  0  0  0  0
   18.4152    9.1087   -9.3603 C   0  0  0  0  0  0  0  0  0  0  0  0
   19.6853    9.5948   -9.6727 C   0  0  0  0  0  0  0  0  0  0  0  0
   20.8820    9.0591   -9.1295 N   0  0  0  0  0  0  0  0  0  0  0  0
   21.0773    8.6904   -7.8510 C   0  0  0  0  0  0  0  0  0  0  0  0
   20.0361    8.9860   -6.8086 C   0  0  0  0  0  0  0  0  0  0  0  0
   22.1251    8.1325   -7.5339 O   0  0  0  0  0  0  0  0  0  0  0  0
   16.1819   11.3042  -11.5085 C   0  0  0  0  0  0  0  0  0  0  0  0
   14.9107   11.0586  -10.9659 C   0  0  0  0  0  0  0  0  0  0  0  0
   13.7592   11.5424  -11.5894 C   0  0  0  0  0  0  0  0  0  0  0  0
   13.8529   12.2936  -12.7589 C   0  0  0  0  0  0  0  0  0  0  0  0
   15.1080   12.5624  -13.2939 C   0  0  0  0  0  0  0  0  0  0  0  0
   16.2611   12.0817  -12.6717 C   0  0  0  0  0  0  0  0  0  0  0  0
   12.6233   12.8291  -13.4458 C   0  0  0  0  0  0  0  0  0  0  0  0
   11.5038   12.5611  -13.0388 O   0  0  0  0  0  0  0  0  0  0  0  0
   12.8425   13.5878  -14.5097 O   0  0  0  0  0  0  0  0  0  0  0  0
   13.7202   13.7665  -14.7848 H   0  0  0  0  0  0  0  0  0  0  0  0
   21.2078   12.0245  -12.0752 N   0  0  0  0  0  0  0  0  0  0  0  0
   20.8167   12.9195  -11.9516 H   0  0  0  0  0  0  0  0  0  0  0  0
   21.6943   11.6961  -13.3364 C   0  0  0  0  0  0  0  0  0  0  0  0
   22.9758   12.0413  -13.7730 C   0  0  0  0  0  0  0  0  0  0  0  0
   23.3899   11.6899  -15.0568 C   0  0  0  0  0  0  0  0  0  0  0  0
   22.5148   11.0025  -15.8879 C   0  0  0  0  0  0  0  0  0  0  0  0
   22.9966   10.5511  -17.4973 Cl  0  0  0  0  0  0  0  0  0  0  0  0
   21.2437   10.6599  -15.4587 C   0  0  0  0  0  0  0  0  0  0  0  0
   20.8302   11.0070  -14.1808 C   0  0  0  0  0  0  0  0  0  0  0  0
 31 30  1  0  0  0
 29 30  2  0  0  0
 29 28  1  0  0  0
 30 32  1  0  0  0
 28 27  2  0  0  0
 32 33  2  0  0  0
 27 33  1  0  0  0
 27 25  1  0  0  0
 25  4  1  0  0  0
  4  3  1  0  0  0
  4  5  1  0  0  0
  3  2  1  0  0  0
  2  1  1  0  0  0
  2 11  1  0  0  0
  5  6  2  0  0  0
  5 10  1  0  0  0
  6  7  1  0  0  0
 11 10  1  0  0  0
 11 12  1  0  0  0
 14 12  2  0  0  0
 10  9  2  0  0  0
 12 13  1  0  0  0
 20 19  2  0  0  0
 20 15  1  0  0  0
  7 15  1  0  0  0
  7  8  2  0  0  0
 19 18  1  0  0  0
 15 16  2  0  0  0
  9  8  1  0  0  0
 22 21  2  0  0  0
 18 21  1  0  0  0
 18 17  2  0  0  0
 16 17  1  0  0  0
 21 23  1  0  0  0
 25 26  1  0  0  0
 23 24  1  0  0  0
M  END
> <minimizedAffinity>
-9.57077

$$$$
4UYF_73B_A_1191


 33 36  0  0  0  0  0  0  0  0999 V2000
   21.0453   10.6794  -15.5934 C   0  0  0  0  0  0  0  0  0  0  0  0
   21.7427   11.5718  -14.5622 C   0  0  0  0  0  0  0  0  0  0  0  0
   20.7034   12.2506  -13.6456 C   0  0  0  0  0  0  0  0  0  0  0  0
   21.2199   12.4156  -12.2289 C   0  0  0  0  0  0  0  0  0  0  0  0
   21.6484   11.0465  -11.7618 C   0  0  0  0  0  0  0  0  0  0  0  0
   21.2412   10.5364  -10.5162 C   0  0  0  0  0  0  0  0  0  0  0  0
   21.6021    9.2493  -10.0849 C   0  0  0  0  0  0  0  0  0  0  0  0
   22.3916    8.4649  -10.9271 C   0  0  0  0  0  0  0  0  0  0  0  0
   22.7888    8.9404  -12.1745 C   0  0  0  0  0  0  0  0  0  0  0  0
   22.4181   10.2233  -12.5794 C   0  0  0  0  0  0  0  0  0  0  0  0
   22.7701   10.7773  -13.8377 N   0  0  0  0  0  0  0  0  0  0  0  0
   23.9665   10.6742  -14.4431 C   0  0  0  0  0  0  0  0  0  0  0  0
   25.1344   10.0681  -13.7172 C   0  0  0  0  0  0  0  0  0  0  0  0
   24.1070   11.1028  -15.5860 O   0  0  0  0  0  0  0  0  0  0  0  0
   21.1632    8.6954   -8.7509 C   0  0  0  0  0  0  0  0  0  0  0  0
   21.9222    7.7106   -8.0993 C   0  0  0  0  0  0  0  0  0  0  0  0
   21.4892    7.1510   -6.8959 C   0  0  0  0  0  0  0  0  0  0  0  0
   20.2976    7.5728   -6.3103 C   0  0  0  0  0  0  0  0  0  0  0  0
   19.5481    8.5637   -6.9350 C   0  0  0  0  0  0  0  0  0  0  0  0
   19.9795    9.1264   -8.1371 C   0  0  0  0  0  0  0  0  0  0  0  0
   19.8138    6.9854   -5.0097 C   0  0  0  0  0  0  0  0  0  0  0  0
   18.6587    6.6142   -4.8738 O   0  0  0  0  0  0  0  0  0  0  0  0
   20.7142    6.9138   -4.0402 O   0  0  0  0  0  0  0  0  0  0  0  0
   21.5898    7.2113   -4.1911 H   0  0  0  0  0  0  0  0  0  0  0  0
   20.2053   12.9820  -11.3602 N   0  0  0  0  0  0  0  0  0  0  0  0
   19.6651   12.3623  -10.8185 H   0  0  0  0  0  0  0  0  0  0  0  0
   19.9460   14.3436  -11.2428 C   0  0  0  0  0  0  0  0  0  0  0  0
   19.5041   15.1304  -12.3094 C   0  0  0  0  0  0  0  0  0  0  0  0
   19.2781   16.4928  -12.1200 C   0  0  0  0  0  0  0  0  0  0  0  0
   19.5018   17.0504  -10.8678 C   0  0  0  0  0  0  0  0  0  0  0  0
   19.2336   18.7475  -10.5962 Cl  0  0  0  0  0  0  0  0  0  0  0  0
   19.9408   16.2736   -9.8089 C   0  0  0  0  0  0  0  0  0  0  0  0
   20.1647   14.9172   -9.9947 C   0  0  0  0  0  0  0  0  0  0  0  0
 31 30  1  0  0  0
 29 30  2  0  0  0
 29 28  1  0  0  0
 30 32  1  0  0  0
 28 27  2  0  0  0
 32 33  2  0  0  0
 27 33  1  0  0  0
 27 25  1  0  0  0
 25  4  1  0  0  0
  4  3  1  0  0  0
  4  5  1  0  0  0
  3  2  1  0  0  0
  2  1  1  0  0  0
  2 11  1  0  0  0
  5  6  2  0  0  0
  5 10  1  0  0  0
  6  7  1  0  0  0
 11 10  1  0  0  0
 11 12  1  0  0  0
 14 12  2  0  0  0
 10  9  2  0  0  0
 12 13  1  0  0  0
 20 19  2  0  0  0
 20 15  1  0  0  0
  7 15  1  0  0  0
  7  8  2  0  0  0
 19 18  1  0  0  0
 15 16  2  0  0  0
  9  8  1  0  0  0
 22 21  2  0  0  0
 18 21  1  0  0  0
 18 17  2  0  0  0
 16 17  1  0  0  0
 21 23  1  0  0  0
 25 26  1  0  0  0
 23 24  1  0  0  0
M  END
> <minimizedAffinity>
-9.35159

$$$$
4UYF_73B_A_1191


 33 36  0  0  0  0  0  0  0  0999 V2000
   15.6186   11.9963  -14.8399 C   0  0  0  0  0  0  0  0  0  0  0  0
   15.5507   12.6027  -13.4350 C   0  0  0  0  0  0  0  0  0  0  0  0
   14.9715   11.5812  -12.4340 C   0  0  0  0  0  0  0  0  0  0  0  0
   15.6007   11.7152  -11.0604 C   0  0  0  0  0  0  0  0  0  0  0  0
   17.0928   11.6051  -11.2548 C   0  0  0  0  0  0  0  0  0  0  0  0
   17.8743   10.7486  -10.4590 C   0  0  0  0  0  0  0  0  0  0  0  0
   19.2584   10.6087  -10.6536 C   0  0  0  0  0  0  0  0  0  0  0  0
   19.8636   11.3506  -11.6690 C   0  0  0  0  0  0  0  0  0  0  0  0
   19.1064   12.1888  -12.4839 C   0  0  0  0  0  0  0  0  0  0  0  0
   17.7331   12.3113  -12.2695 C   0  0  0  0  0  0  0  0  0  0  0  0
   16.8892   13.1325  -13.0618 N   0  0  0  0  0  0  0  0  0  0  0  0
   17.1723   14.3723  -13.4993 C   0  0  0  0  0  0  0  0  0  0  0  0
   18.4061   15.0830  -13.0189 C   0  0  0  0  0  0  0  0  0  0  0  0
   16.4018   14.9325  -14.2753 O   0  0  0  0  0  0  0  0  0  0  0  0
   20.1006    9.6867   -9.8054 C   0  0  0  0  0  0  0  0  0  0  0  0
   21.0718    8.8605  -10.3926 C   0  0  0  0  0  0  0  0  0  0  0  0
   21.8105    7.9619   -9.6209 C   0  0  0  0  0  0  0  0  0  0  0  0
   21.6060    7.8793   -8.2453 C   0  0  0  0  0  0  0  0  0  0  0  0
   20.6623    8.7084   -7.6487 C   0  0  0  0  0  0  0  0  0  0  0  0
   19.9237    9.6092   -8.4174 C   0  0  0  0  0  0  0  0  0  0  0  0
   22.3952    6.9196   -7.3929 C   0  0  0  0  0  0  0  0  0  0  0  0
   21.8917    6.3718   -6.4249 O   0  0  0  0  0  0  0  0  0  0  0  0
   23.6544    6.7272   -7.7578 O   0  0  0  0  0  0  0  0  0  0  0  0
   23.9974    7.1701   -8.5089 H   0  0  0  0  0  0  0  0  0  0  0  0
   15.1050   10.6985  -10.1517 N   0  0  0  0  0  0  0  0  0  0  0  0
   15.2973   10.8056   -9.1921 H   0  0  0  0  0  0  0  0  0  0  0  0
   14.3758    9.5821  -10.5481 C   0  0  0  0  0  0  0  0  0  0  0  0
   14.9225    8.5443  -11.3071 C   0  0  0  0  0  0  0  0  0  0  0  0
   14.1261    7.4626  -11.6794 C   0  0  0  0  0  0  0  0  0  0  0  0
   12.7927    7.4361  -11.2918 C   0  0  0  0  0  0  0  0  0  0  0  0
   11.7687    6.1038  -11.7415 Cl  0  0  0  0  0  0  0  0  0  0  0  0
   12.2475    8.4636  -10.5405 C   0  0  0  0  0  0  0  0  0  0  0  0
   13.0387    9.5403  -10.1673 C   0  0  0  0  0  0  0  0  0  0  0  0
 31 30  1  0  0  0
 29 30  2  0  0  0
 29 28  1  0  0  0
 30 32  1  0  0  0
 28 27  2  0  0  0
 32 33  2  0  0  0
 27 33  1  0  0  0
 27 25  1  0  0  0
 25  4  1  0  0  0
  4  3  1  0  0  0
  4  5  1  0  0  0
  3  2  1  0  0  0
  2  1  1  0  0  0
  2 11  1  0  0  0
  5  6  2  0  0  0
  5 10  1  0  0  0
  6  7  1  0  0  0
 11 10  1  0  0  0
 11 12  1  0  0  0
 14 12  2  0  0  0
 10  9  2  0  0  0
 12 13  1  0  0  0
 20 19  2  0  0  0
 20 15  1  0  0  0
  7 15  1  0  0  0
  7  8  2  0  0  0
 19 18  1  0  0  0
 15 16  2  0  0  0
  9  8  1  0  0  0
 22 21  2  0  0  0
 18 21  1  0  0  0
 18 17  2  0  0  0
 16 17  1  0  0  0
 21 23  1  0  0  0
 25 26  1  0  0  0
 23 24  1  0  0  0
M  END
> <minimizedAffinity>
-9.29545

$$$$
4UYF_73B_A_1191


 33 36  0  0  0  0  0  0  0  0999 V2000
   21.4989   14.2384  -11.5687 C   0  0  0  0  0  0  0  0  0  0  0  0
   21.3047   12.7280  -11.7334 C   0  0  0  0  0  0  0  0  0  0  0  0
   20.8500   12.0943  -10.4020 C   0  0  0  0  0  0  0  0  0  0  0  0
   19.8931   10.9382  -10.6228 C   0  0  0  0  0  0  0  0  0  0  0  0
   18.7612   11.4682  -11.4679 C   0  0  0  0  0  0  0  0  0  0  0  0
   17.4178   11.2418  -11.1191 C   0  0  0  0  0  0  0  0  0  0  0  0
   16.3546   11.7606  -11.8763 C   0  0  0  0  0  0  0  0  0  0  0  0
   16.6551   12.5193  -13.0085 C   0  0  0  0  0  0  0  0  0  0  0  0
   17.9779   12.7750  -13.3614 C   0  0  0  0  0  0  0  0  0  0  0  0
   19.0165   12.2472  -12.5933 C   0  0  0  0  0  0  0  0  0  0  0  0
   20.3891   12.4709  -12.8767 N   0  0  0  0  0  0  0  0  0  0  0  0
   20.9610   12.4519  -14.0937 C   0  0  0  0  0  0  0  0  0  0  0  0
   20.1748   12.0073  -15.2947 C   0  0  0  0  0  0  0  0  0  0  0  0
   22.1401   12.7757  -14.2150 O   0  0  0  0  0  0  0  0  0  0  0  0
   14.9111   11.5246  -11.5029 C   0  0  0  0  0  0  0  0  0  0  0  0
   13.8735   12.0989  -12.2542 C   0  0  0  0  0  0  0  0  0  0  0  0
   12.5395   11.9345  -11.8775 C   0  0  0  0  0  0  0  0  0  0  0  0
   12.2120   11.1818  -10.7518 C   0  0  0  0  0  0  0  0  0  0  0  0
   13.2297   10.5895  -10.0121 C   0  0  0  0  0  0  0  0  0  0  0  0
   14.5643   10.7504  -10.3875 C   0  0  0  0  0  0  0  0  0  0  0  0
   10.7785   10.9881  -10.3298 C   0  0  0  0  0  0  0  0  0  0  0  0
   10.3159   11.5826   -9.3689 O   0  0  0  0  0  0  0  0  0  0  0  0
   10.0748   10.1331  -11.0573 O   0  0  0  0  0  0  0  0  0  0  0  0
   10.4729    9.6999  -11.7866 H   0  0  0  0  0  0  0  0  0  0  0  0
   19.4124   10.4033   -9.3627 N   0  0  0  0  0  0  0  0  0  0  0  0
   18.5598   10.7483   -9.0117 H   0  0  0  0  0  0  0  0  0  0  0  0
   20.0779    9.4348   -8.6183 C   0  0  0  0  0  0  0  0  0  0  0  0
   21.0671    8.6069   -9.1549 C   0  0  0  0  0  0  0  0  0  0  0  0
   21.6814    7.6482   -8.3507 C   0  0  0  0  0  0  0  0  0  0  0  0
   21.2942    7.5275   -7.0223 C   0  0  0  0  0  0  0  0  0  0  0  0
   22.0367    6.3399   -5.9907 Cl  0  0  0  0  0  0  0  0  0  0  0  0
   20.3134    8.3457   -6.4877 C   0  0  0  0  0  0  0  0  0  0  0  0
   19.7020    9.3016   -7.2858 C   0  0  0  0  0  0  0  0  0  0  0  0
 31 30  1  0  0  0
 29 30  2  0  0  0
 29 28  1  0  0  0
 30 32  1  0  0  0
 28 27  2  0  0  0
 32 33  2  0  0  0
 27 33  1  0  0  0
 27 25  1  0  0  0
 25  4  1  0  0  0
  4  3  1  0  0  0
  4  5  1  0  0  0
  3  2  1  0  0  0
  2  1  1  0  0  0
  2 11  1  0  0  0
  5  6  2  0  0  0
  5 10  1  0  0  0
  6  7  1  0  0  0
 11 10  1  0  0  0
 11 12  1  0  0  0
 14 12  2  0  0  0
 10  9  2  0  0  0
 12 13  1  0  0  0
 20 19  2  0  0  0
 20 15  1  0  0  0
  7 15  1  0  0  0
  7  8  2  0  0  0
 19 18  1  0  0  0
 15 16  2  0  0  0
  9  8  1  0  0  0
 22 21  2  0  0  0
 18 21  1  0  0  0
 18 17  2  0  0  0
 16 17  1  0  0  0
 21 23  1  0  0  0
 25 26  1  0  0  0
 23 24  1  0  0  0
M  END
> <minimizedAffinity>
-9.18909

$$$$
4UYF_73B_A_1191


 33 36  0  0  0  0  0  0  0  0999 V2000
   21.2706    8.5388   -8.0885 C   0  0  0  0  0  0  0  0  0  0  0  0
   20.4852    8.5691   -9.4032 C   0  0  0  0  0  0  0  0  0  0  0  0
   19.0557    9.0992   -9.1655 C   0  0  0  0  0  0  0  0  0  0  0  0
   18.5503    9.9123  -10.3420 C   0  0  0  0  0  0  0  0  0  0  0  0
   19.5719   10.9941  -10.5917 C   0  0  0  0  0  0  0  0  0  0  0  0
   19.1919   12.3390  -10.7485 C   0  0  0  0  0  0  0  0  0  0  0  0
   20.1353   13.3610  -10.9444 C   0  0  0  0  0  0  0  0  0  0  0  0
   21.4871   13.0166  -10.9858 C   0  0  0  0  0  0  0  0  0  0  0  0
   21.8887   11.6944  -10.8112 C   0  0  0  0  0  0  0  0  0  0  0  0
   20.9319   10.6971  -10.6192 C   0  0  0  0  0  0  0  0  0  0  0  0
   21.2576    9.3300  -10.4211 N   0  0  0  0  0  0  0  0  0  0  0  0
   22.1956    8.6335  -11.0873 C   0  0  0  0  0  0  0  0  0  0  0  0
   22.8961    9.2423  -12.2691 C   0  0  0  0  0  0  0  0  0  0  0  0
   22.4589    7.4847  -10.7400 O   0  0  0  0  0  0  0  0  0  0  0  0
   19.7325   14.8067  -11.1081 C   0  0  0  0  0  0  0  0  0  0  0  0
   19.1967   15.2683  -12.3208 C   0  0  0  0  0  0  0  0  0  0  0  0
   18.8801   16.6163  -12.4978 C   0  0  0  0  0  0  0  0  0  0  0  0
   19.0777   17.5290  -11.4640 C   0  0  0  0  0  0  0  0  0  0  0  0
   19.5871   17.0798  -10.2506 C   0  0  0  0  0  0  0  0  0  0  0  0
   19.9027   15.7323  -10.0699 C   0  0  0  0  0  0  0  0  0  0  0  0
   18.7388   18.9875  -11.6323 C   0  0  0  0  0  0  0  0  0  0  0  0
   18.8871   19.5520  -12.7046 O   0  0  0  0  0  0  0  0  0  0  0  0
   18.2879   19.6025  -10.5487 O   0  0  0  0  0  0  0  0  0  0  0  0
   18.1904   19.1275   -9.7469 H   0  0  0  0  0  0  0  0  0  0  0  0
   17.2382   10.4700  -10.0730 N   0  0  0  0  0  0  0  0  0  0  0  0
   17.1934   11.3589   -9.6522 H   0  0  0  0  0  0  0  0  0  0  0  0
   16.0393    9.8305  -10.3709 C   0  0  0  0  0  0  0  0  0  0  0  0
   14.8095   10.4927  -10.4038 C   0  0  0  0  0  0  0  0  0  0  0  0
   13.6464    9.7826  -10.6969 C   0  0  0  0  0  0  0  0  0  0  0  0
   13.7286    8.4191  -10.9480 C   0  0  0  0  0  0  0  0  0  0  0  0
   12.2972    7.5007  -11.3135 Cl  0  0  0  0  0  0  0  0  0  0  0  0
   14.9456    7.7596  -10.9150 C   0  0  0  0  0  0  0  0  0  0  0  0
   16.1047    8.4647  -10.6253 C   0  0  0  0  0  0  0  0  0  0  0  0
 31 30  1  0  0  0
 29 30  2  0  0  0
 29 28  1  0  0  0
 30 32  1  0  0  0
 28 27  2  0  0  0
 32 33  2  0  0  0
 27 33  1  0  0  0
 27 25  1  0  0  0
 25  4  1  0  0  0
  4  3  1  0  0  0
  4  5  1  0  0  0
  3  2  1  0  0  0
  2  1  1  0  0  0
  2 11  1  0  0  0
  5  6  2  0  0  0
  5 10  1  0  0  0
  6  7  1  0  0  0
 11 10  1  0  0  0
 11 12  1  0  0  0
 14 12  2  0  0  0
 10  9  2  0  0  0
 12 13  1  0  0  0
 20 19  2  0  0  0
 20 15  1  0  0  0
  7 15  1  0  0  0
  7  8  2  0  0  0
 19 18  1  0  0  0
 15 16  2  0  0  0
  9  8  1  0  0  0
 22 21  2  0  0  0
 18 21  1  0  0  0
 18 17  2  0  0  0
 16 17  1  0  0  0
 21 23  1  0  0  0
 25 26  1  0  0  0
 23 24  1  0  0  0
M  END
> <minimizedAffinity>
-8.83984

$$$$
4UYF_73B_A_1191


 33 36  0  0  0  0  0  0  0  0999 V2000
   16.1232    7.6509  -11.5582 C   0  0  0  0  0  0  0  0  0  0  0  0
   16.3103    8.4207  -10.2473 C   0  0  0  0  0  0  0  0  0  0  0  0
   17.7679    8.3014   -9.7551 C   0  0  0  0  0  0  0  0  0  0  0  0
   18.2376    9.5674   -9.0641 C   0  0  0  0  0  0  0  0  0  0  0  0
   18.0083   10.7006  -10.0335 C   0  0  0  0  0  0  0  0  0  0  0  0
   19.0160   11.6408  -10.3134 C   0  0  0  0  0  0  0  0  0  0  0  0
   18.8286   12.6787  -11.2412 C   0  0  0  0  0  0  0  0  0  0  0  0
   17.5991   12.7694  -11.8953 C   0  0  0  0  0  0  0  0  0  0  0  0
   16.5940   11.8369  -11.6505 C   0  0  0  0  0  0  0  0  0  0  0  0
   16.8043   10.8156  -10.7232 C   0  0  0  0  0  0  0  0  0  0  0  0
   15.8381    9.8196  -10.4257 N   0  0  0  0  0  0  0  0  0  0  0  0
   14.5179   10.0183  -10.2639 C   0  0  0  0  0  0  0  0  0  0  0  0
   13.9600   11.4131  -10.2237 C   0  0  0  0  0  0  0  0  0  0  0  0
   13.7718    9.0523  -10.1227 O   0  0  0  0  0  0  0  0  0  0  0  0
   19.9090   13.6872  -11.5488 C   0  0  0  0  0  0  0  0  0  0  0  0
   21.2417   13.4444  -11.1806 C   0  0  0  0  0  0  0  0  0  0  0  0
   22.2338   14.3999  -11.4074 C   0  0  0  0  0  0  0  0  0  0  0  0
   21.9196   15.6113  -12.0194 C   0  0  0  0  0  0  0  0  0  0  0  0
   20.6070   15.8544  -12.4089 C   0  0  0  0  0  0  0  0  0  0  0  0
   19.6133   14.9001  -12.1852 C   0  0  0  0  0  0  0  0  0  0  0  0
   22.9756   16.6548  -12.2776 C   0  0  0  0  0  0  0  0  0  0  0  0
   22.7942   17.5523  -13.0851 O   0  0  0  0  0  0  0  0  0  0  0  0
   24.0977   16.5217  -11.5856 O   0  0  0  0  0  0  0  0  0  0  0  0
   24.1915   15.8161  -10.9763 H   0  0  0  0  0  0  0  0  0  0  0  0
   19.6326    9.4707   -8.6773 N   0  0  0  0  0  0  0  0  0  0  0  0
   20.2741   10.0770   -9.1133 H   0  0  0  0  0  0  0  0  0  0  0  0
   20.1227    8.5772   -7.7305 C   0  0  0  0  0  0  0  0  0  0  0  0
   21.3873    7.9899   -7.8191 C   0  0  0  0  0  0  0  0  0  0  0  0
   21.8057    7.0916   -6.8387 C   0  0  0  0  0  0  0  0  0  0  0  0
   20.9515    6.7894   -5.7860 C   0  0  0  0  0  0  0  0  0  0  0  0
   21.4391    5.6702   -4.5468 Cl  0  0  0  0  0  0  0  0  0  0  0  0
   19.6972    7.3688   -5.6959 C   0  0  0  0  0  0  0  0  0  0  0  0
   19.2794    8.2643   -6.6696 C   0  0  0  0  0  0  0  0  0  0  0  0
 31 30  1  0  0  0
 29 30  2  0  0  0
 29 28  1  0  0  0
 30 32  1  0  0  0
 28 27  2  0  0  0
 32 33  2  0  0  0
 27 33  1  0  0  0
 27 25  1  0  0  0
 25  4  1  0  0  0
  4  3  1  0  0  0
  4  5  1  0  0  0
  3  2  1  0  0  0
  2  1  1  0  0  0
  2 11  1  0  0  0
  5  6  2  0  0  0
  5 10  1  0  0  0
  6  7  1  0  0  0
 11 10  1  0  0  0
 11 12  1  0  0  0
 14 12  2  0  0  0
 10  9  2  0  0  0
 12 13  1  0  0  0
 20 19  2  0  0  0
 20 15  1  0  0  0
  7 15  1  0  0  0
  7  8  2  0  0  0
 19 18  1  0  0  0
 15 16  2  0  0  0
  9  8  1  0  0  0
 22 21  2  0  0  0
 18 21  1  0  0  0
 18 17  2  0  0  0
 16 17  1  0  0  0
 21 23  1  0  0  0
 25 26  1  0  0  0
 23 24  1  0  0  0
M  END
> <minimizedAffinity>
-8.79258

$$$$
