2G5U_PCQ_A_240


 20 21  0  0  0  0  0  0  0  0999 V2000
   20.5139   40.6244   10.5942 Cl  0  0  0  0  0  0  0  0  0  0  0  0
   22.7696   45.1620   10.6490 Cl  0  0  0  0  0  0  0  0  0  0  0  0
   21.6427   42.8947   11.9971 O   0  0  0  0  0  0  0  0  0  0  0  0
   21.6520   42.9194    7.7903 C   0  0  0  0  0  0  0  0  0  0  0  0
   21.1117   41.8424    8.5023 C   0  0  0  0  0  0  0  0  0  0  0  0
   21.1066   41.8265    9.9014 C   0  0  0  0  0  0  0  0  0  0  0  0
   21.6427   42.8966   10.6247 C   0  0  0  0  0  0  0  0  0  0  0  0
   22.1795   43.9774    9.9257 C   0  0  0  0  0  0  0  0  0  0  0  0
   22.1843   43.9815    8.5274 C   0  0  0  0  0  0  0  0  0  0  0  0
   21.2815   42.1674   12.4646 H   0  0  0  0  0  0  0  0  0  0  0  0
   20.0978   40.9905    3.4765 Cl  0  0  0  0  0  0  0  0  0  0  0  0
   23.2420   44.9123    3.5152 Cl  0  0  0  0  0  0  0  0  0  0  0  0
   21.6702   42.9545    2.1986 O   0  0  0  0  0  0  0  0  0  0  0  0
   21.6584   42.9315    6.3852 C   0  0  0  0  0  0  0  0  0  0  0  0
   20.9114   41.9960    5.6549 C   0  0  0  0  0  0  0  0  0  0  0  0
   20.9102   42.0052    4.2546 C   0  0  0  0  0  0  0  0  0  0  0  0
   21.6684   42.9505    3.5668 C   0  0  0  0  0  0  0  0  0  0  0  0
   22.4237   43.8862    4.2702 C   0  0  0  0  0  0  0  0  0  0  0  0
   22.4129   43.8763    5.6713 C   0  0  0  0  0  0  0  0  0  0  0  0
   21.1614   42.3242    1.7276 H   0  0  0  0  0  0  0  0  0  0  0  0
  1  6  1  0  0  0
  2  8  1  0  0  0
  3  7  1  0  0  0
  4  5  2  0  0  0
  4  9  1  0  0  0
  4 14  1  0  0  0
  5  6  1  0  0  0
  6  7  2  0  0  0
  7  8  1  0  0  0
  8  9  2  0  0  0
 11 16  1  0  0  0
 12 18  1  0  0  0
 13 17  1  0  0  0
 14 15  2  0  0  0
 14 19  1  0  0  0
 15 16  1  0  0  0
 16 17  2  0  0  0
 17 18  1  0  0  0
 18 19  2  0  0  0
  3 10  1  0  0  0
 13 20  1  0  0  0
M  END
> <minimizedAffinity>
-8.45182

$$$$
2G5U_PCQ_A_240


 20 21  0  0  0  0  0  0  0  0999 V2000
   22.7682   45.1701   10.5942 Cl  0  0  0  0  0  0  0  0  0  0  0  0
   20.4363   40.6709   10.6131 Cl  0  0  0  0  0  0  0  0  0  0  0  0
   21.5969   42.9102   11.9791 O   0  0  0  0  0  0  0  0  0  0  0  0
   21.6006   42.9124    7.7723 C   0  0  0  0  0  0  0  0  0  0  0  0
   22.1566   43.9756    8.4928 C   0  0  0  0  0  0  0  0  0  0  0  0
   22.1575   43.9825    9.8920 C   0  0  0  0  0  0  0  0  0  0  0  0
   21.6012   42.9171   10.6067 C   0  0  0  0  0  0  0  0  0  0  0  0
   21.0485   41.8499    9.8993 C   0  0  0  0  0  0  0  0  0  0  0  0
   21.0482   41.8548    8.5009 C   0  0  0  0  0  0  0  0  0  0  0  0
   21.9688   43.6284   12.4524 H   0  0  0  0  0  0  0  0  0  0  0  0
   19.9953   40.9569    3.4892 Cl  0  0  0  0  0  0  0  0  0  0  0  0
   23.1895   44.8382    3.4661 Cl  0  0  0  0  0  0  0  0  0  0  0  0
   21.5848   42.8866    2.1805 O   0  0  0  0  0  0  0  0  0  0  0  0
   21.5984   42.9093    6.3671 C   0  0  0  0  0  0  0  0  0  0  0  0
   20.8350   41.9755    5.6516 C   0  0  0  0  0  0  0  0  0  0  0  0
   20.8254   41.9694    4.2513 C   0  0  0  0  0  0  0  0  0  0  0  0
   21.5914   42.8975    3.5487 C   0  0  0  0  0  0  0  0  0  0  0  0
   22.3629   43.8310    4.2372 C   0  0  0  0  0  0  0  0  0  0  0  0
   22.3605   43.8364    5.6383 C   0  0  0  0  0  0  0  0  0  0  0  0
   21.0651   42.2578    1.7195 H   0  0  0  0  0  0  0  0  0  0  0  0
  1  6  1  0  0  0
  2  8  1  0  0  0
  3  7  1  0  0  0
  4  5  2  0  0  0
  4  9  1  0  0  0
  4 14  1  0  0  0
  5  6  1  0  0  0
  6  7  2  0  0  0
  7  8  1  0  0  0
  8  9  2  0  0  0
 11 16  1  0  0  0
 12 18  1  0  0  0
 13 17  1  0  0  0
 14 15  2  0  0  0
 14 19  1  0  0  0
 15 16  1  0  0  0
 16 17  2  0  0  0
 17 18  1  0  0  0
 18 19  2  0  0  0
  3 10  1  0  0  0
 13 20  1  0  0  0
M  END
> <minimizedAffinity>
-8.44821

$$$$
2G5U_PCQ_A_240


 20 21  0  0  0  0  0  0  0  0999 V2000
   22.7681   45.1641   10.5850 Cl  0  0  0  0  0  0  0  0  0  0  0  0
   20.4377   40.6641   10.6160 Cl  0  0  0  0  0  0  0  0  0  0  0  0
   21.5999   42.9063   11.9760 O   0  0  0  0  0  0  0  0  0  0  0  0
   21.5963   42.9010    7.7691 C   0  0  0  0  0  0  0  0  0  0  0  0
   22.1532   43.9657    8.4868 C   0  0  0  0  0  0  0  0  0  0  0  0
   22.1566   43.9750    9.8860 C   0  0  0  0  0  0  0  0  0  0  0  0
   21.6019   42.9107   10.6036 C   0  0  0  0  0  0  0  0  0  0  0  0
   21.0483   41.8421    9.8990 C   0  0  0  0  0  0  0  0  0  0  0  0
   21.0455   41.8445    8.5006 C   0  0  0  0  0  0  0  0  0  0  0  0
   21.9724   43.6254   12.4473 H   0  0  0  0  0  0  0  0  0  0  0  0
   23.1827   44.8283    3.4663 Cl  0  0  0  0  0  0  0  0  0  0  0  0
   19.9854   40.9495    3.4827 Cl  0  0  0  0  0  0  0  0  0  0  0  0
   21.5855   42.8918    2.1773 O   0  0  0  0  0  0  0  0  0  0  0  0
   21.5917   42.8954    6.3639 C   0  0  0  0  0  0  0  0  0  0  0  0
   22.3525   43.8240    5.6390 C   0  0  0  0  0  0  0  0  0  0  0  0
   22.3555   43.8212    4.2387 C   0  0  0  0  0  0  0  0  0  0  0  0
   21.5854   42.8894    3.5455 C   0  0  0  0  0  0  0  0  0  0  0  0
   20.8164   41.9609    4.2436 C   0  0  0  0  0  0  0  0  0  0  0  0
   20.8255   41.9643    5.6447 C   0  0  0  0  0  0  0  0  0  0  0  0
   22.1035   43.5172    1.7099 H   0  0  0  0  0  0  0  0  0  0  0  0
  1  6  1  0  0  0
  2  8  1  0  0  0
  3  7  1  0  0  0
  4  5  2  0  0  0
  4  9  1  0  0  0
  4 14  1  0  0  0
  5  6  1  0  0  0
  6  7  2  0  0  0
  7  8  1  0  0  0
  8  9  2  0  0  0
 11 16  1  0  0  0
 12 18  1  0  0  0
 13 17  1  0  0  0
 14 15  2  0  0  0
 14 19  1  0  0  0
 15 16  1  0  0  0
 16 17  2  0  0  0
 17 18  1  0  0  0
 18 19  2  0  0  0
  3 10  1  0  0  0
 13 20  1  0  0  0
M  END
> <minimizedAffinity>
-8.44190

$$$$
2G5U_PCQ_A_240


 20 21  0  0  0  0  0  0  0  0999 V2000
   20.4938   40.6249   10.6432 Cl  0  0  0  0  0  0  0  0  0  0  0  0
   22.7745   45.1503   10.6453 Cl  0  0  0  0  0  0  0  0  0  0  0  0
   21.6464   42.8995   12.0196 O   0  0  0  0  0  0  0  0  0  0  0  0
   21.6214   42.8924    7.8128 C   0  0  0  0  0  0  0  0  0  0  0  0
   21.0812   41.8238    8.5374 C   0  0  0  0  0  0  0  0  0  0  0  0
   21.0874   41.8185    9.9365 C   0  0  0  0  0  0  0  0  0  0  0  0
   21.6352   42.8910   10.6473 C   0  0  0  0  0  0  0  0  0  0  0  0
   22.1721   43.9636    9.9358 C   0  0  0  0  0  0  0  0  0  0  0  0
   22.1655   43.9571    8.5375 C   0  0  0  0  0  0  0  0  0  0  0  0
   21.2851   42.1777   12.4956 H   0  0  0  0  0  0  0  0  0  0  0  0
   23.2108   44.8382    3.5194 Cl  0  0  0  0  0  0  0  0  0  0  0  0
   20.0046   40.9667    3.5170 Cl  0  0  0  0  0  0  0  0  0  0  0  0
   21.6087   42.9120    2.2210 O   0  0  0  0  0  0  0  0  0  0  0  0
   21.6164   42.8940    6.4076 C   0  0  0  0  0  0  0  0  0  0  0  0
   22.3790   43.8246    5.6872 C   0  0  0  0  0  0  0  0  0  0  0  0
   22.3815   43.8291    4.2869 C   0  0  0  0  0  0  0  0  0  0  0  0
   21.6091   42.9026    3.5892 C   0  0  0  0  0  0  0  0  0  0  0  0
   20.8382   41.9722    4.2828 C   0  0  0  0  0  0  0  0  0  0  0  0
   20.8477   41.9684    5.6839 C   0  0  0  0  0  0  0  0  0  0  0  0
   22.1280   43.5386    1.7567 H   0  0  0  0  0  0  0  0  0  0  0  0
  1  6  1  0  0  0
  2  8  1  0  0  0
  3  7  1  0  0  0
  4  5  2  0  0  0
  4  9  1  0  0  0
  4 14  1  0  0  0
  5  6  1  0  0  0
  6  7  2  0  0  0
  7  8  1  0  0  0
  8  9  2  0  0  0
 11 16  1  0  0  0
 12 18  1  0  0  0
 13 17  1  0  0  0
 14 15  2  0  0  0
 14 19  1  0  0  0
 15 16  1  0  0  0
 16 17  2  0  0  0
 17 18  1  0  0  0
 18 19  2  0  0  0
  3 10  1  0  0  0
 13 20  1  0  0  0
M  END
> <minimizedAffinity>
-8.44140

$$$$
2G5U_PCQ_A_240


 20 21  0  0  0  0  0  0  0  0999 V2000
   23.2236   44.8581    3.5094 Cl  0  0  0  0  0  0  0  0  0  0  0  0
   19.9748   40.9689    3.5240 Cl  0  0  0  0  0  0  0  0  0  0  0  0
   21.5845   42.8988    2.1413 O   0  0  0  0  0  0  0  0  0  0  0  0
   21.6075   42.9206    6.3481 C   0  0  0  0  0  0  0  0  0  0  0  0
   22.3694   43.8412    5.6196 C   0  0  0  0  0  0  0  0  0  0  0  0
   22.3679   43.8389    4.2205 C   0  0  0  0  0  0  0  0  0  0  0  0
   21.5964   42.9112    3.5136 C   0  0  0  0  0  0  0  0  0  0  0  0
   20.8295   41.9921    4.2290 C   0  0  0  0  0  0  0  0  0  0  0  0
   20.8416   41.9994    5.6274 C   0  0  0  0  0  0  0  0  0  0  0  0
   22.1006   43.5174    1.6627 H   0  0  0  0  0  0  0  0  0  0  0  0
   20.4565   40.6972   10.6466 Cl  0  0  0  0  0  0  0  0  0  0  0  0
   22.7831   45.1531   10.6388 Cl  0  0  0  0  0  0  0  0  0  0  0  0
   21.6196   42.9193   11.9399 O   0  0  0  0  0  0  0  0  0  0  0  0
   21.6129   42.9233    7.7533 C   0  0  0  0  0  0  0  0  0  0  0  0
   21.0550   41.8589    8.4762 C   0  0  0  0  0  0  0  0  0  0  0  0
   21.0607   41.8535    9.8765 C   0  0  0  0  0  0  0  0  0  0  0  0
   21.6198   42.9239   10.5717 C   0  0  0  0  0  0  0  0  0  0  0  0
   22.1744   43.9957    9.8757 C   0  0  0  0  0  0  0  0  0  0  0  0
   22.1729   43.9898    8.4746 C   0  0  0  0  0  0  0  0  0  0  0  0
   21.2460   42.1973   12.4059 H   0  0  0  0  0  0  0  0  0  0  0  0
  1  6  1  0  0  0
  2  8  1  0  0  0
  3  7  1  0  0  0
  4  5  2  0  0  0
  4  9  1  0  0  0
  4 14  1  0  0  0
  5  6  1  0  0  0
  6  7  2  0  0  0
  7  8  1  0  0  0
  8  9  2  0  0  0
 11 16  1  0  0  0
 12 18  1  0  0  0
 13 17  1  0  0  0
 14 15  2  0  0  0
 14 19  1  0  0  0
 15 16  1  0  0  0
 16 17  2  0  0  0
 17 18  1  0  0  0
 18 19  2  0  0  0
  3 10  1  0  0  0
 13 20  1  0  0  0
M  END
> <minimizedAffinity>
-8.43398

$$$$
2G5U_PCQ_A_240


 20 21  0  0  0  0  0  0  0  0999 V2000
   20.0548   40.9450    3.5055 Cl  0  0  0  0  0  0  0  0  0  0  0  0
   23.2310   44.8939    3.5053 Cl  0  0  0  0  0  0  0  0  0  0  0  0
   21.6568   42.9296    2.1300 O   0  0  0  0  0  0  0  0  0  0  0  0
   21.6358   42.9220    6.3368 C   0  0  0  0  0  0  0  0  0  0  0  0
   20.8908   41.9848    5.6119 C   0  0  0  0  0  0  0  0  0  0  0  0
   20.8917   41.9823    4.2127 C   0  0  0  0  0  0  0  0  0  0  0  0
   21.6456   42.9218    3.5024 C   0  0  0  0  0  0  0  0  0  0  0  0
   22.3956   43.8574    4.2143 C   0  0  0  0  0  0  0  0  0  0  0  0
   22.3842   43.8547    5.6126 C   0  0  0  0  0  0  0  0  0  0  0  0
   21.1521   42.2999    1.6538 H   0  0  0  0  0  0  0  0  0  0  0  0
   20.4545   40.6964   10.6259 Cl  0  0  0  0  0  0  0  0  0  0  0  0
   22.7793   45.1532   10.6369 Cl  0  0  0  0  0  0  0  0  0  0  0  0
   21.6073   42.9183   11.9286 O   0  0  0  0  0  0  0  0  0  0  0  0
   21.6310   42.9241    7.7420 C   0  0  0  0  0  0  0  0  0  0  0  0
   21.0683   41.8592    8.4604 C   0  0  0  0  0  0  0  0  0  0  0  0
   21.0638   41.8532    9.8607 C   0  0  0  0  0  0  0  0  0  0  0  0
   21.6174   42.9235   10.5604 C   0  0  0  0  0  0  0  0  0  0  0  0
   22.1766   43.9959    9.8689 C   0  0  0  0  0  0  0  0  0  0  0  0
   22.1853   43.9905    8.4678 C   0  0  0  0  0  0  0  0  0  0  0  0
   21.2306   42.1960   12.3916 H   0  0  0  0  0  0  0  0  0  0  0  0
  1  6  1  0  0  0
  2  8  1  0  0  0
  3  7  1  0  0  0
  4  5  2  0  0  0
  4  9  1  0  0  0
  4 14  1  0  0  0
  5  6  1  0  0  0
  6  7  2  0  0  0
  7  8  1  0  0  0
  8  9  2  0  0  0
 11 16  1  0  0  0
 12 18  1  0  0  0
 13 17  1  0  0  0
 14 15  2  0  0  0
 14 19  1  0  0  0
 15 16  1  0  0  0
 16 17  2  0  0  0
 17 18  1  0  0  0
 18 19  2  0  0  0
  3 10  1  0  0  0
 13 20  1  0  0  0
M  END
> <minimizedAffinity>
-8.42813

$$$$
2G5U_PCQ_A_240


 20 21  0  0  0  0  0  0  0  0999 V2000
   23.2296   44.8564    3.5003 Cl  0  0  0  0  0  0  0  0  0  0  0  0
   19.9788   40.9688    3.4985 Cl  0  0  0  0  0  0  0  0  0  0  0  0
   21.5927   42.9010    2.1240 O   0  0  0  0  0  0  0  0  0  0  0  0
   21.6059   42.9133    6.3308 C   0  0  0  0  0  0  0  0  0  0  0  0
   22.3700   43.8352    5.6062 C   0  0  0  0  0  0  0  0  0  0  0  0
   22.3718   43.8361    4.2070 C   0  0  0  0  0  0  0  0  0  0  0  0
   21.6015   42.9103    3.4963 C   0  0  0  0  0  0  0  0  0  0  0  0
   20.8324   41.9900    4.2079 C   0  0  0  0  0  0  0  0  0  0  0  0
   20.8412   41.9942    5.6062 C   0  0  0  0  0  0  0  0  0  0  0  0
   22.1103   43.5204    1.6480 H   0  0  0  0  0  0  0  0  0  0  0  0
   22.7567   45.1553   10.6197 Cl  0  0  0  0  0  0  0  0  0  0  0  0
   20.4761   40.6757   10.6312 Cl  0  0  0  0  0  0  0  0  0  0  0  0
   21.6235   42.9235   11.9226 O   0  0  0  0  0  0  0  0  0  0  0  0
   21.6080   42.9129    7.7360 C   0  0  0  0  0  0  0  0  0  0  0  0
   22.1586   43.9840    8.4543 C   0  0  0  0  0  0  0  0  0  0  0  0
   22.1604   43.9917    9.8546 C   0  0  0  0  0  0  0  0  0  0  0  0
   21.6160   42.9167   10.5544 C   0  0  0  0  0  0  0  0  0  0  0  0
   21.0688   41.8381    9.8631 C   0  0  0  0  0  0  0  0  0  0  0  0
   21.0629   41.8417    8.4620 C   0  0  0  0  0  0  0  0  0  0  0  0
   21.9921   43.6500   12.3855 H   0  0  0  0  0  0  0  0  0  0  0  0
  1  6  1  0  0  0
  2  8  1  0  0  0
  3  7  1  0  0  0
  4  5  2  0  0  0
  4  9  1  0  0  0
  4 14  1  0  0  0
  5  6  1  0  0  0
  6  7  2  0  0  0
  7  8  1  0  0  0
  8  9  2  0  0  0
 11 16  1  0  0  0
 12 18  1  0  0  0
 13 17  1  0  0  0
 14 15  2  0  0  0
 14 19  1  0  0  0
 15 16  1  0  0  0
 16 17  2  0  0  0
 17 18  1  0  0  0
 18 19  2  0  0  0
  3 10  1  0  0  0
 13 20  1  0  0  0
M  END
> <minimizedAffinity>
-8.41693

$$$$
2G5U_PCQ_A_240


 20 21  0  0  0  0  0  0  0  0999 V2000
   20.0525   40.9311    3.4713 Cl  0  0  0  0  0  0  0  0  0  0  0  0
   23.1744   44.9231    3.4796 Cl  0  0  0  0  0  0  0  0  0  0  0  0
   21.6239   42.9430    2.1001 O   0  0  0  0  0  0  0  0  0  0  0  0
   21.6132   42.9181    6.3069 C   0  0  0  0  0  0  0  0  0  0  0  0
   20.8793   41.9738    5.5799 C   0  0  0  0  0  0  0  0  0  0  0  0
   20.8769   41.9769    4.1807 C   0  0  0  0  0  0  0  0  0  0  0  0
   21.6161   42.9295    3.4724 C   0  0  0  0  0  0  0  0  0  0  0  0
   22.3550   43.8724    4.1863 C   0  0  0  0  0  0  0  0  0  0  0  0
   22.3470   43.8639    5.5846 C   0  0  0  0  0  0  0  0  0  0  0  0
   21.1267   42.3084    1.6225 H   0  0  0  0  0  0  0  0  0  0  0  0
   22.7899   45.1313   10.6036 Cl  0  0  0  0  0  0  0  0  0  0  0  0
   20.4360   40.6898   10.5993 Cl  0  0  0  0  0  0  0  0  0  0  0  0
   21.6169   42.9155   11.8987 O   0  0  0  0  0  0  0  0  0  0  0  0
   21.6117   42.9145    7.7121 C   0  0  0  0  0  0  0  0  0  0  0  0
   22.1781   43.9749    8.4341 C   0  0  0  0  0  0  0  0  0  0  0  0
   22.1765   43.9793    9.8344 C   0  0  0  0  0  0  0  0  0  0  0  0
   21.6128   42.9119   10.5305 C   0  0  0  0  0  0  0  0  0  0  0  0
   21.0496   41.8440    9.8353 C   0  0  0  0  0  0  0  0  0  0  0  0
   21.0472   41.8509    8.4342 C   0  0  0  0  0  0  0  0  0  0  0  0
   21.9962   43.6349   12.3642 H   0  0  0  0  0  0  0  0  0  0  0  0
  1  6  1  0  0  0
  2  8  1  0  0  0
  3  7  1  0  0  0
  4  5  2  0  0  0
  4  9  1  0  0  0
  4 14  1  0  0  0
  5  6  1  0  0  0
  6  7  2  0  0  0
  7  8  1  0  0  0
  8  9  2  0  0  0
 11 16  1  0  0  0
 12 18  1  0  0  0
 13 17  1  0  0  0
 14 15  2  0  0  0
 14 19  1  0  0  0
 15 16  1  0  0  0
 16 17  2  0  0  0
 17 18  1  0  0  0
 18 19  2  0  0  0
  3 10  1  0  0  0
 13 20  1  0  0  0
M  END
> <minimizedAffinity>
-8.41435

$$$$
2G5U_PCQ_A_240


 20 21  0  0  0  0  0  0  0  0999 V2000
   20.6435   45.2441    8.6351 Cl  0  0  0  0  0  0  0  0  0  0  0  0
   22.3957   40.4893    8.5804 Cl  0  0  0  0  0  0  0  0  0  0  0  0
   21.4953   42.8242    9.9824 O   0  0  0  0  0  0  0  0  0  0  0  0
   21.5824   42.9252    5.7776 C   0  0  0  0  0  0  0  0  0  0  0  0
   21.1569   44.0358    6.5154 C   0  0  0  0  0  0  0  0  0  0  0  0
   21.1238   44.0089    7.9139 C   0  0  0  0  0  0  0  0  0  0  0  0
   21.5213   42.8636    8.6108 C   0  0  0  0  0  0  0  0  0  0  0  0
   21.9518   41.7525    7.8862 C   0  0  0  0  0  0  0  0  0  0  0  0
   21.9766   41.7877    6.4885 C   0  0  0  0  0  0  0  0  0  0  0  0
   21.2057   43.5719   10.4671 H   0  0  0  0  0  0  0  0  0  0  0  0
   20.0008   41.1311    1.4159 Cl  0  0  0  0  0  0  0  0  0  0  0  0
   23.3419   44.8842    1.5535 Cl  0  0  0  0  0  0  0  0  0  0  0  0
   21.6928   43.0263    0.1878 O   0  0  0  0  0  0  0  0  0  0  0  0
   21.6121   42.9539    4.3730 C   0  0  0  0  0  0  0  0  0  0  0  0
   20.8298   42.0671    3.6193 C   0  0  0  0  0  0  0  0  0  0  0  0
   20.8517   42.0930    2.2194 C   0  0  0  0  0  0  0  0  0  0  0  0
   21.6687   43.0060    1.5556 C   0  0  0  0  0  0  0  0  0  0  0  0
   22.4598   43.8929    2.2826 C   0  0  0  0  0  0  0  0  0  0  0  0
   22.4257   43.8668    3.6830 C   0  0  0  0  0  0  0  0  0  0  0  0
   21.1599   42.4288   -0.2991 H   0  0  0  0  0  0  0  0  0  0  0  0
  1  6  1  0  0  0
  2  8  1  0  0  0
  3  7  1  0  0  0
  4  5  2  0  0  0
  4  9  1  0  0  0
  4 14  1  0  0  0
  5  6  1  0  0  0
  6  7  2  0  0  0
  7  8  1  0  0  0
  8  9  2  0  0  0
 11 16  1  0  0  0
 12 18  1  0  0  0
 13 17  1  0  0  0
 14 15  2  0  0  0
 14 19  1  0  0  0
 15 16  1  0  0  0
 16 17  2  0  0  0
 17 18  1  0  0  0
 18 19  2  0  0  0
  3 10  1  0  0  0
 13 20  1  0  0  0
M  END
> <minimizedAffinity>
-6.39798

$$$$
2G5U_PCQ_A_240


 20 21  0  0  0  0  0  0  0  0999 V2000
   20.5163   45.2289    8.1399 Cl  0  0  0  0  0  0  0  0  0  0  0  0
   22.7547   40.6825    8.1821 Cl  0  0  0  0  0  0  0  0  0  0  0  0
   21.6554   42.9597    9.5364 O   0  0  0  0  0  0  0  0  0  0  0  0
   21.6104   42.9201    5.3299 C   0  0  0  0  0  0  0  0  0  0  0  0
   21.0923   44.0060    6.0449 C   0  0  0  0  0  0  0  0  0  0  0  0
   21.1024   44.0254    7.4438 C   0  0  0  0  0  0  0  0  0  0  0  0
   21.6377   42.9529    8.1641 C   0  0  0  0  0  0  0  0  0  0  0  0
   22.1611   41.8675    7.4622 C   0  0  0  0  0  0  0  0  0  0  0  0
   22.1419   41.8555    6.0640 C   0  0  0  0  0  0  0  0  0  0  0  0
   21.3031   43.6900   10.0059 H   0  0  0  0  0  0  0  0  0  0  0  0
   23.2376   44.7495    0.9997 Cl  0  0  0  0  0  0  0  0  0  0  0  0
   19.9022   40.9894    1.0718 Cl  0  0  0  0  0  0  0  0  0  0  0  0
   21.5631   42.8605   -0.2614 O   0  0  0  0  0  0  0  0  0  0  0  0
   21.5966   42.9018    3.9249 C   0  0  0  0  0  0  0  0  0  0  0  0
   22.3857   43.7956    3.1867 C   0  0  0  0  0  0  0  0  0  0  0  0
   22.3795   43.7801    1.7865 C   0  0  0  0  0  0  0  0  0  0  0  0
   21.5718   42.8706    1.1068 C   0  0  0  0  0  0  0  0  0  0  0  0
   20.7743   41.9769    1.8181 C   0  0  0  0  0  0  0  0  0  0  0  0
   20.7925   41.9926    3.2191 C   0  0  0  0  0  0  0  0  0  0  0  0
   22.1003   43.4625   -0.7378 H   0  0  0  0  0  0  0  0  0  0  0  0
  1  6  1  0  0  0
  2  8  1  0  0  0
  3  7  1  0  0  0
  4  5  2  0  0  0
  4  9  1  0  0  0
  4 14  1  0  0  0
  5  6  1  0  0  0
  6  7  2  0  0  0
  7  8  1  0  0  0
  8  9  2  0  0  0
 11 16  1  0  0  0
 12 18  1  0  0  0
 13 17  1  0  0  0
 14 15  2  0  0  0
 14 19  1  0  0  0
 15 16  1  0  0  0
 16 17  2  0  0  0
 17 18  1  0  0  0
 18 19  2  0  0  0
  3 10  1  0  0  0
 13 20  1  0  0  0
M  END
> <minimizedAffinity>
-6.39138

$$$$
