5FS5_KGM_A_1159


 23 23  0  0  0  0  0  0  0  0999 V2000
   -6.9422    4.6076    0.0769 C   0  0  0  0  0  0  0  0  0  0  0  0
   -8.2499    4.7148   -0.5477 O   0  0  0  0  0  0  0  0  0  0  0  0
   -6.0506    5.7268   -0.4651 C   0  0  0  0  0  0  0  0  0  0  0  0
   -4.7128    5.6089    0.1188 O   0  0  0  0  0  0  0  0  0  0  0  0
   -5.9404    5.5629   -1.9754 C   0  0  0  0  0  0  0  0  0  0  0  0
   -5.1606    6.6568   -2.4736 O   0  0  0  0  0  0  0  0  0  0  0  0
   -7.3264    5.6363   -2.6195 C   0  0  0  0  0  0  0  0  0  0  0  0
   -7.9110    6.8921   -2.3367 O   0  0  0  0  0  0  0  0  0  0  0  0
   -8.2378    4.5859   -1.9990 C   0  0  0  0  0  0  0  0  0  0  0  0
   -4.3365    4.7439   -0.1071 H   0  0  0  0  0  0  0  0  0  0  0  0
   -5.5956    7.4936   -2.2470 H   0  0  0  0  0  0  0  0  0  0  0  0
   -7.9954    7.0006   -1.3765 H   0  0  0  0  0  0  0  0  0  0  0  0
   -7.2513    6.1260    1.9721 O   0  0  0  0  0  0  0  0  0  0  0  0
   -7.1598    4.7413    1.5917 C   0  0  0  0  0  0  0  0  0  0  0  0
   -7.3884    6.1897    2.9302 H   0  0  0  0  0  0  0  0  0  0  0  0
   -7.7022    3.2727   -2.2614 O   0  0  0  0  0  0  0  0  0  0  0  0
   -8.6589    2.2209   -1.9904 C   0  0  0  0  0  0  0  0  0  0  0  0
   -7.8071    1.1323   -1.3685 C   0  0  0  0  0  0  0  0  0  0  0  0
   -8.0659    1.0284    0.1378 C   0  0  0  0  0  0  0  0  0  0  0  0
   -9.4836    1.5311    0.4096 C   0  0  0  0  0  0  0  0  0  0  0  0
  -10.1710    0.6389    1.4498 C   0  0  0  0  0  0  0  0  0  0  0  0
   -9.9964   -1.6541    2.4965 C   0  0  0  0  0  0  0  0  0  0  0  0
   -9.5487   -0.7726    1.3483 C   0  0  0  0  0  0  0  0  0  0  0  0
 22 23  1  0  0  0
 23 21  1  0  0  0
 21 20  1  0  0  0
 20 19  1  0  0  0
 19 18  1  0  0  0
 18 17  1  0  0  0
 17 16  1  0  0  0
 16  9  1  0  0  0
  9  7  1  0  0  0
  9  2  1  0  0  0
  7  8  1  0  0  0
  7  5  1  0  0  0
  5  6  1  0  0  0
  5  3  1  0  0  0
  3  4  1  0  0  0
  3  1  1  0  0  0
  1  2  1  0  0  0
  1 14  1  0  0  0
 14 13  1  0  0  0
 13 15  1  0  0  0
  4 10  1  0  0  0
  6 11  1  0  0  0
  8 12  1  0  0  0
M  END
> <minimizedAffinity>
-6.97531

$$$$
5FS5_KGM_A_1159


 23 23  0  0  0  0  0  0  0  0999 V2000
   -6.8130    4.6721    0.1779 C   0  0  0  0  0  0  0  0  0  0  0  0
   -8.1506    4.7754   -0.3807 O   0  0  0  0  0  0  0  0  0  0  0  0
   -5.9372    5.7571   -0.4522 C   0  0  0  0  0  0  0  0  0  0  0  0
   -4.5719    5.6412    0.0648 O   0  0  0  0  0  0  0  0  0  0  0  0
   -5.9093    5.5356   -1.9589 C   0  0  0  0  0  0  0  0  0  0  0  0
   -5.1430    6.5985   -2.5384 O   0  0  0  0  0  0  0  0  0  0  0  0
   -7.3265    5.6056   -2.5316 C   0  0  0  0  0  0  0  0  0  0  0  0
   -7.8790    6.8795   -2.2663 O   0  0  0  0  0  0  0  0  0  0  0  0
   -8.2170    4.5925   -1.8247 C   0  0  0  0  0  0  0  0  0  0  0  0
   -4.2192    4.7629   -0.1476 H   0  0  0  0  0  0  0  0  0  0  0  0
   -5.5547    7.4495   -2.3212 H   0  0  0  0  0  0  0  0  0  0  0  0
   -7.9110    7.0249   -1.3078 H   0  0  0  0  0  0  0  0  0  0  0  0
   -7.4293    6.1869    1.9996 O   0  0  0  0  0  0  0  0  0  0  0  0
   -6.9482    4.8653    1.6960 C   0  0  0  0  0  0  0  0  0  0  0  0
   -7.5079    6.2894    2.9610 H   0  0  0  0  0  0  0  0  0  0  0  0
   -7.7131    3.2627   -2.0649 O   0  0  0  0  0  0  0  0  0  0  0  0
   -7.9065    2.8369   -3.4347 C   0  0  0  0  0  0  0  0  0  0  0  0
   -6.7247    1.9202   -3.6807 C   0  0  0  0  0  0  0  0  0  0  0  0
   -5.9549    1.6596   -2.3821 C   0  0  0  0  0  0  0  0  0  0  0  0
   -6.0628    0.1694   -2.0596 C   0  0  0  0  0  0  0  0  0  0  0  0
   -6.3256   -0.0302   -0.5623 C   0  0  0  0  0  0  0  0  0  0  0  0
   -8.4958    0.9243    0.3110 C   0  0  0  0  0  0  0  0  0  0  0  0
   -7.8428   -0.2589   -0.3742 C   0  0  0  0  0  0  0  0  0  0  0  0
 22 23  1  0  0  0
 23 21  1  0  0  0
 21 20  1  0  0  0
 20 19  1  0  0  0
 19 18  1  0  0  0
 18 17  1  0  0  0
 17 16  1  0  0  0
 16  9  1  0  0  0
  9  7  1  0  0  0
  9  2  1  0  0  0
  7  8  1  0  0  0
  7  5  1  0  0  0
  5  6  1  0  0  0
  5  3  1  0  0  0
  3  4  1  0  0  0
  3  1  1  0  0  0
  1  2  1  0  0  0
  1 14  1  0  0  0
 14 13  1  0  0  0
 13 15  1  0  0  0
  4 10  1  0  0  0
  6 11  1  0  0  0
  8 12  1  0  0  0
M  END
> <minimizedAffinity>
-6.55110

$$$$
5FS5_KGM_A_1159


 23 23  0  0  0  0  0  0  0  0999 V2000
   -6.7576    4.5966    0.2018 C   0  0  0  0  0  0  0  0  0  0  0  0
   -8.1099    4.4904   -0.3195 O   0  0  0  0  0  0  0  0  0  0  0  0
   -6.0563    5.7628   -0.4979 C   0  0  0  0  0  0  0  0  0  0  0  0
   -4.6758    5.8584   -0.0186 O   0  0  0  0  0  0  0  0  0  0  0  0
   -6.0352    5.4810   -1.9946 C   0  0  0  0  0  0  0  0  0  0  0  0
   -5.4380    6.6124   -2.6396 O   0  0  0  0  0  0  0  0  0  0  0  0
   -7.4620    5.3302   -2.5262 C   0  0  0  0  0  0  0  0  0  0  0  0
   -8.1790    6.5266   -2.2958 O   0  0  0  0  0  0  0  0  0  0  0  0
   -8.1859    4.2366   -1.7523 C   0  0  0  0  0  0  0  0  0  0  0  0
   -4.2102    5.0284   -0.2061 H   0  0  0  0  0  0  0  0  0  0  0  0
   -5.9581    7.4076   -2.4444 H   0  0  0  0  0  0  0  0  0  0  0  0
   -8.2072    6.7083   -1.3433 H   0  0  0  0  0  0  0  0  0  0  0  0
   -7.2586    6.1980    1.9844 O   0  0  0  0  0  0  0  0  0  0  0  0
   -6.8808    4.8361    1.7142 C   0  0  0  0  0  0  0  0  0  0  0  0
   -7.3312    6.3293    2.9427 H   0  0  0  0  0  0  0  0  0  0  0  0
   -7.5087    2.9793   -1.9540 O   0  0  0  0  0  0  0  0  0  0  0  0
   -8.4208    1.9078   -2.2930 C   0  0  0  0  0  0  0  0  0  0  0  0
   -8.4811    1.0905   -1.0179 C   0  0  0  0  0  0  0  0  0  0  0  0
   -7.1213    1.0755   -0.3128 C   0  0  0  0  0  0  0  0  0  0  0  0
   -6.3862   -0.1979   -0.7303 C   0  0  0  0  0  0  0  0  0  0  0  0
   -5.1938    0.1501   -1.6291 C   0  0  0  0  0  0  0  0  0  0  0  0
   -4.3723   -1.6262   -0.0311 C   0  0  0  0  0  0  0  0  0  0  0  0
   -3.9862   -0.6941   -1.1615 C   0  0  0  0  0  0  0  0  0  0  0  0
 22 23  1  0  0  0
 23 21  1  0  0  0
 21 20  1  0  0  0
 20 19  1  0  0  0
 19 18  1  0  0  0
 18 17  1  0  0  0
 17 16  1  0  0  0
 16  9  1  0  0  0
  9  7  1  0  0  0
  9  2  1  0  0  0
  7  8  1  0  0  0
  7  5  1  0  0  0
  5  6  1  0  0  0
  5  3  1  0  0  0
  3  4  1  0  0  0
  3  1  1  0  0  0
  1  2  1  0  0  0
  1 14  1  0  0  0
 14 13  1  0  0  0
 13 15  1  0  0  0
  4 10  1  0  0  0
  6 11  1  0  0  0
  8 12  1  0  0  0
M  END
> <minimizedAffinity>
-6.45363

$$$$
5FS5_KGM_A_1159


 23 23  0  0  0  0  0  0  0  0999 V2000
   -6.5465    4.9103   -0.0249 C   0  0  0  0  0  0  0  0  0  0  0  0
   -7.9397    4.7578   -0.4090 O   0  0  0  0  0  0  0  0  0  0  0  0
   -5.9694    6.1231   -0.7580 C   0  0  0  0  0  0  0  0  0  0  0  0
   -4.5521    6.2674   -0.4188 O   0  0  0  0  0  0  0  0  0  0  0  0
   -6.0906    5.8796   -2.2567 C   0  0  0  0  0  0  0  0  0  0  0  0
   -5.6099    7.0518   -2.9258 O   0  0  0  0  0  0  0  0  0  0  0  0
   -7.5571    5.6795   -2.6447 C   0  0  0  0  0  0  0  0  0  0  0  0
   -8.2952    6.8373   -2.3079 O   0  0  0  0  0  0  0  0  0  0  0  0
   -8.1520    4.5364   -1.8334 C   0  0  0  0  0  0  0  0  0  0  0  0
   -4.0744    5.4635   -0.6767 H   0  0  0  0  0  0  0  0  0  0  0  0
   -6.1395    7.8183   -2.6557 H   0  0  0  0  0  0  0  0  0  0  0  0
   -8.2329    6.9939   -1.3527 H   0  0  0  0  0  0  0  0  0  0  0  0
   -7.4575    6.1273    1.8939 O   0  0  0  0  0  0  0  0  0  0  0  0
   -6.5235    5.1067    1.4985 C   0  0  0  0  0  0  0  0  0  0  0  0
   -7.4284    6.2365    2.8573 H   0  0  0  0  0  0  0  0  0  0  0  0
   -7.4479    3.3154   -2.1394 O   0  0  0  0  0  0  0  0  0  0  0  0
   -8.1823    2.1365   -1.7322 C   0  0  0  0  0  0  0  0  0  0  0  0
   -9.5792    2.4024   -2.2570 C   0  0  0  0  0  0  0  0  0  0  0  0
   -9.8798    1.5292   -3.4792 C   0  0  0  0  0  0  0  0  0  0  0  0
  -10.2037    2.4537   -4.6525 C   0  0  0  0  0  0  0  0  0  0  0  0
   -9.3313    2.0986   -5.8623 C   0  0  0  0  0  0  0  0  0  0  0  0
   -7.5941    3.8929   -6.2450 C   0  0  0  0  0  0  0  0  0  0  0  0
   -7.8908    2.5728   -5.5628 C   0  0  0  0  0  0  0  0  0  0  0  0
 22 23  1  0  0  0
 23 21  1  0  0  0
 21 20  1  0  0  0
 20 19  1  0  0  0
 19 18  1  0  0  0
 18 17  1  0  0  0
 17 16  1  0  0  0
 16  9  1  0  0  0
  9  7  1  0  0  0
  9  2  1  0  0  0
  7  8  1  0  0  0
  7  5  1  0  0  0
  5  6  1  0  0  0
  5  3  1  0  0  0
  3  4  1  0  0  0
  3  1  1  0  0  0
  1  2  1  0  0  0
  1 14  1  0  0  0
 14 13  1  0  0  0
 13 15  1  0  0  0
  4 10  1  0  0  0
  6 11  1  0  0  0
  8 12  1  0  0  0
M  END
> <minimizedAffinity>
-6.19200

$$$$
5FS5_KGM_A_1159


 23 23  0  0  0  0  0  0  0  0999 V2000
   -7.3055    5.7913   -2.4135 C   0  0  0  0  0  0  0  0  0  0  0  0
   -7.0934    4.5669   -3.1670 O   0  0  0  0  0  0  0  0  0  0  0  0
   -6.0672    6.0546   -1.5541 C   0  0  0  0  0  0  0  0  0  0  0  0
   -6.2794    7.2614   -0.7521 O   0  0  0  0  0  0  0  0  0  0  0  0
   -5.8753    4.8713   -0.6145 C   0  0  0  0  0  0  0  0  0  0  0  0
   -4.6749    5.1023    0.1328 O   0  0  0  0  0  0  0  0  0  0  0  0
   -5.6938    3.5810   -1.4167 C   0  0  0  0  0  0  0  0  0  0  0  0
   -4.5538    3.6978   -2.2445 O   0  0  0  0  0  0  0  0  0  0  0  0
   -6.8839    3.3818   -2.3457 C   0  0  0  0  0  0  0  0  0  0  0  0
   -7.0583    7.1410   -0.1866 H   0  0  0  0  0  0  0  0  0  0  0  0
   -3.9253    5.1851   -0.4772 H   0  0  0  0  0  0  0  0  0  0  0  0
   -4.6719    4.4428   -2.8543 H   0  0  0  0  0  0  0  0  0  0  0  0
   -7.9506    8.1233   -2.7857 O   0  0  0  0  0  0  0  0  0  0  0  0
   -7.5307    6.9123   -3.4395 C   0  0  0  0  0  0  0  0  0  0  0  0
   -8.0874    8.8180   -3.4487 H   0  0  0  0  0  0  0  0  0  0  0  0
   -8.0859    3.2436   -1.5607 O   0  0  0  0  0  0  0  0  0  0  0  0
   -8.4782    1.8611   -1.3885 C   0  0  0  0  0  0  0  0  0  0  0  0
   -8.2804    1.6292    0.0963 C   0  0  0  0  0  0  0  0  0  0  0  0
   -8.9775    0.3415    0.5465 C   0  0  0  0  0  0  0  0  0  0  0  0
  -10.2608    0.7304    1.2800 C   0  0  0  0  0  0  0  0  0  0  0  0
  -10.5078   -0.2226    2.4554 C   0  0  0  0  0  0  0  0  0  0  0  0
  -10.1221   -2.6213    3.1488 C   0  0  0  0  0  0  0  0  0  0  0  0
   -9.7218   -1.5253    2.1821 C   0  0  0  0  0  0  0  0  0  0  0  0
 22 23  1  0  0  0
 23 21  1  0  0  0
 21 20  1  0  0  0
 20 19  1  0  0  0
 19 18  1  0  0  0
 18 17  1  0  0  0
 17 16  1  0  0  0
 16  9  1  0  0  0
  9  7  1  0  0  0
  9  2  1  0  0  0
  7  8  1  0  0  0
  7  5  1  0  0  0
  5  6  1  0  0  0
  5  3  1  0  0  0
  3  4  1  0  0  0
  3  1  1  0  0  0
  1  2  1  0  0  0
  1 14  1  0  0  0
 14 13  1  0  0  0
 13 15  1  0  0  0
  4 10  1  0  0  0
  6 11  1  0  0  0
  8 12  1  0  0  0
M  END
> <minimizedAffinity>
-5.99672

$$$$
5FS5_KGM_A_1159


 23 23  0  0  0  0  0  0  0  0999 V2000
   -6.2890    4.4995    0.4833 C   0  0  0  0  0  0  0  0  0  0  0  0
   -7.5854    3.8726    0.2882 O   0  0  0  0  0  0  0  0  0  0  0  0
   -6.1372    5.6310   -0.5355 C   0  0  0  0  0  0  0  0  0  0  0  0
   -4.8172    6.2471   -0.3851 O   0  0  0  0  0  0  0  0  0  0  0  0
   -6.2414    5.0348   -1.9332 C   0  0  0  0  0  0  0  0  0  0  0  0
   -6.1665    6.1152   -2.8712 O   0  0  0  0  0  0  0  0  0  0  0  0
   -7.5934    4.3417   -2.1148 C   0  0  0  0  0  0  0  0  0  0  0  0
   -8.6327    5.2842   -1.9405 O   0  0  0  0  0  0  0  0  0  0  0  0
   -7.7800    3.2874   -1.0319 C   0  0  0  0  0  0  0  0  0  0  0  0
   -4.1298    5.5773   -0.5257 H   0  0  0  0  0  0  0  0  0  0  0  0
   -6.8915    6.7380   -2.7056 H   0  0  0  0  0  0  0  0  0  0  0  0
   -8.5808    5.6613   -1.0483 H   0  0  0  0  0  0  0  0  0  0  0  0
   -7.3930    5.8846    2.1731 O   0  0  0  0  0  0  0  0  0  0  0  0
   -6.2629    5.0292    1.9250 C   0  0  0  0  0  0  0  0  0  0  0  0
   -7.3590    6.2085    3.0868 H   0  0  0  0  0  0  0  0  0  0  0  0
   -6.7528    2.2831   -1.1599 O   0  0  0  0  0  0  0  0  0  0  0  0
   -7.0276    1.1062   -0.3634 C   0  0  0  0  0  0  0  0  0  0  0  0
   -6.5137   -0.0250   -1.2317 C   0  0  0  0  0  0  0  0  0  0  0  0
   -5.3564   -0.7583   -0.5465 C   0  0  0  0  0  0  0  0  0  0  0  0
   -4.1083   -0.5843   -1.4115 C   0  0  0  0  0  0  0  0  0  0  0  0
   -2.8469   -0.8334   -0.5763 C   0  0  0  0  0  0  0  0  0  0  0  0
   -2.4742   -2.6946    1.0912 C   0  0  0  0  0  0  0  0  0  0  0  0
   -3.2850   -1.4557    0.7692 C   0  0  0  0  0  0  0  0  0  0  0  0
 22 23  1  0  0  0
 23 21  1  0  0  0
 21 20  1  0  0  0
 20 19  1  0  0  0
 19 18  1  0  0  0
 18 17  1  0  0  0
 17 16  1  0  0  0
 16  9  1  0  0  0
  9  7  1  0  0  0
  9  2  1  0  0  0
  7  8  1  0  0  0
  7  5  1  0  0  0
  5  6  1  0  0  0
  5  3  1  0  0  0
  3  4  1  0  0  0
  3  1  1  0  0  0
  1  2  1  0  0  0
  1 14  1  0  0  0
 14 13  1  0  0  0
 13 15  1  0  0  0
  4 10  1  0  0  0
  6 11  1  0  0  0
  8 12  1  0  0  0
M  END
> <minimizedAffinity>
-5.93168

$$$$
5FS5_KGM_A_1159


 23 23  0  0  0  0  0  0  0  0999 V2000
   -7.2060    5.8548   -2.3978 C   0  0  0  0  0  0  0  0  0  0  0  0
   -6.9961    4.6386   -3.1650 O   0  0  0  0  0  0  0  0  0  0  0  0
   -6.0008    6.0647   -1.4788 C   0  0  0  0  0  0  0  0  0  0  0  0
   -6.2136    7.2625   -0.6635 O   0  0  0  0  0  0  0  0  0  0  0  0
   -5.8866    4.8590   -0.5550 C   0  0  0  0  0  0  0  0  0  0  0  0
   -4.7151    5.0399    0.2496 O   0  0  0  0  0  0  0  0  0  0  0  0
   -5.7070    3.5788   -1.3736 C   0  0  0  0  0  0  0  0  0  0  0  0
   -4.5276    3.6762   -2.1470 O   0  0  0  0  0  0  0  0  0  0  0  0
   -6.8590    3.4328   -2.3587 C   0  0  0  0  0  0  0  0  0  0  0  0
   -7.0205    7.1553   -0.1359 H   0  0  0  0  0  0  0  0  0  0  0  0
   -3.9364    5.1111   -0.3243 H   0  0  0  0  0  0  0  0  0  0  0  0
   -4.5960    4.4355   -2.7467 H   0  0  0  0  0  0  0  0  0  0  0  0
   -7.9940    8.1366   -2.8046 O   0  0  0  0  0  0  0  0  0  0  0  0
   -7.3514    7.0007   -3.4106 C   0  0  0  0  0  0  0  0  0  0  0  0
   -8.0766    8.8483   -3.4585 H   0  0  0  0  0  0  0  0  0  0  0  0
   -8.0989    3.3167   -1.6311 O   0  0  0  0  0  0  0  0  0  0  0  0
   -8.6140    1.9640   -1.6282 C   0  0  0  0  0  0  0  0  0  0  0  0
   -8.6444    1.6102   -0.1546 C   0  0  0  0  0  0  0  0  0  0  0  0
   -8.1580    0.1756    0.0736 C   0  0  0  0  0  0  0  0  0  0  0  0
   -6.7248    0.0737   -0.4478 C   0  0  0  0  0  0  0  0  0  0  0  0
   -6.3991   -1.3775   -0.8199 C   0  0  0  0  0  0  0  0  0  0  0  0
   -6.5987   -3.5921    0.3800 C   0  0  0  0  0  0  0  0  0  0  0  0
   -7.3054   -2.2987    0.0284 C   0  0  0  0  0  0  0  0  0  0  0  0
 22 23  1  0  0  0
 23 21  1  0  0  0
 21 20  1  0  0  0
 20 19  1  0  0  0
 19 18  1  0  0  0
 18 17  1  0  0  0
 17 16  1  0  0  0
 16  9  1  0  0  0
  9  7  1  0  0  0
  9  2  1  0  0  0
  7  8  1  0  0  0
  7  5  1  0  0  0
  5  6  1  0  0  0
  5  3  1  0  0  0
  3  4  1  0  0  0
  3  1  1  0  0  0
  1  2  1  0  0  0
  1 14  1  0  0  0
 14 13  1  0  0  0
 13 15  1  0  0  0
  4 10  1  0  0  0
  6 11  1  0  0  0
  8 12  1  0  0  0
M  END
> <minimizedAffinity>
-5.61874

$$$$
5FS5_KGM_A_1159


 23 23  0  0  0  0  0  0  0  0999 V2000
   -6.3570    4.4935    0.5005 C   0  0  0  0  0  0  0  0  0  0  0  0
   -7.6897    3.9472    0.3069 O   0  0  0  0  0  0  0  0  0  0  0  0
   -6.1395    5.6176   -0.5146 C   0  0  0  0  0  0  0  0  0  0  0  0
   -4.7841    6.1519   -0.3657 O   0  0  0  0  0  0  0  0  0  0  0  0
   -6.2834    5.0340   -1.9141 C   0  0  0  0  0  0  0  0  0  0  0  0
   -6.1455    6.1114   -2.8484 O   0  0  0  0  0  0  0  0  0  0  0  0
   -7.6755    4.4250   -2.0943 C   0  0  0  0  0  0  0  0  0  0  0  0
   -8.6551    5.4282   -1.9137 O   0  0  0  0  0  0  0  0  0  0  0  0
   -7.9229    3.3799   -1.0148 C   0  0  0  0  0  0  0  0  0  0  0  0
   -4.1391    5.4421   -0.5108 H   0  0  0  0  0  0  0  0  0  0  0  0
   -6.8309    6.7765   -2.6785 H   0  0  0  0  0  0  0  0  0  0  0  0
   -8.5782    5.7981   -1.0203 H   0  0  0  0  0  0  0  0  0  0  0  0
   -7.3763    5.9290    2.2015 O   0  0  0  0  0  0  0  0  0  0  0  0
   -6.2950    5.0153    1.9441 C   0  0  0  0  0  0  0  0  0  0  0  0
   -7.3201    6.2469    3.1162 H   0  0  0  0  0  0  0  0  0  0  0  0
   -6.9589    2.3156   -1.1493 O   0  0  0  0  0  0  0  0  0  0  0  0
   -7.1498    1.2690   -0.1679 C   0  0  0  0  0  0  0  0  0  0  0  0
   -6.9379    0.0010   -0.9708 C   0  0  0  0  0  0  0  0  0  0  0  0
   -7.5860   -1.2009   -0.2765 C   0  0  0  0  0  0  0  0  0  0  0  0
   -6.5665   -2.3394   -0.2528 C   0  0  0  0  0  0  0  0  0  0  0  0
   -7.0920   -3.5025    0.5968 C   0  0  0  0  0  0  0  0  0  0  0  0
   -9.4873   -4.1814    1.0271 C   0  0  0  0  0  0  0  0  0  0  0  0
   -8.4582   -3.0805    1.1842 C   0  0  0  0  0  0  0  0  0  0  0  0
 22 23  1  0  0  0
 23 21  1  0  0  0
 21 20  1  0  0  0
 20 19  1  0  0  0
 19 18  1  0  0  0
 18 17  1  0  0  0
 17 16  1  0  0  0
 16  9  1  0  0  0
  9  7  1  0  0  0
  9  2  1  0  0  0
  7  8  1  0  0  0
  7  5  1  0  0  0
  5  6  1  0  0  0
  5  3  1  0  0  0
  3  4  1  0  0  0
  3  1  1  0  0  0
  1  2  1  0  0  0
  1 14  1  0  0  0
 14 13  1  0  0  0
 13 15  1  0  0  0
  4 10  1  0  0  0
  6 11  1  0  0  0
  8 12  1  0  0  0
M  END
> <minimizedAffinity>
-5.30918

$$$$
5FS5_KGM_A_1159


 23 23  0  0  0  0  0  0  0  0999 V2000
   -6.5204    4.5222   -0.7231 C   0  0  0  0  0  0  0  0  0  0  0  0
   -7.8121    4.8941   -1.2756 O   0  0  0  0  0  0  0  0  0  0  0  0
   -5.6287    4.0244   -1.8625 C   0  0  0  0  0  0  0  0  0  0  0  0
   -4.3360    3.6018   -1.3194 O   0  0  0  0  0  0  0  0  0  0  0  0
   -6.3036    2.8217   -2.5090 C   0  0  0  0  0  0  0  0  0  0  0  0
   -5.4905    2.4120   -3.6152 O   0  0  0  0  0  0  0  0  0  0  0  0
   -7.6798    3.2135   -3.0511 C   0  0  0  0  0  0  0  0  0  0  0  0
   -7.5312    4.2312   -4.0211 O   0  0  0  0  0  0  0  0  0  0  0  0
   -8.5244    3.8047   -1.9304 C   0  0  0  0  0  0  0  0  0  0  0  0
   -4.4738    2.8942   -0.6703 H   0  0  0  0  0  0  0  0  0  0  0  0
   -5.4102    3.1443   -4.2461 H   0  0  0  0  0  0  0  0  0  0  0  0
   -7.1119    5.0060   -3.6153 H   0  0  0  0  0  0  0  0  0  0  0  0
   -6.7109    6.1452    1.0997 O   0  0  0  0  0  0  0  0  0  0  0  0
   -5.9407    5.7808   -0.0598 C   0  0  0  0  0  0  0  0  0  0  0  0
   -6.3300    6.9405    1.5039 H   0  0  0  0  0  0  0  0  0  0  0  0
   -8.7248    2.8092   -0.9062 O   0  0  0  0  0  0  0  0  0  0  0  0
  -10.1175    2.6657   -0.5391 C   0  0  0  0  0  0  0  0  0  0  0  0
  -10.1661    1.2912    0.0978 C   0  0  0  0  0  0  0  0  0  0  0  0
   -9.0428    0.3991   -0.4397 C   0  0  0  0  0  0  0  0  0  0  0  0
   -8.7947   -0.7137    0.5782 C   0  0  0  0  0  0  0  0  0  0  0  0
   -9.7802   -0.5915    1.7464 C   0  0  0  0  0  0  0  0  0  0  0  0
   -8.9316   -2.9659    1.9059 C   0  0  0  0  0  0  0  0  0  0  0  0
  -10.0434   -2.0127    2.2946 C   0  0  0  0  0  0  0  0  0  0  0  0
 22 23  1  0  0  0
 23 21  1  0  0  0
 21 20  1  0  0  0
 20 19  1  0  0  0
 19 18  1  0  0  0
 18 17  1  0  0  0
 17 16  1  0  0  0
 16  9  1  0  0  0
  9  7  1  0  0  0
  9  2  1  0  0  0
  7  8  1  0  0  0
  7  5  1  0  0  0
  5  6  1  0  0  0
  5  3  1  0  0  0
  3  4  1  0  0  0
  3  1  1  0  0  0
  1  2  1  0  0  0
  1 14  1  0  0  0
 14 13  1  0  0  0
 13 15  1  0  0  0
  4 10  1  0  0  0
  6 11  1  0  0  0
  8 12  1  0  0  0
M  END
> <minimizedAffinity>
-5.11346

$$$$
5FS5_KGM_A_1159


 23 23  0  0  0  0  0  0  0  0999 V2000
   -6.3883    2.8548   -1.1950 C   0  0  0  0  0  0  0  0  0  0  0  0
   -7.1657    2.7717    0.0299 O   0  0  0  0  0  0  0  0  0  0  0  0
   -5.3036    3.9183   -1.0119 C   0  0  0  0  0  0  0  0  0  0  0  0
   -4.5366    4.0494   -2.2526 O   0  0  0  0  0  0  0  0  0  0  0  0
   -5.9823    5.2490   -0.7144 C   0  0  0  0  0  0  0  0  0  0  0  0
   -4.9525    6.2167   -0.4780 O   0  0  0  0  0  0  0  0  0  0  0  0
   -6.8308    5.1397    0.5542 C   0  0  0  0  0  0  0  0  0  0  0  0
   -6.0024    4.7941    1.6463 O   0  0  0  0  0  0  0  0  0  0  0  0
   -7.8394    4.0090    0.4020 C   0  0  0  0  0  0  0  0  0  0  0  0
   -5.1320    4.3015   -2.9757 H   0  0  0  0  0  0  0  0  0  0  0  0
   -4.4065    5.9314    0.2713 H   0  0  0  0  0  0  0  0  0  0  0  0
   -5.5742    3.9417    1.4703 H   0  0  0  0  0  0  0  0  0  0  0  0
   -5.4095    1.3002   -2.8130 O   0  0  0  0  0  0  0  0  0  0  0  0
   -5.7819    1.4635   -1.4329 C   0  0  0  0  0  0  0  0  0  0  0  0
   -5.0294    0.4173   -2.9431 H   0  0  0  0  0  0  0  0  0  0  0  0
   -8.7280    4.3049   -0.6948 O   0  0  0  0  0  0  0  0  0  0  0  0
   -9.9981    3.6208   -0.5777 C   0  0  0  0  0  0  0  0  0  0  0  0
   -9.8730    2.4883   -1.5774 C   0  0  0  0  0  0  0  0  0  0  0  0
  -10.2002    1.1424   -0.9231 C   0  0  0  0  0  0  0  0  0  0  0  0
  -10.9147    1.4207    0.3990 C   0  0  0  0  0  0  0  0  0  0  0  0
  -10.2585    0.6242    1.5329 C   0  0  0  0  0  0  0  0  0  0  0  0
   -9.2624   -1.6974    1.4907 C   0  0  0  0  0  0  0  0  0  0  0  0
   -9.1914   -0.3016    0.9053 C   0  0  0  0  0  0  0  0  0  0  0  0
 22 23  1  0  0  0
 23 21  1  0  0  0
 21 20  1  0  0  0
 20 19  1  0  0  0
 19 18  1  0  0  0
 18 17  1  0  0  0
 17 16  1  0  0  0
 16  9  1  0  0  0
  9  7  1  0  0  0
  9  2  1  0  0  0
  7  8  1  0  0  0
  7  5  1  0  0  0
  5  6  1  0  0  0
  5  3  1  0  0  0
  3  4  1  0  0  0
  3  1  1  0  0  0
  1  2  1  0  0  0
  1 14  1  0  0  0
 14 13  1  0  0  0
 13 15  1  0  0  0
  4 10  1  0  0  0
  6 11  1  0  0  0
  8 12  1  0  0  0
M  END
> <minimizedAffinity>
-5.06448

$$$$
