5OVX_AY5_A_601


 32 34  0  0  0  0  0  0  0  0999 V2000
    0.9104  -14.1737  -23.0368 C   0  0  0  0  0  0  0  0  0  0  0  0
    2.1924  -14.6226  -22.8059 C   0  0  0  0  0  0  0  0  0  0  0  0
    2.6518  -14.5655  -25.1382 C   0  0  0  0  0  0  0  0  0  0  0  0
    3.0777  -14.8280  -23.8491 C   0  0  0  0  0  0  0  0  0  0  0  0
    1.3668  -14.1125  -25.3843 C   0  0  0  0  0  0  0  0  0  0  0  0
    0.5027  -13.9252  -24.3291 C   0  0  0  0  0  0  0  0  0  0  0  0
    4.5331  -16.4606  -22.7729 C   0  0  0  0  0  0  0  0  0  0  0  0
    6.7967  -15.2418  -23.7743 C   0  0  0  0  0  0  0  0  0  0  0  0
    4.4034  -15.3399  -23.5688 C   0  0  0  0  0  0  0  0  0  0  0  0
    6.9061  -16.3604  -22.9721 C   0  0  0  0  0  0  0  0  0  0  0  0
    5.5453  -14.7325  -24.0592 C   0  0  0  0  0  0  0  0  0  0  0  0
    5.7756  -16.9680  -22.4653 C   0  0  0  0  0  0  0  0  0  0  0  0
    8.2243  -16.9596  -22.6394 C   0  0  0  0  0  0  0  0  0  0  0  0
    8.9300  -17.1881  -23.8436 O   0  0  0  0  0  0  0  0  0  0  0  0
    9.1102  -16.3401  -24.2787 H   0  0  0  0  0  0  0  0  0  0  0  0
   10.0073  -14.8277  -22.4850 O   0  0  0  0  0  0  0  0  0  0  0  0
   10.4579  -17.0811  -21.2736 O   0  0  0  0  0  0  0  0  0  0  0  0
    8.5532  -15.4400  -20.3968 O   0  0  0  0  0  0  0  0  0  0  0  0
    9.3802  -15.9380  -21.6862 P   0  0  0  0  0  0  0  0  0  0  0  0
   10.9443  -17.3668  -22.0627 H   0  0  0  0  0  0  0  0  0  0  0  0
    7.9164  -14.7590  -20.6644 H   0  0  0  0  0  0  0  0  0  0  0  0
    0.8726  -13.8329  -26.7674 C   0  0  0  0  0  0  0  0  0  0  0  0
    1.5308  -14.7345  -27.6480 O   0  0  0  0  0  0  0  0  0  0  0  0
    2.4877  -14.5796  -27.6134 H   0  0  0  0  0  0  0  0  0  0  0  0
    0.1132  -11.4811  -26.9147 C   0  0  0  0  0  0  0  0  0  0  0  0
    0.2792  -10.1684  -27.2976 C   0  0  0  0  0  0  0  0  0  0  0  0
    2.2260  -12.0464  -27.8978 C   0  0  0  0  0  0  0  0  0  0  0  0
    1.0828  -12.4213  -27.2112 C   0  0  0  0  0  0  0  0  0  0  0  0
    1.4224   -9.8095  -27.9793 C   0  0  0  0  0  0  0  0  0  0  0  0
    2.3971  -10.7357  -28.2866 C   0  0  0  0  0  0  0  0  0  0  0  0
    1.6231   -8.1729  -28.4548 Cl  0  0  0  0  0  0  0  0  0  0  0  0
    3.8301  -10.2525  -29.1423 Cl  0  0  0  0  0  0  0  0  0  0  0  0
 32 30  1  0  0  0
 31 29  1  0  0  0
 30 29  2  0  0  0
 30 27  1  0  0  0
 29 26  1  0  0  0
 27 28  2  0  0  0
 26 25  2  0  0  0
 23 22  1  0  0  0
 28 25  1  0  0  0
 28 22  1  0  0  0
 22  5  1  0  0  0
  5  3  2  0  0  0
  5  6  1  0  0  0
  3  4  1  0  0  0
  6  1  2  0  0  0
 11  8  2  0  0  0
 11  9  1  0  0  0
 14 13  1  0  0  0
  8 10  1  0  0  0
  4  9  1  0  0  0
  4  2  2  0  0  0
  9  7  2  0  0  0
 10 13  1  0  0  0
 10 12  2  0  0  0
 16 19  2  0  0  0
  1  2  1  0  0  0
  7 12  1  0  0  0
 13 19  1  0  0  0
 19 17  1  0  0  0
 19 18  1  0  0  0
 23 24  1  0  0  0
 14 15  1  0  0  0
 17 20  1  0  0  0
 18 21  1  0  0  0
M  END
> <minimizedAffinity>
-7.90638

$$$$
5OVX_AY5_A_601


 32 34  0  0  0  0  0  0  0  0999 V2000
    0.9974  -14.5432  -23.7594 C   0  0  0  0  0  0  0  0  0  0  0  0
    2.2134  -15.0005  -23.3008 C   0  0  0  0  0  0  0  0  0  0  0  0
    3.2469  -14.3544  -25.3425 C   0  0  0  0  0  0  0  0  0  0  0  0
    3.3512  -14.9167  -24.0836 C   0  0  0  0  0  0  0  0  0  0  0  0
    2.0314  -13.8894  -25.8152 C   0  0  0  0  0  0  0  0  0  0  0  0
    0.9126  -13.9932  -25.0197 C   0  0  0  0  0  0  0  0  0  0  0  0
    5.7886  -14.9153  -24.0483 C   0  0  0  0  0  0  0  0  0  0  0  0
    5.8560  -16.9634  -22.2009 C   0  0  0  0  0  0  0  0  0  0  0  0
    4.6025  -15.4460  -23.5814 C   0  0  0  0  0  0  0  0  0  0  0  0
    7.0316  -16.4233  -22.6838 C   0  0  0  0  0  0  0  0  0  0  0  0
    4.6483  -16.4776  -22.6611 C   0  0  0  0  0  0  0  0  0  0  0  0
    7.0002  -15.4029  -23.6123 C   0  0  0  0  0  0  0  0  0  0  0  0
    8.3606  -16.8977  -22.2188 C   0  0  0  0  0  0  0  0  0  0  0  0
    9.2273  -16.9676  -23.3343 O   0  0  0  0  0  0  0  0  0  0  0  0
    9.3594  -16.0779  -23.6974 H   0  0  0  0  0  0  0  0  0  0  0  0
    9.8167  -14.5790  -21.7176 O   0  0  0  0  0  0  0  0  0  0  0  0
   10.4429  -16.8527  -20.6281 O   0  0  0  0  0  0  0  0  0  0  0  0
    8.2573  -15.5454  -19.8510 O   0  0  0  0  0  0  0  0  0  0  0  0
    9.2680  -15.8236  -21.0739 P   0  0  0  0  0  0  0  0  0  0  0  0
   11.0395  -17.0065  -21.3774 H   0  0  0  0  0  0  0  0  0  0  0  0
    7.5647  -14.9298  -20.1375 H   0  0  0  0  0  0  0  0  0  0  0  0
    1.8837  -13.2890  -27.1765 C   0  0  0  0  0  0  0  0  0  0  0  0
    3.1903  -13.0425  -27.6800 O   0  0  0  0  0  0  0  0  0  0  0  0
    3.6464  -12.4122  -27.1008 H   0  0  0  0  0  0  0  0  0  0  0  0
    1.6659  -10.8492  -26.8174 C   0  0  0  0  0  0  0  0  0  0  0  0
    0.9488   -9.6733  -26.8383 C   0  0  0  0  0  0  0  0  0  0  0  0
   -0.2558  -12.0480  -27.6046 C   0  0  0  0  0  0  0  0  0  0  0  0
    1.0691  -12.0362  -27.2001 C   0  0  0  0  0  0  0  0  0  0  0  0
   -0.3684   -9.6999  -27.2442 C   0  0  0  0  0  0  0  0  0  0  0  0
   -0.9800  -10.8761  -27.6249 C   0  0  0  0  0  0  0  0  0  0  0  0
   -1.2572   -8.2321  -27.2671 Cl  0  0  0  0  0  0  0  0  0  0  0  0
   -2.6405  -10.8775  -28.1370 Cl  0  0  0  0  0  0  0  0  0  0  0  0
 32 30  1  0  0  0
 31 29  1  0  0  0
 30 29  2  0  0  0
 30 27  1  0  0  0
 29 26  1  0  0  0
 27 28  2  0  0  0
 26 25  2  0  0  0
 23 22  1  0  0  0
 28 25  1  0  0  0
 28 22  1  0  0  0
 22  5  1  0  0  0
  5  3  2  0  0  0
  5  6  1  0  0  0
  3  4  1  0  0  0
  6  1  2  0  0  0
 11  8  2  0  0  0
 11  9  1  0  0  0
 14 13  1  0  0  0
  8 10  1  0  0  0
  4  9  1  0  0  0
  4  2  2  0  0  0
  9  7  2  0  0  0
 10 13  1  0  0  0
 10 12  2  0  0  0
 16 19  2  0  0  0
  1  2  1  0  0  0
  7 12  1  0  0  0
 13 19  1  0  0  0
 19 17  1  0  0  0
 19 18  1  0  0  0
 23 24  1  0  0  0
 14 15  1  0  0  0
 17 20  1  0  0  0
 18 21  1  0  0  0
M  END
> <minimizedAffinity>
-7.84316

$$$$
5OVX_AY5_A_601


 32 34  0  0  0  0  0  0  0  0999 V2000
    0.2854  -15.8052  -21.7890 C   0  0  0  0  0  0  0  0  0  0  0  0
    0.3320  -15.0072  -22.9112 C   0  0  0  0  0  0  0  0  0  0  0  0
    2.6194  -15.5685  -23.2376 C   0  0  0  0  0  0  0  0  0  0  0  0
    1.4959  -14.8744  -23.6474 C   0  0  0  0  0  0  0  0  0  0  0  0
    2.5861  -16.3751  -22.1127 C   0  0  0  0  0  0  0  0  0  0  0  0
    1.4177  -16.4826  -21.3927 C   0  0  0  0  0  0  0  0  0  0  0  0
    0.4989  -13.0724  -24.9515 C   0  0  0  0  0  0  0  0  0  0  0  0
    2.5039  -13.2055  -26.8421 C   0  0  0  0  0  0  0  0  0  0  0  0
    1.5155  -13.9938  -24.7972 C   0  0  0  0  0  0  0  0  0  0  0  0
    1.4757  -12.2944  -26.9816 C   0  0  0  0  0  0  0  0  0  0  0  0
    2.5115  -14.0568  -25.7551 C   0  0  0  0  0  0  0  0  0  0  0  0
    0.4687  -12.2302  -26.0404 C   0  0  0  0  0  0  0  0  0  0  0  0
    1.4190  -11.3463  -28.1242 C   0  0  0  0  0  0  0  0  0  0  0  0
    0.1005  -10.8449  -28.2260 O   0  0  0  0  0  0  0  0  0  0  0  0
   -0.1142  -10.3354  -27.4290 H   0  0  0  0  0  0  0  0  0  0  0  0
    1.8426   -8.6687  -28.7558 O   0  0  0  0  0  0  0  0  0  0  0  0
    3.7967  -10.3772  -28.6496 O   0  0  0  0  0  0  0  0  0  0  0  0
    2.5922   -9.5708  -26.4161 O   0  0  0  0  0  0  0  0  0  0  0  0
    2.4127   -9.8350  -27.9948 P   0  0  0  0  0  0  0  0  0  0  0  0
    3.6674  -10.5297  -29.5988 H   0  0  0  0  0  0  0  0  0  0  0  0
    1.7560   -9.2482  -26.0451 H   0  0  0  0  0  0  0  0  0  0  0  0
    3.7875  -17.1272  -21.6367 C   0  0  0  0  0  0  0  0  0  0  0  0
    4.6550  -16.1939  -21.0061 O   0  0  0  0  0  0  0  0  0  0  0  0
    4.9323  -15.5238  -21.6503 H   0  0  0  0  0  0  0  0  0  0  0  0
    3.8469  -18.8765  -23.3876 C   0  0  0  0  0  0  0  0  0  0  0  0
    4.4766  -19.5678  -24.3989 C   0  0  0  0  0  0  0  0  0  0  0  0
    5.8112  -17.5398  -23.0634 C   0  0  0  0  0  0  0  0  0  0  0  0
    4.5087  -17.8630  -22.7193 C   0  0  0  0  0  0  0  0  0  0  0  0
    5.7723  -19.2346  -24.7314 C   0  0  0  0  0  0  0  0  0  0  0  0
    6.4482  -18.2293  -24.0719 C   0  0  0  0  0  0  0  0  0  0  0  0
    6.5522  -20.1002  -25.9914 Cl  0  0  0  0  0  0  0  0  0  0  0  0
    8.0793  -17.8282  -24.5168 Cl  0  0  0  0  0  0  0  0  0  0  0  0
 32 30  1  0  0  0
 31 29  1  0  0  0
 30 29  2  0  0  0
 30 27  1  0  0  0
 29 26  1  0  0  0
 27 28  2  0  0  0
 26 25  2  0  0  0
 23 22  1  0  0  0
 28 25  1  0  0  0
 28 22  1  0  0  0
 22  5  1  0  0  0
  5  3  2  0  0  0
  5  6  1  0  0  0
  3  4  1  0  0  0
  6  1  2  0  0  0
 11  8  2  0  0  0
 11  9  1  0  0  0
 14 13  1  0  0  0
  8 10  1  0  0  0
  4  9  1  0  0  0
  4  2  2  0  0  0
  9  7  2  0  0  0
 10 13  1  0  0  0
 10 12  2  0  0  0
 16 19  2  0  0  0
  1  2  1  0  0  0
  7 12  1  0  0  0
 13 19  1  0  0  0
 19 17  1  0  0  0
 19 18  1  0  0  0
 23 24  1  0  0  0
 14 15  1  0  0  0
 17 20  1  0  0  0
 18 21  1  0  0  0
M  END
> <minimizedAffinity>
-7.18680

$$$$
5OVX_AY5_A_601


 32 34  0  0  0  0  0  0  0  0999 V2000
    1.1789  -15.9986  -21.6894 C   0  0  0  0  0  0  0  0  0  0  0  0
    1.0161  -15.1122  -22.7316 C   0  0  0  0  0  0  0  0  0  0  0  0
    2.9006  -16.0441  -23.8425 C   0  0  0  0  0  0  0  0  0  0  0  0
    1.8731  -15.1191  -23.8177 C   0  0  0  0  0  0  0  0  0  0  0  0
    3.0748  -16.9416  -22.8027 C   0  0  0  0  0  0  0  0  0  0  0  0
    2.2135  -16.9075  -21.7293 C   0  0  0  0  0  0  0  0  0  0  0  0
    2.6458  -14.0530  -25.8692 C   0  0  0  0  0  0  0  0  0  0  0  0
    0.4613  -12.3687  -25.9273 C   0  0  0  0  0  0  0  0  0  0  0  0
    1.6933  -14.1442  -24.8738 C   0  0  0  0  0  0  0  0  0  0  0  0
    1.4273  -12.2892  -26.9108 C   0  0  0  0  0  0  0  0  0  0  0  0
    0.6062  -13.2896  -24.9088 C   0  0  0  0  0  0  0  0  0  0  0  0
    2.5237  -13.1265  -26.8804 C   0  0  0  0  0  0  0  0  0  0  0  0
    1.3211  -11.3257  -28.0368 C   0  0  0  0  0  0  0  0  0  0  0  0
    0.0041  -10.8107  -28.0637 O   0  0  0  0  0  0  0  0  0  0  0  0
   -0.1638  -10.3097  -27.2503 H   0  0  0  0  0  0  0  0  0  0  0  0
    1.7588   -8.6558  -28.6908 O   0  0  0  0  0  0  0  0  0  0  0  0
    3.6951  -10.3865  -28.6288 O   0  0  0  0  0  0  0  0  0  0  0  0
    2.5593   -9.5572  -26.3678 O   0  0  0  0  0  0  0  0  0  0  0  0
    2.3352   -9.8256  -27.9401 P   0  0  0  0  0  0  0  0  0  0  0  0
    3.5391  -10.5412  -29.5735 H   0  0  0  0  0  0  0  0  0  0  0  0
    1.7370   -9.2234  -25.9763 H   0  0  0  0  0  0  0  0  0  0  0  0
    4.1839  -17.9442  -22.7940 C   0  0  0  0  0  0  0  0  0  0  0  0
    3.9086  -18.8787  -21.7585 O   0  0  0  0  0  0  0  0  0  0  0  0
    3.8874  -18.4185  -20.9049 H   0  0  0  0  0  0  0  0  0  0  0  0
    6.0739  -16.5834  -23.6339 C   0  0  0  0  0  0  0  0  0  0  0  0
    7.3164  -16.0054  -23.4942 C   0  0  0  0  0  0  0  0  0  0  0  0
    6.2557  -17.5303  -21.4384 C   0  0  0  0  0  0  0  0  0  0  0  0
    5.5404  -17.3442  -22.6100 C   0  0  0  0  0  0  0  0  0  0  0  0
    8.0163  -16.1981  -22.3224 C   0  0  0  0  0  0  0  0  0  0  0  0
    7.5003  -16.9576  -21.2931 C   0  0  0  0  0  0  0  0  0  0  0  0
    9.5642  -15.4764  -22.1545 Cl  0  0  0  0  0  0  0  0  0  0  0  0
    8.4038  -17.1785  -19.8253 Cl  0  0  0  0  0  0  0  0  0  0  0  0
 32 30  1  0  0  0
 31 29  1  0  0  0
 30 29  2  0  0  0
 30 27  1  0  0  0
 29 26  1  0  0  0
 27 28  2  0  0  0
 26 25  2  0  0  0
 23 22  1  0  0  0
 28 25  1  0  0  0
 28 22  1  0  0  0
 22  5  1  0  0  0
  5  3  2  0  0  0
  5  6  1  0  0  0
  3  4  1  0  0  0
  6  1  2  0  0  0
 11  8  2  0  0  0
 11  9  1  0  0  0
 14 13  1  0  0  0
  8 10  1  0  0  0
  4  9  1  0  0  0
  4  2  2  0  0  0
  9  7  2  0  0  0
 10 13  1  0  0  0
 10 12  2  0  0  0
 16 19  2  0  0  0
  1  2  1  0  0  0
  7 12  1  0  0  0
 13 19  1  0  0  0
 19 17  1  0  0  0
 19 18  1  0  0  0
 23 24  1  0  0  0
 14 15  1  0  0  0
 17 20  1  0  0  0
 18 21  1  0  0  0
M  END
> <minimizedAffinity>
-6.84644

$$$$
5OVX_AY5_A_601


 32 34  0  0  0  0  0  0  0  0999 V2000
    0.8838  -15.6484  -22.5122 C   0  0  0  0  0  0  0  0  0  0  0  0
    2.2324  -15.8428  -22.3079 C   0  0  0  0  0  0  0  0  0  0  0  0
    2.6664  -15.3664  -24.5967 C   0  0  0  0  0  0  0  0  0  0  0  0
    3.1400  -15.7089  -23.3436 C   0  0  0  0  0  0  0  0  0  0  0  0
    1.3139  -15.1666  -24.8156 C   0  0  0  0  0  0  0  0  0  0  0  0
    0.4309  -15.3152  -23.7699 C   0  0  0  0  0  0  0  0  0  0  0  0
    5.4877  -15.2277  -23.7892 C   0  0  0  0  0  0  0  0  0  0  0  0
    6.3192  -17.1471  -21.9902 C   0  0  0  0  0  0  0  0  0  0  0  0
    4.5448  -15.9617  -23.0975 C   0  0  0  0  0  0  0  0  0  0  0  0
    7.2470  -16.4064  -22.6955 C   0  0  0  0  0  0  0  0  0  0  0  0
    4.9731  -16.9266  -22.2036 C   0  0  0  0  0  0  0  0  0  0  0  0
    6.8333  -15.4501  -23.6002 C   0  0  0  0  0  0  0  0  0  0  0  0
    8.7083  -16.5917  -22.5012 C   0  0  0  0  0  0  0  0  0  0  0  0
    9.3630  -15.3862  -22.8453 O   0  0  0  0  0  0  0  0  0  0  0  0
    9.0869  -14.6832  -22.2366 H   0  0  0  0  0  0  0  0  0  0  0  0
    8.7582  -18.1652  -20.2057 O   0  0  0  0  0  0  0  0  0  0  0  0
    8.6739  -15.5715  -20.0874 O   0  0  0  0  0  0  0  0  0  0  0  0
   10.8931  -16.8103  -20.8810 O   0  0  0  0  0  0  0  0  0  0  0  0
    9.2861  -16.8917  -20.8088 P   0  0  0  0  0  0  0  0  0  0  0  0
    7.7069  -15.6403  -20.0541 H   0  0  0  0  0  0  0  0  0  0  0  0
   11.2381  -17.6066  -21.3144 H   0  0  0  0  0  0  0  0  0  0  0  0
    0.7697  -14.8090  -26.1615 C   0  0  0  0  0  0  0  0  0  0  0  0
    1.3013  -15.7364  -27.0988 O   0  0  0  0  0  0  0  0  0  0  0  0
    2.2683  -15.6613  -27.1151 H   0  0  0  0  0  0  0  0  0  0  0  0
    0.4018  -12.3687  -25.9640 C   0  0  0  0  0  0  0  0  0  0  0  0
    0.6638  -11.0639  -26.3191 C   0  0  0  0  0  0  0  0  0  0  0  0
    2.0098  -13.1394  -27.5672 C   0  0  0  0  0  0  0  0  0  0  0  0
    1.0720  -13.4074  -26.5834 C   0  0  0  0  0  0  0  0  0  0  0  0
    1.6004  -10.8121  -27.2988 C   0  0  0  0  0  0  0  0  0  0  0  0
    2.2747  -11.8368  -27.9295 C   0  0  0  0  0  0  0  0  0  0  0  0
    1.9219   -9.1846  -27.7378 Cl  0  0  0  0  0  0  0  0  0  0  0  0
    3.4539  -11.4882  -29.1572 Cl  0  0  0  0  0  0  0  0  0  0  0  0
 32 30  1  0  0  0
 31 29  1  0  0  0
 30 29  2  0  0  0
 30 27  1  0  0  0
 29 26  1  0  0  0
 27 28  2  0  0  0
 26 25  2  0  0  0
 23 22  1  0  0  0
 28 25  1  0  0  0
 28 22  1  0  0  0
 22  5  1  0  0  0
  5  3  2  0  0  0
  5  6  1  0  0  0
  3  4  1  0  0  0
  6  1  2  0  0  0
 11  8  2  0  0  0
 11  9  1  0  0  0
 14 13  1  0  0  0
  8 10  1  0  0  0
  4  9  1  0  0  0
  4  2  2  0  0  0
  9  7  2  0  0  0
 10 13  1  0  0  0
 10 12  2  0  0  0
 16 19  2  0  0  0
  1  2  1  0  0  0
  7 12  1  0  0  0
 13 19  1  0  0  0
 19 17  1  0  0  0
 19 18  1  0  0  0
 23 24  1  0  0  0
 14 15  1  0  0  0
 17 20  1  0  0  0
 18 21  1  0  0  0
M  END
> <minimizedAffinity>
-6.76946

$$$$
5OVX_AY5_A_601


 32 34  0  0  0  0  0  0  0  0999 V2000
    4.7488  -16.5248  -22.3730 C   0  0  0  0  0  0  0  0  0  0  0  0
    4.1695  -15.6166  -23.2318 C   0  0  0  0  0  0  0  0  0  0  0  0
    2.0065  -16.4002  -22.6306 C   0  0  0  0  0  0  0  0  0  0  0  0
    2.7954  -15.5433  -23.3758 C   0  0  0  0  0  0  0  0  0  0  0  0
    2.5755  -17.3167  -21.7626 C   0  0  0  0  0  0  0  0  0  0  0  0
    3.9459  -17.3753  -21.6450 C   0  0  0  0  0  0  0  0  0  0  0  0
    1.0278  -13.9904  -24.0132 C   0  0  0  0  0  0  0  0  0  0  0  0
    2.2715  -13.4111  -26.4068 C   0  0  0  0  0  0  0  0  0  0  0  0
    2.2267  -14.6030  -24.3194 C   0  0  0  0  0  0  0  0  0  0  0  0
    1.0693  -12.8128  -26.0850 C   0  0  0  0  0  0  0  0  0  0  0  0
    2.8376  -14.3108  -25.5256 C   0  0  0  0  0  0  0  0  0  0  0  0
    0.4426  -13.1057  -24.8910 C   0  0  0  0  0  0  0  0  0  0  0  0
    0.4173  -11.8297  -26.9881 C   0  0  0  0  0  0  0  0  0  0  0  0
   -0.9766  -11.8579  -26.7503 O   0  0  0  0  0  0  0  0  0  0  0  0
   -1.1558  -11.5657  -25.8429 H   0  0  0  0  0  0  0  0  0  0  0  0
    0.0604   -9.4287  -25.6259 O   0  0  0  0  0  0  0  0  0  0  0  0
    0.4010   -9.5060  -28.2001 O   0  0  0  0  0  0  0  0  0  0  0  0
    2.4290  -10.0368  -26.5585 O   0  0  0  0  0  0  0  0  0  0  0  0
    0.8295  -10.0810  -26.7427 P   0  0  0  0  0  0  0  0  0  0  0  0
   -0.5642   -9.5413  -28.2906 H   0  0  0  0  0  0  0  0  0  0  0  0
    2.6634  -10.3837  -25.6835 H   0  0  0  0  0  0  0  0  0  0  0  0
    1.7502  -18.2655  -20.9538 C   0  0  0  0  0  0  0  0  0  0  0  0
    0.8894  -18.9561  -21.8501 O   0  0  0  0  0  0  0  0  0  0  0  0
    0.3046  -18.3202  -22.2912 H   0  0  0  0  0  0  0  0  0  0  0  0
    1.6348  -16.9515  -18.8586 C   0  0  0  0  0  0  0  0  0  0  0  0
    0.9370  -16.3231  -17.8509 C   0  0  0  0  0  0  0  0  0  0  0  0
   -0.4268  -17.6359  -19.8743 C   0  0  0  0  0  0  0  0  0  0  0  0
    0.9582  -17.6068  -19.8709 C   0  0  0  0  0  0  0  0  0  0  0  0
   -0.4410  -16.3593  -17.8678 C   0  0  0  0  0  0  0  0  0  0  0  0
   -1.1311  -17.0121  -18.8678 C   0  0  0  0  0  0  0  0  0  0  0  0
   -1.3050  -15.5756  -16.6091 Cl  0  0  0  0  0  0  0  0  0  0  0  0
   -2.8686  -17.0361  -18.8653 Cl  0  0  0  0  0  0  0  0  0  0  0  0
 32 30  1  0  0  0
 31 29  1  0  0  0
 30 29  2  0  0  0
 30 27  1  0  0  0
 29 26  1  0  0  0
 27 28  2  0  0  0
 26 25  2  0  0  0
 23 22  1  0  0  0
 28 25  1  0  0  0
 28 22  1  0  0  0
 22  5  1  0  0  0
  5  3  2  0  0  0
  5  6  1  0  0  0
  3  4  1  0  0  0
  6  1  2  0  0  0
 11  8  2  0  0  0
 11  9  1  0  0  0
 14 13  1  0  0  0
  8 10  1  0  0  0
  4  9  1  0  0  0
  4  2  2  0  0  0
  9  7  2  0  0  0
 10 13  1  0  0  0
 10 12  2  0  0  0
 16 19  2  0  0  0
  1  2  1  0  0  0
  7 12  1  0  0  0
 13 19  1  0  0  0
 19 17  1  0  0  0
 19 18  1  0  0  0
 23 24  1  0  0  0
 14 15  1  0  0  0
 17 20  1  0  0  0
 18 21  1  0  0  0
M  END
> <minimizedAffinity>
-6.69380

$$$$
5OVX_AY5_A_601


 32 34  0  0  0  0  0  0  0  0999 V2000
   -0.0258  -11.5700  -26.6666 C   0  0  0  0  0  0  0  0  0  0  0  0
    0.5666  -12.5265  -25.8714 C   0  0  0  0  0  0  0  0  0  0  0  0
    1.9527  -13.1998  -27.6823 C   0  0  0  0  0  0  0  0  0  0  0  0
    1.5581  -13.3549  -26.3661 C   0  0  0  0  0  0  0  0  0  0  0  0
    1.3669  -12.2416  -28.4921 C   0  0  0  0  0  0  0  0  0  0  0  0
    0.3759  -11.4363  -27.9777 C   0  0  0  0  0  0  0  0  0  0  0  0
    1.3878  -15.5095  -25.2387 C   0  0  0  0  0  0  0  0  0  0  0  0
    3.8984  -15.2322  -24.1287 C   0  0  0  0  0  0  0  0  0  0  0  0
    2.1272  -14.3755  -25.5102 C   0  0  0  0  0  0  0  0  0  0  0  0
    3.1414  -16.3566  -23.8646 C   0  0  0  0  0  0  0  0  0  0  0  0
    3.3816  -14.2436  -24.9422 C   0  0  0  0  0  0  0  0  0  0  0  0
    1.8831  -16.4945  -24.4139 C   0  0  0  0  0  0  0  0  0  0  0  0
    3.6479  -17.4577  -23.0053 C   0  0  0  0  0  0  0  0  0  0  0  0
    4.9962  -17.7111  -23.3492 O   0  0  0  0  0  0  0  0  0  0  0  0
    5.5337  -16.9293  -23.1476 H   0  0  0  0  0  0  0  0  0  0  0  0
    3.6757  -18.3840  -20.3806 O   0  0  0  0  0  0  0  0  0  0  0  0
    2.4200  -16.2117  -21.0538 O   0  0  0  0  0  0  0  0  0  0  0  0
    5.0817  -16.2685  -21.0113 O   0  0  0  0  0  0  0  0  0  0  0  0
    3.7430  -17.1388  -21.2228 P   0  0  0  0  0  0  0  0  0  0  0  0
    1.6264  -16.7538  -21.1847 H   0  0  0  0  0  0  0  0  0  0  0  0
    5.8587  -16.8397  -21.1162 H   0  0  0  0  0  0  0  0  0  0  0  0
    1.7621  -12.0587  -29.9224 C   0  0  0  0  0  0  0  0  0  0  0  0
    2.4805  -13.2193  -30.3202 O   0  0  0  0  0  0  0  0  0  0  0  0
    3.2793  -13.3071  -29.7769 H   0  0  0  0  0  0  0  0  0  0  0  0
    3.8061  -10.7105  -29.5569 C   0  0  0  0  0  0  0  0  0  0  0  0
    4.5867   -9.5967  -29.7747 C   0  0  0  0  0  0  0  0  0  0  0  0
    2.1181   -9.8255  -31.0121 C   0  0  0  0  0  0  0  0  0  0  0  0
    2.5741  -10.8293  -30.1733 C   0  0  0  0  0  0  0  0  0  0  0  0
    4.1206   -8.6063  -30.6127 C   0  0  0  0  0  0  0  0  0  0  0  0
    2.8923   -8.7073  -31.2320 C   0  0  0  0  0  0  0  0  0  0  0  0
    5.0970   -7.2204  -30.8794 Cl  0  0  0  0  0  0  0  0  0  0  0  0
    2.3338   -7.4450  -32.2875 Cl  0  0  0  0  0  0  0  0  0  0  0  0
 32 30  1  0  0  0
 31 29  1  0  0  0
 30 29  2  0  0  0
 30 27  1  0  0  0
 29 26  1  0  0  0
 27 28  2  0  0  0
 26 25  2  0  0  0
 23 22  1  0  0  0
 28 25  1  0  0  0
 28 22  1  0  0  0
 22  5  1  0  0  0
  5  3  2  0  0  0
  5  6  1  0  0  0
  3  4  1  0  0  0
  6  1  2  0  0  0
 11  8  2  0  0  0
 11  9  1  0  0  0
 14 13  1  0  0  0
  8 10  1  0  0  0
  4  9  1  0  0  0
  4  2  2  0  0  0
  9  7  2  0  0  0
 10 13  1  0  0  0
 10 12  2  0  0  0
 16 19  2  0  0  0
  1  2  1  0  0  0
  7 12  1  0  0  0
 13 19  1  0  0  0
 19 17  1  0  0  0
 19 18  1  0  0  0
 23 24  1  0  0  0
 14 15  1  0  0  0
 17 20  1  0  0  0
 18 21  1  0  0  0
M  END
> <minimizedAffinity>
-6.56832

$$$$
5OVX_AY5_A_601


 32 34  0  0  0  0  0  0  0  0999 V2000
    1.8498  -14.1507  -25.2384 C   0  0  0  0  0  0  0  0  0  0  0  0
    3.0877  -14.5601  -24.7931 C   0  0  0  0  0  0  0  0  0  0  0  0
    2.0752  -16.2864  -23.5092 C   0  0  0  0  0  0  0  0  0  0  0  0
    3.2184  -15.6274  -23.9224 C   0  0  0  0  0  0  0  0  0  0  0  0
    0.8251  -15.8866  -23.9501 C   0  0  0  0  0  0  0  0  0  0  0  0
    0.7222  -14.8156  -24.8090 C   0  0  0  0  0  0  0  0  0  0  0  0
    5.6392  -15.3428  -23.9463 C   0  0  0  0  0  0  0  0  0  0  0  0
    5.9865  -17.3438  -22.0788 C   0  0  0  0  0  0  0  0  0  0  0  0
    4.5339  -16.0010  -23.4451 C   0  0  0  0  0  0  0  0  0  0  0  0
    7.0800  -16.6776  -22.5960 C   0  0  0  0  0  0  0  0  0  0  0  0
    4.7203  -17.0077  -22.5148 C   0  0  0  0  0  0  0  0  0  0  0  0
    6.9089  -15.6806  -23.5346 C   0  0  0  0  0  0  0  0  0  0  0  0
    8.4654  -16.9883  -22.1582 C   0  0  0  0  0  0  0  0  0  0  0  0
    9.3122  -16.9525  -23.2905 O   0  0  0  0  0  0  0  0  0  0  0  0
    9.3287  -16.0532  -23.6536 H   0  0  0  0  0  0  0  0  0  0  0  0
    9.7505  -14.5614  -21.7037 O   0  0  0  0  0  0  0  0  0  0  0  0
   10.4795  -16.7446  -20.4992 O   0  0  0  0  0  0  0  0  0  0  0  0
    8.1873  -15.5535  -19.8538 O   0  0  0  0  0  0  0  0  0  0  0  0
    9.2587  -15.8129  -21.0282 P   0  0  0  0  0  0  0  0  0  0  0  0
   11.1123  -16.8885  -21.2201 H   0  0  0  0  0  0  0  0  0  0  0  0
    7.4679  -14.9962  -20.1898 H   0  0  0  0  0  0  0  0  0  0  0  0
   -0.4300  -16.5701  -23.5108 C   0  0  0  0  0  0  0  0  0  0  0  0
   -1.5245  -15.7586  -23.9172 O   0  0  0  0  0  0  0  0  0  0  0  0
   -1.4637  -14.8930  -23.4837 H   0  0  0  0  0  0  0  0  0  0  0  0
   -0.6769  -15.7669  -21.1820 C   0  0  0  0  0  0  0  0  0  0  0  0
   -0.7511  -15.9749  -19.8224 C   0  0  0  0  0  0  0  0  0  0  0  0
   -0.3788  -18.1197  -21.5367 C   0  0  0  0  0  0  0  0  0  0  0  0
   -0.4923  -16.8345  -22.0412 C   0  0  0  0  0  0  0  0  0  0  0  0
   -0.6377  -17.2593  -19.3347 C   0  0  0  0  0  0  0  0  0  0  0  0
   -0.4490  -18.3346  -20.1776 C   0  0  0  0  0  0  0  0  0  0  0  0
   -0.7297  -17.5122  -17.6398 Cl  0  0  0  0  0  0  0  0  0  0  0  0
   -0.3149  -19.9430  -19.5339 Cl  0  0  0  0  0  0  0  0  0  0  0  0
 32 30  1  0  0  0
 31 29  1  0  0  0
 30 29  2  0  0  0
 30 27  1  0  0  0
 29 26  1  0  0  0
 27 28  2  0  0  0
 26 25  2  0  0  0
 23 22  1  0  0  0
 28 25  1  0  0  0
 28 22  1  0  0  0
 22  5  1  0  0  0
  5  3  2  0  0  0
  5  6  1  0  0  0
  3  4  1  0  0  0
  6  1  2  0  0  0
 11  8  2  0  0  0
 11  9  1  0  0  0
 14 13  1  0  0  0
  8 10  1  0  0  0
  4  9  1  0  0  0
  4  2  2  0  0  0
  9  7  2  0  0  0
 10 13  1  0  0  0
 10 12  2  0  0  0
 16 19  2  0  0  0
  1  2  1  0  0  0
  7 12  1  0  0  0
 13 19  1  0  0  0
 19 17  1  0  0  0
 19 18  1  0  0  0
 23 24  1  0  0  0
 14 15  1  0  0  0
 17 20  1  0  0  0
 18 21  1  0  0  0
M  END
> <minimizedAffinity>
-6.56562

$$$$
5OVX_AY5_A_601


 32 34  0  0  0  0  0  0  0  0999 V2000
   -1.3123  -12.7798  -27.5345 C   0  0  0  0  0  0  0  0  0  0  0  0
   -0.6592  -13.6693  -26.7096 C   0  0  0  0  0  0  0  0  0  0  0  0
    0.5940  -11.8896  -25.7526 C   0  0  0  0  0  0  0  0  0  0  0  0
    0.3025  -13.2399  -25.8123 C   0  0  0  0  0  0  0  0  0  0  0  0
   -0.0558  -10.9846  -26.5747 C   0  0  0  0  0  0  0  0  0  0  0  0
   -1.0021  -11.4393  -27.4652 C   0  0  0  0  0  0  0  0  0  0  0  0
    1.6121  -15.2850  -25.6022 C   0  0  0  0  0  0  0  0  0  0  0  0
    1.7137  -15.0486  -22.8552 C   0  0  0  0  0  0  0  0  0  0  0  0
    0.9957  -14.2111  -24.9913 C   0  0  0  0  0  0  0  0  0  0  0  0
    2.3194  -16.1184  -23.4841 C   0  0  0  0  0  0  0  0  0  0  0  0
    1.0466  -14.1067  -23.6130 C   0  0  0  0  0  0  0  0  0  0  0  0
    2.2647  -16.2418  -24.8574 C   0  0  0  0  0  0  0  0  0  0  0  0
    3.0599  -17.1575  -22.7230 C   0  0  0  0  0  0  0  0  0  0  0  0
    3.2220  -18.2912  -23.5530 O   0  0  0  0  0  0  0  0  0  0  0  0
    3.7735  -18.0572  -24.3158 H   0  0  0  0  0  0  0  0  0  0  0  0
    5.6980  -17.9470  -22.3175 O   0  0  0  0  0  0  0  0  0  0  0  0
    4.4969  -16.3019  -20.7052 O   0  0  0  0  0  0  0  0  0  0  0  0
    5.1979  -15.5170  -23.1511 O   0  0  0  0  0  0  0  0  0  0  0  0
    4.7635  -16.7703  -22.2375 P   0  0  0  0  0  0  0  0  0  0  0  0
    4.2369  -17.0700  -20.1729 H   0  0  0  0  0  0  0  0  0  0  0  0
    5.3521  -15.8176  -24.0603 H   0  0  0  0  0  0  0  0  0  0  0  0
    0.2469   -9.5208  -26.5432 C   0  0  0  0  0  0  0  0  0  0  0  0
   -0.9913   -8.8293  -26.4429 O   0  0  0  0  0  0  0  0  0  0  0  0
   -1.5356   -9.0261  -27.2213 H   0  0  0  0  0  0  0  0  0  0  0  0
    0.4850   -8.0274  -28.5034 C   0  0  0  0  0  0  0  0  0  0  0  0
    1.1765   -7.5492  -29.5945 C   0  0  0  0  0  0  0  0  0  0  0  0
    2.2580   -9.5753  -28.0445 C   0  0  0  0  0  0  0  0  0  0  0  0
    1.0215   -9.0376  -27.7266 C   0  0  0  0  0  0  0  0  0  0  0  0
    2.4064   -8.0929  -29.8983 C   0  0  0  0  0  0  0  0  0  0  0  0
    2.9537   -9.1039  -29.1362 C   0  0  0  0  0  0  0  0  0  0  0  0
    3.2628   -7.4939  -31.2594 Cl  0  0  0  0  0  0  0  0  0  0  0  0
    4.5086   -9.7660  -29.5407 Cl  0  0  0  0  0  0  0  0  0  0  0  0
 32 30  1  0  0  0
 31 29  1  0  0  0
 30 29  2  0  0  0
 30 27  1  0  0  0
 29 26  1  0  0  0
 27 28  2  0  0  0
 26 25  2  0  0  0
 23 22  1  0  0  0
 28 25  1  0  0  0
 28 22  1  0  0  0
 22  5  1  0  0  0
  5  3  2  0  0  0
  5  6  1  0  0  0
  3  4  1  0  0  0
  6  1  2  0  0  0
 11  8  2  0  0  0
 11  9  1  0  0  0
 14 13  1  0  0  0
  8 10  1  0  0  0
  4  9  1  0  0  0
  4  2  2  0  0  0
  9  7  2  0  0  0
 10 13  1  0  0  0
 10 12  2  0  0  0
 16 19  2  0  0  0
  1  2  1  0  0  0
  7 12  1  0  0  0
 13 19  1  0  0  0
 19 17  1  0  0  0
 19 18  1  0  0  0
 23 24  1  0  0  0
 14 15  1  0  0  0
 17 20  1  0  0  0
 18 21  1  0  0  0
M  END
> <minimizedAffinity>
-6.53823

$$$$
5OVX_AY5_A_601


 32 34  0  0  0  0  0  0  0  0999 V2000
    0.0111  -14.9727  -26.9169 C   0  0  0  0  0  0  0  0  0  0  0  0
    0.6313  -13.9445  -27.5925 C   0  0  0  0  0  0  0  0  0  0  0  0
    2.1353  -13.6345  -25.7770 C   0  0  0  0  0  0  0  0  0  0  0  0
    1.6960  -13.2603  -27.0335 C   0  0  0  0  0  0  0  0  0  0  0  0
    1.5222  -14.6670  -25.0876 C   0  0  0  0  0  0  0  0  0  0  0  0
    0.4587  -15.3255  -25.6626 C   0  0  0  0  0  0  0  0  0  0  0  0
    2.0452  -10.8671  -27.3382 C   0  0  0  0  0  0  0  0  0  0  0  0
    3.6521  -11.2872  -29.5413 C   0  0  0  0  0  0  0  0  0  0  0  0
    2.2947  -12.1584  -27.7584 C   0  0  0  0  0  0  0  0  0  0  0  0
    3.3864  -10.0030  -29.1089 C   0  0  0  0  0  0  0  0  0  0  0  0
    3.0956  -12.3569  -28.8686 C   0  0  0  0  0  0  0  0  0  0  0  0
    2.5781   -9.7904  -28.0108 C   0  0  0  0  0  0  0  0  0  0  0  0
    3.9645   -8.8134  -29.7857 C   0  0  0  0  0  0  0  0  0  0  0  0
    5.2738   -9.1333  -30.2144 O   0  0  0  0  0  0  0  0  0  0  0  0
    5.2332   -9.8401  -30.8775 H   0  0  0  0  0  0  0  0  0  0  0  0
    2.3901   -9.3466  -32.0184 O   0  0  0  0  0  0  0  0  0  0  0  0
    4.4843   -7.8154  -32.1527 O   0  0  0  0  0  0  0  0  0  0  0  0
    2.2843   -6.9792  -30.9076 O   0  0  0  0  0  0  0  0  0  0  0  0
    3.1652   -8.2637  -31.3177 P   0  0  0  0  0  0  0  0  0  0  0  0
    5.0000   -8.6021  -32.3895 H   0  0  0  0  0  0  0  0  0  0  0  0
    1.5029   -7.2682  -30.4109 H   0  0  0  0  0  0  0  0  0  0  0  0
    1.9651  -15.0859  -23.7224 C   0  0  0  0  0  0  0  0  0  0  0  0
    2.1340  -13.9068  -22.9462 O   0  0  0  0  0  0  0  0  0  0  0  0
    2.8199  -13.3508  -23.3479 H   0  0  0  0  0  0  0  0  0  0  0  0
    3.1144  -17.2785  -23.7525 C   0  0  0  0  0  0  0  0  0  0  0  0
    4.2485  -18.0602  -23.7601 C   0  0  0  0  0  0  0  0  0  0  0  0
    4.4660  -15.2989  -23.6851 C   0  0  0  0  0  0  0  0  0  0  0  0
    3.2183  -15.9002  -23.7163 C   0  0  0  0  0  0  0  0  0  0  0  0
    5.4834  -17.4481  -23.7300 C   0  0  0  0  0  0  0  0  0  0  0  0
    5.6045  -16.0747  -23.6894 C   0  0  0  0  0  0  0  0  0  0  0  0
    6.8928  -18.4271  -23.7385 Cl  0  0  0  0  0  0  0  0  0  0  0  0
    7.1749  -15.3315  -23.6575 Cl  0  0  0  0  0  0  0  0  0  0  0  0
 32 30  1  0  0  0
 31 29  1  0  0  0
 30 29  2  0  0  0
 30 27  1  0  0  0
 29 26  1  0  0  0
 27 28  2  0  0  0
 26 25  2  0  0  0
 23 22  1  0  0  0
 28 25  1  0  0  0
 28 22  1  0  0  0
 22  5  1  0  0  0
  5  3  2  0  0  0
  5  6  1  0  0  0
  3  4  1  0  0  0
  6  1  2  0  0  0
 11  8  2  0  0  0
 11  9  1  0  0  0
 14 13  1  0  0  0
  8 10  1  0  0  0
  4  9  1  0  0  0
  4  2  2  0  0  0
  9  7  2  0  0  0
 10 13  1  0  0  0
 10 12  2  0  0  0
 16 19  2  0  0  0
  1  2  1  0  0  0
  7 12  1  0  0  0
 13 19  1  0  0  0
 19 17  1  0  0  0
 19 18  1  0  0  0
 23 24  1  0  0  0
 14 15  1  0  0  0
 17 20  1  0  0  0
 18 21  1  0  0  0
M  END
> <minimizedAffinity>
-6.51623

$$$$
