6C7Q_EO1_A_501


 36 41  0  0  0  0  0  0  0  0999 V2000
   21.7649   -2.0690    6.9215 C   0  0  0  0  0  0  0  0  0  0  0  0
   20.6791   -2.0412    6.0127 C   0  0  0  0  0  0  0  0  0  0  0  0
   19.5171   -2.7678    6.2543 C   0  0  0  0  0  0  0  0  0  0  0  0
   21.6432   -2.8716    8.0691 C   0  0  0  0  0  0  0  0  0  0  0  0
   20.4793   -3.5827    8.3070 C   0  0  0  0  0  0  0  0  0  0  0  0
   20.1801   -4.4463    9.3437 N   0  0  0  0  0  0  0  0  0  0  0  0
   18.9290   -4.9905    9.1475 C   0  0  0  0  0  0  0  0  0  0  0  0
   18.3356   -5.9285    9.9080 N   0  0  0  0  0  0  0  0  0  0  0  0
   17.1494   -6.3478    9.4511 C   0  0  0  0  0  0  0  0  0  0  0  0
   16.4368   -7.3890   10.2537 C   0  0  0  0  0  0  0  0  0  0  0  0
   16.5448   -5.9130    8.3382 N   0  0  0  0  0  0  0  0  0  0  0  0
   17.1137   -4.9696    7.5668 C   0  0  0  0  0  0  0  0  0  0  0  0
   18.3844   -4.4412    7.9424 C   0  0  0  0  0  0  0  0  0  0  0  0
   19.3966   -3.5401    7.4077 C   0  0  0  0  0  0  0  0  0  0  0  0
   20.7709   -4.6429   10.1063 H   0  0  0  0  0  0  0  0  0  0  0  0
   24.1715   -1.6924    6.1725 C   0  0  0  0  0  0  0  0  0  0  0  0
   23.0000   -1.2597    6.7076 C   0  0  0  0  0  0  0  0  0  0  0  0
   23.2558    0.1085    7.0544 C   0  0  0  0  0  0  0  0  0  0  0  0
   22.2863    1.1442    7.5193 C   0  0  0  0  0  0  0  0  0  0  0  0
   24.4885    0.4366    6.8107 N   0  0  0  0  0  0  0  0  0  0  0  0
   25.0919   -0.7079    6.2332 O   0  0  0  0  0  0  0  0  0  0  0  0
   24.5940   -2.9483    5.5123 C   0  0  0  0  0  0  0  0  0  0  0  0
   20.1263   -0.0323    4.8226 C   0  0  0  0  0  0  0  0  0  0  0  0
   20.8486   -1.2618    4.8997 O   0  0  0  0  0  0  0  0  0  0  0  0
   16.3889   -4.5272    6.4535 N   0  0  0  0  0  0  0  0  0  0  0  0
   16.6816   -3.6205    6.2054 H   0  0  0  0  0  0  0  0  0  0  0  0
   14.8567   -4.2690    4.4177 C   0  0  0  0  0  0  0  0  0  0  0  0
   14.3017   -2.5338    2.8401 C   0  0  0  0  0  0  0  0  0  0  0  0
   13.3947   -3.3741    2.2132 C   0  0  0  0  0  0  0  0  0  0  0  0
   15.4152   -4.9415    5.6059 C   0  0  0  0  0  0  0  0  0  0  0  0
   15.0375   -2.9761    3.9306 C   0  0  0  0  0  0  0  0  0  0  0  0
   13.2146   -4.6761    2.6558 C   0  0  0  0  0  0  0  0  0  0  0  0
   13.9488   -5.1139    3.7555 C   0  0  0  0  0  0  0  0  0  0  0  0
   13.9907   -6.2860    4.5149 N   0  0  0  0  0  0  0  0  0  0  0  0
   14.8344   -6.1876    5.6152 N   0  0  0  0  0  0  0  0  0  0  0  0
   13.2820   -7.5237    4.2118 C   0  0  0  0  0  0  0  0  0  0  0  0
 21 20  1  0  0  0
 21 16  1  0  0  0
 20 18  2  0  0  0
 22 16  1  0  0  0
 16 17  2  0  0  0
 18 19  1  0  0  0
 18 17  1  0  0  0
 17  1  1  0  0  0
  4  1  2  0  0  0
  4  5  1  0  0  0
  6  5  1  0  0  0
  6  7  1  0  0  0
  1  2  1  0  0  0
  5 14  2  0  0  0
  8  7  2  0  0  0
  8  9  1  0  0  0
  7 13  1  0  0  0
  2 24  1  0  0  0
  2  3  2  0  0  0
 14 13  1  0  0  0
 14  3  1  0  0  0
 24 23  1  0  0  0
 13 12  2  0  0  0
  9 10  1  0  0  0
  9 11  2  0  0  0
 11 12  1  0  0  0
 12 25  1  0  0  0
 25 30  1  0  0  0
 31 27  2  0  0  0
 31 28  1  0  0  0
 30 27  1  0  0  0
 30 35  2  0  0  0
 27 33  1  0  0  0
 28 29  2  0  0  0
 35 34  1  0  0  0
 33 34  1  0  0  0
 33 32  2  0  0  0
 34 36  1  0  0  0
 29 32  1  0  0  0
  6 15  1  0  0  0
 25 26  1  0  0  0
M  END
> <minimizedAffinity>
-9.83319

$$$$
6C7Q_EO1_A_501


 36 41  0  0  0  0  0  0  0  0999 V2000
   22.0992   -1.8762    6.9622 C   0  0  0  0  0  0  0  0  0  0  0  0
   20.9927   -1.6925    6.0975 C   0  0  0  0  0  0  0  0  0  0  0  0
   19.7889   -2.3558    6.3151 C   0  0  0  0  0  0  0  0  0  0  0  0
   21.9528   -2.7677    8.0392 C   0  0  0  0  0  0  0  0  0  0  0  0
   20.7480   -3.4150    8.2546 C   0  0  0  0  0  0  0  0  0  0  0  0
   20.4173   -4.3449    9.2220 N   0  0  0  0  0  0  0  0  0  0  0  0
   19.1252   -4.7818    9.0228 C   0  0  0  0  0  0  0  0  0  0  0  0
   18.4878   -5.7406    9.7190 N   0  0  0  0  0  0  0  0  0  0  0  0
   17.2620   -6.0345    9.2688 C   0  0  0  0  0  0  0  0  0  0  0  0
   16.4996   -7.0915   10.0021 C   0  0  0  0  0  0  0  0  0  0  0  0
   16.6588   -5.4615    8.2195 N   0  0  0  0  0  0  0  0  0  0  0  0
   17.2718   -4.4946    7.5138 C   0  0  0  0  0  0  0  0  0  0  0  0
   18.5874   -4.0909    7.8897 C   0  0  0  0  0  0  0  0  0  0  0  0
   19.6461   -3.2177    7.4005 C   0  0  0  0  0  0  0  0  0  0  0  0
   21.0138   -4.6491    9.9437 H   0  0  0  0  0  0  0  0  0  0  0  0
   23.6494    0.1363    7.1639 C   0  0  0  0  0  0  0  0  0  0  0  0
   23.3826   -1.1383    6.7767 C   0  0  0  0  0  0  0  0  0  0  0  0
   24.5837   -1.5646    6.1183 C   0  0  0  0  0  0  0  0  0  0  0  0
   24.9431   -2.9321    5.6389 C   0  0  0  0  0  0  0  0  0  0  0  0
   25.4576   -0.6059    6.0595 N   0  0  0  0  0  0  0  0  0  0  0  0
   24.8776    0.4953    6.7364 O   0  0  0  0  0  0  0  0  0  0  0  0
   22.9176    1.1345    7.9762 C   0  0  0  0  0  0  0  0  0  0  0  0
   20.2697    0.2534    4.8941 C   0  0  0  0  0  0  0  0  0  0  0  0
   21.1860   -0.8306    5.0512 O   0  0  0  0  0  0  0  0  0  0  0  0
   16.5493   -3.9057    6.4690 N   0  0  0  0  0  0  0  0  0  0  0  0
   16.7346   -2.9392    6.4405 H   0  0  0  0  0  0  0  0  0  0  0  0
   15.0238   -5.5255    5.2010 C   0  0  0  0  0  0  0  0  0  0  0  0
   14.5626   -7.8909    5.2207 C   0  0  0  0  0  0  0  0  0  0  0  0
   13.6647   -7.7389    4.1754 C   0  0  0  0  0  0  0  0  0  0  0  0
   15.6775   -4.2337    5.4838 C   0  0  0  0  0  0  0  0  0  0  0  0
   15.2342   -6.7930    5.7403 C   0  0  0  0  0  0  0  0  0  0  0  0
   13.4114   -6.4859    3.6376 C   0  0  0  0  0  0  0  0  0  0  0  0
   14.0933   -5.3876    4.1561 C   0  0  0  0  0  0  0  0  0  0  0  0
   14.1631   -4.0276    3.8433 N   0  0  0  0  0  0  0  0  0  0  0  0
   15.1050   -3.3453    4.6045 N   0  0  0  0  0  0  0  0  0  0  0  0
   13.3337   -3.3345    2.8648 C   0  0  0  0  0  0  0  0  0  0  0  0
 21 20  1  0  0  0
 21 16  1  0  0  0
 20 18  2  0  0  0
 22 16  1  0  0  0
 16 17  2  0  0  0
 18 19  1  0  0  0
 18 17  1  0  0  0
 17  1  1  0  0  0
  4  1  2  0  0  0
  4  5  1  0  0  0
  6  5  1  0  0  0
  6  7  1  0  0  0
  1  2  1  0  0  0
  5 14  2  0  0  0
  8  7  2  0  0  0
  8  9  1  0  0  0
  7 13  1  0  0  0
  2 24  1  0  0  0
  2  3  2  0  0  0
 14 13  1  0  0  0
 14  3  1  0  0  0
 24 23  1  0  0  0
 13 12  2  0  0  0
  9 10  1  0  0  0
  9 11  2  0  0  0
 11 12  1  0  0  0
 12 25  1  0  0  0
 25 30  1  0  0  0
 31 27  2  0  0  0
 31 28  1  0  0  0
 30 27  1  0  0  0
 30 35  2  0  0  0
 27 33  1  0  0  0
 28 29  2  0  0  0
 35 34  1  0  0  0
 33 34  1  0  0  0
 33 32  2  0  0  0
 34 36  1  0  0  0
 29 32  1  0  0  0
  6 15  1  0  0  0
 25 26  1  0  0  0
M  END
> <minimizedAffinity>
-9.47094

$$$$
6C7Q_EO1_A_501


 36 41  0  0  0  0  0  0  0  0999 V2000
   16.7737   -5.3233    6.6475 C   0  0  0  0  0  0  0  0  0  0  0  0
   16.9364   -5.8486    7.9527 C   0  0  0  0  0  0  0  0  0  0  0  0
   18.0104   -5.4720    8.7534 C   0  0  0  0  0  0  0  0  0  0  0  0
   17.7437   -4.4228    6.1741 C   0  0  0  0  0  0  0  0  0  0  0  0
   18.8031   -4.0451    6.9816 C   0  0  0  0  0  0  0  0  0  0  0  0
   19.8670   -3.2117    6.6930 N   0  0  0  0  0  0  0  0  0  0  0  0
   20.7286   -3.1702    7.7682 C   0  0  0  0  0  0  0  0  0  0  0  0
   21.9089   -2.5269    7.8241 N   0  0  0  0  0  0  0  0  0  0  0  0
   22.5927   -2.7148    8.9594 C   0  0  0  0  0  0  0  0  0  0  0  0
   23.9130   -2.0239    9.0846 C   0  0  0  0  0  0  0  0  0  0  0  0
   22.1948   -3.4665    9.9937 N   0  0  0  0  0  0  0  0  0  0  0  0
   21.0150   -4.1115    9.9651 C   0  0  0  0  0  0  0  0  0  0  0  0
   20.1904   -3.9962    8.8068 C   0  0  0  0  0  0  0  0  0  0  0  0
   18.9524   -4.5588    8.2841 C   0  0  0  0  0  0  0  0  0  0  0  0
   19.9908   -2.7220    5.8480 H   0  0  0  0  0  0  0  0  0  0  0  0
   14.6303   -4.8311    5.3600 C   0  0  0  0  0  0  0  0  0  0  0  0
   15.6041   -5.6750    5.7905 C   0  0  0  0  0  0  0  0  0  0  0  0
   15.2110   -6.9561    5.2785 C   0  0  0  0  0  0  0  0  0  0  0  0
   15.9834   -8.2337    5.2840 C   0  0  0  0  0  0  0  0  0  0  0  0
   14.0712   -6.8896    4.6597 N   0  0  0  0  0  0  0  0  0  0  0  0
   13.6859   -5.5266    4.6933 O   0  0  0  0  0  0  0  0  0  0  0  0
   14.4455   -3.3636    5.4223 C   0  0  0  0  0  0  0  0  0  0  0  0
   16.3205   -7.6630    9.3970 C   0  0  0  0  0  0  0  0  0  0  0  0
   15.9792   -6.7366    8.3652 O   0  0  0  0  0  0  0  0  0  0  0  0
   20.6465   -4.8274   11.1106 N   0  0  0  0  0  0  0  0  0  0  0  0
   20.9239   -5.7675   11.0184 H   0  0  0  0  0  0  0  0  0  0  0  0
   18.6114   -4.3768   12.5986 C   0  0  0  0  0  0  0  0  0  0  0  0
   16.3090   -3.7366   12.2870 C   0  0  0  0  0  0  0  0  0  0  0  0
   16.1104   -3.7295   13.6590 C   0  0  0  0  0  0  0  0  0  0  0  0
   20.0317   -4.6469   12.3054 C   0  0  0  0  0  0  0  0  0  0  0  0
   17.5475   -4.0662   11.7541 C   0  0  0  0  0  0  0  0  0  0  0  0
   17.1416   -4.0635   14.5242 C   0  0  0  0  0  0  0  0  0  0  0  0
   18.3852   -4.3859   13.9863 C   0  0  0  0  0  0  0  0  0  0  0  0
   19.6426   -4.6922   14.5131 N   0  0  0  0  0  0  0  0  0  0  0  0
   20.6204   -4.8280   13.5345 N   0  0  0  0  0  0  0  0  0  0  0  0
   19.9478   -4.9013   15.9234 C   0  0  0  0  0  0  0  0  0  0  0  0
 21 20  1  0  0  0
 21 16  1  0  0  0
 20 18  2  0  0  0
 22 16  1  0  0  0
 16 17  2  0  0  0
 18 19  1  0  0  0
 18 17  1  0  0  0
 17  1  1  0  0  0
  4  1  2  0  0  0
  4  5  1  0  0  0
  6  5  1  0  0  0
  6  7  1  0  0  0
  1  2  1  0  0  0
  5 14  2  0  0  0
  8  7  2  0  0  0
  8  9  1  0  0  0
  7 13  1  0  0  0
  2 24  1  0  0  0
  2  3  2  0  0  0
 14 13  1  0  0  0
 14  3  1  0  0  0
 24 23  1  0  0  0
 13 12  2  0  0  0
  9 10  1  0  0  0
  9 11  2  0  0  0
 11 12  1  0  0  0
 12 25  1  0  0  0
 25 30  1  0  0  0
 31 27  2  0  0  0
 31 28  1  0  0  0
 30 27  1  0  0  0
 30 35  2  0  0  0
 27 33  1  0  0  0
 28 29  2  0  0  0
 35 34  1  0  0  0
 33 34  1  0  0  0
 33 32  2  0  0  0
 34 36  1  0  0  0
 29 32  1  0  0  0
  6 15  1  0  0  0
 25 26  1  0  0  0
M  END
> <minimizedAffinity>
-9.21655

$$$$
6C7Q_EO1_A_501


 36 41  0  0  0  0  0  0  0  0999 V2000
   21.6262   -1.3738    5.8969 C   0  0  0  0  0  0  0  0  0  0  0  0
   21.7499   -1.8930    7.2088 C   0  0  0  0  0  0  0  0  0  0  0  0
   20.8548   -2.8397    7.6976 C   0  0  0  0  0  0  0  0  0  0  0  0
   20.5564   -1.8286    5.1065 C   0  0  0  0  0  0  0  0  0  0  0  0
   19.6769   -2.7788    5.5970 C   0  0  0  0  0  0  0  0  0  0  0  0
   18.5550   -3.3211    4.9993 N   0  0  0  0  0  0  0  0  0  0  0  0
   17.9329   -4.1832    5.8768 C   0  0  0  0  0  0  0  0  0  0  0  0
   16.7732   -4.8340    5.6730 N   0  0  0  0  0  0  0  0  0  0  0  0
   16.3433   -5.5480    6.7205 C   0  0  0  0  0  0  0  0  0  0  0  0
   15.0598   -6.2975    6.5567 C   0  0  0  0  0  0  0  0  0  0  0  0
   16.9655   -5.6506    7.9019 N   0  0  0  0  0  0  0  0  0  0  0  0
   18.1303   -5.0170    8.1263 C   0  0  0  0  0  0  0  0  0  0  0  0
   18.6950   -4.2174    7.0886 C   0  0  0  0  0  0  0  0  0  0  0  0
   19.8128   -3.3029    6.8968 C   0  0  0  0  0  0  0  0  0  0  0  0
   18.2469   -3.1220    4.0857 H   0  0  0  0  0  0  0  0  0  0  0  0
   22.4958    0.9588    5.3519 C   0  0  0  0  0  0  0  0  0  0  0  0
   22.6026   -0.3955    5.3351 C   0  0  0  0  0  0  0  0  0  0  0  0
   23.8201   -0.6434    4.6180 C   0  0  0  0  0  0  0  0  0  0  0  0
   24.5420   -1.9375    4.4360 C   0  0  0  0  0  0  0  0  0  0  0  0
   24.3505    0.4615    4.1887 N   0  0  0  0  0  0  0  0  0  0  0  0
   23.5167    1.5056    4.6599 O   0  0  0  0  0  0  0  0  0  0  0  0
   21.5604    1.9045    6.0019 C   0  0  0  0  0  0  0  0  0  0  0  0
   23.8594   -2.3011    8.2768 C   0  0  0  0  0  0  0  0  0  0  0  0
   22.7944   -1.4079    7.9495 O   0  0  0  0  0  0  0  0  0  0  0  0
   18.7457   -5.2242    9.3668 N   0  0  0  0  0  0  0  0  0  0  0  0
   19.7123   -5.0539    9.2907 H   0  0  0  0  0  0  0  0  0  0  0  0
   17.5399   -4.9339   11.6074 C   0  0  0  0  0  0  0  0  0  0  0  0
   16.1699   -3.2573   12.6658 C   0  0  0  0  0  0  0  0  0  0  0  0
   16.0835   -4.0314   13.8126 C   0  0  0  0  0  0  0  0  0  0  0  0
   18.4432   -5.5833   10.6387 C   0  0  0  0  0  0  0  0  0  0  0  0
   16.8849   -3.7048   11.5636 C   0  0  0  0  0  0  0  0  0  0  0  0
   16.6992   -5.2725   13.8757 C   0  0  0  0  0  0  0  0  0  0  0  0
   17.4227   -5.7148   12.7707 C   0  0  0  0  0  0  0  0  0  0  0  0
   18.2145   -6.8306   12.4877 N   0  0  0  0  0  0  0  0  0  0  0  0
   18.8338   -6.7534   11.2457 N   0  0  0  0  0  0  0  0  0  0  0  0
   18.3779   -7.9991   13.3444 C   0  0  0  0  0  0  0  0  0  0  0  0
 21 20  1  0  0  0
 21 16  1  0  0  0
 20 18  2  0  0  0
 22 16  1  0  0  0
 16 17  2  0  0  0
 18 19  1  0  0  0
 18 17  1  0  0  0
 17  1  1  0  0  0
  4  1  2  0  0  0
  4  5  1  0  0  0
  6  5  1  0  0  0
  6  7  1  0  0  0
  1  2  1  0  0  0
  5 14  2  0  0  0
  8  7  2  0  0  0
  8  9  1  0  0  0
  7 13  1  0  0  0
  2 24  1  0  0  0
  2  3  2  0  0  0
 14 13  1  0  0  0
 14  3  1  0  0  0
 24 23  1  0  0  0
 13 12  2  0  0  0
  9 10  1  0  0  0
  9 11  2  0  0  0
 11 12  1  0  0  0
 12 25  1  0  0  0
 25 30  1  0  0  0
 31 27  2  0  0  0
 31 28  1  0  0  0
 30 27  1  0  0  0
 30 35  2  0  0  0
 27 33  1  0  0  0
 28 29  2  0  0  0
 35 34  1  0  0  0
 33 34  1  0  0  0
 33 32  2  0  0  0
 34 36  1  0  0  0
 29 32  1  0  0  0
  6 15  1  0  0  0
 25 26  1  0  0  0
M  END
> <minimizedAffinity>
-8.84517

$$$$
6C7Q_EO1_A_501


 36 41  0  0  0  0  0  0  0  0999 V2000
   17.8491   -4.5791    6.6432 C   0  0  0  0  0  0  0  0  0  0  0  0
   18.5750   -4.2186    7.8046 C   0  0  0  0  0  0  0  0  0  0  0  0
   19.7045   -3.4094    7.7273 C   0  0  0  0  0  0  0  0  0  0  0  0
   18.3161   -4.1115    5.4025 C   0  0  0  0  0  0  0  0  0  0  0  0
   19.4344   -3.2979    5.3360 C   0  0  0  0  0  0  0  0  0  0  0  0
   20.0663   -2.7715    4.2253 N   0  0  0  0  0  0  0  0  0  0  0  0
   21.1885   -2.0737    4.6174 C   0  0  0  0  0  0  0  0  0  0  0  0
   22.0925   -1.4914    3.8088 N   0  0  0  0  0  0  0  0  0  0  0  0
   23.1382   -0.9469    4.4427 C   0  0  0  0  0  0  0  0  0  0  0  0
   24.1781   -0.2812    3.5991 C   0  0  0  0  0  0  0  0  0  0  0  0
   23.3317   -0.9449    5.7677 N   0  0  0  0  0  0  0  0  0  0  0  0
   22.4378   -1.5124    6.5970 C   0  0  0  0  0  0  0  0  0  0  0  0
   21.2777   -2.1328    6.0454 C   0  0  0  0  0  0  0  0  0  0  0  0
   20.1443   -2.9301    6.4951 C   0  0  0  0  0  0  0  0  0  0  0  0
   19.7612   -2.8785    3.2954 H   0  0  0  0  0  0  0  0  0  0  0  0
   15.3463   -4.9980    6.4080 C   0  0  0  0  0  0  0  0  0  0  0  0
   16.6077   -5.4044    6.7074 C   0  0  0  0  0  0  0  0  0  0  0  0
   16.4465   -6.7630    7.1389 C   0  0  0  0  0  0  0  0  0  0  0  0
   17.5044   -7.7758    7.4283 C   0  0  0  0  0  0  0  0  0  0  0  0
   15.1947   -7.1082    7.1595 N   0  0  0  0  0  0  0  0  0  0  0  0
   14.4711   -5.9873    6.6826 O   0  0  0  0  0  0  0  0  0  0  0  0
   14.7816   -3.7670    5.8103 C   0  0  0  0  0  0  0  0  0  0  0  0
   17.8205   -3.7868   10.0410 C   0  0  0  0  0  0  0  0  0  0  0  0
   18.0957   -4.7120    8.9885 O   0  0  0  0  0  0  0  0  0  0  0  0
   22.6848   -1.4147    7.9717 N   0  0  0  0  0  0  0  0  0  0  0  0
   22.1103   -0.7179    8.3638 H   0  0  0  0  0  0  0  0  0  0  0  0
   23.1455   -3.0602    9.8793 C   0  0  0  0  0  0  0  0  0  0  0  0
   21.8800   -4.6422   11.1846 C   0  0  0  0  0  0  0  0  0  0  0  0
   23.0080   -4.9522   11.9286 C   0  0  0  0  0  0  0  0  0  0  0  0
   23.4578   -1.9677    8.9385 C   0  0  0  0  0  0  0  0  0  0  0  0
   21.9446   -3.7092   10.1591 C   0  0  0  0  0  0  0  0  0  0  0  0
   24.2245   -4.3453   11.6543 C   0  0  0  0  0  0  0  0  0  0  0  0
   24.2838   -3.4036   10.6298 C   0  0  0  0  0  0  0  0  0  0  0  0
   25.2701   -2.5549   10.1209 N   0  0  0  0  0  0  0  0  0  0  0  0
   24.7899   -1.6942    9.1407 N   0  0  0  0  0  0  0  0  0  0  0  0
   26.6763   -2.5553   10.5061 C   0  0  0  0  0  0  0  0  0  0  0  0
 21 20  1  0  0  0
 21 16  1  0  0  0
 20 18  2  0  0  0
 22 16  1  0  0  0
 16 17  2  0  0  0
 18 19  1  0  0  0
 18 17  1  0  0  0
 17  1  1  0  0  0
  4  1  2  0  0  0
  4  5  1  0  0  0
  6  5  1  0  0  0
  6  7  1  0  0  0
  1  2  1  0  0  0
  5 14  2  0  0  0
  8  7  2  0  0  0
  8  9  1  0  0  0
  7 13  1  0  0  0
  2 24  1  0  0  0
  2  3  2  0  0  0
 14 13  1  0  0  0
 14  3  1  0  0  0
 24 23  1  0  0  0
 13 12  2  0  0  0
  9 10  1  0  0  0
  9 11  2  0  0  0
 11 12  1  0  0  0
 12 25  1  0  0  0
 25 30  1  0  0  0
 31 27  2  0  0  0
 31 28  1  0  0  0
 30 27  1  0  0  0
 30 35  2  0  0  0
 27 33  1  0  0  0
 28 29  2  0  0  0
 35 34  1  0  0  0
 33 34  1  0  0  0
 33 32  2  0  0  0
 34 36  1  0  0  0
 29 32  1  0  0  0
  6 15  1  0  0  0
 25 26  1  0  0  0
M  END
> <minimizedAffinity>
-8.79653

$$$$
6C7Q_EO1_A_501


 36 41  0  0  0  0  0  0  0  0999 V2000
   16.7890   -5.2202    6.4095 C   0  0  0  0  0  0  0  0  0  0  0  0
   16.9391   -5.5543    7.7775 C   0  0  0  0  0  0  0  0  0  0  0  0
   18.0370   -5.1151    8.5113 C   0  0  0  0  0  0  0  0  0  0  0  0
   17.7954   -4.4464    5.8058 C   0  0  0  0  0  0  0  0  0  0  0  0
   18.8788   -4.0045    6.5462 C   0  0  0  0  0  0  0  0  0  0  0  0
   19.9777   -3.2743    6.1351 N   0  0  0  0  0  0  0  0  0  0  0  0
   20.8503   -3.1157    7.1903 C   0  0  0  0  0  0  0  0  0  0  0  0
   22.0599   -2.5281    7.1477 N   0  0  0  0  0  0  0  0  0  0  0  0
   22.7448   -2.5788    8.2966 C   0  0  0  0  0  0  0  0  0  0  0  0
   24.0969   -1.9405    8.3153 C   0  0  0  0  0  0  0  0  0  0  0  0
   22.3219   -3.1498    9.4316 N   0  0  0  0  0  0  0  0  0  0  0  0
   21.1131   -3.7352    9.5015 C   0  0  0  0  0  0  0  0  0  0  0  0
   20.2839   -3.7529    8.3408 C   0  0  0  0  0  0  0  0  0  0  0  0
   19.0161   -4.3270    7.9099 C   0  0  0  0  0  0  0  0  0  0  0  0
   20.1163   -2.9212    5.2266 H   0  0  0  0  0  0  0  0  0  0  0  0
   14.6197   -4.8283    5.1308 C   0  0  0  0  0  0  0  0  0  0  0  0
   15.5963   -5.6384    5.6166 C   0  0  0  0  0  0  0  0  0  0  0  0
   15.1800   -6.9577    5.2371 C   0  0  0  0  0  0  0  0  0  0  0  0
   15.9413   -8.2374    5.3456 C   0  0  0  0  0  0  0  0  0  0  0  0
   14.0264   -6.9376    4.6411 N   0  0  0  0  0  0  0  0  0  0  0  0
   13.6536   -5.5734    4.5546 O   0  0  0  0  0  0  0  0  0  0  0  0
   14.4490   -3.3596    5.0584 C   0  0  0  0  0  0  0  0  0  0  0  0
   16.3217   -7.4970    9.0432 C   0  0  0  0  0  0  0  0  0  0  0  0
   15.9454   -6.3251    8.3191 O   0  0  0  0  0  0  0  0  0  0  0  0
   20.7222   -4.2559   10.7410 N   0  0  0  0  0  0  0  0  0  0  0  0
   21.2865   -3.8772   11.4533 H   0  0  0  0  0  0  0  0  0  0  0  0
   19.6976   -6.5731   11.1148 C   0  0  0  0  0  0  0  0  0  0  0  0
   19.9717   -8.7876   10.2044 C   0  0  0  0  0  0  0  0  0  0  0  0
   18.9635   -9.2660   11.0268 C   0  0  0  0  0  0  0  0  0  0  0  0
   19.8193   -5.1122   11.2793 C   0  0  0  0  0  0  0  0  0  0  0  0
   20.3468   -7.4521   10.2502 C   0  0  0  0  0  0  0  0  0  0  0  0
   18.3194   -8.4223   11.9194 C   0  0  0  0  0  0  0  0  0  0  0  0
   18.6928   -7.0810   11.9570 C   0  0  0  0  0  0  0  0  0  0  0  0
   18.2455   -5.9474   12.6404 N   0  0  0  0  0  0  0  0  0  0  0  0
   18.8875   -4.7831   12.2352 N   0  0  0  0  0  0  0  0  0  0  0  0
   17.2473   -5.9316   13.7031 C   0  0  0  0  0  0  0  0  0  0  0  0
 21 20  1  0  0  0
 21 16  1  0  0  0
 20 18  2  0  0  0
 22 16  1  0  0  0
 16 17  2  0  0  0
 18 19  1  0  0  0
 18 17  1  0  0  0
 17  1  1  0  0  0
  4  1  2  0  0  0
  4  5  1  0  0  0
  6  5  1  0  0  0
  6  7  1  0  0  0
  1  2  1  0  0  0
  5 14  2  0  0  0
  8  7  2  0  0  0
  8  9  1  0  0  0
  7 13  1  0  0  0
  2 24  1  0  0  0
  2  3  2  0  0  0
 14 13  1  0  0  0
 14  3  1  0  0  0
 24 23  1  0  0  0
 13 12  2  0  0  0
  9 10  1  0  0  0
  9 11  2  0  0  0
 11 12  1  0  0  0
 12 25  1  0  0  0
 25 30  1  0  0  0
 31 27  2  0  0  0
 31 28  1  0  0  0
 30 27  1  0  0  0
 30 35  2  0  0  0
 27 33  1  0  0  0
 28 29  2  0  0  0
 35 34  1  0  0  0
 33 34  1  0  0  0
 33 32  2  0  0  0
 34 36  1  0  0  0
 29 32  1  0  0  0
  6 15  1  0  0  0
 25 26  1  0  0  0
M  END
> <minimizedAffinity>
-8.73642

$$$$
6C7Q_EO1_A_501


 36 41  0  0  0  0  0  0  0  0999 V2000
   21.8267   -2.2744    6.3246 C   0  0  0  0  0  0  0  0  0  0  0  0
   21.6428   -2.6326    7.6824 C   0  0  0  0  0  0  0  0  0  0  0  0
   20.5102   -3.3259    8.0987 C   0  0  0  0  0  0  0  0  0  0  0  0
   20.8185   -2.6223    5.4090 C   0  0  0  0  0  0  0  0  0  0  0  0
   19.7002   -3.3216    5.8299 C   0  0  0  0  0  0  0  0  0  0  0  0
   18.5946   -3.7201    5.1026 N   0  0  0  0  0  0  0  0  0  0  0  0
   17.6849   -4.3309    5.9389 C   0  0  0  0  0  0  0  0  0  0  0  0
   16.4612   -4.7769    5.6016 N   0  0  0  0  0  0  0  0  0  0  0  0
   15.7419   -5.2569    6.6234 C   0  0  0  0  0  0  0  0  0  0  0  0
   14.3723   -5.7710    6.3135 C   0  0  0  0  0  0  0  0  0  0  0  0
   16.1445   -5.3185    7.8991 N   0  0  0  0  0  0  0  0  0  0  0  0
   17.3665   -4.8875    8.2591 C   0  0  0  0  0  0  0  0  0  0  0  0
   18.2323   -4.3477    7.2620 C   0  0  0  0  0  0  0  0  0  0  0  0
   19.5288   -3.6885    7.1785 C   0  0  0  0  0  0  0  0  0  0  0  0
   18.4750   -3.5877    4.1344 H   0  0  0  0  0  0  0  0  0  0  0  0
   23.1546   -0.2724    5.4742 C   0  0  0  0  0  0  0  0  0  0  0  0
   23.0553   -1.5749    5.8478 C   0  0  0  0  0  0  0  0  0  0  0  0
   24.3692   -2.1058    5.6247 C   0  0  0  0  0  0  0  0  0  0  0  0
   24.9086   -3.4414    6.0173 C   0  0  0  0  0  0  0  0  0  0  0  0
   25.1571   -1.2163    5.1010 N   0  0  0  0  0  0  0  0  0  0  0  0
   24.3953   -0.0256    5.0052 O   0  0  0  0  0  0  0  0  0  0  0  0
   22.2329    0.8844    5.5374 C   0  0  0  0  0  0  0  0  0  0  0  0
   23.0308   -3.1764    9.5626 C   0  0  0  0  0  0  0  0  0  0  0  0
   22.6402   -2.2570    8.5421 O   0  0  0  0  0  0  0  0  0  0  0  0
   17.7324   -5.0421    9.6017 N   0  0  0  0  0  0  0  0  0  0  0  0
   17.0855   -4.5749   10.1783 H   0  0  0  0  0  0  0  0  0  0  0  0
   19.3964   -6.9047   10.1680 C   0  0  0  0  0  0  0  0  0  0  0  0
   19.9177   -9.1099    9.3474 C   0  0  0  0  0  0  0  0  0  0  0  0
   20.8912   -9.2583   10.3231 C   0  0  0  0  0  0  0  0  0  0  0  0
   18.6880   -5.6260   10.3660 C   0  0  0  0  0  0  0  0  0  0  0  0
   19.1779   -7.9388    9.2600 C   0  0  0  0  0  0  0  0  0  0  0  0
   21.1528   -8.2352   11.2221 C   0  0  0  0  0  0  0  0  0  0  0  0
   20.4029   -7.0646   11.1366 C   0  0  0  0  0  0  0  0  0  0  0  0
   20.3217   -5.8842   11.8798 N   0  0  0  0  0  0  0  0  0  0  0  0
   19.3045   -5.0415   11.4470 N   0  0  0  0  0  0  0  0  0  0  0  0
   21.2073   -5.5032   12.9736 C   0  0  0  0  0  0  0  0  0  0  0  0
 21 20  1  0  0  0
 21 16  1  0  0  0
 20 18  2  0  0  0
 22 16  1  0  0  0
 16 17  2  0  0  0
 18 19  1  0  0  0
 18 17  1  0  0  0
 17  1  1  0  0  0
  4  1  2  0  0  0
  4  5  1  0  0  0
  6  5  1  0  0  0
  6  7  1  0  0  0
  1  2  1  0  0  0
  5 14  2  0  0  0
  8  7  2  0  0  0
  8  9  1  0  0  0
  7 13  1  0  0  0
  2 24  1  0  0  0
  2  3  2  0  0  0
 14 13  1  0  0  0
 14  3  1  0  0  0
 24 23  1  0  0  0
 13 12  2  0  0  0
  9 10  1  0  0  0
  9 11  2  0  0  0
 11 12  1  0  0  0
 12 25  1  0  0  0
 25 30  1  0  0  0
 31 27  2  0  0  0
 31 28  1  0  0  0
 30 27  1  0  0  0
 30 35  2  0  0  0
 27 33  1  0  0  0
 28 29  2  0  0  0
 35 34  1  0  0  0
 33 34  1  0  0  0
 33 32  2  0  0  0
 34 36  1  0  0  0
 29 32  1  0  0  0
  6 15  1  0  0  0
 25 26  1  0  0  0
M  END
> <minimizedAffinity>
-8.72816

$$$$
6C7Q_EO1_A_501


 36 41  0  0  0  0  0  0  0  0999 V2000
   21.6691   -2.3201    7.3152 C   0  0  0  0  0  0  0  0  0  0  0  0
   20.3734   -2.5403    6.7874 C   0  0  0  0  0  0  0  0  0  0  0  0
   19.4341   -3.3026    7.4752 C   0  0  0  0  0  0  0  0  0  0  0  0
   21.9876   -2.9135    8.5490 C   0  0  0  0  0  0  0  0  0  0  0  0
   21.0433   -3.6614    9.2317 C   0  0  0  0  0  0  0  0  0  0  0  0
   21.1693   -4.3484   10.4242 N   0  0  0  0  0  0  0  0  0  0  0  0
   19.9958   -5.0165   10.7008 C   0  0  0  0  0  0  0  0  0  0  0  0
   19.7727   -5.8488   11.7341 N   0  0  0  0  0  0  0  0  0  0  0  0
   18.5696   -6.4354   11.7273 C   0  0  0  0  0  0  0  0  0  0  0  0
   18.2588   -7.3711   12.8517 C   0  0  0  0  0  0  0  0  0  0  0  0
   17.6193   -6.2544   10.8013 N   0  0  0  0  0  0  0  0  0  0  0  0
   17.8154   -5.4206    9.7645 C   0  0  0  0  0  0  0  0  0  0  0  0
   19.0612   -4.7347    9.6532 C   0  0  0  0  0  0  0  0  0  0  0  0
   19.7515   -3.8651    8.7098 C   0  0  0  0  0  0  0  0  0  0  0  0
   21.9749   -4.3590   10.9901 H   0  0  0  0  0  0  0  0  0  0  0  0
   23.8168   -1.8859    6.0140 C   0  0  0  0  0  0  0  0  0  0  0  0
   22.6751   -1.4660    6.6190 C   0  0  0  0  0  0  0  0  0  0  0  0
   22.7045   -0.0391    6.4742 C   0  0  0  0  0  0  0  0  0  0  0  0
   21.6293    0.9474    6.7897 C   0  0  0  0  0  0  0  0  0  0  0  0
   23.7987    0.3561    5.8970 N   0  0  0  0  0  0  0  0  0  0  0  0
   24.5238   -0.8202    5.5843 O   0  0  0  0  0  0  0  0  0  0  0  0
   24.3765   -3.2188    5.6950 C   0  0  0  0  0  0  0  0  0  0  0  0
   20.3012   -2.7465    4.3980 C   0  0  0  0  0  0  0  0  0  0  0  0
   20.1132   -1.9598    5.5749 O   0  0  0  0  0  0  0  0  0  0  0  0
   16.7500   -5.2418    8.8737 N   0  0  0  0  0  0  0  0  0  0  0  0
   16.2408   -4.4366    9.1222 H   0  0  0  0  0  0  0  0  0  0  0  0
   15.5808   -5.1842    6.5959 C   0  0  0  0  0  0  0  0  0  0  0  0
   14.5694   -3.5193    5.1770 C   0  0  0  0  0  0  0  0  0  0  0  0
   14.2225   -4.4950    4.2553 C   0  0  0  0  0  0  0  0  0  0  0  0
   16.1916   -5.8169    7.7803 C   0  0  0  0  0  0  0  0  0  0  0  0
   15.2524   -3.8549    6.3378 C   0  0  0  0  0  0  0  0  0  0  0  0
   14.5621   -5.8225    4.4696 C   0  0  0  0  0  0  0  0  0  0  0  0
   15.2403   -6.1567    5.6393 C   0  0  0  0  0  0  0  0  0  0  0  0
   15.6734   -7.3482    6.2267 N   0  0  0  0  0  0  0  0  0  0  0  0
   16.2157   -7.1611    7.4928 N   0  0  0  0  0  0  0  0  0  0  0  0
   15.6269   -8.6685    5.6099 C   0  0  0  0  0  0  0  0  0  0  0  0
 21 20  1  0  0  0
 21 16  1  0  0  0
 20 18  2  0  0  0
 22 16  1  0  0  0
 16 17  2  0  0  0
 18 19  1  0  0  0
 18 17  1  0  0  0
 17  1  1  0  0  0
  4  1  2  0  0  0
  4  5  1  0  0  0
  6  5  1  0  0  0
  6  7  1  0  0  0
  1  2  1  0  0  0
  5 14  2  0  0  0
  8  7  2  0  0  0
  8  9  1  0  0  0
  7 13  1  0  0  0
  2 24  1  0  0  0
  2  3  2  0  0  0
 14 13  1  0  0  0
 14  3  1  0  0  0
 24 23  1  0  0  0
 13 12  2  0  0  0
  9 10  1  0  0  0
  9 11  2  0  0  0
 11 12  1  0  0  0
 12 25  1  0  0  0
 25 30  1  0  0  0
 31 27  2  0  0  0
 31 28  1  0  0  0
 30 27  1  0  0  0
 30 35  2  0  0  0
 27 33  1  0  0  0
 28 29  2  0  0  0
 35 34  1  0  0  0
 33 34  1  0  0  0
 33 32  2  0  0  0
 34 36  1  0  0  0
 29 32  1  0  0  0
  6 15  1  0  0  0
 25 26  1  0  0  0
M  END
> <minimizedAffinity>
-8.68354

$$$$
6C7Q_EO1_A_501


 36 41  0  0  0  0  0  0  0  0999 V2000
   17.1337   -5.1700    7.1496 C   0  0  0  0  0  0  0  0  0  0  0  0
   18.1566   -4.4268    6.5114 C   0  0  0  0  0  0  0  0  0  0  0  0
   19.3099   -4.0528    7.1943 C   0  0  0  0  0  0  0  0  0  0  0  0
   17.3081   -5.5026    8.5042 C   0  0  0  0  0  0  0  0  0  0  0  0
   18.4637   -5.1358    9.1728 C   0  0  0  0  0  0  0  0  0  0  0  0
   18.8059   -5.3324   10.4973 N   0  0  0  0  0  0  0  0  0  0  0  0
   20.0243   -4.7413   10.7542 C   0  0  0  0  0  0  0  0  0  0  0  0
   20.6391   -4.6604   11.9482 N   0  0  0  0  0  0  0  0  0  0  0  0
   21.7791   -3.9589   11.9416 C   0  0  0  0  0  0  0  0  0  0  0  0
   22.5125   -3.8339   13.2387 C   0  0  0  0  0  0  0  0  0  0  0  0
   22.3204   -3.3613   10.8724 N   0  0  0  0  0  0  0  0  0  0  0  0
   21.7294   -3.4357    9.6667 C   0  0  0  0  0  0  0  0  0  0  0  0
   20.5030   -4.1532    9.5395 C   0  0  0  0  0  0  0  0  0  0  0  0
   19.4845   -4.4096    8.5298 C   0  0  0  0  0  0  0  0  0  0  0  0
   18.2620   -5.8205   11.1570 H   0  0  0  0  0  0  0  0  0  0  0  0
   15.5841   -6.9039    6.1070 C   0  0  0  0  0  0  0  0  0  0  0  0
   15.9117   -5.6239    6.4237 C   0  0  0  0  0  0  0  0  0  0  0  0
   14.8527   -4.8393    5.8573 C   0  0  0  0  0  0  0  0  0  0  0  0
   14.5818   -3.3819    6.0340 C   0  0  0  0  0  0  0  0  0  0  0  0
   14.0105   -5.5813    5.2042 N   0  0  0  0  0  0  0  0  0  0  0  0
   14.4596   -6.9158    5.3617 O   0  0  0  0  0  0  0  0  0  0  0  0
   16.1564   -8.2239    6.4557 C   0  0  0  0  0  0  0  0  0  0  0  0
   18.9394   -3.3615    4.5090 C   0  0  0  0  0  0  0  0  0  0  0  0
   17.9361   -4.1085    5.1980 O   0  0  0  0  0  0  0  0  0  0  0  0
   22.3907   -2.8344    8.5889 N   0  0  0  0  0  0  0  0  0  0  0  0
   22.7268   -3.5281    7.9765 H   0  0  0  0  0  0  0  0  0  0  0  0
   21.9959   -0.7467    7.1590 C   0  0  0  0  0  0  0  0  0  0  0  0
   20.4548   -0.0551    5.4402 C   0  0  0  0  0  0  0  0  0  0  0  0
   21.1071    1.1628    5.3255 C   0  0  0  0  0  0  0  0  0  0  0  0
   22.7187   -1.6074    8.1146 C   0  0  0  0  0  0  0  0  0  0  0  0
   20.8867   -1.0043    6.3560 C   0  0  0  0  0  0  0  0  0  0  0  0
   22.1954    1.4605    6.1320 C   0  0  0  0  0  0  0  0  0  0  0  0
   22.6310    0.5024    7.0442 C   0  0  0  0  0  0  0  0  0  0  0  0
   23.6957    0.4034    7.9436 N   0  0  0  0  0  0  0  0  0  0  0  0
   23.7671   -0.8391    8.5626 N   0  0  0  0  0  0  0  0  0  0  0  0
   24.6367    1.4680    8.2707 C   0  0  0  0  0  0  0  0  0  0  0  0
 21 20  1  0  0  0
 21 16  1  0  0  0
 20 18  2  0  0  0
 22 16  1  0  0  0
 16 17  2  0  0  0
 18 19  1  0  0  0
 18 17  1  0  0  0
 17  1  1  0  0  0
  4  1  2  0  0  0
  4  5  1  0  0  0
  6  5  1  0  0  0
  6  7  1  0  0  0
  1  2  1  0  0  0
  5 14  2  0  0  0
  8  7  2  0  0  0
  8  9  1  0  0  0
  7 13  1  0  0  0
  2 24  1  0  0  0
  2  3  2  0  0  0
 14 13  1  0  0  0
 14  3  1  0  0  0
 24 23  1  0  0  0
 13 12  2  0  0  0
  9 10  1  0  0  0
  9 11  2  0  0  0
 11 12  1  0  0  0
 12 25  1  0  0  0
 25 30  1  0  0  0
 31 27  2  0  0  0
 31 28  1  0  0  0
 30 27  1  0  0  0
 30 35  2  0  0  0
 27 33  1  0  0  0
 28 29  2  0  0  0
 35 34  1  0  0  0
 33 34  1  0  0  0
 33 32  2  0  0  0
 34 36  1  0  0  0
 29 32  1  0  0  0
  6 15  1  0  0  0
 25 26  1  0  0  0
M  END
> <minimizedAffinity>
-8.44666

$$$$
6C7Q_EO1_A_501


 36 41  0  0  0  0  0  0  0  0999 V2000
   21.7341   -2.1327    7.0992 C   0  0  0  0  0  0  0  0  0  0  0  0
   21.6513   -2.8765    8.3016 C   0  0  0  0  0  0  0  0  0  0  0  0
   20.5876   -3.7404    8.5438 C   0  0  0  0  0  0  0  0  0  0  0  0
   20.6959   -2.2767    6.1625 C   0  0  0  0  0  0  0  0  0  0  0  0
   19.6470   -3.1467    6.4069 C   0  0  0  0  0  0  0  0  0  0  0  0
   18.5258   -3.4000    5.6396 N   0  0  0  0  0  0  0  0  0  0  0  0
   17.7040   -4.2890    6.2986 C   0  0  0  0  0  0  0  0  0  0  0  0
   16.4907   -4.7079    5.8952 N   0  0  0  0  0  0  0  0  0  0  0  0
   15.8619   -5.5110    6.7620 C   0  0  0  0  0  0  0  0  0  0  0  0
   14.5089   -6.0134    6.3708 C   0  0  0  0  0  0  0  0  0  0  0  0
   16.3416   -5.9052    7.9485 N   0  0  0  0  0  0  0  0  0  0  0  0
   17.5553   -5.5073    8.3694 C   0  0  0  0  0  0  0  0  0  0  0  0
   18.3281   -4.6435    7.5377 C   0  0  0  0  0  0  0  0  0  0  0  0
   19.5767   -3.8953    7.5975 C   0  0  0  0  0  0  0  0  0  0  0  0
   18.3421   -3.0055    4.7565 H   0  0  0  0  0  0  0  0  0  0  0  0
   24.1234   -1.6208    6.3757 C   0  0  0  0  0  0  0  0  0  0  0  0
   22.8896   -1.2385    6.7971 C   0  0  0  0  0  0  0  0  0  0  0  0
   22.9884    0.1867    6.9274 C   0  0  0  0  0  0  0  0  0  0  0  0
   21.8975    1.1717    7.1891 C   0  0  0  0  0  0  0  0  0  0  0  0
   24.1918    0.6035    6.6733 N   0  0  0  0  0  0  0  0  0  0  0  0
   24.9353   -0.5454    6.3064 O   0  0  0  0  0  0  0  0  0  0  0  0
   24.7025   -2.9115    5.9396 C   0  0  0  0  0  0  0  0  0  0  0  0
   22.9555   -3.7383   10.1220 C   0  0  0  0  0  0  0  0  0  0  0  0
   22.6738   -2.6908    9.1932 O   0  0  0  0  0  0  0  0  0  0  0  0
   18.0078   -6.0123    9.5945 N   0  0  0  0  0  0  0  0  0  0  0  0
   18.0079   -6.9964    9.5685 H   0  0  0  0  0  0  0  0  0  0  0  0
   17.8020   -4.6728   11.7676 C   0  0  0  0  0  0  0  0  0  0  0  0
   16.3249   -2.9957   12.6694 C   0  0  0  0  0  0  0  0  0  0  0  0
   17.0863   -2.9265   13.8258 C   0  0  0  0  0  0  0  0  0  0  0  0
   18.4458   -5.5865   10.8048 C   0  0  0  0  0  0  0  0  0  0  0  0
   16.6708   -3.8682   11.6470 C   0  0  0  0  0  0  0  0  0  0  0  0
   18.2005   -3.7364   13.9881 C   0  0  0  0  0  0  0  0  0  0  0  0
   18.5493   -4.6049   12.9566 C   0  0  0  0  0  0  0  0  0  0  0  0
   19.6036   -5.4913   12.7225 N   0  0  0  0  0  0  0  0  0  0  0  0
   19.5623   -6.0580   11.4539 N   0  0  0  0  0  0  0  0  0  0  0  0
   20.6400   -5.8551   13.6814 C   0  0  0  0  0  0  0  0  0  0  0  0
 21 20  1  0  0  0
 21 16  1  0  0  0
 20 18  2  0  0  0
 22 16  1  0  0  0
 16 17  2  0  0  0
 18 19  1  0  0  0
 18 17  1  0  0  0
 17  1  1  0  0  0
  4  1  2  0  0  0
  4  5  1  0  0  0
  6  5  1  0  0  0
  6  7  1  0  0  0
  1  2  1  0  0  0
  5 14  2  0  0  0
  8  7  2  0  0  0
  8  9  1  0  0  0
  7 13  1  0  0  0
  2 24  1  0  0  0
  2  3  2  0  0  0
 14 13  1  0  0  0
 14  3  1  0  0  0
 24 23  1  0  0  0
 13 12  2  0  0  0
  9 10  1  0  0  0
  9 11  2  0  0  0
 11 12  1  0  0  0
 12 25  1  0  0  0
 25 30  1  0  0  0
 31 27  2  0  0  0
 31 28  1  0  0  0
 30 27  1  0  0  0
 30 35  2  0  0  0
 27 33  1  0  0  0
 28 29  2  0  0  0
 35 34  1  0  0  0
 33 34  1  0  0  0
 33 32  2  0  0  0
 34 36  1  0  0  0
 29 32  1  0  0  0
  6 15  1  0  0  0
 25 26  1  0  0  0
M  END
> <minimizedAffinity>
-8.34594

$$$$
