4AUJ_HNW_A_201


 27 28  0  0  0  0  0  0  0  0999 V2000
   16.3934    0.8499   11.7662 C   0  0  0  0  0  0  0  0  0  0  0  0
   15.2027   -0.0019   11.9205 O   0  0  0  0  0  0  0  0  0  0  0  0
   17.3347    0.2929   10.6824 C   0  0  0  0  0  0  0  0  0  0  0  0
   18.5344    1.0690   10.7418 O   0  0  0  0  0  0  0  0  0  0  0  0
   17.6019   -1.0837   10.9016 C   0  0  0  0  0  0  0  0  0  0  0  0
   18.4104   -1.6475    9.8436 O   0  0  0  0  0  0  0  0  0  0  0  0
   16.3689   -1.8916   11.0295 C   0  0  0  0  0  0  0  0  0  0  0  0
   15.6819   -1.8779    9.8523 O   0  0  0  0  0  0  0  0  0  0  0  0
   15.4805   -1.3477   12.1692 C   0  0  0  0  0  0  0  0  0  0  0  0
   18.9253    0.9929   11.6263 H   0  0  0  0  0  0  0  0  0  0  0  0
   17.9208   -1.6093    9.0071 H   0  0  0  0  0  0  0  0  0  0  0  0
   15.4319   -0.9664    9.6344 H   0  0  0  0  0  0  0  0  0  0  0  0
   15.8394    2.5494   10.1427 O   0  0  0  0  0  0  0  0  0  0  0  0
   15.9488    2.2108   11.4948 C   0  0  0  0  0  0  0  0  0  0  0  0
   15.5392    3.4683   10.0628 H   0  0  0  0  0  0  0  0  0  0  0  0
   16.2252   -1.5480   13.3153 O   0  0  0  0  0  0  0  0  0  0  0  0
   15.2262    0.3090   16.8667 C   0  0  0  0  0  0  0  0  0  0  0  0
   16.5230    0.3197   16.4145 C   0  0  0  0  0  0  0  0  0  0  0  0
   16.8065   -0.3387   15.2025 C   0  0  0  0  0  0  0  0  0  0  0  0
   15.8360   -0.9318   14.5018 C   0  0  0  0  0  0  0  0  0  0  0  0
   14.5340   -0.9369   14.9604 C   0  0  0  0  0  0  0  0  0  0  0  0
   14.2475   -0.2889   16.1628 C   0  0  0  0  0  0  0  0  0  0  0  0
   14.6506    1.5339   19.1709 C   0  0  0  0  0  0  0  0  0  0  0  0
   14.9000    0.9894   18.1162 C   0  0  0  0  0  0  0  0  0  0  0  0
   15.2653    3.0568   21.0141 O   0  0  0  0  0  0  0  0  0  0  0  0
   14.2608    2.2875   20.4454 C   0  0  0  0  0  0  0  0  0  0  0  0
   14.9262    3.4932   21.8113 H   0  0  0  0  0  0  0  0  0  0  0  0
 13 14  1  0  0  0
 14  1  1  0  0  0
  1  2  1  0  0  0
  1  3  1  0  0  0
  2  9  1  0  0  0
  3  4  1  0  0  0
  3  5  1  0  0  0
  5  6  1  0  0  0
  5  7  1  0  0  0
  7  8  1  0  0  0
  7  9  1  0  0  0
 25 26  1  0  0  0
 26 23  1  0  0  0
 23 24  3  0  0  0
 24 17  1  0  0  0
 17 18  1  0  0  0
 17 22  2  0  0  0
 18 19  2  0  0  0
 19 20  1  0  0  0
 20 16  1  0  0  0
 20 21  2  0  0  0
 16  9  1  0  0  0
 21 22  1  0  0  0
 13 15  1  0  0  0
  4 10  1  0  0  0
  6 11  1  0  0  0
  8 12  1  0  0  0
 25 27  1  0  0  0
M  END
> <minimizedAffinity>
-8.09011

$$$$
4AUJ_HNW_A_201


 27 28  0  0  0  0  0  0  0  0999 V2000
   16.3345   -1.6157   10.7202 C   0  0  0  0  0  0  0  0  0  0  0  0
   16.4752   -2.2117   12.0588 O   0  0  0  0  0  0  0  0  0  0  0  0
   17.4977   -0.6528   10.4189 C   0  0  0  0  0  0  0  0  0  0  0  0
   17.1740    0.0123    9.1950 O   0  0  0  0  0  0  0  0  0  0  0  0
   17.6745    0.2760   11.4774 C   0  0  0  0  0  0  0  0  0  0  0  0
   18.8198    1.1301   11.2550 O   0  0  0  0  0  0  0  0  0  0  0  0
   17.8293   -0.3812   12.7940 C   0  0  0  0  0  0  0  0  0  0  0  0
   18.9769   -1.1164   12.8127 O   0  0  0  0  0  0  0  0  0  0  0  0
   16.6144   -1.2854   13.0946 C   0  0  0  0  0  0  0  0  0  0  0  0
   16.3353    0.4886    9.2979 H   0  0  0  0  0  0  0  0  0  0  0  0
   19.6271    0.5925   11.2455 H   0  0  0  0  0  0  0  0  0  0  0  0
   18.9322   -1.8030   12.1290 H   0  0  0  0  0  0  0  0  0  0  0  0
   15.7028   -2.3316    8.5022 O   0  0  0  0  0  0  0  0  0  0  0  0
   16.2188   -2.6962    9.7494 C   0  0  0  0  0  0  0  0  0  0  0  0
   15.6640   -3.1122    7.9277 H   0  0  0  0  0  0  0  0  0  0  0  0
   15.5481   -0.4126   13.1925 O   0  0  0  0  0  0  0  0  0  0  0  0
   14.3978    1.2131   16.8109 C   0  0  0  0  0  0  0  0  0  0  0  0
   13.6310    1.3998   15.6869 C   0  0  0  0  0  0  0  0  0  0  0  0
   14.0782    0.8310   14.4789 C   0  0  0  0  0  0  0  0  0  0  0  0
   15.2012    0.1087   14.4362 C   0  0  0  0  0  0  0  0  0  0  0  0
   15.9663   -0.0775   15.5701 C   0  0  0  0  0  0  0  0  0  0  0  0
   15.5299    0.4868   16.7696 C   0  0  0  0  0  0  0  0  0  0  0  0
   13.5597    2.2420   19.1304 C   0  0  0  0  0  0  0  0  0  0  0  0
   13.9563    1.7844   18.0795 C   0  0  0  0  0  0  0  0  0  0  0  0
   14.0921    3.7410   21.0182 O   0  0  0  0  0  0  0  0  0  0  0  0
   13.1577    2.8789   20.4634 C   0  0  0  0  0  0  0  0  0  0  0  0
   13.7506    4.0927   21.8553 H   0  0  0  0  0  0  0  0  0  0  0  0
 13 14  1  0  0  0
 14  1  1  0  0  0
  1  2  1  0  0  0
  1  3  1  0  0  0
  2  9  1  0  0  0
  3  4  1  0  0  0
  3  5  1  0  0  0
  5  6  1  0  0  0
  5  7  1  0  0  0
  7  8  1  0  0  0
  7  9  1  0  0  0
 25 26  1  0  0  0
 26 23  1  0  0  0
 23 24  3  0  0  0
 24 17  1  0  0  0
 17 18  1  0  0  0
 17 22  2  0  0  0
 18 19  2  0  0  0
 19 20  1  0  0  0
 20 16  1  0  0  0
 20 21  2  0  0  0
 16  9  1  0  0  0
 21 22  1  0  0  0
 13 15  1  0  0  0
  4 10  1  0  0  0
  6 11  1  0  0  0
  8 12  1  0  0  0
 25 27  1  0  0  0
M  END
> <minimizedAffinity>
-7.39396

$$$$
4AUJ_HNW_A_201


 27 28  0  0  0  0  0  0  0  0999 V2000
   16.2922    0.7548   11.7061 C   0  0  0  0  0  0  0  0  0  0  0  0
   15.0963   -0.1036   11.6990 O   0  0  0  0  0  0  0  0  0  0  0  0
   17.3225    0.2756   10.6669 C   0  0  0  0  0  0  0  0  0  0  0  0
   18.5099    1.0430   10.8815 O   0  0  0  0  0  0  0  0  0  0  0  0
   17.5761   -1.1138   10.8075 C   0  0  0  0  0  0  0  0  0  0  0  0
   18.4719   -1.6012    9.7824 O   0  0  0  0  0  0  0  0  0  0  0  0
   16.3400   -1.9263   10.7740 C   0  0  0  0  0  0  0  0  0  0  0  0
   15.7530   -1.8262    9.5478 O   0  0  0  0  0  0  0  0  0  0  0  0
   15.3578   -1.4644   11.8722 C   0  0  0  0  0  0  0  0  0  0  0  0
   18.8264    0.9024   11.7876 H   0  0  0  0  0  0  0  0  0  0  0  0
   18.0532   -1.5017    8.9131 H   0  0  0  0  0  0  0  0  0  0  0  0
   15.5182   -0.9008    9.3763 H   0  0  0  0  0  0  0  0  0  0  0  0
   15.8295    2.5558   10.1656 O   0  0  0  0  0  0  0  0  0  0  0  0
   15.8663    2.1326   11.4976 C   0  0  0  0  0  0  0  0  0  0  0  0
   15.5363    3.4797   10.1279 H   0  0  0  0  0  0  0  0  0  0  0  0
   16.0057   -1.7484   13.0587 O   0  0  0  0  0  0  0  0  0  0  0  0
   14.0301   -0.9263   16.5914 C   0  0  0  0  0  0  0  0  0  0  0  0
   13.4473   -1.7209   15.6348 C   0  0  0  0  0  0  0  0  0  0  0  0
   14.1634   -1.9583   14.4458 C   0  0  0  0  0  0  0  0  0  0  0  0
   15.3846   -1.4467   14.2679 C   0  0  0  0  0  0  0  0  0  0  0  0
   15.9660   -0.6508   15.2344 C   0  0  0  0  0  0  0  0  0  0  0  0
   15.2596   -0.4093   16.4136 C   0  0  0  0  0  0  0  0  0  0  0  0
   12.7220   -0.4877   18.8800 C   0  0  0  0  0  0  0  0  0  0  0  0
   13.3153   -0.6684   17.8377 C   0  0  0  0  0  0  0  0  0  0  0  0
   11.3751   -1.2229   20.8139 O   0  0  0  0  0  0  0  0  0  0  0  0
   11.9687   -0.1478   20.1689 C   0  0  0  0  0  0  0  0  0  0  0  0
   10.9247   -0.9111   21.6144 H   0  0  0  0  0  0  0  0  0  0  0  0
 13 14  1  0  0  0
 14  1  1  0  0  0
  1  2  1  0  0  0
  1  3  1  0  0  0
  2  9  1  0  0  0
  3  4  1  0  0  0
  3  5  1  0  0  0
  5  6  1  0  0  0
  5  7  1  0  0  0
  7  8  1  0  0  0
  7  9  1  0  0  0
 25 26  1  0  0  0
 26 23  1  0  0  0
 23 24  3  0  0  0
 24 17  1  0  0  0
 17 18  1  0  0  0
 17 22  2  0  0  0
 18 19  2  0  0  0
 19 20  1  0  0  0
 20 16  1  0  0  0
 20 21  2  0  0  0
 16  9  1  0  0  0
 21 22  1  0  0  0
 13 15  1  0  0  0
  4 10  1  0  0  0
  6 11  1  0  0  0
  8 12  1  0  0  0
 25 27  1  0  0  0
M  END
> <minimizedAffinity>
-7.37615

$$$$
4AUJ_HNW_A_201


 27 28  0  0  0  0  0  0  0  0999 V2000
   16.3439    1.1929   12.0464 C   0  0  0  0  0  0  0  0  0  0  0  0
   14.8849    1.0078   12.1094 O   0  0  0  0  0  0  0  0  0  0  0  0
   17.0323   -0.0443   11.4410 C   0  0  0  0  0  0  0  0  0  0  0  0
   18.4403    0.1505   11.5988 O   0  0  0  0  0  0  0  0  0  0  0  0
   16.6021   -1.2318   12.0885 C   0  0  0  0  0  0  0  0  0  0  0  0
   17.1679   -2.4121   11.4740 O   0  0  0  0  0  0  0  0  0  0  0  0
   15.1293   -1.3723   12.1041 C   0  0  0  0  0  0  0  0  0  0  0  0
   14.6636   -1.5105   10.8305 O   0  0  0  0  0  0  0  0  0  0  0  0
   14.4750   -0.1473   12.7787 C   0  0  0  0  0  0  0  0  0  0  0  0
   18.6495    0.2490   12.5408 H   0  0  0  0  0  0  0  0  0  0  0  0
   16.8490   -2.4857   10.5609 H   0  0  0  0  0  0  0  0  0  0  0  0
   14.8925   -0.7212   10.3152 H   0  0  0  0  0  0  0  0  0  0  0  0
   15.8065    2.6419   10.1910 O   0  0  0  0  0  0  0  0  0  0  0  0
   16.6169    2.4192   11.3083 C   0  0  0  0  0  0  0  0  0  0  0  0
   16.0615    3.4766    9.7678 H   0  0  0  0  0  0  0  0  0  0  0  0
   14.9080   -0.2006   14.0894 O   0  0  0  0  0  0  0  0  0  0  0  0
   13.2518    2.1897   17.0224 C   0  0  0  0  0  0  0  0  0  0  0  0
   14.3447    1.4045   17.2970 C   0  0  0  0  0  0  0  0  0  0  0  0
   14.8601    0.6023   16.2608 C   0  0  0  0  0  0  0  0  0  0  0  0
   14.3168    0.6268   15.0406 C   0  0  0  0  0  0  0  0  0  0  0  0
   13.2199    1.4201   14.7703 C   0  0  0  0  0  0  0  0  0  0  0  0
   12.7026    2.2149   15.7942 C   0  0  0  0  0  0  0  0  0  0  0  0
   12.2223    3.7160   18.9593 C   0  0  0  0  0  0  0  0  0  0  0  0
   12.6996    3.0379   18.0742 C   0  0  0  0  0  0  0  0  0  0  0  0
   12.5157    5.7120   20.3821 O   0  0  0  0  0  0  0  0  0  0  0  0
   11.6796    4.6610   20.0348 C   0  0  0  0  0  0  0  0  0  0  0  0
   12.0891    6.2522   21.0655 H   0  0  0  0  0  0  0  0  0  0  0  0
 13 14  1  0  0  0
 14  1  1  0  0  0
  1  2  1  0  0  0
  1  3  1  0  0  0
  2  9  1  0  0  0
  3  4  1  0  0  0
  3  5  1  0  0  0
  5  6  1  0  0  0
  5  7  1  0  0  0
  7  8  1  0  0  0
  7  9  1  0  0  0
 25 26  1  0  0  0
 26 23  1  0  0  0
 23 24  3  0  0  0
 24 17  1  0  0  0
 17 18  1  0  0  0
 17 22  2  0  0  0
 18 19  2  0  0  0
 19 20  1  0  0  0
 20 16  1  0  0  0
 20 21  2  0  0  0
 16  9  1  0  0  0
 21 22  1  0  0  0
 13 15  1  0  0  0
  4 10  1  0  0  0
  6 11  1  0  0  0
  8 12  1  0  0  0
 25 27  1  0  0  0
M  END
> <minimizedAffinity>
-7.06553

$$$$
4AUJ_HNW_A_201


 27 28  0  0  0  0  0  0  0  0999 V2000
   16.3457    0.7699   11.7073 C   0  0  0  0  0  0  0  0  0  0  0  0
   15.1223   -0.0488   11.7137 O   0  0  0  0  0  0  0  0  0  0  0  0
   17.3496    0.2551   10.6593 C   0  0  0  0  0  0  0  0  0  0  0  0
   18.5636    0.9836   10.8608 O   0  0  0  0  0  0  0  0  0  0  0  0
   17.5589   -1.1415   10.8007 C   0  0  0  0  0  0  0  0  0  0  0  0
   18.4283   -1.6601    9.7682 O   0  0  0  0  0  0  0  0  0  0  0  0
   16.2966   -1.9131   10.7809 C   0  0  0  0  0  0  0  0  0  0  0  0
   15.7013   -1.7963    9.5603 O   0  0  0  0  0  0  0  0  0  0  0  0
   15.3408   -1.4171   11.8875 C   0  0  0  0  0  0  0  0  0  0  0  0
   18.8841    0.8345   11.7641 H   0  0  0  0  0  0  0  0  0  0  0  0
   18.0047   -1.5487    8.9027 H   0  0  0  0  0  0  0  0  0  0  0  0
   15.4954   -0.8641    9.3888 H   0  0  0  0  0  0  0  0  0  0  0  0
   15.7784    2.5411   10.1671 O   0  0  0  0  0  0  0  0  0  0  0  0
   15.9631    2.1605   11.4997 C   0  0  0  0  0  0  0  0  0  0  0  0
   15.5273    3.4773   10.1301 H   0  0  0  0  0  0  0  0  0  0  0  0
   15.9904   -1.7199   13.0683 O   0  0  0  0  0  0  0  0  0  0  0  0
   13.9438   -3.3141   16.2822 C   0  0  0  0  0  0  0  0  0  0  0  0
   14.7632   -2.2244   16.4479 C   0  0  0  0  0  0  0  0  0  0  0  0
   15.4438   -1.7305   15.3185 C   0  0  0  0  0  0  0  0  0  0  0  0
   15.2744   -2.2906   14.1175 C   0  0  0  0  0  0  0  0  0  0  0  0
   14.4473   -3.3841   13.9570 C   0  0  0  0  0  0  0  0  0  0  0  0
   13.7728   -3.8801   15.0735 C   0  0  0  0  0  0  0  0  0  0  0  0
   12.6097   -4.3128   18.3712 C   0  0  0  0  0  0  0  0  0  0  0  0
   13.2191   -3.8441   17.4331 C   0  0  0  0  0  0  0  0  0  0  0  0
   10.6052   -5.3442   19.3776 O   0  0  0  0  0  0  0  0  0  0  0  0
   11.8624   -4.8070   19.6128 C   0  0  0  0  0  0  0  0  0  0  0  0
   10.2124   -5.6277   20.2180 H   0  0  0  0  0  0  0  0  0  0  0  0
 13 14  1  0  0  0
 14  1  1  0  0  0
  1  2  1  0  0  0
  1  3  1  0  0  0
  2  9  1  0  0  0
  3  4  1  0  0  0
  3  5  1  0  0  0
  5  6  1  0  0  0
  5  7  1  0  0  0
  7  8  1  0  0  0
  7  9  1  0  0  0
 25 26  1  0  0  0
 26 23  1  0  0  0
 23 24  3  0  0  0
 24 17  1  0  0  0
 17 18  1  0  0  0
 17 22  2  0  0  0
 18 19  2  0  0  0
 19 20  1  0  0  0
 20 16  1  0  0  0
 20 21  2  0  0  0
 16  9  1  0  0  0
 21 22  1  0  0  0
 13 15  1  0  0  0
  4 10  1  0  0  0
  6 11  1  0  0  0
  8 12  1  0  0  0
 25 27  1  0  0  0
M  END
> <minimizedAffinity>
-7.05195

$$$$
4AUJ_HNW_A_201


 27 28  0  0  0  0  0  0  0  0999 V2000
   16.9771   -1.0729   13.7057 C   0  0  0  0  0  0  0  0  0  0  0  0
   16.7675    0.3832   13.7591 O   0  0  0  0  0  0  0  0  0  0  0  0
   16.6364   -1.6294   12.3110 C   0  0  0  0  0  0  0  0  0  0  0  0
   16.6850   -3.0549   12.4144 O   0  0  0  0  0  0  0  0  0  0  0  0
   15.3555   -1.1882   11.8879 C   0  0  0  0  0  0  0  0  0  0  0  0
   15.0557   -1.6254   10.5426 O   0  0  0  0  0  0  0  0  0  0  0  0
   15.2106    0.2831   11.9451 C   0  0  0  0  0  0  0  0  0  0  0  0
   16.0644    0.8676   11.0578 O   0  0  0  0  0  0  0  0  0  0  0  0
   15.4922    0.8004   13.3725 C   0  0  0  0  0  0  0  0  0  0  0  0
   16.0473   -3.3526   13.0819 H   0  0  0  0  0  0  0  0  0  0  0  0
   15.6850   -1.2228    9.9240 H   0  0  0  0  0  0  0  0  0  0  0  0
   16.9781    0.6387   11.2895 H   0  0  0  0  0  0  0  0  0  0  0  0
   19.2926   -1.3625   13.0850 O   0  0  0  0  0  0  0  0  0  0  0  0
   18.3474   -1.3521   14.1151 C   0  0  0  0  0  0  0  0  0  0  0  0
   20.1692   -1.5558   13.4525 H   0  0  0  0  0  0  0  0  0  0  0  0
   14.4834    0.2566   14.1437 O   0  0  0  0  0  0  0  0  0  0  0  0
   13.0477    2.3861   17.3784 C   0  0  0  0  0  0  0  0  0  0  0  0
   12.4912    2.5489   16.1334 C   0  0  0  0  0  0  0  0  0  0  0  0
   13.0286    1.8042   15.0659 C   0  0  0  0  0  0  0  0  0  0  0  0
   14.0321    0.9455   15.2666 C   0  0  0  0  0  0  0  0  0  0  0  0
   14.5856    0.7845   16.5209 C   0  0  0  0  0  0  0  0  0  0  0  0
   14.0593    1.5224   17.5822 C   0  0  0  0  0  0  0  0  0  0  0  0
   12.0588    3.7356   19.4621 C   0  0  0  0  0  0  0  0  0  0  0  0
   12.5071    3.1388   18.5062 C   0  0  0  0  0  0  0  0  0  0  0  0
   11.9021    5.9059   20.6281 O   0  0  0  0  0  0  0  0  0  0  0  0
   11.4871    4.5826   20.6023 C   0  0  0  0  0  0  0  0  0  0  0  0
   11.4904    6.3593   21.3803 H   0  0  0  0  0  0  0  0  0  0  0  0
 13 14  1  0  0  0
 14  1  1  0  0  0
  1  2  1  0  0  0
  1  3  1  0  0  0
  2  9  1  0  0  0
  3  4  1  0  0  0
  3  5  1  0  0  0
  5  6  1  0  0  0
  5  7  1  0  0  0
  7  8  1  0  0  0
  7  9  1  0  0  0
 25 26  1  0  0  0
 26 23  1  0  0  0
 23 24  3  0  0  0
 24 17  1  0  0  0
 17 18  1  0  0  0
 17 22  2  0  0  0
 18 19  2  0  0  0
 19 20  1  0  0  0
 20 16  1  0  0  0
 20 21  2  0  0  0
 16  9  1  0  0  0
 21 22  1  0  0  0
 13 15  1  0  0  0
  4 10  1  0  0  0
  6 11  1  0  0  0
  8 12  1  0  0  0
 25 27  1  0  0  0
M  END
> <minimizedAffinity>
-6.19409

$$$$
4AUJ_HNW_A_201


 27 28  0  0  0  0  0  0  0  0999 V2000
   15.9340   -0.7598   12.9690 C   0  0  0  0  0  0  0  0  0  0  0  0
   15.6931   -1.5291   14.2008 O   0  0  0  0  0  0  0  0  0  0  0  0
   17.3328   -1.0556   12.3974 C   0  0  0  0  0  0  0  0  0  0  0  0
   17.5436   -0.1304   11.3275 O   0  0  0  0  0  0  0  0  0  0  0  0
   18.3292   -0.9189   13.3989 C   0  0  0  0  0  0  0  0  0  0  0  0
   19.6389   -1.2812   12.9045 O   0  0  0  0  0  0  0  0  0  0  0  0
   18.0431   -1.7287   14.6037 C   0  0  0  0  0  0  0  0  0  0  0  0
   18.0787   -3.0547   14.2897 O   0  0  0  0  0  0  0  0  0  0  0  0
   16.6636   -1.3587   15.1903 C   0  0  0  0  0  0  0  0  0  0  0  0
   17.4823    0.7761   11.6672 H   0  0  0  0  0  0  0  0  0  0  0  0
   19.6442   -2.2202   12.6613 H   0  0  0  0  0  0  0  0  0  0  0  0
   17.4025   -3.2469   13.6214 H   0  0  0  0  0  0  0  0  0  0  0  0
   15.2596   -1.5837   10.8017 O   0  0  0  0  0  0  0  0  0  0  0  0
   14.8581   -1.0519   12.0308 C   0  0  0  0  0  0  0  0  0  0  0  0
   14.4792   -1.7439   10.2483 H   0  0  0  0  0  0  0  0  0  0  0  0
   16.8011   -0.0464   15.5990 O   0  0  0  0  0  0  0  0  0  0  0  0
   14.1732    1.5095   18.3796 C   0  0  0  0  0  0  0  0  0  0  0  0
   15.4126    1.0611   18.7656 C   0  0  0  0  0  0  0  0  0  0  0  0
   16.2623    0.5312   17.7757 C   0  0  0  0  0  0  0  0  0  0  0  0
   15.8819    0.4920   16.4957 C   0  0  0  0  0  0  0  0  0  0  0  0
   14.6357    0.9467   16.1137 C   0  0  0  0  0  0  0  0  0  0  0  0
   13.7879    1.4700   17.0909 C   0  0  0  0  0  0  0  0  0  0  0  0
   12.5190    2.5062   20.2266 C   0  0  0  0  0  0  0  0  0  0  0  0
   13.2729    2.0713   19.3820 C   0  0  0  0  0  0  0  0  0  0  0  0
   11.3048    4.5006   21.0284 O   0  0  0  0  0  0  0  0  0  0  0  0
   11.5856    3.1602   21.2491 C   0  0  0  0  0  0  0  0  0  0  0  0
   10.7101    4.8249   21.7226 H   0  0  0  0  0  0  0  0  0  0  0  0
 13 14  1  0  0  0
 14  1  1  0  0  0
  1  2  1  0  0  0
  1  3  1  0  0  0
  2  9  1  0  0  0
  3  4  1  0  0  0
  3  5  1  0  0  0
  5  6  1  0  0  0
  5  7  1  0  0  0
  7  8  1  0  0  0
  7  9  1  0  0  0
 25 26  1  0  0  0
 26 23  1  0  0  0
 23 24  3  0  0  0
 24 17  1  0  0  0
 17 18  1  0  0  0
 17 22  2  0  0  0
 18 19  2  0  0  0
 19 20  1  0  0  0
 20 16  1  0  0  0
 20 21  2  0  0  0
 16  9  1  0  0  0
 21 22  1  0  0  0
 13 15  1  0  0  0
  4 10  1  0  0  0
  6 11  1  0  0  0
  8 12  1  0  0  0
 25 27  1  0  0  0
M  END
> <minimizedAffinity>
-5.82678

$$$$
4AUJ_HNW_A_201


 27 28  0  0  0  0  0  0  0  0999 V2000
   16.0283    0.7914   12.5669 C   0  0  0  0  0  0  0  0  0  0  0  0
   15.7848   -0.6419   12.7974 O   0  0  0  0  0  0  0  0  0  0  0  0
   16.7375    1.0217   11.2196 C   0  0  0  0  0  0  0  0  0  0  0  0
   17.0985    2.4048   11.1765 O   0  0  0  0  0  0  0  0  0  0  0  0
   17.8801    0.1884   11.0990 C   0  0  0  0  0  0  0  0  0  0  0  0
   18.5075    0.3238    9.8033 O   0  0  0  0  0  0  0  0  0  0  0  0
   17.5706   -1.2411   11.3221 C   0  0  0  0  0  0  0  0  0  0  0  0
   16.7354   -1.6924   10.3440 O   0  0  0  0  0  0  0  0  0  0  0  0
   16.9235   -1.4455   12.7091 C   0  0  0  0  0  0  0  0  0  0  0  0
   17.6803    2.6106   11.9248 H   0  0  0  0  0  0  0  0  0  0  0  0
   17.8946    0.0231    9.1143 H   0  0  0  0  0  0  0  0  0  0  0  0
   15.9061   -1.1899   10.3697 H   0  0  0  0  0  0  0  0  0  0  0  0
   14.0923    1.3564   13.8948 O   0  0  0  0  0  0  0  0  0  0  0  0
   14.7557    1.4932   12.6718 C   0  0  0  0  0  0  0  0  0  0  0  0
   13.2608    1.8553   13.8693 H   0  0  0  0  0  0  0  0  0  0  0  0
   17.9111   -1.0924   13.6081 O   0  0  0  0  0  0  0  0  0  0  0  0
   17.3727   -1.9408   17.6142 C   0  0  0  0  0  0  0  0  0  0  0  0
   17.8859   -2.8887   16.7632 C   0  0  0  0  0  0  0  0  0  0  0  0
   18.0375   -2.5465   15.4057 C   0  0  0  0  0  0  0  0  0  0  0  0
   17.7163   -1.3263   14.9669 C   0  0  0  0  0  0  0  0  0  0  0  0
   17.2033   -0.3770   15.8278 C   0  0  0  0  0  0  0  0  0  0  0  0
   17.0476   -0.7115   17.1738 C   0  0  0  0  0  0  0  0  0  0  0  0
   17.0583   -2.5029   20.2077 C   0  0  0  0  0  0  0  0  0  0  0  0
   17.2110   -2.2635   19.0286 C   0  0  0  0  0  0  0  0  0  0  0  0
   17.5131   -2.0239   22.5864 O   0  0  0  0  0  0  0  0  0  0  0  0
   16.9306   -2.8989   21.6812 C   0  0  0  0  0  0  0  0  0  0  0  0
   17.3816   -2.3566   23.4880 H   0  0  0  0  0  0  0  0  0  0  0  0
 13 14  1  0  0  0
 14  1  1  0  0  0
  1  2  1  0  0  0
  1  3  1  0  0  0
  2  9  1  0  0  0
  3  4  1  0  0  0
  3  5  1  0  0  0
  5  6  1  0  0  0
  5  7  1  0  0  0
  7  8  1  0  0  0
  7  9  1  0  0  0
 25 26  1  0  0  0
 26 23  1  0  0  0
 23 24  3  0  0  0
 24 17  1  0  0  0
 17 18  1  0  0  0
 17 22  2  0  0  0
 18 19  2  0  0  0
 19 20  1  0  0  0
 20 16  1  0  0  0
 20 21  2  0  0  0
 16  9  1  0  0  0
 21 22  1  0  0  0
 13 15  1  0  0  0
  4 10  1  0  0  0
  6 11  1  0  0  0
  8 12  1  0  0  0
 25 27  1  0  0  0
M  END
> <minimizedAffinity>
-5.56310

$$$$
4AUJ_HNW_A_201


 27 28  0  0  0  0  0  0  0  0999 V2000
   15.4494   -0.0987   12.5722 C   0  0  0  0  0  0  0  0  0  0  0  0
   16.2417   -1.1746   11.9543 O   0  0  0  0  0  0  0  0  0  0  0  0
   15.6193    1.2243   11.8029 C   0  0  0  0  0  0  0  0  0  0  0  0
   14.9754    2.2372   12.5804 O   0  0  0  0  0  0  0  0  0  0  0  0
   16.9927    1.5234   11.6055 C   0  0  0  0  0  0  0  0  0  0  0  0
   17.1719    2.7147   10.8059 O   0  0  0  0  0  0  0  0  0  0  0  0
   17.7325    0.4138   10.9647 C   0  0  0  0  0  0  0  0  0  0  0  0
   17.2602    0.2102    9.7023 O   0  0  0  0  0  0  0  0  0  0  0  0
   17.5976   -0.8797   11.7971 C   0  0  0  0  0  0  0  0  0  0  0  0
   15.3856    2.2807   13.4583 H   0  0  0  0  0  0  0  0  0  0  0  0
   16.8097    2.5659    9.9184 H   0  0  0  0  0  0  0  0  0  0  0  0
   16.3209   -0.0287    9.7431 H   0  0  0  0  0  0  0  0  0  0  0  0
   13.3083    0.0297   13.6812 O   0  0  0  0  0  0  0  0  0  0  0  0
   14.0633   -0.5410   12.6523 C   0  0  0  0  0  0  0  0  0  0  0  0
   12.4054   -0.3238   13.6541 H   0  0  0  0  0  0  0  0  0  0  0  0
   18.2350   -0.5933   12.9887 O   0  0  0  0  0  0  0  0  0  0  0  0
   17.2528   -2.6063   16.4589 C   0  0  0  0  0  0  0  0  0  0  0  0
   17.1718   -1.2366   16.4002 C   0  0  0  0  0  0  0  0  0  0  0  0
   17.5292   -0.6037   15.1941 C   0  0  0  0  0  0  0  0  0  0  0  0
   17.9094   -1.3189   14.1317 C   0  0  0  0  0  0  0  0  0  0  0  0
   17.9863   -2.6957   14.1963 C   0  0  0  0  0  0  0  0  0  0  0  0
   17.6365   -3.3283   15.3901 C   0  0  0  0  0  0  0  0  0  0  0  0
   16.5973   -3.8427   18.7354 C   0  0  0  0  0  0  0  0  0  0  0  0
   16.8815   -3.2913   17.6932 C   0  0  0  0  0  0  0  0  0  0  0  0
   17.1891   -5.1454   20.7472 O   0  0  0  0  0  0  0  0  0  0  0  0
   16.1609   -4.6002   19.9924 C   0  0  0  0  0  0  0  0  0  0  0  0
   16.8173   -5.6025   21.5177 H   0  0  0  0  0  0  0  0  0  0  0  0
 13 14  1  0  0  0
 14  1  1  0  0  0
  1  2  1  0  0  0
  1  3  1  0  0  0
  2  9  1  0  0  0
  3  4  1  0  0  0
  3  5  1  0  0  0
  5  6  1  0  0  0
  5  7  1  0  0  0
  7  8  1  0  0  0
  7  9  1  0  0  0
 25 26  1  0  0  0
 26 23  1  0  0  0
 23 24  3  0  0  0
 24 17  1  0  0  0
 17 18  1  0  0  0
 17 22  2  0  0  0
 18 19  2  0  0  0
 19 20  1  0  0  0
 20 16  1  0  0  0
 20 21  2  0  0  0
 16  9  1  0  0  0
 21 22  1  0  0  0
 13 15  1  0  0  0
  4 10  1  0  0  0
  6 11  1  0  0  0
  8 12  1  0  0  0
 25 27  1  0  0  0
M  END
> <minimizedAffinity>
-5.49975

$$$$
4AUJ_HNW_A_201


 27 28  0  0  0  0  0  0  0  0999 V2000
   17.0567   -3.1523   14.2856 C   0  0  0  0  0  0  0  0  0  0  0  0
   17.4752   -1.8227   14.7590 O   0  0  0  0  0  0  0  0  0  0  0  0
   17.1997   -3.2648   12.7566 C   0  0  0  0  0  0  0  0  0  0  0  0
   16.5956   -4.5044   12.3776 O   0  0  0  0  0  0  0  0  0  0  0  0
   16.5748   -2.1687   12.1068 C   0  0  0  0  0  0  0  0  0  0  0  0
   16.7768   -2.2084   10.6755 O   0  0  0  0  0  0  0  0  0  0  0  0
   17.0485   -0.8606   12.6103 C   0  0  0  0  0  0  0  0  0  0  0  0
   18.3699   -0.7017   12.3158 O   0  0  0  0  0  0  0  0  0  0  0  0
   16.8278   -0.7544   14.1348 C   0  0  0  0  0  0  0  0  0  0  0  0
   15.6644   -4.5066   12.6491 H   0  0  0  0  0  0  0  0  0  0  0  0
   17.7228   -2.1196   10.4799 H   0  0  0  0  0  0  0  0  0  0  0  0
   18.8837   -1.4024   12.7470 H   0  0  0  0  0  0  0  0  0  0  0  0
   18.8332   -4.7878   14.2727 O   0  0  0  0  0  0  0  0  0  0  0  0
   17.8256   -4.1570   15.0085 C   0  0  0  0  0  0  0  0  0  0  0  0
   19.2867   -5.4355   14.8346 H   0  0  0  0  0  0  0  0  0  0  0  0
   15.4554   -0.7830   14.2893 O   0  0  0  0  0  0  0  0  0  0  0  0
   13.7286    1.7613   17.0468 C   0  0  0  0  0  0  0  0  0  0  0  0
   14.6949    0.8653   17.4337 C   0  0  0  0  0  0  0  0  0  0  0  0
   15.2405    0.0157   16.4522 C   0  0  0  0  0  0  0  0  0  0  0  0
   14.8473    0.0997   15.1782 C   0  0  0  0  0  0  0  0  0  0  0  0
   13.8774    1.0042   14.7951 C   0  0  0  0  0  0  0  0  0  0  0  0
   13.3305    1.8466   15.7642 C   0  0  0  0  0  0  0  0  0  0  0  0
   12.6972    3.4264   18.8647 C   0  0  0  0  0  0  0  0  0  0  0  0
   13.1496    2.6604   18.0403 C   0  0  0  0  0  0  0  0  0  0  0  0
   12.8196    5.3619   20.3922 O   0  0  0  0  0  0  0  0  0  0  0  0
   12.0328    4.3261   19.9104 C   0  0  0  0  0  0  0  0  0  0  0  0
   12.3164    5.8734   21.0450 H   0  0  0  0  0  0  0  0  0  0  0  0
 13 14  1  0  0  0
 14  1  1  0  0  0
  1  2  1  0  0  0
  1  3  1  0  0  0
  2  9  1  0  0  0
  3  4  1  0  0  0
  3  5  1  0  0  0
  5  6  1  0  0  0
  5  7  1  0  0  0
  7  8  1  0  0  0
  7  9  1  0  0  0
 25 26  1  0  0  0
 26 23  1  0  0  0
 23 24  3  0  0  0
 24 17  1  0  0  0
 17 18  1  0  0  0
 17 22  2  0  0  0
 18 19  2  0  0  0
 19 20  1  0  0  0
 20 16  1  0  0  0
 20 21  2  0  0  0
 16  9  1  0  0  0
 21 22  1  0  0  0
 13 15  1  0  0  0
  4 10  1  0  0  0
  6 11  1  0  0  0
  8 12  1  0  0  0
 25 27  1  0  0  0
M  END
> <minimizedAffinity>
-5.42704

$$$$
