1P57_CR4_B_346


 24 26  0  0  0  0  0  0  0  0999 V2000
   16.4692   -6.5249   25.2358 C   0  0  0  0  0  0  0  0  0  0  0  0
   15.2806   -5.7532   24.9727 C   0  0  0  0  0  0  0  0  0  0  0  0
   14.8553   -4.7080   25.8175 C   0  0  0  0  0  0  0  0  0  0  0  0
   15.6455   -4.4759   26.9039 C   0  0  0  0  0  0  0  0  0  0  0  0
   16.7708   -5.1724   27.1858 C   0  0  0  0  0  0  0  0  0  0  0  0
   17.2225   -6.1996   26.3888 C   0  0  0  0  0  0  0  0  0  0  0  0
   15.5155   -3.6082   27.8382 N   0  0  0  0  0  0  0  0  0  0  0  0
   17.3707   -4.7663   28.2895 N   0  0  0  0  0  0  0  0  0  0  0  0
   16.5361   -3.8020   28.6323 C   0  0  0  0  0  0  0  0  0  0  0  0
   14.8002   -2.9389   27.9369 H   0  0  0  0  0  0  0  0  0  0  0  0
   16.8712   -7.5643   24.3790 C   0  0  0  0  0  0  0  0  0  0  0  0
   18.1024   -7.9699   24.3400 N   0  0  0  0  0  0  0  0  0  0  0  0
   16.0261   -8.1555   23.5958 N   0  0  0  0  0  0  0  0  0  0  0  0
   18.7782   -7.5483   24.9186 H   0  0  0  0  0  0  0  0  0  0  0  0
   18.3613   -8.6995   23.7317 H   0  0  0  0  0  0  0  0  0  0  0  0
   15.0811   -7.8793   23.5930 H   0  0  0  0  0  0  0  0  0  0  0  0
   16.3286   -8.8812   23.0032 H   0  0  0  0  0  0  0  0  0  0  0  0
   16.7297   -3.0499   29.7993 C   0  0  0  0  0  0  0  0  0  0  0  0
   17.2370   -3.5891   31.0000 C   0  0  0  0  0  0  0  0  0  0  0  0
   17.3687   -2.8127   32.1373 C   0  0  0  0  0  0  0  0  0  0  0  0
   16.9970   -1.4668   32.1086 C   0  0  0  0  0  0  0  0  0  0  0  0
   16.4970   -0.9082   30.9338 C   0  0  0  0  0  0  0  0  0  0  0  0
   16.3692   -1.6955   29.7941 C   0  0  0  0  0  0  0  0  0  0  0  0
   15.8916   -1.1618   28.6074 O   0  0  0  0  0  0  0  0  0  0  0  0
  1  2  2  0  0  0
  1  6  1  0  0  0
  1 11  1  0  0  0
  2  3  1  0  0  0
  3  4  2  0  0  0
  4  5  1  0  0  0
  4  7  1  0  0  0
  5  6  2  0  0  0
  5  8  1  0  0  0
 11 12  1  0  0  0
 11 13  2  0  0  0
  7  9  1  0  0  0
  8  9  2  0  0  0
  9 18  1  0  0  0
 18 19  2  0  0  0
 18 23  1  0  0  0
 19 20  1  0  0  0
 20 21  2  0  0  0
 21 22  1  0  0  0
 22 23  2  0  0  0
 23 24  1  0  0  0
 12 14  1  0  0  0
 12 15  1  0  0  0
 13 16  1  0  0  0
 13 17  1  0  0  0
  7 10  1  0  0  0
M  CHG 1  13   1
M  CHG 1  24  -1
M  END
> <minimizedAffinity>
-8.47500

$$$$
1P57_CR4_B_346


 24 26  0  0  0  0  0  0  0  0999 V2000
   16.3258   -6.1667   25.5397 C   0  0  0  0  0  0  0  0  0  0  0  0
   17.6459   -6.3010   26.1027 C   0  0  0  0  0  0  0  0  0  0  0  0
   18.0270   -5.6584   27.2979 C   0  0  0  0  0  0  0  0  0  0  0  0
   17.0607   -4.8983   27.8871 C   0  0  0  0  0  0  0  0  0  0  0  0
   15.8089   -4.7488   27.3957 C   0  0  0  0  0  0  0  0  0  0  0  0
   15.3944   -5.3577   26.2331 C   0  0  0  0  0  0  0  0  0  0  0  0
   17.1108   -4.2032   28.9628 N   0  0  0  0  0  0  0  0  0  0  0  0
   15.0485   -3.9669   28.1396 N   0  0  0  0  0  0  0  0  0  0  0  0
   15.9227   -3.6708   29.0841 C   0  0  0  0  0  0  0  0  0  0  0  0
   17.8793   -4.0935   29.5682 H   0  0  0  0  0  0  0  0  0  0  0  0
   15.9706   -6.8161   24.3446 C   0  0  0  0  0  0  0  0  0  0  0  0
   14.8079   -6.6379   23.7984 N   0  0  0  0  0  0  0  0  0  0  0  0
   16.7921   -7.6175   23.7444 N   0  0  0  0  0  0  0  0  0  0  0  0
   14.1524   -6.0371   24.2210 H   0  0  0  0  0  0  0  0  0  0  0  0
   14.5807   -7.1035   22.9613 H   0  0  0  0  0  0  0  0  0  0  0  0
   17.6854   -7.7816   24.1242 H   0  0  0  0  0  0  0  0  0  0  0  0
   16.5232   -8.0625   22.9084 H   0  0  0  0  0  0  0  0  0  0  0  0
   15.5920   -2.8115   30.1412 C   0  0  0  0  0  0  0  0  0  0  0  0
   15.1913   -3.2616   31.4166 C   0  0  0  0  0  0  0  0  0  0  0  0
   14.8340   -2.3713   32.4133 C   0  0  0  0  0  0  0  0  0  0  0  0
   14.8680   -0.9975   32.1649 C   0  0  0  0  0  0  0  0  0  0  0  0
   15.2644   -0.5263   30.9147 C   0  0  0  0  0  0  0  0  0  0  0  0
   15.6237   -1.4281   29.9183 C   0  0  0  0  0  0  0  0  0  0  0  0
   16.0388   -0.9870   28.6716 O   0  0  0  0  0  0  0  0  0  0  0  0
  1  2  2  0  0  0
  1  6  1  0  0  0
  1 11  1  0  0  0
  2  3  1  0  0  0
  3  4  2  0  0  0
  4  5  1  0  0  0
  4  7  1  0  0  0
  5  6  2  0  0  0
  5  8  1  0  0  0
 11 12  1  0  0  0
 11 13  2  0  0  0
  7  9  1  0  0  0
  8  9  2  0  0  0
  9 18  1  0  0  0
 18 19  2  0  0  0
 18 23  1  0  0  0
 19 20  1  0  0  0
 20 21  2  0  0  0
 21 22  1  0  0  0
 22 23  2  0  0  0
 23 24  1  0  0  0
 12 14  1  0  0  0
 12 15  1  0  0  0
 13 16  1  0  0  0
 13 17  1  0  0  0
  7 10  1  0  0  0
M  CHG 1  13   1
M  CHG 1  24  -1
M  END
> <minimizedAffinity>
-8.09236

$$$$
1P57_CR4_B_346


 24 26  0  0  0  0  0  0  0  0999 V2000
   16.4401   -6.3609   25.2365 C   0  0  0  0  0  0  0  0  0  0  0  0
   15.5390   -5.2702   24.9604 C   0  0  0  0  0  0  0  0  0  0  0  0
   15.2052   -4.3018   25.9287 C   0  0  0  0  0  0  0  0  0  0  0  0
   15.7926   -4.4670   27.1478 C   0  0  0  0  0  0  0  0  0  0  0  0
   16.6468   -5.4726   27.4479 C   0  0  0  0  0  0  0  0  0  0  0  0
   17.0004   -6.4387   26.5337 C   0  0  0  0  0  0  0  0  0  0  0  0
   15.6810   -3.7599   28.2110 N   0  0  0  0  0  0  0  0  0  0  0  0
   17.0897   -5.4248   28.6907 N   0  0  0  0  0  0  0  0  0  0  0  0
   16.4484   -4.3433   29.0945 C   0  0  0  0  0  0  0  0  0  0  0  0
   15.1343   -2.9507   28.3358 H   0  0  0  0  0  0  0  0  0  0  0  0
   16.7555   -7.3157   24.2542 C   0  0  0  0  0  0  0  0  0  0  0  0
   16.0185   -7.4676   23.1980 N   0  0  0  0  0  0  0  0  0  0  0  0
   17.7947   -8.0802   24.3681 N   0  0  0  0  0  0  0  0  0  0  0  0
   15.2189   -6.9074   23.0709 H   0  0  0  0  0  0  0  0  0  0  0  0
   16.2586   -8.1430   22.5232 H   0  0  0  0  0  0  0  0  0  0  0  0
   18.3819   -7.9988   25.1541 H   0  0  0  0  0  0  0  0  0  0  0  0
   17.9974   -8.7427   23.6687 H   0  0  0  0  0  0  0  0  0  0  0  0
   16.5714   -3.8696   30.4081 C   0  0  0  0  0  0  0  0  0  0  0  0
   17.7977   -3.4775   30.9846 C   0  0  0  0  0  0  0  0  0  0  0  0
   17.8713   -3.0573   32.3005 C   0  0  0  0  0  0  0  0  0  0  0  0
   16.7157   -3.0145   33.0836 C   0  0  0  0  0  0  0  0  0  0  0  0
   15.4908   -3.3923   32.5370 C   0  0  0  0  0  0  0  0  0  0  0  0
   15.4251   -3.8121   31.2124 C   0  0  0  0  0  0  0  0  0  0  0  0
   14.2175   -4.1767   30.6378 O   0  0  0  0  0  0  0  0  0  0  0  0
  1  2  2  0  0  0
  1  6  1  0  0  0
  1 11  1  0  0  0
  2  3  1  0  0  0
  3  4  2  0  0  0
  4  5  1  0  0  0
  4  7  1  0  0  0
  5  6  2  0  0  0
  5  8  1  0  0  0
 11 12  1  0  0  0
 11 13  2  0  0  0
  7  9  1  0  0  0
  8  9  2  0  0  0
  9 18  1  0  0  0
 18 19  2  0  0  0
 18 23  1  0  0  0
 19 20  1  0  0  0
 20 21  2  0  0  0
 21 22  1  0  0  0
 22 23  2  0  0  0
 23 24  1  0  0  0
 12 14  1  0  0  0
 12 15  1  0  0  0
 13 16  1  0  0  0
 13 17  1  0  0  0
  7 10  1  0  0  0
M  CHG 1  13   1
M  CHG 1  24  -1
M  END
> <minimizedAffinity>
-7.99566

$$$$
1P57_CR4_B_346


 24 26  0  0  0  0  0  0  0  0999 V2000
   16.3279   -6.4597   25.2716 C   0  0  0  0  0  0  0  0  0  0  0  0
   15.4859   -5.3508   24.8986 C   0  0  0  0  0  0  0  0  0  0  0  0
   14.9682   -4.4430   25.8444 C   0  0  0  0  0  0  0  0  0  0  0  0
   15.3176   -4.6852   27.1398 C   0  0  0  0  0  0  0  0  0  0  0  0
   16.1084   -5.7104   27.5328 C   0  0  0  0  0  0  0  0  0  0  0  0
   16.6353   -6.6194   26.6438 C   0  0  0  0  0  0  0  0  0  0  0  0
   15.0025   -4.0447   28.2044 N   0  0  0  0  0  0  0  0  0  0  0  0
   16.3096   -5.7410   28.8372 N   0  0  0  0  0  0  0  0  0  0  0  0
   15.5951   -4.6843   29.1788 C   0  0  0  0  0  0  0  0  0  0  0  0
   14.4356   -3.2428   28.2736 H   0  0  0  0  0  0  0  0  0  0  0  0
   16.8299   -7.3531   24.3095 C   0  0  0  0  0  0  0  0  0  0  0  0
   17.9894   -7.9167   24.4505 N   0  0  0  0  0  0  0  0  0  0  0  0
   16.1526   -7.6464   23.2453 N   0  0  0  0  0  0  0  0  0  0  0  0
   18.5380   -7.7222   25.2445 H   0  0  0  0  0  0  0  0  0  0  0  0
   18.3210   -8.5390   23.7635 H   0  0  0  0  0  0  0  0  0  0  0  0
   15.2675   -7.2413   23.0979 H   0  0  0  0  0  0  0  0  0  0  0  0
   16.5229   -8.2744   22.5837 H   0  0  0  0  0  0  0  0  0  0  0  0
   15.4654   -4.2931   30.5187 C   0  0  0  0  0  0  0  0  0  0  0  0
   15.0073   -5.1503   31.5410 C   0  0  0  0  0  0  0  0  0  0  0  0
   14.8566   -4.7018   32.8410 C   0  0  0  0  0  0  0  0  0  0  0  0
   15.1620   -3.3770   33.1605 C   0  0  0  0  0  0  0  0  0  0  0  0
   15.6206   -2.5106   32.1700 C   0  0  0  0  0  0  0  0  0  0  0  0
   15.7710   -2.9699   30.8655 C   0  0  0  0  0  0  0  0  0  0  0  0
   16.2418   -2.1351   29.8643 O   0  0  0  0  0  0  0  0  0  0  0  0
  1  2  2  0  0  0
  1  6  1  0  0  0
  1 11  1  0  0  0
  2  3  1  0  0  0
  3  4  2  0  0  0
  4  5  1  0  0  0
  4  7  1  0  0  0
  5  6  2  0  0  0
  5  8  1  0  0  0
 11 12  1  0  0  0
 11 13  2  0  0  0
  7  9  1  0  0  0
  8  9  2  0  0  0
  9 18  1  0  0  0
 18 19  2  0  0  0
 18 23  1  0  0  0
 19 20  1  0  0  0
 20 21  2  0  0  0
 21 22  1  0  0  0
 22 23  2  0  0  0
 23 24  1  0  0  0
 12 14  1  0  0  0
 12 15  1  0  0  0
 13 16  1  0  0  0
 13 17  1  0  0  0
  7 10  1  0  0  0
M  CHG 1  13   1
M  CHG 1  24  -1
M  END
> <minimizedAffinity>
-7.61338

$$$$
1P57_CR4_B_346


 24 26  0  0  0  0  0  0  0  0999 V2000
   15.7130   -1.7039   30.7691 C   0  0  0  0  0  0  0  0  0  0  0  0
   15.1152   -2.8390   31.4263 C   0  0  0  0  0  0  0  0  0  0  0  0
   14.9159   -4.0721   30.7733 C   0  0  0  0  0  0  0  0  0  0  0  0
   15.3268   -4.1192   29.4743 C   0  0  0  0  0  0  0  0  0  0  0  0
   15.8962   -3.0800   28.8210 C   0  0  0  0  0  0  0  0  0  0  0  0
   16.1099   -1.8592   29.4196 C   0  0  0  0  0  0  0  0  0  0  0  0
   15.2741   -5.0867   28.6352 N   0  0  0  0  0  0  0  0  0  0  0  0
   16.2132   -3.3628   27.5709 N   0  0  0  0  0  0  0  0  0  0  0  0
   15.7976   -4.6157   27.5335 C   0  0  0  0  0  0  0  0  0  0  0  0
   14.9160   -5.9910   28.7876 H   0  0  0  0  0  0  0  0  0  0  0  0
   15.8989   -0.4835   31.4415 C   0  0  0  0  0  0  0  0  0  0  0  0
   14.9299    0.0862   32.0883 N   0  0  0  0  0  0  0  0  0  0  0  0
   17.0459    0.1179   31.4396 N   0  0  0  0  0  0  0  0  0  0  0  0
   14.0411   -0.3363   32.1159 H   0  0  0  0  0  0  0  0  0  0  0  0
   15.0831    0.9412   32.5517 H   0  0  0  0  0  0  0  0  0  0  0  0
   17.8092   -0.2793   30.9610 H   0  0  0  0  0  0  0  0  0  0  0  0
   17.1546    0.9722   31.9166 H   0  0  0  0  0  0  0  0  0  0  0  0
   15.8944   -5.3820   26.3637 C   0  0  0  0  0  0  0  0  0  0  0  0
   14.9992   -5.2675   25.2795 C   0  0  0  0  0  0  0  0  0  0  0  0
   15.1135   -6.0785   24.1646 C   0  0  0  0  0  0  0  0  0  0  0  0
   16.1316   -7.0321   24.0984 C   0  0  0  0  0  0  0  0  0  0  0  0
   17.0319   -7.1628   25.1541 C   0  0  0  0  0  0  0  0  0  0  0  0
   16.9111   -6.3422   26.2710 C   0  0  0  0  0  0  0  0  0  0  0  0
   17.8031   -6.4384   27.3276 O   0  0  0  0  0  0  0  0  0  0  0  0
  1  2  2  0  0  0
  1  6  1  0  0  0
  1 11  1  0  0  0
  2  3  1  0  0  0
  3  4  2  0  0  0
  4  5  1  0  0  0
  4  7  1  0  0  0
  5  6  2  0  0  0
  5  8  1  0  0  0
 11 12  1  0  0  0
 11 13  2  0  0  0
  7  9  1  0  0  0
  8  9  2  0  0  0
  9 18  1  0  0  0
 18 19  2  0  0  0
 18 23  1  0  0  0
 19 20  1  0  0  0
 20 21  2  0  0  0
 21 22  1  0  0  0
 22 23  2  0  0  0
 23 24  1  0  0  0
 12 14  1  0  0  0
 12 15  1  0  0  0
 13 16  1  0  0  0
 13 17  1  0  0  0
  7 10  1  0  0  0
M  CHG 1  13   1
M  CHG 1  24  -1
M  END
> <minimizedAffinity>
-7.52421

$$$$
1P57_CR4_B_346


 24 26  0  0  0  0  0  0  0  0999 V2000
   15.6376   -1.8564   31.0870 C   0  0  0  0  0  0  0  0  0  0  0  0
   14.8681   -2.9393   31.6465 C   0  0  0  0  0  0  0  0  0  0  0  0
   14.6148   -4.1315   30.9386 C   0  0  0  0  0  0  0  0  0  0  0  0
   15.1471   -4.1916   29.6850 C   0  0  0  0  0  0  0  0  0  0  0  0
   15.8787   -3.2015   29.1235 C   0  0  0  0  0  0  0  0  0  0  0  0
   16.1504   -2.0218   29.7784 C   0  0  0  0  0  0  0  0  0  0  0  0
   15.0837   -5.1305   28.8146 N   0  0  0  0  0  0  0  0  0  0  0  0
   16.2898   -3.4876   27.9020 N   0  0  0  0  0  0  0  0  0  0  0  0
   15.7588   -4.6910   27.7846 C   0  0  0  0  0  0  0  0  0  0  0  0
   14.6249   -5.9970   28.9028 H   0  0  0  0  0  0  0  0  0  0  0  0
   15.8744   -0.6760   31.8125 C   0  0  0  0  0  0  0  0  0  0  0  0
   17.0792   -0.2589   32.0500 N   0  0  0  0  0  0  0  0  0  0  0  0
   14.8972    0.0393   32.2714 N   0  0  0  0  0  0  0  0  0  0  0  0
   17.8518   -0.7720   31.7197 H   0  0  0  0  0  0  0  0  0  0  0  0
   17.2213    0.5707   32.5607 H   0  0  0  0  0  0  0  0  0  0  0  0
   13.9664   -0.2403   32.1143 H   0  0  0  0  0  0  0  0  0  0  0  0
   15.0851    0.8626   32.7775 H   0  0  0  0  0  0  0  0  0  0  0  0
   15.8964   -5.4377   26.6062 C   0  0  0  0  0  0  0  0  0  0  0  0
   16.9564   -6.3386   26.3725 C   0  0  0  0  0  0  0  0  0  0  0  0
   17.0695   -7.0197   25.1738 C   0  0  0  0  0  0  0  0  0  0  0  0
   16.1213   -6.8213   24.1679 C   0  0  0  0  0  0  0  0  0  0  0  0
   15.0617   -5.9400   24.3749 C   0  0  0  0  0  0  0  0  0  0  0  0
   14.9543   -5.2602   25.5838 C   0  0  0  0  0  0  0  0  0  0  0  0
   13.9013   -4.3914   25.8234 O   0  0  0  0  0  0  0  0  0  0  0  0
  1  2  2  0  0  0
  1  6  1  0  0  0
  1 11  1  0  0  0
  2  3  1  0  0  0
  3  4  2  0  0  0
  4  5  1  0  0  0
  4  7  1  0  0  0
  5  6  2  0  0  0
  5  8  1  0  0  0
 11 12  1  0  0  0
 11 13  2  0  0  0
  7  9  1  0  0  0
  8  9  2  0  0  0
  9 18  1  0  0  0
 18 19  2  0  0  0
 18 23  1  0  0  0
 19 20  1  0  0  0
 20 21  2  0  0  0
 21 22  1  0  0  0
 22 23  2  0  0  0
 23 24  1  0  0  0
 12 14  1  0  0  0
 12 15  1  0  0  0
 13 16  1  0  0  0
 13 17  1  0  0  0
  7 10  1  0  0  0
M  CHG 1  13   1
M  CHG 1  24  -1
M  END
> <minimizedAffinity>
-7.37345

$$$$
1P57_CR4_B_346


 24 26  0  0  0  0  0  0  0  0999 V2000
   14.7628    0.3576   31.2314 C   0  0  0  0  0  0  0  0  0  0  0  0
   14.7090   -0.6164   32.2926 C   0  0  0  0  0  0  0  0  0  0  0  0
   15.0831   -1.9621   32.1032 C   0  0  0  0  0  0  0  0  0  0  0  0
   15.4997   -2.2819   30.8451 C   0  0  0  0  0  0  0  0  0  0  0  0
   15.5700   -1.3988   29.8223 C   0  0  0  0  0  0  0  0  0  0  0  0
   15.2152   -0.0764   29.9627 C   0  0  0  0  0  0  0  0  0  0  0  0
   15.8931   -3.4081   30.3763 N   0  0  0  0  0  0  0  0  0  0  0  0
   16.0043   -1.9387   28.6985 N   0  0  0  0  0  0  0  0  0  0  0  0
   16.1801   -3.1772   29.1217 C   0  0  0  0  0  0  0  0  0  0  0  0
   15.9641   -4.2638   30.8579 H   0  0  0  0  0  0  0  0  0  0  0  0
   14.3818    1.6938   31.4449 C   0  0  0  0  0  0  0  0  0  0  0  0
   15.1419    2.6796   31.0812 N   0  0  0  0  0  0  0  0  0  0  0  0
   13.2566    1.9900   32.0136 N   0  0  0  0  0  0  0  0  0  0  0  0
   16.0061    2.5000   30.6452 H   0  0  0  0  0  0  0  0  0  0  0  0
   14.8547    3.6076   31.2411 H   0  0  0  0  0  0  0  0  0  0  0  0
   12.6488    1.2727   32.3056 H   0  0  0  0  0  0  0  0  0  0  0  0
   13.0091    2.9325   32.1539 H   0  0  0  0  0  0  0  0  0  0  0  0
   16.6266   -4.1871   28.2581 C   0  0  0  0  0  0  0  0  0  0  0  0
   15.9396   -4.5738   27.0884 C   0  0  0  0  0  0  0  0  0  0  0  0
   16.4009   -5.6067   26.2922 C   0  0  0  0  0  0  0  0  0  0  0  0
   17.5695   -6.2869   26.6419 C   0  0  0  0  0  0  0  0  0  0  0  0
   18.2697   -5.9218   27.7901 C   0  0  0  0  0  0  0  0  0  0  0  0
   17.7999   -4.8809   28.5844 C   0  0  0  0  0  0  0  0  0  0  0  0
   18.4856   -4.4852   29.7221 O   0  0  0  0  0  0  0  0  0  0  0  0
  1  2  2  0  0  0
  1  6  1  0  0  0
  1 11  1  0  0  0
  2  3  1  0  0  0
  3  4  2  0  0  0
  4  5  1  0  0  0
  4  7  1  0  0  0
  5  6  2  0  0  0
  5  8  1  0  0  0
 11 12  1  0  0  0
 11 13  2  0  0  0
  7  9  1  0  0  0
  8  9  2  0  0  0
  9 18  1  0  0  0
 18 19  2  0  0  0
 18 23  1  0  0  0
 19 20  1  0  0  0
 20 21  2  0  0  0
 21 22  1  0  0  0
 22 23  2  0  0  0
 23 24  1  0  0  0
 12 14  1  0  0  0
 12 15  1  0  0  0
 13 16  1  0  0  0
 13 17  1  0  0  0
  7 10  1  0  0  0
M  CHG 1  13   1
M  CHG 1  24  -1
M  END
> <minimizedAffinity>
-6.97511

$$$$
1P57_CR4_B_346


 24 26  0  0  0  0  0  0  0  0999 V2000
   17.0646   -5.0632   27.9322 C   0  0  0  0  0  0  0  0  0  0  0  0
   17.8212   -5.3196   29.1321 C   0  0  0  0  0  0  0  0  0  0  0  0
   17.8020   -4.4470   30.2389 C   0  0  0  0  0  0  0  0  0  0  0  0
   17.0183   -3.3405   30.0978 C   0  0  0  0  0  0  0  0  0  0  0  0
   16.2890   -3.0638   28.9921 C   0  0  0  0  0  0  0  0  0  0  0  0
   16.2780   -3.8875   27.8895 C   0  0  0  0  0  0  0  0  0  0  0  0
   16.8059   -2.3795   30.9190 N   0  0  0  0  0  0  0  0  0  0  0  0
   15.6073   -1.9372   29.0877 N   0  0  0  0  0  0  0  0  0  0  0  0
   15.9795   -1.5758   30.3020 C   0  0  0  0  0  0  0  0  0  0  0  0
   17.1842   -2.2701   31.8214 H   0  0  0  0  0  0  0  0  0  0  0  0
   17.1022   -5.9479   26.8405 C   0  0  0  0  0  0  0  0  0  0  0  0
   17.7882   -7.0476   26.8852 N   0  0  0  0  0  0  0  0  0  0  0  0
   16.4530   -5.6970   25.7484 N   0  0  0  0  0  0  0  0  0  0  0  0
   18.2968   -7.2779   27.6961 H   0  0  0  0  0  0  0  0  0  0  0  0
   17.8002   -7.6522   26.1083 H   0  0  0  0  0  0  0  0  0  0  0  0
   15.9194   -4.8733   25.6711 H   0  0  0  0  0  0  0  0  0  0  0  0
   16.4932   -6.3299   24.9954 H   0  0  0  0  0  0  0  0  0  0  0  0
   15.5270   -0.3809   30.8787 C   0  0  0  0  0  0  0  0  0  0  0  0
   15.8048    0.8961   30.3478 C   0  0  0  0  0  0  0  0  0  0  0  0
   15.3703    2.0472   30.9800 C   0  0  0  0  0  0  0  0  0  0  0  0
   14.6401    1.9567   32.1670 C   0  0  0  0  0  0  0  0  0  0  0  0
   14.3484    0.7070   32.7104 C   0  0  0  0  0  0  0  0  0  0  0  0
   14.7876   -0.4458   32.0676 C   0  0  0  0  0  0  0  0  0  0  0  0
   14.4967   -1.7020   32.5761 O   0  0  0  0  0  0  0  0  0  0  0  0
  1  2  2  0  0  0
  1  6  1  0  0  0
  1 11  1  0  0  0
  2  3  1  0  0  0
  3  4  2  0  0  0
  4  5  1  0  0  0
  4  7  1  0  0  0
  5  6  2  0  0  0
  5  8  1  0  0  0
 11 12  1  0  0  0
 11 13  2  0  0  0
  7  9  1  0  0  0
  8  9  2  0  0  0
  9 18  1  0  0  0
 18 19  2  0  0  0
 18 23  1  0  0  0
 19 20  1  0  0  0
 20 21  2  0  0  0
 21 22  1  0  0  0
 22 23  2  0  0  0
 23 24  1  0  0  0
 12 14  1  0  0  0
 12 15  1  0  0  0
 13 16  1  0  0  0
 13 17  1  0  0  0
  7 10  1  0  0  0
M  CHG 1  13   1
M  CHG 1  24  -1
M  END
> <minimizedAffinity>
-6.70948

$$$$
1P57_CR4_B_346


 24 26  0  0  0  0  0  0  0  0999 V2000
   17.4673   -5.8135   29.3911 C   0  0  0  0  0  0  0  0  0  0  0  0
   16.1707   -5.9848   28.7850 C   0  0  0  0  0  0  0  0  0  0  0  0
   15.1585   -5.0081   28.8762 C   0  0  0  0  0  0  0  0  0  0  0  0
   15.4887   -3.8876   29.5790 C   0  0  0  0  0  0  0  0  0  0  0  0
   16.6939   -3.6841   30.1593 C   0  0  0  0  0  0  0  0  0  0  0  0
   17.7102   -4.6101   30.0950 C   0  0  0  0  0  0  0  0  0  0  0  0
   14.7866   -2.8454   29.8319 N   0  0  0  0  0  0  0  0  0  0  0  0
   16.7810   -2.5241   30.7835 N   0  0  0  0  0  0  0  0  0  0  0  0
   15.5666   -2.0678   30.5367 C   0  0  0  0  0  0  0  0  0  0  0  0
   13.8587   -2.6683   29.5548 H   0  0  0  0  0  0  0  0  0  0  0  0
   18.4596   -6.8037   29.2880 C   0  0  0  0  0  0  0  0  0  0  0  0
   18.5886   -7.7276   30.1889 N   0  0  0  0  0  0  0  0  0  0  0  0
   19.2830   -6.8297   28.2886 N   0  0  0  0  0  0  0  0  0  0  0  0
   17.9839   -7.7457   30.9656 H   0  0  0  0  0  0  0  0  0  0  0  0
   19.2912   -8.4110   30.0961 H   0  0  0  0  0  0  0  0  0  0  0  0
   19.2209   -6.1473   27.5818 H   0  0  0  0  0  0  0  0  0  0  0  0
   19.9710   -7.5319   28.2358 H   0  0  0  0  0  0  0  0  0  0  0  0
   15.1389   -0.8271   31.0294 C   0  0  0  0  0  0  0  0  0  0  0  0
   14.7367   -0.6144   32.3646 C   0  0  0  0  0  0  0  0  0  0  0  0
   14.2819    0.6209   32.7900 C   0  0  0  0  0  0  0  0  0  0  0  0
   14.2164    1.6867   31.8898 C   0  0  0  0  0  0  0  0  0  0  0  0
   14.6120    1.5043   30.5661 C   0  0  0  0  0  0  0  0  0  0  0  0
   15.0697    0.2594   30.1468 C   0  0  0  0  0  0  0  0  0  0  0  0
   15.4861    0.0544   28.8407 O   0  0  0  0  0  0  0  0  0  0  0  0
  1  2  2  0  0  0
  1  6  1  0  0  0
  1 11  1  0  0  0
  2  3  1  0  0  0
  3  4  2  0  0  0
  4  5  1  0  0  0
  4  7  1  0  0  0
  5  6  2  0  0  0
  5  8  1  0  0  0
 11 12  1  0  0  0
 11 13  2  0  0  0
  7  9  1  0  0  0
  8  9  2  0  0  0
  9 18  1  0  0  0
 18 19  2  0  0  0
 18 23  1  0  0  0
 19 20  1  0  0  0
 20 21  2  0  0  0
 21 22  1  0  0  0
 22 23  2  0  0  0
 23 24  1  0  0  0
 12 14  1  0  0  0
 12 15  1  0  0  0
 13 16  1  0  0  0
 13 17  1  0  0  0
  7 10  1  0  0  0
M  CHG 1  13   1
M  CHG 1  24  -1
M  END
> <minimizedAffinity>
-6.61641

$$$$
1P57_CR4_B_346


 24 26  0  0  0  0  0  0  0  0999 V2000
   17.4213   -5.5829   29.5186 C   0  0  0  0  0  0  0  0  0  0  0  0
   16.0837   -5.7962   29.0254 C   0  0  0  0  0  0  0  0  0  0  0  0
   15.0657   -4.8305   29.1592 C   0  0  0  0  0  0  0  0  0  0  0  0
   15.4318   -3.6782   29.7891 C   0  0  0  0  0  0  0  0  0  0  0  0
   16.6758   -3.4352   30.2627 C   0  0  0  0  0  0  0  0  0  0  0  0
   17.6992   -4.3490   30.1533 C   0  0  0  0  0  0  0  0  0  0  0  0
   14.7347   -2.6364   30.0567 N   0  0  0  0  0  0  0  0  0  0  0  0
   16.7928   -2.2499   30.8322 N   0  0  0  0  0  0  0  0  0  0  0  0
   15.5551   -1.8205   30.6659 C   0  0  0  0  0  0  0  0  0  0  0  0
   13.7848   -2.4832   29.8481 H   0  0  0  0  0  0  0  0  0  0  0  0
   18.4188   -6.5629   29.3750 C   0  0  0  0  0  0  0  0  0  0  0  0
   19.1718   -6.9119   30.3716 N   0  0  0  0  0  0  0  0  0  0  0  0
   18.6233   -7.1538   28.2409 N   0  0  0  0  0  0  0  0  0  0  0  0
   19.0507   -6.4882   31.2520 H   0  0  0  0  0  0  0  0  0  0  0  0
   19.8645   -7.6004   30.2477 H   0  0  0  0  0  0  0  0  0  0  0  0
   18.0746   -6.9196   27.4578 H   0  0  0  0  0  0  0  0  0  0  0  0
   19.3275   -7.8373   28.1618 H   0  0  0  0  0  0  0  0  0  0  0  0
   15.1472   -0.5669   31.1425 C   0  0  0  0  0  0  0  0  0  0  0  0
   15.3318    0.6366   30.4302 C   0  0  0  0  0  0  0  0  0  0  0  0
   14.9493    1.8538   30.9647 C   0  0  0  0  0  0  0  0  0  0  0  0
   14.3664    1.9053   32.2328 C   0  0  0  0  0  0  0  0  0  0  0  0
   14.1688    0.7304   32.9557 C   0  0  0  0  0  0  0  0  0  0  0  0
   14.5547   -0.4897   32.4104 C   0  0  0  0  0  0  0  0  0  0  0  0
   14.3540   -1.6755   33.0995 O   0  0  0  0  0  0  0  0  0  0  0  0
  1  2  2  0  0  0
  1  6  1  0  0  0
  1 11  1  0  0  0
  2  3  1  0  0  0
  3  4  2  0  0  0
  4  5  1  0  0  0
  4  7  1  0  0  0
  5  6  2  0  0  0
  5  8  1  0  0  0
 11 12  1  0  0  0
 11 13  2  0  0  0
  7  9  1  0  0  0
  8  9  2  0  0  0
  9 18  1  0  0  0
 18 19  2  0  0  0
 18 23  1  0  0  0
 19 20  1  0  0  0
 20 21  2  0  0  0
 21 22  1  0  0  0
 22 23  2  0  0  0
 23 24  1  0  0  0
 12 14  1  0  0  0
 12 15  1  0  0  0
 13 16  1  0  0  0
 13 17  1  0  0  0
  7 10  1  0  0  0
M  CHG 1  13   1
M  CHG 1  24  -1
M  END
> <minimizedAffinity>
-6.22215

$$$$
