4QDK_SAH_A_301


 33 35  0  0  0  0  0  0  0  0999 V2000
   21.3013    4.8780   11.7045 C   0  0  0  0  0  0  0  0  0  0  0  0
   20.5178    4.0283   10.8902 O   0  0  0  0  0  0  0  0  0  0  0  0
   21.7978    6.0051   10.8063 C   0  0  0  0  0  0  0  0  0  0  0  0
   23.2037    5.9348   10.7353 O   0  0  0  0  0  0  0  0  0  0  0  0
   21.2049    5.7055    9.4417 C   0  0  0  0  0  0  0  0  0  0  0  0
   22.1081    5.9761    8.3951 O   0  0  0  0  0  0  0  0  0  0  0  0
   20.8980    4.2213    9.5465 C   0  0  0  0  0  0  0  0  0  0  0  0
   23.4678    5.0582   10.4148 H   0  0  0  0  0  0  0  0  0  0  0  0
   22.9203    5.4627    8.5280 H   0  0  0  0  0  0  0  0  0  0  0  0
   19.8345    3.7681    8.6348 N   0  0  0  0  0  0  0  0  0  0  0  0
   18.6856    4.4320    8.2961 C   0  0  0  0  0  0  0  0  0  0  0  0
   17.9867    3.6562    7.4354 N   0  0  0  0  0  0  0  0  0  0  0  0
   18.6741    2.5092    7.2257 C   0  0  0  0  0  0  0  0  0  0  0  0
   18.4190    1.3876    6.4469 C   0  0  0  0  0  0  0  0  0  0  0  0
   17.3089    1.3117    5.7175 N   0  0  0  0  0  0  0  0  0  0  0  0
   19.3298    0.3529    6.4276 N   0  0  0  0  0  0  0  0  0  0  0  0
   20.4828    0.4305    7.1854 C   0  0  0  0  0  0  0  0  0  0  0  0
   20.7294    1.5484    7.9545 N   0  0  0  0  0  0  0  0  0  0  0  0
   19.8383    2.5698    7.9735 C   0  0  0  0  0  0  0  0  0  0  0  0
   16.6589    2.0510    5.7318 H   0  0  0  0  0  0  0  0  0  0  0  0
   17.1374    0.5161    5.1634 H   0  0  0  0  0  0  0  0  0  0  0  0
   20.4724    5.3680   12.8856 C   0  0  0  0  0  0  0  0  0  0  0  0
   21.3965    6.5063   13.9444 S   0  0  0  0  0  0  0  0  0  0  0  0
   21.6314    5.2120   15.1928 C   0  0  0  0  0  0  0  0  0  0  0  0
   23.0356    4.6198   15.1460 C   0  0  0  0  0  0  0  0  0  0  0  0
   25.2152    5.0983   16.1974 N   0  0  0  0  0  0  0  0  0  0  0  0
   23.8286    4.7151   16.4447 C   0  0  0  0  0  0  0  0  0  0  0  0
   25.2384    5.9922   15.7065 H   0  0  0  0  0  0  0  0  0  0  0  0
   25.6684    4.3850   15.6263 H   0  0  0  0  0  0  0  0  0  0  0  0
   23.7726    3.3838   17.1763 C   0  0  0  0  0  0  0  0  0  0  0  0
   22.7056    2.9450   17.6072 O   0  0  0  0  0  0  0  0  0  0  0  0
   24.7958    2.7218   17.3515 O   0  0  0  0  0  0  0  0  0  0  0  0
   25.6182    3.0370   17.0319 H   0  0  0  0  0  0  0  0  0  0  0  0
 26 27  1  0  0  0
 27 25  1  0  0  0
 27 30  1  0  0  0
 25 24  1  0  0  0
 24 23  1  0  0  0
 23 22  1  0  0  0
 30 31  2  0  0  0
 30 32  1  0  0  0
 22  1  1  0  0  0
  1  2  1  0  0  0
  1  3  1  0  0  0
  2  7  1  0  0  0
  3  4  1  0  0  0
  3  5  1  0  0  0
  5  6  1  0  0  0
  5  7  1  0  0  0
  7 10  1  0  0  0
 10 11  1  0  0  0
 10 19  1  0  0  0
 11 12  2  0  0  0
 12 13  1  0  0  0
 13 14  1  0  0  0
 13 19  2  0  0  0
 14 15  1  0  0  0
 14 16  2  0  0  0
 16 17  1  0  0  0
 17 18  2  0  0  0
 18 19  1  0  0  0
 26 28  1  0  0  0
 26 29  1  0  0  0
 32 33  1  0  0  0
  4  8  1  0  0  0
  6  9  1  0  0  0
 15 20  1  0  0  0
 15 21  1  0  0  0
M  END
> <minimizedAffinity>
-10.97785

$$$$
4QDK_SAH_A_301


 33 35  0  0  0  0  0  0  0  0999 V2000
   21.1570    5.0073   11.6885 C   0  0  0  0  0  0  0  0  0  0  0  0
   20.3901    4.1392   10.8778 O   0  0  0  0  0  0  0  0  0  0  0  0
   21.7364    6.0698   10.7617 C   0  0  0  0  0  0  0  0  0  0  0  0
   23.1411    5.9539   10.7707 O   0  0  0  0  0  0  0  0  0  0  0  0
   21.2066    5.7157    9.3842 C   0  0  0  0  0  0  0  0  0  0  0  0
   22.1719    5.9032    8.3754 O   0  0  0  0  0  0  0  0  0  0  0  0
   20.8465    4.2490    9.5485 C   0  0  0  0  0  0  0  0  0  0  0  0
   23.3930    5.0541   10.5106 H   0  0  0  0  0  0  0  0  0  0  0  0
   22.9589    5.3736    8.5785 H   0  0  0  0  0  0  0  0  0  0  0  0
   19.8182    3.7798    8.6052 N   0  0  0  0  0  0  0  0  0  0  0  0
   18.6830    4.4372    8.2120 C   0  0  0  0  0  0  0  0  0  0  0  0
   18.0170    3.6465    7.3387 N   0  0  0  0  0  0  0  0  0  0  0  0
   18.7117    2.4964    7.1749 C   0  0  0  0  0  0  0  0  0  0  0  0
   18.4861    1.3616    6.4062 C   0  0  0  0  0  0  0  0  0  0  0  0
   17.4044    1.2727    5.6367 N   0  0  0  0  0  0  0  0  0  0  0  0
   19.3968    0.3272    6.4391 N   0  0  0  0  0  0  0  0  0  0  0  0
   20.5204    0.4182    7.2385 C   0  0  0  0  0  0  0  0  0  0  0  0
   20.7379    1.5493    7.9971 N   0  0  0  0  0  0  0  0  0  0  0  0
   19.8468    2.5704    7.9650 C   0  0  0  0  0  0  0  0  0  0  0  0
   16.7545    2.0118    5.6138 H   0  0  0  0  0  0  0  0  0  0  0  0
   17.2538    0.4677    5.0902 H   0  0  0  0  0  0  0  0  0  0  0  0
   20.2835    5.5839   12.7961 C   0  0  0  0  0  0  0  0  0  0  0  0
   21.0817    6.9658   13.6471 S   0  0  0  0  0  0  0  0  0  0  0  0
   19.5840    7.9761   13.4884 C   0  0  0  0  0  0  0  0  0  0  0  0
   19.4060    8.9248   14.6686 C   0  0  0  0  0  0  0  0  0  0  0  0
   17.1556    9.9349   14.6569 N   0  0  0  0  0  0  0  0  0  0  0  0
   18.0144    8.9395   15.2912 C   0  0  0  0  0  0  0  0  0  0  0  0
   17.0902    9.7403   13.6577 H   0  0  0  0  0  0  0  0  0  0  0  0
   17.5516   10.8644   14.7970 H   0  0  0  0  0  0  0  0  0  0  0  0
   18.1247    9.2126   16.7825 C   0  0  0  0  0  0  0  0  0  0  0  0
   18.9862    8.6558   17.4639 O   0  0  0  0  0  0  0  0  0  0  0  0
   17.3517    9.9958   17.3348 O   0  0  0  0  0  0  0  0  0  0  0  0
   16.6888   10.4304   16.8351 H   0  0  0  0  0  0  0  0  0  0  0  0
 26 27  1  0  0  0
 27 25  1  0  0  0
 27 30  1  0  0  0
 25 24  1  0  0  0
 24 23  1  0  0  0
 23 22  1  0  0  0
 30 31  2  0  0  0
 30 32  1  0  0  0
 22  1  1  0  0  0
  1  2  1  0  0  0
  1  3  1  0  0  0
  2  7  1  0  0  0
  3  4  1  0  0  0
  3  5  1  0  0  0
  5  6  1  0  0  0
  5  7  1  0  0  0
  7 10  1  0  0  0
 10 11  1  0  0  0
 10 19  1  0  0  0
 11 12  2  0  0  0
 12 13  1  0  0  0
 13 14  1  0  0  0
 13 19  2  0  0  0
 14 15  1  0  0  0
 14 16  2  0  0  0
 16 17  1  0  0  0
 17 18  2  0  0  0
 18 19  1  0  0  0
 26 28  1  0  0  0
 26 29  1  0  0  0
 32 33  1  0  0  0
  4  8  1  0  0  0
  6  9  1  0  0  0
 15 20  1  0  0  0
 15 21  1  0  0  0
M  END
> <minimizedAffinity>
-9.98729

$$$$
4QDK_SAH_A_301


 33 35  0  0  0  0  0  0  0  0999 V2000
   22.1926    5.5495   15.1577 C   0  0  0  0  0  0  0  0  0  0  0  0
   22.7394    5.8248   13.8833 O   0  0  0  0  0  0  0  0  0  0  0  0
   20.6784    5.5211   14.9847 C   0  0  0  0  0  0  0  0  0  0  0  0
   20.1213    6.5696   15.7444 O   0  0  0  0  0  0  0  0  0  0  0  0
   20.4501    5.7872   13.5080 C   0  0  0  0  0  0  0  0  0  0  0  0
   19.3420    6.6269   13.2810 O   0  0  0  0  0  0  0  0  0  0  0  0
   21.7518    6.4557   13.0997 C   0  0  0  0  0  0  0  0  0  0  0  0
   20.5129    7.4128   15.4678 H   0  0  0  0  0  0  0  0  0  0  0  0
   19.4667    7.4628   13.7571 H   0  0  0  0  0  0  0  0  0  0  0  0
   22.0633    6.3255   11.6667 N   0  0  0  0  0  0  0  0  0  0  0  0
   23.2723    6.5203   11.0537 C   0  0  0  0  0  0  0  0  0  0  0  0
   23.1146    6.3009    9.7277 N   0  0  0  0  0  0  0  0  0  0  0  0
   21.8230    5.9727    9.4908 C   0  0  0  0  0  0  0  0  0  0  0  0
   21.1305    5.6529    8.3298 C   0  0  0  0  0  0  0  0  0  0  0  0
   21.7561    5.6323    7.1557 N   0  0  0  0  0  0  0  0  0  0  0  0
   19.7880    5.3481    8.4021 N   0  0  0  0  0  0  0  0  0  0  0  0
   19.1371    5.3698    9.6209 C   0  0  0  0  0  0  0  0  0  0  0  0
   19.8324    5.6865   10.7691 N   0  0  0  0  0  0  0  0  0  0  0  0
   21.1535    5.9833   10.7032 C   0  0  0  0  0  0  0  0  0  0  0  0
   22.7149    5.8501    7.1050 H   0  0  0  0  0  0  0  0  0  0  0  0
   21.2603    5.3992    6.3378 H   0  0  0  0  0  0  0  0  0  0  0  0
   22.7636    4.2414   15.6918 C   0  0  0  0  0  0  0  0  0  0  0  0
   24.2512    4.5005   16.6872 S   0  0  0  0  0  0  0  0  0  0  0  0
   23.6268    3.3877   17.9759 C   0  0  0  0  0  0  0  0  0  0  0  0
   22.4084    2.5985   17.5094 C   0  0  0  0  0  0  0  0  0  0  0  0
   23.9614    0.8480   16.7294 N   0  0  0  0  0  0  0  0  0  0  0  0
   22.6397    1.1073   17.2920 C   0  0  0  0  0  0  0  0  0  0  0  0
   24.6759    1.2261   17.3515 H   0  0  0  0  0  0  0  0  0  0  0  0
   24.0355    1.2947   15.8154 H   0  0  0  0  0  0  0  0  0  0  0  0
   21.5599    0.5507   16.3783 C   0  0  0  0  0  0  0  0  0  0  0  0
   21.0971   -0.5757   16.5618 O   0  0  0  0  0  0  0  0  0  0  0  0
   21.1305    1.2181   15.4370 O   0  0  0  0  0  0  0  0  0  0  0  0
   21.4686    2.0776   15.2794 H   0  0  0  0  0  0  0  0  0  0  0  0
 26 27  1  0  0  0
 27 25  1  0  0  0
 27 30  1  0  0  0
 25 24  1  0  0  0
 24 23  1  0  0  0
 23 22  1  0  0  0
 30 31  2  0  0  0
 30 32  1  0  0  0
 22  1  1  0  0  0
  1  2  1  0  0  0
  1  3  1  0  0  0
  2  7  1  0  0  0
  3  4  1  0  0  0
  3  5  1  0  0  0
  5  6  1  0  0  0
  5  7  1  0  0  0
  7 10  1  0  0  0
 10 11  1  0  0  0
 10 19  1  0  0  0
 11 12  2  0  0  0
 12 13  1  0  0  0
 13 14  1  0  0  0
 13 19  2  0  0  0
 14 15  1  0  0  0
 14 16  2  0  0  0
 16 17  1  0  0  0
 17 18  2  0  0  0
 18 19  1  0  0  0
 26 28  1  0  0  0
 26 29  1  0  0  0
 32 33  1  0  0  0
  4  8  1  0  0  0
  6  9  1  0  0  0
 15 20  1  0  0  0
 15 21  1  0  0  0
M  END
> <minimizedAffinity>
-8.07900

$$$$
4QDK_SAH_A_301


 33 35  0  0  0  0  0  0  0  0999 V2000
   20.8255    5.2793   11.6818 C   0  0  0  0  0  0  0  0  0  0  0  0
   21.5437    4.5597   12.6644 O   0  0  0  0  0  0  0  0  0  0  0  0
   20.3267    6.5536   12.3534 C   0  0  0  0  0  0  0  0  0  0  0  0
   18.9174    6.5311   12.3655 O   0  0  0  0  0  0  0  0  0  0  0  0
   20.8480    6.4734   13.7765 C   0  0  0  0  0  0  0  0  0  0  0  0
   19.9083    6.9387   14.7173 O   0  0  0  0  0  0  0  0  0  0  0  0
   21.1104    4.9856   13.9365 C   0  0  0  0  0  0  0  0  0  0  0  0
   18.6107    5.7278   12.8145 H   0  0  0  0  0  0  0  0  0  0  0  0
   19.0865    6.4305   14.6319 H   0  0  0  0  0  0  0  0  0  0  0  0
   22.1168    4.6662   14.9625 N   0  0  0  0  0  0  0  0  0  0  0  0
   23.1197    5.4737   15.4288 C   0  0  0  0  0  0  0  0  0  0  0  0
   23.8167    4.7863   16.3631 N   0  0  0  0  0  0  0  0  0  0  0  0
   23.2722    3.5540   16.4938 C   0  0  0  0  0  0  0  0  0  0  0  0
   23.5883    2.4653   17.2966 C   0  0  0  0  0  0  0  0  0  0  0  0
   24.6098    2.5287   18.1468 N   0  0  0  0  0  0  0  0  0  0  0  0
   22.8301    1.3171   17.2130 N   0  0  0  0  0  0  0  0  0  0  0  0
   21.7693    1.2499   16.3298 C   0  0  0  0  0  0  0  0  0  0  0  0
   21.4609    2.3360   15.5376 N   0  0  0  0  0  0  0  0  0  0  0  0
   22.2016    3.4684   15.6193 C   0  0  0  0  0  0  0  0  0  0  0  0
   25.1508    3.3491   18.2060 H   0  0  0  0  0  0  0  0  0  0  0  0
   24.8245    1.7552   18.7168 H   0  0  0  0  0  0  0  0  0  0  0  0
   21.7219    5.5427   10.4779 C   0  0  0  0  0  0  0  0  0  0  0  0
   20.8033    5.5074    8.9205 S   0  0  0  0  0  0  0  0  0  0  0  0
   20.2874    3.7950    9.2214 C   0  0  0  0  0  0  0  0  0  0  0  0
   19.4184    3.2524    8.0921 C   0  0  0  0  0  0  0  0  0  0  0  0
   20.8056    1.2513    7.6977 N   0  0  0  0  0  0  0  0  0  0  0  0
   19.4469    1.7383    7.9154 C   0  0  0  0  0  0  0  0  0  0  0  0
   21.3944    1.5230    8.4850 H   0  0  0  0  0  0  0  0  0  0  0  0
   21.1783    1.6559    6.8388 H   0  0  0  0  0  0  0  0  0  0  0  0
   18.5528    1.3429    6.7514 C   0  0  0  0  0  0  0  0  0  0  0  0
   18.9594    0.5801    5.8742 O   0  0  0  0  0  0  0  0  0  0  0  0
   17.4053    1.7811    6.6659 O   0  0  0  0  0  0  0  0  0  0  0  0
   17.0758    2.3628    7.3223 H   0  0  0  0  0  0  0  0  0  0  0  0
 26 27  1  0  0  0
 27 25  1  0  0  0
 27 30  1  0  0  0
 25 24  1  0  0  0
 24 23  1  0  0  0
 23 22  1  0  0  0
 30 31  2  0  0  0
 30 32  1  0  0  0
 22  1  1  0  0  0
  1  2  1  0  0  0
  1  3  1  0  0  0
  2  7  1  0  0  0
  3  4  1  0  0  0
  3  5  1  0  0  0
  5  6  1  0  0  0
  5  7  1  0  0  0
  7 10  1  0  0  0
 10 11  1  0  0  0
 10 19  1  0  0  0
 11 12  2  0  0  0
 12 13  1  0  0  0
 13 14  1  0  0  0
 13 19  2  0  0  0
 14 15  1  0  0  0
 14 16  2  0  0  0
 16 17  1  0  0  0
 17 18  2  0  0  0
 18 19  1  0  0  0
 26 28  1  0  0  0
 26 29  1  0  0  0
 32 33  1  0  0  0
  4  8  1  0  0  0
  6  9  1  0  0  0
 15 20  1  0  0  0
 15 21  1  0  0  0
M  END
> <minimizedAffinity>
-7.98719

$$$$
