4CP5_EOI_A_1156


 33 34  0  0  0  0  0  0  0  0999 V2000
   28.5789   -6.5071   62.5598 C   0  0  0  0  0  0  0  0  0  0  0  0
   29.2473   -5.0314   61.7011 P   0  0  0  0  0  0  0  0  0  0  0  0
   30.1708   -5.9825   60.1629 S   0  0  0  0  0  0  0  0  0  0  0  0
   28.3269   -3.9021   61.4780 O   0  0  0  0  0  0  0  0  0  0  0  0
   30.9573   -6.9783   60.6523 H   0  0  0  0  0  0  0  0  0  0  0  0
   30.4554   -4.5504   62.6021 O   0  0  0  0  0  0  0  0  0  0  0  0
   31.3897   -3.8521   63.6956 P   0  0  0  0  0  0  0  0  0  0  0  0
   30.9808   -2.4726   64.0343 O   0  0  0  0  0  0  0  0  0  0  0  0
   32.8070   -4.0486   63.1525 O   0  0  0  0  0  0  0  0  0  0  0  0
   33.4457   -3.6491   63.7635 H   0  0  0  0  0  0  0  0  0  0  0  0
   31.2823   -4.7746   64.9267 O   0  0  0  0  0  0  0  0  0  0  0  0
   30.8188   -5.5046   66.2190 P   0  0  0  0  0  0  0  0  0  0  0  0
   30.1814   -6.8695   66.1165 O   0  0  0  0  0  0  0  0  0  0  0  0
   32.1058   -5.4721   67.0766 O   0  0  0  0  0  0  0  0  0  0  0  0
   29.8162   -4.4082   66.6185 O   0  0  0  0  0  0  0  0  0  0  0  0
   29.9506   -7.1861   67.0039 H   0  0  0  0  0  0  0  0  0  0  0  0
   31.9387   -5.9078   67.9270 H   0  0  0  0  0  0  0  0  0  0  0  0
   29.6386   -7.2617   63.1385 O   0  0  0  0  0  0  0  0  0  0  0  0
   28.9638   -9.3511   63.9734 C   0  0  0  0  0  0  0  0  0  0  0  0
   29.6666   -8.6329   62.8515 C   0  0  0  0  0  0  0  0  0  0  0  0
   31.1244   -9.0639   62.5255 C   0  0  0  0  0  0  0  0  0  0  0  0
   32.2203   -8.2410   63.0231 N   0  0  0  0  0  0  0  0  0  0  0  0
   33.9581   -6.8183   62.9790 N   0  0  0  0  0  0  0  0  0  0  0  0
   32.3683   -8.9944   65.3308 N   0  0  0  0  0  0  0  0  0  0  0  0
   32.9561   -7.3394   62.3130 C   0  0  0  0  0  0  0  0  0  0  0  0
   34.1481   -7.8920   66.5302 N   0  0  0  0  0  0  0  0  0  0  0  0
   33.8514   -7.3997   64.2329 C   0  0  0  0  0  0  0  0  0  0  0  0
   35.5262   -6.2864   65.5920 N   0  0  0  0  0  0  0  0  0  0  0  0
   32.7890   -8.2858   64.2695 C   0  0  0  0  0  0  0  0  0  0  0  0
   33.1108   -8.7297   66.4115 C   0  0  0  0  0  0  0  0  0  0  0  0
   34.5507   -7.1910   65.4430 C   0  0  0  0  0  0  0  0  0  0  0  0
   35.9771   -6.1873   66.4615 H   0  0  0  0  0  0  0  0  0  0  0  0
   35.7927   -5.7201   64.8320 H   0  0  0  0  0  0  0  0  0  0  0  0
 19 20  1  0  0  0
 21 22  1  0  0  0
 22 25  1  0  0  0
 22 29  1  0  0  0
  1 18  1  0  0  0
 18 20  1  0  0  0
  1  2  1  0  0  0
  3  2  1  0  0  0
  2  6  1  0  0  0
  2  4  2  0  0  0
 20 21  1  0  0  0
 25 23  2  0  0  0
 23 27  1  0  0  0
 11  7  1  0  0  0
  8  7  2  0  0  0
  6  7  1  0  0  0
  7  9  1  0  0  0
 24 29  1  0  0  0
 24 30  2  0  0  0
 15 12  2  0  0  0
 13 12  1  0  0  0
 12 14  1  0  0  0
 12 11  1  0  0  0
 30 26  1  0  0  0
 26 31  2  0  0  0
 29 27  2  0  0  0
 27 31  1  0  0  0
 31 28  1  0  0  0
  3  5  1  0  0  0
 28 32  1  0  0  0
 28 33  1  0  0  0
  9 10  1  0  0  0
 13 16  1  0  0  0
 14 17  1  0  0  0
M  END
> <minimizedAffinity>
0.00000

$$$$
4CP5_EOI_A_1156


 33 34  0  0  0  0  0  0  0  0999 V2000
   34.2854  -12.2484   62.9493 C   0  0  0  0  0  0  0  0  0  0  0  0
   35.6936  -11.1335   63.3174 P   0  0  0  0  0  0  0  0  0  0  0  0
   36.2758  -11.9692   65.0742 S   0  0  0  0  0  0  0  0  0  0  0  0
   36.6495  -10.8664   62.2278 O   0  0  0  0  0  0  0  0  0  0  0  0
   35.1977  -12.1011   65.8927 H   0  0  0  0  0  0  0  0  0  0  0  0
   35.0259   -9.7731   63.7715 O   0  0  0  0  0  0  0  0  0  0  0  0
   34.4584   -8.2812   63.8627 P   0  0  0  0  0  0  0  0  0  0  0  0
   34.5328   -7.6979   65.2189 O   0  0  0  0  0  0  0  0  0  0  0  0
   33.0750   -8.3702   63.2141 O   0  0  0  0  0  0  0  0  0  0  0  0
   32.6547   -7.4960   63.2276 H   0  0  0  0  0  0  0  0  0  0  0  0
   35.3333   -7.4847   62.8736 O   0  0  0  0  0  0  0  0  0  0  0  0
   36.4652   -7.0047   61.9217 P   0  0  0  0  0  0  0  0  0  0  0  0
   37.5657   -7.9614   61.5299 O   0  0  0  0  0  0  0  0  0  0  0  0
   35.6556   -6.4505   60.7257 O   0  0  0  0  0  0  0  0  0  0  0  0
   36.9512   -5.8947   62.8697 O   0  0  0  0  0  0  0  0  0  0  0  0
   38.1884   -7.5125   60.9370 H   0  0  0  0  0  0  0  0  0  0  0  0
   36.2655   -6.1142   60.0505 H   0  0  0  0  0  0  0  0  0  0  0  0
   33.1606  -11.4927   62.5124 O   0  0  0  0  0  0  0  0  0  0  0  0
   32.5328  -13.6400   61.7962 C   0  0  0  0  0  0  0  0  0  0  0  0
   32.2041  -12.1710   61.7454 C   0  0  0  0  0  0  0  0  0  0  0  0
   32.0992  -11.5073   60.3433 C   0  0  0  0  0  0  0  0  0  0  0  0
   33.1077  -10.5260   59.9616 N   0  0  0  0  0  0  0  0  0  0  0  0
   33.9955   -8.5289   59.4426 N   0  0  0  0  0  0  0  0  0  0  0  0
   34.9650  -11.9705   59.3460 N   0  0  0  0  0  0  0  0  0  0  0  0
   32.9639   -9.1705   59.9356 C   0  0  0  0  0  0  0  0  0  0  0  0
   36.8742  -10.7116   58.5772 N   0  0  0  0  0  0  0  0  0  0  0  0
   34.8982   -9.5403   59.1527 C   0  0  0  0  0  0  0  0  0  0  0  0
   36.9297   -8.4000   58.4712 N   0  0  0  0  0  0  0  0  0  0  0  0
   34.3584  -10.7769   59.4599 C   0  0  0  0  0  0  0  0  0  0  0  0
   36.2173  -11.8332   58.8965 C   0  0  0  0  0  0  0  0  0  0  0  0
   36.2372   -9.5224   58.7014 C   0  0  0  0  0  0  0  0  0  0  0  0
   37.8612   -8.4520   58.1571 H   0  0  0  0  0  0  0  0  0  0  0  0
   36.5073   -7.5226   58.6160 H   0  0  0  0  0  0  0  0  0  0  0  0
 19 20  1  0  0  0
 21 22  1  0  0  0
 22 25  1  0  0  0
 22 29  1  0  0  0
  1 18  1  0  0  0
 18 20  1  0  0  0
  1  2  1  0  0  0
  3  2  1  0  0  0
  2  6  1  0  0  0
  2  4  2  0  0  0
 20 21  1  0  0  0
 25 23  2  0  0  0
 23 27  1  0  0  0
 11  7  1  0  0  0
  8  7  2  0  0  0
  6  7  1  0  0  0
  7  9  1  0  0  0
 24 29  1  0  0  0
 24 30  2  0  0  0
 15 12  2  0  0  0
 13 12  1  0  0  0
 12 14  1  0  0  0
 12 11  1  0  0  0
 30 26  1  0  0  0
 26 31  2  0  0  0
 29 27  2  0  0  0
 27 31  1  0  0  0
 31 28  1  0  0  0
  3  5  1  0  0  0
 28 32  1  0  0  0
 28 33  1  0  0  0
  9 10  1  0  0  0
 13 16  1  0  0  0
 14 17  1  0  0  0
M  END
> <minimizedAffinity>
0.00074

$$$$
4CP5_EOI_A_1156


 33 34  0  0  0  0  0  0  0  0999 V2000
   38.2435  -10.4520   66.1298 C   0  0  0  0  0  0  0  0  0  0  0  0
   38.5020   -8.6378   66.0702 P   0  0  0  0  0  0  0  0  0  0  0  0
   39.7374   -8.4665   67.6727 S   0  0  0  0  0  0  0  0  0  0  0  0
   38.8349   -8.0432   64.7634 O   0  0  0  0  0  0  0  0  0  0  0  0
   39.1867   -9.1048   68.7399 H   0  0  0  0  0  0  0  0  0  0  0  0
   37.1450   -8.0174   66.5958 O   0  0  0  0  0  0  0  0  0  0  0  0
   35.7194   -7.3076   66.7388 P   0  0  0  0  0  0  0  0  0  0  0  0
   35.5562   -6.5481   67.9964 O   0  0  0  0  0  0  0  0  0  0  0  0
   34.7166   -8.4307   66.4642 O   0  0  0  0  0  0  0  0  0  0  0  0
   33.8141   -8.0819   66.5315 H   0  0  0  0  0  0  0  0  0  0  0  0
   35.6417   -6.3700   65.5169 O   0  0  0  0  0  0  0  0  0  0  0  0
   35.9711   -5.4746   64.2891 P   0  0  0  0  0  0  0  0  0  0  0  0
   37.3579   -5.5076   63.6928 O   0  0  0  0  0  0  0  0  0  0  0  0
   34.8497   -5.8725   63.3006 O   0  0  0  0  0  0  0  0  0  0  0  0
   35.6700   -4.1562   65.0227 O   0  0  0  0  0  0  0  0  0  0  0  0
   37.4006   -4.8977   62.9398 H   0  0  0  0  0  0  0  0  0  0  0  0
   34.9505   -5.3691   62.4776 H   0  0  0  0  0  0  0  0  0  0  0  0
   36.8654  -10.7590   65.9456 O   0  0  0  0  0  0  0  0  0  0  0  0
   37.8294  -12.8580   65.5175 C   0  0  0  0  0  0  0  0  0  0  0  0
   36.5625  -12.0444   65.4771 C   0  0  0  0  0  0  0  0  0  0  0  0
   35.8217  -11.9375   64.1144 C   0  0  0  0  0  0  0  0  0  0  0  0
   35.7944  -10.6465   63.4374 N   0  0  0  0  0  0  0  0  0  0  0  0
   34.9556   -8.7384   62.5999 N   0  0  0  0  0  0  0  0  0  0  0  0
   38.0206  -10.5771   62.4604 N   0  0  0  0  0  0  0  0  0  0  0  0
   34.7458   -9.7779   63.3709 C   0  0  0  0  0  0  0  0  0  0  0  0
   38.3795   -8.5714   61.1683 N   0  0  0  0  0  0  0  0  0  0  0  0
   36.2543   -8.9240   62.1516 C   0  0  0  0  0  0  0  0  0  0  0  0
   36.7941   -6.9033   60.9200 N   0  0  0  0  0  0  0  0  0  0  0  0
   36.7787  -10.1020   62.6541 C   0  0  0  0  0  0  0  0  0  0  0  0
   38.7431   -9.7424   61.7051 C   0  0  0  0  0  0  0  0  0  0  0  0
   37.1206   -8.1175   61.3797 C   0  0  0  0  0  0  0  0  0  0  0  0
   37.4418   -6.3884   60.3865 H   0  0  0  0  0  0  0  0  0  0  0  0
   35.9064   -6.5252   61.1155 H   0  0  0  0  0  0  0  0  0  0  0  0
 19 20  1  0  0  0
 21 22  1  0  0  0
 22 25  1  0  0  0
 22 29  1  0  0  0
  1 18  1  0  0  0
 18 20  1  0  0  0
  1  2  1  0  0  0
  3  2  1  0  0  0
  2  6  1  0  0  0
  2  4  2  0  0  0
 20 21  1  0  0  0
 25 23  2  0  0  0
 23 27  1  0  0  0
 11  7  1  0  0  0
  8  7  2  0  0  0
  6  7  1  0  0  0
  7  9  1  0  0  0
 24 29  1  0  0  0
 24 30  2  0  0  0
 15 12  2  0  0  0
 13 12  1  0  0  0
 12 14  1  0  0  0
 12 11  1  0  0  0
 30 26  1  0  0  0
 26 31  2  0  0  0
 29 27  2  0  0  0
 27 31  1  0  0  0
 31 28  1  0  0  0
  3  5  1  0  0  0
 28 32  1  0  0  0
 28 33  1  0  0  0
  9 10  1  0  0  0
 13 16  1  0  0  0
 14 17  1  0  0  0
M  END
> <minimizedAffinity>
0.00136

$$$$
4CP5_EOI_A_1156


 33 34  0  0  0  0  0  0  0  0999 V2000
   36.1398  -12.4238   56.6702 C   0  0  0  0  0  0  0  0  0  0  0  0
   34.5751  -13.2078   57.2168 P   0  0  0  0  0  0  0  0  0  0  0  0
   34.0533  -14.0755   55.4566 S   0  0  0  0  0  0  0  0  0  0  0  0
   34.6021  -13.9658   58.4806 O   0  0  0  0  0  0  0  0  0  0  0  0
   34.1141  -13.1517   54.4603 H   0  0  0  0  0  0  0  0  0  0  0  0
   33.5464  -12.0129   57.3463 O   0  0  0  0  0  0  0  0  0  0  0  0
   32.6175  -10.8182   57.8620 P   0  0  0  0  0  0  0  0  0  0  0  0
   31.4357  -10.5724   57.0088 O   0  0  0  0  0  0  0  0  0  0  0  0
   33.5894   -9.6533   58.0641 O   0  0  0  0  0  0  0  0  0  0  0  0
   33.1019   -8.8767   58.3807 H   0  0  0  0  0  0  0  0  0  0  0  0
   32.1912  -11.2571   59.2776 O   0  0  0  0  0  0  0  0  0  0  0  0
   31.8907  -12.0660   60.5711 P   0  0  0  0  0  0  0  0  0  0  0  0
   32.3847  -13.4875   60.6932 O   0  0  0  0  0  0  0  0  0  0  0  0
   32.4268  -11.1154   61.6674 O   0  0  0  0  0  0  0  0  0  0  0  0
   30.3631  -11.9787   60.4104 O   0  0  0  0  0  0  0  0  0  0  0  0
   32.1173  -13.8501   61.5522 H   0  0  0  0  0  0  0  0  0  0  0  0
   32.2927  -11.5190   62.5392 H   0  0  0  0  0  0  0  0  0  0  0  0
   36.2468  -11.1105   57.2098 O   0  0  0  0  0  0  0  0  0  0  0  0
   38.4914  -11.5412   56.6674 C   0  0  0  0  0  0  0  0  0  0  0  0
   37.5385  -10.5809   57.3294 C   0  0  0  0  0  0  0  0  0  0  0  0
   37.8104  -10.2095   58.8145 C   0  0  0  0  0  0  0  0  0  0  0  0
   36.8801  -10.6851   59.8314 N   0  0  0  0  0  0  0  0  0  0  0  0
   35.3062  -10.6038   61.4320 N   0  0  0  0  0  0  0  0  0  0  0  0
   37.5658  -13.0082   60.0511 N   0  0  0  0  0  0  0  0  0  0  0  0
   35.9310   -9.9529   60.4807 C   0  0  0  0  0  0  0  0  0  0  0  0
   36.2795  -14.1769   61.7246 N   0  0  0  0  0  0  0  0  0  0  0  0
   35.8671  -11.8705   61.3807 C   0  0  0  0  0  0  0  0  0  0  0  0
   34.5758  -13.1990   62.9489 N   0  0  0  0  0  0  0  0  0  0  0  0
   36.8453  -11.9302   60.4037 C   0  0  0  0  0  0  0  0  0  0  0  0
   37.2107  -14.0802   60.7680 C   0  0  0  0  0  0  0  0  0  0  0  0
   35.5688  -13.0733   62.0598 C   0  0  0  0  0  0  0  0  0  0  0  0
   34.4169  -14.0646   63.3902 H   0  0  0  0  0  0  0  0  0  0  0  0
   34.0046  -12.4259   63.1615 H   0  0  0  0  0  0  0  0  0  0  0  0
 19 20  1  0  0  0
 21 22  1  0  0  0
 22 25  1  0  0  0
 22 29  1  0  0  0
  1 18  1  0  0  0
 18 20  1  0  0  0
  1  2  1  0  0  0
  3  2  1  0  0  0
  2  6  1  0  0  0
  2  4  2  0  0  0
 20 21  1  0  0  0
 25 23  2  0  0  0
 23 27  1  0  0  0
 11  7  1  0  0  0
  8  7  2  0  0  0
  6  7  1  0  0  0
  7  9  1  0  0  0
 24 29  1  0  0  0
 24 30  2  0  0  0
 15 12  2  0  0  0
 13 12  1  0  0  0
 12 14  1  0  0  0
 12 11  1  0  0  0
 30 26  1  0  0  0
 26 31  2  0  0  0
 29 27  2  0  0  0
 27 31  1  0  0  0
 31 28  1  0  0  0
  3  5  1  0  0  0
 28 32  1  0  0  0
 28 33  1  0  0  0
  9 10  1  0  0  0
 13 16  1  0  0  0
 14 17  1  0  0  0
M  END
> <minimizedAffinity>
0.01155

$$$$
4CP5_EOI_A_1156


 33 34  0  0  0  0  0  0  0  0999 V2000
   33.6222  -10.1018   62.0003 C   0  0  0  0  0  0  0  0  0  0  0  0
   32.1266  -10.8832   62.7176 P   0  0  0  0  0  0  0  0  0  0  0  0
   33.0514  -12.2116   63.9438 S   0  0  0  0  0  0  0  0  0  0  0  0
   31.0604   -9.9883   63.2018 O   0  0  0  0  0  0  0  0  0  0  0  0
   33.9870  -12.9032   63.2397 H   0  0  0  0  0  0  0  0  0  0  0  0
   31.5544  -11.8000   61.5623 O   0  0  0  0  0  0  0  0  0  0  0  0
   30.7334  -12.4134   60.3350 P   0  0  0  0  0  0  0  0  0  0  0  0
   30.6335  -13.8879   60.3635 O   0  0  0  0  0  0  0  0  0  0  0  0
   31.3810  -11.7794   59.1017 O   0  0  0  0  0  0  0  0  0  0  0  0
   30.9371  -12.1018   58.3017 H   0  0  0  0  0  0  0  0  0  0  0  0
   29.3388  -11.7660   60.4542 O   0  0  0  0  0  0  0  0  0  0  0  0
   28.0320  -11.1020   60.9728 P   0  0  0  0  0  0  0  0  0  0  0  0
   28.0394  -10.3753   62.2963 O   0  0  0  0  0  0  0  0  0  0  0  0
   27.6307  -10.2168   59.7693 O   0  0  0  0  0  0  0  0  0  0  0  0
   27.2431  -12.4218   61.0231 O   0  0  0  0  0  0  0  0  0  0  0  0
   27.1545  -10.0205   62.4753 H   0  0  0  0  0  0  0  0  0  0  0  0
   26.8111   -9.7414   59.9767 H   0  0  0  0  0  0  0  0  0  0  0  0
   33.4628   -9.9316   60.5957 O   0  0  0  0  0  0  0  0  0  0  0  0
   35.2298   -8.4422   61.0168 C   0  0  0  0  0  0  0  0  0  0  0  0
   34.2638   -8.9586   59.9831 C   0  0  0  0  0  0  0  0  0  0  0  0
   33.3577   -7.9191   59.2651 C   0  0  0  0  0  0  0  0  0  0  0  0
   31.9252   -7.9412   59.5357 N   0  0  0  0  0  0  0  0  0  0  0  0
   29.7265   -8.2031   59.1579 N   0  0  0  0  0  0  0  0  0  0  0  0
   31.8399   -6.8782   61.7216 N   0  0  0  0  0  0  0  0  0  0  0  0
   30.9429   -8.4080   58.7137 C   0  0  0  0  0  0  0  0  0  0  0  0
   29.5784   -6.6587   62.5333 N   0  0  0  0  0  0  0  0  0  0  0  0
   29.9281   -7.5824   60.3810 C   0  0  0  0  0  0  0  0  0  0  0  0
   27.7197   -7.4034   61.3722 N   0  0  0  0  0  0  0  0  0  0  0  0
   31.2797   -7.4072   60.6207 C   0  0  0  0  0  0  0  0  0  0  0  0
   30.9084   -6.5344   62.6180 C   0  0  0  0  0  0  0  0  0  0  0  0
   29.0416   -7.1951   61.4110 C   0  0  0  0  0  0  0  0  0  0  0  0
   27.1529   -7.1103   62.1220 H   0  0  0  0  0  0  0  0  0  0  0  0
   27.3143   -7.8496   60.5939 H   0  0  0  0  0  0  0  0  0  0  0  0
 19 20  1  0  0  0
 21 22  1  0  0  0
 22 25  1  0  0  0
 22 29  1  0  0  0
  1 18  1  0  0  0
 18 20  1  0  0  0
  1  2  1  0  0  0
  3  2  1  0  0  0
  2  6  1  0  0  0
  2  4  2  0  0  0
 20 21  1  0  0  0
 25 23  2  0  0  0
 23 27  1  0  0  0
 11  7  1  0  0  0
  8  7  2  0  0  0
  6  7  1  0  0  0
  7  9  1  0  0  0
 24 29  1  0  0  0
 24 30  2  0  0  0
 15 12  2  0  0  0
 13 12  1  0  0  0
 12 14  1  0  0  0
 12 11  1  0  0  0
 30 26  1  0  0  0
 26 31  2  0  0  0
 29 27  2  0  0  0
 27 31  1  0  0  0
 31 28  1  0  0  0
  3  5  1  0  0  0
 28 32  1  0  0  0
 28 33  1  0  0  0
  9 10  1  0  0  0
 13 16  1  0  0  0
 14 17  1  0  0  0
M  END
> <minimizedAffinity>
0.01607

$$$$
4CP5_EOI_A_1156


 33 34  0  0  0  0  0  0  0  0999 V2000
   33.1813   -7.7023   63.7927 C   0  0  0  0  0  0  0  0  0  0  0  0
   33.0107   -7.4912   61.9794 P   0  0  0  0  0  0  0  0  0  0  0  0
   33.9329   -5.6903   61.8075 S   0  0  0  0  0  0  0  0  0  0  0  0
   33.3746   -8.6368   61.1264 O   0  0  0  0  0  0  0  0  0  0  0  0
   33.4037   -4.8219   62.7105 H   0  0  0  0  0  0  0  0  0  0  0  0
   31.4856   -7.1360   61.7542 O   0  0  0  0  0  0  0  0  0  0  0  0
   30.0113   -6.9411   61.1672 P   0  0  0  0  0  0  0  0  0  0  0  0
   29.7423   -5.5731   60.6759 O   0  0  0  0  0  0  0  0  0  0  0  0
   29.0983   -7.4806   62.2708 O   0  0  0  0  0  0  0  0  0  0  0  0
   28.1725   -7.3991   61.9931 H   0  0  0  0  0  0  0  0  0  0  0  0
   29.9259   -7.9645   60.0167 O   0  0  0  0  0  0  0  0  0  0  0  0
   30.2493   -8.9843   58.8884 P   0  0  0  0  0  0  0  0  0  0  0  0
   31.6842   -9.3720   58.6226 O   0  0  0  0  0  0  0  0  0  0  0  0
   29.3346  -10.1727   59.2679 O   0  0  0  0  0  0  0  0  0  0  0  0
   29.6512   -8.1136   57.7699 O   0  0  0  0  0  0  0  0  0  0  0  0
   31.7166  -10.0115   57.8940 H   0  0  0  0  0  0  0  0  0  0  0  0
   29.4497  -10.8881   58.6230 H   0  0  0  0  0  0  0  0  0  0  0  0
   31.9356   -8.0912   64.3621 O   0  0  0  0  0  0  0  0  0  0  0  0
   33.4207   -8.9093   65.9879 C   0  0  0  0  0  0  0  0  0  0  0  0
   31.9895   -8.8787   65.5199 C   0  0  0  0  0  0  0  0  0  0  0  0
   31.2931  -10.2426   65.2511 C   0  0  0  0  0  0  0  0  0  0  0  0
   31.1058  -10.6669   63.8689 N   0  0  0  0  0  0  0  0  0  0  0  0
   30.0321  -11.2010   61.9694 N   0  0  0  0  0  0  0  0  0  0  0  0
   33.3453  -11.4251   63.2987 N   0  0  0  0  0  0  0  0  0  0  0  0
   29.9419  -10.6574   63.1591 C   0  0  0  0  0  0  0  0  0  0  0  0
   33.4633  -12.2864   61.0480 N   0  0  0  0  0  0  0  0  0  0  0  0
   31.3664  -11.5663   61.8801 C   0  0  0  0  0  0  0  0  0  0  0  0
   31.6574  -12.3504   59.6015 N   0  0  0  0  0  0  0  0  0  0  0  0
   32.0366  -11.2503   63.0490 C   0  0  0  0  0  0  0  0  0  0  0  0
   33.9718  -11.9488   62.2392 C   0  0  0  0  0  0  0  0  0  0  0  0
   32.1402  -12.0995   60.8247 C   0  0  0  0  0  0  0  0  0  0  0  0
   32.2469  -12.7228   58.9065 H   0  0  0  0  0  0  0  0  0  0  0  0
   30.7129  -12.1624   59.3970 H   0  0  0  0  0  0  0  0  0  0  0  0
 19 20  1  0  0  0
 21 22  1  0  0  0
 22 25  1  0  0  0
 22 29  1  0  0  0
  1 18  1  0  0  0
 18 20  1  0  0  0
  1  2  1  0  0  0
  3  2  1  0  0  0
  2  6  1  0  0  0
  2  4  2  0  0  0
 20 21  1  0  0  0
 25 23  2  0  0  0
 23 27  1  0  0  0
 11  7  1  0  0  0
  8  7  2  0  0  0
  6  7  1  0  0  0
  7  9  1  0  0  0
 24 29  1  0  0  0
 24 30  2  0  0  0
 15 12  2  0  0  0
 13 12  1  0  0  0
 12 14  1  0  0  0
 12 11  1  0  0  0
 30 26  1  0  0  0
 26 31  2  0  0  0
 29 27  2  0  0  0
 27 31  1  0  0  0
 31 28  1  0  0  0
  3  5  1  0  0  0
 28 32  1  0  0  0
 28 33  1  0  0  0
  9 10  1  0  0  0
 13 16  1  0  0  0
 14 17  1  0  0  0
M  END
> <minimizedAffinity>
0.02607

$$$$
4CP5_EOI_A_1156


 33 34  0  0  0  0  0  0  0  0999 V2000
   33.9338  -11.1383   61.3861 C   0  0  0  0  0  0  0  0  0  0  0  0
   33.1741  -10.0448   60.1256 P   0  0  0  0  0  0  0  0  0  0  0  0
   32.1626  -11.4624   59.0813 S   0  0  0  0  0  0  0  0  0  0  0  0
   32.5192   -8.8136   60.6026 O   0  0  0  0  0  0  0  0  0  0  0  0
   33.0051  -12.4835   58.7698 H   0  0  0  0  0  0  0  0  0  0  0  0
   34.3612   -9.6617   59.1527 O   0  0  0  0  0  0  0  0  0  0  0  0
   35.5311   -9.6596   58.0628 P   0  0  0  0  0  0  0  0  0  0  0  0
   35.7978   -8.3282   57.4785 O   0  0  0  0  0  0  0  0  0  0  0  0
   35.1414  -10.7820   57.0981 O   0  0  0  0  0  0  0  0  0  0  0  0
   35.8070  -10.8503   56.3958 H   0  0  0  0  0  0  0  0  0  0  0  0
   36.7629  -10.1784   58.8320 O   0  0  0  0  0  0  0  0  0  0  0  0
   38.0126  -10.9756   59.3015 P   0  0  0  0  0  0  0  0  0  0  0  0
   39.3890  -10.3856   59.1087 O   0  0  0  0  0  0  0  0  0  0  0  0
   37.6565  -11.2775   60.7763 O   0  0  0  0  0  0  0  0  0  0  0  0
   37.7427  -12.1722   58.3730 O   0  0  0  0  0  0  0  0  0  0  0  0
   40.0556  -11.0014   59.4513 H   0  0  0  0  0  0  0  0  0  0  0  0
   38.3764  -11.7824   61.1859 H   0  0  0  0  0  0  0  0  0  0  0  0
   35.1582  -10.5784   61.8496 O   0  0  0  0  0  0  0  0  0  0  0  0
   34.0365  -10.8320   63.8979 C   0  0  0  0  0  0  0  0  0  0  0  0
   35.2061  -10.1935   63.1961 C   0  0  0  0  0  0  0  0  0  0  0  0
   35.3410   -8.6473   63.2880 C   0  0  0  0  0  0  0  0  0  0  0  0
   36.0690   -7.9493   62.2351 N   0  0  0  0  0  0  0  0  0  0  0  0
   36.4107   -6.7124   60.3914 N   0  0  0  0  0  0  0  0  0  0  0  0
   38.3340   -8.7497   62.6149 N   0  0  0  0  0  0  0  0  0  0  0  0
   35.5462   -7.1172   61.2902 C   0  0  0  0  0  0  0  0  0  0  0  0
   39.8919   -7.8551   61.0044 N   0  0  0  0  0  0  0  0  0  0  0  0
   37.5993   -7.2992   60.7972 C   0  0  0  0  0  0  0  0  0  0  0  0
   39.2939   -6.3853   59.3192 N   0  0  0  0  0  0  0  0  0  0  0  0
   37.3993   -8.0717   61.9278 C   0  0  0  0  0  0  0  0  0  0  0  0
   39.5462   -8.5797   62.0754 C   0  0  0  0  0  0  0  0  0  0  0  0
   38.9280   -7.1824   60.3306 C   0  0  0  0  0  0  0  0  0  0  0  0
   40.2370   -6.3467   59.0392 H   0  0  0  0  0  0  0  0  0  0  0  0
   38.6199   -5.8378   58.8553 H   0  0  0  0  0  0  0  0  0  0  0  0
 19 20  1  0  0  0
 21 22  1  0  0  0
 22 25  1  0  0  0
 22 29  1  0  0  0
  1 18  1  0  0  0
 18 20  1  0  0  0
  1  2  1  0  0  0
  3  2  1  0  0  0
  2  6  1  0  0  0
  2  4  2  0  0  0
 20 21  1  0  0  0
 25 23  2  0  0  0
 23 27  1  0  0  0
 11  7  1  0  0  0
  8  7  2  0  0  0
  6  7  1  0  0  0
  7  9  1  0  0  0
 24 29  1  0  0  0
 24 30  2  0  0  0
 15 12  2  0  0  0
 13 12  1  0  0  0
 12 14  1  0  0  0
 12 11  1  0  0  0
 30 26  1  0  0  0
 26 31  2  0  0  0
 29 27  2  0  0  0
 27 31  1  0  0  0
 31 28  1  0  0  0
  3  5  1  0  0  0
 28 32  1  0  0  0
 28 33  1  0  0  0
  9 10  1  0  0  0
 13 16  1  0  0  0
 14 17  1  0  0  0
M  END
> <minimizedAffinity>
0.02616

$$$$
4CP5_EOI_A_1156


 33 34  0  0  0  0  0  0  0  0999 V2000
   35.9853  -13.2233   63.9111 C   0  0  0  0  0  0  0  0  0  0  0  0
   36.8237  -14.6601   64.6820 P   0  0  0  0  0  0  0  0  0  0  0  0
   35.2257  -15.9086   64.7865 S   0  0  0  0  0  0  0  0  0  0  0  0
   38.1087  -15.0873   64.1002 O   0  0  0  0  0  0  0  0  0  0  0  0
   34.1801  -15.2591   65.3649 H   0  0  0  0  0  0  0  0  0  0  0  0
   37.0479  -14.2377   66.1899 O   0  0  0  0  0  0  0  0  0  0  0  0
   36.8751  -13.8400   67.7289 P   0  0  0  0  0  0  0  0  0  0  0  0
   38.0871  -14.0709   68.5429 O   0  0  0  0  0  0  0  0  0  0  0  0
   35.5959  -14.5627   68.1574 O   0  0  0  0  0  0  0  0  0  0  0  0
   35.4148  -14.3730   69.0913 H   0  0  0  0  0  0  0  0  0  0  0  0
   36.5157  -12.3408   67.6920 O   0  0  0  0  0  0  0  0  0  0  0  0
   35.8457  -10.9527   67.8975 P   0  0  0  0  0  0  0  0  0  0  0  0
   36.4248   -9.9868   68.9032 O   0  0  0  0  0  0  0  0  0  0  0  0
   35.8036  -10.4072   66.4506 O   0  0  0  0  0  0  0  0  0  0  0  0
   34.4963  -11.5404   68.3456 O   0  0  0  0  0  0  0  0  0  0  0  0
   35.8964   -9.1734   68.9117 H   0  0  0  0  0  0  0  0  0  0  0  0
   35.3975   -9.5263   66.4489 H   0  0  0  0  0  0  0  0  0  0  0  0
   36.6356  -12.0139   64.2875 O   0  0  0  0  0  0  0  0  0  0  0  0
   36.7214  -11.8008   61.9497 C   0  0  0  0  0  0  0  0  0  0  0  0
   37.2467  -11.2804   63.2618 C   0  0  0  0  0  0  0  0  0  0  0  0
   38.7875  -11.2839   63.4700 C   0  0  0  0  0  0  0  0  0  0  0  0
   39.3047  -11.3291   64.8324 N   0  0  0  0  0  0  0  0  0  0  0  0
   40.2048  -12.1867   66.7033 N   0  0  0  0  0  0  0  0  0  0  0  0
   38.6323   -9.1458   65.6669 N   0  0  0  0  0  0  0  0  0  0  0  0
   39.9461  -12.3724   65.4314 C   0  0  0  0  0  0  0  0  0  0  0  0
   39.2627   -8.8253   67.9736 N   0  0  0  0  0  0  0  0  0  0  0  0
   39.7242  -10.9099   66.9491 C   0  0  0  0  0  0  0  0  0  0  0  0
   40.3998  -10.4059   69.2253 N   0  0  0  0  0  0  0  0  0  0  0  0
   39.1586  -10.3744   65.8051 C   0  0  0  0  0  0  0  0  0  0  0  0
   38.7307   -8.4490   66.8044 C   0  0  0  0  0  0  0  0  0  0  0  0
   39.7855  -10.0703   68.0841 C   0  0  0  0  0  0  0  0  0  0  0  0
   40.4087   -9.7772   69.9828 H   0  0  0  0  0  0  0  0  0  0  0  0
   40.8426  -11.2814   69.3069 H   0  0  0  0  0  0  0  0  0  0  0  0
 19 20  1  0  0  0
 21 22  1  0  0  0
 22 25  1  0  0  0
 22 29  1  0  0  0
  1 18  1  0  0  0
 18 20  1  0  0  0
  1  2  1  0  0  0
  3  2  1  0  0  0
  2  6  1  0  0  0
  2  4  2  0  0  0
 20 21  1  0  0  0
 25 23  2  0  0  0
 23 27  1  0  0  0
 11  7  1  0  0  0
  8  7  2  0  0  0
  6  7  1  0  0  0
  7  9  1  0  0  0
 24 29  1  0  0  0
 24 30  2  0  0  0
 15 12  2  0  0  0
 13 12  1  0  0  0
 12 14  1  0  0  0
 12 11  1  0  0  0
 30 26  1  0  0  0
 26 31  2  0  0  0
 29 27  2  0  0  0
 27 31  1  0  0  0
 31 28  1  0  0  0
  3  5  1  0  0  0
 28 32  1  0  0  0
 28 33  1  0  0  0
  9 10  1  0  0  0
 13 16  1  0  0  0
 14 17  1  0  0  0
M  END
> <minimizedAffinity>
0.02681

$$$$
4CP5_EOI_A_1156


 33 34  0  0  0  0  0  0  0  0999 V2000
   38.5540   -6.4800   68.3838 C   0  0  0  0  0  0  0  0  0  0  0  0
   36.8244   -6.9865   68.0467 P   0  0  0  0  0  0  0  0  0  0  0  0
   37.0675   -8.9942   68.2301 S   0  0  0  0  0  0  0  0  0  0  0  0
   35.7554   -6.2635   68.7586 O   0  0  0  0  0  0  0  0  0  0  0  0
   38.1216   -9.3945   67.4696 H   0  0  0  0  0  0  0  0  0  0  0  0
   36.6403   -6.7886   66.4880 O   0  0  0  0  0  0  0  0  0  0  0  0
   36.0716   -6.5309   65.0161 P   0  0  0  0  0  0  0  0  0  0  0  0
   35.8471   -7.7685   64.2397 O   0  0  0  0  0  0  0  0  0  0  0  0
   37.0318   -5.4971   64.4231 O   0  0  0  0  0  0  0  0  0  0  0  0
   36.7559   -5.2811   63.5186 H   0  0  0  0  0  0  0  0  0  0  0  0
   34.7443   -5.7818   65.2514 O   0  0  0  0  0  0  0  0  0  0  0  0
   33.4242   -5.2198   65.8508 P   0  0  0  0  0  0  0  0  0  0  0  0
   33.1062   -5.4574   67.3075 O   0  0  0  0  0  0  0  0  0  0  0  0
   33.5132   -3.7257   65.4599 O   0  0  0  0  0  0  0  0  0  0  0  0
   32.5156   -6.0236   64.9046 O   0  0  0  0  0  0  0  0  0  0  0  0
   32.2546   -5.0464   67.5238 H   0  0  0  0  0  0  0  0  0  0  0  0
   32.7280   -3.2588   65.7861 H   0  0  0  0  0  0  0  0  0  0  0  0
   38.9908   -5.5406   67.4071 O   0  0  0  0  0  0  0  0  0  0  0  0
   40.4431   -5.0223   69.1792 C   0  0  0  0  0  0  0  0  0  0  0  0
   39.9597   -4.6131   67.8127 C   0  0  0  0  0  0  0  0  0  0  0  0
   39.3967   -3.1727   67.6523 C   0  0  0  0  0  0  0  0  0  0  0  0
   37.9527   -2.9981   67.5514 N   0  0  0  0  0  0  0  0  0  0  0  0
   35.9628   -2.4952   66.6386 N   0  0  0  0  0  0  0  0  0  0  0  0
   37.2794   -3.2712   69.8725 N   0  0  0  0  0  0  0  0  0  0  0  0
   37.2383   -2.7120   66.4261 C   0  0  0  0  0  0  0  0  0  0  0  0
   34.9006   -2.9923   70.1635 N   0  0  0  0  0  0  0  0  0  0  0  0
   35.8246   -2.6854   68.0048 C   0  0  0  0  0  0  0  0  0  0  0  0
   33.4381   -2.5469   68.4255 N   0  0  0  0  0  0  0  0  0  0  0  0
   37.0466   -2.9870   68.5800 C   0  0  0  0  0  0  0  0  0  0  0  0
   36.1459   -3.2480   70.5823 C   0  0  0  0  0  0  0  0  0  0  0  0
   34.6959   -2.7081   68.8547 C   0  0  0  0  0  0  0  0  0  0  0  0
   32.6919   -2.5728   69.0671 H   0  0  0  0  0  0  0  0  0  0  0  0
   33.2594   -2.4026   67.4682 H   0  0  0  0  0  0  0  0  0  0  0  0
 19 20  1  0  0  0
 21 22  1  0  0  0
 22 25  1  0  0  0
 22 29  1  0  0  0
  1 18  1  0  0  0
 18 20  1  0  0  0
  1  2  1  0  0  0
  3  2  1  0  0  0
  2  6  1  0  0  0
  2  4  2  0  0  0
 20 21  1  0  0  0
 25 23  2  0  0  0
 23 27  1  0  0  0
 11  7  1  0  0  0
  8  7  2  0  0  0
  6  7  1  0  0  0
  7  9  1  0  0  0
 24 29  1  0  0  0
 24 30  2  0  0  0
 15 12  2  0  0  0
 13 12  1  0  0  0
 12 14  1  0  0  0
 12 11  1  0  0  0
 30 26  1  0  0  0
 26 31  2  0  0  0
 29 27  2  0  0  0
 27 31  1  0  0  0
 31 28  1  0  0  0
  3  5  1  0  0  0
 28 32  1  0  0  0
 28 33  1  0  0  0
  9 10  1  0  0  0
 13 16  1  0  0  0
 14 17  1  0  0  0
M  END
> <minimizedAffinity>
0.02862

$$$$
4CP5_EOI_A_1156


 33 34  0  0  0  0  0  0  0  0999 V2000
   32.2835   -6.7835   61.4676 C   0  0  0  0  0  0  0  0  0  0  0  0
   33.7719   -7.5994   62.1609 P   0  0  0  0  0  0  0  0  0  0  0  0
   35.1692   -6.3072   61.4531 S   0  0  0  0  0  0  0  0  0  0  0  0
   33.7277   -7.9982   63.5791 O   0  0  0  0  0  0  0  0  0  0  0  0
   34.9775   -6.1178   60.1200 H   0  0  0  0  0  0  0  0  0  0  0  0
   33.9849   -8.8847   61.2634 O   0  0  0  0  0  0  0  0  0  0  0  0
   34.2806  -10.3550   60.7095 P   0  0  0  0  0  0  0  0  0  0  0  0
   35.4885  -10.4398   59.8616 O   0  0  0  0  0  0  0  0  0  0  0  0
   32.9536  -10.7891   60.0827 O   0  0  0  0  0  0  0  0  0  0  0  0
   33.0457  -11.6829   59.7172 H   0  0  0  0  0  0  0  0  0  0  0  0
   34.4416  -11.2112   61.9819 O   0  0  0  0  0  0  0  0  0  0  0  0
   34.6810  -11.7087   63.4355 P   0  0  0  0  0  0  0  0  0  0  0  0
   34.8376  -10.7037   64.5513 O   0  0  0  0  0  0  0  0  0  0  0  0
   33.5001  -12.6888   63.6303 O   0  0  0  0  0  0  0  0  0  0  0  0
   35.9965  -12.4307   63.0960 O   0  0  0  0  0  0  0  0  0  0  0  0
   34.9792  -11.1707   65.3896 H   0  0  0  0  0  0  0  0  0  0  0  0
   33.5417  -13.0724   64.5203 H   0  0  0  0  0  0  0  0  0  0  0  0
   31.4340   -7.7480   60.8550 O   0  0  0  0  0  0  0  0  0  0  0  0
   29.8978   -6.0143   61.2455 C   0  0  0  0  0  0  0  0  0  0  0  0
   30.0664   -7.4461   60.8096 C   0  0  0  0  0  0  0  0  0  0  0  0
   29.2705   -8.5315   61.5878 C   0  0  0  0  0  0  0  0  0  0  0  0
   29.9964   -9.4016   62.5054 N   0  0  0  0  0  0  0  0  0  0  0  0
   30.8903  -11.2864   63.3387 N   0  0  0  0  0  0  0  0  0  0  0  0
   30.3036   -7.9258   64.4141 N   0  0  0  0  0  0  0  0  0  0  0  0
   30.3389  -10.7052   62.3008 C   0  0  0  0  0  0  0  0  0  0  0  0
   31.4458   -9.0249   66.2330 N   0  0  0  0  0  0  0  0  0  0  0  0
   30.9423  -10.2761   64.2865 C   0  0  0  0  0  0  0  0  0  0  0  0
   32.1839  -11.2171   66.1478 N   0  0  0  0  0  0  0  0  0  0  0  0
   30.3857   -9.1116   63.7873 C   0  0  0  0  0  0  0  0  0  0  0  0
   30.8596   -7.9840   65.6293 C   0  0  0  0  0  0  0  0  0  0  0  0
   31.5135  -10.2085   65.5772 C   0  0  0  0  0  0  0  0  0  0  0  0
   32.5595  -11.1096   67.0515 H   0  0  0  0  0  0  0  0  0  0  0  0
   32.3011  -12.0663   65.6638 H   0  0  0  0  0  0  0  0  0  0  0  0
 19 20  1  0  0  0
 21 22  1  0  0  0
 22 25  1  0  0  0
 22 29  1  0  0  0
  1 18  1  0  0  0
 18 20  1  0  0  0
  1  2  1  0  0  0
  3  2  1  0  0  0
  2  6  1  0  0  0
  2  4  2  0  0  0
 20 21  1  0  0  0
 25 23  2  0  0  0
 23 27  1  0  0  0
 11  7  1  0  0  0
  8  7  2  0  0  0
  6  7  1  0  0  0
  7  9  1  0  0  0
 24 29  1  0  0  0
 24 30  2  0  0  0
 15 12  2  0  0  0
 13 12  1  0  0  0
 12 14  1  0  0  0
 12 11  1  0  0  0
 30 26  1  0  0  0
 26 31  2  0  0  0
 29 27  2  0  0  0
 27 31  1  0  0  0
 31 28  1  0  0  0
  3  5  1  0  0  0
 28 32  1  0  0  0
 28 33  1  0  0  0
  9 10  1  0  0  0
 13 16  1  0  0  0
 14 17  1  0  0  0
M  END
> <minimizedAffinity>
0.03211

$$$$
