1DF8_BTN_A_201


 19 20  0  0  0  0  0  0  0  0999 V2000
   29.3205   14.4864   11.5891 C   0  0  0  0  0  0  0  0  0  0  0  0
   27.6467   15.1839   11.8628 S   0  0  0  0  0  0  0  0  0  0  0  0
   27.1869   14.6268   10.2035 C   0  0  0  0  0  0  0  0  0  0  0  0
   27.7324   13.2180   10.1053 C   0  0  0  0  0  0  0  0  0  0  0  0
   26.9025   12.1572   10.6729 N   0  0  0  0  0  0  0  0  0  0  0  0
   27.5323   11.5048   11.6599 C   0  0  0  0  0  0  0  0  0  0  0  0
   27.0833   10.5606   12.3573 O   0  0  0  0  0  0  0  0  0  0  0  0
   28.7465   12.0613   11.8793 N   0  0  0  0  0  0  0  0  0  0  0  0
   29.0201   13.1510   10.9502 C   0  0  0  0  0  0  0  0  0  0  0  0
   25.9906   11.9471   10.3671 H   0  0  0  0  0  0  0  0  0  0  0  0
   29.3698   11.7659   12.5817 H   0  0  0  0  0  0  0  0  0  0  0  0
   30.2104   14.5384   12.8117 C   0  0  0  0  0  0  0  0  0  0  0  0
   30.3682   15.9348   13.4491 C   0  0  0  0  0  0  0  0  0  0  0  0
   31.3604   15.9209   14.6192 C   0  0  0  0  0  0  0  0  0  0  0  0
   31.7673   17.3224   14.9964 C   0  0  0  0  0  0  0  0  0  0  0  0
   32.5494   18.0615   13.9757 C   0  0  0  0  0  0  0  0  0  0  0  0
   32.1876   19.2107   13.6500 O   0  0  0  0  0  0  0  0  0  0  0  0
   33.5329   17.5075   13.4210 O   0  0  0  0  0  0  0  0  0  0  0  0
   33.7908   16.6442   13.6781 H   0  0  0  0  0  0  0  0  0  0  0  0
 16 17  2  0  0  0
 16 18  1  0  0  0
 16 15  1  0  0  0
 15 14  1  0  0  0
 14 13  1  0  0  0
 13 12  1  0  0  0
 12  1  1  0  0  0
  1  2  1  0  0  0
  1  9  1  0  0  0
  2  3  1  0  0  0
  3  4  1  0  0  0
  4  5  1  0  0  0
  4  9  1  0  0  0
  5  6  1  0  0  0
  6  7  2  0  0  0
  6  8  1  0  0  0
  8  9  1  0  0  0
 18 19  1  0  0  0
  5 10  1  0  0  0
  8 11  1  0  0  0
M  END
> <minimizedAffinity>
-8.25800

$$$$
1DF8_BTN_A_201


 19 20  0  0  0  0  0  0  0  0999 V2000
   29.5503   13.6045   12.7175 C   0  0  0  0  0  0  0  0  0  0  0  0
   29.9060   12.1680   11.6343 S   0  0  0  0  0  0  0  0  0  0  0  0
   28.6336   11.2353   12.5209 C   0  0  0  0  0  0  0  0  0  0  0  0
   27.4679   12.1935   12.6422 C   0  0  0  0  0  0  0  0  0  0  0  0
   26.5749   12.2822   11.4886 N   0  0  0  0  0  0  0  0  0  0  0  0
   26.5402   13.5212   10.9782 C   0  0  0  0  0  0  0  0  0  0  0  0
   25.8883   13.9157    9.9788 O   0  0  0  0  0  0  0  0  0  0  0  0
   27.3933   14.3235   11.6568 N   0  0  0  0  0  0  0  0  0  0  0  0
   28.0403   13.6202   12.7578 C   0  0  0  0  0  0  0  0  0  0  0  0
   26.0607   11.5233   11.1295 H   0  0  0  0  0  0  0  0  0  0  0  0
   27.5572   15.2683   11.4337 H   0  0  0  0  0  0  0  0  0  0  0  0
   30.2934   14.8628   12.3255 C   0  0  0  0  0  0  0  0  0  0  0  0
   30.1565   16.0401   13.3135 C   0  0  0  0  0  0  0  0  0  0  0  0
   31.2459   16.0106   14.3934 C   0  0  0  0  0  0  0  0  0  0  0  0
   31.6522   17.4080   14.7862 C   0  0  0  0  0  0  0  0  0  0  0  0
   32.5946   18.0868   13.8638 C   0  0  0  0  0  0  0  0  0  0  0  0
   33.4830   17.4141   13.3019 O   0  0  0  0  0  0  0  0  0  0  0  0
   32.5170   19.3310   13.6963 O   0  0  0  0  0  0  0  0  0  0  0  0
   31.8434   19.8205   14.1260 H   0  0  0  0  0  0  0  0  0  0  0  0
 16 17  2  0  0  0
 16 18  1  0  0  0
 16 15  1  0  0  0
 15 14  1  0  0  0
 14 13  1  0  0  0
 13 12  1  0  0  0
 12  1  1  0  0  0
  1  2  1  0  0  0
  1  9  1  0  0  0
  2  3  1  0  0  0
  3  4  1  0  0  0
  4  5  1  0  0  0
  4  9  1  0  0  0
  5  6  1  0  0  0
  6  7  2  0  0  0
  6  8  1  0  0  0
  8  9  1  0  0  0
 18 19  1  0  0  0
  5 10  1  0  0  0
  8 11  1  0  0  0
M  END
> <minimizedAffinity>
-6.83186

$$$$
1DF8_BTN_A_201


 19 20  0  0  0  0  0  0  0  0999 V2000
   32.8123   18.5273   13.1247 C   0  0  0  0  0  0  0  0  0  0  0  0
   34.2901   17.7434   12.3732 S   0  0  0  0  0  0  0  0  0  0  0  0
   34.0205   18.7480   10.8923 C   0  0  0  0  0  0  0  0  0  0  0  0
   33.7232   20.1363   11.4177 C   0  0  0  0  0  0  0  0  0  0  0  0
   34.8781   20.9679   11.7508 N   0  0  0  0  0  0  0  0  0  0  0  0
   34.8838   21.3193   13.0442 C   0  0  0  0  0  0  0  0  0  0  0  0
   35.7466   22.0101   13.6425 O   0  0  0  0  0  0  0  0  0  0  0  0
   33.8339   20.7502   13.6814 N   0  0  0  0  0  0  0  0  0  0  0  0
   32.9952   19.9837   12.7679 C   0  0  0  0  0  0  0  0  0  0  0  0
   35.5688   21.2374   11.1031 H   0  0  0  0  0  0  0  0  0  0  0  0
   33.6579   20.8426   14.6456 H   0  0  0  0  0  0  0  0  0  0  0  0
   32.5863   18.1422   14.5703 C   0  0  0  0  0  0  0  0  0  0  0  0
   31.5765   16.9970   14.7939 C   0  0  0  0  0  0  0  0  0  0  0  0
   30.6720   16.7850   13.5730 C   0  0  0  0  0  0  0  0  0  0  0  0
   30.3663   15.3221   13.3773 C   0  0  0  0  0  0  0  0  0  0  0  0
   29.3612   15.0095   12.3324 C   0  0  0  0  0  0  0  0  0  0  0  0
   29.4729   13.9505   11.6814 O   0  0  0  0  0  0  0  0  0  0  0  0
   28.4418   15.8314   12.0846 O   0  0  0  0  0  0  0  0  0  0  0  0
   28.3729   16.6216   12.5833 H   0  0  0  0  0  0  0  0  0  0  0  0
 16 17  2  0  0  0
 16 18  1  0  0  0
 16 15  1  0  0  0
 15 14  1  0  0  0
 14 13  1  0  0  0
 13 12  1  0  0  0
 12  1  1  0  0  0
  1  2  1  0  0  0
  1  9  1  0  0  0
  2  3  1  0  0  0
  3  4  1  0  0  0
  4  5  1  0  0  0
  4  9  1  0  0  0
  5  6  1  0  0  0
  6  7  2  0  0  0
  6  8  1  0  0  0
  8  9  1  0  0  0
 18 19  1  0  0  0
  5 10  1  0  0  0
  8 11  1  0  0  0
M  END
> <minimizedAffinity>
-6.52224

$$$$
1DF8_BTN_A_201


 19 20  0  0  0  0  0  0  0  0999 V2000
   33.7544   18.4163   11.9147 C   0  0  0  0  0  0  0  0  0  0  0  0
   35.5324   18.2701   12.3398 S   0  0  0  0  0  0  0  0  0  0  0  0
   35.8573   17.7608   10.6340 C   0  0  0  0  0  0  0  0  0  0  0  0
   35.0583   18.7265    9.7849 C   0  0  0  0  0  0  0  0  0  0  0  0
   35.6847   20.0162    9.5010 N   0  0  0  0  0  0  0  0  0  0  0  0
   34.9586   21.0387    9.9742 C   0  0  0  0  0  0  0  0  0  0  0  0
   35.2343   22.2632    9.9100 O   0  0  0  0  0  0  0  0  0  0  0  0
   33.8722   20.5682   10.6301 N   0  0  0  0  0  0  0  0  0  0  0  0
   33.7926   19.1135   10.5752 C   0  0  0  0  0  0  0  0  0  0  0  0
   36.5373   20.1212    9.0201 H   0  0  0  0  0  0  0  0  0  0  0  0
   33.2148   21.1395   11.0891 H   0  0  0  0  0  0  0  0  0  0  0  0
   32.9070   18.9952   13.0265 C   0  0  0  0  0  0  0  0  0  0  0  0
   32.4923   17.9936   14.1246 C   0  0  0  0  0  0  0  0  0  0  0  0
   31.0533   17.4973   13.9327 C   0  0  0  0  0  0  0  0  0  0  0  0
   30.9652   16.0075   14.1438 C   0  0  0  0  0  0  0  0  0  0  0  0
   30.3911   15.2314   13.0178 C   0  0  0  0  0  0  0  0  0  0  0  0
   29.2836   15.5688   12.5516 O   0  0  0  0  0  0  0  0  0  0  0  0
   31.0006   14.2218   12.5805 O   0  0  0  0  0  0  0  0  0  0  0  0
   31.8313   13.9830   12.9422 H   0  0  0  0  0  0  0  0  0  0  0  0
 16 17  2  0  0  0
 16 18  1  0  0  0
 16 15  1  0  0  0
 15 14  1  0  0  0
 14 13  1  0  0  0
 13 12  1  0  0  0
 12  1  1  0  0  0
  1  2  1  0  0  0
  1  9  1  0  0  0
  2  3  1  0  0  0
  3  4  1  0  0  0
  4  5  1  0  0  0
  4  9  1  0  0  0
  5  6  1  0  0  0
  6  7  2  0  0  0
  6  8  1  0  0  0
  8  9  1  0  0  0
 18 19  1  0  0  0
  5 10  1  0  0  0
  8 11  1  0  0  0
M  END
> <minimizedAffinity>
-6.02340

$$$$
1DF8_BTN_A_201


 19 20  0  0  0  0  0  0  0  0999 V2000
   34.3301   18.4582   12.7254 C   0  0  0  0  0  0  0  0  0  0  0  0
   34.2315   19.9731   13.7542 S   0  0  0  0  0  0  0  0  0  0  0  0
   35.8449   20.4717   13.1039 C   0  0  0  0  0  0  0  0  0  0  0  0
   35.7587   20.2076   11.6157 C   0  0  0  0  0  0  0  0  0  0  0  0
   35.1294   21.2482   10.8049 N   0  0  0  0  0  0  0  0  0  0  0  0
   34.0427   20.7938   10.1652 C   0  0  0  0  0  0  0  0  0  0  0  0
   33.2750   21.4432    9.4113 O   0  0  0  0  0  0  0  0  0  0  0  0
   33.8142   19.5034   10.5037 N   0  0  0  0  0  0  0  0  0  0  0  0
   34.8378   18.9893   11.4056 C   0  0  0  0  0  0  0  0  0  0  0  0
   35.4635   22.1718   10.7368 H   0  0  0  0  0  0  0  0  0  0  0  0
   33.0488   18.9756   10.1800 H   0  0  0  0  0  0  0  0  0  0  0  0
   33.0705   17.6205   12.7509 C   0  0  0  0  0  0  0  0  0  0  0  0
   32.2723   17.6761   14.0703 C   0  0  0  0  0  0  0  0  0  0  0  0
   30.8620   17.0933   13.9110 C   0  0  0  0  0  0  0  0  0  0  0  0
   30.8894   15.5884   13.9916 C   0  0  0  0  0  0  0  0  0  0  0  0
   30.0390   14.8762   13.0070 C   0  0  0  0  0  0  0  0  0  0  0  0
   29.1387   15.5066   12.4157 O   0  0  0  0  0  0  0  0  0  0  0  0
   30.2036   13.6440   12.8157 O   0  0  0  0  0  0  0  0  0  0  0  0
   30.8847   13.1865   13.2682 H   0  0  0  0  0  0  0  0  0  0  0  0
 16 17  2  0  0  0
 16 18  1  0  0  0
 16 15  1  0  0  0
 15 14  1  0  0  0
 14 13  1  0  0  0
 13 12  1  0  0  0
 12  1  1  0  0  0
  1  2  1  0  0  0
  1  9  1  0  0  0
  2  3  1  0  0  0
  3  4  1  0  0  0
  4  5  1  0  0  0
  4  9  1  0  0  0
  5  6  1  0  0  0
  6  7  2  0  0  0
  6  8  1  0  0  0
  8  9  1  0  0  0
 18 19  1  0  0  0
  5 10  1  0  0  0
  8 11  1  0  0  0
M  END
> <minimizedAffinity>
-5.82963

$$$$
1DF8_BTN_A_201


 19 20  0  0  0  0  0  0  0  0999 V2000
   34.0397   19.3003   12.5516 C   0  0  0  0  0  0  0  0  0  0  0  0
   33.8620   19.8157   10.8007 S   0  0  0  0  0  0  0  0  0  0  0  0
   35.4367   20.6963   10.9418 C   0  0  0  0  0  0  0  0  0  0  0  0
   36.3541   19.7316   11.6626 C   0  0  0  0  0  0  0  0  0  0  0  0
   37.0130   18.7202   10.8386 N   0  0  0  0  0  0  0  0  0  0  0  0
   36.6815   17.4770   11.2140 C   0  0  0  0  0  0  0  0  0  0  0  0
   37.0620   16.3973   10.6953 O   0  0  0  0  0  0  0  0  0  0  0  0
   35.7817   17.5247   12.2240 N   0  0  0  0  0  0  0  0  0  0  0  0
   35.4928   18.8949   12.6294 C   0  0  0  0  0  0  0  0  0  0  0  0
   37.6266   18.9272   10.0970 H   0  0  0  0  0  0  0  0  0  0  0  0
   35.3717   16.7298   12.6354 H   0  0  0  0  0  0  0  0  0  0  0  0
   32.9748   18.3294   13.0128 C   0  0  0  0  0  0  0  0  0  0  0  0
   32.6174   18.4111   14.5116 C   0  0  0  0  0  0  0  0  0  0  0  0
   31.6770   17.2766   14.9384 C   0  0  0  0  0  0  0  0  0  0  0  0
   30.8103   16.8342   13.7873 C   0  0  0  0  0  0  0  0  0  0  0  0
   30.5562   15.3757   13.6972 C   0  0  0  0  0  0  0  0  0  0  0  0
   30.0333   14.9144   12.6621 O   0  0  0  0  0  0  0  0  0  0  0  0
   30.8256   14.6334   14.6762 O   0  0  0  0  0  0  0  0  0  0  0  0
   31.2182   14.9967   15.4455 H   0  0  0  0  0  0  0  0  0  0  0  0
 16 17  2  0  0  0
 16 18  1  0  0  0
 16 15  1  0  0  0
 15 14  1  0  0  0
 14 13  1  0  0  0
 13 12  1  0  0  0
 12  1  1  0  0  0
  1  2  1  0  0  0
  1  9  1  0  0  0
  2  3  1  0  0  0
  3  4  1  0  0  0
  4  5  1  0  0  0
  4  9  1  0  0  0
  5  6  1  0  0  0
  6  7  2  0  0  0
  6  8  1  0  0  0
  8  9  1  0  0  0
 18 19  1  0  0  0
  5 10  1  0  0  0
  8 11  1  0  0  0
M  END
> <minimizedAffinity>
-5.64766

$$$$
1DF8_BTN_A_201


 19 20  0  0  0  0  0  0  0  0999 V2000
   32.1839   16.7141   13.2087 C   0  0  0  0  0  0  0  0  0  0  0  0
   31.2420   17.9595   14.1703 S   0  0  0  0  0  0  0  0  0  0  0  0
   32.8082   18.5625   14.8474 C   0  0  0  0  0  0  0  0  0  0  0  0
   33.7378   18.6424   13.6553 C   0  0  0  0  0  0  0  0  0  0  0  0
   33.6459   19.8503   12.8375 N   0  0  0  0  0  0  0  0  0  0  0  0
   33.3016   19.5717   11.5724 C   0  0  0  0  0  0  0  0  0  0  0  0
   33.1217   20.3883   10.6341 O   0  0  0  0  0  0  0  0  0  0  0  0
   33.0858   18.2426   11.4353 N   0  0  0  0  0  0  0  0  0  0  0  0
   33.3447   17.5198   12.6746 C   0  0  0  0  0  0  0  0  0  0  0  0
   33.8165   20.7592   13.1752 H   0  0  0  0  0  0  0  0  0  0  0  0
   32.7896   17.8153   10.5992 H   0  0  0  0  0  0  0  0  0  0  0  0
   31.3325   15.9152   12.2463 C   0  0  0  0  0  0  0  0  0  0  0  0
   30.0190   15.3613   12.8368 C   0  0  0  0  0  0  0  0  0  0  0  0
   29.3796   14.3082   11.9225 C   0  0  0  0  0  0  0  0  0  0  0  0
   27.8756   14.3920   11.9747 C   0  0  0  0  0  0  0  0  0  0  0  0
   27.2102   14.7991   10.7132 C   0  0  0  0  0  0  0  0  0  0  0  0
   27.4182   15.9433   10.2602 O   0  0  0  0  0  0  0  0  0  0  0  0
   26.4136   14.0092   10.1444 O   0  0  0  0  0  0  0  0  0  0  0  0
   26.2694   13.1537   10.4984 H   0  0  0  0  0  0  0  0  0  0  0  0
 16 17  2  0  0  0
 16 18  1  0  0  0
 16 15  1  0  0  0
 15 14  1  0  0  0
 14 13  1  0  0  0
 13 12  1  0  0  0
 12  1  1  0  0  0
  1  2  1  0  0  0
  1  9  1  0  0  0
  2  3  1  0  0  0
  3  4  1  0  0  0
  4  5  1  0  0  0
  4  9  1  0  0  0
  5  6  1  0  0  0
  6  7  2  0  0  0
  6  8  1  0  0  0
  8  9  1  0  0  0
 18 19  1  0  0  0
  5 10  1  0  0  0
  8 11  1  0  0  0
M  END
> <minimizedAffinity>
-5.45372

$$$$
