1T5F_DHH_A_1000


 17 16  0  0  0  0  0  0  0  0999 V2000
   84.1791   44.2596   -9.3704 C   0  0  0  0  0  0  0  0  0  0  0  0
   81.9739   43.7028  -10.4841 N   0  0  0  0  0  0  0  0  0  0  0  0
   82.6597   43.8530   -9.1262 C   0  0  0  0  0  0  0  0  0  0  0  0
   80.9977   43.4419  -10.3449 H   0  0  0  0  0  0  0  0  0  0  0  0
   82.4457   42.9782  -11.0250 H   0  0  0  0  0  0  0  0  0  0  0  0
   81.9085   44.7433   -8.1856 C   0  0  0  0  0  0  0  0  0  0  0  0
   81.6148   44.4907   -7.0380 O   0  0  0  0  0  0  0  0  0  0  0  0
   81.6848   45.9217   -8.7600 O   0  0  0  0  0  0  0  0  0  0  0  0
   81.7958   43.6422   -6.6839 H   0  0  0  0  0  0  0  0  0  0  0  0
   84.9837   44.3919   -8.0310 C   0  0  0  0  0  0  0  0  0  0  0  0
   86.2039   43.4704   -8.1647 C   0  0  0  0  0  0  0  0  0  0  0  0
   87.1271   43.7930   -7.0270 C   0  0  0  0  0  0  0  0  0  0  0  0
   86.6988   45.0073   -6.2279 C   0  0  0  0  0  0  0  0  0  0  0  0
   86.5084   44.5607   -4.9334 O   0  0  0  0  0  0  0  0  0  0  0  0
   87.7275   45.9535   -6.0338 O   0  0  0  0  0  0  0  0  0  0  0  0
   85.8630   43.9055   -4.7541 H   0  0  0  0  0  0  0  0  0  0  0  0
   88.0694   46.4303   -6.7644 H   0  0  0  0  0  0  0  0  0  0  0  0
  2  3  1  0  0  0
  3  6  1  0  0  0
  3  1  1  0  0  0
  6  7  1  0  0  0
  6  8  2  0  0  0
  1 10  1  0  0  0
 10 11  1  0  0  0
 11 12  1  0  0  0
 12 13  1  0  0  0
 13 14  1  0  0  0
 13 15  1  0  0  0
  2  4  1  0  0  0
  2  5  1  0  0  0
  7  9  1  0  0  0
 14 16  1  0  0  0
 15 17  1  0  0  0
M  END
> <minimizedAffinity>
-6.75992

$$$$
1T5F_DHH_A_1000


 17 16  0  0  0  0  0  0  0  0999 V2000
   84.0659   44.9582   -8.5325 C   0  0  0  0  0  0  0  0  0  0  0  0
   81.8138   44.5723   -7.4405 N   0  0  0  0  0  0  0  0  0  0  0  0
   82.4901   44.9578   -8.7562 C   0  0  0  0  0  0  0  0  0  0  0  0
   80.8017   44.5673   -7.5672 H   0  0  0  0  0  0  0  0  0  0  0  0
   82.0629   45.2489   -6.7191 H   0  0  0  0  0  0  0  0  0  0  0  0
   82.0152   44.1438   -9.9196 C   0  0  0  0  0  0  0  0  0  0  0  0
   81.4899   43.0537   -9.8665 O   0  0  0  0  0  0  0  0  0  0  0  0
   82.1603   44.8365  -11.0455 O   0  0  0  0  0  0  0  0  0  0  0  0
   81.4141   42.6096   -9.0449 H   0  0  0  0  0  0  0  0  0  0  0  0
   84.6979   43.5379   -8.7381 C   0  0  0  0  0  0  0  0  0  0  0  0
   86.1827   43.6660   -8.3709 C   0  0  0  0  0  0  0  0  0  0  0  0
   86.2537   44.4267   -7.0798 C   0  0  0  0  0  0  0  0  0  0  0  0
   87.5781   45.1321   -6.8669 C   0  0  0  0  0  0  0  0  0  0  0  0
   87.3969   45.9544   -5.7705 O   0  0  0  0  0  0  0  0  0  0  0  0
   88.6053   44.2861   -6.3976 O   0  0  0  0  0  0  0  0  0  0  0  0
   86.7544   46.6360   -5.7971 H   0  0  0  0  0  0  0  0  0  0  0  0
   88.9414   43.6069   -6.9488 H   0  0  0  0  0  0  0  0  0  0  0  0
  2  3  1  0  0  0
  3  6  1  0  0  0
  3  1  1  0  0  0
  6  7  1  0  0  0
  6  8  2  0  0  0
  1 10  1  0  0  0
 10 11  1  0  0  0
 11 12  1  0  0  0
 12 13  1  0  0  0
 13 14  1  0  0  0
 13 15  1  0  0  0
  2  4  1  0  0  0
  2  5  1  0  0  0
  7  9  1  0  0  0
 14 16  1  0  0  0
 15 17  1  0  0  0
M  END
> <minimizedAffinity>
-6.68875

$$$$
1T5F_DHH_A_1000


 17 16  0  0  0  0  0  0  0  0999 V2000
   86.3363   43.3242   -8.3734 C   0  0  0  0  0  0  0  0  0  0  0  0
   87.6074   45.4598   -8.8601 N   0  0  0  0  0  0  0  0  0  0  0  0
   86.7979   44.7304   -7.7879 C   0  0  0  0  0  0  0  0  0  0  0  0
   87.9113   46.3645   -8.5001 H   0  0  0  0  0  0  0  0  0  0  0  0
   87.0273   45.6004   -9.6872 H   0  0  0  0  0  0  0  0  0  0  0  0
   87.4986   44.6676   -6.4663 C   0  0  0  0  0  0  0  0  0  0  0  0
   88.6565   44.3641   -6.2811 O   0  0  0  0  0  0  0  0  0  0  0  0
   86.6874   45.0960   -5.5035 O   0  0  0  0  0  0  0  0  0  0  0  0
   89.1835   44.0680   -6.9971 H   0  0  0  0  0  0  0  0  0  0  0  0
   84.8704   43.3616   -8.9289 C   0  0  0  0  0  0  0  0  0  0  0  0
   84.1312   44.4446   -8.1308 C   0  0  0  0  0  0  0  0  0  0  0  0
   83.0445   44.9801   -9.0156 C   0  0  0  0  0  0  0  0  0  0  0  0
   81.6719   44.9456   -8.3741 C   0  0  0  0  0  0  0  0  0  0  0  0
   80.9930   43.9098   -8.9883 O   0  0  0  0  0  0  0  0  0  0  0  0
   81.6799   44.5010   -7.0349 O   0  0  0  0  0  0  0  0  0  0  0  0
   80.8347   43.9356   -9.9114 H   0  0  0  0  0  0  0  0  0  0  0  0
   82.0874   45.0215   -6.3709 H   0  0  0  0  0  0  0  0  0  0  0  0
  2  3  1  0  0  0
  3  6  1  0  0  0
  3  1  1  0  0  0
  6  7  1  0  0  0
  6  8  2  0  0  0
  1 10  1  0  0  0
 10 11  1  0  0  0
 11 12  1  0  0  0
 12 13  1  0  0  0
 13 14  1  0  0  0
 13 15  1  0  0  0
  2  4  1  0  0  0
  2  5  1  0  0  0
  7  9  1  0  0  0
 14 16  1  0  0  0
 15 17  1  0  0  0
M  END
> <minimizedAffinity>
-6.68774

$$$$
1T5F_DHH_A_1000


 17 16  0  0  0  0  0  0  0  0999 V2000
   84.4777   44.3882   -8.5811 C   0  0  0  0  0  0  0  0  0  0  0  0
   82.7978   44.2575  -10.4716 N   0  0  0  0  0  0  0  0  0  0  0  0
   82.9682   44.0605   -8.9653 C   0  0  0  0  0  0  0  0  0  0  0  0
   81.8341   44.0512  -10.7346 H   0  0  0  0  0  0  0  0  0  0  0  0
   83.4282   43.6294  -10.9702 H   0  0  0  0  0  0  0  0  0  0  0  0
   81.9369   44.7871   -8.1590 C   0  0  0  0  0  0  0  0  0  0  0  0
   81.5594   44.4955   -7.0456 O   0  0  0  0  0  0  0  0  0  0  0  0
   81.5488   45.8835   -8.8038 O   0  0  0  0  0  0  0  0  0  0  0  0
   81.8657   43.7093   -6.6380 H   0  0  0  0  0  0  0  0  0  0  0  0
   85.4407   43.1840   -8.8669 C   0  0  0  0  0  0  0  0  0  0  0  0
   86.8609   43.6833   -8.5676 C   0  0  0  0  0  0  0  0  0  0  0  0
   87.0111   43.7177   -7.0754 C   0  0  0  0  0  0  0  0  0  0  0  0
   88.0285   44.7327   -6.5943 C   0  0  0  0  0  0  0  0  0  0  0  0
   88.4994   45.3642   -7.7304 O   0  0  0  0  0  0  0  0  0  0  0  0
   87.4616   45.8227   -5.9002 O   0  0  0  0  0  0  0  0  0  0  0  0
   88.9380   44.8690   -8.3940 H   0  0  0  0  0  0  0  0  0  0  0  0
   87.0544   45.6870   -5.0673 H   0  0  0  0  0  0  0  0  0  0  0  0
  2  3  1  0  0  0
  3  6  1  0  0  0
  3  1  1  0  0  0
  6  7  1  0  0  0
  6  8  2  0  0  0
  1 10  1  0  0  0
 10 11  1  0  0  0
 11 12  1  0  0  0
 12 13  1  0  0  0
 13 14  1  0  0  0
 13 15  1  0  0  0
  2  4  1  0  0  0
  2  5  1  0  0  0
  7  9  1  0  0  0
 14 16  1  0  0  0
 15 17  1  0  0  0
M  END
> <minimizedAffinity>
-6.21943

$$$$
1T5F_DHH_A_1000


 17 16  0  0  0  0  0  0  0  0999 V2000
   86.8632   45.0421   -9.1290 C   0  0  0  0  0  0  0  0  0  0  0  0
   87.8074   45.8302   -6.9153 N   0  0  0  0  0  0  0  0  0  0  0  0
   88.1951   45.3173   -8.3022 C   0  0  0  0  0  0  0  0  0  0  0  0
   88.6513   46.0117   -6.3718 H   0  0  0  0  0  0  0  0  0  0  0  0
   87.2409   45.1282   -6.4393 H   0  0  0  0  0  0  0  0  0  0  0  0
   89.1993   46.1894   -8.9898 C   0  0  0  0  0  0  0  0  0  0  0  0
   90.3924   46.2120   -8.7823 O   0  0  0  0  0  0  0  0  0  0  0  0
   88.6071   46.8863   -9.9553 O   0  0  0  0  0  0  0  0  0  0  0  0
   90.7568   45.7002   -8.0871 H   0  0  0  0  0  0  0  0  0  0  0  0
   85.6465   44.6966   -8.2021 C   0  0  0  0  0  0  0  0  0  0  0  0
   84.3834   45.1015   -8.9746 C   0  0  0  0  0  0  0  0  0  0  0  0
   83.3251   44.0885   -8.6515 C   0  0  0  0  0  0  0  0  0  0  0  0
   81.9808   44.7048   -8.3201 C   0  0  0  0  0  0  0  0  0  0  0  0
   81.0404   43.9449   -8.9904 O   0  0  0  0  0  0  0  0  0  0  0  0
   81.5776   44.5070   -6.9824 O   0  0  0  0  0  0  0  0  0  0  0  0
   81.0637   43.8887   -9.9255 H   0  0  0  0  0  0  0  0  0  0  0  0
   82.0502   44.9173   -6.2850 H   0  0  0  0  0  0  0  0  0  0  0  0
  2  3  1  0  0  0
  3  6  1  0  0  0
  3  1  1  0  0  0
  6  7  1  0  0  0
  6  8  2  0  0  0
  1 10  1  0  0  0
 10 11  1  0  0  0
 11 12  1  0  0  0
 12 13  1  0  0  0
 13 14  1  0  0  0
 13 15  1  0  0  0
  2  4  1  0  0  0
  2  5  1  0  0  0
  7  9  1  0  0  0
 14 16  1  0  0  0
 15 17  1  0  0  0
M  END
> <minimizedAffinity>
-6.12412

$$$$
1T5F_DHH_A_1000


 17 16  0  0  0  0  0  0  0  0999 V2000
   84.6083   43.9275   -8.4270 C   0  0  0  0  0  0  0  0  0  0  0  0
   83.3111   44.2967  -10.5704 N   0  0  0  0  0  0  0  0  0  0  0  0
   83.1640   43.9214   -9.0958 C   0  0  0  0  0  0  0  0  0  0  0  0
   82.3927   44.2973  -11.0143 H   0  0  0  0  0  0  0  0  0  0  0  0
   83.9131   43.6173  -11.0357 H   0  0  0  0  0  0  0  0  0  0  0  0
   82.1320   44.7393   -8.3832 C   0  0  0  0  0  0  0  0  0  0  0  0
   81.6732   44.5176   -7.2843 O   0  0  0  0  0  0  0  0  0  0  0  0
   81.8481   45.8275   -9.0931 O   0  0  0  0  0  0  0  0  0  0  0  0
   81.9078   43.7335   -6.8282 H   0  0  0  0  0  0  0  0  0  0  0  0
   85.6354   44.7955   -9.2336 C   0  0  0  0  0  0  0  0  0  0  0  0
   86.9126   44.8575   -8.3846 C   0  0  0  0  0  0  0  0  0  0  0  0
   88.0304   45.2646   -9.2986 C   0  0  0  0  0  0  0  0  0  0  0  0
   87.5980   46.2196  -10.3929 C   0  0  0  0  0  0  0  0  0  0  0  0
   88.3531   47.3641  -10.2168 O   0  0  0  0  0  0  0  0  0  0  0  0
   88.0069   45.8279  -11.6854 O   0  0  0  0  0  0  0  0  0  0  0  0
   88.2846   47.8525   -9.4201 H   0  0  0  0  0  0  0  0  0  0  0  0
   87.6462   45.0570  -12.0774 H   0  0  0  0  0  0  0  0  0  0  0  0
  2  3  1  0  0  0
  3  6  1  0  0  0
  3  1  1  0  0  0
  6  7  1  0  0  0
  6  8  2  0  0  0
  1 10  1  0  0  0
 10 11  1  0  0  0
 11 12  1  0  0  0
 12 13  1  0  0  0
 13 14  1  0  0  0
 13 15  1  0  0  0
  2  4  1  0  0  0
  2  5  1  0  0  0
  7  9  1  0  0  0
 14 16  1  0  0  0
 15 17  1  0  0  0
M  END
> <minimizedAffinity>
-5.91951

$$$$
1T5F_DHH_A_1000


 17 16  0  0  0  0  0  0  0  0999 V2000
   88.0236   45.3032  -10.4287 C   0  0  0  0  0  0  0  0  0  0  0  0
   88.8462   47.6728  -10.0797 N   0  0  0  0  0  0  0  0  0  0  0  0
   88.8510   46.2699   -9.4725 C   0  0  0  0  0  0  0  0  0  0  0  0
   89.3732   48.3056   -9.4779 H   0  0  0  0  0  0  0  0  0  0  0  0
   87.8850   48.0041  -10.1627 H   0  0  0  0  0  0  0  0  0  0  0  0
   90.2242   45.7890   -9.1194 C   0  0  0  0  0  0  0  0  0  0  0  0
   90.4942   44.8217   -8.4422 O   0  0  0  0  0  0  0  0  0  0  0  0
   91.1366   46.5267   -9.7455 O   0  0  0  0  0  0  0  0  0  0  0  0
   89.8103   44.3376   -8.0230 H   0  0  0  0  0  0  0  0  0  0  0  0
   86.6567   44.8661   -9.7968 C   0  0  0  0  0  0  0  0  0  0  0  0
   86.9996   44.0145   -8.5666 C   0  0  0  0  0  0  0  0  0  0  0  0
   86.2559   44.6008   -7.4031 C   0  0  0  0  0  0  0  0  0  0  0  0
   87.1639   45.1631   -6.3278 C   0  0  0  0  0  0  0  0  0  0  0  0
   86.6359   44.7344   -5.1243 O   0  0  0  0  0  0  0  0  0  0  0  0
   88.4397   44.5618   -6.2875 O   0  0  0  0  0  0  0  0  0  0  0  0
   85.7693   44.9894   -4.8754 H   0  0  0  0  0  0  0  0  0  0  0  0
   89.0383   44.6846   -6.9979 H   0  0  0  0  0  0  0  0  0  0  0  0
  2  3  1  0  0  0
  3  6  1  0  0  0
  3  1  1  0  0  0
  6  7  1  0  0  0
  6  8  2  0  0  0
  1 10  1  0  0  0
 10 11  1  0  0  0
 11 12  1  0  0  0
 12 13  1  0  0  0
 13 14  1  0  0  0
 13 15  1  0  0  0
  2  4  1  0  0  0
  2  5  1  0  0  0
  7  9  1  0  0  0
 14 16  1  0  0  0
 15 17  1  0  0  0
M  END
> <minimizedAffinity>
-5.86643

$$$$
1T5F_DHH_A_1000


 17 16  0  0  0  0  0  0  0  0999 V2000
   84.2964   43.6940   -8.8509 C   0  0  0  0  0  0  0  0  0  0  0  0
   82.9100   45.6958   -8.1549 N   0  0  0  0  0  0  0  0  0  0  0  0
   83.1183   44.6767   -9.2752 C   0  0  0  0  0  0  0  0  0  0  0  0
   82.1570   46.3341   -8.4117 H   0  0  0  0  0  0  0  0  0  0  0  0
   83.7703   46.2248   -8.0122 H   0  0  0  0  0  0  0  0  0  0  0  0
   81.8501   44.0013   -9.6961 C   0  0  0  0  0  0  0  0  0  0  0  0
   80.9729   43.6000   -8.9635 O   0  0  0  0  0  0  0  0  0  0  0  0
   81.7643   43.9869  -11.0231 O   0  0  0  0  0  0  0  0  0  0  0  0
   81.0867   43.6338   -8.0341 H   0  0  0  0  0  0  0  0  0  0  0  0
   85.6827   44.4229   -8.7747 C   0  0  0  0  0  0  0  0  0  0  0  0
   86.3283   43.9908   -7.4509 C   0  0  0  0  0  0  0  0  0  0  0  0
   87.3257   45.0485   -7.0806 C   0  0  0  0  0  0  0  0  0  0  0  0
   88.3210   45.3518   -8.1825 C   0  0  0  0  0  0  0  0  0  0  0  0
   88.6803   46.6761   -8.0141 O   0  0  0  0  0  0  0  0  0  0  0  0
   89.5688   44.7145   -8.0144 O   0  0  0  0  0  0  0  0  0  0  0  0
   88.0310   47.3489   -8.0743 H   0  0  0  0  0  0  0  0  0  0  0  0
   89.6307   43.7817   -8.0778 H   0  0  0  0  0  0  0  0  0  0  0  0
  2  3  1  0  0  0
  3  6  1  0  0  0
  3  1  1  0  0  0
  6  7  1  0  0  0
  6  8  2  0  0  0
  1 10  1  0  0  0
 10 11  1  0  0  0
 11 12  1  0  0  0
 12 13  1  0  0  0
 13 14  1  0  0  0
 13 15  1  0  0  0
  2  4  1  0  0  0
  2  5  1  0  0  0
  7  9  1  0  0  0
 14 16  1  0  0  0
 15 17  1  0  0  0
M  END
> <minimizedAffinity>
-5.80227

$$$$
1T5F_DHH_A_1000


 17 16  0  0  0  0  0  0  0  0999 V2000
   86.7911   44.5684   -8.0754 C   0  0  0  0  0  0  0  0  0  0  0  0
   87.6118   45.6842   -5.9553 N   0  0  0  0  0  0  0  0  0  0  0  0
   87.0141   44.3909   -6.5095 C   0  0  0  0  0  0  0  0  0  0  0  0
   87.7611   45.5868   -4.9510 H   0  0  0  0  0  0  0  0  0  0  0  0
   86.9701   46.4576   -6.1303 H   0  0  0  0  0  0  0  0  0  0  0  0
   87.7872   43.1714   -6.1135 C   0  0  0  0  0  0  0  0  0  0  0  0
   87.7250   42.5959   -5.0495 O   0  0  0  0  0  0  0  0  0  0  0  0
   88.4990   42.7319   -7.1472 O   0  0  0  0  0  0  0  0  0  0  0  0
   87.2072   42.9513   -4.3542 H   0  0  0  0  0  0  0  0  0  0  0  0
   85.5132   43.8159   -8.5849 C   0  0  0  0  0  0  0  0  0  0  0  0
   84.4492   44.8919   -8.8420 C   0  0  0  0  0  0  0  0  0  0  0  0
   83.2283   44.5000   -8.0632 C   0  0  0  0  0  0  0  0  0  0  0  0
   81.9360   44.6866   -8.8325 C   0  0  0  0  0  0  0  0  0  0  0  0
   81.1370   45.4904   -8.0409 O   0  0  0  0  0  0  0  0  0  0  0  0
   82.0688   45.4939   -9.9822 O   0  0  0  0  0  0  0  0  0  0  0  0
   80.8784   45.1996   -7.1885 H   0  0  0  0  0  0  0  0  0  0  0  0
   82.5758   45.1926  -10.7103 H   0  0  0  0  0  0  0  0  0  0  0  0
  2  3  1  0  0  0
  3  6  1  0  0  0
  3  1  1  0  0  0
  6  7  1  0  0  0
  6  8  2  0  0  0
  1 10  1  0  0  0
 10 11  1  0  0  0
 11 12  1  0  0  0
 12 13  1  0  0  0
 13 14  1  0  0  0
 13 15  1  0  0  0
  2  4  1  0  0  0
  2  5  1  0  0  0
  7  9  1  0  0  0
 14 16  1  0  0  0
 15 17  1  0  0  0
M  END
> <minimizedAffinity>
-5.77053

$$$$
1T5F_DHH_A_1000


 17 16  0  0  0  0  0  0  0  0999 V2000
   84.2495   44.3098   -8.3736 C   0  0  0  0  0  0  0  0  0  0  0  0
   81.8714   44.5978   -7.5521 N   0  0  0  0  0  0  0  0  0  0  0  0
   82.8243   44.9402   -8.6973 C   0  0  0  0  0  0  0  0  0  0  0  0
   80.9519   44.9952   -7.7445 H   0  0  0  0  0  0  0  0  0  0  0  0
   82.2337   44.9852   -6.6809 H   0  0  0  0  0  0  0  0  0  0  0  0
   82.2695   44.5946  -10.0444 C   0  0  0  0  0  0  0  0  0  0  0  0
   82.2982   45.2932  -11.0335 O   0  0  0  0  0  0  0  0  0  0  0  0
   81.8151   43.3448  -10.0392 O   0  0  0  0  0  0  0  0  0  0  0  0
   82.6294   46.1680  -10.9798 H   0  0  0  0  0  0  0  0  0  0  0  0
   85.3951   44.9552   -9.2280 C   0  0  0  0  0  0  0  0  0  0  0  0
   86.6865   44.7958   -8.4138 C   0  0  0  0  0  0  0  0  0  0  0  0
   87.8272   45.1468   -9.3227 C   0  0  0  0  0  0  0  0  0  0  0  0
   87.4542   46.1424  -10.4027 C   0  0  0  0  0  0  0  0  0  0  0  0
   88.2235   47.2659  -10.1638 O   0  0  0  0  0  0  0  0  0  0  0  0
   87.9039   45.7813  -11.6905 O   0  0  0  0  0  0  0  0  0  0  0  0
   88.1343   47.7316   -9.3557 H   0  0  0  0  0  0  0  0  0  0  0  0
   87.5439   45.0298  -12.1189 H   0  0  0  0  0  0  0  0  0  0  0  0
  2  3  1  0  0  0
  3  6  1  0  0  0
  3  1  1  0  0  0
  6  7  1  0  0  0
  6  8  2  0  0  0
  1 10  1  0  0  0
 10 11  1  0  0  0
 11 12  1  0  0  0
 12 13  1  0  0  0
 13 14  1  0  0  0
 13 15  1  0  0  0
  2  4  1  0  0  0
  2  5  1  0  0  0
  7  9  1  0  0  0
 14 16  1  0  0  0
 15 17  1  0  0  0
M  END
> <minimizedAffinity>
-5.61934

$$$$
