4M8E_29V_A_500


 24 25  0  0  0  0  0  0  0  0999 V2000
   68.0306   45.4978   33.1889 C   0  0  0  0  0  0  0  0  0  0  0  0
   66.7721   45.9113   31.0664 C   0  0  0  0  0  0  0  0  0  0  0  0
   66.0780   46.9502   30.1744 C   0  0  0  0  0  0  0  0  0  0  0  0
   64.2367   48.7039   30.3775 C   0  0  0  0  0  0  0  0  0  0  0  0
   66.3597   47.3752   33.0757 C   0  0  0  0  0  0  0  0  0  0  0  0
   65.3426   48.0590   32.4430 C   0  0  0  0  0  0  0  0  0  0  0  0
   66.4247   47.4181   34.4771 C   0  0  0  0  0  0  0  0  0  0  0  0
   64.4533   48.7988   34.5518 C   0  0  0  0  0  0  0  0  0  0  0  0
   67.4059   46.5678   32.2923 C   0  0  0  0  0  0  0  0  0  0  0  0
   65.4770   48.1242   35.1999 C   0  0  0  0  0  0  0  0  0  0  0  0
   64.3874   48.7774   33.1563 C   0  0  0  0  0  0  0  0  0  0  0  0
   65.2121   47.9076   30.9897 C   0  0  0  0  0  0  0  0  0  0  0  0
   63.9289   48.6977   28.9439 C   0  0  0  0  0  0  0  0  0  0  0  0
   64.9551   49.3716   28.0142 C   0  0  0  0  0  0  0  0  0  0  0  0
   62.8144   48.1473   28.3523 C   0  0  0  0  0  0  0  0  0  0  0  0
   61.6838   47.4413   28.9861 C   0  0  0  0  0  0  0  0  0  0  0  0
   60.4528   47.5832   28.3277 C   0  0  0  0  0  0  0  0  0  0  0  0
   59.1684   47.2356   28.8779 C   0  0  0  0  0  0  0  0  0  0  0  0
   59.0471   46.4238   30.1688 C   0  0  0  0  0  0  0  0  0  0  0  0
   58.0132   47.6363   28.1692 C   0  0  0  0  0  0  0  0  0  0  0  0
   56.8912   48.2893   28.8213 C   0  0  0  0  0  0  0  0  0  0  0  0
   56.0814   47.5577   29.4549 O   0  0  0  0  0  0  0  0  0  0  0  0
   56.7876   49.5271   28.7649 O   0  0  0  0  0  0  0  0  0  0  0  0
   57.4145   50.0281   28.2812 H   0  0  0  0  0  0  0  0  0  0  0  0
 14 13  1  0  0  0
 15 13  2  0  0  0
 15 16  1  0  0  0
 13  4  1  0  0  0
 17 16  1  0  0  0
 17 18  2  0  0  0
 20 18  1  0  0  0
 20 21  1  0  0  0
 18 19  1  0  0  0
  4 12  2  0  0  0
 22 21  2  0  0  0
 21 23  1  0  0  0
 12  3  1  0  0  0
 12  6  1  0  0  0
 11  6  2  0  0  0
 11  8  1  0  0  0
  3  2  1  0  0  0
  6  5  1  0  0  0
  8 10  2  0  0  0
  2  9  1  0  0  0
  5  9  1  0  0  0
  5  7  2  0  0  0
 10  7  1  0  0  0
  9  1  1  0  0  0
 23 24  1  0  0  0
M  END
> <minimizedAffinity>
-11.63664

$$$$
4M8E_29V_A_500


 24 25  0  0  0  0  0  0  0  0999 V2000
   65.4885   48.3392   34.9994 C   0  0  0  0  0  0  0  0  0  0  0  0
   64.6106   49.2924   32.8592 C   0  0  0  0  0  0  0  0  0  0  0  0
   64.1267   48.9970   31.4326 C   0  0  0  0  0  0  0  0  0  0  0  0
   64.9884   47.8251   29.3371 C   0  0  0  0  0  0  0  0  0  0  0  0
   65.9791   47.1767   32.8230 C   0  0  0  0  0  0  0  0  0  0  0  0
   65.9786   47.1295   31.4445 C   0  0  0  0  0  0  0  0  0  0  0  0
   66.9595   46.4510   33.5173 C   0  0  0  0  0  0  0  0  0  0  0  0
   67.9026   45.6861   31.4380 C   0  0  0  0  0  0  0  0  0  0  0  0
   64.9498   48.0040   33.6079 C   0  0  0  0  0  0  0  0  0  0  0  0
   67.9080   45.7166   32.8243 C   0  0  0  0  0  0  0  0  0  0  0  0
   66.9217   46.3910   30.7357 C   0  0  0  0  0  0  0  0  0  0  0  0
   65.0285   47.9867   30.7273 C   0  0  0  0  0  0  0  0  0  0  0  0
   64.1275   48.5895   28.4292 C   0  0  0  0  0  0  0  0  0  0  0  0
   64.8202   49.6397   27.5411 C   0  0  0  0  0  0  0  0  0  0  0  0
   62.7639   48.4567   28.2947 C   0  0  0  0  0  0  0  0  0  0  0  0
   61.8495   47.5388   29.0016 C   0  0  0  0  0  0  0  0  0  0  0  0
   60.5809   47.4006   28.4180 C   0  0  0  0  0  0  0  0  0  0  0  0
   59.3880   46.9806   29.1065 C   0  0  0  0  0  0  0  0  0  0  0  0
   59.4472   46.3889   30.5160 C   0  0  0  0  0  0  0  0  0  0  0  0
   58.1545   47.0969   28.4267 C   0  0  0  0  0  0  0  0  0  0  0  0
   57.0815   47.9498   28.9079 C   0  0  0  0  0  0  0  0  0  0  0  0
   56.2250   47.4292   29.6747 O   0  0  0  0  0  0  0  0  0  0  0  0
   57.0626   49.1500   28.5835 O   0  0  0  0  0  0  0  0  0  0  0  0
   57.7211   49.4908   28.0107 H   0  0  0  0  0  0  0  0  0  0  0  0
 14 13  1  0  0  0
 15 13  2  0  0  0
 15 16  1  0  0  0
 13  4  1  0  0  0
 17 16  1  0  0  0
 17 18  2  0  0  0
 20 18  1  0  0  0
 20 21  1  0  0  0
 18 19  1  0  0  0
  4 12  2  0  0  0
 22 21  2  0  0  0
 21 23  1  0  0  0
 12  3  1  0  0  0
 12  6  1  0  0  0
 11  6  2  0  0  0
 11  8  1  0  0  0
  3  2  1  0  0  0
  6  5  1  0  0  0
  8 10  2  0  0  0
  2  9  1  0  0  0
  5  9  1  0  0  0
  5  7  2  0  0  0
 10  7  1  0  0  0
  9  1  1  0  0  0
 23 24  1  0  0  0
M  END
> <minimizedAffinity>
-11.42344

$$$$
4M8E_29V_A_500


 24 25  0  0  0  0  0  0  0  0999 V2000
   63.1248   48.5458   27.9421 C   0  0  0  0  0  0  0  0  0  0  0  0
   64.0073   49.2722   30.1677 C   0  0  0  0  0  0  0  0  0  0  0  0
   64.3555   48.8527   31.6028 C   0  0  0  0  0  0  0  0  0  0  0  0
   63.2041   47.7482   33.5931 C   0  0  0  0  0  0  0  0  0  0  0  0
   62.3362   47.3907   30.0333 C   0  0  0  0  0  0  0  0  0  0  0  0
   62.2477   47.2921   31.4062 C   0  0  0  0  0  0  0  0  0  0  0  0
   61.3008   46.8502   29.2551 C   0  0  0  0  0  0  0  0  0  0  0  0
   60.1313   46.1606   31.2438 C   0  0  0  0  0  0  0  0  0  0  0  0
   63.5232   48.0799   29.3432 C   0  0  0  0  0  0  0  0  0  0  0  0
   60.2130   46.2439   29.8621 C   0  0  0  0  0  0  0  0  0  0  0  0
   61.1636   46.6803   32.0290 C   0  0  0  0  0  0  0  0  0  0  0  0
   63.2715   47.9663   32.2117 C   0  0  0  0  0  0  0  0  0  0  0  0
   64.1148   48.3372   34.5798 C   0  0  0  0  0  0  0  0  0  0  0  0
   63.6609   49.6524   35.2400 C   0  0  0  0  0  0  0  0  0  0  0  0
   65.3318   47.8270   34.9718 C   0  0  0  0  0  0  0  0  0  0  0  0
   66.0079   46.5956   34.5191 C   0  0  0  0  0  0  0  0  0  0  0  0
   66.4824   46.6313   33.1990 C   0  0  0  0  0  0  0  0  0  0  0  0
   66.9333   45.4910   32.4443 C   0  0  0  0  0  0  0  0  0  0  0  0
   67.1799   44.1380   33.1144 C   0  0  0  0  0  0  0  0  0  0  0  0
   67.1787   45.6649   31.0634 C   0  0  0  0  0  0  0  0  0  0  0  0
   67.6391   46.9270   30.5108 C   0  0  0  0  0  0  0  0  0  0  0  0
   66.9692   47.4259   29.5647 O   0  0  0  0  0  0  0  0  0  0  0  0
   68.6378   47.4812   31.0021 O   0  0  0  0  0  0  0  0  0  0  0  0
   69.1031   47.0711   31.7044 H   0  0  0  0  0  0  0  0  0  0  0  0
 14 13  1  0  0  0
 15 13  2  0  0  0
 15 16  1  0  0  0
 13  4  1  0  0  0
 17 16  1  0  0  0
 17 18  2  0  0  0
 20 18  1  0  0  0
 20 21  1  0  0  0
 18 19  1  0  0  0
  4 12  2  0  0  0
 22 21  2  0  0  0
 21 23  1  0  0  0
 12  3  1  0  0  0
 12  6  1  0  0  0
 11  6  2  0  0  0
 11  8  1  0  0  0
  3  2  1  0  0  0
  6  5  1  0  0  0
  8 10  2  0  0  0
  2  9  1  0  0  0
  5  9  1  0  0  0
  5  7  2  0  0  0
 10  7  1  0  0  0
  9  1  1  0  0  0
 23 24  1  0  0  0
M  END
> <minimizedAffinity>
-11.12598

$$$$
4M8E_29V_A_500


 24 25  0  0  0  0  0  0  0  0999 V2000
   60.3653   46.1483   29.7648 C   0  0  0  0  0  0  0  0  0  0  0  0
   61.2378   46.4836   32.0856 C   0  0  0  0  0  0  0  0  0  0  0  0
   62.0506   47.3831   33.0275 C   0  0  0  0  0  0  0  0  0  0  0  0
   64.3794   48.4191   33.1274 C   0  0  0  0  0  0  0  0  0  0  0  0
   62.5165   47.4040   30.1188 C   0  0  0  0  0  0  0  0  0  0  0  0
   63.5570   47.8288   30.9182 C   0  0  0  0  0  0  0  0  0  0  0  0
   62.7516   47.2398   28.7449 C   0  0  0  0  0  0  0  0  0  0  0  0
   65.0476   47.9065   29.0320 C   0  0  0  0  0  0  0  0  0  0  0  0
   61.1239   47.0995   30.6916 C   0  0  0  0  0  0  0  0  0  0  0  0
   64.0072   47.4899   28.2154 C   0  0  0  0  0  0  0  0  0  0  0  0
   64.8218   48.0895   30.3987 C   0  0  0  0  0  0  0  0  0  0  0  0
   63.3349   47.8793   32.3674 C   0  0  0  0  0  0  0  0  0  0  0  0
   64.3735   48.5472   34.5881 C   0  0  0  0  0  0  0  0  0  0  0  0
   63.4760   49.6492   35.1811 C   0  0  0  0  0  0  0  0  0  0  0  0
   65.0902   47.7775   35.4763 C   0  0  0  0  0  0  0  0  0  0  0  0
   66.0135   46.6603   35.1971 C   0  0  0  0  0  0  0  0  0  0  0  0
   66.9709   46.9171   34.2040 C   0  0  0  0  0  0  0  0  0  0  0  0
   67.6221   45.9189   33.3960 C   0  0  0  0  0  0  0  0  0  0  0  0
   67.5132   44.4294   33.7274 C   0  0  0  0  0  0  0  0  0  0  0  0
   68.4006   46.3569   32.3009 C   0  0  0  0  0  0  0  0  0  0  0  0
   67.9226   46.2826   30.9310 C   0  0  0  0  0  0  0  0  0  0  0  0
   67.1465   45.3319   30.6371 O   0  0  0  0  0  0  0  0  0  0  0  0
   68.2587   47.1613   30.1181 O   0  0  0  0  0  0  0  0  0  0  0  0
   68.8381   47.8483   30.3835 H   0  0  0  0  0  0  0  0  0  0  0  0
 14 13  1  0  0  0
 15 13  2  0  0  0
 15 16  1  0  0  0
 13  4  1  0  0  0
 17 16  1  0  0  0
 17 18  2  0  0  0
 20 18  1  0  0  0
 20 21  1  0  0  0
 18 19  1  0  0  0
  4 12  2  0  0  0
 22 21  2  0  0  0
 21 23  1  0  0  0
 12  3  1  0  0  0
 12  6  1  0  0  0
 11  6  2  0  0  0
 11  8  1  0  0  0
  3  2  1  0  0  0
  6  5  1  0  0  0
  8 10  2  0  0  0
  2  9  1  0  0  0
  5  9  1  0  0  0
  5  7  2  0  0  0
 10  7  1  0  0  0
  9  1  1  0  0  0
 23 24  1  0  0  0
M  END
> <minimizedAffinity>
-10.18219

$$$$
4M8E_29V_A_500


 24 25  0  0  0  0  0  0  0  0999 V2000
   65.0151   48.0136   34.5401 C   0  0  0  0  0  0  0  0  0  0  0  0
   64.2875   49.0826   32.3982 C   0  0  0  0  0  0  0  0  0  0  0  0
   64.0200   48.8873   30.8992 C   0  0  0  0  0  0  0  0  0  0  0  0
   65.2688   48.0507   28.8383 C   0  0  0  0  0  0  0  0  0  0  0  0
   65.9071   47.1525   32.3509 C   0  0  0  0  0  0  0  0  0  0  0  0
   66.0783   47.2525   30.9860 C   0  0  0  0  0  0  0  0  0  0  0  0
   66.8808   46.4737   33.0999 C   0  0  0  0  0  0  0  0  0  0  0  0
   68.1563   46.0467   31.1027 C   0  0  0  0  0  0  0  0  0  0  0  0
   64.6944   47.7689   33.0648 C   0  0  0  0  0  0  0  0  0  0  0  0
   67.9910   45.9301   32.4745 C   0  0  0  0  0  0  0  0  0  0  0  0
   67.1857   46.7059   30.3439 C   0  0  0  0  0  0  0  0  0  0  0  0
   65.1206   48.0672   30.2304 C   0  0  0  0  0  0  0  0  0  0  0  0
   64.4335   48.8042   27.8978 C   0  0  0  0  0  0  0  0  0  0  0  0
   64.9888   50.1553   27.4102 C   0  0  0  0  0  0  0  0  0  0  0  0
   63.2052   48.4190   27.4100 C   0  0  0  0  0  0  0  0  0  0  0  0
   62.4413   47.1885   27.6941 C   0  0  0  0  0  0  0  0  0  0  0  0
   61.7205   47.2035   28.8979 C   0  0  0  0  0  0  0  0  0  0  0  0
   60.2856   47.1605   29.0108 C   0  0  0  0  0  0  0  0  0  0  0  0
   59.3836   47.3538   27.7904 C   0  0  0  0  0  0  0  0  0  0  0  0
   59.7271   46.9694   30.2948 C   0  0  0  0  0  0  0  0  0  0  0  0
   60.4186   46.2339   31.3394 C   0  0  0  0  0  0  0  0  0  0  0  0
   61.0311   46.9055   32.2148 O   0  0  0  0  0  0  0  0  0  0  0  0
   60.3557   44.9922   31.3567 O   0  0  0  0  0  0  0  0  0  0  0  0
   59.8885   44.5374   30.6837 H   0  0  0  0  0  0  0  0  0  0  0  0
 14 13  1  0  0  0
 15 13  2  0  0  0
 15 16  1  0  0  0
 13  4  1  0  0  0
 17 16  1  0  0  0
 17 18  2  0  0  0
 20 18  1  0  0  0
 20 21  1  0  0  0
 18 19  1  0  0  0
  4 12  2  0  0  0
 22 21  2  0  0  0
 21 23  1  0  0  0
 12  3  1  0  0  0
 12  6  1  0  0  0
 11  6  2  0  0  0
 11  8  1  0  0  0
  3  2  1  0  0  0
  6  5  1  0  0  0
  8 10  2  0  0  0
  2  9  1  0  0  0
  5  9  1  0  0  0
  5  7  2  0  0  0
 10  7  1  0  0  0
  9  1  1  0  0  0
 23 24  1  0  0  0
M  END
> <minimizedAffinity>
-10.02667

$$$$
4M8E_29V_A_500


 24 25  0  0  0  0  0  0  0  0999 V2000
   67.8257   45.5805   32.9483 C   0  0  0  0  0  0  0  0  0  0  0  0
   66.9788   46.1401   30.6615 C   0  0  0  0  0  0  0  0  0  0  0  0
   66.3822   47.2211   29.7493 C   0  0  0  0  0  0  0  0  0  0  0  0
   64.3840   48.8066   29.7354 C   0  0  0  0  0  0  0  0  0  0  0  0
   66.0449   47.3362   32.6734 C   0  0  0  0  0  0  0  0  0  0  0  0
   65.1145   48.0133   31.9131 C   0  0  0  0  0  0  0  0  0  0  0  0
   65.8275   47.2258   34.0556 C   0  0  0  0  0  0  0  0  0  0  0  0
   63.7620   48.4469   33.8543 C   0  0  0  0  0  0  0  0  0  0  0  0
   67.2949   46.6978   32.0489 C   0  0  0  0  0  0  0  0  0  0  0  0
   64.6949   47.7776   34.6318 C   0  0  0  0  0  0  0  0  0  0  0  0
   63.9753   48.5778   32.4796 C   0  0  0  0  0  0  0  0  0  0  0  0
   65.2881   48.0174   30.4565 C   0  0  0  0  0  0  0  0  0  0  0  0
   64.3673   48.9399   28.2753 C   0  0  0  0  0  0  0  0  0  0  0  0
   65.7353   48.9655   27.5684 C   0  0  0  0  0  0  0  0  0  0  0  0
   63.2489   49.0422   27.4793 C   0  0  0  0  0  0  0  0  0  0  0  0
   61.8273   49.0391   27.8762 C   0  0  0  0  0  0  0  0  0  0  0  0
   61.4282   47.9322   28.6407 C   0  0  0  0  0  0  0  0  0  0  0  0
   60.1101   47.3525   28.6430 C   0  0  0  0  0  0  0  0  0  0  0  0
   58.9254   48.0628   27.9857 C   0  0  0  0  0  0  0  0  0  0  0  0
   59.9305   46.1170   29.3051 C   0  0  0  0  0  0  0  0  0  0  0  0
   59.6396   46.0339   30.7260 C   0  0  0  0  0  0  0  0  0  0  0  0
   58.5326   46.4938   31.1203 O   0  0  0  0  0  0  0  0  0  0  0  0
   60.4595   45.4907   31.4868 O   0  0  0  0  0  0  0  0  0  0  0  0
   61.2693   45.1642   31.1468 H   0  0  0  0  0  0  0  0  0  0  0  0
 14 13  1  0  0  0
 15 13  2  0  0  0
 15 16  1  0  0  0
 13  4  1  0  0  0
 17 16  1  0  0  0
 17 18  2  0  0  0
 20 18  1  0  0  0
 20 21  1  0  0  0
 18 19  1  0  0  0
  4 12  2  0  0  0
 22 21  2  0  0  0
 21 23  1  0  0  0
 12  3  1  0  0  0
 12  6  1  0  0  0
 11  6  2  0  0  0
 11  8  1  0  0  0
  3  2  1  0  0  0
  6  5  1  0  0  0
  8 10  2  0  0  0
  2  9  1  0  0  0
  5  9  1  0  0  0
  5  7  2  0  0  0
 10  7  1  0  0  0
  9  1  1  0  0  0
 23 24  1  0  0  0
M  END
> <minimizedAffinity>
-9.94874

$$$$
4M8E_29V_A_500


 24 25  0  0  0  0  0  0  0  0999 V2000
   58.6984   47.4467   28.0173 C   0  0  0  0  0  0  0  0  0  0  0  0
   61.0414   48.2486   27.6602 C   0  0  0  0  0  0  0  0  0  0  0  0
   62.5313   48.0057   27.9391 C   0  0  0  0  0  0  0  0  0  0  0  0
   64.0614   47.6897   29.9555 C   0  0  0  0  0  0  0  0  0  0  0  0
   60.4525   46.9886   29.7617 C   0  0  0  0  0  0  0  0  0  0  0  0
   61.7118   47.1700   30.2942 C   0  0  0  0  0  0  0  0  0  0  0  0
   59.3981   46.6670   30.6305 C   0  0  0  0  0  0  0  0  0  0  0  0
   60.8941   46.7437   32.5158 C   0  0  0  0  0  0  0  0  0  0  0  0
   60.1771   47.1388   28.2578 C   0  0  0  0  0  0  0  0  0  0  0  0
   59.6251   46.5485   31.9920 C   0  0  0  0  0  0  0  0  0  0  0  0
   61.9553   47.0480   31.6593 C   0  0  0  0  0  0  0  0  0  0  0  0
   62.7792   47.6249   29.3967 C   0  0  0  0  0  0  0  0  0  0  0  0
   65.2642   48.1327   29.2435 C   0  0  0  0  0  0  0  0  0  0  0  0
   65.0758   49.2442   28.1944 C   0  0  0  0  0  0  0  0  0  0  0  0
   66.5414   47.6521   29.4245 C   0  0  0  0  0  0  0  0  0  0  0  0
   67.0137   46.6068   30.3533 C   0  0  0  0  0  0  0  0  0  0  0  0
   67.1381   47.0146   31.6902 C   0  0  0  0  0  0  0  0  0  0  0  0
   67.2667   46.1335   32.8218 C   0  0  0  0  0  0  0  0  0  0  0  0
   67.0203   44.6292   32.6932 C   0  0  0  0  0  0  0  0  0  0  0  0
   67.5942   46.7042   34.0725 C   0  0  0  0  0  0  0  0  0  0  0  0
   66.5796   47.1779   34.9980 C   0  0  0  0  0  0  0  0  0  0  0  0
   65.4574   47.4966   34.5167 O   0  0  0  0  0  0  0  0  0  0  0  0
   66.8336   47.2191   36.2145 O   0  0  0  0  0  0  0  0  0  0  0  0
   67.6827   46.9724   36.5245 H   0  0  0  0  0  0  0  0  0  0  0  0
 14 13  1  0  0  0
 15 13  2  0  0  0
 15 16  1  0  0  0
 13  4  1  0  0  0
 17 16  1  0  0  0
 17 18  2  0  0  0
 20 18  1  0  0  0
 20 21  1  0  0  0
 18 19  1  0  0  0
  4 12  2  0  0  0
 22 21  2  0  0  0
 21 23  1  0  0  0
 12  3  1  0  0  0
 12  6  1  0  0  0
 11  6  2  0  0  0
 11  8  1  0  0  0
  3  2  1  0  0  0
  6  5  1  0  0  0
  8 10  2  0  0  0
  2  9  1  0  0  0
  5  9  1  0  0  0
  5  7  2  0  0  0
 10  7  1  0  0  0
  9  1  1  0  0  0
 23 24  1  0  0  0
M  END
> <minimizedAffinity>
-9.29024

$$$$
