4M0Y_M0Y_A_701


 27 29  0  0  0  0  0  0  0  0999 V2000
    7.0098    6.0919   22.4398 N   0  0  0  0  0  0  0  0  0  0  0  0
    7.4779    6.3633   21.1457 C   0  0  0  0  0  0  0  0  0  0  0  0
    8.6736    7.0487   21.3203 C   0  0  0  0  0  0  0  0  0  0  0  0
    8.8527    7.1481   22.7567 C   0  0  0  0  0  0  0  0  0  0  0  0
    7.8225    6.5612   23.3997 N   0  0  0  0  0  0  0  0  0  0  0  0
    2.2745    5.3769   20.2968 C   0  0  0  0  0  0  0  0  0  0  0  0
    3.3527    6.2473   19.9591 C   0  0  0  0  0  0  0  0  0  0  0  0
    4.4956    6.2713   20.7210 C   0  0  0  0  0  0  0  0  0  0  0  0
    4.6285    5.4171   21.8778 C   0  0  0  0  0  0  0  0  0  0  0  0
    3.5219    4.5538   22.2234 C   0  0  0  0  0  0  0  0  0  0  0  0
    2.3503    4.5479   21.4003 C   0  0  0  0  0  0  0  0  0  0  0  0
    3.5815    3.7212   23.3949 C   0  0  0  0  0  0  0  0  0  0  0  0
    4.6992    3.7345   24.2037 C   0  0  0  0  0  0  0  0  0  0  0  0
    5.8194    4.5539   23.8907 C   0  0  0  0  0  0  0  0  0  0  0  0
    5.7970    5.3665   22.7462 C   0  0  0  0  0  0  0  0  0  0  0  0
    9.5706    7.5303   20.3710 N   0  0  0  0  0  0  0  0  0  0  0  0
    9.2781    8.5243   19.3687 C   0  0  0  0  0  0  0  0  0  0  0  0
    8.1861    9.1198   19.2430 O   0  0  0  0  0  0  0  0  0  0  0  0
   10.3291    8.8301   18.5123 N   0  0  0  0  0  0  0  0  0  0  0  0
   10.4829    7.1605   20.3853 H   0  0  0  0  0  0  0  0  0  0  0  0
   11.1916    8.3649   18.6060 H   0  0  0  0  0  0  0  0  0  0  0  0
   10.2110    9.5119   17.8120 H   0  0  0  0  0  0  0  0  0  0  0  0
    9.9365    7.8380   23.4748 C   0  0  0  0  0  0  0  0  0  0  0  0
   10.1968    8.9893   23.1784 O   0  0  0  0  0  0  0  0  0  0  0  0
   10.6163    7.1905   24.5207 N   0  0  0  0  0  0  0  0  0  0  0  0
   10.3950    6.2588   24.7492 H   0  0  0  0  0  0  0  0  0  0  0  0
   11.3138    7.6686   25.0248 H   0  0  0  0  0  0  0  0  0  0  0  0
 13 12  2  0  0  0
 13 14  1  0  0  0
 12 10  1  0  0  0
 14 15  2  0  0  0
 10 11  2  0  0  0
 10  9  1  0  0  0
 11  6  1  0  0  0
 15  9  1  0  0  0
 15  1  1  0  0  0
  9  8  2  0  0  0
  5  1  1  0  0  0
  5  4  2  0  0  0
  1  2  1  0  0  0
  6  7  2  0  0  0
 25 23  1  0  0  0
  8  7  1  0  0  0
  4 23  1  0  0  0
  4  3  1  0  0  0
  2  3  2  0  0  0
 23 24  2  0  0  0
  3 16  1  0  0  0
 16 17  1  0  0  0
 18 17  2  0  0  0
 17 19  1  0  0  0
 25 26  1  0  0  0
 25 27  1  0  0  0
 16 20  1  0  0  0
 19 21  1  0  0  0
 19 22  1  0  0  0
M  END
> <minimizedAffinity>
-8.96468

$$$$
4M0Y_M0Y_A_701


 27 29  0  0  0  0  0  0  0  0999 V2000
    5.8399    6.0693   20.1725 N   0  0  0  0  0  0  0  0  0  0  0  0
    6.2263    5.7616   18.8597 C   0  0  0  0  0  0  0  0  0  0  0  0
    7.3758    6.5065   18.6275 C   0  0  0  0  0  0  0  0  0  0  0  0
    7.6137    7.2383   19.8576 C   0  0  0  0  0  0  0  0  0  0  0  0
    6.6599    6.9504   20.7668 N   0  0  0  0  0  0  0  0  0  0  0  0
    4.8318    3.7470   24.7678 C   0  0  0  0  0  0  0  0  0  0  0  0
    6.0531    4.1429   24.1468 C   0  0  0  0  0  0  0  0  0  0  0  0
    6.0489    4.7070   22.8942 C   0  0  0  0  0  0  0  0  0  0  0  0
    4.8093    4.9101   22.1815 C   0  0  0  0  0  0  0  0  0  0  0  0
    3.5790    4.4865   22.8110 C   0  0  0  0  0  0  0  0  0  0  0  0
    3.6209    3.9118   24.1217 C   0  0  0  0  0  0  0  0  0  0  0  0
    2.3223    4.6183   22.1237 C   0  0  0  0  0  0  0  0  0  0  0  0
    2.2752    5.1540   20.8532 C   0  0  0  0  0  0  0  0  0  0  0  0
    3.4590    5.6022   20.2034 C   0  0  0  0  0  0  0  0  0  0  0  0
    4.6986    5.5003   20.8543 C   0  0  0  0  0  0  0  0  0  0  0  0
    8.1903    6.5588   17.4999 N   0  0  0  0  0  0  0  0  0  0  0  0
    8.0756    7.5134   16.4258 C   0  0  0  0  0  0  0  0  0  0  0  0
    7.2512    8.4523   16.3823 O   0  0  0  0  0  0  0  0  0  0  0  0
    8.9888    7.3536   15.3904 N   0  0  0  0  0  0  0  0  0  0  0  0
    8.9059    5.8864   17.4300 H   0  0  0  0  0  0  0  0  0  0  0  0
    9.6407    6.6164   15.4185 H   0  0  0  0  0  0  0  0  0  0  0  0
    8.9837    7.9776   14.6289 H   0  0  0  0  0  0  0  0  0  0  0  0
    8.6765    8.2225   20.1187 C   0  0  0  0  0  0  0  0  0  0  0  0
    8.8065    9.1618   19.3560 O   0  0  0  0  0  0  0  0  0  0  0  0
    9.4863    8.1028   21.2612 N   0  0  0  0  0  0  0  0  0  0  0  0
    9.3697    7.3373   21.8692 H   0  0  0  0  0  0  0  0  0  0  0  0
   10.1701    8.7844   21.4535 H   0  0  0  0  0  0  0  0  0  0  0  0
 13 12  2  0  0  0
 13 14  1  0  0  0
 12 10  1  0  0  0
 14 15  2  0  0  0
 10 11  2  0  0  0
 10  9  1  0  0  0
 11  6  1  0  0  0
 15  9  1  0  0  0
 15  1  1  0  0  0
  9  8  2  0  0  0
  5  1  1  0  0  0
  5  4  2  0  0  0
  1  2  1  0  0  0
  6  7  2  0  0  0
 25 23  1  0  0  0
  8  7  1  0  0  0
  4 23  1  0  0  0
  4  3  1  0  0  0
  2  3  2  0  0  0
 23 24  2  0  0  0
  3 16  1  0  0  0
 16 17  1  0  0  0
 18 17  2  0  0  0
 17 19  1  0  0  0
 25 26  1  0  0  0
 25 27  1  0  0  0
 16 20  1  0  0  0
 19 21  1  0  0  0
 19 22  1  0  0  0
M  END
> <minimizedAffinity>
-8.91813

$$$$
4M0Y_M0Y_A_701


 27 29  0  0  0  0  0  0  0  0999 V2000
    6.2831    6.5258   20.5719 N   0  0  0  0  0  0  0  0  0  0  0  0
    7.0932    7.0727   21.5779 C   0  0  0  0  0  0  0  0  0  0  0  0
    8.1992    7.5958   20.9196 C   0  0  0  0  0  0  0  0  0  0  0  0
    7.9742    7.3202   19.5130 C   0  0  0  0  0  0  0  0  0  0  0  0
    6.8062    6.6672   19.3437 N   0  0  0  0  0  0  0  0  0  0  0  0
    4.0163    3.5594   24.2582 C   0  0  0  0  0  0  0  0  0  0  0  0
    5.3581    4.0128   24.0906 C   0  0  0  0  0  0  0  0  0  0  0  0
    5.7107    4.7606   22.9935 C   0  0  0  0  0  0  0  0  0  0  0  0
    4.7312    5.1023   21.9886 C   0  0  0  0  0  0  0  0  0  0  0  0
    3.3789    4.6204   22.1574 C   0  0  0  0  0  0  0  0  0  0  0  0
    3.0455    3.8523   23.3188 C   0  0  0  0  0  0  0  0  0  0  0  0
    2.3770    4.8881   21.1606 C   0  0  0  0  0  0  0  0  0  0  0  0
    2.6945    5.6118   20.0296 C   0  0  0  0  0  0  0  0  0  0  0  0
    4.0078    6.1222   19.8319 C   0  0  0  0  0  0  0  0  0  0  0  0
    5.0034    5.8900   20.7939 C   0  0  0  0  0  0  0  0  0  0  0  0
    9.2990    8.2789   21.4310 N   0  0  0  0  0  0  0  0  0  0  0  0
   10.4770    7.6692   21.9954 C   0  0  0  0  0  0  0  0  0  0  0  0
   10.6877    6.4388   22.0644 O   0  0  0  0  0  0  0  0  0  0  0  0
   11.4371    8.5572   22.4654 N   0  0  0  0  0  0  0  0  0  0  0  0
    9.2698    9.2626   21.4051 H   0  0  0  0  0  0  0  0  0  0  0  0
   11.2775    9.5273   22.4141 H   0  0  0  0  0  0  0  0  0  0  0  0
   12.2769    8.2162   22.8498 H   0  0  0  0  0  0  0  0  0  0  0  0
    8.8794    7.6150   18.3905 C   0  0  0  0  0  0  0  0  0  0  0  0
    9.6580    8.5445   18.4932 O   0  0  0  0  0  0  0  0  0  0  0  0
    8.8769    6.7984   17.2465 N   0  0  0  0  0  0  0  0  0  0  0  0
    8.2411    6.0499   17.1774 H   0  0  0  0  0  0  0  0  0  0  0  0
    9.5109    6.9749   16.5144 H   0  0  0  0  0  0  0  0  0  0  0  0
 13 12  2  0  0  0
 13 14  1  0  0  0
 12 10  1  0  0  0
 14 15  2  0  0  0
 10 11  2  0  0  0
 10  9  1  0  0  0
 11  6  1  0  0  0
 15  9  1  0  0  0
 15  1  1  0  0  0
  9  8  2  0  0  0
  5  1  1  0  0  0
  5  4  2  0  0  0
  1  2  1  0  0  0
  6  7  2  0  0  0
 25 23  1  0  0  0
  8  7  1  0  0  0
  4 23  1  0  0  0
  4  3  1  0  0  0
  2  3  2  0  0  0
 23 24  2  0  0  0
  3 16  1  0  0  0
 16 17  1  0  0  0
 18 17  2  0  0  0
 17 19  1  0  0  0
 25 26  1  0  0  0
 25 27  1  0  0  0
 16 20  1  0  0  0
 19 21  1  0  0  0
 19 22  1  0  0  0
M  END
> <minimizedAffinity>
-8.84217

$$$$
4M0Y_M0Y_A_701


 27 29  0  0  0  0  0  0  0  0999 V2000
    6.9547    6.2776   22.2133 N   0  0  0  0  0  0  0  0  0  0  0  0
    8.0002    6.6526   23.0698 C   0  0  0  0  0  0  0  0  0  0  0  0
    8.8578    7.4216   22.2931 C   0  0  0  0  0  0  0  0  0  0  0  0
    8.2513    7.4603   20.9755 C   0  0  0  0  0  0  0  0  0  0  0  0
    7.1034    6.7522   20.9664 N   0  0  0  0  0  0  0  0  0  0  0  0
    2.1605    5.2210   20.3622 C   0  0  0  0  0  0  0  0  0  0  0  0
    3.1598    6.1502   19.9472 C   0  0  0  0  0  0  0  0  0  0  0  0
    4.3404    6.2621   20.6407 C   0  0  0  0  0  0  0  0  0  0  0  0
    4.5933    5.4426   21.8027 C   0  0  0  0  0  0  0  0  0  0  0  0
    3.5657    4.5189   22.2271 C   0  0  0  0  0  0  0  0  0  0  0  0
    2.3520    4.4219   21.4738 C   0  0  0  0  0  0  0  0  0  0  0  0
    3.7450    3.7166   23.4076 C   0  0  0  0  0  0  0  0  0  0  0  0
    4.9038    3.8174   24.1496 C   0  0  0  0  0  0  0  0  0  0  0  0
    5.9497    4.6988   23.7577 C   0  0  0  0  0  0  0  0  0  0  0  0
    5.8102    5.4839   22.6024 C   0  0  0  0  0  0  0  0  0  0  0  0
   10.0365    8.0724   22.6462 N   0  0  0  0  0  0  0  0  0  0  0  0
   11.3696    7.6231   22.3313 C   0  0  0  0  0  0  0  0  0  0  0  0
   11.6462    6.6051   21.6602 O   0  0  0  0  0  0  0  0  0  0  0  0
   12.3956    8.4282   22.8112 N   0  0  0  0  0  0  0  0  0  0  0  0
    9.9527    8.9113   23.1546 H   0  0  0  0  0  0  0  0  0  0  0  0
   12.1847    9.2312   23.3403 H   0  0  0  0  0  0  0  0  0  0  0  0
   13.3334    8.1955   22.6222 H   0  0  0  0  0  0  0  0  0  0  0  0
    8.7916    8.0966   19.7633 C   0  0  0  0  0  0  0  0  0  0  0  0
    8.2746    9.1211   19.3583 O   0  0  0  0  0  0  0  0  0  0  0  0
    9.9193    7.5550   19.1228 N   0  0  0  0  0  0  0  0  0  0  0  0
   10.3269    6.7253   19.4617 H   0  0  0  0  0  0  0  0  0  0  0  0
   10.3018    8.0052   18.3352 H   0  0  0  0  0  0  0  0  0  0  0  0
 13 12  2  0  0  0
 13 14  1  0  0  0
 12 10  1  0  0  0
 14 15  2  0  0  0
 10 11  2  0  0  0
 10  9  1  0  0  0
 11  6  1  0  0  0
 15  9  1  0  0  0
 15  1  1  0  0  0
  9  8  2  0  0  0
  5  1  1  0  0  0
  5  4  2  0  0  0
  1  2  1  0  0  0
  6  7  2  0  0  0
 25 23  1  0  0  0
  8  7  1  0  0  0
  4 23  1  0  0  0
  4  3  1  0  0  0
  2  3  2  0  0  0
 23 24  2  0  0  0
  3 16  1  0  0  0
 16 17  1  0  0  0
 18 17  2  0  0  0
 17 19  1  0  0  0
 25 26  1  0  0  0
 25 27  1  0  0  0
 16 20  1  0  0  0
 19 21  1  0  0  0
 19 22  1  0  0  0
M  END
> <minimizedAffinity>
-8.80669

$$$$
4M0Y_M0Y_A_701


 27 29  0  0  0  0  0  0  0  0999 V2000
    7.1291    6.6598   20.5398 N   0  0  0  0  0  0  0  0  0  0  0  0
    8.2447    7.4537   20.8442 C   0  0  0  0  0  0  0  0  0  0  0  0
    8.7791    7.8278   19.6176 C   0  0  0  0  0  0  0  0  0  0  0  0
    7.9209    7.2136   18.6218 C   0  0  0  0  0  0  0  0  0  0  0  0
    6.9367    6.5113   19.2196 N   0  0  0  0  0  0  0  0  0  0  0  0
    2.1162    5.1354   20.8090 C   0  0  0  0  0  0  0  0  0  0  0  0
    2.8434    5.8504   19.8121 C   0  0  0  0  0  0  0  0  0  0  0  0
    4.1664    6.1664   20.0048 C   0  0  0  0  0  0  0  0  0  0  0  0
    4.8468    5.7817   21.2192 C   0  0  0  0  0  0  0  0  0  0  0  0
    4.0952    5.0756   22.2321 C   0  0  0  0  0  0  0  0  0  0  0  0
    2.7207    4.7542   21.9922 C   0  0  0  0  0  0  0  0  0  0  0  0
    4.7103    4.7149   23.4814 C   0  0  0  0  0  0  0  0  0  0  0  0
    6.0290    5.0371   23.7279 C   0  0  0  0  0  0  0  0  0  0  0  0
    6.8120    5.7141   22.7517 C   0  0  0  0  0  0  0  0  0  0  0  0
    6.2440    6.0664   21.5172 C   0  0  0  0  0  0  0  0  0  0  0  0
    9.8728    8.6407   19.3335 N   0  0  0  0  0  0  0  0  0  0  0  0
   11.2557    8.2867   19.5340 C   0  0  0  0  0  0  0  0  0  0  0  0
   11.6621    7.1814   19.9538 O   0  0  0  0  0  0  0  0  0  0  0  0
   12.1751    9.2735   19.1989 N   0  0  0  0  0  0  0  0  0  0  0  0
    9.6858    9.5339   18.9640 H   0  0  0  0  0  0  0  0  0  0  0  0
   11.8618   10.1461   18.8678 H   0  0  0  0  0  0  0  0  0  0  0  0
   13.1396    9.1000   19.2927 H   0  0  0  0  0  0  0  0  0  0  0  0
    8.0845    7.2487   17.1595 C   0  0  0  0  0  0  0  0  0  0  0  0
    8.9681    7.9374   16.6844 O   0  0  0  0  0  0  0  0  0  0  0  0
    7.2668    6.4548   16.3371 N   0  0  0  0  0  0  0  0  0  0  0  0
    6.5558    5.9027   16.7357 H   0  0  0  0  0  0  0  0  0  0  0  0
    7.4050    6.4508   15.3623 H   0  0  0  0  0  0  0  0  0  0  0  0
 13 12  2  0  0  0
 13 14  1  0  0  0
 12 10  1  0  0  0
 14 15  2  0  0  0
 10 11  2  0  0  0
 10  9  1  0  0  0
 11  6  1  0  0  0
 15  9  1  0  0  0
 15  1  1  0  0  0
  9  8  2  0  0  0
  5  1  1  0  0  0
  5  4  2  0  0  0
  1  2  1  0  0  0
  6  7  2  0  0  0
 25 23  1  0  0  0
  8  7  1  0  0  0
  4 23  1  0  0  0
  4  3  1  0  0  0
  2  3  2  0  0  0
 23 24  2  0  0  0
  3 16  1  0  0  0
 16 17  1  0  0  0
 18 17  2  0  0  0
 17 19  1  0  0  0
 25 26  1  0  0  0
 25 27  1  0  0  0
 16 20  1  0  0  0
 19 21  1  0  0  0
 19 22  1  0  0  0
M  END
> <minimizedAffinity>
-8.75149

$$$$
4M0Y_M0Y_A_701


 27 29  0  0  0  0  0  0  0  0999 V2000
    7.2767    5.5748   22.9986 N   0  0  0  0  0  0  0  0  0  0  0  0
    8.4596    4.9071   23.3481 C   0  0  0  0  0  0  0  0  0  0  0  0
    9.4869    5.7958   23.0564 C   0  0  0  0  0  0  0  0  0  0  0  0
    8.8324    6.9802   22.5329 C   0  0  0  0  0  0  0  0  0  0  0  0
    7.4951    6.8056   22.5093 N   0  0  0  0  0  0  0  0  0  0  0  0
    2.8192    5.3900   20.2376 C   0  0  0  0  0  0  0  0  0  0  0  0
    4.0440    6.0893   20.0258 C   0  0  0  0  0  0  0  0  0  0  0  0
    5.0663    5.9996   20.9392 C   0  0  0  0  0  0  0  0  0  0  0  0
    4.9217    5.1967   22.1309 C   0  0  0  0  0  0  0  0  0  0  0  0
    3.6689    4.5086   22.3462 C   0  0  0  0  0  0  0  0  0  0  0  0
    2.6294    4.6169   21.3676 C   0  0  0  0  0  0  0  0  0  0  0  0
    3.4535    3.7377   23.5415 C   0  0  0  0  0  0  0  0  0  0  0  0
    4.4432    3.6433   24.4980 C   0  0  0  0  0  0  0  0  0  0  0  0
    5.6988    4.2878   24.3184 C   0  0  0  0  0  0  0  0  0  0  0  0
    5.9442    5.0353   23.1557 C   0  0  0  0  0  0  0  0  0  0  0  0
   10.8604    5.6591   23.2362 N   0  0  0  0  0  0  0  0  0  0  0  0
   11.6232    4.4605   22.9920 C   0  0  0  0  0  0  0  0  0  0  0  0
   11.1577    3.3898   22.5449 O   0  0  0  0  0  0  0  0  0  0  0  0
   12.9822    4.5562   23.2668 N   0  0  0  0  0  0  0  0  0  0  0  0
   11.3531    6.4485   23.5577 H   0  0  0  0  0  0  0  0  0  0  0  0
   13.3552    5.3965   23.6190 H   0  0  0  0  0  0  0  0  0  0  0  0
   13.5718    3.7838   23.1092 H   0  0  0  0  0  0  0  0  0  0  0  0
    9.4748    8.1994   22.0160 C   0  0  0  0  0  0  0  0  0  0  0  0
   10.3128    8.7563   22.7005 O   0  0  0  0  0  0  0  0  0  0  0  0
    9.1610    8.6737   20.7307 N   0  0  0  0  0  0  0  0  0  0  0  0
    8.4808    8.2129   20.1884 H   0  0  0  0  0  0  0  0  0  0  0  0
    9.6215    9.4669   20.3727 H   0  0  0  0  0  0  0  0  0  0  0  0
 13 12  2  0  0  0
 13 14  1  0  0  0
 12 10  1  0  0  0
 14 15  2  0  0  0
 10 11  2  0  0  0
 10  9  1  0  0  0
 11  6  1  0  0  0
 15  9  1  0  0  0
 15  1  1  0  0  0
  9  8  2  0  0  0
  5  1  1  0  0  0
  5  4  2  0  0  0
  1  2  1  0  0  0
  6  7  2  0  0  0
 25 23  1  0  0  0
  8  7  1  0  0  0
  4 23  1  0  0  0
  4  3  1  0  0  0
  2  3  2  0  0  0
 23 24  2  0  0  0
  3 16  1  0  0  0
 16 17  1  0  0  0
 18 17  2  0  0  0
 17 19  1  0  0  0
 25 26  1  0  0  0
 25 27  1  0  0  0
 16 20  1  0  0  0
 19 21  1  0  0  0
 19 22  1  0  0  0
M  END
> <minimizedAffinity>
-8.66097

$$$$
4M0Y_M0Y_A_701


 27 29  0  0  0  0  0  0  0  0999 V2000
    7.0388    6.4337   21.5493 N   0  0  0  0  0  0  0  0  0  0  0  0
    7.1894    6.6546   20.1724 C   0  0  0  0  0  0  0  0  0  0  0  0
    8.3661    7.3812   20.0401 C   0  0  0  0  0  0  0  0  0  0  0  0
    8.8634    7.5556   21.3920 C   0  0  0  0  0  0  0  0  0  0  0  0
    8.0298    6.9721   22.2774 N   0  0  0  0  0  0  0  0  0  0  0  0
    2.0828    5.1632   20.3872 C   0  0  0  0  0  0  0  0  0  0  0  0
    3.0161    6.0381   19.7567 C   0  0  0  0  0  0  0  0  0  0  0  0
    4.2653    6.2316   20.2946 C   0  0  0  0  0  0  0  0  0  0  0  0
    4.6583    5.5543   21.5081 C   0  0  0  0  0  0  0  0  0  0  0  0
    3.6978    4.6859   22.1505 C   0  0  0  0  0  0  0  0  0  0  0  0
    2.4089    4.5002   21.5555 C   0  0  0  0  0  0  0  0  0  0  0  0
    4.0197    4.0278   23.3885 C   0  0  0  0  0  0  0  0  0  0  0  0
    5.2527    4.2159   23.9780 C   0  0  0  0  0  0  0  0  0  0  0  0
    6.2356    5.0461   23.3706 C   0  0  0  0  0  0  0  0  0  0  0  0
    5.9564    5.6902   22.1549 C   0  0  0  0  0  0  0  0  0  0  0  0
    9.0044    7.8409   18.8917 N   0  0  0  0  0  0  0  0  0  0  0  0
    8.7856    9.1210   18.2657 C   0  0  0  0  0  0  0  0  0  0  0  0
    8.0195   10.0106   18.6954 O   0  0  0  0  0  0  0  0  0  0  0  0
    9.5227    9.3496   17.1100 N   0  0  0  0  0  0  0  0  0  0  0  0
    9.6615    7.2406   18.4709 H   0  0  0  0  0  0  0  0  0  0  0  0
   10.1279    8.6532   16.7663 H   0  0  0  0  0  0  0  0  0  0  0  0
    9.4398   10.2079   16.6350 H   0  0  0  0  0  0  0  0  0  0  0  0
   10.0546    8.3101   21.8138 C   0  0  0  0  0  0  0  0  0  0  0  0
   10.9402    8.5093   21.0034 O   0  0  0  0  0  0  0  0  0  0  0  0
   10.1351    8.8355   23.1149 N   0  0  0  0  0  0  0  0  0  0  0  0
    9.4108    8.6660   23.7599 H   0  0  0  0  0  0  0  0  0  0  0  0
   10.9156    9.3731   23.3813 H   0  0  0  0  0  0  0  0  0  0  0  0
 13 12  2  0  0  0
 13 14  1  0  0  0
 12 10  1  0  0  0
 14 15  2  0  0  0
 10 11  2  0  0  0
 10  9  1  0  0  0
 11  6  1  0  0  0
 15  9  1  0  0  0
 15  1  1  0  0  0
  9  8  2  0  0  0
  5  1  1  0  0  0
  5  4  2  0  0  0
  1  2  1  0  0  0
  6  7  2  0  0  0
 25 23  1  0  0  0
  8  7  1  0  0  0
  4 23  1  0  0  0
  4  3  1  0  0  0
  2  3  2  0  0  0
 23 24  2  0  0  0
  3 16  1  0  0  0
 16 17  1  0  0  0
 18 17  2  0  0  0
 17 19  1  0  0  0
 25 26  1  0  0  0
 25 27  1  0  0  0
 16 20  1  0  0  0
 19 21  1  0  0  0
 19 22  1  0  0  0
M  END
> <minimizedAffinity>
-8.59996

$$$$
4M0Y_M0Y_A_701


 27 29  0  0  0  0  0  0  0  0999 V2000
    6.9702    5.0516   22.9585 N   0  0  0  0  0  0  0  0  0  0  0  0
    7.5142    6.2339   22.4355 C   0  0  0  0  0  0  0  0  0  0  0  0
    8.8910    6.0946   22.5587 C   0  0  0  0  0  0  0  0  0  0  0  0
    9.0919    4.7934   23.1683 C   0  0  0  0  0  0  0  0  0  0  0  0
    7.9053    4.1951   23.3992 N   0  0  0  0  0  0  0  0  0  0  0  0
    2.7391    5.7114   19.9272 C   0  0  0  0  0  0  0  0  0  0  0  0
    4.0756    6.1973   19.8183 C   0  0  0  0  0  0  0  0  0  0  0  0
    5.0050    5.9076   20.7876 C   0  0  0  0  0  0  0  0  0  0  0  0
    4.6483    5.1066   21.9351 C   0  0  0  0  0  0  0  0  0  0  0  0
    3.2859    4.6365   22.0463 C   0  0  0  0  0  0  0  0  0  0  0  0
    2.3470    4.9493   21.0117 C   0  0  0  0  0  0  0  0  0  0  0  0
    2.8647    3.8790   23.1944 C   0  0  0  0  0  0  0  0  0  0  0  0
    3.7584    3.5891   24.2046 C   0  0  0  0  0  0  0  0  0  0  0  0
    5.1138    4.0147   24.1274 C   0  0  0  0  0  0  0  0  0  0  0  0
    5.5585    4.7431   23.0127 C   0  0  0  0  0  0  0  0  0  0  0  0
    9.9116    6.9578   22.1702 N   0  0  0  0  0  0  0  0  0  0  0  0
   10.7696    7.6975   23.0617 C   0  0  0  0  0  0  0  0  0  0  0  0
   10.7388    7.6314   24.3098 O   0  0  0  0  0  0  0  0  0  0  0  0
   11.7043    8.5173   22.4408 N   0  0  0  0  0  0  0  0  0  0  0  0
   10.0602    7.0730   21.2038 H   0  0  0  0  0  0  0  0  0  0  0  0
   11.7339    8.5739   21.4583 H   0  0  0  0  0  0  0  0  0  0  0  0
   12.3369    9.0414   22.9833 H   0  0  0  0  0  0  0  0  0  0  0  0
   10.3701    4.1848   23.5710 C   0  0  0  0  0  0  0  0  0  0  0  0
   10.9204    3.4153   22.8055 O   0  0  0  0  0  0  0  0  0  0  0  0
   10.9654    4.5345   24.7952 N   0  0  0  0  0  0  0  0  0  0  0  0
   10.5083    5.1583   25.4044 H   0  0  0  0  0  0  0  0  0  0  0  0
   11.8395    4.1555   25.0435 H   0  0  0  0  0  0  0  0  0  0  0  0
 13 12  2  0  0  0
 13 14  1  0  0  0
 12 10  1  0  0  0
 14 15  2  0  0  0
 10 11  2  0  0  0
 10  9  1  0  0  0
 11  6  1  0  0  0
 15  9  1  0  0  0
 15  1  1  0  0  0
  9  8  2  0  0  0
  5  1  1  0  0  0
  5  4  2  0  0  0
  1  2  1  0  0  0
  6  7  2  0  0  0
 25 23  1  0  0  0
  8  7  1  0  0  0
  4 23  1  0  0  0
  4  3  1  0  0  0
  2  3  2  0  0  0
 23 24  2  0  0  0
  3 16  1  0  0  0
 16 17  1  0  0  0
 18 17  2  0  0  0
 17 19  1  0  0  0
 25 26  1  0  0  0
 25 27  1  0  0  0
 16 20  1  0  0  0
 19 21  1  0  0  0
 19 22  1  0  0  0
M  END
> <minimizedAffinity>
-8.32332

$$$$
4M0Y_M0Y_A_701


 27 29  0  0  0  0  0  0  0  0999 V2000
    7.0181    6.7138   21.5998 N   0  0  0  0  0  0  0  0  0  0  0  0
    7.6937    7.3264   20.5342 C   0  0  0  0  0  0  0  0  0  0  0  0
    8.8536    7.8557   21.0861 C   0  0  0  0  0  0  0  0  0  0  0  0
    8.7980    7.5151   22.4954 C   0  0  0  0  0  0  0  0  0  0  0  0
    7.6696    6.8282   22.7679 N   0  0  0  0  0  0  0  0  0  0  0  0
    4.0969    3.5052   24.5491 C   0  0  0  0  0  0  0  0  0  0  0  0
    5.4099    4.0329   24.7269 C   0  0  0  0  0  0  0  0  0  0  0  0
    5.9755    4.8364   23.7669 C   0  0  0  0  0  0  0  0  0  0  0  0
    5.2533    5.1626   22.5596 C   0  0  0  0  0  0  0  0  0  0  0  0
    3.9315    4.6059   22.3797 C   0  0  0  0  0  0  0  0  0  0  0  0
    3.3698    3.7808   23.4062 C   0  0  0  0  0  0  0  0  0  0  0  0
    3.1898    4.8568   21.1729 C   0  0  0  0  0  0  0  0  0  0  0  0
    3.7312    5.6356   20.1710 C   0  0  0  0  0  0  0  0  0  0  0  0
    5.0206    6.2198   20.3138 C   0  0  0  0  0  0  0  0  0  0  0  0
    5.7626    6.0053   21.4860 C   0  0  0  0  0  0  0  0  0  0  0  0
    9.8990    8.5408   20.4734 N   0  0  0  0  0  0  0  0  0  0  0  0
   11.1992    7.9944   20.1748 C   0  0  0  0  0  0  0  0  0  0  0  0
   11.5505    6.8141   20.3902 O   0  0  0  0  0  0  0  0  0  0  0  0
   12.0916    8.8784   19.5802 N   0  0  0  0  0  0  0  0  0  0  0  0
    9.7365    9.4788   20.2224 H   0  0  0  0  0  0  0  0  0  0  0  0
   11.8213    9.8092   19.4078 H   0  0  0  0  0  0  0  0  0  0  0  0
   12.9941    8.5737   19.3313 H   0  0  0  0  0  0  0  0  0  0  0  0
    9.7591    7.8949   23.5434 C   0  0  0  0  0  0  0  0  0  0  0  0
   10.4618    8.8729   23.3685 O   0  0  0  0  0  0  0  0  0  0  0  0
    9.8186    7.1688   24.7453 N   0  0  0  0  0  0  0  0  0  0  0  0
    9.2440    6.3795   24.8726 H   0  0  0  0  0  0  0  0  0  0  0  0
   10.4350    7.4494   25.4599 H   0  0  0  0  0  0  0  0  0  0  0  0
 13 12  2  0  0  0
 13 14  1  0  0  0
 12 10  1  0  0  0
 14 15  2  0  0  0
 10 11  2  0  0  0
 10  9  1  0  0  0
 11  6  1  0  0  0
 15  9  1  0  0  0
 15  1  1  0  0  0
  9  8  2  0  0  0
  5  1  1  0  0  0
  5  4  2  0  0  0
  1  2  1  0  0  0
  6  7  2  0  0  0
 25 23  1  0  0  0
  8  7  1  0  0  0
  4 23  1  0  0  0
  4  3  1  0  0  0
  2  3  2  0  0  0
 23 24  2  0  0  0
  3 16  1  0  0  0
 16 17  1  0  0  0
 18 17  2  0  0  0
 17 19  1  0  0  0
 25 26  1  0  0  0
 25 27  1  0  0  0
 16 20  1  0  0  0
 19 21  1  0  0  0
 19 22  1  0  0  0
M  END
> <minimizedAffinity>
-8.25218

$$$$
4M0Y_M0Y_A_701


 27 29  0  0  0  0  0  0  0  0999 V2000
    8.1554    4.4271   24.1335 N   0  0  0  0  0  0  0  0  0  0  0  0
    8.8254    4.8688   25.2839 C   0  0  0  0  0  0  0  0  0  0  0  0
   10.1787    4.7646   24.9876 C   0  0  0  0  0  0  0  0  0  0  0  0
   10.2361    4.2496   23.6323 C   0  0  0  0  0  0  0  0  0  0  0  0
    8.9912    4.0539   23.1516 N   0  0  0  0  0  0  0  0  0  0  0  0
    4.5763    6.1730   20.7176 C   0  0  0  0  0  0  0  0  0  0  0  0
    5.9783    6.4074   20.8333 C   0  0  0  0  0  0  0  0  0  0  0  0
    6.6964    5.8520   21.8644 C   0  0  0  0  0  0  0  0  0  0  0  0
    6.0472    5.0207   22.8509 C   0  0  0  0  0  0  0  0  0  0  0  0
    4.6223    4.8064   22.7364 C   0  0  0  0  0  0  0  0  0  0  0  0
    3.9082    5.3928   21.6427 C   0  0  0  0  0  0  0  0  0  0  0  0
    3.9177    4.0297   23.7210 C   0  0  0  0  0  0  0  0  0  0  0  0
    4.5951    3.4765   24.7880 C   0  0  0  0  0  0  0  0  0  0  0  0
    6.0007    3.6453   24.9297 C   0  0  0  0  0  0  0  0  0  0  0  0
    6.7184    4.3857   23.9771 C   0  0  0  0  0  0  0  0  0  0  0  0
   11.2876    5.0978   25.7602 N   0  0  0  0  0  0  0  0  0  0  0  0
   12.1353    4.1636   26.4579 C   0  0  0  0  0  0  0  0  0  0  0  0
   12.0119    2.9198   26.4292 O   0  0  0  0  0  0  0  0  0  0  0  0
   13.1718    4.7337   27.1872 N   0  0  0  0  0  0  0  0  0  0  0  0
   11.5121    6.0533   25.8368 H   0  0  0  0  0  0  0  0  0  0  0  0
   13.2746    5.7124   27.2139 H   0  0  0  0  0  0  0  0  0  0  0  0
   13.8032    4.1588   27.6772 H   0  0  0  0  0  0  0  0  0  0  0  0
   11.4400    3.8991   22.8617 C   0  0  0  0  0  0  0  0  0  0  0  0
   11.7126    2.7240   22.7015 O   0  0  0  0  0  0  0  0  0  0  0  0
   12.2245    4.9083   22.2773 N   0  0  0  0  0  0  0  0  0  0  0  0
   11.9918    5.8548   22.4156 H   0  0  0  0  0  0  0  0  0  0  0  0
   13.0067    4.6687   21.7296 H   0  0  0  0  0  0  0  0  0  0  0  0
 13 12  2  0  0  0
 13 14  1  0  0  0
 12 10  1  0  0  0
 14 15  2  0  0  0
 10 11  2  0  0  0
 10  9  1  0  0  0
 11  6  1  0  0  0
 15  9  1  0  0  0
 15  1  1  0  0  0
  9  8  2  0  0  0
  5  1  1  0  0  0
  5  4  2  0  0  0
  1  2  1  0  0  0
  6  7  2  0  0  0
 25 23  1  0  0  0
  8  7  1  0  0  0
  4 23  1  0  0  0
  4  3  1  0  0  0
  2  3  2  0  0  0
 23 24  2  0  0  0
  3 16  1  0  0  0
 16 17  1  0  0  0
 18 17  2  0  0  0
 17 19  1  0  0  0
 25 26  1  0  0  0
 25 27  1  0  0  0
 16 20  1  0  0  0
 19 21  1  0  0  0
 19 22  1  0  0  0
M  END
> <minimizedAffinity>
-8.05806

$$$$
