1V2S_BEN_T_1


 12 12  0  0  0  0  0  0  0  0999 V2000
   53.2689   67.1728  -28.8376 C   0  0  0  0  0  0  0  0  0  0  0  0
   52.4905   66.7841  -30.0201 C   0  0  0  0  0  0  0  0  0  0  0  0
   52.2623   67.7289  -31.1034 C   0  0  0  0  0  0  0  0  0  0  0  0
   52.8100   69.0769  -31.0209 C   0  0  0  0  0  0  0  0  0  0  0  0
   53.5808   69.4764  -29.8603 C   0  0  0  0  0  0  0  0  0  0  0  0
   53.8123   68.5304  -28.7722 C   0  0  0  0  0  0  0  0  0  0  0  0
   53.5100   66.1726  -27.6913 C   0  0  0  0  0  0  0  0  0  0  0  0
   54.0145   66.5949  -26.5483 N   0  0  0  0  0  0  0  0  0  0  0  0
   53.2135   64.8988  -27.8630 N   0  0  0  0  0  0  0  0  0  0  0  0
   54.2330   67.5474  -26.4287 H   0  0  0  0  0  0  0  0  0  0  0  0
   52.8372   64.5921  -28.7195 H   0  0  0  0  0  0  0  0  0  0  0  0
   53.3685   64.2548  -27.1346 H   0  0  0  0  0  0  0  0  0  0  0  0
  1  2  2  0  0  0
  1  6  1  0  0  0
  1  7  1  0  0  0
  2  3  1  0  0  0
  3  4  2  0  0  0
  4  5  1  0  0  0
  5  6  2  0  0  0
  7  8  2  0  0  0
  7  9  1  0  0  0
  8 10  1  0  0  0
  9 11  1  0  0  0
  9 12  1  0  0  0
M  END
> <minimizedAffinity>
-5.85748

$$$$
1V2S_BEN_T_1


 12 12  0  0  0  0  0  0  0  0999 V2000
   53.2693   67.1952  -28.8383 C   0  0  0  0  0  0  0  0  0  0  0  0
   53.8171   68.5557  -28.7751 C   0  0  0  0  0  0  0  0  0  0  0  0
   53.5818   69.5028  -29.8549 C   0  0  0  0  0  0  0  0  0  0  0  0
   52.7941   69.1036  -31.0143 C   0  0  0  0  0  0  0  0  0  0  0  0
   52.2461   67.7641  -31.0920 C   0  0  0  0  0  0  0  0  0  0  0  0
   52.4796   66.8119  -30.0097 C   0  0  0  0  0  0  0  0  0  0  0  0
   53.5188   66.1931  -27.6954 C   0  0  0  0  0  0  0  0  0  0  0  0
   54.0415   66.6118  -26.5592 N   0  0  0  0  0  0  0  0  0  0  0  0
   53.2111   64.9215  -27.8632 N   0  0  0  0  0  0  0  0  0  0  0  0
   54.2682   67.5627  -26.4425 H   0  0  0  0  0  0  0  0  0  0  0  0
   52.8212   64.6175  -28.7145 H   0  0  0  0  0  0  0  0  0  0  0  0
   53.3713   64.2763  -27.1370 H   0  0  0  0  0  0  0  0  0  0  0  0
  1  2  2  0  0  0
  1  6  1  0  0  0
  1  7  1  0  0  0
  2  3  1  0  0  0
  3  4  2  0  0  0
  4  5  1  0  0  0
  5  6  2  0  0  0
  7  8  2  0  0  0
  7  9  1  0  0  0
  8 10  1  0  0  0
  9 11  1  0  0  0
  9 12  1  0  0  0
M  END
> <minimizedAffinity>
-5.85735

$$$$
1V2S_BEN_T_1


 12 12  0  0  0  0  0  0  0  0999 V2000
   52.9086   67.1025  -29.3080 C   0  0  0  0  0  0  0  0  0  0  0  0
   53.6464   68.0685  -28.4847 C   0  0  0  0  0  0  0  0  0  0  0  0
   53.9190   69.4104  -28.9779 C   0  0  0  0  0  0  0  0  0  0  0  0
   53.4570   69.8070  -30.3020 C   0  0  0  0  0  0  0  0  0  0  0  0
   52.7272   68.8652  -31.1273 C   0  0  0  0  0  0  0  0  0  0  0  0
   52.4512   67.5184  -30.6348 C   0  0  0  0  0  0  0  0  0  0  0  0
   52.6204   65.6824  -28.7857 C   0  0  0  0  0  0  0  0  0  0  0  0
   53.3999   65.1527  -27.8631 N   0  0  0  0  0  0  0  0  0  0  0  0
   51.5974   65.0042  -29.2687 N   0  0  0  0  0  0  0  0  0  0  0  0
   54.1613   65.6660  -27.5080 H   0  0  0  0  0  0  0  0  0  0  0  0
   51.0207   65.4072  -29.9573 H   0  0  0  0  0  0  0  0  0  0  0  0
   51.4106   64.0949  -28.9406 H   0  0  0  0  0  0  0  0  0  0  0  0
  1  2  2  0  0  0
  1  6  1  0  0  0
  1  7  1  0  0  0
  2  3  1  0  0  0
  3  4  2  0  0  0
  4  5  1  0  0  0
  5  6  2  0  0  0
  7  8  2  0  0  0
  7  9  1  0  0  0
  8 10  1  0  0  0
  9 11  1  0  0  0
  9 12  1  0  0  0
M  END
> <minimizedAffinity>
-5.56992

$$$$
1V2S_BEN_T_1


 12 12  0  0  0  0  0  0  0  0999 V2000
   52.9117   67.1073  -29.3027 C   0  0  0  0  0  0  0  0  0  0  0  0
   52.4431   67.5276  -30.6290 C   0  0  0  0  0  0  0  0  0  0  0  0
   52.7156   68.8692  -31.1230 C   0  0  0  0  0  0  0  0  0  0  0  0
   53.4619   69.8108  -30.2981 C   0  0  0  0  0  0  0  0  0  0  0  0
   53.9318   69.4114  -28.9865 C   0  0  0  0  0  0  0  0  0  0  0  0
   53.6608   68.0657  -28.4885 C   0  0  0  0  0  0  0  0  0  0  0  0
   52.6230   65.6874  -28.7802 C   0  0  0  0  0  0  0  0  0  0  0  0
   51.5954   65.0106  -29.2552 N   0  0  0  0  0  0  0  0  0  0  0  0
   53.4040   65.1597  -27.8575 N   0  0  0  0  0  0  0  0  0  0  0  0
   51.0176   65.4120  -29.9438 H   0  0  0  0  0  0  0  0  0  0  0  0
   54.1689   65.6719  -27.5085 H   0  0  0  0  0  0  0  0  0  0  0  0
   53.2221   64.2537  -27.5179 H   0  0  0  0  0  0  0  0  0  0  0  0
  1  2  2  0  0  0
  1  6  1  0  0  0
  1  7  1  0  0  0
  2  3  1  0  0  0
  3  4  2  0  0  0
  4  5  1  0  0  0
  5  6  2  0  0  0
  7  8  2  0  0  0
  7  9  1  0  0  0
  8 10  1  0  0  0
  9 11  1  0  0  0
  9 12  1  0  0  0
M  END
> <minimizedAffinity>
-5.56968

$$$$
1V2S_BEN_T_1


 12 12  0  0  0  0  0  0  0  0999 V2000
   52.2960   68.9984  -30.3525 C   0  0  0  0  0  0  0  0  0  0  0  0
   52.0388   67.6464  -30.8638 C   0  0  0  0  0  0  0  0  0  0  0  0
   52.5099   66.4754  -30.1390 C   0  0  0  0  0  0  0  0  0  0  0  0
   53.2448   66.6389  -28.8912 C   0  0  0  0  0  0  0  0  0  0  0  0
   53.5068   67.9667  -28.3728 C   0  0  0  0  0  0  0  0  0  0  0  0
   53.0346   69.1435  -29.0971 C   0  0  0  0  0  0  0  0  0  0  0  0
   51.7974   70.2373  -31.1199 C   0  0  0  0  0  0  0  0  0  0  0  0
   50.6484   70.1898  -31.7656 N   0  0  0  0  0  0  0  0  0  0  0  0
   52.5262   71.3367  -31.1290 N   0  0  0  0  0  0  0  0  0  0  0  0
   50.1108   69.3652  -31.7536 H   0  0  0  0  0  0  0  0  0  0  0  0
   53.3828   71.3635  -30.6443 H   0  0  0  0  0  0  0  0  0  0  0  0
   52.2137   72.1304  -31.6205 H   0  0  0  0  0  0  0  0  0  0  0  0
  1  2  2  0  0  0
  1  6  1  0  0  0
  1  7  1  0  0  0
  2  3  1  0  0  0
  3  4  2  0  0  0
  4  5  1  0  0  0
  5  6  2  0  0  0
  7  8  2  0  0  0
  7  9  1  0  0  0
  8 10  1  0  0  0
  9 11  1  0  0  0
  9 12  1  0  0  0
M  END
> <minimizedAffinity>
-4.85940

$$$$
1V2S_BEN_T_1


 12 12  0  0  0  0  0  0  0  0999 V2000
   52.2975   68.9682  -30.3511 C   0  0  0  0  0  0  0  0  0  0  0  0
   53.0537   69.1081  -29.1005 C   0  0  0  0  0  0  0  0  0  0  0  0
   53.5039   67.9334  -28.3686 C   0  0  0  0  0  0  0  0  0  0  0  0
   53.2051   66.6006  -28.8768 C   0  0  0  0  0  0  0  0  0  0  0  0
   52.4597   66.4452  -30.1101 C   0  0  0  0  0  0  0  0  0  0  0  0
   52.0076   67.6219  -30.8472 C   0  0  0  0  0  0  0  0  0  0  0  0
   51.8212   70.2116  -31.1253 C   0  0  0  0  0  0  0  0  0  0  0  0
   50.6727   70.1803  -31.7729 N   0  0  0  0  0  0  0  0  0  0  0  0
   52.5684   71.2986  -31.1383 N   0  0  0  0  0  0  0  0  0  0  0  0
   50.1212   69.3649  -31.7579 H   0  0  0  0  0  0  0  0  0  0  0  0
   53.4244   71.3133  -30.6521 H   0  0  0  0  0  0  0  0  0  0  0  0
   52.2701   72.0951  -31.6341 H   0  0  0  0  0  0  0  0  0  0  0  0
  1  2  2  0  0  0
  1  6  1  0  0  0
  1  7  1  0  0  0
  2  3  1  0  0  0
  3  4  2  0  0  0
  4  5  1  0  0  0
  5  6  2  0  0  0
  7  8  2  0  0  0
  7  9  1  0  0  0
  8 10  1  0  0  0
  9 11  1  0  0  0
  9 12  1  0  0  0
M  END
> <minimizedAffinity>
-4.84920

$$$$
1V2S_BEN_T_1


 12 12  0  0  0  0  0  0  0  0999 V2000
   53.1709   69.0827  -29.0911 C   0  0  0  0  0  0  0  0  0  0  0  0
   52.4317   68.8972  -30.3459 C   0  0  0  0  0  0  0  0  0  0  0  0
   52.0791   67.5638  -30.8108 C   0  0  0  0  0  0  0  0  0  0  0  0
   52.4597   66.3955  -30.0271 C   0  0  0  0  0  0  0  0  0  0  0  0
   53.1895   66.5615  -28.7860 C   0  0  0  0  0  0  0  0  0  0  0  0
   53.5439   67.8980  -28.3164 C   0  0  0  0  0  0  0  0  0  0  0  0
   53.5441   70.4939  -28.5996 C   0  0  0  0  0  0  0  0  0  0  0  0
   54.0417   70.6560  -27.3890 N   0  0  0  0  0  0  0  0  0  0  0  0
   53.3591   71.5317  -29.3925 N   0  0  0  0  0  0  0  0  0  0  0  0
   54.1765   69.8759  -26.8037 H   0  0  0  0  0  0  0  0  0  0  0  0
   52.9871   71.4017  -30.2947 H   0  0  0  0  0  0  0  0  0  0  0  0
   53.5931   72.4362  -29.0822 H   0  0  0  0  0  0  0  0  0  0  0  0
  1  2  2  0  0  0
  1  6  1  0  0  0
  1  7  1  0  0  0
  2  3  1  0  0  0
  3  4  2  0  0  0
  4  5  1  0  0  0
  5  6  2  0  0  0
  7  8  2  0  0  0
  7  9  1  0  0  0
  8 10  1  0  0  0
  9 11  1  0  0  0
  9 12  1  0  0  0
M  END
> <minimizedAffinity>
-4.66293

$$$$
1V2S_BEN_T_1


 12 12  0  0  0  0  0  0  0  0999 V2000
   52.7216   69.3356  -30.2236 C   0  0  0  0  0  0  0  0  0  0  0  0
   52.5794   70.3624  -31.2632 C   0  0  0  0  0  0  0  0  0  0  0  0
   52.8437   71.7625  -30.9662 C   0  0  0  0  0  0  0  0  0  0  0  0
   53.2553   72.1569  -29.6250 C   0  0  0  0  0  0  0  0  0  0  0  0
   53.4006   71.1554  -28.5874 C   0  0  0  0  0  0  0  0  0  0  0  0
   53.1370   69.7497  -28.8825 C   0  0  0  0  0  0  0  0  0  0  0  0
   52.4416   67.8540  -30.5382 C   0  0  0  0  0  0  0  0  0  0  0  0
   51.5485   67.5361  -31.4551 N   0  0  0  0  0  0  0  0  0  0  0  0
   53.0950   66.9129  -29.8845 N   0  0  0  0  0  0  0  0  0  0  0  0
   51.0654   68.2449  -31.9383 H   0  0  0  0  0  0  0  0  0  0  0  0
   53.7600   67.1590  -29.2016 H   0  0  0  0  0  0  0  0  0  0  0  0
   52.9176   65.9643  -30.0795 H   0  0  0  0  0  0  0  0  0  0  0  0
  1  2  2  0  0  0
  1  6  1  0  0  0
  1  7  1  0  0  0
  2  3  1  0  0  0
  3  4  2  0  0  0
  4  5  1  0  0  0
  5  6  2  0  0  0
  7  8  2  0  0  0
  7  9  1  0  0  0
  8 10  1  0  0  0
  9 11  1  0  0  0
  9 12  1  0  0  0
M  END
> <minimizedAffinity>
-4.02018

$$$$
1V2S_BEN_T_1


 12 12  0  0  0  0  0  0  0  0999 V2000
   51.9989   70.0773  -29.6792 C   0  0  0  0  0  0  0  0  0  0  0  0
   51.4656   71.1357  -28.8128 C   0  0  0  0  0  0  0  0  0  0  0  0
   50.5603   72.1446  -29.3429 C   0  0  0  0  0  0  0  0  0  0  0  0
   50.1740   72.1097  -30.7477 C   0  0  0  0  0  0  0  0  0  0  0  0
   50.6916   71.0714  -31.6163 C   0  0  0  0  0  0  0  0  0  0  0  0
   51.5992   70.0571  -31.0872 C   0  0  0  0  0  0  0  0  0  0  0  0
   52.9571   69.0099  -29.1179 C   0  0  0  0  0  0  0  0  0  0  0  0
   53.4477   69.1445  -27.9011 N   0  0  0  0  0  0  0  0  0  0  0  0
   53.2834   67.9700  -29.8608 N   0  0  0  0  0  0  0  0  0  0  0  0
   53.1989   69.9238  -27.3534 H   0  0  0  0  0  0  0  0  0  0  0  0
   52.9126   67.8773  -30.7680 H   0  0  0  0  0  0  0  0  0  0  0  0
   53.8979   67.2864  -29.5080 H   0  0  0  0  0  0  0  0  0  0  0  0
  1  2  2  0  0  0
  1  6  1  0  0  0
  1  7  1  0  0  0
  2  3  1  0  0  0
  3  4  2  0  0  0
  4  5  1  0  0  0
  5  6  2  0  0  0
  7  8  2  0  0  0
  7  9  1  0  0  0
  8 10  1  0  0  0
  9 11  1  0  0  0
  9 12  1  0  0  0
M  END
> <minimizedAffinity>
-3.87390

$$$$
1V2S_BEN_T_1


 12 12  0  0  0  0  0  0  0  0999 V2000
   53.5451   70.2696  -28.7763 C   0  0  0  0  0  0  0  0  0  0  0  0
   52.5959   70.7888  -29.7686 C   0  0  0  0  0  0  0  0  0  0  0  0
   51.8895   69.8858  -30.6652 C   0  0  0  0  0  0  0  0  0  0  0  0
   52.1212   68.4494  -30.5824 C   0  0  0  0  0  0  0  0  0  0  0  0
   53.0550   67.9207  -29.6082 C   0  0  0  0  0  0  0  0  0  0  0  0
   53.7645   68.8240  -28.7065 C   0  0  0  0  0  0  0  0  0  0  0  0
   54.2926   71.2256  -27.8277 C   0  0  0  0  0  0  0  0  0  0  0  0
   53.6151   71.9431  -26.9527 N   0  0  0  0  0  0  0  0  0  0  0  0
   55.6061   71.3228  -27.9003 N   0  0  0  0  0  0  0  0  0  0  0  0
   52.6349   71.8644  -26.9053 H   0  0  0  0  0  0  0  0  0  0  0  0
   56.1040   70.7835  -28.5564 H   0  0  0  0  0  0  0  0  0  0  0  0
   56.0884   71.9346  -27.2985 H   0  0  0  0  0  0  0  0  0  0  0  0
  1  2  2  0  0  0
  1  6  1  0  0  0
  1  7  1  0  0  0
  2  3  1  0  0  0
  3  4  2  0  0  0
  4  5  1  0  0  0
  5  6  2  0  0  0
  7  8  2  0  0  0
  7  9  1  0  0  0
  8 10  1  0  0  0
  9 11  1  0  0  0
  9 12  1  0  0  0
M  END
> <minimizedAffinity>
-3.83453

$$$$
