5EVK_3C7_A_401


 15 16  0  0  0  0  0  0  0  0999 V2000
   83.9489   92.7425   15.0238 C   0  0  0  0  0  0  0  0  0  0  0  0
   84.6843   93.9847   15.4268 C   0  0  0  0  0  0  0  0  0  0  0  0
   83.7860   94.9434   16.1238 N   0  0  0  0  0  0  0  0  0  0  0  0
   83.8018   94.9086   17.6079 C   0  0  0  0  0  0  0  0  0  0  0  0
   82.2835   93.1002   15.4741 S   0  0  0  0  0  0  0  0  0  0  0  0
   82.4162   94.8445   15.6070 C   0  0  0  0  0  0  0  0  0  0  0  0
   81.5469   95.6374   16.5904 C   0  0  0  0  0  0  0  0  0  0  0  0
   82.1356   95.0188   18.1215 S   0  0  0  0  0  0  0  0  0  0  0  0
   86.2007   95.4470   14.2764 O   0  0  0  0  0  0  0  0  0  0  0  0
   85.2933   94.6119   14.1694 C   0  0  0  0  0  0  0  0  0  0  0  0
   84.7763   94.3056   13.1202 O   0  0  0  0  0  0  0  0  0  0  0  0
   86.5613   95.6416   15.1191 H   0  0  0  0  0  0  0  0  0  0  0  0
   84.4951   96.1324   18.1575 C   0  0  0  0  0  0  0  0  0  0  0  0
   83.4474   96.8284   19.4164 S   0  0  0  0  0  0  0  0  0  0  0  0
   83.2392   95.9060   20.3939 H   0  0  0  0  0  0  0  0  0  0  0  0
 11 10  2  0  0  0
 10  2  1  0  0  0
 10  9  1  0  0  0
 14 13  1  0  0  0
  2  1  1  0  0  0
  2  3  1  0  0  0
  1  5  1  0  0  0
  3  4  1  0  0  0
  3  6  1  0  0  0
 13  4  1  0  0  0
  4  8  1  0  0  0
  5  6  1  0  0  0
  6  7  1  0  0  0
  8  7  1  0  0  0
  9 12  1  0  0  0
 14 15  1  0  0  0
M  END
> <minimizedAffinity>
-4.99076

$$$$
5EVK_3C7_A_401


 15 16  0  0  0  0  0  0  0  0999 V2000
   83.7276   95.5906   15.8829 C   0  0  0  0  0  0  0  0  0  0  0  0
   83.5200   95.0717   14.4922 C   0  0  0  0  0  0  0  0  0  0  0  0
   82.6226   93.8858   14.4853 N   0  0  0  0  0  0  0  0  0  0  0  0
   81.1887   94.1404   14.1970 C   0  0  0  0  0  0  0  0  0  0  0  0
   82.8788   94.4118   16.8800 S   0  0  0  0  0  0  0  0  0  0  0  0
   82.7837   93.1028   15.7159 C   0  0  0  0  0  0  0  0  0  0  0  0
   81.6159   92.1090   15.7274 C   0  0  0  0  0  0  0  0  0  0  0  0
   80.2782   93.1698   15.3288 S   0  0  0  0  0  0  0  0  0  0  0  0
   85.9099   95.2537   14.3642 O   0  0  0  0  0  0  0  0  0  0  0  0
   84.8894   94.7322   13.8965 C   0  0  0  0  0  0  0  0  0  0  0  0
   84.8810   94.0180   12.9209 O   0  0  0  0  0  0  0  0  0  0  0  0
   85.8515   95.7986   15.1242 H   0  0  0  0  0  0  0  0  0  0  0  0
   80.8286   93.6337   12.8208 C   0  0  0  0  0  0  0  0  0  0  0  0
   79.5739   94.7085   12.1595 S   0  0  0  0  0  0  0  0  0  0  0  0
   80.0515   95.9805   12.1008 H   0  0  0  0  0  0  0  0  0  0  0  0
 11 10  2  0  0  0
 10  2  1  0  0  0
 10  9  1  0  0  0
 14 13  1  0  0  0
  2  1  1  0  0  0
  2  3  1  0  0  0
  1  5  1  0  0  0
  3  4  1  0  0  0
  3  6  1  0  0  0
 13  4  1  0  0  0
  4  8  1  0  0  0
  5  6  1  0  0  0
  6  7  1  0  0  0
  8  7  1  0  0  0
  9 12  1  0  0  0
 14 15  1  0  0  0
M  END
> <minimizedAffinity>
-4.92347

$$$$
5EVK_3C7_A_401


 15 16  0  0  0  0  0  0  0  0999 V2000
   85.2047   93.1527   14.9545 C   0  0  0  0  0  0  0  0  0  0  0  0
   84.6987   94.1730   15.9288 C   0  0  0  0  0  0  0  0  0  0  0  0
   83.2489   94.4385   15.7305 N   0  0  0  0  0  0  0  0  0  0  0  0
   82.3116   93.6920   16.6069 C   0  0  0  0  0  0  0  0  0  0  0  0
   83.8064   92.8559   13.9245 S   0  0  0  0  0  0  0  0  0  0  0  0
   82.8808   94.2935   14.3174 C   0  0  0  0  0  0  0  0  0  0  0  0
   81.3475   94.2866   14.2900 C   0  0  0  0  0  0  0  0  0  0  0  0
   81.0012   93.1553   15.5837 S   0  0  0  0  0  0  0  0  0  0  0  0
   86.1290   95.6556   14.6970 O   0  0  0  0  0  0  0  0  0  0  0  0
   85.5235   95.4519   15.7572 C   0  0  0  0  0  0  0  0  0  0  0  0
   85.6031   96.1661   16.7296 O   0  0  0  0  0  0  0  0  0  0  0  0
   86.0258   95.0643   13.9775 H   0  0  0  0  0  0  0  0  0  0  0  0
   81.6967   94.6158   17.6310 C   0  0  0  0  0  0  0  0  0  0  0  0
   82.7675   94.6377   19.0522 S   0  0  0  0  0  0  0  0  0  0  0  0
   84.0022   95.0722   18.6830 H   0  0  0  0  0  0  0  0  0  0  0  0
 11 10  2  0  0  0
 10  2  1  0  0  0
 10  9  1  0  0  0
 14 13  1  0  0  0
  2  1  1  0  0  0
  2  3  1  0  0  0
  1  5  1  0  0  0
  3  4  1  0  0  0
  3  6  1  0  0  0
 13  4  1  0  0  0
  4  8  1  0  0  0
  5  6  1  0  0  0
  6  7  1  0  0  0
  8  7  1  0  0  0
  9 12  1  0  0  0
 14 15  1  0  0  0
M  END
> <minimizedAffinity>
-4.80105

$$$$
5EVK_3C7_A_401


 15 16  0  0  0  0  0  0  0  0999 V2000
   82.1069   96.0002   16.8554 C   0  0  0  0  0  0  0  0  0  0  0  0
   83.5829   95.8073   16.6812 C   0  0  0  0  0  0  0  0  0  0  0  0
   83.8804   94.5614   15.9254 N   0  0  0  0  0  0  0  0  0  0  0  0
   84.1114   94.7095   14.4664 C   0  0  0  0  0  0  0  0  0  0  0  0
   81.4273   94.5276   16.1670 S   0  0  0  0  0  0  0  0  0  0  0  0
   82.8713   93.5318   16.1994 C   0  0  0  0  0  0  0  0  0  0  0  0
   83.1073   92.4355   15.1534 C   0  0  0  0  0  0  0  0  0  0  0  0
   83.2518   93.3984   13.6955 S   0  0  0  0  0  0  0  0  0  0  0  0
   83.5732   95.4056   19.0476 O   0  0  0  0  0  0  0  0  0  0  0  0
   84.2311   95.7804   18.0684 C   0  0  0  0  0  0  0  0  0  0  0  0
   85.3551   96.2209   18.1372 O   0  0  0  0  0  0  0  0  0  0  0  0
   82.7053   95.0730   18.9293 H   0  0  0  0  0  0  0  0  0  0  0  0
   85.5717   94.5072   14.1396 C   0  0  0  0  0  0  0  0  0  0  0  0
   85.6637   93.6142   12.6030 S   0  0  0  0  0  0  0  0  0  0  0  0
   85.0400   94.3266   11.6267 H   0  0  0  0  0  0  0  0  0  0  0  0
 11 10  2  0  0  0
 10  2  1  0  0  0
 10  9  1  0  0  0
 14 13  1  0  0  0
  2  1  1  0  0  0
  2  3  1  0  0  0
  1  5  1  0  0  0
  3  4  1  0  0  0
  3  6  1  0  0  0
 13  4  1  0  0  0
  4  8  1  0  0  0
  5  6  1  0  0  0
  6  7  1  0  0  0
  8  7  1  0  0  0
  9 12  1  0  0  0
 14 15  1  0  0  0
M  END
> <minimizedAffinity>
-4.74222

$$$$
5EVK_3C7_A_401


 15 16  0  0  0  0  0  0  0  0999 V2000
   83.2020   93.9430   16.3656 C   0  0  0  0  0  0  0  0  0  0  0  0
   84.2211   94.9876   16.7068 C   0  0  0  0  0  0  0  0  0  0  0  0
   83.5911   96.1648   17.3620 N   0  0  0  0  0  0  0  0  0  0  0  0
   83.6212   96.1931   18.8460 C   0  0  0  0  0  0  0  0  0  0  0  0
   81.6790   94.7117   16.8059 S   0  0  0  0  0  0  0  0  0  0  0  0
   82.2299   96.3765   16.8564 C   0  0  0  0  0  0  0  0  0  0  0  0
   81.5926   97.3987   17.8055 C   0  0  0  0  0  0  0  0  0  0  0  0
   82.0388   96.7249   19.3612 S   0  0  0  0  0  0  0  0  0  0  0  0
   84.3702   95.2737   14.3283 O   0  0  0  0  0  0  0  0  0  0  0  0
   84.9437   95.3929   15.4188 C   0  0  0  0  0  0  0  0  0  0  0  0
   86.0964   95.7360   15.5428 O   0  0  0  0  0  0  0  0  0  0  0  0
   83.4736   95.0035   14.2975 H   0  0  0  0  0  0  0  0  0  0  0  0
   84.5972   97.2366   19.3347 C   0  0  0  0  0  0  0  0  0  0  0  0
   83.9364   97.9371   20.8313 S   0  0  0  0  0  0  0  0  0  0  0  0
   83.7697   96.9545   21.7566 H   0  0  0  0  0  0  0  0  0  0  0  0
 11 10  2  0  0  0
 10  2  1  0  0  0
 10  9  1  0  0  0
 14 13  1  0  0  0
  2  1  1  0  0  0
  2  3  1  0  0  0
  1  5  1  0  0  0
  3  4  1  0  0  0
  3  6  1  0  0  0
 13  4  1  0  0  0
  4  8  1  0  0  0
  5  6  1  0  0  0
  6  7  1  0  0  0
  8  7  1  0  0  0
  9 12  1  0  0  0
 14 15  1  0  0  0
M  END
> <minimizedAffinity>
-4.67063

$$$$
5EVK_3C7_A_401


 15 16  0  0  0  0  0  0  0  0999 V2000
   84.4968   93.1232   15.0914 C   0  0  0  0  0  0  0  0  0  0  0  0
   84.7580   94.2256   16.0727 C   0  0  0  0  0  0  0  0  0  0  0  0
   83.4896   94.8446   16.5416 N   0  0  0  0  0  0  0  0  0  0  0  0
   82.9424   94.3434   17.8275 C   0  0  0  0  0  0  0  0  0  0  0  0
   82.7509   93.1944   14.8658 S   0  0  0  0  0  0  0  0  0  0  0  0
   82.4717   94.8119   15.4851 C   0  0  0  0  0  0  0  0  0  0  0  0
   81.1528   95.1857   16.1725 C   0  0  0  0  0  0  0  0  0  0  0  0
   81.2209   94.1605   17.5930 S   0  0  0  0  0  0  0  0  0  0  0  0
   85.8641   95.2053   14.1812 O   0  0  0  0  0  0  0  0  0  0  0  0
   85.6637   95.2620   15.4013 C   0  0  0  0  0  0  0  0  0  0  0  0
   86.2117   96.0459   16.1410 O   0  0  0  0  0  0  0  0  0  0  0  0
   85.4076   94.5743   13.6602 H   0  0  0  0  0  0  0  0  0  0  0  0
   83.1131   95.3788   18.9134 C   0  0  0  0  0  0  0  0  0  0  0  0
   82.2161   94.8160   20.3437 S   0  0  0  0  0  0  0  0  0  0  0  0
   82.7044   93.6099   20.7393 H   0  0  0  0  0  0  0  0  0  0  0  0
 11 10  2  0  0  0
 10  2  1  0  0  0
 10  9  1  0  0  0
 14 13  1  0  0  0
  2  1  1  0  0  0
  2  3  1  0  0  0
  1  5  1  0  0  0
  3  4  1  0  0  0
  3  6  1  0  0  0
 13  4  1  0  0  0
  4  8  1  0  0  0
  5  6  1  0  0  0
  6  7  1  0  0  0
  8  7  1  0  0  0
  9 12  1  0  0  0
 14 15  1  0  0  0
M  END
> <minimizedAffinity>
-4.64850

$$$$
5EVK_3C7_A_401


 15 16  0  0  0  0  0  0  0  0999 V2000
   82.6392   93.7407   15.9772 C   0  0  0  0  0  0  0  0  0  0  0  0
   82.4587   94.5867   14.7533 C   0  0  0  0  0  0  0  0  0  0  0  0
   81.8331   93.8130   13.6479 N   0  0  0  0  0  0  0  0  0  0  0  0
   80.3625   93.9463   13.4942 C   0  0  0  0  0  0  0  0  0  0  0  0
   82.1227   92.1444   15.4393 S   0  0  0  0  0  0  0  0  0  0  0  0
   82.2329   92.4023   13.7075 C   0  0  0  0  0  0  0  0  0  0  0  0
   81.3041   91.6696   12.7317 C   0  0  0  0  0  0  0  0  0  0  0  0
   79.7504   92.3380   13.1929 S   0  0  0  0  0  0  0  0  0  0  0  0
   84.2286   94.9745   13.1791 O   0  0  0  0  0  0  0  0  0  0  0  0
   83.8286   95.1323   14.3398 C   0  0  0  0  0  0  0  0  0  0  0  0
   84.4917   95.6251   15.2226 O   0  0  0  0  0  0  0  0  0  0  0  0
   83.6662   94.5856   12.5385 H   0  0  0  0  0  0  0  0  0  0  0  0
   80.0315   94.7610   12.2666 C   0  0  0  0  0  0  0  0  0  0  0  0
   78.3934   95.4224   12.4814 S   0  0  0  0  0  0  0  0  0  0  0  0
   78.3589   96.1930   13.6015 H   0  0  0  0  0  0  0  0  0  0  0  0
 11 10  2  0  0  0
 10  2  1  0  0  0
 10  9  1  0  0  0
 14 13  1  0  0  0
  2  1  1  0  0  0
  2  3  1  0  0  0
  1  5  1  0  0  0
  3  4  1  0  0  0
  3  6  1  0  0  0
 13  4  1  0  0  0
  4  8  1  0  0  0
  5  6  1  0  0  0
  6  7  1  0  0  0
  8  7  1  0  0  0
  9 12  1  0  0  0
 14 15  1  0  0  0
M  END
> <minimizedAffinity>
-4.13113

$$$$
5EVK_3C7_A_401


 15 16  0  0  0  0  0  0  0  0999 V2000
   85.6322   93.6346   15.0301 C   0  0  0  0  0  0  0  0  0  0  0  0
   84.5427   93.6579   16.0591 C   0  0  0  0  0  0  0  0  0  0  0  0
   83.1989   93.7058   15.4237 N   0  0  0  0  0  0  0  0  0  0  0  0
   82.4960   92.4085   15.2593 C   0  0  0  0  0  0  0  0  0  0  0  0
   84.7537   93.8175   13.5139 S   0  0  0  0  0  0  0  0  0  0  0  0
   83.2471   94.4454   14.1572 C   0  0  0  0  0  0  0  0  0  0  0  0
   81.9071   94.1658   13.4659 C   0  0  0  0  0  0  0  0  0  0  0  0
   81.7944   92.4271   13.6594 S   0  0  0  0  0  0  0  0  0  0  0  0
   85.4730   95.8082   16.5804 O   0  0  0  0  0  0  0  0  0  0  0  0
   84.7672   94.8687   16.9695 C   0  0  0  0  0  0  0  0  0  0  0  0
   84.2951   94.7921   18.0799 O   0  0  0  0  0  0  0  0  0  0  0  0
   85.8102   95.8102   15.7062 H   0  0  0  0  0  0  0  0  0  0  0  0
   81.3405   92.3077   16.2262 C   0  0  0  0  0  0  0  0  0  0  0  0
   80.0412   91.3942   15.4234 S   0  0  0  0  0  0  0  0  0  0  0  0
   80.4993   90.1602   15.0813 H   0  0  0  0  0  0  0  0  0  0  0  0
 11 10  2  0  0  0
 10  2  1  0  0  0
 10  9  1  0  0  0
 14 13  1  0  0  0
  2  1  1  0  0  0
  2  3  1  0  0  0
  1  5  1  0  0  0
  3  4  1  0  0  0
  3  6  1  0  0  0
 13  4  1  0  0  0
  4  8  1  0  0  0
  5  6  1  0  0  0
  6  7  1  0  0  0
  8  7  1  0  0  0
  9 12  1  0  0  0
 14 15  1  0  0  0
M  END
> <minimizedAffinity>
-4.12389

$$$$
5EVK_3C7_A_401


 15 16  0  0  0  0  0  0  0  0999 V2000
   82.6503   94.9973   17.8336 C   0  0  0  0  0  0  0  0  0  0  0  0
   83.6388   95.7785   18.6452 C   0  0  0  0  0  0  0  0  0  0  0  0
   83.0454   97.0466   19.1469 N   0  0  0  0  0  0  0  0  0  0  0  0
   82.5021   97.0240   20.5283 C   0  0  0  0  0  0  0  0  0  0  0  0
   81.2564   96.0723   17.7586 S   0  0  0  0  0  0  0  0  0  0  0  0
   82.0562   97.5706   18.1981 C   0  0  0  0  0  0  0  0  0  0  0  0
   81.3121   98.6806   18.9502 C   0  0  0  0  0  0  0  0  0  0  0  0
   80.9796   97.8791   20.4735 S   0  0  0  0  0  0  0  0  0  0  0  0
   84.8875   95.6612   16.5987 O   0  0  0  0  0  0  0  0  0  0  0  0
   84.8683   96.0505   17.7735 C   0  0  0  0  0  0  0  0  0  0  0  0
   85.8077   96.5710   18.3291 O   0  0  0  0  0  0  0  0  0  0  0  0
   84.1257   95.2647   16.2240 H   0  0  0  0  0  0  0  0  0  0  0  0
   83.3943   97.8093   21.4597 C   0  0  0  0  0  0  0  0  0  0  0  0
   82.3599   98.5487   22.7048 S   0  0  0  0  0  0  0  0  0  0  0  0
   81.6920   97.5733   23.3771 H   0  0  0  0  0  0  0  0  0  0  0  0
 11 10  2  0  0  0
 10  2  1  0  0  0
 10  9  1  0  0  0
 14 13  1  0  0  0
  2  1  1  0  0  0
  2  3  1  0  0  0
  1  5  1  0  0  0
  3  4  1  0  0  0
  3  6  1  0  0  0
 13  4  1  0  0  0
  4  8  1  0  0  0
  5  6  1  0  0  0
  6  7  1  0  0  0
  8  7  1  0  0  0
  9 12  1  0  0  0
 14 15  1  0  0  0
M  END
> <minimizedAffinity>
-4.04653

$$$$
5EVK_3C7_A_401


 15 16  0  0  0  0  0  0  0  0999 V2000
   81.7888   97.8287   19.1756 C   0  0  0  0  0  0  0  0  0  0  0  0
   83.0921   97.3452   18.6154 C   0  0  0  0  0  0  0  0  0  0  0  0
   82.9452   96.0089   17.9791 N   0  0  0  0  0  0  0  0  0  0  0  0
   82.7418   95.9930   16.5086 C   0  0  0  0  0  0  0  0  0  0  0  0
   80.7087   96.4620   18.9117 S   0  0  0  0  0  0  0  0  0  0  0  0
   81.9180   95.2155   18.6637 C   0  0  0  0  0  0  0  0  0  0  0  0
   81.6487   94.0141   17.7495 C   0  0  0  0  0  0  0  0  0  0  0  0
   81.4930   94.8119   16.1962 S   0  0  0  0  0  0  0  0  0  0  0  0
   83.7482   97.4696   20.9209 O   0  0  0  0  0  0  0  0  0  0  0  0
   84.1187   97.3067   19.7511 C   0  0  0  0  0  0  0  0  0  0  0  0
   85.2758   97.2003   19.4167 O   0  0  0  0  0  0  0  0  0  0  0  0
   82.8351   97.5453   21.1168 H   0  0  0  0  0  0  0  0  0  0  0  0
   83.9824   95.4910   15.8092 C   0  0  0  0  0  0  0  0  0  0  0  0
   83.4723   94.7218   14.2877 S   0  0  0  0  0  0  0  0  0  0  0  0
   82.8135   95.6300   13.5192 H   0  0  0  0  0  0  0  0  0  0  0  0
 11 10  2  0  0  0
 10  2  1  0  0  0
 10  9  1  0  0  0
 14 13  1  0  0  0
  2  1  1  0  0  0
  2  3  1  0  0  0
  1  5  1  0  0  0
  3  4  1  0  0  0
  3  6  1  0  0  0
 13  4  1  0  0  0
  4  8  1  0  0  0
  5  6  1  0  0  0
  6  7  1  0  0  0
  8  7  1  0  0  0
  9 12  1  0  0  0
 14 15  1  0  0  0
M  END
> <minimizedAffinity>
-3.94985

$$$$
