5OTC_AQK_A_301


 18 17  0  0  0  0  0  0  0  0999 V2000
  -42.9557  -20.3974   -2.6914 C   0  0  0  0  0  0  0  0  0  0  0  0
  -42.6439  -21.8245   -2.7896 C   0  0  0  0  0  0  0  0  0  0  0  0
  -43.5697  -22.6813   -2.9450 O   0  0  0  0  0  0  0  0  0  0  0  0
  -41.4492  -22.2186   -2.7543 O   0  0  0  0  0  0  0  0  0  0  0  0
  -40.7549  -21.5999   -2.6404 H   0  0  0  0  0  0  0  0  0  0  0  0
  -42.7627  -19.9871   -1.2956 N   0  0  0  0  0  0  0  0  0  0  0  0
  -42.4710  -20.7891   -0.7371 H   0  0  0  0  0  0  0  0  0  0  0  0
  -41.7287  -18.9595   -1.2615 C   0  0  0  0  0  0  0  0  0  0  0  0
  -40.1394  -17.9990    0.1936 O   0  0  0  0  0  0  0  0  0  0  0  0
  -40.8964  -18.9655   -0.0665 C   0  0  0  0  0  0  0  0  0  0  0  0
  -40.9583  -19.9817    0.6842 O   0  0  0  0  0  0  0  0  0  0  0  0
  -41.5320  -20.6902    0.4673 H   0  0  0  0  0  0  0  0  0  0  0  0
  -41.9830  -19.6134   -3.4791 C   0  0  0  0  0  0  0  0  0  0  0  0
  -42.2765  -19.2624   -4.9079 C   0  0  0  0  0  0  0  0  0  0  0  0
  -41.0865  -19.2491   -5.7867 C   0  0  0  0  0  0  0  0  0  0  0  0
  -41.3704  -19.0803   -7.1937 N   0  0  0  0  0  0  0  0  0  0  0  0
  -41.8105  -18.1727   -7.3452 H   0  0  0  0  0  0  0  0  0  0  0  0
  -42.0005  -19.8198   -7.5045 H   0  0  0  0  0  0  0  0  0  0  0  0
 16 15  1  0  0  0
 15 14  1  0  0  0
 14 13  1  0  0  0
 13  1  1  0  0  0
  3  2  2  0  0  0
  2  1  1  0  0  0
  2  4  1  0  0  0
  1  6  1  0  0  0
  6  8  1  0  0  0
  8 10  1  0  0  0
  9 10  2  0  0  0
 10 11  1  0  0  0
 11 12  1  0  0  0
  6  7  1  0  0  0
 16 17  1  0  0  0
 16 18  1  0  0  0
  4  5  1  0  0  0
M  END
> <minimizedAffinity>
-7.37913

$$$$
5OTC_AQK_A_301


 18 17  0  0  0  0  0  0  0  0999 V2000
  -41.6720  -19.2503   -1.9676 C   0  0  0  0  0  0  0  0  0  0  0  0
  -41.5441  -18.0229   -1.1799 C   0  0  0  0  0  0  0  0  0  0  0  0
  -40.4201  -17.6754   -0.6988 O   0  0  0  0  0  0  0  0  0  0  0  0
  -42.5414  -17.2776   -0.9967 O   0  0  0  0  0  0  0  0  0  0  0  0
  -43.3771  -17.5193   -1.3448 H   0  0  0  0  0  0  0  0  0  0  0  0
  -42.7783  -20.0348   -1.4066 N   0  0  0  0  0  0  0  0  0  0  0  0
  -43.5911  -19.9730   -2.0198 H   0  0  0  0  0  0  0  0  0  0  0  0
  -42.3446  -21.4229   -1.3002 C   0  0  0  0  0  0  0  0  0  0  0  0
  -43.6014  -22.5059   -2.9775 O   0  0  0  0  0  0  0  0  0  0  0  0
  -42.4713  -22.2012   -2.5246 C   0  0  0  0  0  0  0  0  0  0  0  0
  -41.4049  -22.5647   -3.0995 O   0  0  0  0  0  0  0  0  0  0  0  0
  -40.5736  -22.3238   -2.7406 H   0  0  0  0  0  0  0  0  0  0  0  0
  -42.0726  -18.9224   -3.3508 C   0  0  0  0  0  0  0  0  0  0  0  0
  -41.1829  -19.2894   -4.5017 C   0  0  0  0  0  0  0  0  0  0  0  0
  -41.9078  -19.6209   -5.7480 C   0  0  0  0  0  0  0  0  0  0  0  0
  -41.3347  -19.0639   -6.9522 N   0  0  0  0  0  0  0  0  0  0  0  0
  -40.3990  -19.4453   -7.0913 H   0  0  0  0  0  0  0  0  0  0  0  0
  -41.2787  -18.0493   -6.8643 H   0  0  0  0  0  0  0  0  0  0  0  0
 16 15  1  0  0  0
 15 14  1  0  0  0
 14 13  1  0  0  0
 13  1  1  0  0  0
  3  2  2  0  0  0
  2  1  1  0  0  0
  2  4  1  0  0  0
  1  6  1  0  0  0
  6  8  1  0  0  0
  8 10  1  0  0  0
  9 10  2  0  0  0
 10 11  1  0  0  0
 11 12  1  0  0  0
  6  7  1  0  0  0
 16 17  1  0  0  0
 16 18  1  0  0  0
  4  5  1  0  0  0
M  END
> <minimizedAffinity>
-7.21953

$$$$
5OTC_AQK_A_301


 18 17  0  0  0  0  0  0  0  0999 V2000
  -41.8929  -20.6721   -2.8745 C   0  0  0  0  0  0  0  0  0  0  0  0
  -43.1789  -21.3715   -2.8969 C   0  0  0  0  0  0  0  0  0  0  0  0
  -44.2586  -20.7367   -3.1136 O   0  0  0  0  0  0  0  0  0  0  0  0
  -43.2280  -22.6184   -2.7341 O   0  0  0  0  0  0  0  0  0  0  0  0
  -42.4412  -23.1013   -2.5734 H   0  0  0  0  0  0  0  0  0  0  0  0
  -41.3328  -20.7114   -4.2304 N   0  0  0  0  0  0  0  0  0  0  0  0
  -41.8454  -21.3877   -4.7963 H   0  0  0  0  0  0  0  0  0  0  0  0
  -41.4601  -19.3815   -4.8148 C   0  0  0  0  0  0  0  0  0  0  0  0
  -41.3395  -19.2020   -7.1641 O   0  0  0  0  0  0  0  0  0  0  0  0
  -40.7363  -19.1879   -6.0637 C   0  0  0  0  0  0  0  0  0  0  0  0
  -39.4846  -19.0194   -5.9941 O   0  0  0  0  0  0  0  0  0  0  0  0
  -39.0584  -19.0130   -5.1597 H   0  0  0  0  0  0  0  0  0  0  0  0
  -42.1015  -19.2427   -2.5669 C   0  0  0  0  0  0  0  0  0  0  0  0
  -41.8596  -18.7258   -1.1795 C   0  0  0  0  0  0  0  0  0  0  0  0
  -40.6002  -17.9649   -1.0259 C   0  0  0  0  0  0  0  0  0  0  0  0
  -39.9725  -18.0817    0.2706 N   0  0  0  0  0  0  0  0  0  0  0  0
  -39.7061  -19.0528    0.4331 H   0  0  0  0  0  0  0  0  0  0  0  0
  -40.6272  -17.7832    0.9935 H   0  0  0  0  0  0  0  0  0  0  0  0
 16 15  1  0  0  0
 15 14  1  0  0  0
 14 13  1  0  0  0
 13  1  1  0  0  0
  3  2  2  0  0  0
  2  1  1  0  0  0
  2  4  1  0  0  0
  1  6  1  0  0  0
  6  8  1  0  0  0
  8 10  1  0  0  0
  9 10  2  0  0  0
 10 11  1  0  0  0
 11 12  1  0  0  0
  6  7  1  0  0  0
 16 17  1  0  0  0
 16 18  1  0  0  0
  4  5  1  0  0  0
M  END
> <minimizedAffinity>
-6.60119

$$$$
5OTC_AQK_A_301


 18 17  0  0  0  0  0  0  0  0999 V2000
  -41.6074  -19.5368   -0.1217 C   0  0  0  0  0  0  0  0  0  0  0  0
  -41.0052  -18.2981   -0.6182 C   0  0  0  0  0  0  0  0  0  0  0  0
  -39.7476  -18.1217   -0.5648 O   0  0  0  0  0  0  0  0  0  0  0  0
  -41.7241  -17.4040   -1.1356 O   0  0  0  0  0  0  0  0  0  0  0  0
  -42.6529  -17.5185   -1.1827 H   0  0  0  0  0  0  0  0  0  0  0  0
  -41.3344  -20.5964   -1.0998 N   0  0  0  0  0  0  0  0  0  0  0  0
  -41.1663  -21.4782   -0.6156 H   0  0  0  0  0  0  0  0  0  0  0  0
  -42.4979  -20.7247   -1.9693 C   0  0  0  0  0  0  0  0  0  0  0  0
  -43.6405  -22.4631   -3.0822 O   0  0  0  0  0  0  0  0  0  0  0  0
  -42.5429  -21.9481   -2.7581 C   0  0  0  0  0  0  0  0  0  0  0  0
  -41.4399  -22.4716   -3.0886 O   0  0  0  0  0  0  0  0  0  0  0  0
  -40.6342  -22.0669   -2.8339 H   0  0  0  0  0  0  0  0  0  0  0  0
  -40.9378  -19.9585    1.1253 C   0  0  0  0  0  0  0  0  0  0  0  0
  -41.0435  -21.3790    1.5960 C   0  0  0  0  0  0  0  0  0  0  0  0
  -40.9173  -21.5445    3.0607 C   0  0  0  0  0  0  0  0  0  0  0  0
  -41.2991  -22.8452    3.5616 N   0  0  0  0  0  0  0  0  0  0  0  0
  -40.6807  -23.5554    3.1697 H   0  0  0  0  0  0  0  0  0  0  0  0
  -42.2617  -23.0451    3.2899 H   0  0  0  0  0  0  0  0  0  0  0  0
 16 15  1  0  0  0
 15 14  1  0  0  0
 14 13  1  0  0  0
 13  1  1  0  0  0
  3  2  2  0  0  0
  2  1  1  0  0  0
  2  4  1  0  0  0
  1  6  1  0  0  0
  6  8  1  0  0  0
  8 10  1  0  0  0
  9 10  2  0  0  0
 10 11  1  0  0  0
 11 12  1  0  0  0
  6  7  1  0  0  0
 16 17  1  0  0  0
 16 18  1  0  0  0
  4  5  1  0  0  0
M  END
> <minimizedAffinity>
-6.51926

$$$$
5OTC_AQK_A_301


 18 17  0  0  0  0  0  0  0  0999 V2000
  -41.6362  -20.7638   -0.2460 C   0  0  0  0  0  0  0  0  0  0  0  0
  -42.0264  -21.7562    0.7572 C   0  0  0  0  0  0  0  0  0  0  0  0
  -42.9961  -22.5492    0.5418 O   0  0  0  0  0  0  0  0  0  0  0  0
  -41.3838  -21.8586    1.8344 O   0  0  0  0  0  0  0  0  0  0  0  0
  -40.6663  -21.2818    2.0086 H   0  0  0  0  0  0  0  0  0  0  0  0
  -42.8189  -20.4506   -1.0565 N   0  0  0  0  0  0  0  0  0  0  0  0
  -43.1239  -19.4957   -0.8677 H   0  0  0  0  0  0  0  0  0  0  0  0
  -42.4561  -20.5839   -2.4626 C   0  0  0  0  0  0  0  0  0  0  0  0
  -41.4984  -22.5500   -3.3475 O   0  0  0  0  0  0  0  0  0  0  0  0
  -42.5348  -21.9387   -2.9911 C   0  0  0  0  0  0  0  0  0  0  0  0
  -43.6818  -22.4632   -3.0870 O   0  0  0  0  0  0  0  0  0  0  0  0
  -44.4400  -21.9852   -2.8137 H   0  0  0  0  0  0  0  0  0  0  0  0
  -41.2564  -19.4996    0.4164 C   0  0  0  0  0  0  0  0  0  0  0  0
  -40.1662  -18.6440   -0.1580 C   0  0  0  0  0  0  0  0  0  0  0  0
  -40.6355  -17.6369   -1.1348 C   0  0  0  0  0  0  0  0  0  0  0  0
  -42.0579  -17.3821   -1.1108 N   0  0  0  0  0  0  0  0  0  0  0  0
  -42.3194  -16.9988   -0.2025 H   0  0  0  0  0  0  0  0  0  0  0  0
  -42.5623  -18.2543   -1.2698 H   0  0  0  0  0  0  0  0  0  0  0  0
 16 15  1  0  0  0
 15 14  1  0  0  0
 14 13  1  0  0  0
 13  1  1  0  0  0
  3  2  2  0  0  0
  2  1  1  0  0  0
  2  4  1  0  0  0
  1  6  1  0  0  0
  6  8  1  0  0  0
  8 10  1  0  0  0
  9 10  2  0  0  0
 10 11  1  0  0  0
 11 12  1  0  0  0
  6  7  1  0  0  0
 16 17  1  0  0  0
 16 18  1  0  0  0
  4  5  1  0  0  0
M  END
> <minimizedAffinity>
-6.26451

$$$$
5OTC_AQK_A_301


 18 17  0  0  0  0  0  0  0  0999 V2000
  -41.6020  -19.5509   -2.0849 C   0  0  0  0  0  0  0  0  0  0  0  0
  -41.2292  -18.3176   -1.3898 C   0  0  0  0  0  0  0  0  0  0  0  0
  -42.0959  -17.4179   -1.1556 O   0  0  0  0  0  0  0  0  0  0  0  0
  -40.0498  -18.1468   -0.9852 O   0  0  0  0  0  0  0  0  0  0  0  0
  -39.3988  -18.8004   -1.1496 H   0  0  0  0  0  0  0  0  0  0  0  0
  -42.7462  -20.1399   -1.3794 N   0  0  0  0  0  0  0  0  0  0  0  0
  -43.2883  -20.7171   -2.0223 H   0  0  0  0  0  0  0  0  0  0  0  0
  -42.2350  -20.9622   -0.2891 C   0  0  0  0  0  0  0  0  0  0  0  0
  -42.7268  -23.0049   -1.3621 O   0  0  0  0  0  0  0  0  0  0  0  0
  -42.6936  -22.3445   -0.2955 C   0  0  0  0  0  0  0  0  0  0  0  0
  -43.0656  -22.8424    0.8061 O   0  0  0  0  0  0  0  0  0  0  0  0
  -43.0309  -22.3277    1.5884 H   0  0  0  0  0  0  0  0  0  0  0  0
  -42.0862  -19.2369   -3.4444 C   0  0  0  0  0  0  0  0  0  0  0  0
  -41.4034  -19.8251   -4.6438 C   0  0  0  0  0  0  0  0  0  0  0  0
  -42.0739  -19.5311   -5.9293 C   0  0  0  0  0  0  0  0  0  0  0  0
  -41.2194  -18.9594   -6.9450 N   0  0  0  0  0  0  0  0  0  0  0  0
  -40.4851  -19.6252   -7.1858 H   0  0  0  0  0  0  0  0  0  0  0  0
  -40.7972  -18.1012   -6.5906 H   0  0  0  0  0  0  0  0  0  0  0  0
 16 15  1  0  0  0
 15 14  1  0  0  0
 14 13  1  0  0  0
 13  1  1  0  0  0
  3  2  2  0  0  0
  2  1  1  0  0  0
  2  4  1  0  0  0
  1  6  1  0  0  0
  6  8  1  0  0  0
  8 10  1  0  0  0
  9 10  2  0  0  0
 10 11  1  0  0  0
 11 12  1  0  0  0
  6  7  1  0  0  0
 16 17  1  0  0  0
 16 18  1  0  0  0
  4  5  1  0  0  0
M  END
> <minimizedAffinity>
-6.11943

$$$$
5OTC_AQK_A_301


 18 17  0  0  0  0  0  0  0  0999 V2000
  -41.8804  -19.3776   -0.9671 C   0  0  0  0  0  0  0  0  0  0  0  0
  -41.7051  -17.9245   -0.9316 C   0  0  0  0  0  0  0  0  0  0  0  0
  -40.5421  -17.4119   -0.9170 O   0  0  0  0  0  0  0  0  0  0  0  0
  -42.7063  -17.1622   -0.9486 O   0  0  0  0  0  0  0  0  0  0  0  0
  -43.5705  -17.5241   -0.9596 H   0  0  0  0  0  0  0  0  0  0  0  0
  -41.5129  -19.8452   -2.3088 N   0  0  0  0  0  0  0  0  0  0  0  0
  -40.7760  -20.5471   -2.2399 H   0  0  0  0  0  0  0  0  0  0  0  0
  -42.6963  -20.4309   -2.9273 C   0  0  0  0  0  0  0  0  0  0  0  0
  -41.5278  -22.4543   -3.2534 O   0  0  0  0  0  0  0  0  0  0  0  0
  -42.6326  -21.8713   -3.1326 C   0  0  0  0  0  0  0  0  0  0  0  0
  -43.7272  -22.5020   -3.1964 O   0  0  0  0  0  0  0  0  0  0  0  0
  -44.5386  -22.0428   -3.1029 H   0  0  0  0  0  0  0  0  0  0  0  0
  -40.9278  -20.0232   -0.0413 C   0  0  0  0  0  0  0  0  0  0  0  0
  -41.3658  -21.1804    0.8070 C   0  0  0  0  0  0  0  0  0  0  0  0
  -42.5301  -21.9195    0.2716 C   0  0  0  0  0  0  0  0  0  0  0  0
  -43.0686  -22.9294    1.1542 N   0  0  0  0  0  0  0  0  0  0  0  0
  -43.4157  -22.4871    2.0052 H   0  0  0  0  0  0  0  0  0  0  0  0
  -42.3362  -23.5980    1.3928 H   0  0  0  0  0  0  0  0  0  0  0  0
 16 15  1  0  0  0
 15 14  1  0  0  0
 14 13  1  0  0  0
 13  1  1  0  0  0
  3  2  2  0  0  0
  2  1  1  0  0  0
  2  4  1  0  0  0
  1  6  1  0  0  0
  6  8  1  0  0  0
  8 10  1  0  0  0
  9 10  2  0  0  0
 10 11  1  0  0  0
 11 12  1  0  0  0
  6  7  1  0  0  0
 16 17  1  0  0  0
 16 18  1  0  0  0
  4  5  1  0  0  0
M  END
> <minimizedAffinity>
-5.95326

$$$$
5OTC_AQK_A_301


 18 17  0  0  0  0  0  0  0  0999 V2000
  -42.1966  -20.7895   -1.6604 C   0  0  0  0  0  0  0  0  0  0  0  0
  -42.5410  -21.9783   -0.8783 C   0  0  0  0  0  0  0  0  0  0  0  0
  -42.6431  -21.9149    0.3870 O   0  0  0  0  0  0  0  0  0  0  0  0
  -42.7731  -23.0733   -1.4538 O   0  0  0  0  0  0  0  0  0  0  0  0
  -42.7023  -23.1369   -2.3860 H   0  0  0  0  0  0  0  0  0  0  0  0
  -43.2764  -20.5549   -2.6263 N   0  0  0  0  0  0  0  0  0  0  0  0
  -43.5573  -19.5748   -2.5987 H   0  0  0  0  0  0  0  0  0  0  0  0
  -42.7789  -20.8886   -3.9558 C   0  0  0  0  0  0  0  0  0  0  0  0
  -42.6033  -18.8679   -5.1607 O   0  0  0  0  0  0  0  0  0  0  0  0
  -42.0190  -19.8323   -4.6099 C   0  0  0  0  0  0  0  0  0  0  0  0
  -40.7582  -19.9336   -4.6107 O   0  0  0  0  0  0  0  0  0  0  0  0
  -40.3466  -20.6639   -4.1921 H   0  0  0  0  0  0  0  0  0  0  0  0
  -42.1740  -19.5997   -0.7857 C   0  0  0  0  0  0  0  0  0  0  0  0
  -41.7487  -18.2689   -1.3322 C   0  0  0  0  0  0  0  0  0  0  0  0
  -40.3552  -17.8952   -1.0050 C   0  0  0  0  0  0  0  0  0  0  0  0
  -39.9676  -18.1311    0.3671 N   0  0  0  0  0  0  0  0  0  0  0  0
  -40.0185  -19.1299    0.5679 H   0  0  0  0  0  0  0  0  0  0  0  0
  -40.5982  -17.6265    0.9901 H   0  0  0  0  0  0  0  0  0  0  0  0
 16 15  1  0  0  0
 15 14  1  0  0  0
 14 13  1  0  0  0
 13  1  1  0  0  0
  3  2  2  0  0  0
  2  1  1  0  0  0
  2  4  1  0  0  0
  1  6  1  0  0  0
  6  8  1  0  0  0
  8 10  1  0  0  0
  9 10  2  0  0  0
 10 11  1  0  0  0
 11 12  1  0  0  0
  6  7  1  0  0  0
 16 17  1  0  0  0
 16 18  1  0  0  0
  4  5  1  0  0  0
M  END
> <minimizedAffinity>
-5.78998

$$$$
5OTC_AQK_A_301


 18 17  0  0  0  0  0  0  0  0999 V2000
  -41.2890  -19.5090   -0.6427 C   0  0  0  0  0  0  0  0  0  0  0  0
  -41.3534  -18.0539   -0.7911 C   0  0  0  0  0  0  0  0  0  0  0  0
  -40.2898  -17.3626   -0.8709 O   0  0  0  0  0  0  0  0  0  0  0  0
  -42.4659  -17.4715   -0.8749 O   0  0  0  0  0  0  0  0  0  0  0  0
  -43.2593  -17.9666   -0.8180 H   0  0  0  0  0  0  0  0  0  0  0  0
  -41.4909  -19.8286    0.7754 N   0  0  0  0  0  0  0  0  0  0  0  0
  -42.4891  -19.8752    0.9801 H   0  0  0  0  0  0  0  0  0  0  0  0
  -40.8711  -21.1208    1.0441 C   0  0  0  0  0  0  0  0  0  0  0  0
  -40.3785  -21.2050    3.3498 O   0  0  0  0  0  0  0  0  0  0  0  0
  -41.0722  -21.6294    2.3939 C   0  0  0  0  0  0  0  0  0  0  0  0
  -41.9578  -22.5174    2.5583 O   0  0  0  0  0  0  0  0  0  0  0  0
  -42.4621  -22.8170    1.8277 H   0  0  0  0  0  0  0  0  0  0  0  0
  -42.4148  -20.1395   -1.3612 C   0  0  0  0  0  0  0  0  0  0  0  0
  -42.3788  -20.2697   -2.8553 C   0  0  0  0  0  0  0  0  0  0  0  0
  -42.3609  -21.6663   -3.3430 C   0  0  0  0  0  0  0  0  0  0  0  0
  -43.5032  -22.4617   -2.9543 N   0  0  0  0  0  0  0  0  0  0  0  0
  -44.3498  -22.0607   -3.3577 H   0  0  0  0  0  0  0  0  0  0  0  0
  -43.5819  -22.4695   -1.9373 H   0  0  0  0  0  0  0  0  0  0  0  0
 16 15  1  0  0  0
 15 14  1  0  0  0
 14 13  1  0  0  0
 13  1  1  0  0  0
  3  2  2  0  0  0
  2  1  1  0  0  0
  2  4  1  0  0  0
  1  6  1  0  0  0
  6  8  1  0  0  0
  8 10  1  0  0  0
  9 10  2  0  0  0
 10 11  1  0  0  0
 11 12  1  0  0  0
  6  7  1  0  0  0
 16 17  1  0  0  0
 16 18  1  0  0  0
  4  5  1  0  0  0
M  END
> <minimizedAffinity>
-5.42340

$$$$
5OTC_AQK_A_301


 18 17  0  0  0  0  0  0  0  0999 V2000
  -42.0306  -18.9379   -1.8958 C   0  0  0  0  0  0  0  0  0  0  0  0
  -41.6886  -17.7056   -1.1831 C   0  0  0  0  0  0  0  0  0  0  0  0
  -40.4871  -17.4635   -0.8463 O   0  0  0  0  0  0  0  0  0  0  0  0
  -42.5772  -16.8531   -0.9236 O   0  0  0  0  0  0  0  0  0  0  0  0
  -43.4677  -17.0162   -1.1652 H   0  0  0  0  0  0  0  0  0  0  0  0
  -41.0600  -19.1167   -2.9820 N   0  0  0  0  0  0  0  0  0  0  0  0
  -40.6080  -20.0270   -2.8948 H   0  0  0  0  0  0  0  0  0  0  0  0
  -41.7759  -19.0407   -4.2500 C   0  0  0  0  0  0  0  0  0  0  0  0
  -41.5038  -19.4186   -6.5628 O   0  0  0  0  0  0  0  0  0  0  0  0
  -40.9754  -19.3503   -5.4266 C   0  0  0  0  0  0  0  0  0  0  0  0
  -39.7396  -19.5582   -5.2549 O   0  0  0  0  0  0  0  0  0  0  0  0
  -39.3698  -19.5009   -4.3958 H   0  0  0  0  0  0  0  0  0  0  0  0
  -41.8548  -20.1018   -1.0038 C   0  0  0  0  0  0  0  0  0  0  0  0
  -42.1205  -21.4885   -1.5106 C   0  0  0  0  0  0  0  0  0  0  0  0
  -43.1287  -21.5575   -2.5911 C   0  0  0  0  0  0  0  0  0  0  0  0
  -43.6671  -22.8757   -2.8383 N   0  0  0  0  0  0  0  0  0  0  0  0
  -44.1599  -23.2029   -2.0073 H   0  0  0  0  0  0  0  0  0  0  0  0
  -42.9059  -23.5183   -3.0574 H   0  0  0  0  0  0  0  0  0  0  0  0
 16 15  1  0  0  0
 15 14  1  0  0  0
 14 13  1  0  0  0
 13  1  1  0  0  0
  3  2  2  0  0  0
  2  1  1  0  0  0
  2  4  1  0  0  0
  1  6  1  0  0  0
  6  8  1  0  0  0
  8 10  1  0  0  0
  9 10  2  0  0  0
 10 11  1  0  0  0
 11 12  1  0  0  0
  6  7  1  0  0  0
 16 17  1  0  0  0
 16 18  1  0  0  0
  4  5  1  0  0  0
M  END
> <minimizedAffinity>
-5.37353

$$$$
