3N35_A2G_A_401


 20 20  0  0  0  0  0  0  0  0999 V2000
  -38.3407  -31.2332   -4.6567 O   0  0  0  0  0  0  0  0  0  0  0  0
  -39.7685  -31.2825   -4.5786 C   0  0  0  0  0  0  0  0  0  0  0  0
  -40.2861  -31.5378   -5.9022 O   0  0  0  0  0  0  0  0  0  0  0  0
  -40.2553  -29.9224   -4.0510 C   0  0  0  0  0  0  0  0  0  0  0  0
  -39.7614  -28.7993   -4.9673 C   0  0  0  0  0  0  0  0  0  0  0  0
  -40.0774  -27.5360   -4.3949 O   0  0  0  0  0  0  0  0  0  0  0  0
  -38.2486  -28.8930   -5.1780 C   0  0  0  0  0  0  0  0  0  0  0  0
  -37.6069  -28.6316   -3.9248 O   0  0  0  0  0  0  0  0  0  0  0  0
  -37.8660  -30.2958   -5.6292 C   0  0  0  0  0  0  0  0  0  0  0  0
  -39.9866  -30.8408   -6.5066 H   0  0  0  0  0  0  0  0  0  0  0  0
  -39.6330  -27.4494   -3.5371 H   0  0  0  0  0  0  0  0  0  0  0  0
  -37.8983  -29.2851   -3.2699 H   0  0  0  0  0  0  0  0  0  0  0  0
  -41.7062  -29.9213   -4.1434 N   0  0  0  0  0  0  0  0  0  0  0  0
  -42.4685  -29.3023   -3.2231 C   0  0  0  0  0  0  0  0  0  0  0  0
  -42.0003  -28.7086   -2.2642 O   0  0  0  0  0  0  0  0  0  0  0  0
  -43.9529  -29.3802   -3.4329 C   0  0  0  0  0  0  0  0  0  0  0  0
  -42.1408  -30.3837   -4.8961 H   0  0  0  0  0  0  0  0  0  0  0  0
  -36.3586  -30.4541   -5.7613 C   0  0  0  0  0  0  0  0  0  0  0  0
  -35.8665  -30.6658   -4.4436 O   0  0  0  0  0  0  0  0  0  0  0  0
  -36.1101  -29.9129   -3.8827 H   0  0  0  0  0  0  0  0  0  0  0  0
  1  9  1  0  0  0
  2  1  1  0  0  0
  2  4  1  0  0  0
  3  2  1  0  0  0
  4  5  1  0  0  0
 13  4  1  0  0  0
  5  7  1  0  0  0
  5  6  1  0  0  0
  7  8  1  0  0  0
  9  7  1  0  0  0
  9 18  1  0  0  0
 18 19  1  0  0  0
 14 13  1  0  0  0
 15 14  2  0  0  0
 16 14  1  0  0  0
  3 10  1  0  0  0
 13 17  1  0  0  0
  6 11  1  0  0  0
  8 12  1  0  0  0
 19 20  1  0  0  0
M  END
> <minimizedAffinity>
-6.05131

$$$$
3N35_A2G_A_401


 20 20  0  0  0  0  0  0  0  0999 V2000
  -40.5427  -28.9577   -2.6506 O   0  0  0  0  0  0  0  0  0  0  0  0
  -39.4379  -28.7730   -3.5407 C   0  0  0  0  0  0  0  0  0  0  0  0
  -39.7504  -27.6789   -4.4298 O   0  0  0  0  0  0  0  0  0  0  0  0
  -39.2458  -30.0813   -4.3258 C   0  0  0  0  0  0  0  0  0  0  0  0
  -40.5366  -30.4401   -5.0674 C   0  0  0  0  0  0  0  0  0  0  0  0
  -40.4090  -31.7256   -5.6631 O   0  0  0  0  0  0  0  0  0  0  0  0
  -41.7316  -30.4438   -4.1116 C   0  0  0  0  0  0  0  0  0  0  0  0
  -41.5531  -31.5155   -3.1788 O   0  0  0  0  0  0  0  0  0  0  0  0
  -41.7879  -29.1359   -3.3343 C   0  0  0  0  0  0  0  0  0  0  0  0
  -40.5674  -27.8783   -4.9131 H   0  0  0  0  0  0  0  0  0  0  0  0
  -40.2584  -32.3889   -4.9716 H   0  0  0  0  0  0  0  0  0  0  0  0
  -40.7275  -31.3823   -2.6874 H   0  0  0  0  0  0  0  0  0  0  0  0
  -38.2420  -29.8257   -5.3459 N   0  0  0  0  0  0  0  0  0  0  0  0
  -36.9783  -30.2696   -5.2153 C   0  0  0  0  0  0  0  0  0  0  0  0
  -36.5958  -30.9076   -4.2469 O   0  0  0  0  0  0  0  0  0  0  0  0
  -36.0398  -29.9339   -6.3379 C   0  0  0  0  0  0  0  0  0  0  0  0
  -38.4924  -29.3164   -6.1504 H   0  0  0  0  0  0  0  0  0  0  0  0
  -42.9102  -29.1383   -2.3072 C   0  0  0  0  0  0  0  0  0  0  0  0
  -42.5090  -28.2382   -1.2814 O   0  0  0  0  0  0  0  0  0  0  0  0
  -41.6647  -28.5324   -0.9052 H   0  0  0  0  0  0  0  0  0  0  0  0
  1  9  1  0  0  0
  2  1  1  0  0  0
  2  4  1  0  0  0
  3  2  1  0  0  0
  4  5  1  0  0  0
 13  4  1  0  0  0
  5  7  1  0  0  0
  5  6  1  0  0  0
  7  8  1  0  0  0
  9  7  1  0  0  0
  9 18  1  0  0  0
 18 19  1  0  0  0
 14 13  1  0  0  0
 15 14  2  0  0  0
 16 14  1  0  0  0
  3 10  1  0  0  0
 13 17  1  0  0  0
  6 11  1  0  0  0
  8 12  1  0  0  0
 19 20  1  0  0  0
M  END
> <minimizedAffinity>
-5.91306

$$$$
3N35_A2G_A_401


 20 20  0  0  0  0  0  0  0  0999 V2000
  -42.0976  -28.3694   -3.5926 O   0  0  0  0  0  0  0  0  0  0  0  0
  -43.4213  -28.8047   -3.2682 C   0  0  0  0  0  0  0  0  0  0  0  0
  -43.3731  -29.4969   -2.0019 O   0  0  0  0  0  0  0  0  0  0  0  0
  -43.8930  -29.7443   -4.3906 C   0  0  0  0  0  0  0  0  0  0  0  0
  -42.9158  -30.9140   -4.5380 C   0  0  0  0  0  0  0  0  0  0  0  0
  -43.2655  -31.6941   -5.6750 O   0  0  0  0  0  0  0  0  0  0  0  0
  -41.4801  -30.4086   -4.6957 C   0  0  0  0  0  0  0  0  0  0  0  0
  -41.3867  -29.7136   -5.9442 O   0  0  0  0  0  0  0  0  0  0  0  0
  -41.1397  -29.4333   -3.5773 C   0  0  0  0  0  0  0  0  0  0  0  0
  -42.7581  -30.2444   -2.0653 H   0  0  0  0  0  0  0  0  0  0  0  0
  -43.2095  -31.1456   -6.4731 H   0  0  0  0  0  0  0  0  0  0  0  0
  -42.0093  -28.9698   -5.9475 H   0  0  0  0  0  0  0  0  0  0  0  0
  -45.1600  -30.3170   -3.9661 N   0  0  0  0  0  0  0  0  0  0  0  0
  -46.1594  -30.5380   -4.8399 C   0  0  0  0  0  0  0  0  0  0  0  0
  -46.0704  -30.2772   -6.0295 O   0  0  0  0  0  0  0  0  0  0  0  0
  -47.4166  -31.1294   -4.2714 C   0  0  0  0  0  0  0  0  0  0  0  0
  -45.2899  -30.5484   -3.0180 H   0  0  0  0  0  0  0  0  0  0  0  0
  -39.7501  -28.8386   -3.7514 C   0  0  0  0  0  0  0  0  0  0  0  0
  -39.9244  -27.6374   -4.4930 O   0  0  0  0  0  0  0  0  0  0  0  0
  -40.3473  -27.8401   -5.3421 H   0  0  0  0  0  0  0  0  0  0  0  0
  1  9  1  0  0  0
  2  1  1  0  0  0
  2  4  1  0  0  0
  3  2  1  0  0  0
  4  5  1  0  0  0
 13  4  1  0  0  0
  5  7  1  0  0  0
  5  6  1  0  0  0
  7  8  1  0  0  0
  9  7  1  0  0  0
  9 18  1  0  0  0
 18 19  1  0  0  0
 14 13  1  0  0  0
 15 14  2  0  0  0
 16 14  1  0  0  0
  3 10  1  0  0  0
 13 17  1  0  0  0
  6 11  1  0  0  0
  8 12  1  0  0  0
 19 20  1  0  0  0
M  END
> <minimizedAffinity>
-4.95535

$$$$
3N35_A2G_A_401


 20 20  0  0  0  0  0  0  0  0999 V2000
  -38.5501  -28.5070   -5.1877 O   0  0  0  0  0  0  0  0  0  0  0  0
  -39.6944  -28.5163   -4.3290 C   0  0  0  0  0  0  0  0  0  0  0  0
  -39.2368  -28.4154   -2.9631 O   0  0  0  0  0  0  0  0  0  0  0  0
  -40.4430  -29.8395   -4.5614 C   0  0  0  0  0  0  0  0  0  0  0  0
  -39.5075  -31.0226   -4.2967 C   0  0  0  0  0  0  0  0  0  0  0  0
  -40.1510  -32.2373   -4.6624 O   0  0  0  0  0  0  0  0  0  0  0  0
  -38.2091  -30.8801   -5.0939 C   0  0  0  0  0  0  0  0  0  0  0  0
  -38.5267  -30.9881   -6.4861 O   0  0  0  0  0  0  0  0  0  0  0  0
  -37.5883  -29.5118   -4.8485 C   0  0  0  0  0  0  0  0  0  0  0  0
  -38.6387  -29.1535   -2.7672 H   0  0  0  0  0  0  0  0  0  0  0  0
  -40.3619  -32.2193   -5.6090 H   0  0  0  0  0  0  0  0  0  0  0  0
  -39.1521  -30.2880   -6.7303 H   0  0  0  0  0  0  0  0  0  0  0  0
  -41.4972  -29.9167   -3.5633 N   0  0  0  0  0  0  0  0  0  0  0  0
  -42.7950  -29.8052   -3.9017 C   0  0  0  0  0  0  0  0  0  0  0  0
  -43.1686  -29.6354   -5.0517 O   0  0  0  0  0  0  0  0  0  0  0  0
  -43.7828  -29.8981   -2.7751 C   0  0  0  0  0  0  0  0  0  0  0  0
  -41.2563  -30.0535   -2.6185 H   0  0  0  0  0  0  0  0  0  0  0  0
  -36.3426  -29.2977   -5.6954 C   0  0  0  0  0  0  0  0  0  0  0  0
  -35.7949  -30.5899   -5.9264 O   0  0  0  0  0  0  0  0  0  0  0  0
  -35.5944  -31.0127   -5.0767 H   0  0  0  0  0  0  0  0  0  0  0  0
  1  9  1  0  0  0
  2  1  1  0  0  0
  2  4  1  0  0  0
  3  2  1  0  0  0
  4  5  1  0  0  0
 13  4  1  0  0  0
  5  7  1  0  0  0
  5  6  1  0  0  0
  7  8  1  0  0  0
  9  7  1  0  0  0
  9 18  1  0  0  0
 18 19  1  0  0  0
 14 13  1  0  0  0
 15 14  2  0  0  0
 16 14  1  0  0  0
  3 10  1  0  0  0
 13 17  1  0  0  0
  6 11  1  0  0  0
  8 12  1  0  0  0
 19 20  1  0  0  0
M  END
> <minimizedAffinity>
-4.95418

$$$$
3N35_A2G_A_401


 20 20  0  0  0  0  0  0  0  0999 V2000
  -41.4372  -28.6465   -2.5482 O   0  0  0  0  0  0  0  0  0  0  0  0
  -42.4007  -29.2256   -1.6631 C   0  0  0  0  0  0  0  0  0  0  0  0
  -41.6934  -29.9669   -0.6457 O   0  0  0  0  0  0  0  0  0  0  0  0
  -43.3007  -30.1550   -2.4946 C   0  0  0  0  0  0  0  0  0  0  0  0
  -42.4485  -31.2139   -3.1999 C   0  0  0  0  0  0  0  0  0  0  0  0
  -43.2597  -31.9719   -4.0891 O   0  0  0  0  0  0  0  0  0  0  0  0
  -41.3103  -30.5616   -3.9879 C   0  0  0  0  0  0  0  0  0  0  0  0
  -41.8860  -29.8043   -5.0582 O   0  0  0  0  0  0  0  0  0  0  0  0
  -40.5288  -29.6096   -3.0931 C   0  0  0  0  0  0  0  0  0  0  0  0
  -41.1419  -30.6459   -1.0649 H   0  0  0  0  0  0  0  0  0  0  0  0
  -43.6377  -31.3846   -4.7622 H   0  0  0  0  0  0  0  0  0  0  0  0
  -42.4766  -29.1267   -4.6937 H   0  0  0  0  0  0  0  0  0  0  0  0
  -44.1569  -30.8696   -1.5621 N   0  0  0  0  0  0  0  0  0  0  0  0
  -45.4559  -31.0952   -1.8320 C   0  0  0  0  0  0  0  0  0  0  0  0
  -45.9941  -30.7216   -2.8625 O   0  0  0  0  0  0  0  0  0  0  0  0
  -46.2297  -31.8405   -0.7835 C   0  0  0  0  0  0  0  0  0  0  0  0
  -43.7780  -31.1958   -0.7140 H   0  0  0  0  0  0  0  0  0  0  0  0
  -39.4446  -28.8724   -3.8651 C   0  0  0  0  0  0  0  0  0  0  0  0
  -40.0531  -27.6897   -4.3692 O   0  0  0  0  0  0  0  0  0  0  0  0
  -40.8075  -27.9281   -4.9304 H   0  0  0  0  0  0  0  0  0  0  0  0
  1  9  1  0  0  0
  2  1  1  0  0  0
  2  4  1  0  0  0
  3  2  1  0  0  0
  4  5  1  0  0  0
 13  4  1  0  0  0
  5  7  1  0  0  0
  5  6  1  0  0  0
  7  8  1  0  0  0
  9  7  1  0  0  0
  9 18  1  0  0  0
 18 19  1  0  0  0
 14 13  1  0  0  0
 15 14  2  0  0  0
 16 14  1  0  0  0
  3 10  1  0  0  0
 13 17  1  0  0  0
  6 11  1  0  0  0
  8 12  1  0  0  0
 19 20  1  0  0  0
M  END
> <minimizedAffinity>
-4.78587

$$$$
3N35_A2G_A_401


 20 20  0  0  0  0  0  0  0  0999 V2000
  -39.1720  -30.4452   -5.2996 O   0  0  0  0  0  0  0  0  0  0  0  0
  -40.5638  -30.7570   -5.4126 C   0  0  0  0  0  0  0  0  0  0  0  0
  -41.1301  -29.9313   -6.4530 O   0  0  0  0  0  0  0  0  0  0  0  0
  -41.2217  -30.4587   -4.0549 C   0  0  0  0  0  0  0  0  0  0  0  0
  -40.9828  -28.9963   -3.6685 C   0  0  0  0  0  0  0  0  0  0  0  0
  -41.4538  -28.7638   -2.3466 O   0  0  0  0  0  0  0  0  0  0  0  0
  -39.4943  -28.6491   -3.7417 C   0  0  0  0  0  0  0  0  0  0  0  0
  -38.8120  -29.3961   -2.7282 O   0  0  0  0  0  0  0  0  0  0  0  0
  -38.9265  -29.0494   -5.0964 C   0  0  0  0  0  0  0  0  0  0  0  0
  -40.9914  -28.9963   -6.2352 H   0  0  0  0  0  0  0  0  0  0  0  0
  -40.9670  -29.3282   -1.7259 H   0  0  0  0  0  0  0  0  0  0  0  0
  -38.9459  -30.3447   -2.8803 H   0  0  0  0  0  0  0  0  0  0  0  0
  -42.6569  -30.6088   -4.2319 N   0  0  0  0  0  0  0  0  0  0  0  0
  -43.3838  -31.4098   -3.4311 C   0  0  0  0  0  0  0  0  0  0  0  0
  -42.8948  -32.0535   -2.5159 O   0  0  0  0  0  0  0  0  0  0  0  0
  -44.8545  -31.4791   -3.7237 C   0  0  0  0  0  0  0  0  0  0  0  0
  -43.1071  -30.1134   -4.9537 H   0  0  0  0  0  0  0  0  0  0  0  0
  -37.4270  -28.8034   -5.1743 C   0  0  0  0  0  0  0  0  0  0  0  0
  -36.8087  -29.9440   -4.5912 O   0  0  0  0  0  0  0  0  0  0  0  0
  -37.1180  -30.0479   -3.6777 H   0  0  0  0  0  0  0  0  0  0  0  0
  1  9  1  0  0  0
  2  1  1  0  0  0
  2  4  1  0  0  0
  3  2  1  0  0  0
  4  5  1  0  0  0
 13  4  1  0  0  0
  5  7  1  0  0  0
  5  6  1  0  0  0
  7  8  1  0  0  0
  9  7  1  0  0  0
  9 18  1  0  0  0
 18 19  1  0  0  0
 14 13  1  0  0  0
 15 14  2  0  0  0
 16 14  1  0  0  0
  3 10  1  0  0  0
 13 17  1  0  0  0
  6 11  1  0  0  0
  8 12  1  0  0  0
 19 20  1  0  0  0
M  END
> <minimizedAffinity>
-4.75071

$$$$
3N35_A2G_A_401


 20 20  0  0  0  0  0  0  0  0999 V2000
  -41.9009  -31.0938   -4.3633 O   0  0  0  0  0  0  0  0  0  0  0  0
  -40.5428  -31.4179   -4.6759 C   0  0  0  0  0  0  0  0  0  0  0  0
  -40.0846  -32.4092   -3.7311 O   0  0  0  0  0  0  0  0  0  0  0  0
  -39.7155  -30.1266   -4.5622 C   0  0  0  0  0  0  0  0  0  0  0  0
  -39.8635  -29.5330   -3.1584 C   0  0  0  0  0  0  0  0  0  0  0  0
  -39.2279  -28.2617   -3.1029 O   0  0  0  0  0  0  0  0  0  0  0  0
  -41.3393  -29.3755   -2.7857 C   0  0  0  0  0  0  0  0  0  0  0  0
  -41.9135  -28.3864   -3.6474 O   0  0  0  0  0  0  0  0  0  0  0  0
  -42.0797  -30.6881   -3.0019 C   0  0  0  0  0  0  0  0  0  0  0  0
  -40.1689  -32.0602   -2.8300 H   0  0  0  0  0  0  0  0  0  0  0  0
  -39.6511  -27.6607   -3.7359 H   0  0  0  0  0  0  0  0  0  0  0  0
  -41.8264  -28.6719   -4.5703 H   0  0  0  0  0  0  0  0  0  0  0  0
  -38.3176  -30.4989   -4.7068 N   0  0  0  0  0  0  0  0  0  0  0  0
  -37.4079  -29.6370   -5.1975 C   0  0  0  0  0  0  0  0  0  0  0  0
  -37.6907  -28.5020   -5.5480 O   0  0  0  0  0  0  0  0  0  0  0  0
  -36.0000  -30.1480   -5.2992 C   0  0  0  0  0  0  0  0  0  0  0  0
  -38.0301  -31.4017   -4.4397 H   0  0  0  0  0  0  0  0  0  0  0  0
  -43.5697  -30.5465   -2.7289 C   0  0  0  0  0  0  0  0  0  0  0  0
  -43.6932  -30.2854   -1.3361 O   0  0  0  0  0  0  0  0  0  0  0  0
  -43.2942  -31.0131   -0.8341 H   0  0  0  0  0  0  0  0  0  0  0  0
  1  9  1  0  0  0
  2  1  1  0  0  0
  2  4  1  0  0  0
  3  2  1  0  0  0
  4  5  1  0  0  0
 13  4  1  0  0  0
  5  7  1  0  0  0
  5  6  1  0  0  0
  7  8  1  0  0  0
  9  7  1  0  0  0
  9 18  1  0  0  0
 18 19  1  0  0  0
 14 13  1  0  0  0
 15 14  2  0  0  0
 16 14  1  0  0  0
  3 10  1  0  0  0
 13 17  1  0  0  0
  6 11  1  0  0  0
  8 12  1  0  0  0
 19 20  1  0  0  0
M  END
> <minimizedAffinity>
-4.69768

$$$$
3N35_A2G_A_401


 20 20  0  0  0  0  0  0  0  0999 V2000
  -39.3775  -31.5717   -5.6671 O   0  0  0  0  0  0  0  0  0  0  0  0
  -40.4861  -30.9516   -5.0085 C   0  0  0  0  0  0  0  0  0  0  0  0
  -41.0414  -29.9568   -5.8956 O   0  0  0  0  0  0  0  0  0  0  0  0
  -39.9601  -30.3038   -3.7167 C   0  0  0  0  0  0  0  0  0  0  0  0
  -38.8478  -29.3050   -4.0485 C   0  0  0  0  0  0  0  0  0  0  0  0
  -38.2566  -28.8250   -2.8470 O   0  0  0  0  0  0  0  0  0  0  0  0
  -37.7689  -29.9582   -4.9151 C   0  0  0  0  0  0  0  0  0  0  0  0
  -37.1160  -30.9635   -4.1317 O   0  0  0  0  0  0  0  0  0  0  0  0
  -38.4017  -30.6299   -6.1260 C   0  0  0  0  0  0  0  0  0  0  0  0
  -40.3563  -29.3096   -6.1250 H   0  0  0  0  0  0  0  0  0  0  0  0
  -37.8665  -29.5673   -2.3595 H   0  0  0  0  0  0  0  0  0  0  0  0
  -37.7664  -31.6241   -3.8463 H   0  0  0  0  0  0  0  0  0  0  0  0
  -41.0525  -29.5303   -3.1494 N   0  0  0  0  0  0  0  0  0  0  0  0
  -41.5742  -29.8292   -1.9454 C   0  0  0  0  0  0  0  0  0  0  0  0
  -41.1710  -30.7550   -1.2589 O   0  0  0  0  0  0  0  0  0  0  0  0
  -42.7012  -28.9550   -1.4773 C   0  0  0  0  0  0  0  0  0  0  0  0
  -41.4189  -28.7708   -3.6575 H   0  0  0  0  0  0  0  0  0  0  0  0
  -37.3695  -31.3692   -6.9643 C   0  0  0  0  0  0  0  0  0  0  0  0
  -37.9662  -32.6098   -7.3221 O   0  0  0  0  0  0  0  0  0  0  0  0
  -38.2055  -33.0972   -6.5183 H   0  0  0  0  0  0  0  0  0  0  0  0
  1  9  1  0  0  0
  2  1  1  0  0  0
  2  4  1  0  0  0
  3  2  1  0  0  0
  4  5  1  0  0  0
 13  4  1  0  0  0
  5  7  1  0  0  0
  5  6  1  0  0  0
  7  8  1  0  0  0
  9  7  1  0  0  0
  9 18  1  0  0  0
 18 19  1  0  0  0
 14 13  1  0  0  0
 15 14  2  0  0  0
 16 14  1  0  0  0
  3 10  1  0  0  0
 13 17  1  0  0  0
  6 11  1  0  0  0
  8 12  1  0  0  0
 19 20  1  0  0  0
M  END
> <minimizedAffinity>
-4.66511

$$$$
3N35_A2G_A_401


 20 20  0  0  0  0  0  0  0  0999 V2000
  -43.1731  -31.0586   -2.3164 O   0  0  0  0  0  0  0  0  0  0  0  0
  -42.4754  -31.5299   -3.4732 C   0  0  0  0  0  0  0  0  0  0  0  0
  -41.4047  -32.3944   -3.0357 O   0  0  0  0  0  0  0  0  0  0  0  0
  -41.9219  -30.3033   -4.2177 C   0  0  0  0  0  0  0  0  0  0  0  0
  -41.0197  -29.4895   -3.2857 C   0  0  0  0  0  0  0  0  0  0  0  0
  -40.6363  -28.2771   -3.9233 O   0  0  0  0  0  0  0  0  0  0  0  0
  -41.7408  -29.1641   -1.9759 C   0  0  0  0  0  0  0  0  0  0  0  0
  -42.8274  -28.2800   -2.2729 O   0  0  0  0  0  0  0  0  0  0  0  0
  -42.3108  -30.4340   -1.3593 C   0  0  0  0  0  0  0  0  0  0  0  0
  -40.8163  -31.9044   -2.4402 H   0  0  0  0  0  0  0  0  0  0  0  0
  -41.4272  -27.7513   -4.1203 H   0  0  0  0  0  0  0  0  0  0  0  0
  -43.4342  -28.7110   -2.8950 H   0  0  0  0  0  0  0  0  0  0  0  0
  -41.0700  -30.7990   -5.2864 N   0  0  0  0  0  0  0  0  0  0  0  0
  -41.3832  -30.6071   -6.5811 C   0  0  0  0  0  0  0  0  0  0  0  0
  -42.3876  -30.0125   -6.9398 O   0  0  0  0  0  0  0  0  0  0  0  0
  -40.4215  -31.1731   -7.5853 C   0  0  0  0  0  0  0  0  0  0  0  0
  -40.2454  -31.2859   -5.0579 H   0  0  0  0  0  0  0  0  0  0  0  0
  -43.1141  -30.1387   -0.1014 C   0  0  0  0  0  0  0  0  0  0  0  0
  -42.5145  -28.9927    0.4905 O   0  0  0  0  0  0  0  0  0  0  0  0
  -41.5824  -29.1790    0.6840 H   0  0  0  0  0  0  0  0  0  0  0  0
  1  9  1  0  0  0
  2  1  1  0  0  0
  2  4  1  0  0  0
  3  2  1  0  0  0
  4  5  1  0  0  0
 13  4  1  0  0  0
  5  7  1  0  0  0
  5  6  1  0  0  0
  7  8  1  0  0  0
  9  7  1  0  0  0
  9 18  1  0  0  0
 18 19  1  0  0  0
 14 13  1  0  0  0
 15 14  2  0  0  0
 16 14  1  0  0  0
  3 10  1  0  0  0
 13 17  1  0  0  0
  6 11  1  0  0  0
  8 12  1  0  0  0
 19 20  1  0  0  0
M  END
> <minimizedAffinity>
-4.49948

$$$$
3N35_A2G_A_401


 20 20  0  0  0  0  0  0  0  0999 V2000
  -41.4918  -30.0048   -6.0124 O   0  0  0  0  0  0  0  0  0  0  0  0
  -41.0088  -30.1810   -4.6771 C   0  0  0  0  0  0  0  0  0  0  0  0
  -40.6470  -31.5684   -4.5055 O   0  0  0  0  0  0  0  0  0  0  0  0
  -42.1406  -29.7851   -3.7142 C   0  0  0  0  0  0  0  0  0  0  0  0
  -43.3870  -30.6283   -3.9979 C   0  0  0  0  0  0  0  0  0  0  0  0
  -44.4773  -30.1553   -3.2163 O   0  0  0  0  0  0  0  0  0  0  0  0
  -43.7635  -30.5636   -5.4797 C   0  0  0  0  0  0  0  0  0  0  0  0
  -44.1708  -29.2236   -5.7780 O   0  0  0  0  0  0  0  0  0  0  0  0
  -42.5570  -30.9019   -6.3445 C   0  0  0  0  0  0  0  0  0  0  0  0
  -41.4194  -32.1281   -4.6814 H   0  0  0  0  0  0  0  0  0  0  0  0
  -44.6697  -29.2347   -3.4534 H   0  0  0  0  0  0  0  0  0  0  0  0
  -43.4408  -28.6138   -5.5876 H   0  0  0  0  0  0  0  0  0  0  0  0
  -41.7037  -30.1344   -2.3723 N   0  0  0  0  0  0  0  0  0  0  0  0
  -41.9711  -29.3424   -1.3176 C   0  0  0  0  0  0  0  0  0  0  0  0
  -42.5897  -28.2941   -1.4150 O   0  0  0  0  0  0  0  0  0  0  0  0
  -41.4596  -29.8161    0.0119 C   0  0  0  0  0  0  0  0  0  0  0  0
  -41.2008  -30.9691   -2.2320 H   0  0  0  0  0  0  0  0  0  0  0  0
  -42.8681  -30.7591   -7.8269 C   0  0  0  0  0  0  0  0  0  0  0  0
  -42.4885  -29.4357   -8.1847 O   0  0  0  0  0  0  0  0  0  0  0  0
  -42.9810  -28.8002   -7.6420 H   0  0  0  0  0  0  0  0  0  0  0  0
  1  9  1  0  0  0
  2  1  1  0  0  0
  2  4  1  0  0  0
  3  2  1  0  0  0
  4  5  1  0  0  0
 13  4  1  0  0  0
  5  7  1  0  0  0
  5  6  1  0  0  0
  7  8  1  0  0  0
  9  7  1  0  0  0
  9 18  1  0  0  0
 18 19  1  0  0  0
 14 13  1  0  0  0
 15 14  2  0  0  0
 16 14  1  0  0  0
  3 10  1  0  0  0
 13 17  1  0  0  0
  6 11  1  0  0  0
  8 12  1  0  0  0
 19 20  1  0  0  0
M  END
> <minimizedAffinity>
-4.44882

$$$$
