2GL0_ADN_A_901


 24 26  0  0  0  0  0  0  0  0999 V2000
   17.6699   18.5220   10.6951 C   0  0  0  0  0  0  0  0  0  0  0  0
   16.3244   18.2407   11.0523 O   0  0  0  0  0  0  0  0  0  0  0  0
   17.5732   19.7016    9.7640 C   0  0  0  0  0  0  0  0  0  0  0  0
   18.5202   19.4208    8.7713 O   0  0  0  0  0  0  0  0  0  0  0  0
   16.1331   19.6990    9.2536 C   0  0  0  0  0  0  0  0  0  0  0  0
   15.8621   18.6291    8.4013 O   0  0  0  0  0  0  0  0  0  0  0  0
   15.4000   19.0904   10.3505 C   0  0  0  0  0  0  0  0  0  0  0  0
   18.3422   18.5456    8.3929 H   0  0  0  0  0  0  0  0  0  0  0  0
   16.0764   17.7961    8.8497 H   0  0  0  0  0  0  0  0  0  0  0  0
   14.8945   20.1380   11.2394 N   0  0  0  0  0  0  0  0  0  0  0  0
   15.5368   21.2529   11.6445 C   0  0  0  0  0  0  0  0  0  0  0  0
   14.7434   21.9744   12.4756 N   0  0  0  0  0  0  0  0  0  0  0  0
   13.5799   21.3198   12.5968 C   0  0  0  0  0  0  0  0  0  0  0  0
   12.3136   21.5645   13.3173 C   0  0  0  0  0  0  0  0  0  0  0  0
   12.1369   22.6709   14.1282 N   0  0  0  0  0  0  0  0  0  0  0  0
   11.3615   20.5881   13.1403 N   0  0  0  0  0  0  0  0  0  0  0  0
   11.5453   19.4893   12.3482 C   0  0  0  0  0  0  0  0  0  0  0  0
   12.6459   19.2007   11.6749 N   0  0  0  0  0  0  0  0  0  0  0  0
   13.6755   20.0840   11.7844 C   0  0  0  0  0  0  0  0  0  0  0  0
   12.8563   23.3374   14.2152 H   0  0  0  0  0  0  0  0  0  0  0  0
   11.2917   22.7921   14.6183 H   0  0  0  0  0  0  0  0  0  0  0  0
   19.7242   18.5487   11.5114 O   0  0  0  0  0  0  0  0  0  0  0  0
   18.4181   18.8323   11.9703 C   0  0  0  0  0  0  0  0  0  0  0  0
   20.3590   18.7000   12.2291 H   0  0  0  0  0  0  0  0  0  0  0  0
 22 23  1  0  0  0
 23  1  1  0  0  0
  1  2  1  0  0  0
  1  3  1  0  0  0
  2  7  1  0  0  0
  3  4  1  0  0  0
  3  5  1  0  0  0
  5  6  1  0  0  0
  5  7  1  0  0  0
  7 10  1  0  0  0
 10 11  1  0  0  0
 10 19  1  0  0  0
 11 12  2  0  0  0
 12 13  1  0  0  0
 13 14  1  0  0  0
 13 19  2  0  0  0
 14 15  1  0  0  0
 14 16  2  0  0  0
 16 17  1  0  0  0
 17 18  2  0  0  0
 18 19  1  0  0  0
 22 24  1  0  0  0
  4  8  1  0  0  0
  6  9  1  0  0  0
 15 20  1  0  0  0
 15 21  1  0  0  0
M  END
> <minimizedAffinity>
-8.91982

$$$$
2GL0_ADN_A_901


 24 26  0  0  0  0  0  0  0  0999 V2000
   17.8631   19.8371   10.2150 C   0  0  0  0  0  0  0  0  0  0  0  0
   16.8303   20.7792    9.9642 O   0  0  0  0  0  0  0  0  0  0  0  0
   17.8642   19.6699   11.7116 C   0  0  0  0  0  0  0  0  0  0  0  0
   19.2244   19.6029   12.0382 O   0  0  0  0  0  0  0  0  0  0  0  0
   17.1643   20.9126   12.2596 C   0  0  0  0  0  0  0  0  0  0  0  0
   17.9157   22.0755   12.0935 O   0  0  0  0  0  0  0  0  0  0  0  0
   16.2545   21.2738   11.1860 C   0  0  0  0  0  0  0  0  0  0  0  0
   19.6812   20.3808   11.6818 H   0  0  0  0  0  0  0  0  0  0  0  0
   18.1400   22.1843   11.1560 H   0  0  0  0  0  0  0  0  0  0  0  0
   14.9500   20.6531   11.4230 N   0  0  0  0  0  0  0  0  0  0  0  0
   14.4694   19.5165   10.8782 C   0  0  0  0  0  0  0  0  0  0  0  0
   13.2157   19.2720   11.3355 N   0  0  0  0  0  0  0  0  0  0  0  0
   12.8942   20.2561   12.1869 C   0  0  0  0  0  0  0  0  0  0  0  0
   11.7182   20.5713   13.0235 C   0  0  0  0  0  0  0  0  0  0  0  0
   10.5841   19.7796   13.0168 N   0  0  0  0  0  0  0  0  0  0  0  0
   11.8401   21.7236   13.7640 N   0  0  0  0  0  0  0  0  0  0  0  0
   12.9580   22.5103   13.7575 C   0  0  0  0  0  0  0  0  0  0  0  0
   14.0461   22.2963   13.0377 N   0  0  0  0  0  0  0  0  0  0  0  0
   14.0422   21.1918   12.2425 C   0  0  0  0  0  0  0  0  0  0  0  0
   10.5560   18.9645   12.4652 H   0  0  0  0  0  0  0  0  0  0  0  0
    9.8049   20.0311   13.5635 H   0  0  0  0  0  0  0  0  0  0  0  0
   18.5774   18.5607    8.5574 O   0  0  0  0  0  0  0  0  0  0  0  0
   17.5041   18.5691    9.4765 C   0  0  0  0  0  0  0  0  0  0  0  0
   18.5034   17.7840    7.9810 H   0  0  0  0  0  0  0  0  0  0  0  0
 22 23  1  0  0  0
 23  1  1  0  0  0
  1  2  1  0  0  0
  1  3  1  0  0  0
  2  7  1  0  0  0
  3  4  1  0  0  0
  3  5  1  0  0  0
  5  6  1  0  0  0
  5  7  1  0  0  0
  7 10  1  0  0  0
 10 11  1  0  0  0
 10 19  1  0  0  0
 11 12  2  0  0  0
 12 13  1  0  0  0
 13 14  1  0  0  0
 13 19  2  0  0  0
 14 15  1  0  0  0
 14 16  2  0  0  0
 16 17  1  0  0  0
 17 18  2  0  0  0
 18 19  1  0  0  0
 22 24  1  0  0  0
  4  8  1  0  0  0
  6  9  1  0  0  0
 15 20  1  0  0  0
 15 21  1  0  0  0
M  END
> <minimizedAffinity>
-7.77979

$$$$
2GL0_ADN_A_901


 24 26  0  0  0  0  0  0  0  0999 V2000
   15.9722   19.7728    9.2527 C   0  0  0  0  0  0  0  0  0  0  0  0
   16.9828   20.6718    9.6857 O   0  0  0  0  0  0  0  0  0  0  0  0
   16.5207   18.4075    9.5733 C   0  0  0  0  0  0  0  0  0  0  0  0
   16.1509   17.6319    8.4674 O   0  0  0  0  0  0  0  0  0  0  0  0
   18.0305   18.5982    9.7092 C   0  0  0  0  0  0  0  0  0  0  0  0
   18.6519   18.8864    8.4945 O   0  0  0  0  0  0  0  0  0  0  0  0
   18.1454   19.9730   10.1644 C   0  0  0  0  0  0  0  0  0  0  0  0
   16.4699   18.0547    7.6548 H   0  0  0  0  0  0  0  0  0  0  0  0
   18.2349   19.6657    8.0949 H   0  0  0  0  0  0  0  0  0  0  0  0
   18.1902   19.9999   11.6274 N   0  0  0  0  0  0  0  0  0  0  0  0
   17.4371   20.7486   12.4592 C   0  0  0  0  0  0  0  0  0  0  0  0
   17.7794   20.5033   13.7490 N   0  0  0  0  0  0  0  0  0  0  0  0
   18.7543   19.5833   13.7430 C   0  0  0  0  0  0  0  0  0  0  0  0
   19.5356   18.8822   14.7824 C   0  0  0  0  0  0  0  0  0  0  0  0
   19.3628   19.1472   16.1288 N   0  0  0  0  0  0  0  0  0  0  0  0
   20.4590   17.9884   14.2929 N   0  0  0  0  0  0  0  0  0  0  0  0
   20.6355   17.7392   12.9604 C   0  0  0  0  0  0  0  0  0  0  0  0
   19.9785   18.3246   11.9738 N   0  0  0  0  0  0  0  0  0  0  0  0
   19.0454   19.2497   12.3287 C   0  0  0  0  0  0  0  0  0  0  0  0
   18.6841   19.7987   16.4192 H   0  0  0  0  0  0  0  0  0  0  0  0
   19.9185   18.6845   16.7969 H   0  0  0  0  0  0  0  0  0  0  0  0
   13.7950   19.3903    9.2234 O   0  0  0  0  0  0  0  0  0  0  0  0
   14.7157   20.1035   10.0236 C   0  0  0  0  0  0  0  0  0  0  0  0
   12.9016   19.4958    9.5862 H   0  0  0  0  0  0  0  0  0  0  0  0
 22 23  1  0  0  0
 23  1  1  0  0  0
  1  2  1  0  0  0
  1  3  1  0  0  0
  2  7  1  0  0  0
  3  4  1  0  0  0
  3  5  1  0  0  0
  5  6  1  0  0  0
  5  7  1  0  0  0
  7 10  1  0  0  0
 10 11  1  0  0  0
 10 19  1  0  0  0
 11 12  2  0  0  0
 12 13  1  0  0  0
 13 14  1  0  0  0
 13 19  2  0  0  0
 14 15  1  0  0  0
 14 16  2  0  0  0
 16 17  1  0  0  0
 17 18  2  0  0  0
 18 19  1  0  0  0
 22 24  1  0  0  0
  4  8  1  0  0  0
  6  9  1  0  0  0
 15 20  1  0  0  0
 15 21  1  0  0  0
M  END
> <minimizedAffinity>
-7.48376

$$$$
2GL0_ADN_A_901


 24 26  0  0  0  0  0  0  0  0999 V2000
   15.9881   20.3530    9.9793 C   0  0  0  0  0  0  0  0  0  0  0  0
   17.1075   21.0120   10.5533 O   0  0  0  0  0  0  0  0  0  0  0  0
   16.4269   18.9193    9.8390 C   0  0  0  0  0  0  0  0  0  0  0  0
   15.9071   18.5318    8.5976 O   0  0  0  0  0  0  0  0  0  0  0  0
   17.9538   18.9563    9.8780 C   0  0  0  0  0  0  0  0  0  0  0  0
   18.5108   19.5462    8.7438 O   0  0  0  0  0  0  0  0  0  0  0  0
   18.2304   20.1244   10.6964 C   0  0  0  0  0  0  0  0  0  0  0  0
   16.2053   19.1524    7.9143 H   0  0  0  0  0  0  0  0  0  0  0  0
   18.1416   20.4356    8.6275 H   0  0  0  0  0  0  0  0  0  0  0  0
   18.3825   19.7155   12.0938 N   0  0  0  0  0  0  0  0  0  0  0  0
   18.0779   18.5194   12.6381 C   0  0  0  0  0  0  0  0  0  0  0  0
   18.3492   18.5273   13.9674 N   0  0  0  0  0  0  0  0  0  0  0  0
   18.8396   19.7363   14.2751 C   0  0  0  0  0  0  0  0  0  0  0  0
   19.3373   20.3788   15.5087 C   0  0  0  0  0  0  0  0  0  0  0  0
   19.3341   19.7225   16.7262 N   0  0  0  0  0  0  0  0  0  0  0  0
   19.7585   21.6773   15.3428 N   0  0  0  0  0  0  0  0  0  0  0  0
   19.7475   22.3265   14.1398 C   0  0  0  0  0  0  0  0  0  0  0  0
   19.3180   21.8215   12.9961 N   0  0  0  0  0  0  0  0  0  0  0  0
   18.8538   20.5426   13.0317 C   0  0  0  0  0  0  0  0  0  0  0  0
   19.0204   18.7910   16.7825 H   0  0  0  0  0  0  0  0  0  0  0  0
   19.6455   20.1869   17.5366 H   0  0  0  0  0  0  0  0  0  0  0  0
   14.5836   19.1631   11.2035 O   0  0  0  0  0  0  0  0  0  0  0  0
   14.8271   20.5279   10.9300 C   0  0  0  0  0  0  0  0  0  0  0  0
   13.8405   19.0849   11.8220 H   0  0  0  0  0  0  0  0  0  0  0  0
 22 23  1  0  0  0
 23  1  1  0  0  0
  1  2  1  0  0  0
  1  3  1  0  0  0
  2  7  1  0  0  0
  3  4  1  0  0  0
  3  5  1  0  0  0
  5  6  1  0  0  0
  5  7  1  0  0  0
  7 10  1  0  0  0
 10 11  1  0  0  0
 10 19  1  0  0  0
 11 12  2  0  0  0
 12 13  1  0  0  0
 13 14  1  0  0  0
 13 19  2  0  0  0
 14 15  1  0  0  0
 14 16  2  0  0  0
 16 17  1  0  0  0
 17 18  2  0  0  0
 18 19  1  0  0  0
 22 24  1  0  0  0
  4  8  1  0  0  0
  6  9  1  0  0  0
 15 20  1  0  0  0
 15 21  1  0  0  0
M  END
> <minimizedAffinity>
-7.36206

$$$$
2GL0_ADN_A_901


 24 26  0  0  0  0  0  0  0  0999 V2000
   19.6607   18.7460   14.1042 C   0  0  0  0  0  0  0  0  0  0  0  0
   19.6526   19.4449   12.8678 O   0  0  0  0  0  0  0  0  0  0  0  0
   18.7587   19.5544   14.9990 C   0  0  0  0  0  0  0  0  0  0  0  0
   19.4131   19.5345   16.2370 O   0  0  0  0  0  0  0  0  0  0  0  0
   18.6943   20.9424   14.3636 C   0  0  0  0  0  0  0  0  0  0  0  0
   19.8996   21.6374   14.4565 O   0  0  0  0  0  0  0  0  0  0  0  0
   18.8932   20.6636   12.9517 C   0  0  0  0  0  0  0  0  0  0  0  0
   20.3231   19.8518   16.1269 H   0  0  0  0  0  0  0  0  0  0  0  0
   20.6104   21.1057   14.0655 H   0  0  0  0  0  0  0  0  0  0  0  0
   17.5928   20.5002   12.2993 N   0  0  0  0  0  0  0  0  0  0  0  0
   16.4036   20.9939   12.7014 C   0  0  0  0  0  0  0  0  0  0  0  0
   15.4253   20.6181   11.8397 N   0  0  0  0  0  0  0  0  0  0  0  0
   15.9946   19.8844   10.8731 C   0  0  0  0  0  0  0  0  0  0  0  0
   15.5100   19.2071    9.6530 C   0  0  0  0  0  0  0  0  0  0  0  0
   14.1730   19.2091    9.2989 N   0  0  0  0  0  0  0  0  0  0  0  0
   16.4877   18.5550    8.9388 N   0  0  0  0  0  0  0  0  0  0  0  0
   17.8061   18.5446    9.2997 C   0  0  0  0  0  0  0  0  0  0  0  0
   18.3152   19.1240   10.3735 N   0  0  0  0  0  0  0  0  0  0  0  0
   17.4417   19.7888   11.1782 C   0  0  0  0  0  0  0  0  0  0  0  0
   13.5183   19.6950    9.8507 H   0  0  0  0  0  0  0  0  0  0  0  0
   13.8760   18.7246    8.4950 H   0  0  0  0  0  0  0  0  0  0  0  0
   19.4471   16.7793   15.0908 O   0  0  0  0  0  0  0  0  0  0  0  0
   19.1387   17.3537   13.8371 C   0  0  0  0  0  0  0  0  0  0  0  0
   19.1697   15.8498   15.0976 H   0  0  0  0  0  0  0  0  0  0  0  0
 22 23  1  0  0  0
 23  1  1  0  0  0
  1  2  1  0  0  0
  1  3  1  0  0  0
  2  7  1  0  0  0
  3  4  1  0  0  0
  3  5  1  0  0  0
  5  6  1  0  0  0
  5  7  1  0  0  0
  7 10  1  0  0  0
 10 11  1  0  0  0
 10 19  1  0  0  0
 11 12  2  0  0  0
 12 13  1  0  0  0
 13 14  1  0  0  0
 13 19  2  0  0  0
 14 15  1  0  0  0
 14 16  2  0  0  0
 16 17  1  0  0  0
 17 18  2  0  0  0
 18 19  1  0  0  0
 22 24  1  0  0  0
  4  8  1  0  0  0
  6  9  1  0  0  0
 15 20  1  0  0  0
 15 21  1  0  0  0
M  END
> <minimizedAffinity>
-7.19346

$$$$
2GL0_ADN_A_901


 24 26  0  0  0  0  0  0  0  0999 V2000
   16.3072   18.7988    9.7171 C   0  0  0  0  0  0  0  0  0  0  0  0
   16.2561   18.2849   11.0401 O   0  0  0  0  0  0  0  0  0  0  0  0
   16.4571   20.2864    9.8970 C   0  0  0  0  0  0  0  0  0  0  0  0
   15.6311   20.8269    8.9036 O   0  0  0  0  0  0  0  0  0  0  0  0
   15.9740   20.5743   11.3176 C   0  0  0  0  0  0  0  0  0  0  0  0
   14.5990   20.3974   11.4687 O   0  0  0  0  0  0  0  0  0  0  0  0
   16.2722   19.3380   12.0198 C   0  0  0  0  0  0  0  0  0  0  0  0
   14.7372   20.4607    8.9918 H   0  0  0  0  0  0  0  0  0  0  0  0
   14.3560   19.5003   11.1911 H   0  0  0  0  0  0  0  0  0  0  0  0
   17.5943   19.4369   12.6406 N   0  0  0  0  0  0  0  0  0  0  0  0
   18.7032   18.7347   12.3292 C   0  0  0  0  0  0  0  0  0  0  0  0
   19.7309   19.1007   13.1360 N   0  0  0  0  0  0  0  0  0  0  0  0
   19.2781   20.0514   13.9654 C   0  0  0  0  0  0  0  0  0  0  0  0
   19.8727   20.8658   15.0449 C   0  0  0  0  0  0  0  0  0  0  0  0
   21.1901   20.7098   15.4362 N   0  0  0  0  0  0  0  0  0  0  0  0
   18.9997   21.7476   15.6379 N   0  0  0  0  0  0  0  0  0  0  0  0
   17.6946   21.8892   15.2566 C   0  0  0  0  0  0  0  0  0  0  0  0
   17.0914   21.1989   14.3040 N   0  0  0  0  0  0  0  0  0  0  0  0
   17.8470   20.2742   13.6510 C   0  0  0  0  0  0  0  0  0  0  0  0
   21.7678   20.0613   14.9726 H   0  0  0  0  0  0  0  0  0  0  0  0
   21.5501   21.2473   16.1783 H   0  0  0  0  0  0  0  0  0  0  0  0
   18.2521   19.3329    8.8121 O   0  0  0  0  0  0  0  0  0  0  0  0
   17.4935   18.1613    9.0326 C   0  0  0  0  0  0  0  0  0  0  0  0
   19.0806   19.1019    8.3635 H   0  0  0  0  0  0  0  0  0  0  0  0
 22 23  1  0  0  0
 23  1  1  0  0  0
  1  2  1  0  0  0
  1  3  1  0  0  0
  2  7  1  0  0  0
  3  4  1  0  0  0
  3  5  1  0  0  0
  5  6  1  0  0  0
  5  7  1  0  0  0
  7 10  1  0  0  0
 10 11  1  0  0  0
 10 19  1  0  0  0
 11 12  2  0  0  0
 12 13  1  0  0  0
 13 14  1  0  0  0
 13 19  2  0  0  0
 14 15  1  0  0  0
 14 16  2  0  0  0
 16 17  1  0  0  0
 17 18  2  0  0  0
 18 19  1  0  0  0
 22 24  1  0  0  0
  4  8  1  0  0  0
  6  9  1  0  0  0
 15 20  1  0  0  0
 15 21  1  0  0  0
M  END
> <minimizedAffinity>
-7.16095

$$$$
2GL0_ADN_A_901


 24 26  0  0  0  0  0  0  0  0999 V2000
   14.6282   20.5727   10.7435 C   0  0  0  0  0  0  0  0  0  0  0  0
   15.3003   20.7168   11.9863 O   0  0  0  0  0  0  0  0  0  0  0  0
   15.7225   20.6561    9.7123 C   0  0  0  0  0  0  0  0  0  0  0  0
   15.1540   21.4185    8.6843 O   0  0  0  0  0  0  0  0  0  0  0  0
   16.8896   21.3490   10.4138 C   0  0  0  0  0  0  0  0  0  0  0  0
   16.6381   22.6936   10.6845 O   0  0  0  0  0  0  0  0  0  0  0  0
   16.7043   20.9711   11.8044 C   0  0  0  0  0  0  0  0  0  0  0  0
   14.8258   22.2563    9.0466 H   0  0  0  0  0  0  0  0  0  0  0  0
   15.8216   22.7720   11.2023 H   0  0  0  0  0  0  0  0  0  0  0  0
   17.4823   19.7642   12.0893 N   0  0  0  0  0  0  0  0  0  0  0  0
   17.8234   18.7837   11.2279 C   0  0  0  0  0  0  0  0  0  0  0  0
   18.5379   17.8249   11.8691 N   0  0  0  0  0  0  0  0  0  0  0  0
   18.6625   18.1992   13.1502 C   0  0  0  0  0  0  0  0  0  0  0  0
   19.3223   17.6331   14.3445 C   0  0  0  0  0  0  0  0  0  0  0  0
   19.9848   16.4195   14.3065 N   0  0  0  0  0  0  0  0  0  0  0  0
   19.1847   18.3921   15.4830 N   0  0  0  0  0  0  0  0  0  0  0  0
   18.5177   19.5848   15.5190 C   0  0  0  0  0  0  0  0  0  0  0  0
   17.9027   20.1544   14.4966 N   0  0  0  0  0  0  0  0  0  0  0  0
   17.9491   19.4882   13.3107 C   0  0  0  0  0  0  0  0  0  0  0  0
   20.0507   15.9210   13.4601 H   0  0  0  0  0  0  0  0  0  0  0  0
   20.3903   16.0542   15.1258 H   0  0  0  0  0  0  0  0  0  0  0  0
   13.8844   19.0107    9.3672 O   0  0  0  0  0  0  0  0  0  0  0  0
   13.9311   19.2326   10.7620 C   0  0  0  0  0  0  0  0  0  0  0  0
   13.4518   18.1610    9.1892 H   0  0  0  0  0  0  0  0  0  0  0  0
 22 23  1  0  0  0
 23  1  1  0  0  0
  1  2  1  0  0  0
  1  3  1  0  0  0
  2  7  1  0  0  0
  3  4  1  0  0  0
  3  5  1  0  0  0
  5  6  1  0  0  0
  5  7  1  0  0  0
  7 10  1  0  0  0
 10 11  1  0  0  0
 10 19  1  0  0  0
 11 12  2  0  0  0
 12 13  1  0  0  0
 13 14  1  0  0  0
 13 19  2  0  0  0
 14 15  1  0  0  0
 14 16  2  0  0  0
 16 17  1  0  0  0
 17 18  2  0  0  0
 18 19  1  0  0  0
 22 24  1  0  0  0
  4  8  1  0  0  0
  6  9  1  0  0  0
 15 20  1  0  0  0
 15 21  1  0  0  0
M  END
> <minimizedAffinity>
-7.07502

$$$$
2GL0_ADN_A_901


 24 26  0  0  0  0  0  0  0  0999 V2000
   19.9841   18.7608   14.1150 C   0  0  0  0  0  0  0  0  0  0  0  0
   19.7844   19.4717   12.9019 O   0  0  0  0  0  0  0  0  0  0  0  0
   18.7571   19.0626   14.9342 C   0  0  0  0  0  0  0  0  0  0  0  0
   19.2568   19.2358   16.2310 O   0  0  0  0  0  0  0  0  0  0  0  0
   18.1690   20.3369   14.3302 C   0  0  0  0  0  0  0  0  0  0  0  0
   18.9604   21.4616   14.5613 O   0  0  0  0  0  0  0  0  0  0  0  0
   18.5802   20.2577   12.9391 C   0  0  0  0  0  0  0  0  0  0  0  0
   19.9558   19.9083   16.2210 H   0  0  0  0  0  0  0  0  0  0  0  0
   19.8577   21.2989   14.2309 H   0  0  0  0  0  0  0  0  0  0  0  0
   17.5256   19.6124   12.1551 N   0  0  0  0  0  0  0  0  0  0  0  0
   17.6253   18.4956   11.4051 C   0  0  0  0  0  0  0  0  0  0  0  0
   16.4336   18.2170   10.8196 N   0  0  0  0  0  0  0  0  0  0  0  0
   15.5612   19.1590   11.2048 C   0  0  0  0  0  0  0  0  0  0  0  0
   14.1300   19.4237   10.9520 C   0  0  0  0  0  0  0  0  0  0  0  0
   13.3754   18.6203   10.1164 N   0  0  0  0  0  0  0  0  0  0  0  0
   13.6394   20.5436   11.5816 N   0  0  0  0  0  0  0  0  0  0  0  0
   14.3925   21.3423   12.3962 C   0  0  0  0  0  0  0  0  0  0  0  0
   15.6747   21.1725   12.6697 N   0  0  0  0  0  0  0  0  0  0  0  0
   16.2848   20.1042   12.0876 C   0  0  0  0  0  0  0  0  0  0  0  0
   13.7827   17.8302    9.6934 H   0  0  0  0  0  0  0  0  0  0  0  0
   12.4309   18.8387    9.9446 H   0  0  0  0  0  0  0  0  0  0  0  0
   21.1613   17.4127   12.8173 O   0  0  0  0  0  0  0  0  0  0  0  0
   20.1169   17.2978   13.7622 C   0  0  0  0  0  0  0  0  0  0  0  0
   21.3843   16.5335   12.4734 H   0  0  0  0  0  0  0  0  0  0  0  0
 22 23  1  0  0  0
 23  1  1  0  0  0
  1  2  1  0  0  0
  1  3  1  0  0  0
  2  7  1  0  0  0
  3  4  1  0  0  0
  3  5  1  0  0  0
  5  6  1  0  0  0
  5  7  1  0  0  0
  7 10  1  0  0  0
 10 11  1  0  0  0
 10 19  1  0  0  0
 11 12  2  0  0  0
 12 13  1  0  0  0
 13 14  1  0  0  0
 13 19  2  0  0  0
 14 15  1  0  0  0
 14 16  2  0  0  0
 16 17  1  0  0  0
 17 18  2  0  0  0
 18 19  1  0  0  0
 22 24  1  0  0  0
  4  8  1  0  0  0
  6  9  1  0  0  0
 15 20  1  0  0  0
 15 21  1  0  0  0
M  END
> <minimizedAffinity>
-6.94766

$$$$
2GL0_ADN_A_901


 24 26  0  0  0  0  0  0  0  0999 V2000
   17.6140   18.3935   10.8530 C   0  0  0  0  0  0  0  0  0  0  0  0
   16.3407   18.8410   11.2950 O   0  0  0  0  0  0  0  0  0  0  0  0
   18.0234   19.3972    9.8076 C   0  0  0  0  0  0  0  0  0  0  0  0
   18.6196   18.6151    8.8105 O   0  0  0  0  0  0  0  0  0  0  0  0
   16.7267   20.0715    9.3624 C   0  0  0  0  0  0  0  0  0  0  0  0
   15.8927   19.2188    8.6400 O   0  0  0  0  0  0  0  0  0  0  0  0
   15.8910   19.9848   10.5476 C   0  0  0  0  0  0  0  0  0  0  0  0
   18.0037   17.9185    8.5345 H   0  0  0  0  0  0  0  0  0  0  0  0
   15.7117   18.4229    9.1643 H   0  0  0  0  0  0  0  0  0  0  0  0
   16.0434   21.2051   11.3418 N   0  0  0  0  0  0  0  0  0  0  0  0
   16.1603   21.3043   12.6820 C   0  0  0  0  0  0  0  0  0  0  0  0
   16.2716   22.6063   13.0470 N   0  0  0  0  0  0  0  0  0  0  0  0
   16.2341   23.3464   11.9300 C   0  0  0  0  0  0  0  0  0  0  0  0
   16.3235   24.7900   11.6297 C   0  0  0  0  0  0  0  0  0  0  0  0
   16.4449   25.7377   12.6298 N   0  0  0  0  0  0  0  0  0  0  0  0
   16.2366   25.0986   10.2924 N   0  0  0  0  0  0  0  0  0  0  0  0
   16.1034   24.1593    9.3081 C   0  0  0  0  0  0  0  0  0  0  0  0
   16.0157   22.8537    9.4964 N   0  0  0  0  0  0  0  0  0  0  0  0
   16.0687   22.4198   10.7853 C   0  0  0  0  0  0  0  0  0  0  0  0
   16.5029   25.4553   13.5711 H   0  0  0  0  0  0  0  0  0  0  0  0
   16.4733   26.6947   12.4003 H   0  0  0  0  0  0  0  0  0  0  0  0
   19.7611   18.4861   11.3713 O   0  0  0  0  0  0  0  0  0  0  0  0
   18.5289   18.3821   12.0552 C   0  0  0  0  0  0  0  0  0  0  0  0
   20.4878   18.4933   12.0138 H   0  0  0  0  0  0  0  0  0  0  0  0
 22 23  1  0  0  0
 23  1  1  0  0  0
  1  2  1  0  0  0
  1  3  1  0  0  0
  2  7  1  0  0  0
  3  4  1  0  0  0
  3  5  1  0  0  0
  5  6  1  0  0  0
  5  7  1  0  0  0
  7 10  1  0  0  0
 10 11  1  0  0  0
 10 19  1  0  0  0
 11 12  2  0  0  0
 12 13  1  0  0  0
 13 14  1  0  0  0
 13 19  2  0  0  0
 14 15  1  0  0  0
 14 16  2  0  0  0
 16 17  1  0  0  0
 17 18  2  0  0  0
 18 19  1  0  0  0
 22 24  1  0  0  0
  4  8  1  0  0  0
  6  9  1  0  0  0
 15 20  1  0  0  0
 15 21  1  0  0  0
M  END
> <minimizedAffinity>
-6.82021

$$$$
2GL0_ADN_A_901


 24 26  0  0  0  0  0  0  0  0999 V2000
   17.9492   19.6863   10.3131 C   0  0  0  0  0  0  0  0  0  0  0  0
   16.7914   20.2318    9.6976 O   0  0  0  0  0  0  0  0  0  0  0  0
   18.2798   20.6551   11.4177 C   0  0  0  0  0  0  0  0  0  0  0  0
   19.6773   20.7382   11.3806 O   0  0  0  0  0  0  0  0  0  0  0  0
   17.5793   21.9586   11.0376 C   0  0  0  0  0  0  0  0  0  0  0  0
   18.1498   22.5760    9.9250 O   0  0  0  0  0  0  0  0  0  0  0  0
   16.4325   21.5008   10.2720 C   0  0  0  0  0  0  0  0  0  0  0  0
   19.9633   20.9773   10.4851 H   0  0  0  0  0  0  0  0  0  0  0  0
   18.1611   21.9543    9.1805 H   0  0  0  0  0  0  0  0  0  0  0  0
   15.2806   21.3499   11.1628 N   0  0  0  0  0  0  0  0  0  0  0  0
   15.0094   22.0525   12.2819 C   0  0  0  0  0  0  0  0  0  0  0  0
   13.8543   21.6132   12.8420 N   0  0  0  0  0  0  0  0  0  0  0  0
   13.3777   20.6264   12.0700 C   0  0  0  0  0  0  0  0  0  0  0  0
   12.1815   19.7602   12.1016 C   0  0  0  0  0  0  0  0  0  0  0  0
   11.2499   19.8387   13.1210 N   0  0  0  0  0  0  0  0  0  0  0  0
   12.1040   18.8604   11.0645 N   0  0  0  0  0  0  0  0  0  0  0  0
   13.0341   18.7775   10.0661 C   0  0  0  0  0  0  0  0  0  0  0  0
   14.1276   19.5141    9.9692 N   0  0  0  0  0  0  0  0  0  0  0  0
   14.3309   20.4338   10.9516 C   0  0  0  0  0  0  0  0  0  0  0  0
   11.3592   20.5049   13.8375 H   0  0  0  0  0  0  0  0  0  0  0  0
   10.4775   19.2283   13.1300 H   0  0  0  0  0  0  0  0  0  0  0  0
   18.6900   18.1107   11.6755 O   0  0  0  0  0  0  0  0  0  0  0  0
   17.5833   18.3110   10.8199 C   0  0  0  0  0  0  0  0  0  0  0  0
   18.6164   17.2424   12.1015 H   0  0  0  0  0  0  0  0  0  0  0  0
 22 23  1  0  0  0
 23  1  1  0  0  0
  1  2  1  0  0  0
  1  3  1  0  0  0
  2  7  1  0  0  0
  3  4  1  0  0  0
  3  5  1  0  0  0
  5  6  1  0  0  0
  5  7  1  0  0  0
  7 10  1  0  0  0
 10 11  1  0  0  0
 10 19  1  0  0  0
 11 12  2  0  0  0
 12 13  1  0  0  0
 13 14  1  0  0  0
 13 19  2  0  0  0
 14 15  1  0  0  0
 14 16  2  0  0  0
 16 17  1  0  0  0
 17 18  2  0  0  0
 18 19  1  0  0  0
 22 24  1  0  0  0
  4  8  1  0  0  0
  6  9  1  0  0  0
 15 20  1  0  0  0
 15 21  1  0  0  0
M  END
> <minimizedAffinity>
-6.78315

$$$$
