2OAX_SNL_A_1001


 29 33  0  0  0  0  0  0  0  0999 V2000
  -22.8879   57.7472    2.7799 C   0  0  0  0  0  0  0  0  0  0  0  0
  -21.4924   61.4069    3.4236 C   0  0  0  0  0  0  0  0  0  0  0  0
  -21.6442   59.8874    2.6689 C   0  0  0  0  0  0  0  0  0  0  0  0
  -17.7041   61.0837    4.6958 C   0  0  0  0  0  0  0  0  0  0  0  0
  -20.9479   58.8205    3.6900 C   0  0  0  0  0  0  0  0  0  0  0  0
  -17.5262   62.5555    5.4803 C   0  0  0  0  0  0  0  0  0  0  0  0
  -20.0601   61.7906    3.6940 C   0  0  0  0  0  0  0  0  0  0  0  0
  -21.5199   57.4179    3.3096 C   0  0  0  0  0  0  0  0  0  0  0  0
  -23.0775   59.2450    2.6688 C   0  0  0  0  0  0  0  0  0  0  0  0
  -20.9974   59.9414    1.1732 C   0  0  0  0  0  0  0  0  0  0  0  0
  -16.9886   61.2189    3.2673 C   0  0  0  0  0  0  0  0  0  0  0  0
  -16.0841   62.8308    6.0517 C   0  0  0  0  0  0  0  0  0  0  0  0
  -24.1161   59.7023    3.7666 C   0  0  0  0  0  0  0  0  0  0  0  0
  -25.1739   60.5767    3.0399 C   0  0  0  0  0  0  0  0  0  0  0  0
  -24.7766   60.4907    1.5967 C   0  0  0  0  0  0  0  0  0  0  0  0
  -15.5030   61.5352    6.7931 C   0  0  0  0  0  0  0  0  0  0  0  0
  -15.9226   60.1579    6.4290 C   0  0  0  0  0  0  0  0  0  0  0  0
  -16.8536   59.9149    5.4195 C   0  0  0  0  0  0  0  0  0  0  0  0
  -17.2000   58.3910    5.0261 C   0  0  0  0  0  0  0  0  0  0  0  0
  -18.7256   58.0950    4.8675 C   0  0  0  0  0  0  0  0  0  0  0  0
  -19.4505   59.0925    3.9423 C   0  0  0  0  0  0  0  0  0  0  0  0
  -19.2377   60.6751    4.5108 C   0  0  0  0  0  0  0  0  0  0  0  0
  -25.2076   61.2314    0.7006 O   0  0  0  0  0  0  0  0  0  0  0  0
  -23.8211   59.4748    1.4076 O   0  0  0  0  0  0  0  0  0  0  0  0
  -14.7217   61.6864    7.6954 O   0  0  0  0  0  0  0  0  0  0  0  0
  -19.6132   58.0629    6.6069 S   0  0  0  0  0  0  0  0  0  0  0  0
  -18.8672   56.6433    7.5088 C   0  0  0  0  0  0  0  0  0  0  0  0
  -19.1978   56.3554    8.9661 C   0  0  0  0  0  0  0  0  0  0  0  0
  -18.0491   55.9236    6.9506 O   0  0  0  0  0  0  0  0  0  0  0  0
  1  8  1  0  0  0
  1  9  1  0  0  0
  2  3  1  0  0  0
  2  7  1  0  0  0
  3  5  1  0  0  0
  3  9  1  0  0  0
  3 10  1  0  0  0
  4  6  1  0  0  0
  4 11  1  0  0  0
  4 18  1  0  0  0
  4 22  1  0  0  0
  5  8  1  0  0  0
  5 21  1  0  0  0
  6 12  1  0  0  0
  7 22  1  0  0  0
  9 13  1  0  0  0
  9 24  1  0  0  0
 12 16  1  0  0  0
 13 14  1  0  0  0
 14 15  1  0  0  0
 15 23  2  0  0  0
 15 24  1  0  0  0
 27 28  1  0  0  0
 27 29  2  0  0  0
 27 26  1  0  0  0
 16 17  1  0  0  0
 16 25  2  0  0  0
 17 18  2  0  0  0
 18 19  1  0  0  0
 19 20  1  0  0  0
 20 21  1  0  0  0
 20 26  1  0  0  0
 21 22  1  0  0  0
M  END
> <minimizedAffinity>
-13.18254

$$$$
