4CC5_L5V_A_1311


 13 14  0  0  0  0  0  0  0  0999 V2000
   26.3055   21.2452    6.9854 Cl  0  0  0  0  0  0  0  0  0  0  0  0
   26.9025   20.1676    8.2102 C   0  0  0  0  0  0  0  0  0  0  0  0
   26.8209   18.8073    8.0056 C   0  0  0  0  0  0  0  0  0  0  0  0
   27.2656   17.9418    8.9182 N   0  0  0  0  0  0  0  0  0  0  0  0
   27.7837   18.4950   10.0170 C   0  0  0  0  0  0  0  0  0  0  0  0
   27.8595   19.8707   10.2064 C   0  0  0  0  0  0  0  0  0  0  0  0
   27.4092   20.7434    9.2866 N   0  0  0  0  0  0  0  0  0  0  0  0
   28.4294   20.4526   11.4192 C   0  0  0  0  0  0  0  0  0  0  0  0
   28.5501   21.7469   11.6627 N   0  0  0  0  0  0  0  0  0  0  0  0
   29.1314   21.8736   12.9087 N   0  0  0  0  0  0  0  0  0  0  0  0
   29.3373   20.6663   13.3650 C   0  0  0  0  0  0  0  0  0  0  0  0
   28.9159   19.7756   12.4726 N   0  0  0  0  0  0  0  0  0  0  0  0
   29.3500   22.7165   13.3679 H   0  0  0  0  0  0  0  0  0  0  0  0
  1  2  1  0  0  0
  2  3  1  0  0  0
  2  7  2  0  0  0
  3  4  2  0  0  0
  4  5  1  0  0  0
  5  6  2  0  0  0
  6  7  1  0  0  0
  6  8  1  0  0  0
  8  9  2  0  0  0
  8 12  1  0  0  0
  9 10  1  0  0  0
 10 11  1  0  0  0
 11 12  2  0  0  0
 10 13  1  0  0  0
M  END
> <minimizedAffinity>
-6.32287

$$$$
4CC5_L5V_A_1311


 13 14  0  0  0  0  0  0  0  0999 V2000
   26.9921   20.0952    8.0482 Cl  0  0  0  0  0  0  0  0  0  0  0  0
   25.3462   20.5629    7.7484 C   0  0  0  0  0  0  0  0  0  0  0  0
   24.3830   19.5857    7.6206 C   0  0  0  0  0  0  0  0  0  0  0  0
   23.1066   19.8974    7.3893 N   0  0  0  0  0  0  0  0  0  0  0  0
   22.8516   21.2044    7.2964 C   0  0  0  0  0  0  0  0  0  0  0  0
   23.8361   22.1775    7.4296 C   0  0  0  0  0  0  0  0  0  0  0  0
   25.1236   21.8628    7.6610 N   0  0  0  0  0  0  0  0  0  0  0  0
   23.5325   23.6025    7.3219 C   0  0  0  0  0  0  0  0  0  0  0  0
   24.2536   24.5798    7.8453 N   0  0  0  0  0  0  0  0  0  0  0  0
   23.6299   25.7666    7.5154 N   0  0  0  0  0  0  0  0  0  0  0  0
   22.5691   25.4652    6.8139 C   0  0  0  0  0  0  0  0  0  0  0  0
   22.4850   24.1454    6.6794 N   0  0  0  0  0  0  0  0  0  0  0  0
   23.9287   26.6715    7.7625 H   0  0  0  0  0  0  0  0  0  0  0  0
  1  2  1  0  0  0
  2  3  1  0  0  0
  2  7  2  0  0  0
  3  4  2  0  0  0
  4  5  1  0  0  0
  5  6  2  0  0  0
  6  7  1  0  0  0
  6  8  1  0  0  0
  8  9  2  0  0  0
  8 12  1  0  0  0
  9 10  1  0  0  0
 10 11  1  0  0  0
 11 12  2  0  0  0
 10 13  1  0  0  0
M  END
> <minimizedAffinity>
-6.31818

$$$$
4CC5_L5V_A_1311


 13 14  0  0  0  0  0  0  0  0999 V2000
   28.1107   20.3568    9.5455 Cl  0  0  0  0  0  0  0  0  0  0  0  0
   28.4424   19.5199   11.0312 C   0  0  0  0  0  0  0  0  0  0  0  0
   28.6468   18.1574   11.0032 C   0  0  0  0  0  0  0  0  0  0  0  0
   28.9037   17.4725   12.1189 N   0  0  0  0  0  0  0  0  0  0  0  0
   28.9453   18.2043   13.2346 C   0  0  0  0  0  0  0  0  0  0  0  0
   28.7380   19.5794   13.2443 C   0  0  0  0  0  0  0  0  0  0  0  0
   28.4772   20.2695   12.1192 N   0  0  0  0  0  0  0  0  0  0  0  0
   28.7867   20.3586   14.4791 C   0  0  0  0  0  0  0  0  0  0  0  0
   29.1805   21.6176   14.5740 N   0  0  0  0  0  0  0  0  0  0  0  0
   29.0755   21.9772   15.9029 N   0  0  0  0  0  0  0  0  0  0  0  0
   28.6278   20.9351   16.5524 C   0  0  0  0  0  0  0  0  0  0  0  0
   28.4415   19.9287   15.7042 N   0  0  0  0  0  0  0  0  0  0  0  0
   29.2966   22.8553   16.2893 H   0  0  0  0  0  0  0  0  0  0  0  0
  1  2  1  0  0  0
  2  3  1  0  0  0
  2  7  2  0  0  0
  3  4  2  0  0  0
  4  5  1  0  0  0
  5  6  2  0  0  0
  6  7  1  0  0  0
  6  8  1  0  0  0
  8  9  2  0  0  0
  8 12  1  0  0  0
  9 10  1  0  0  0
 10 11  1  0  0  0
 11 12  2  0  0  0
 10 13  1  0  0  0
M  END
> <minimizedAffinity>
-6.17447

$$$$
4CC5_L5V_A_1311


 13 14  0  0  0  0  0  0  0  0999 V2000
   28.7822   21.9052   12.1699 Cl  0  0  0  0  0  0  0  0  0  0  0  0
   28.8315   20.2163   12.5735 C   0  0  0  0  0  0  0  0  0  0  0  0
   29.2321   19.8393   13.8370 C   0  0  0  0  0  0  0  0  0  0  0  0
   29.2863   18.5544   14.1917 N   0  0  0  0  0  0  0  0  0  0  0  0
   28.9265   17.6896   13.2406 C   0  0  0  0  0  0  0  0  0  0  0  0
   28.5232   18.0879   11.9707 C   0  0  0  0  0  0  0  0  0  0  0  0
   28.4704   19.3838   11.6126 N   0  0  0  0  0  0  0  0  0  0  0  0
   28.1359   17.1219   10.9455 C   0  0  0  0  0  0  0  0  0  0  0  0
   27.2643   17.3438    9.9758 N   0  0  0  0  0  0  0  0  0  0  0  0
   27.1853   16.1861    9.2276 N   0  0  0  0  0  0  0  0  0  0  0  0
   28.0017   15.3195    9.7667 C   0  0  0  0  0  0  0  0  0  0  0  0
   28.5982   15.8666   10.8212 N   0  0  0  0  0  0  0  0  0  0  0  0
   26.6192   16.0405    8.4354 H   0  0  0  0  0  0  0  0  0  0  0  0
  1  2  1  0  0  0
  2  3  1  0  0  0
  2  7  2  0  0  0
  3  4  2  0  0  0
  4  5  1  0  0  0
  5  6  2  0  0  0
  6  7  1  0  0  0
  6  8  1  0  0  0
  8  9  2  0  0  0
  8 12  1  0  0  0
  9 10  1  0  0  0
 10 11  1  0  0  0
 11 12  2  0  0  0
 10 13  1  0  0  0
M  END
> <minimizedAffinity>
-5.95111

$$$$
4CC5_L5V_A_1311


 13 14  0  0  0  0  0  0  0  0999 V2000
   24.3326   24.5857    7.5300 Cl  0  0  0  0  0  0  0  0  0  0  0  0
   23.6703   22.9819    7.4471 C   0  0  0  0  0  0  0  0  0  0  0  0
   22.3254   22.8231    7.1925 C   0  0  0  0  0  0  0  0  0  0  0  0
   21.7725   21.6111    7.1205 N   0  0  0  0  0  0  0  0  0  0  0  0
   22.6149   20.5931    7.3105 C   0  0  0  0  0  0  0  0  0  0  0  0
   23.9704   20.7717    7.5650 C   0  0  0  0  0  0  0  0  0  0  0  0
   24.5273   21.9943    7.6393 N   0  0  0  0  0  0  0  0  0  0  0  0
   24.8724   19.6413    7.7716 C   0  0  0  0  0  0  0  0  0  0  0  0
   24.4985   18.3808    7.9152 N   0  0  0  0  0  0  0  0  0  0  0  0
   25.6468   17.6331    8.0849 N   0  0  0  0  0  0  0  0  0  0  0  0
   26.6582   18.4596    8.0378 C   0  0  0  0  0  0  0  0  0  0  0  0
   26.2126   19.6973    7.8462 N   0  0  0  0  0  0  0  0  0  0  0  0
   25.6948   16.6587    8.2167 H   0  0  0  0  0  0  0  0  0  0  0  0
  1  2  1  0  0  0
  2  3  1  0  0  0
  2  7  2  0  0  0
  3  4  2  0  0  0
  4  5  1  0  0  0
  5  6  2  0  0  0
  6  7  1  0  0  0
  6  8  1  0  0  0
  8  9  2  0  0  0
  8 12  1  0  0  0
  9 10  1  0  0  0
 10 11  1  0  0  0
 11 12  2  0  0  0
 10 13  1  0  0  0
M  END
> <minimizedAffinity>
-5.90620

$$$$
4CC5_L5V_A_1311


 13 14  0  0  0  0  0  0  0  0999 V2000
   29.3178   18.7753   14.2211 Cl  0  0  0  0  0  0  0  0  0  0  0  0
   28.8340   19.4754   12.7066 C   0  0  0  0  0  0  0  0  0  0  0  0
   28.8524   20.8459   12.5640 C   0  0  0  0  0  0  0  0  0  0  0  0
   28.4888   21.4281   11.4201 N   0  0  0  0  0  0  0  0  0  0  0  0
   28.1169   20.5882   10.4514 C   0  0  0  0  0  0  0  0  0  0  0  0
   28.1058   19.2069   10.6123 C   0  0  0  0  0  0  0  0  0  0  0  0
   28.4708   18.6201   11.7667 N   0  0  0  0  0  0  0  0  0  0  0  0
   27.6925   18.3080    9.5373 C   0  0  0  0  0  0  0  0  0  0  0  0
   26.9753   18.6565    8.4822 N   0  0  0  0  0  0  0  0  0  0  0  0
   26.8060   17.5222    7.7133 N   0  0  0  0  0  0  0  0  0  0  0  0
   27.4196   16.5438    8.3252 C   0  0  0  0  0  0  0  0  0  0  0  0
   27.9724   16.9972    9.4459 N   0  0  0  0  0  0  0  0  0  0  0  0
   26.3145   17.4618    6.8624 H   0  0  0  0  0  0  0  0  0  0  0  0
  1  2  1  0  0  0
  2  3  1  0  0  0
  2  7  2  0  0  0
  3  4  2  0  0  0
  4  5  1  0  0  0
  5  6  2  0  0  0
  6  7  1  0  0  0
  6  8  1  0  0  0
  8  9  2  0  0  0
  8 12  1  0  0  0
  9 10  1  0  0  0
 10 11  1  0  0  0
 11 12  2  0  0  0
 10 13  1  0  0  0
M  END
> <minimizedAffinity>
-5.83939

$$$$
4CC5_L5V_A_1311


 13 14  0  0  0  0  0  0  0  0999 V2000
   29.2889   21.2525   13.5835 Cl  0  0  0  0  0  0  0  0  0  0  0  0
   28.8884   19.9273   12.5342 C   0  0  0  0  0  0  0  0  0  0  0  0
   29.1714   18.6409   12.9391 C   0  0  0  0  0  0  0  0  0  0  0  0
   28.8827   17.5923   12.1666 N   0  0  0  0  0  0  0  0  0  0  0  0
   28.3095   17.8912   10.9986 C   0  0  0  0  0  0  0  0  0  0  0  0
   28.0295   19.1958   10.6065 C   0  0  0  0  0  0  0  0  0  0  0  0
   28.3225   20.2532   11.3851 N   0  0  0  0  0  0  0  0  0  0  0  0
   27.4031   19.4979    9.3218 C   0  0  0  0  0  0  0  0  0  0  0  0
   27.3598   20.6916    8.7539 N   0  0  0  0  0  0  0  0  0  0  0  0
   26.6851   20.5484    7.5579 N   0  0  0  0  0  0  0  0  0  0  0  0
   26.3505   19.2896    7.4497 C   0  0  0  0  0  0  0  0  0  0  0  0
   26.7785   18.6223    8.5167 N   0  0  0  0  0  0  0  0  0  0  0  0
   26.4919   21.2618    6.9075 H   0  0  0  0  0  0  0  0  0  0  0  0
  1  2  1  0  0  0
  2  3  1  0  0  0
  2  7  2  0  0  0
  3  4  2  0  0  0
  4  5  1  0  0  0
  5  6  2  0  0  0
  6  7  1  0  0  0
  6  8  1  0  0  0
  8  9  2  0  0  0
  8 12  1  0  0  0
  9 10  1  0  0  0
 10 11  1  0  0  0
 11 12  2  0  0  0
 10 13  1  0  0  0
M  END
> <minimizedAffinity>
-5.81559

$$$$
4CC5_L5V_A_1311


 13 14  0  0  0  0  0  0  0  0999 V2000
   29.2213   21.4335   13.1460 Cl  0  0  0  0  0  0  0  0  0  0  0  0
   28.8694   19.8707   12.4741 C   0  0  0  0  0  0  0  0  0  0  0  0
   29.1662   18.7422   13.2071 C   0  0  0  0  0  0  0  0  0  0  0  0
   28.9145   17.5215   12.7317 N   0  0  0  0  0  0  0  0  0  0  0  0
   28.3634   17.4905   11.5163 C   0  0  0  0  0  0  0  0  0  0  0  0
   28.0691   18.6399   10.7908 C   0  0  0  0  0  0  0  0  0  0  0  0
   28.3247   19.8710   11.2698 N   0  0  0  0  0  0  0  0  0  0  0  0
   27.4675   18.5803    9.4608 C   0  0  0  0  0  0  0  0  0  0  0  0
   27.2285   17.4729    8.7784 N   0  0  0  0  0  0  0  0  0  0  0  0
   26.6566   17.8497    7.5796 N   0  0  0  0  0  0  0  0  0  0  0  0
   26.5726   19.1539    7.5830 C   0  0  0  0  0  0  0  0  0  0  0  0
   27.0620   19.6281    8.7243 N   0  0  0  0  0  0  0  0  0  0  0  0
   26.3660   17.2478    6.8567 H   0  0  0  0  0  0  0  0  0  0  0  0
  1  2  1  0  0  0
  2  3  1  0  0  0
  2  7  2  0  0  0
  3  4  2  0  0  0
  4  5  1  0  0  0
  5  6  2  0  0  0
  6  7  1  0  0  0
  6  8  1  0  0  0
  8  9  2  0  0  0
  8 12  1  0  0  0
  9 10  1  0  0  0
 10 11  1  0  0  0
 11 12  2  0  0  0
 10 13  1  0  0  0
M  END
> <minimizedAffinity>
-5.79828

$$$$
4CC5_L5V_A_1311


 13 14  0  0  0  0  0  0  0  0999 V2000
   27.9187   15.5997    9.6919 Cl  0  0  0  0  0  0  0  0  0  0  0  0
   27.7104   17.3162    9.5250 C   0  0  0  0  0  0  0  0  0  0  0  0
   27.1197   17.8131    8.3835 C   0  0  0  0  0  0  0  0  0  0  0  0
   26.9398   19.1237    8.2111 N   0  0  0  0  0  0  0  0  0  0  0  0
   27.3698   19.8905    9.2157 C   0  0  0  0  0  0  0  0  0  0  0  0
   27.9626   19.3717   10.3617 C   0  0  0  0  0  0  0  0  0  0  0  0
   28.1456   18.0500   10.5345 N   0  0  0  0  0  0  0  0  0  0  0  0
   28.4272   20.2318   11.4473 C   0  0  0  0  0  0  0  0  0  0  0  0
   28.4260   21.5543   11.4292 N   0  0  0  0  0  0  0  0  0  0  0  0
   28.9394   21.9777   12.6390 N   0  0  0  0  0  0  0  0  0  0  0  0
   29.2275   20.9086   13.3335 C   0  0  0  0  0  0  0  0  0  0  0  0
   28.9233   19.8242   12.6274 N   0  0  0  0  0  0  0  0  0  0  0  0
   29.0649   22.9113   12.9253 H   0  0  0  0  0  0  0  0  0  0  0  0
  1  2  1  0  0  0
  2  3  1  0  0  0
  2  7  2  0  0  0
  3  4  2  0  0  0
  4  5  1  0  0  0
  5  6  2  0  0  0
  6  7  1  0  0  0
  6  8  1  0  0  0
  8  9  2  0  0  0
  8 12  1  0  0  0
  9 10  1  0  0  0
 10 11  1  0  0  0
 11 12  2  0  0  0
 10 13  1  0  0  0
M  END
> <minimizedAffinity>
-5.70235

$$$$
4CC5_L5V_A_1311


 13 14  0  0  0  0  0  0  0  0999 V2000
   26.9637   20.8517    7.9857 Cl  0  0  0  0  0  0  0  0  0  0  0  0
   27.5276   19.9009    9.3257 C   0  0  0  0  0  0  0  0  0  0  0  0
   28.1064   20.5358   10.4031 C   0  0  0  0  0  0  0  0  0  0  0  0
   28.5547   19.8471   11.4540 N   0  0  0  0  0  0  0  0  0  0  0  0
   28.3960   18.5242   11.3725 C   0  0  0  0  0  0  0  0  0  0  0  0
   27.8080   17.8999   10.2776 C   0  0  0  0  0  0  0  0  0  0  0  0
   27.3576   18.5947    9.2171 N   0  0  0  0  0  0  0  0  0  0  0  0
   27.6471   16.4495   10.2107 C   0  0  0  0  0  0  0  0  0  0  0  0
   28.5240   15.5616   10.6489 N   0  0  0  0  0  0  0  0  0  0  0  0
   27.9944   14.3109   10.4009 N   0  0  0  0  0  0  0  0  0  0  0  0
   26.8324   14.4880    9.8296 C   0  0  0  0  0  0  0  0  0  0  0  0
   26.5938   15.7894    9.7010 N   0  0  0  0  0  0  0  0  0  0  0  0
   28.4141   13.4463   10.6147 H   0  0  0  0  0  0  0  0  0  0  0  0
  1  2  1  0  0  0
  2  3  1  0  0  0
  2  7  2  0  0  0
  3  4  2  0  0  0
  4  5  1  0  0  0
  5  6  2  0  0  0
  6  7  1  0  0  0
  6  8  1  0  0  0
  8  9  2  0  0  0
  8 12  1  0  0  0
  9 10  1  0  0  0
 10 11  1  0  0  0
 11 12  2  0  0  0
 10 13  1  0  0  0
M  END
> <minimizedAffinity>
-5.63378

$$$$
