3KIV_ACA_A_100


 12 11  0  0  0  0  0  0  0  0999 V2000
   10.3676   14.6922    5.7019 C   0  0  0  0  0  0  0  0  0  0  0  0
    8.9073   14.3866    5.2282 C   0  0  0  0  0  0  0  0  0  0  0  0
    9.0385   13.4012    4.0392 C   0  0  0  0  0  0  0  0  0  0  0  0
    7.9382   13.2115    3.4190 O   0  0  0  0  0  0  0  0  0  0  0  0
   10.1842   12.9793    3.7552 O   0  0  0  0  0  0  0  0  0  0  0  0
   10.9126   13.1963    4.3031 H   0  0  0  0  0  0  0  0  0  0  0  0
   10.3935   14.8202    7.2468 C   0  0  0  0  0  0  0  0  0  0  0  0
   11.7507   15.1815    7.7861 C   0  0  0  0  0  0  0  0  0  0  0  0
   12.9544   15.2697    6.9686 C   0  0  0  0  0  0  0  0  0  0  0  0
   14.1928   14.5372    7.4200 N   0  0  0  0  0  0  0  0  0  0  0  0
   14.5255   14.9397    8.2962 H   0  0  0  0  0  0  0  0  0  0  0  0
   14.9183   14.6252    6.7084 H   0  0  0  0  0  0  0  0  0  0  0  0
  3  4  2  0  0  0
  3  5  1  0  0  0
  3  2  1  0  0  0
  2  1  1  0  0  0
  1  7  1  0  0  0
  7  8  1  0  0  0
  8  9  1  0  0  0
  9 10  1  0  0  0
  5  6  1  0  0  0
 10 11  1  0  0  0
 10 12  1  0  0  0
M  END
> <minimizedAffinity>
-4.44923

$$$$
3KIV_ACA_A_100


 12 11  0  0  0  0  0  0  0  0999 V2000
   10.2483   13.8675    6.5252 C   0  0  0  0  0  0  0  0  0  0  0  0
   10.9223   14.8766    7.5140 C   0  0  0  0  0  0  0  0  0  0  0  0
   12.2941   15.2382    6.8902 C   0  0  0  0  0  0  0  0  0  0  0  0
   12.1935   15.8886    5.7956 O   0  0  0  0  0  0  0  0  0  0  0  0
   13.3252   14.9529    7.5435 O   0  0  0  0  0  0  0  0  0  0  0  0
   13.2550   14.4644    8.3400 H   0  0  0  0  0  0  0  0  0  0  0  0
    8.9303   14.4780    5.9827 C   0  0  0  0  0  0  0  0  0  0  0  0
    8.9393   14.6693    4.4906 C   0  0  0  0  0  0  0  0  0  0  0  0
    9.0831   13.5813    3.5311 C   0  0  0  0  0  0  0  0  0  0  0  0
    7.9049   12.6736    3.2821 N   0  0  0  0  0  0  0  0  0  0  0  0
    7.6911   12.1529    4.1326 H   0  0  0  0  0  0  0  0  0  0  0  0
    8.1313   12.0209    2.5316 H   0  0  0  0  0  0  0  0  0  0  0  0
  3  4  2  0  0  0
  3  5  1  0  0  0
  3  2  1  0  0  0
  2  1  1  0  0  0
  1  7  1  0  0  0
  7  8  1  0  0  0
  8  9  1  0  0  0
  9 10  1  0  0  0
  5  6  1  0  0  0
 10 11  1  0  0  0
 10 12  1  0  0  0
M  END
> <minimizedAffinity>
-4.41906

$$$$
3KIV_ACA_A_100


 12 11  0  0  0  0  0  0  0  0999 V2000
   10.3076   13.6019    6.2119 C   0  0  0  0  0  0  0  0  0  0  0  0
   10.2571   14.8565    7.1466 C   0  0  0  0  0  0  0  0  0  0  0  0
   11.7210   15.1342    7.5728 C   0  0  0  0  0  0  0  0  0  0  0  0
   12.4631   15.5152    6.6056 O   0  0  0  0  0  0  0  0  0  0  0  0
   11.9985   15.0539    8.7926 O   0  0  0  0  0  0  0  0  0  0  0  0
   11.3521   14.7549    9.4014 H   0  0  0  0  0  0  0  0  0  0  0  0
    9.1262   13.6567    5.2093 C   0  0  0  0  0  0  0  0  0  0  0  0
    9.0982   14.9242    4.3993 C   0  0  0  0  0  0  0  0  0  0  0  0
   10.1421   15.3125    3.4589 C   0  0  0  0  0  0  0  0  0  0  0  0
   11.1837   16.3086    3.9024 N   0  0  0  0  0  0  0  0  0  0  0  0
   10.7392   17.2095    4.0790 H   0  0  0  0  0  0  0  0  0  0  0  0
   11.8867   16.4140    3.1708 H   0  0  0  0  0  0  0  0  0  0  0  0
  3  4  2  0  0  0
  3  5  1  0  0  0
  3  2  1  0  0  0
  2  1  1  0  0  0
  1  7  1  0  0  0
  7  8  1  0  0  0
  8  9  1  0  0  0
  9 10  1  0  0  0
  5  6  1  0  0  0
 10 11  1  0  0  0
 10 12  1  0  0  0
M  END
> <minimizedAffinity>
-4.38215

$$$$
3KIV_ACA_A_100


 12 11  0  0  0  0  0  0  0  0999 V2000
   10.2506   13.8978    6.4187 C   0  0  0  0  0  0  0  0  0  0  0  0
    8.8889   14.4603    5.8899 C   0  0  0  0  0  0  0  0  0  0  0  0
    9.0164   14.5135    4.3463 C   0  0  0  0  0  0  0  0  0  0  0  0
    8.2660   13.6693    3.7499 O   0  0  0  0  0  0  0  0  0  0  0  0
    9.7412   15.4086    3.8515 O   0  0  0  0  0  0  0  0  0  0  0  0
   10.2463   15.9651    4.4111 H   0  0  0  0  0  0  0  0  0  0  0  0
   10.8387   14.8729    7.4711 C   0  0  0  0  0  0  0  0  0  0  0  0
   12.2536   15.2845    7.1681 C   0  0  0  0  0  0  0  0  0  0  0  0
   12.8126   15.3487    5.8234 C   0  0  0  0  0  0  0  0  0  0  0  0
   12.2968   16.3998    4.8730 N   0  0  0  0  0  0  0  0  0  0  0  0
   11.3151   16.2175    4.6647 H   0  0  0  0  0  0  0  0  0  0  0  0
   12.8385   16.3724    4.0092 H   0  0  0  0  0  0  0  0  0  0  0  0
  3  4  2  0  0  0
  3  5  1  0  0  0
  3  2  1  0  0  0
  2  1  1  0  0  0
  1  7  1  0  0  0
  7  8  1  0  0  0
  8  9  1  0  0  0
  9 10  1  0  0  0
  5  6  1  0  0  0
 10 11  1  0  0  0
 10 12  1  0  0  0
M  END
> <minimizedAffinity>
-4.28361

$$$$
3KIV_ACA_A_100


 12 11  0  0  0  0  0  0  0  0999 V2000
    9.2519   14.7268    4.7567 C   0  0  0  0  0  0  0  0  0  0  0  0
    8.6331   13.4229    4.1508 C   0  0  0  0  0  0  0  0  0  0  0  0
    9.1331   13.3505    2.6857 C   0  0  0  0  0  0  0  0  0  0  0  0
   10.4057   13.3935    2.5855 O   0  0  0  0  0  0  0  0  0  0  0  0
    8.2793   13.1670    1.7864 O   0  0  0  0  0  0  0  0  0  0  0  0
    7.3672   13.1590    2.0010 H   0  0  0  0  0  0  0  0  0  0  0  0
    9.4118   14.5588    6.2897 C   0  0  0  0  0  0  0  0  0  0  0  0
   10.8105   14.8340    6.7705 C   0  0  0  0  0  0  0  0  0  0  0  0
   12.0127   14.4202    6.0574 C   0  0  0  0  0  0  0  0  0  0  0  0
   12.2498   12.9486    5.8288 N   0  0  0  0  0  0  0  0  0  0  0  0
   12.3886   12.4832    6.7258 H   0  0  0  0  0  0  0  0  0  0  0  0
   13.0798   12.8240    5.2492 H   0  0  0  0  0  0  0  0  0  0  0  0
  3  4  2  0  0  0
  3  5  1  0  0  0
  3  2  1  0  0  0
  2  1  1  0  0  0
  1  7  1  0  0  0
  7  8  1  0  0  0
  8  9  1  0  0  0
  9 10  1  0  0  0
  5  6  1  0  0  0
 10 11  1  0  0  0
 10 12  1  0  0  0
M  END
> <minimizedAffinity>
-3.77505

$$$$
3KIV_ACA_A_100


 12 11  0  0  0  0  0  0  0  0999 V2000
   10.8616   14.2526    3.8551 C   0  0  0  0  0  0  0  0  0  0  0  0
    9.4943   14.5087    3.1372 C   0  0  0  0  0  0  0  0  0  0  0  0
    8.6825   13.1962    3.2781 C   0  0  0  0  0  0  0  0  0  0  0  0
    8.1194   12.8335    2.1905 O   0  0  0  0  0  0  0  0  0  0  0  0
    8.7352   12.5928    4.3755 O   0  0  0  0  0  0  0  0  0  0  0  0
    9.1868   12.9778    5.1007 H   0  0  0  0  0  0  0  0  0  0  0  0
   10.9701   15.1681    5.1017 C   0  0  0  0  0  0  0  0  0  0  0  0
   11.0767   14.3994    6.3905 C   0  0  0  0  0  0  0  0  0  0  0  0
   10.8272   14.9766    7.7057 C   0  0  0  0  0  0  0  0  0  0  0  0
   11.9581   15.0268    8.7019 N   0  0  0  0  0  0  0  0  0  0  0  0
   12.2289   14.0770    8.9570 H   0  0  0  0  0  0  0  0  0  0  0  0
   11.6544   15.5293    9.5360 H   0  0  0  0  0  0  0  0  0  0  0  0
  3  4  2  0  0  0
  3  5  1  0  0  0
  3  2  1  0  0  0
  2  1  1  0  0  0
  1  7  1  0  0  0
  7  8  1  0  0  0
  8  9  1  0  0  0
  9 10  1  0  0  0
  5  6  1  0  0  0
 10 11  1  0  0  0
 10 12  1  0  0  0
M  END
> <minimizedAffinity>
-3.72111

$$$$
3KIV_ACA_A_100


 12 11  0  0  0  0  0  0  0  0999 V2000
   11.8017   15.2932    5.9857 C   0  0  0  0  0  0  0  0  0  0  0  0
   13.0821   15.7390    6.7682 C   0  0  0  0  0  0  0  0  0  0  0  0
   14.0596   14.5376    6.7128 C   0  0  0  0  0  0  0  0  0  0  0  0
   14.2895   14.1303    5.5242 O   0  0  0  0  0  0  0  0  0  0  0  0
   14.5823   14.1610    7.7881 O   0  0  0  0  0  0  0  0  0  0  0  0
   14.3175   14.5490    8.5988 H   0  0  0  0  0  0  0  0  0  0  0  0
   10.7620   14.7176    6.9815 C   0  0  0  0  0  0  0  0  0  0  0  0
    9.3925   14.5601    6.3789 C   0  0  0  0  0  0  0  0  0  0  0  0
    9.1479   14.3500    4.9573 C   0  0  0  0  0  0  0  0  0  0  0  0
    9.0372   12.9373    4.4415 N   0  0  0  0  0  0  0  0  0  0  0  0
    9.9331   12.4629    4.5546 H   0  0  0  0  0  0  0  0  0  0  0  0
    8.7841   12.9549    3.4536 H   0  0  0  0  0  0  0  0  0  0  0  0
  3  4  2  0  0  0
  3  5  1  0  0  0
  3  2  1  0  0  0
  2  1  1  0  0  0
  1  7  1  0  0  0
  7  8  1  0  0  0
  8  9  1  0  0  0
  9 10  1  0  0  0
  5  6  1  0  0  0
 10 11  1  0  0  0
 10 12  1  0  0  0
M  END
> <minimizedAffinity>
-3.70786

$$$$
3KIV_ACA_A_100


 12 11  0  0  0  0  0  0  0  0999 V2000
    8.9052   14.5575    4.5565 C   0  0  0  0  0  0  0  0  0  0  0  0
    9.0683   14.4765    6.1112 C   0  0  0  0  0  0  0  0  0  0  0  0
   10.5710   14.2010    6.3719 C   0  0  0  0  0  0  0  0  0  0  0  0
   11.2875   15.2581    6.3512 O   0  0  0  0  0  0  0  0  0  0  0  0
   10.9073   13.0286    6.6612 O   0  0  0  0  0  0  0  0  0  0  0  0
   10.2731   12.3393    6.6353 H   0  0  0  0  0  0  0  0  0  0  0  0
    8.5550   13.1534    3.9999 C   0  0  0  0  0  0  0  0  0  0  0  0
    9.0539   12.9335    2.5977 C   0  0  0  0  0  0  0  0  0  0  0  0
    8.8473   11.7032    1.8437 C   0  0  0  0  0  0  0  0  0  0  0  0
    7.6508   11.6042    0.9313 N   0  0  0  0  0  0  0  0  0  0  0  0
    6.7960   11.6349    1.4870 H   0  0  0  0  0  0  0  0  0  0  0  0
    7.6890   10.7256    0.4146 H   0  0  0  0  0  0  0  0  0  0  0  0
  3  4  2  0  0  0
  3  5  1  0  0  0
  3  2  1  0  0  0
  2  1  1  0  0  0
  1  7  1  0  0  0
  7  8  1  0  0  0
  8  9  1  0  0  0
  9 10  1  0  0  0
  5  6  1  0  0  0
 10 11  1  0  0  0
 10 12  1  0  0  0
M  END
> <minimizedAffinity>
-3.64203

$$$$
3KIV_ACA_A_100


 12 11  0  0  0  0  0  0  0  0999 V2000
   12.3007   15.6449    5.3817 C   0  0  0  0  0  0  0  0  0  0  0  0
   10.8217   15.1572    5.5395 C   0  0  0  0  0  0  0  0  0  0  0  0
   10.7883   14.2955    6.8272 C   0  0  0  0  0  0  0  0  0  0  0  0
   10.7207   14.9908    7.8964 O   0  0  0  0  0  0  0  0  0  0  0  0
   10.7357   13.0501    6.6944 O   0  0  0  0  0  0  0  0  0  0  0  0
   10.7987   12.6668    5.8417 H   0  0  0  0  0  0  0  0  0  0  0  0
   12.9041   15.0528    4.0820 C   0  0  0  0  0  0  0  0  0  0  0  0
   13.9977   14.0528    4.3417 C   0  0  0  0  0  0  0  0  0  0  0  0
   14.1226   13.2848    5.5744 C   0  0  0  0  0  0  0  0  0  0  0  0
   13.3670   11.9857    5.6991 N   0  0  0  0  0  0  0  0  0  0  0  0
   12.3644   12.1734    5.6903 H   0  0  0  0  0  0  0  0  0  0  0  0
   13.6196   11.5283    6.5751 H   0  0  0  0  0  0  0  0  0  0  0  0
  3  4  2  0  0  0
  3  5  1  0  0  0
  3  2  1  0  0  0
  2  1  1  0  0  0
  1  7  1  0  0  0
  7  8  1  0  0  0
  8  9  1  0  0  0
  9 10  1  0  0  0
  5  6  1  0  0  0
 10 11  1  0  0  0
 10 12  1  0  0  0
M  END
> <minimizedAffinity>
-3.60087

$$$$
3KIV_ACA_A_100


 12 11  0  0  0  0  0  0  0  0999 V2000
    8.5818   12.3247    3.2409 C   0  0  0  0  0  0  0  0  0  0  0  0
    7.4804   11.3880    3.8407 C   0  0  0  0  0  0  0  0  0  0  0  0
    7.2406   10.2770    2.7871 C   0  0  0  0  0  0  0  0  0  0  0  0
    7.3638    9.0978    3.2621 O   0  0  0  0  0  0  0  0  0  0  0  0
    6.8697   10.6290    1.6426 O   0  0  0  0  0  0  0  0  0  0  0  0
    6.8240   11.5390    1.4241 H   0  0  0  0  0  0  0  0  0  0  0  0
    8.6418   13.6409    4.0581 C   0  0  0  0  0  0  0  0  0  0  0  0
    9.3339   13.4807    5.3842 C   0  0  0  0  0  0  0  0  0  0  0  0
    9.7061   14.5944    6.2481 C   0  0  0  0  0  0  0  0  0  0  0  0
   10.7943   14.3865    7.2710 N   0  0  0  0  0  0  0  0  0  0  0  0
   10.4855   13.7023    7.9616 H   0  0  0  0  0  0  0  0  0  0  0  0
   10.9973   15.2712    7.7362 H   0  0  0  0  0  0  0  0  0  0  0  0
  3  4  2  0  0  0
  3  5  1  0  0  0
  3  2  1  0  0  0
  2  1  1  0  0  0
  1  7  1  0  0  0
  7  8  1  0  0  0
  8  9  1  0  0  0
  9 10  1  0  0  0
  5  6  1  0  0  0
 10 11  1  0  0  0
 10 12  1  0  0  0
M  END
> <minimizedAffinity>
-3.58961

$$$$
