4R75_S7P_A_401


 25 25  0  0  0  0  0  0  0  0999 V2000
  -14.2399   -9.8747   13.7542 C   0  0  0  0  0  0  0  0  0  0  0  0
  -13.5246  -10.9146   14.2738 O   0  0  0  0  0  0  0  0  0  0  0  0
  -13.8300   -9.5963   12.3878 O   0  0  0  0  0  0  0  0  0  0  0  0
  -13.0331   -8.3880   12.3410 C   0  0  0  0  0  0  0  0  0  0  0  0
  -12.6357   -8.1956   13.7841 C   0  0  0  0  0  0  0  0  0  0  0  0
  -12.2781   -6.7788   14.0659 O   0  0  0  0  0  0  0  0  0  0  0  0
  -13.8884   -8.5856   14.4608 C   0  0  0  0  0  0  0  0  0  0  0  0
  -13.7887   -8.7267   15.8672 O   0  0  0  0  0  0  0  0  0  0  0  0
  -13.7612  -11.7333   13.8104 H   0  0  0  0  0  0  0  0  0  0  0  0
  -13.0167   -6.2027   13.8140 H   0  0  0  0  0  0  0  0  0  0  0  0
  -13.1222   -9.3991   16.0782 H   0  0  0  0  0  0  0  0  0  0  0  0
  -16.2949  -10.2246   15.0636 O   0  0  0  0  0  0  0  0  0  0  0  0
  -15.7608  -10.1816   13.7238 C   0  0  0  0  0  0  0  0  0  0  0  0
  -17.2449  -10.4171   15.0270 H   0  0  0  0  0  0  0  0  0  0  0  0
  -11.9295   -8.6173   11.3806 C   0  0  0  0  0  0  0  0  0  0  0  0
  -11.1137   -7.4784   11.3042 O   0  0  0  0  0  0  0  0  0  0  0  0
  -11.6314   -6.7320   10.9639 H   0  0  0  0  0  0  0  0  0  0  0  0
  -12.4379   -8.9633    9.8814 C   0  0  0  0  0  0  0  0  0  0  0  0
  -11.7243   -8.1803    8.9691 O   0  0  0  0  0  0  0  0  0  0  0  0
  -10.7394   -8.8572    7.9145 P   0  0  0  0  0  0  0  0  0  0  0  0
   -9.8601   -9.7409    8.7516 O   0  0  0  0  0  0  0  0  0  0  0  0
   -9.9780   -7.7671    7.2002 O   0  0  0  0  0  0  0  0  0  0  0  0
  -11.5560   -9.6786    6.9266 O   0  0  0  0  0  0  0  0  0  0  0  0
   -9.3736   -8.1648    6.5541 H   0  0  0  0  0  0  0  0  0  0  0  0
  -10.9617  -10.0933    6.2818 H   0  0  0  0  0  0  0  0  0  0  0  0
 21 20  2  0  0  0
 22 20  1  0  0  0
 20 23  1  0  0  0
 20 19  1  0  0  0
 19 18  1  0  0  0
 18 15  1  0  0  0
 16 15  1  0  0  0
 15  4  1  0  0  0
  3  4  1  0  0  0
  3  1  1  0  0  0
  4  5  1  0  0  0
 13  1  1  0  0  0
 13 12  1  0  0  0
  1  2  1  0  0  0
  1  7  1  0  0  0
  5  6  1  0  0  0
  5  7  1  0  0  0
  7  8  1  0  0  0
 12 14  1  0  0  0
  2  9  1  0  0  0
 16 17  1  0  0  0
 22 24  1  0  0  0
 23 25  1  0  0  0
  6 10  1  0  0  0
  8 11  1  0  0  0
M  END
> <minimizedAffinity>
-10.07901

$$$$
4R75_S7P_A_401


 25 25  0  0  0  0  0  0  0  0999 V2000
  -14.5995   -9.4854   13.6745 C   0  0  0  0  0  0  0  0  0  0  0  0
  -14.0100  -10.5087   14.3589 O   0  0  0  0  0  0  0  0  0  0  0  0
  -14.7982   -9.8426   12.2796 O   0  0  0  0  0  0  0  0  0  0  0  0
  -13.8369   -9.1526   11.4448 C   0  0  0  0  0  0  0  0  0  0  0  0
  -12.7953   -8.7022   12.4396 C   0  0  0  0  0  0  0  0  0  0  0  0
  -12.0095   -7.5498   11.9207 O   0  0  0  0  0  0  0  0  0  0  0  0
  -13.6584   -8.3073   13.5703 C   0  0  0  0  0  0  0  0  0  0  0  0
  -12.9710   -8.0307   14.7781 O   0  0  0  0  0  0  0  0  0  0  0  0
  -14.6259  -11.2559   14.4169 H   0  0  0  0  0  0  0  0  0  0  0  0
  -12.6129   -6.8303   11.6777 H   0  0  0  0  0  0  0  0  0  0  0  0
  -12.4718   -8.8156   15.0531 H   0  0  0  0  0  0  0  0  0  0  0  0
  -16.3946  -10.1096   15.2391 O   0  0  0  0  0  0  0  0  0  0  0  0
  -15.9919   -9.1291   14.2600 C   0  0  0  0  0  0  0  0  0  0  0  0
  -17.2654   -9.8727   15.5948 H   0  0  0  0  0  0  0  0  0  0  0  0
  -13.3840  -10.1042   10.4046 C   0  0  0  0  0  0  0  0  0  0  0  0
  -12.1694  -10.6934   10.7875 O   0  0  0  0  0  0  0  0  0  0  0  0
  -11.4860  -10.0086   10.8582 H   0  0  0  0  0  0  0  0  0  0  0  0
  -13.1657   -9.4197    8.9522 C   0  0  0  0  0  0  0  0  0  0  0  0
  -12.2126   -8.4035    9.0689 O   0  0  0  0  0  0  0  0  0  0  0  0
  -10.6644   -8.7139    8.8522 P   0  0  0  0  0  0  0  0  0  0  0  0
  -10.6408  -10.1385    8.3782 O   0  0  0  0  0  0  0  0  0  0  0  0
   -9.9460   -8.5126   10.1644 O   0  0  0  0  0  0  0  0  0  0  0  0
  -10.1127   -7.7756    7.7878 O   0  0  0  0  0  0  0  0  0  0  0  0
   -9.0012   -8.6983   10.0476 H   0  0  0  0  0  0  0  0  0  0  0  0
   -9.1702   -7.9598    7.6515 H   0  0  0  0  0  0  0  0  0  0  0  0
 21 20  2  0  0  0
 22 20  1  0  0  0
 20 23  1  0  0  0
 20 19  1  0  0  0
 19 18  1  0  0  0
 18 15  1  0  0  0
 16 15  1  0  0  0
 15  4  1  0  0  0
  3  4  1  0  0  0
  3  1  1  0  0  0
  4  5  1  0  0  0
 13  1  1  0  0  0
 13 12  1  0  0  0
  1  2  1  0  0  0
  1  7  1  0  0  0
  5  6  1  0  0  0
  5  7  1  0  0  0
  7  8  1  0  0  0
 12 14  1  0  0  0
  2  9  1  0  0  0
 16 17  1  0  0  0
 22 24  1  0  0  0
 23 25  1  0  0  0
  6 10  1  0  0  0
  8 11  1  0  0  0
M  END
> <minimizedAffinity>
-9.49073

$$$$
4R75_S7P_A_401


 25 25  0  0  0  0  0  0  0  0999 V2000
  -11.6259   -9.2918    8.4342 C   0  0  0  0  0  0  0  0  0  0  0  0
  -10.9378  -10.4100    8.8072 O   0  0  0  0  0  0  0  0  0  0  0  0
  -11.3523   -8.1893    9.3409 O   0  0  0  0  0  0  0  0  0  0  0  0
  -12.4882   -7.9628   10.2101 C   0  0  0  0  0  0  0  0  0  0  0  0
  -13.2767   -9.2416   10.0669 C   0  0  0  0  0  0  0  0  0  0  0  0
  -14.7065   -9.0428   10.4287 O   0  0  0  0  0  0  0  0  0  0  0  0
  -13.1114   -9.4975    8.6225 C   0  0  0  0  0  0  0  0  0  0  0  0
  -13.5610  -10.7683    8.1858 O   0  0  0  0  0  0  0  0  0  0  0  0
   -9.9875  -10.2622    8.6806 H   0  0  0  0  0  0  0  0  0  0  0  0
  -15.0791   -8.3258    9.8921 H   0  0  0  0  0  0  0  0  0  0  0  0
  -13.0791  -11.4628    8.6615 H   0  0  0  0  0  0  0  0  0  0  0  0
  -10.0998   -7.9285    7.0658 O   0  0  0  0  0  0  0  0  0  0  0  0
  -11.2309   -8.8227    7.0086 C   0  0  0  0  0  0  0  0  0  0  0  0
   -9.8661   -7.6450    6.1681 H   0  0  0  0  0  0  0  0  0  0  0  0
  -11.9638   -7.6620   11.5618 C   0  0  0  0  0  0  0  0  0  0  0  0
  -10.6626   -7.1452   11.4691 O   0  0  0  0  0  0  0  0  0  0  0  0
  -10.0758   -7.8141   11.0828 H   0  0  0  0  0  0  0  0  0  0  0  0
  -11.9148   -8.9536   12.5391 C   0  0  0  0  0  0  0  0  0  0  0  0
  -12.3963   -8.5867   13.7993 O   0  0  0  0  0  0  0  0  0  0  0  0
  -13.7681   -9.1831   14.3494 P   0  0  0  0  0  0  0  0  0  0  0  0
  -14.7956   -8.7021   13.3657 O   0  0  0  0  0  0  0  0  0  0  0  0
  -13.9932   -8.6595   15.7471 O   0  0  0  0  0  0  0  0  0  0  0  0
  -13.6847  -10.7032   14.3517 O   0  0  0  0  0  0  0  0  0  0  0  0
  -14.8259   -9.0148   16.0953 H   0  0  0  0  0  0  0  0  0  0  0  0
  -14.5173  -11.0722   14.6857 H   0  0  0  0  0  0  0  0  0  0  0  0
 21 20  2  0  0  0
 22 20  1  0  0  0
 20 23  1  0  0  0
 20 19  1  0  0  0
 19 18  1  0  0  0
 18 15  1  0  0  0
 16 15  1  0  0  0
 15  4  1  0  0  0
  3  4  1  0  0  0
  3  1  1  0  0  0
  4  5  1  0  0  0
 13  1  1  0  0  0
 13 12  1  0  0  0
  1  2  1  0  0  0
  1  7  1  0  0  0
  5  6  1  0  0  0
  5  7  1  0  0  0
  7  8  1  0  0  0
 12 14  1  0  0  0
  2  9  1  0  0  0
 16 17  1  0  0  0
 22 24  1  0  0  0
 23 25  1  0  0  0
  6 10  1  0  0  0
  8 11  1  0  0  0
M  END
> <minimizedAffinity>
-9.38612

$$$$
4R75_S7P_A_401


 25 25  0  0  0  0  0  0  0  0999 V2000
  -14.1031   -8.6068   13.5155 C   0  0  0  0  0  0  0  0  0  0  0  0
  -14.2444   -7.2534   13.6220 O   0  0  0  0  0  0  0  0  0  0  0  0
  -13.3133   -8.9542   12.3459 O   0  0  0  0  0  0  0  0  0  0  0  0
  -14.1681   -9.4868   11.3053 C   0  0  0  0  0  0  0  0  0  0  0  0
  -15.5429   -9.0490   11.7478 C   0  0  0  0  0  0  0  0  0  0  0  0
  -16.6046   -9.9045   11.1515 O   0  0  0  0  0  0  0  0  0  0  0  0
  -15.4329   -9.2548   13.2055 C   0  0  0  0  0  0  0  0  0  0  0  0
  -16.5050   -8.7256   13.9659 O   0  0  0  0  0  0  0  0  0  0  0  0
  -13.3836   -6.8530   13.8208 H   0  0  0  0  0  0  0  0  0  0  0  0
  -16.4325  -10.8335   11.3711 H   0  0  0  0  0  0  0  0  0  0  0  0
  -16.5708   -7.7703   13.8109 H   0  0  0  0  0  0  0  0  0  0  0  0
  -14.0273   -8.7822   15.9698 O   0  0  0  0  0  0  0  0  0  0  0  0
  -13.3825   -9.2084   14.7513 C   0  0  0  0  0  0  0  0  0  0  0  0
  -13.5655   -9.1662   16.7315 H   0  0  0  0  0  0  0  0  0  0  0  0
  -13.6900   -8.9446   10.0130 C   0  0  0  0  0  0  0  0  0  0  0  0
  -14.0517   -9.8062    8.9663 O   0  0  0  0  0  0  0  0  0  0  0  0
  -13.6164  -10.6643    9.0889 H   0  0  0  0  0  0  0  0  0  0  0  0
  -12.0840   -8.7388    9.9520 C   0  0  0  0  0  0  0  0  0  0  0  0
  -11.7482   -8.1556    8.7265 O   0  0  0  0  0  0  0  0  0  0  0  0
  -10.7938   -8.9151    7.7005 P   0  0  0  0  0  0  0  0  0  0  0  0
  -11.7299   -9.7706    6.8963 O   0  0  0  0  0  0  0  0  0  0  0  0
   -9.7843   -9.7160    8.4864 O   0  0  0  0  0  0  0  0  0  0  0  0
  -10.0966   -7.8900    6.8169 O   0  0  0  0  0  0  0  0  0  0  0  0
   -9.1957  -10.1844    7.8740 H   0  0  0  0  0  0  0  0  0  0  0  0
   -9.5140   -8.3465    6.1899 H   0  0  0  0  0  0  0  0  0  0  0  0
 21 20  2  0  0  0
 22 20  1  0  0  0
 20 23  1  0  0  0
 20 19  1  0  0  0
 19 18  1  0  0  0
 18 15  1  0  0  0
 16 15  1  0  0  0
 15  4  1  0  0  0
  3  4  1  0  0  0
  3  1  1  0  0  0
  4  5  1  0  0  0
 13  1  1  0  0  0
 13 12  1  0  0  0
  1  2  1  0  0  0
  1  7  1  0  0  0
  5  6  1  0  0  0
  5  7  1  0  0  0
  7  8  1  0  0  0
 12 14  1  0  0  0
  2  9  1  0  0  0
 16 17  1  0  0  0
 22 24  1  0  0  0
 23 25  1  0  0  0
  6 10  1  0  0  0
  8 11  1  0  0  0
M  END
> <minimizedAffinity>
-8.99536

$$$$
4R75_S7P_A_401


 25 25  0  0  0  0  0  0  0  0999 V2000
  -14.4219   -8.6021   13.1476 C   0  0  0  0  0  0  0  0  0  0  0  0
  -15.5460   -8.6537   12.3751 O   0  0  0  0  0  0  0  0  0  0  0  0
  -13.3595   -7.8797   12.4678 O   0  0  0  0  0  0  0  0  0  0  0  0
  -12.3542   -8.8044   11.9867 C   0  0  0  0  0  0  0  0  0  0  0  0
  -13.0710  -10.1315   12.0388 C   0  0  0  0  0  0  0  0  0  0  0  0
  -12.1107  -11.2665   12.1039 O   0  0  0  0  0  0  0  0  0  0  0  0
  -13.8217   -9.9807   13.3009 C   0  0  0  0  0  0  0  0  0  0  0  0
  -14.7874  -10.9883   13.5454 O   0  0  0  0  0  0  0  0  0  0  0  0
  -15.9185   -7.7625   12.2864 H   0  0  0  0  0  0  0  0  0  0  0  0
  -11.5178  -11.1454   12.8620 H   0  0  0  0  0  0  0  0  0  0  0  0
  -15.4335  -10.9993   12.8220 H   0  0  0  0  0  0  0  0  0  0  0  0
  -14.1813   -8.6595   15.5968 O   0  0  0  0  0  0  0  0  0  0  0  0
  -14.6825   -7.8755   14.4939 C   0  0  0  0  0  0  0  0  0  0  0  0
  -14.3518   -8.1921   16.4296 H   0  0  0  0  0  0  0  0  0  0  0  0
  -11.9253   -8.3414   10.6472 C   0  0  0  0  0  0  0  0  0  0  0  0
  -12.4052   -7.0444   10.4100 O   0  0  0  0  0  0  0  0  0  0  0  0
  -13.3752   -7.0542   10.4063 H   0  0  0  0  0  0  0  0  0  0  0  0
  -12.4423   -9.2890    9.4388 C   0  0  0  0  0  0  0  0  0  0  0  0
  -12.1087   -8.6912    8.2198 O   0  0  0  0  0  0  0  0  0  0  0  0
  -10.7231   -9.0228    7.5053 P   0  0  0  0  0  0  0  0  0  0  0  0
  -10.0293   -9.9457    8.4653 O   0  0  0  0  0  0  0  0  0  0  0  0
   -9.9774   -7.7299    7.2803 O   0  0  0  0  0  0  0  0  0  0  0  0
  -11.0003   -9.7210    6.1812 O   0  0  0  0  0  0  0  0  0  0  0  0
   -9.1306   -7.9165    6.8454 H   0  0  0  0  0  0  0  0  0  0  0  0
  -10.1603   -9.9255    5.7414 H   0  0  0  0  0  0  0  0  0  0  0  0
 21 20  2  0  0  0
 22 20  1  0  0  0
 20 23  1  0  0  0
 20 19  1  0  0  0
 19 18  1  0  0  0
 18 15  1  0  0  0
 16 15  1  0  0  0
 15  4  1  0  0  0
  3  4  1  0  0  0
  3  1  1  0  0  0
  4  5  1  0  0  0
 13  1  1  0  0  0
 13 12  1  0  0  0
  1  2  1  0  0  0
  1  7  1  0  0  0
  5  6  1  0  0  0
  5  7  1  0  0  0
  7  8  1  0  0  0
 12 14  1  0  0  0
  2  9  1  0  0  0
 16 17  1  0  0  0
 22 24  1  0  0  0
 23 25  1  0  0  0
  6 10  1  0  0  0
  8 11  1  0  0  0
M  END
> <minimizedAffinity>
-8.71031

$$$$
4R75_S7P_A_401


 25 25  0  0  0  0  0  0  0  0999 V2000
  -13.2759   -9.1155    9.7694 C   0  0  0  0  0  0  0  0  0  0  0  0
  -13.9449   -8.0006    9.3541 O   0  0  0  0  0  0  0  0  0  0  0  0
  -13.3679   -9.2669   11.2121 O   0  0  0  0  0  0  0  0  0  0  0  0
  -12.1074   -8.9167   11.8332 C   0  0  0  0  0  0  0  0  0  0  0  0
  -11.4003   -8.1510   10.7417 C   0  0  0  0  0  0  0  0  0  0  0  0
   -9.9259   -8.1519   10.9438 O   0  0  0  0  0  0  0  0  0  0  0  0
  -11.7883   -8.9481    9.5613 C   0  0  0  0  0  0  0  0  0  0  0  0
  -11.4593   -8.3650    8.3125 O   0  0  0  0  0  0  0  0  0  0  0  0
  -14.8968   -8.1237    9.4942 H   0  0  0  0  0  0  0  0  0  0  0  0
   -9.6089   -9.0664   11.0081 H   0  0  0  0  0  0  0  0  0  0  0  0
  -11.8924   -7.5005    8.2352 H   0  0  0  0  0  0  0  0  0  0  0  0
  -13.7614  -10.3501    7.6958 O   0  0  0  0  0  0  0  0  0  0  0  0
  -13.8593  -10.4058    9.1343 C   0  0  0  0  0  0  0  0  0  0  0  0
  -14.1297  -11.1626    7.3149 H   0  0  0  0  0  0  0  0  0  0  0  0
  -12.4130   -8.1645   13.0715 C   0  0  0  0  0  0  0  0  0  0  0  0
  -12.2656   -8.9988   14.1900 O   0  0  0  0  0  0  0  0  0  0  0  0
  -12.9059   -9.7255   14.1379 H   0  0  0  0  0  0  0  0  0  0  0  0
  -13.9135   -7.5537   13.1040 C   0  0  0  0  0  0  0  0  0  0  0  0
  -14.5940   -8.0821   14.2051 O   0  0  0  0  0  0  0  0  0  0  0  0
  -15.6511   -9.2601   14.0172 P   0  0  0  0  0  0  0  0  0  0  0  0
  -16.8403   -8.8143   14.8184 O   0  0  0  0  0  0  0  0  0  0  0  0
  -15.0378  -10.5415   14.5272 O   0  0  0  0  0  0  0  0  0  0  0  0
  -16.0027   -9.3826   12.5410 O   0  0  0  0  0  0  0  0  0  0  0  0
  -15.6709  -11.2684   14.4191 H   0  0  0  0  0  0  0  0  0  0  0  0
  -16.6462  -10.0983   12.4203 H   0  0  0  0  0  0  0  0  0  0  0  0
 21 20  2  0  0  0
 22 20  1  0  0  0
 20 23  1  0  0  0
 20 19  1  0  0  0
 19 18  1  0  0  0
 18 15  1  0  0  0
 16 15  1  0  0  0
 15  4  1  0  0  0
  3  4  1  0  0  0
  3  1  1  0  0  0
  4  5  1  0  0  0
 13  1  1  0  0  0
 13 12  1  0  0  0
  1  2  1  0  0  0
  1  7  1  0  0  0
  5  6  1  0  0  0
  5  7  1  0  0  0
  7  8  1  0  0  0
 12 14  1  0  0  0
  2  9  1  0  0  0
 16 17  1  0  0  0
 22 24  1  0  0  0
 23 25  1  0  0  0
  6 10  1  0  0  0
  8 11  1  0  0  0
M  END
> <minimizedAffinity>
-8.68870

$$$$
4R75_S7P_A_401


 25 25  0  0  0  0  0  0  0  0999 V2000
  -15.2076   -9.4579   14.1446 C   0  0  0  0  0  0  0  0  0  0  0  0
  -14.7672  -10.7326   14.3553 O   0  0  0  0  0  0  0  0  0  0  0  0
  -15.2094   -9.1389   12.7266 O   0  0  0  0  0  0  0  0  0  0  0  0
  -14.1080   -8.2527   12.4119 C   0  0  0  0  0  0  0  0  0  0  0  0
  -13.2100   -8.3977   13.6162 C   0  0  0  0  0  0  0  0  0  0  0  0
  -12.3114   -7.2214   13.7697 O   0  0  0  0  0  0  0  0  0  0  0  0
  -14.2164   -8.4581   14.6945 C   0  0  0  0  0  0  0  0  0  0  0  0
  -13.7071   -8.8160   15.9674 O   0  0  0  0  0  0  0  0  0  0  0  0
  -15.4133  -11.3613   13.9973 H   0  0  0  0  0  0  0  0  0  0  0  0
  -12.8433   -6.4113   13.8102 H   0  0  0  0  0  0  0  0  0  0  0  0
  -13.2855   -9.6879   15.9134 H   0  0  0  0  0  0  0  0  0  0  0  0
  -16.9831  -10.2562   15.6513 O   0  0  0  0  0  0  0  0  0  0  0  0
  -16.6569   -9.2576   14.6621 C   0  0  0  0  0  0  0  0  0  0  0  0
  -17.8908  -10.1171   15.9640 H   0  0  0  0  0  0  0  0  0  0  0  0
  -13.5420   -8.6866   11.1142 C   0  0  0  0  0  0  0  0  0  0  0  0
  -14.5756   -9.0222   10.2266 O   0  0  0  0  0  0  0  0  0  0  0  0
  -15.0744   -9.7749   10.5809 H   0  0  0  0  0  0  0  0  0  0  0  0
  -12.5569   -9.9676   11.2337 C   0  0  0  0  0  0  0  0  0  0  0  0
  -11.9162  -10.1625   10.0064 O   0  0  0  0  0  0  0  0  0  0  0  0
  -10.9598   -9.0396    9.4026 P   0  0  0  0  0  0  0  0  0  0  0  0
  -11.9014   -8.0781    8.7363 O   0  0  0  0  0  0  0  0  0  0  0  0
   -9.9993   -9.6940    8.4395 O   0  0  0  0  0  0  0  0  0  0  0  0
  -10.2050   -8.3645   10.5393 O   0  0  0  0  0  0  0  0  0  0  0  0
   -9.4100   -9.0215    8.0635 H   0  0  0  0  0  0  0  0  0  0  0  0
   -9.6209   -7.6797   10.1778 H   0  0  0  0  0  0  0  0  0  0  0  0
 21 20  2  0  0  0
 22 20  1  0  0  0
 20 23  1  0  0  0
 20 19  1  0  0  0
 19 18  1  0  0  0
 18 15  1  0  0  0
 16 15  1  0  0  0
 15  4  1  0  0  0
  3  4  1  0  0  0
  3  1  1  0  0  0
  4  5  1  0  0  0
 13  1  1  0  0  0
 13 12  1  0  0  0
  1  2  1  0  0  0
  1  7  1  0  0  0
  5  6  1  0  0  0
  5  7  1  0  0  0
  7  8  1  0  0  0
 12 14  1  0  0  0
  2  9  1  0  0  0
 16 17  1  0  0  0
 22 24  1  0  0  0
 23 25  1  0  0  0
  6 10  1  0  0  0
  8 11  1  0  0  0
M  END
> <minimizedAffinity>
-8.26339

$$$$
4R75_S7P_A_401


 25 25  0  0  0  0  0  0  0  0999 V2000
  -12.3530   -8.7966    9.8555 C   0  0  0  0  0  0  0  0  0  0  0  0
  -13.6489   -8.5410    9.5114 O   0  0  0  0  0  0  0  0  0  0  0  0
  -12.2579  -10.0113   10.6479 O   0  0  0  0  0  0  0  0  0  0  0  0
  -12.0138   -9.6843   12.0374 C   0  0  0  0  0  0  0  0  0  0  0  0
  -12.3875   -8.2237   12.1059 C   0  0  0  0  0  0  0  0  0  0  0  0
  -11.7340   -7.5484   13.2598 O   0  0  0  0  0  0  0  0  0  0  0  0
  -11.8446   -7.7481   10.8181 C   0  0  0  0  0  0  0  0  0  0  0  0
  -12.2220   -6.4297   10.4613 O   0  0  0  0  0  0  0  0  0  0  0  0
  -13.9598   -9.2217    8.8943 H   0  0  0  0  0  0  0  0  0  0  0  0
  -10.7737   -7.6742   13.2065 H   0  0  0  0  0  0  0  0  0  0  0  0
  -13.1889   -6.3734   10.4083 H   0  0  0  0  0  0  0  0  0  0  0  0
  -10.3357   -8.0814    8.6394 O   0  0  0  0  0  0  0  0  0  0  0  0
  -11.4543   -8.9923    8.6055 C   0  0  0  0  0  0  0  0  0  0  0  0
   -9.7848   -8.2164    7.8525 H   0  0  0  0  0  0  0  0  0  0  0  0
  -12.8236  -10.6092   12.8631 C   0  0  0  0  0  0  0  0  0  0  0  0
  -12.4325  -11.9353   12.6241 O   0  0  0  0  0  0  0  0  0  0  0  0
  -12.6063  -12.1616   11.6970 H   0  0  0  0  0  0  0  0  0  0  0  0
  -14.4156  -10.5040   12.5802 C   0  0  0  0  0  0  0  0  0  0  0  0
  -15.0839  -10.3606   13.7998 O   0  0  0  0  0  0  0  0  0  0  0  0
  -15.3614   -8.9138   14.4082 P   0  0  0  0  0  0  0  0  0  0  0  0
  -16.7784   -8.9903   14.8993 O   0  0  0  0  0  0  0  0  0  0  0  0
  -15.1653   -7.8887   13.3178 O   0  0  0  0  0  0  0  0  0  0  0  0
  -14.3976   -8.6649   15.5599 O   0  0  0  0  0  0  0  0  0  0  0  0
  -15.3311   -7.0019   13.6741 H   0  0  0  0  0  0  0  0  0  0  0  0
  -14.5617   -7.7853   15.9346 H   0  0  0  0  0  0  0  0  0  0  0  0
 21 20  2  0  0  0
 22 20  1  0  0  0
 20 23  1  0  0  0
 20 19  1  0  0  0
 19 18  1  0  0  0
 18 15  1  0  0  0
 16 15  1  0  0  0
 15  4  1  0  0  0
  3  4  1  0  0  0
  3  1  1  0  0  0
  4  5  1  0  0  0
 13  1  1  0  0  0
 13 12  1  0  0  0
  1  2  1  0  0  0
  1  7  1  0  0  0
  5  6  1  0  0  0
  5  7  1  0  0  0
  7  8  1  0  0  0
 12 14  1  0  0  0
  2  9  1  0  0  0
 16 17  1  0  0  0
 22 24  1  0  0  0
 23 25  1  0  0  0
  6 10  1  0  0  0
  8 11  1  0  0  0
M  END
> <minimizedAffinity>
-8.24578

$$$$
4R75_S7P_A_401


 25 25  0  0  0  0  0  0  0  0999 V2000
  -14.5461   -9.7470   13.7738 C   0  0  0  0  0  0  0  0  0  0  0  0
  -14.0170  -10.8436   14.3907 O   0  0  0  0  0  0  0  0  0  0  0  0
  -14.0369   -9.6196   12.4185 O   0  0  0  0  0  0  0  0  0  0  0  0
  -13.0689   -8.5448   12.3467 C   0  0  0  0  0  0  0  0  0  0  0  0
  -12.7148   -8.3190   13.7963 C   0  0  0  0  0  0  0  0  0  0  0  0
  -12.1654   -6.9535   14.0159 O   0  0  0  0  0  0  0  0  0  0  0  0
  -14.0413   -8.4793   14.4239 C   0  0  0  0  0  0  0  0  0  0  0  0
  -14.0287   -8.5421   15.8394 O   0  0  0  0  0  0  0  0  0  0  0  0
  -14.3502  -11.6477   13.9625 H   0  0  0  0  0  0  0  0  0  0  0  0
  -12.7984   -6.2942   13.6910 H   0  0  0  0  0  0  0  0  0  0  0  0
  -13.4794   -9.2887   16.1250 H   0  0  0  0  0  0  0  0  0  0  0  0
  -16.7088   -8.9899   14.6735 O   0  0  0  0  0  0  0  0  0  0  0  0
  -16.0927   -9.8322   13.6770 C   0  0  0  0  0  0  0  0  0  0  0  0
  -17.6739   -9.0545   14.5996 H   0  0  0  0  0  0  0  0  0  0  0  0
  -11.9681   -8.9928   11.4635 C   0  0  0  0  0  0  0  0  0  0  0  0
  -10.7296   -8.7443   12.0744 O   0  0  0  0  0  0  0  0  0  0  0  0
  -10.6172   -7.7891   12.2005 H   0  0  0  0  0  0  0  0  0  0  0  0
  -11.9615   -8.2631   10.0167 C   0  0  0  0  0  0  0  0  0  0  0  0
  -11.9642   -9.2400    9.0166 O   0  0  0  0  0  0  0  0  0  0  0  0
  -13.3304   -9.7066    8.3412 P   0  0  0  0  0  0  0  0  0  0  0  0
  -14.2979   -8.6092    8.6793 O   0  0  0  0  0  0  0  0  0  0  0  0
  -13.7216  -11.0434    8.9230 O   0  0  0  0  0  0  0  0  0  0  0  0
  -13.1306   -9.8131    6.8358 O   0  0  0  0  0  0  0  0  0  0  0  0
  -14.5527  -11.3404    8.5206 H   0  0  0  0  0  0  0  0  0  0  0  0
  -13.9592  -10.0969    6.4189 H   0  0  0  0  0  0  0  0  0  0  0  0
 21 20  2  0  0  0
 22 20  1  0  0  0
 20 23  1  0  0  0
 20 19  1  0  0  0
 19 18  1  0  0  0
 18 15  1  0  0  0
 16 15  1  0  0  0
 15  4  1  0  0  0
  3  4  1  0  0  0
  3  1  1  0  0  0
  4  5  1  0  0  0
 13  1  1  0  0  0
 13 12  1  0  0  0
  1  2  1  0  0  0
  1  7  1  0  0  0
  5  6  1  0  0  0
  5  7  1  0  0  0
  7  8  1  0  0  0
 12 14  1  0  0  0
  2  9  1  0  0  0
 16 17  1  0  0  0
 22 24  1  0  0  0
 23 25  1  0  0  0
  6 10  1  0  0  0
  8 11  1  0  0  0
M  END
> <minimizedAffinity>
-8.11707

$$$$
4R75_S7P_A_401


 25 25  0  0  0  0  0  0  0  0999 V2000
  -12.9408  -10.5219   13.0722 C   0  0  0  0  0  0  0  0  0  0  0  0
  -12.3591   -9.6518   13.9483 O   0  0  0  0  0  0  0  0  0  0  0  0
  -12.7192  -10.0994   11.6993 O   0  0  0  0  0  0  0  0  0  0  0  0
  -13.9360   -9.5439   11.1443 C   0  0  0  0  0  0  0  0  0  0  0  0
  -14.7666   -9.2681   12.3738 C   0  0  0  0  0  0  0  0  0  0  0  0
  -16.2169   -9.2005   12.0469 O   0  0  0  0  0  0  0  0  0  0  0  0
  -14.4467  -10.4590   13.1854 C   0  0  0  0  0  0  0  0  0  0  0  0
  -14.9063  -10.4100   14.5248 O   0  0  0  0  0  0  0  0  0  0  0  0
  -11.3942   -9.7042   13.8634 H   0  0  0  0  0  0  0  0  0  0  0  0
  -16.4870  -10.0201   11.6040 H   0  0  0  0  0  0  0  0  0  0  0  0
  -14.5195   -9.6407   14.9715 H   0  0  0  0  0  0  0  0  0  0  0  0
  -11.9568  -12.4638   11.9229 O   0  0  0  0  0  0  0  0  0  0  0  0
  -12.3582  -11.9535   13.2116 C   0  0  0  0  0  0  0  0  0  0  0  0
  -11.5954  -13.3579   12.0274 H   0  0  0  0  0  0  0  0  0  0  0  0
  -13.5588   -8.3670   10.3286 C   0  0  0  0  0  0  0  0  0  0  0  0
  -14.3872   -8.2786    9.1996 O   0  0  0  0  0  0  0  0  0  0  0  0
  -14.2568   -9.0607    8.6409 H   0  0  0  0  0  0  0  0  0  0  0  0
  -12.0228   -8.4019    9.8139 C   0  0  0  0  0  0  0  0  0  0  0  0
  -12.0143   -8.5208    8.4209 O   0  0  0  0  0  0  0  0  0  0  0  0
  -10.6985   -8.9910    7.6542 P   0  0  0  0  0  0  0  0  0  0  0  0
  -11.2174   -9.8107    6.5080 O   0  0  0  0  0  0  0  0  0  0  0  0
   -9.8424   -9.7839    8.6117 O   0  0  0  0  0  0  0  0  0  0  0  0
   -9.9494   -7.7643    7.1526 O   0  0  0  0  0  0  0  0  0  0  0  0
   -9.0367  -10.0772    8.1581 H   0  0  0  0  0  0  0  0  0  0  0  0
   -9.1471   -8.0443    6.6848 H   0  0  0  0  0  0  0  0  0  0  0  0
 21 20  2  0  0  0
 22 20  1  0  0  0
 20 23  1  0  0  0
 20 19  1  0  0  0
 19 18  1  0  0  0
 18 15  1  0  0  0
 16 15  1  0  0  0
 15  4  1  0  0  0
  3  4  1  0  0  0
  3  1  1  0  0  0
  4  5  1  0  0  0
 13  1  1  0  0  0
 13 12  1  0  0  0
  1  2  1  0  0  0
  1  7  1  0  0  0
  5  6  1  0  0  0
  5  7  1  0  0  0
  7  8  1  0  0  0
 12 14  1  0  0  0
  2  9  1  0  0  0
 16 17  1  0  0  0
 22 24  1  0  0  0
 23 25  1  0  0  0
  6 10  1  0  0  0
  8 11  1  0  0  0
M  END
> <minimizedAffinity>
-7.53006

$$$$
