1G46_F2B_A_555


 25 26  0  0  0  0  0  0  0  0999 V2000
   -3.8784    0.9598   12.7680 C   0  0  0  0  0  0  0  0  0  0  0  0
   -4.3634   -0.1164   12.4383 O   0  0  0  0  0  0  0  0  0  0  0  0
   -4.0011    1.4334   14.0500 N   0  0  0  0  0  0  0  0  0  0  0  0
   -3.5843    2.3100   14.2144 H   0  0  0  0  0  0  0  0  0  0  0  0
   -3.5447    3.0949   11.4688 C   0  0  0  0  0  0  0  0  0  0  0  0
   -2.8737    3.9139   10.5300 C   0  0  0  0  0  0  0  0  0  0  0  0
   -1.7306    3.3713    9.8628 C   0  0  0  0  0  0  0  0  0  0  0  0
   -1.3194    2.0586   10.1714 C   0  0  0  0  0  0  0  0  0  0  0  0
   -2.0175    1.2889   11.1131 C   0  0  0  0  0  0  0  0  0  0  0  0
   -3.1208    1.7896   11.7585 C   0  0  0  0  0  0  0  0  0  0  0  0
   -0.8800    4.3676    8.6628 S   0  0  0  0  0  0  0  0  0  0  0  0
    0.0739    3.4120    7.6751 N   0  0  0  0  0  0  0  0  0  0  0  0
   -0.1413    5.2953    9.5148 O   0  0  0  0  0  0  0  0  0  0  0  0
   -1.9730    5.0730    7.9811 O   0  0  0  0  0  0  0  0  0  0  0  0
    0.8011    2.9653    8.2337 H   0  0  0  0  0  0  0  0  0  0  0  0
    0.5059    3.9917    6.9556 H   0  0  0  0  0  0  0  0  0  0  0  0
   -4.6587    0.8302   15.2082 C   0  0  0  0  0  0  0  0  0  0  0  0
   -5.4164    1.7219   16.0464 C   0  0  0  0  0  0  0  0  0  0  0  0
   -5.8674    2.9676   15.4927 C   0  0  0  0  0  0  0  0  0  0  0  0
   -6.6345    3.8814   16.3255 C   0  0  0  0  0  0  0  0  0  0  0  0
   -6.9286    3.5151   17.6927 C   0  0  0  0  0  0  0  0  0  0  0  0
   -6.4887    2.2886   18.2509 C   0  0  0  0  0  0  0  0  0  0  0  0
   -5.7264    1.3765   17.4316 C   0  0  0  0  0  0  0  0  0  0  0  0
   -6.6929    2.0931   19.1179 F   0  0  0  0  0  0  0  0  0  0  0  0
   -5.3864    0.4136   17.8832 F   0  0  0  0  0  0  0  0  0  0  0  0
  5  6  2  0  0  0
  5 10  1  0  0  0
  6  7  1  0  0  0
  7  8  2  0  0  0
  7 11  1  0  0  0
  8  9  1  0  0  0
  9 10  2  0  0  0
 10  1  1  0  0  0
  1  2  2  0  0  0
  1  3  1  0  0  0
  3 17  1  0  0  0
 17 18  1  0  0  0
 11 12  1  0  0  0
 11 13  2  0  0  0
 11 14  2  0  0  0
 18 19  2  0  0  0
 18 23  1  0  0  0
 19 20  1  0  0  0
 20 21  2  0  0  0
 21 22  1  0  0  0
 22 23  2  0  0  0
 22 24  1  0  0  0
 23 25  1  0  0  0
  3  4  1  0  0  0
 12 15  1  0  0  0
 12 16  1  0  0  0
M  END
> <minimizedAffinity>
-7.74908

$$$$
1G46_F2B_A_555


 25 26  0  0  0  0  0  0  0  0999 V2000
   -3.8067    3.8421   12.5918 C   0  0  0  0  0  0  0  0  0  0  0  0
   -4.6291    3.4400   11.7770 O   0  0  0  0  0  0  0  0  0  0  0  0
   -4.1574    4.0885   13.8954 N   0  0  0  0  0  0  0  0  0  0  0  0
   -3.4285    4.4158   14.4705 H   0  0  0  0  0  0  0  0  0  0  0  0
   -1.6939    5.2185   12.5997 C   0  0  0  0  0  0  0  0  0  0  0  0
   -0.3525    5.4807   12.2336 C   0  0  0  0  0  0  0  0  0  0  0  0
    0.3119    4.5307   11.3955 C   0  0  0  0  0  0  0  0  0  0  0  0
   -0.3882    3.3798   10.9801 C   0  0  0  0  0  0  0  0  0  0  0  0
   -1.7167    3.1648   11.3740 C   0  0  0  0  0  0  0  0  0  0  0  0
   -2.3734    4.0683   12.1720 C   0  0  0  0  0  0  0  0  0  0  0  0
    1.9895    4.8430   10.9011 S   0  0  0  0  0  0  0  0  0  0  0  0
    3.0155    4.7645   12.2200 N   0  0  0  0  0  0  0  0  0  0  0  0
    1.8794    6.1644   10.2895 O   0  0  0  0  0  0  0  0  0  0  0  0
    2.2256    3.8282    9.8660 O   0  0  0  0  0  0  0  0  0  0  0  0
    2.7766    5.5036   12.8811 H   0  0  0  0  0  0  0  0  0  0  0  0
    3.9793    4.8853   11.9087 H   0  0  0  0  0  0  0  0  0  0  0  0
   -5.4522    3.9374   14.5574 C   0  0  0  0  0  0  0  0  0  0  0  0
   -5.5896    2.8064   15.4371 C   0  0  0  0  0  0  0  0  0  0  0  0
   -4.7713    1.6501   15.2020 C   0  0  0  0  0  0  0  0  0  0  0  0
   -4.8968    0.4976   16.0812 C   0  0  0  0  0  0  0  0  0  0  0  0
   -5.8414    0.5414   17.1746 C   0  0  0  0  0  0  0  0  0  0  0  0
   -6.6550    1.6767   17.4168 C   0  0  0  0  0  0  0  0  0  0  0  0
   -6.5372    2.8242   16.5488 C   0  0  0  0  0  0  0  0  0  0  0  0
   -7.2402    1.6664   18.1161 F   0  0  0  0  0  0  0  0  0  0  0  0
   -7.1834    3.7121   16.7508 F   0  0  0  0  0  0  0  0  0  0  0  0
  5  6  2  0  0  0
  5 10  1  0  0  0
  6  7  1  0  0  0
  7  8  2  0  0  0
  7 11  1  0  0  0
  8  9  1  0  0  0
  9 10  2  0  0  0
 10  1  1  0  0  0
  1  2  2  0  0  0
  1  3  1  0  0  0
  3 17  1  0  0  0
 17 18  1  0  0  0
 11 12  1  0  0  0
 11 13  2  0  0  0
 11 14  2  0  0  0
 18 19  2  0  0  0
 18 23  1  0  0  0
 19 20  1  0  0  0
 20 21  2  0  0  0
 21 22  1  0  0  0
 22 23  2  0  0  0
 22 24  1  0  0  0
 23 25  1  0  0  0
  3  4  1  0  0  0
 12 15  1  0  0  0
 12 16  1  0  0  0
M  END
> <minimizedAffinity>
-7.72581

$$$$
1G46_F2B_A_555


 25 26  0  0  0  0  0  0  0  0999 V2000
   -5.6042    7.1919   14.8732 C   0  0  0  0  0  0  0  0  0  0  0  0
   -6.7120    7.6585   15.1122 O   0  0  0  0  0  0  0  0  0  0  0  0
   -4.5808    7.9844   14.4176 N   0  0  0  0  0  0  0  0  0  0  0  0
   -3.7319    7.5158   14.2476 H   0  0  0  0  0  0  0  0  0  0  0  0
   -6.3976    4.8643   15.4306 C   0  0  0  0  0  0  0  0  0  0  0  0
   -6.2059    3.4787   15.6447 C   0  0  0  0  0  0  0  0  0  0  0  0
   -4.8820    2.9554   15.5046 C   0  0  0  0  0  0  0  0  0  0  0  0
   -3.8349    3.8321   15.1545 C   0  0  0  0  0  0  0  0  0  0  0  0
   -4.0785    5.1978   14.9497 C   0  0  0  0  0  0  0  0  0  0  0  0
   -5.3407    5.7199   15.0864 C   0  0  0  0  0  0  0  0  0  0  0  0
   -4.6057    1.2235   15.7882 S   0  0  0  0  0  0  0  0  0  0  0  0
   -5.9105    0.5424   16.5833 N   0  0  0  0  0  0  0  0  0  0  0  0
   -3.3632    1.2411   16.5551 O   0  0  0  0  0  0  0  0  0  0  0  0
   -4.3559    0.7010   14.4385 O   0  0  0  0  0  0  0  0  0  0  0  0
   -6.0046    0.9655   17.5067 H   0  0  0  0  0  0  0  0  0  0  0  0
   -5.7616   -0.4617   16.6830 H   0  0  0  0  0  0  0  0  0  0  0  0
   -4.5632    9.4211   14.1470 C   0  0  0  0  0  0  0  0  0  0  0  0
   -3.3134   10.0972   14.3766 C   0  0  0  0  0  0  0  0  0  0  0  0
   -2.1584    9.3114   14.7084 C   0  0  0  0  0  0  0  0  0  0  0  0
   -0.8866    9.9779   14.9439 C   0  0  0  0  0  0  0  0  0  0  0  0
   -0.8119   11.4176   14.8367 C   0  0  0  0  0  0  0  0  0  0  0  0
   -1.9449   12.2044   14.5101 C   0  0  0  0  0  0  0  0  0  0  0  0
   -3.2107   11.5510   14.2756 C   0  0  0  0  0  0  0  0  0  0  0  0
   -1.8587   13.1104   14.4528 F   0  0  0  0  0  0  0  0  0  0  0  0
   -4.0952   12.1822   14.0187 F   0  0  0  0  0  0  0  0  0  0  0  0
  5  6  2  0  0  0
  5 10  1  0  0  0
  6  7  1  0  0  0
  7  8  2  0  0  0
  7 11  1  0  0  0
  8  9  1  0  0  0
  9 10  2  0  0  0
 10  1  1  0  0  0
  1  2  2  0  0  0
  1  3  1  0  0  0
  3 17  1  0  0  0
 17 18  1  0  0  0
 11 12  1  0  0  0
 11 13  2  0  0  0
 11 14  2  0  0  0
 18 19  2  0  0  0
 18 23  1  0  0  0
 19 20  1  0  0  0
 20 21  2  0  0  0
 21 22  1  0  0  0
 22 23  2  0  0  0
 22 24  1  0  0  0
 23 25  1  0  0  0
  3  4  1  0  0  0
 12 15  1  0  0  0
 12 16  1  0  0  0
M  END
> <minimizedAffinity>
-7.71117

$$$$
1G46_F2B_A_555


 25 26  0  0  0  0  0  0  0  0999 V2000
   -2.7895    2.1923   11.1870 C   0  0  0  0  0  0  0  0  0  0  0  0
   -3.5729    1.8545   10.3071 O   0  0  0  0  0  0  0  0  0  0  0  0
   -3.0322    1.9025   12.5062 N   0  0  0  0  0  0  0  0  0  0  0  0
   -2.3481    2.2222   13.1380 H   0  0  0  0  0  0  0  0  0  0  0  0
   -0.7654    3.5478   11.8378 C   0  0  0  0  0  0  0  0  0  0  0  0
    0.4259    4.2583   11.5578 C   0  0  0  0  0  0  0  0  0  0  0  0
    0.8498    4.3459   10.1943 C   0  0  0  0  0  0  0  0  0  0  0  0
    0.0748    3.7198    9.1970 C   0  0  0  0  0  0  0  0  0  0  0  0
   -1.0971    3.0241    9.5277 C   0  0  0  0  0  0  0  0  0  0  0  0
   -1.5238    2.9351   10.8294 C   0  0  0  0  0  0  0  0  0  0  0  0
    2.3299    5.2496    9.8087 S   0  0  0  0  0  0  0  0  0  0  0  0
    2.7067    5.0960    8.1861 N   0  0  0  0  0  0  0  0  0  0  0  0
    3.2958    4.6438   10.7211 O   0  0  0  0  0  0  0  0  0  0  0  0
    2.0107    6.6141   10.2484 O   0  0  0  0  0  0  0  0  0  0  0  0
    2.9126    4.1194    7.9758 H   0  0  0  0  0  0  0  0  0  0  0  0
    3.5223    5.6694    7.9707 H   0  0  0  0  0  0  0  0  0  0  0  0
   -4.1552    1.1899   13.1133 C   0  0  0  0  0  0  0  0  0  0  0  0
   -4.8044    1.8467   14.2174 C   0  0  0  0  0  0  0  0  0  0  0  0
   -5.5681    3.0344   13.9570 C   0  0  0  0  0  0  0  0  0  0  0  0
   -6.2312    3.7117   15.0610 C   0  0  0  0  0  0  0  0  0  0  0  0
   -6.1089    3.1734   16.3970 C   0  0  0  0  0  0  0  0  0  0  0  0
   -5.3576    2.0020   16.6669 C   0  0  0  0  0  0  0  0  0  0  0  0
   -4.6961    1.3244   15.5773 C   0  0  0  0  0  0  0  0  0  0  0  0
   -5.3027    1.6934   17.5234 F   0  0  0  0  0  0  0  0  0  0  0  0
   -4.1079    0.4025   15.8034 F   0  0  0  0  0  0  0  0  0  0  0  0
  5  6  2  0  0  0
  5 10  1  0  0  0
  6  7  1  0  0  0
  7  8  2  0  0  0
  7 11  1  0  0  0
  8  9  1  0  0  0
  9 10  2  0  0  0
 10  1  1  0  0  0
  1  2  2  0  0  0
  1  3  1  0  0  0
  3 17  1  0  0  0
 17 18  1  0  0  0
 11 12  1  0  0  0
 11 13  2  0  0  0
 11 14  2  0  0  0
 18 19  2  0  0  0
 18 23  1  0  0  0
 19 20  1  0  0  0
 20 21  2  0  0  0
 21 22  1  0  0  0
 22 23  2  0  0  0
 22 24  1  0  0  0
 23 25  1  0  0  0
  3  4  1  0  0  0
 12 15  1  0  0  0
 12 16  1  0  0  0
M  END
> <minimizedAffinity>
-7.60501

$$$$
1G46_F2B_A_555


 25 26  0  0  0  0  0  0  0  0999 V2000
   -4.3925    5.9267   13.7733 C   0  0  0  0  0  0  0  0  0  0  0  0
   -3.3143    6.4736   13.9749 O   0  0  0  0  0  0  0  0  0  0  0  0
   -5.1951    6.2997   12.7247 N   0  0  0  0  0  0  0  0  0  0  0  0
   -6.0441    5.8066   12.6510 H   0  0  0  0  0  0  0  0  0  0  0  0
   -6.1482    4.8541   15.2312 C   0  0  0  0  0  0  0  0  0  0  0  0
   -6.6335    3.8397   16.0900 C   0  0  0  0  0  0  0  0  0  0  0  0
   -5.7616    2.7483   16.3985 C   0  0  0  0  0  0  0  0  0  0  0  0
   -4.4706    2.7251   15.8328 C   0  0  0  0  0  0  0  0  0  0  0  0
   -4.0386    3.7544   14.9839 C   0  0  0  0  0  0  0  0  0  0  0  0
   -4.8581    4.8134   14.6818 C   0  0  0  0  0  0  0  0  0  0  0  0
   -6.3347    1.4702   17.4912 S   0  0  0  0  0  0  0  0  0  0  0  0
   -5.3845    0.1012   17.3444 N   0  0  0  0  0  0  0  0  0  0  0  0
   -7.7187    1.3038   17.0561 O   0  0  0  0  0  0  0  0  0  0  0  0
   -6.2966    2.1174   18.8091 O   0  0  0  0  0  0  0  0  0  0  0  0
   -5.4752   -0.2759   16.4010 H   0  0  0  0  0  0  0  0  0  0  0  0
   -5.6894   -0.5984   18.0210 H   0  0  0  0  0  0  0  0  0  0  0  0
   -4.9775    7.3202   11.7006 C   0  0  0  0  0  0  0  0  0  0  0  0
   -5.8445    7.2659   10.5529 C   0  0  0  0  0  0  0  0  0  0  0  0
   -5.3790    6.5950    9.3718 C   0  0  0  0  0  0  0  0  0  0  0  0
   -6.2419    6.5302    8.2020 C   0  0  0  0  0  0  0  0  0  0  0  0
   -7.5511    7.1410    8.2541 C   0  0  0  0  0  0  0  0  0  0  0  0
   -8.0219    7.8063    9.4139 C   0  0  0  0  0  0  0  0  0  0  0  0
   -7.1717    7.8756   10.5785 C   0  0  0  0  0  0  0  0  0  0  0  0
   -8.8536    8.1805    9.4082 F   0  0  0  0  0  0  0  0  0  0  0  0
   -7.5548    8.4021   11.4857 F   0  0  0  0  0  0  0  0  0  0  0  0
  5  6  2  0  0  0
  5 10  1  0  0  0
  6  7  1  0  0  0
  7  8  2  0  0  0
  7 11  1  0  0  0
  8  9  1  0  0  0
  9 10  2  0  0  0
 10  1  1  0  0  0
  1  2  2  0  0  0
  1  3  1  0  0  0
  3 17  1  0  0  0
 17 18  1  0  0  0
 11 12  1  0  0  0
 11 13  2  0  0  0
 11 14  2  0  0  0
 18 19  2  0  0  0
 18 23  1  0  0  0
 19 20  1  0  0  0
 20 21  2  0  0  0
 21 22  1  0  0  0
 22 23  2  0  0  0
 22 24  1  0  0  0
 23 25  1  0  0  0
  3  4  1  0  0  0
 12 15  1  0  0  0
 12 16  1  0  0  0
M  END
> <minimizedAffinity>
-7.46355

$$$$
1G46_F2B_A_555


 25 26  0  0  0  0  0  0  0  0999 V2000
   -5.8045    6.8927   14.4788 C   0  0  0  0  0  0  0  0  0  0  0  0
   -6.5430    7.5627   15.1914 O   0  0  0  0  0  0  0  0  0  0  0  0
   -5.2147    7.4285   13.3616 N   0  0  0  0  0  0  0  0  0  0  0  0
   -4.6451    6.8089   12.8507 H   0  0  0  0  0  0  0  0  0  0  0  0
   -4.2238    4.9381   14.6762 C   0  0  0  0  0  0  0  0  0  0  0  0
   -3.9042    3.5946   14.9845 C   0  0  0  0  0  0  0  0  0  0  0  0
   -4.9544    2.7475   15.4598 C   0  0  0  0  0  0  0  0  0  0  0  0
   -6.2498    3.2836   15.6074 C   0  0  0  0  0  0  0  0  0  0  0  0
   -6.5138    4.6240   15.2909 C   0  0  0  0  0  0  0  0  0  0  0  0
   -5.5209    5.4505   14.8268 C   0  0  0  0  0  0  0  0  0  0  0  0
   -4.5888    1.0499   15.8348 S   0  0  0  0  0  0  0  0  0  0  0  0
   -5.8209    0.3688   16.7384 N   0  0  0  0  0  0  0  0  0  0  0  0
   -3.3112    1.1667   16.5322 O   0  0  0  0  0  0  0  0  0  0  0  0
   -4.3846    0.4527   14.5086 O   0  0  0  0  0  0  0  0  0  0  0  0
   -5.8868    0.8459   17.6376 H   0  0  0  0  0  0  0  0  0  0  0  0
   -5.6233   -0.6200   16.8919 H   0  0  0  0  0  0  0  0  0  0  0  0
   -5.3060    8.7822   12.8169 C   0  0  0  0  0  0  0  0  0  0  0  0
   -5.8463    8.8989   11.4879 C   0  0  0  0  0  0  0  0  0  0  0  0
   -5.1050    9.6420   10.5081 C   0  0  0  0  0  0  0  0  0  0  0  0
   -5.6359    9.7705    9.1595 C   0  0  0  0  0  0  0  0  0  0  0  0
   -6.8980    9.1454    8.8335 C   0  0  0  0  0  0  0  0  0  0  0  0
   -7.6393    8.4097    9.7920 C   0  0  0  0  0  0  0  0  0  0  0  0
   -7.1199    8.2779   11.1325 C   0  0  0  0  0  0  0  0  0  0  0  0
   -8.4323    8.0305    9.5489 F   0  0  0  0  0  0  0  0  0  0  0  0
   -7.7134    7.6954   11.8777 F   0  0  0  0  0  0  0  0  0  0  0  0
  5  6  2  0  0  0
  5 10  1  0  0  0
  6  7  1  0  0  0
  7  8  2  0  0  0
  7 11  1  0  0  0
  8  9  1  0  0  0
  9 10  2  0  0  0
 10  1  1  0  0  0
  1  2  2  0  0  0
  1  3  1  0  0  0
  3 17  1  0  0  0
 17 18  1  0  0  0
 11 12  1  0  0  0
 11 13  2  0  0  0
 11 14  2  0  0  0
 18 19  2  0  0  0
 18 23  1  0  0  0
 19 20  1  0  0  0
 20 21  2  0  0  0
 21 22  1  0  0  0
 22 23  2  0  0  0
 22 24  1  0  0  0
 23 25  1  0  0  0
  3  4  1  0  0  0
 12 15  1  0  0  0
 12 16  1  0  0  0
M  END
> <minimizedAffinity>
-7.27584

$$$$
1G46_F2B_A_555


 25 26  0  0  0  0  0  0  0  0999 V2000
   -3.5937    5.2382   13.6810 C   0  0  0  0  0  0  0  0  0  0  0  0
   -4.2355    6.0007   12.9677 O   0  0  0  0  0  0  0  0  0  0  0  0
   -2.2229    5.2005   13.6308 N   0  0  0  0  0  0  0  0  0  0  0  0
   -1.7994    4.5500   14.2364 H   0  0  0  0  0  0  0  0  0  0  0  0
   -3.6186    3.2518   15.2339 C   0  0  0  0  0  0  0  0  0  0  0  0
   -4.2409    2.3617   16.1409 C   0  0  0  0  0  0  0  0  0  0  0  0
   -5.6211    2.5756   16.4501 C   0  0  0  0  0  0  0  0  0  0  0  0
   -6.2951    3.6589   15.8503 C   0  0  0  0  0  0  0  0  0  0  0  0
   -5.6311    4.5149   14.9598 C   0  0  0  0  0  0  0  0  0  0  0  0
   -4.3089    4.3216   14.6452 C   0  0  0  0  0  0  0  0  0  0  0  0
   -6.4360    1.4618   17.5689 S   0  0  0  0  0  0  0  0  0  0  0  0
   -5.6367   -0.0067   17.6228 N   0  0  0  0  0  0  0  0  0  0  0  0
   -7.7822    1.4053   17.0060 O   0  0  0  0  0  0  0  0  0  0  0  0
   -6.4505    2.2107   18.8322 O   0  0  0  0  0  0  0  0  0  0  0  0
   -5.6792   -0.4509   16.7055 H   0  0  0  0  0  0  0  0  0  0  0  0
   -6.0814   -0.6108   18.3139 H   0  0  0  0  0  0  0  0  0  0  0  0
   -1.2976    5.9823   12.8121 C   0  0  0  0  0  0  0  0  0  0  0  0
   -0.5244    5.2467   11.8462 C   0  0  0  0  0  0  0  0  0  0  0  0
   -1.1973    4.2914   11.0117 C   0  0  0  0  0  0  0  0  0  0  0  0
   -0.4316    3.5387   10.0297 C   0  0  0  0  0  0  0  0  0  0  0  0
    0.9906    3.7700    9.9132 C   0  0  0  0  0  0  0  0  0  0  0  0
    1.6663    4.7099   10.7313 C   0  0  0  0  0  0  0  0  0  0  0  0
    0.9141    5.4604   11.7086 C   0  0  0  0  0  0  0  0  0  0  0  0
    2.5649    4.8273   10.6291 F   0  0  0  0  0  0  0  0  0  0  0  0
    1.4583    6.1980   12.3463 F   0  0  0  0  0  0  0  0  0  0  0  0
  5  6  2  0  0  0
  5 10  1  0  0  0
  6  7  1  0  0  0
  7  8  2  0  0  0
  7 11  1  0  0  0
  8  9  1  0  0  0
  9 10  2  0  0  0
 10  1  1  0  0  0
  1  2  2  0  0  0
  1  3  1  0  0  0
  3 17  1  0  0  0
 17 18  1  0  0  0
 11 12  1  0  0  0
 11 13  2  0  0  0
 11 14  2  0  0  0
 18 19  2  0  0  0
 18 23  1  0  0  0
 19 20  1  0  0  0
 20 21  2  0  0  0
 21 22  1  0  0  0
 22 23  2  0  0  0
 22 24  1  0  0  0
 23 25  1  0  0  0
  3  4  1  0  0  0
 12 15  1  0  0  0
 12 16  1  0  0  0
M  END
> <minimizedAffinity>
-7.20590

$$$$
1G46_F2B_A_555


 25 26  0  0  0  0  0  0  0  0999 V2000
   -4.3655    4.1792   12.4713 C   0  0  0  0  0  0  0  0  0  0  0  0
   -4.8730    5.2364   12.1153 O   0  0  0  0  0  0  0  0  0  0  0  0
   -3.3217    3.6209   11.7772 N   0  0  0  0  0  0  0  0  0  0  0  0
   -2.9879    2.7676   12.1374 H   0  0  0  0  0  0  0  0  0  0  0  0
   -5.8525    4.0809   14.5054 C   0  0  0  0  0  0  0  0  0  0  0  0
   -6.3675    3.4608   15.6683 C   0  0  0  0  0  0  0  0  0  0  0  0
   -5.8637    2.1685   16.0182 C   0  0  0  0  0  0  0  0  0  0  0  0
   -4.8905    1.5689   15.1932 C   0  0  0  0  0  0  0  0  0  0  0  0
   -4.4151    2.2246   14.0484 C   0  0  0  0  0  0  0  0  0  0  0  0
   -4.8812    3.4680   13.7002 C   0  0  0  0  0  0  0  0  0  0  0  0
   -6.4751    1.3736   17.4848 S   0  0  0  0  0  0  0  0  0  0  0  0
   -5.6121   -0.0246   17.7990 N   0  0  0  0  0  0  0  0  0  0  0  0
   -7.8798    1.1625   17.1464 O   0  0  0  0  0  0  0  0  0  0  0  0
   -6.3563    2.4226   18.5059 O   0  0  0  0  0  0  0  0  0  0  0  0
   -5.7553   -0.6904   17.0397 H   0  0  0  0  0  0  0  0  0  0  0  0
   -5.9354   -0.4339   18.6756 H   0  0  0  0  0  0  0  0  0  0  0  0
   -2.6313    4.1044   10.5825 C   0  0  0  0  0  0  0  0  0  0  0  0
   -1.2233    4.3679   10.7233 C   0  0  0  0  0  0  0  0  0  0  0  0
   -0.7944    5.2816   11.7447 C   0  0  0  0  0  0  0  0  0  0  0  0
    0.6251    5.5599   11.9015 C   0  0  0  0  0  0  0  0  0  0  0  0
    1.5745    4.9091   11.0269 C   0  0  0  0  0  0  0  0  0  0  0  0
    1.1636    4.0056   10.0148 C   0  0  0  0  0  0  0  0  0  0  0  0
   -0.2430    3.7244    9.8522 C   0  0  0  0  0  0  0  0  0  0  0  0
    1.7922    3.6153    9.4817 F   0  0  0  0  0  0  0  0  0  0  0  0
   -0.5533    3.0105    9.0515 F   0  0  0  0  0  0  0  0  0  0  0  0
  5  6  2  0  0  0
  5 10  1  0  0  0
  6  7  1  0  0  0
  7  8  2  0  0  0
  7 11  1  0  0  0
  8  9  1  0  0  0
  9 10  2  0  0  0
 10  1  1  0  0  0
  1  2  2  0  0  0
  1  3  1  0  0  0
  3 17  1  0  0  0
 17 18  1  0  0  0
 11 12  1  0  0  0
 11 13  2  0  0  0
 11 14  2  0  0  0
 18 19  2  0  0  0
 18 23  1  0  0  0
 19 20  1  0  0  0
 20 21  2  0  0  0
 21 22  1  0  0  0
 22 23  2  0  0  0
 22 24  1  0  0  0
 23 25  1  0  0  0
  3  4  1  0  0  0
 12 15  1  0  0  0
 12 16  1  0  0  0
M  END
> <minimizedAffinity>
-7.18996

$$$$
1G46_F2B_A_555


 25 26  0  0  0  0  0  0  0  0999 V2000
   -3.5647    3.2575   12.5940 C   0  0  0  0  0  0  0  0  0  0  0  0
   -4.5749    3.6419   12.0162 O   0  0  0  0  0  0  0  0  0  0  0  0
   -3.6114    2.2306   13.5029 N   0  0  0  0  0  0  0  0  0  0  0  0
   -2.7495    2.0000   13.9191 H   0  0  0  0  0  0  0  0  0  0  0  0
   -1.2987    3.2577   11.4880 C   0  0  0  0  0  0  0  0  0  0  0  0
   -0.0362    3.8224   11.1884 C   0  0  0  0  0  0  0  0  0  0  0  0
    0.2784    5.0988   11.7522 C   0  0  0  0  0  0  0  0  0  0  0  0
   -0.6766    5.7386   12.5684 C   0  0  0  0  0  0  0  0  0  0  0  0
   -1.9158    5.1375   12.8319 C   0  0  0  0  0  0  0  0  0  0  0  0
   -2.2332    3.9099   12.3058 C   0  0  0  0  0  0  0  0  0  0  0  0
    1.8642    5.8237   11.4120 S   0  0  0  0  0  0  0  0  0  0  0  0
    1.9633    6.2964    9.8103 N   0  0  0  0  0  0  0  0  0  0  0  0
    2.7728    4.7443   11.7886 O   0  0  0  0  0  0  0  0  0  0  0  0
    1.9479    6.9155   12.3907 O   0  0  0  0  0  0  0  0  0  0  0  0
    1.8962    5.4754    9.2088 H   0  0  0  0  0  0  0  0  0  0  0  0
    2.8549    6.7645    9.6485 H   0  0  0  0  0  0  0  0  0  0  0  0
   -4.7504    1.4278   13.9456 C   0  0  0  0  0  0  0  0  0  0  0  0
   -5.2968    1.7547   15.2364 C   0  0  0  0  0  0  0  0  0  0  0  0
   -5.0976    0.8335   16.3197 C   0  0  0  0  0  0  0  0  0  0  0  0
   -5.6429    1.1475   17.6316 C   0  0  0  0  0  0  0  0  0  0  0  0
   -6.3722    2.3817   17.8177 C   0  0  0  0  0  0  0  0  0  0  0  0
   -6.5759    3.2989   16.7562 C   0  0  0  0  0  0  0  0  0  0  0  0
   -6.0386    2.9946   15.4513 C   0  0  0  0  0  0  0  0  0  0  0  0
   -7.0424    4.0669   16.9121 F   0  0  0  0  0  0  0  0  0  0  0  0
   -6.2057    3.7257   14.6239 F   0  0  0  0  0  0  0  0  0  0  0  0
  5  6  2  0  0  0
  5 10  1  0  0  0
  6  7  1  0  0  0
  7  8  2  0  0  0
  7 11  1  0  0  0
  8  9  1  0  0  0
  9 10  2  0  0  0
 10  1  1  0  0  0
  1  2  2  0  0  0
  1  3  1  0  0  0
  3 17  1  0  0  0
 17 18  1  0  0  0
 11 12  1  0  0  0
 11 13  2  0  0  0
 11 14  2  0  0  0
 18 19  2  0  0  0
 18 23  1  0  0  0
 19 20  1  0  0  0
 20 21  2  0  0  0
 21 22  1  0  0  0
 22 23  2  0  0  0
 22 24  1  0  0  0
 23 25  1  0  0  0
  3  4  1  0  0  0
 12 15  1  0  0  0
 12 16  1  0  0  0
M  END
> <minimizedAffinity>
-7.00958

$$$$
1G46_F2B_A_555


 25 26  0  0  0  0  0  0  0  0999 V2000
   -5.0723    4.5049   14.6788 C   0  0  0  0  0  0  0  0  0  0  0  0
   -5.8567    4.2122   15.5738 O   0  0  0  0  0  0  0  0  0  0  0  0
   -4.5304    5.7624   14.5899 N   0  0  0  0  0  0  0  0  0  0  0  0
   -3.9173    5.9017   13.8322 H   0  0  0  0  0  0  0  0  0  0  0  0
   -4.2562    3.8797   12.3763 C   0  0  0  0  0  0  0  0  0  0  0  0
   -3.8780    2.9538   11.3754 C   0  0  0  0  0  0  0  0  0  0  0  0
   -3.9389    1.5604   11.6932 C   0  0  0  0  0  0  0  0  0  0  0  0
   -4.3613    1.1719   12.9808 C   0  0  0  0  0  0  0  0  0  0  0  0
   -4.7223    2.1300   13.9390 C   0  0  0  0  0  0  0  0  0  0  0  0
   -4.6772    3.4714   13.6505 C   0  0  0  0  0  0  0  0  0  0  0  0
   -3.4911    0.3729   10.4501 S   0  0  0  0  0  0  0  0  0  0  0  0
   -3.2277   -1.1286   11.1390 N   0  0  0  0  0  0  0  0  0  0  0  0
   -2.3073    0.9910    9.8594 O   0  0  0  0  0  0  0  0  0  0  0  0
   -4.6154    0.4379    9.5074 O   0  0  0  0  0  0  0  0  0  0  0  0
   -2.4320   -1.0760   11.7751 H   0  0  0  0  0  0  0  0  0  0  0  0
   -3.0321   -1.8097   10.4054 H   0  0  0  0  0  0  0  0  0  0  0  0
   -4.7277    6.9263   15.4525 C   0  0  0  0  0  0  0  0  0  0  0  0
   -4.0352    8.1283   15.0687 C   0  0  0  0  0  0  0  0  0  0  0  0
   -2.6546    8.2726   15.4361 C   0  0  0  0  0  0  0  0  0  0  0  0
   -1.9387    9.4811   15.0566 C   0  0  0  0  0  0  0  0  0  0  0  0
   -2.6318   10.5107   14.3155 C   0  0  0  0  0  0  0  0  0  0  0  0
   -3.9944   10.3803   13.9472 C   0  0  0  0  0  0  0  0  0  0  0  0
   -4.7123    9.1846   14.3204 C   0  0  0  0  0  0  0  0  0  0  0  0
   -4.3979   11.0520   13.4806 F   0  0  0  0  0  0  0  0  0  0  0  0
   -5.7850    9.0942   14.0238 F   0  0  0  0  0  0  0  0  0  0  0  0
  5  6  2  0  0  0
  5 10  1  0  0  0
  6  7  1  0  0  0
  7  8  2  0  0  0
  7 11  1  0  0  0
  8  9  1  0  0  0
  9 10  2  0  0  0
 10  1  1  0  0  0
  1  2  2  0  0  0
  1  3  1  0  0  0
  3 17  1  0  0  0
 17 18  1  0  0  0
 11 12  1  0  0  0
 11 13  2  0  0  0
 11 14  2  0  0  0
 18 19  2  0  0  0
 18 23  1  0  0  0
 19 20  1  0  0  0
 20 21  2  0  0  0
 21 22  1  0  0  0
 22 23  2  0  0  0
 22 24  1  0  0  0
 23 25  1  0  0  0
  3  4  1  0  0  0
 12 15  1  0  0  0
 12 16  1  0  0  0
M  END
> <minimizedAffinity>
-6.98462

$$$$
