1C87_OPA_A_301


 21 22  0  0  0  0  0  0  0  0999 V2000
   13.9621   44.2245   16.8414 O   0  0  0  0  0  0  0  0  0  0  0  0
   14.0019   44.8315   18.1266 C   0  0  0  0  0  0  0  0  0  0  0  0
   12.5711   45.0798   18.5037 C   0  0  0  0  0  0  0  0  0  0  0  0
   11.4845   44.7610   17.7655 C   0  0  0  0  0  0  0  0  0  0  0  0
   11.4963   43.8299   16.5937 C   0  0  0  0  0  0  0  0  0  0  0  0
   12.9315   43.2356   16.6347 C   0  0  0  0  0  0  0  0  0  0  0  0
   12.1661   45.9955   19.9288 S   0  0  0  0  0  0  0  0  0  0  0  0
   10.5299   45.8752   19.5033 C   0  0  0  0  0  0  0  0  0  0  0  0
   10.2315   45.2793   18.3372 C   0  0  0  0  0  0  0  0  0  0  0  0
    8.8272   45.1896   17.7845 C   0  0  0  0  0  0  0  0  0  0  0  0
    7.7576   45.1130   18.5539 O   0  0  0  0  0  0  0  0  0  0  0  0
    8.6732   45.0615   16.5983 O   0  0  0  0  0  0  0  0  0  0  0  0
    7.8405   45.2082   19.4823 H   0  0  0  0  0  0  0  0  0  0  0  0
    9.4789   46.3998   20.3033 N   0  0  0  0  0  0  0  0  0  0  0  0
    9.5623   46.9756   21.5187 C   0  0  0  0  0  0  0  0  0  0  0  0
   10.5372   47.0036   22.2431 O   0  0  0  0  0  0  0  0  0  0  0  0
    8.5743   46.3340   19.9205 H   0  0  0  0  0  0  0  0  0  0  0  0
    8.1913   47.5780   22.0057 C   0  0  0  0  0  0  0  0  0  0  0  0
    8.0752   48.6775   22.4596 O   0  0  0  0  0  0  0  0  0  0  0  0
    7.0897   46.8002   21.8039 O   0  0  0  0  0  0  0  0  0  0  0  0
    8.8337   49.2100   22.5974 H   0  0  0  0  0  0  0  0  0  0  0  0
  1  2  1  0  0  0
  1  6  1  0  0  0
  2  3  1  0  0  0
  3  4  2  0  0  0
  3  7  1  0  0  0
  4  5  1  0  0  0
  4  9  1  0  0  0
  5  6  1  0  0  0
  7  8  1  0  0  0
  8  9  2  0  0  0
  8 14  1  0  0  0
  9 10  1  0  0  0
 10 11  1  0  0  0
 10 12  2  0  0  0
 14 15  1  0  0  0
 15 18  1  0  0  0
 15 16  2  0  0  0
 18 19  1  0  0  0
 18 20  2  0  0  0
 11 13  1  0  0  0
 14 17  1  0  0  0
 19 21  1  0  0  0
M  END
> <minimizedAffinity>
-8.10897

$$$$
1C87_OPA_A_301


 21 22  0  0  0  0  0  0  0  0999 V2000
   13.7488   43.0554   15.0383 O   0  0  0  0  0  0  0  0  0  0  0  0
   14.0181   43.2654   16.4186 C   0  0  0  0  0  0  0  0  0  0  0  0
   12.7385   43.7802   17.0090 C   0  0  0  0  0  0  0  0  0  0  0  0
   11.5756   43.9735   16.3476 C   0  0  0  0  0  0  0  0  0  0  0  0
   11.2664   43.4195   14.9921 C   0  0  0  0  0  0  0  0  0  0  0  0
   12.4677   42.4721   14.7199 C   0  0  0  0  0  0  0  0  0  0  0  0
   12.6783   44.3585   18.6507 S   0  0  0  0  0  0  0  0  0  0  0  0
   11.0610   44.8006   18.4028 C   0  0  0  0  0  0  0  0  0  0  0  0
   10.5527   44.6388   17.1702 C   0  0  0  0  0  0  0  0  0  0  0  0
    9.1605   45.0805   16.7801 C   0  0  0  0  0  0  0  0  0  0  0  0
    8.8519   45.4865   15.5628 O   0  0  0  0  0  0  0  0  0  0  0  0
    8.3196   45.1842   17.6342 O   0  0  0  0  0  0  0  0  0  0  0  0
    9.4825   45.4206   14.8730 H   0  0  0  0  0  0  0  0  0  0  0  0
   10.2428   45.3566   19.4232 N   0  0  0  0  0  0  0  0  0  0  0  0
   10.5569   46.3169   20.3148 C   0  0  0  0  0  0  0  0  0  0  0  0
   11.6616   46.7747   20.5293 O   0  0  0  0  0  0  0  0  0  0  0  0
    9.3298   44.9939   19.4867 H   0  0  0  0  0  0  0  0  0  0  0  0
    9.3232   46.7772   21.1784 C   0  0  0  0  0  0  0  0  0  0  0  0
    8.2605   46.2306   21.1589 O   0  0  0  0  0  0  0  0  0  0  0  0
    9.5478   47.8077   22.0425 O   0  0  0  0  0  0  0  0  0  0  0  0
    8.1086   45.5227   20.5641 H   0  0  0  0  0  0  0  0  0  0  0  0
  1  2  1  0  0  0
  1  6  1  0  0  0
  2  3  1  0  0  0
  3  4  2  0  0  0
  3  7  1  0  0  0
  4  5  1  0  0  0
  4  9  1  0  0  0
  5  6  1  0  0  0
  7  8  1  0  0  0
  8  9  2  0  0  0
  8 14  1  0  0  0
  9 10  1  0  0  0
 10 11  1  0  0  0
 10 12  2  0  0  0
 14 15  1  0  0  0
 15 18  1  0  0  0
 15 16  2  0  0  0
 18 19  1  0  0  0
 18 20  2  0  0  0
 11 13  1  0  0  0
 14 17  1  0  0  0
 19 21  1  0  0  0
M  END
> <minimizedAffinity>
-6.32411

$$$$
1C87_OPA_A_301


 21 22  0  0  0  0  0  0  0  0999 V2000
   14.6355   42.8881   13.8737 O   0  0  0  0  0  0  0  0  0  0  0  0
   14.5921   42.9878   15.2915 C   0  0  0  0  0  0  0  0  0  0  0  0
   13.1702   43.3239   15.6323 C   0  0  0  0  0  0  0  0  0  0  0  0
   12.1531   43.4727   14.7546 C   0  0  0  0  0  0  0  0  0  0  0  0
   12.1903   43.0259   13.3266 C   0  0  0  0  0  0  0  0  0  0  0  0
   13.5185   42.2233   13.2467 C   0  0  0  0  0  0  0  0  0  0  0  0
   12.7124   43.7333   17.2622 S   0  0  0  0  0  0  0  0  0  0  0  0
   11.1414   44.0471   16.7089 C   0  0  0  0  0  0  0  0  0  0  0  0
   10.9168   43.9591   15.3876 C   0  0  0  0  0  0  0  0  0  0  0  0
    9.5939   44.3068   14.7439 C   0  0  0  0  0  0  0  0  0  0  0  0
    9.4320   45.3560   13.9597 O   0  0  0  0  0  0  0  0  0  0  0  0
    8.6137   43.6782   15.0464 O   0  0  0  0  0  0  0  0  0  0  0  0
   10.1735   45.8687   13.7041 H   0  0  0  0  0  0  0  0  0  0  0  0
   10.0758   44.4249   17.5701 N   0  0  0  0  0  0  0  0  0  0  0  0
   10.1282   45.1929   18.6761 C   0  0  0  0  0  0  0  0  0  0  0  0
   11.1299   45.5724   19.2492 O   0  0  0  0  0  0  0  0  0  0  0  0
    9.1855   44.0816   17.3276 H   0  0  0  0  0  0  0  0  0  0  0  0
    8.7038   45.5172   19.2638 C   0  0  0  0  0  0  0  0  0  0  0  0
    7.6816   45.1610   18.7570 O   0  0  0  0  0  0  0  0  0  0  0  0
    8.6839   46.1704   20.4605 O   0  0  0  0  0  0  0  0  0  0  0  0
    7.6979   44.7123   17.9346 H   0  0  0  0  0  0  0  0  0  0  0  0
  1  2  1  0  0  0
  1  6  1  0  0  0
  2  3  1  0  0  0
  3  4  2  0  0  0
  3  7  1  0  0  0
  4  5  1  0  0  0
  4  9  1  0  0  0
  5  6  1  0  0  0
  7  8  1  0  0  0
  8  9  2  0  0  0
  8 14  1  0  0  0
  9 10  1  0  0  0
 10 11  1  0  0  0
 10 12  2  0  0  0
 14 15  1  0  0  0
 15 18  1  0  0  0
 15 16  2  0  0  0
 18 19  1  0  0  0
 18 20  2  0  0  0
 11 13  1  0  0  0
 14 17  1  0  0  0
 19 21  1  0  0  0
M  END
> <minimizedAffinity>
-6.07592

$$$$
1C87_OPA_A_301


 21 22  0  0  0  0  0  0  0  0999 V2000
    8.9264   44.7329   17.5461 O   0  0  0  0  0  0  0  0  0  0  0  0
    9.6231   45.3805   18.6031 C   0  0  0  0  0  0  0  0  0  0  0  0
   11.0795   45.1307   18.3434 C   0  0  0  0  0  0  0  0  0  0  0  0
   11.5979   44.4471   17.2989 C   0  0  0  0  0  0  0  0  0  0  0  0
   10.8415   44.0880   16.0583 C   0  0  0  0  0  0  0  0  0  0  0  0
    9.5038   44.8600   16.2296 C   0  0  0  0  0  0  0  0  0  0  0  0
   12.2886   45.5843   19.5120 S   0  0  0  0  0  0  0  0  0  0  0  0
   13.4670   44.8741   18.5223 C   0  0  0  0  0  0  0  0  0  0  0  0
   13.0504   44.2400   17.4141 C   0  0  0  0  0  0  0  0  0  0  0  0
   13.9768   43.4786   16.4935 C   0  0  0  0  0  0  0  0  0  0  0  0
   14.7942   44.0747   15.6459 O   0  0  0  0  0  0  0  0  0  0  0  0
   13.8889   42.2802   16.4367 O   0  0  0  0  0  0  0  0  0  0  0  0
   14.8875   45.0069   15.6619 H   0  0  0  0  0  0  0  0  0  0  0  0
   14.8544   44.8947   18.8297 N   0  0  0  0  0  0  0  0  0  0  0  0
   15.8062   45.7131   18.3398 C   0  0  0  0  0  0  0  0  0  0  0  0
   15.6909   46.4842   17.4080 O   0  0  0  0  0  0  0  0  0  0  0  0
   15.1591   44.2254   19.4843 H   0  0  0  0  0  0  0  0  0  0  0  0
   17.1982   45.5282   19.0523 C   0  0  0  0  0  0  0  0  0  0  0  0
   17.9235   44.5984   18.8574 O   0  0  0  0  0  0  0  0  0  0  0  0
   17.5956   46.5485   19.8649 O   0  0  0  0  0  0  0  0  0  0  0  0
   17.6481   43.8986   18.2985 H   0  0  0  0  0  0  0  0  0  0  0  0
  1  2  1  0  0  0
  1  6  1  0  0  0
  2  3  1  0  0  0
  3  4  2  0  0  0
  3  7  1  0  0  0
  4  5  1  0  0  0
  4  9  1  0  0  0
  5  6  1  0  0  0
  7  8  1  0  0  0
  8  9  2  0  0  0
  8 14  1  0  0  0
  9 10  1  0  0  0
 10 11  1  0  0  0
 10 12  2  0  0  0
 14 15  1  0  0  0
 15 18  1  0  0  0
 15 16  2  0  0  0
 18 19  1  0  0  0
 18 20  2  0  0  0
 11 13  1  0  0  0
 14 17  1  0  0  0
 19 21  1  0  0  0
M  END
> <minimizedAffinity>
-5.98945

$$$$
1C87_OPA_A_301


 21 22  0  0  0  0  0  0  0  0999 V2000
   12.8190   42.5426   14.4188 O   0  0  0  0  0  0  0  0  0  0  0  0
   11.4869   43.0133   14.5799 C   0  0  0  0  0  0  0  0  0  0  0  0
   11.4954   43.8369   15.8340 C   0  0  0  0  0  0  0  0  0  0  0  0
   12.5677   44.0845   16.6187 C   0  0  0  0  0  0  0  0  0  0  0  0
   13.9893   43.8461   16.2156 C   0  0  0  0  0  0  0  0  0  0  0  0
   13.8693   43.4892   14.7080 C   0  0  0  0  0  0  0  0  0  0  0  0
   10.0130   44.4465   16.5154 S   0  0  0  0  0  0  0  0  0  0  0  0
   10.9022   45.0610   17.8209 C   0  0  0  0  0  0  0  0  0  0  0  0
   12.2174   44.7916   17.8609 C   0  0  0  0  0  0  0  0  0  0  0  0
   13.1132   45.1893   19.0119 C   0  0  0  0  0  0  0  0  0  0  0  0
   14.3779   45.5309   18.8512 O   0  0  0  0  0  0  0  0  0  0  0  0
   12.7025   45.0789   20.1372 O   0  0  0  0  0  0  0  0  0  0  0  0
   14.7315   45.6260   17.9887 H   0  0  0  0  0  0  0  0  0  0  0  0
   10.3154   45.8115   18.8755 N   0  0  0  0  0  0  0  0  0  0  0  0
    9.1237   45.6194   19.4744 C   0  0  0  0  0  0  0  0  0  0  0  0
    8.2417   44.8671   19.1108 O   0  0  0  0  0  0  0  0  0  0  0  0
   10.8477   46.5685   19.2115 H   0  0  0  0  0  0  0  0  0  0  0  0
    8.9032   46.5636   20.7152 C   0  0  0  0  0  0  0  0  0  0  0  0
    9.5047   47.5819   20.8874 O   0  0  0  0  0  0  0  0  0  0  0  0
    7.9048   46.2044   21.5715 O   0  0  0  0  0  0  0  0  0  0  0  0
   10.1904   47.8265   20.2976 H   0  0  0  0  0  0  0  0  0  0  0  0
  1  2  1  0  0  0
  1  6  1  0  0  0
  2  3  1  0  0  0
  3  4  2  0  0  0
  3  7  1  0  0  0
  4  5  1  0  0  0
  4  9  1  0  0  0
  5  6  1  0  0  0
  7  8  1  0  0  0
  8  9  2  0  0  0
  8 14  1  0  0  0
  9 10  1  0  0  0
 10 11  1  0  0  0
 10 12  2  0  0  0
 14 15  1  0  0  0
 15 18  1  0  0  0
 15 16  2  0  0  0
 18 19  1  0  0  0
 18 20  2  0  0  0
 11 13  1  0  0  0
 14 17  1  0  0  0
 19 21  1  0  0  0
M  END
> <minimizedAffinity>
-5.89122

$$$$
1C87_OPA_A_301


 21 22  0  0  0  0  0  0  0  0999 V2000
   10.7746   44.1941   14.1855 O   0  0  0  0  0  0  0  0  0  0  0  0
   11.6220   45.2056   13.6558 C   0  0  0  0  0  0  0  0  0  0  0  0
   12.5181   45.6185   14.7861 C   0  0  0  0  0  0  0  0  0  0  0  0
   12.5158   45.1026   16.0355 C   0  0  0  0  0  0  0  0  0  0  0  0
   11.8422   43.8245   16.4262 C   0  0  0  0  0  0  0  0  0  0  0  0
   11.4002   43.2312   15.0597 C   0  0  0  0  0  0  0  0  0  0  0  0
   13.5884   46.9834   14.6281 S   0  0  0  0  0  0  0  0  0  0  0  0
   14.0358   46.7808   16.2503 C   0  0  0  0  0  0  0  0  0  0  0  0
   13.4033   45.8298   16.9571 C   0  0  0  0  0  0  0  0  0  0  0  0
   13.6282   45.6039   18.4348 C   0  0  0  0  0  0  0  0  0  0  0  0
   12.7862   46.0235   19.3605 O   0  0  0  0  0  0  0  0  0  0  0  0
   14.6712   45.1294   18.8013 O   0  0  0  0  0  0  0  0  0  0  0  0
   11.9646   46.3985   19.1111 H   0  0  0  0  0  0  0  0  0  0  0  0
   15.0159   47.5856   16.8918 N   0  0  0  0  0  0  0  0  0  0  0  0
   16.3566   47.4545   16.8580 C   0  0  0  0  0  0  0  0  0  0  0  0
   16.9828   46.5157   16.4082 O   0  0  0  0  0  0  0  0  0  0  0  0
   14.6712   48.3346   17.4298 H   0  0  0  0  0  0  0  0  0  0  0  0
   17.1058   48.6449   17.5660 C   0  0  0  0  0  0  0  0  0  0  0  0
   17.3414   48.6758   18.7373 O   0  0  0  0  0  0  0  0  0  0  0  0
   17.5660   49.6342   16.7483 O   0  0  0  0  0  0  0  0  0  0  0  0
   17.0240   47.9947   19.2972 H   0  0  0  0  0  0  0  0  0  0  0  0
  1  2  1  0  0  0
  1  6  1  0  0  0
  2  3  1  0  0  0
  3  4  2  0  0  0
  3  7  1  0  0  0
  4  5  1  0  0  0
  4  9  1  0  0  0
  5  6  1  0  0  0
  7  8  1  0  0  0
  8  9  2  0  0  0
  8 14  1  0  0  0
  9 10  1  0  0  0
 10 11  1  0  0  0
 10 12  2  0  0  0
 14 15  1  0  0  0
 15 18  1  0  0  0
 15 16  2  0  0  0
 18 19  1  0  0  0
 18 20  2  0  0  0
 11 13  1  0  0  0
 14 17  1  0  0  0
 19 21  1  0  0  0
M  END
> <minimizedAffinity>
-5.46677

$$$$
1C87_OPA_A_301


 21 22  0  0  0  0  0  0  0  0999 V2000
   10.6596   45.0436   13.7435 O   0  0  0  0  0  0  0  0  0  0  0  0
   12.0270   45.4008   13.5872 C   0  0  0  0  0  0  0  0  0  0  0  0
   12.6041   45.4165   14.9720 C   0  0  0  0  0  0  0  0  0  0  0  0
   11.9441   45.1243   16.1148 C   0  0  0  0  0  0  0  0  0  0  0  0
   10.6170   44.4352   16.1776 C   0  0  0  0  0  0  0  0  0  0  0  0
   10.3776   44.0041   14.7040 C   0  0  0  0  0  0  0  0  0  0  0  0
   14.2190   46.0004   15.2630 S   0  0  0  0  0  0  0  0  0  0  0  0
   13.9646   45.7836   16.9246 C   0  0  0  0  0  0  0  0  0  0  0  0
   12.7444   45.3868   17.3216 C   0  0  0  0  0  0  0  0  0  0  0  0
   12.3463   45.2489   18.7734 C   0  0  0  0  0  0  0  0  0  0  0  0
   12.5405   46.2036   19.6638 O   0  0  0  0  0  0  0  0  0  0  0  0
   11.9448   44.1868   19.1709 O   0  0  0  0  0  0  0  0  0  0  0  0
   12.8525   47.0435   19.3897 H   0  0  0  0  0  0  0  0  0  0  0  0
   14.9657   46.0316   17.9023 N   0  0  0  0  0  0  0  0  0  0  0  0
   16.0649   45.3016   18.1758 C   0  0  0  0  0  0  0  0  0  0  0  0
   16.3238   44.1930   17.7517 O   0  0  0  0  0  0  0  0  0  0  0  0
   14.8402   46.8401   18.4498 H   0  0  0  0  0  0  0  0  0  0  0  0
   17.0162   45.9962   19.2208 C   0  0  0  0  0  0  0  0  0  0  0  0
   17.2547   47.1674   19.2230 O   0  0  0  0  0  0  0  0  0  0  0  0
   17.5073   45.1952   20.2089 O   0  0  0  0  0  0  0  0  0  0  0  0
   16.9161   47.7157   18.5429 H   0  0  0  0  0  0  0  0  0  0  0  0
  1  2  1  0  0  0
  1  6  1  0  0  0
  2  3  1  0  0  0
  3  4  2  0  0  0
  3  7  1  0  0  0
  4  5  1  0  0  0
  4  9  1  0  0  0
  5  6  1  0  0  0
  7  8  1  0  0  0
  8  9  2  0  0  0
  8 14  1  0  0  0
  9 10  1  0  0  0
 10 11  1  0  0  0
 10 12  2  0  0  0
 14 15  1  0  0  0
 15 18  1  0  0  0
 15 16  2  0  0  0
 18 19  1  0  0  0
 18 20  2  0  0  0
 11 13  1  0  0  0
 14 17  1  0  0  0
 19 21  1  0  0  0
M  END
> <minimizedAffinity>
-5.43129

$$$$
1C87_OPA_A_301


 21 22  0  0  0  0  0  0  0  0999 V2000
   11.7771   43.4768   13.2191 O   0  0  0  0  0  0  0  0  0  0  0  0
   13.1765   43.2562   13.3401 C   0  0  0  0  0  0  0  0  0  0  0  0
   13.5163   43.5725   14.7668 C   0  0  0  0  0  0  0  0  0  0  0  0
   12.6477   43.9625   15.7263 C   0  0  0  0  0  0  0  0  0  0  0  0
   11.1590   43.8480   15.6227 C   0  0  0  0  0  0  0  0  0  0  0  0
   10.9623   43.0232   14.3205 C   0  0  0  0  0  0  0  0  0  0  0  0
   15.1726   43.6247   15.3029 S   0  0  0  0  0  0  0  0  0  0  0  0
   14.6306   44.1279   16.8280 C   0  0  0  0  0  0  0  0  0  0  0  0
   13.3147   44.3506   16.9794 C   0  0  0  0  0  0  0  0  0  0  0  0
   12.7044   44.8956   18.2505 C   0  0  0  0  0  0  0  0  0  0  0  0
   13.0715   46.0444   18.7868 O   0  0  0  0  0  0  0  0  0  0  0  0
   11.9377   44.2079   18.8721 O   0  0  0  0  0  0  0  0  0  0  0  0
   13.6674   46.6052   18.3304 H   0  0  0  0  0  0  0  0  0  0  0  0
   15.5030   44.3508   17.9275 N   0  0  0  0  0  0  0  0  0  0  0  0
   16.3608   45.3722   18.1190 C   0  0  0  0  0  0  0  0  0  0  0  0
   16.6791   46.2151   17.3041 O   0  0  0  0  0  0  0  0  0  0  0  0
   15.4773   43.6723   18.6403 H   0  0  0  0  0  0  0  0  0  0  0  0
   17.0331   45.3478   19.5428 C   0  0  0  0  0  0  0  0  0  0  0  0
   17.2676   44.3437   20.1471 O   0  0  0  0  0  0  0  0  0  0  0  0
   17.4281   46.5546   20.0397 O   0  0  0  0  0  0  0  0  0  0  0  0
   16.9951   43.5156   19.8036 H   0  0  0  0  0  0  0  0  0  0  0  0
  1  2  1  0  0  0
  1  6  1  0  0  0
  2  3  1  0  0  0
  3  4  2  0  0  0
  3  7  1  0  0  0
  4  5  1  0  0  0
  4  9  1  0  0  0
  5  6  1  0  0  0
  7  8  1  0  0  0
  8  9  2  0  0  0
  8 14  1  0  0  0
  9 10  1  0  0  0
 10 11  1  0  0  0
 10 12  2  0  0  0
 14 15  1  0  0  0
 15 18  1  0  0  0
 15 16  2  0  0  0
 18 19  1  0  0  0
 18 20  2  0  0  0
 11 13  1  0  0  0
 14 17  1  0  0  0
 19 21  1  0  0  0
M  END
> <minimizedAffinity>
-5.39085

$$$$
1C87_OPA_A_301


 21 22  0  0  0  0  0  0  0  0999 V2000
    9.3086   46.4933   19.8896 O   0  0  0  0  0  0  0  0  0  0  0  0
    9.1415   45.5133   18.8730 C   0  0  0  0  0  0  0  0  0  0  0  0
   10.5266   45.1569   18.4199 C   0  0  0  0  0  0  0  0  0  0  0  0
   11.6810   45.6612   18.9101 C   0  0  0  0  0  0  0  0  0  0  0  0
   11.7986   46.4235   20.1927 C   0  0  0  0  0  0  0  0  0  0  0  0
   10.3866   46.2674   20.8222 C   0  0  0  0  0  0  0  0  0  0  0  0
   10.7801   44.1274   17.0381 S   0  0  0  0  0  0  0  0  0  0  0  0
   12.4491   44.3749   17.1989 C   0  0  0  0  0  0  0  0  0  0  0  0
   12.8636   45.2309   18.1473 C   0  0  0  0  0  0  0  0  0  0  0  0
   14.3111   45.6229   18.3386 C   0  0  0  0  0  0  0  0  0  0  0  0
   14.9048   46.5503   17.6110 O   0  0  0  0  0  0  0  0  0  0  0  0
   14.9926   44.9883   19.1002 O   0  0  0  0  0  0  0  0  0  0  0  0
   14.4047   47.0636   17.0074 H   0  0  0  0  0  0  0  0  0  0  0  0
   13.4114   43.7471   16.3625 N   0  0  0  0  0  0  0  0  0  0  0  0
   13.8385   44.1341   15.1445 C   0  0  0  0  0  0  0  0  0  0  0  0
   13.3559   45.0059   14.4495 O   0  0  0  0  0  0  0  0  0  0  0  0
   13.8179   42.9241   16.7185 H   0  0  0  0  0  0  0  0  0  0  0  0
   15.0361   43.2623   14.6105 C   0  0  0  0  0  0  0  0  0  0  0  0
   16.1287   43.6976   14.3977 O   0  0  0  0  0  0  0  0  0  0  0  0
   14.7924   41.9275   14.4762 O   0  0  0  0  0  0  0  0  0  0  0  0
   16.2937   44.6152   14.4907 H   0  0  0  0  0  0  0  0  0  0  0  0
  1  2  1  0  0  0
  1  6  1  0  0  0
  2  3  1  0  0  0
  3  4  2  0  0  0
  3  7  1  0  0  0
  4  5  1  0  0  0
  4  9  1  0  0  0
  5  6  1  0  0  0
  7  8  1  0  0  0
  8  9  2  0  0  0
  8 14  1  0  0  0
  9 10  1  0  0  0
 10 11  1  0  0  0
 10 12  2  0  0  0
 14 15  1  0  0  0
 15 18  1  0  0  0
 15 16  2  0  0  0
 18 19  1  0  0  0
 18 20  2  0  0  0
 11 13  1  0  0  0
 14 17  1  0  0  0
 19 21  1  0  0  0
M  END
> <minimizedAffinity>
-5.36416

$$$$
1C87_OPA_A_301


 21 22  0  0  0  0  0  0  0  0999 V2000
    8.7114   45.1214   18.5162 O   0  0  0  0  0  0  0  0  0  0  0  0
    9.8467   45.4984   19.2848 C   0  0  0  0  0  0  0  0  0  0  0  0
   11.0409   45.1155   18.4612 C   0  0  0  0  0  0  0  0  0  0  0  0
   11.0155   44.5507   17.2334 C   0  0  0  0  0  0  0  0  0  0  0  0
    9.8095   44.4933   16.3490 C   0  0  0  0  0  0  0  0  0  0  0  0
    8.7835   45.3870   17.0995 C   0  0  0  0  0  0  0  0  0  0  0  0
   12.6516   45.2211   19.1155 S   0  0  0  0  0  0  0  0  0  0  0  0
   13.2453   44.5397   17.6817 C   0  0  0  0  0  0  0  0  0  0  0  0
   12.3499   44.1495   16.7598 C   0  0  0  0  0  0  0  0  0  0  0  0
   12.7291   43.4381   15.4809 C   0  0  0  0  0  0  0  0  0  0  0  0
   12.5082   43.9486   14.2840 O   0  0  0  0  0  0  0  0  0  0  0  0
   13.1403   42.3091   15.5401 O   0  0  0  0  0  0  0  0  0  0  0  0
   12.1878   44.8251   14.2004 H   0  0  0  0  0  0  0  0  0  0  0  0
   14.6299   44.3385   17.4327 N   0  0  0  0  0  0  0  0  0  0  0  0
   15.5415   45.2363   17.0099 C   0  0  0  0  0  0  0  0  0  0  0  0
   15.3186   46.3560   16.5943 O   0  0  0  0  0  0  0  0  0  0  0  0
   14.9661   43.4265   17.5893 H   0  0  0  0  0  0  0  0  0  0  0  0
   17.0090   44.6655   17.0119 C   0  0  0  0  0  0  0  0  0  0  0  0
   17.5760   44.2933   16.0278 O   0  0  0  0  0  0  0  0  0  0  0  0
   17.6608   44.6926   18.2092 O   0  0  0  0  0  0  0  0  0  0  0  0
   17.1260   44.2756   15.2061 H   0  0  0  0  0  0  0  0  0  0  0  0
  1  2  1  0  0  0
  1  6  1  0  0  0
  2  3  1  0  0  0
  3  4  2  0  0  0
  3  7  1  0  0  0
  4  5  1  0  0  0
  4  9  1  0  0  0
  5  6  1  0  0  0
  7  8  1  0  0  0
  8  9  2  0  0  0
  8 14  1  0  0  0
  9 10  1  0  0  0
 10 11  1  0  0  0
 10 12  2  0  0  0
 14 15  1  0  0  0
 15 18  1  0  0  0
 15 16  2  0  0  0
 18 19  1  0  0  0
 18 20  2  0  0  0
 11 13  1  0  0  0
 14 17  1  0  0  0
 19 21  1  0  0  0
M  END
> <minimizedAffinity>
-5.18076

$$$$
