4KN1_04J_A_301


 40 42  0  0  0  0  0  0  0  0999 V2000
   18.5932  -37.1028    4.1042 C   0  0  0  0  0  0  0  0  0  0  0  0
   17.9802  -36.1071    3.3530 C   0  0  0  0  0  0  0  0  0  0  0  0
   16.6903  -36.2887    2.8703 C   0  0  0  0  0  0  0  0  0  0  0  0
   15.9976  -37.4637    3.1393 C   0  0  0  0  0  0  0  0  0  0  0  0
   16.6098  -38.4688    3.8871 C   0  0  0  0  0  0  0  0  0  0  0  0
   17.9075  -38.2897    4.3726 C   0  0  0  0  0  0  0  0  0  0  0  0
   19.9896  -36.8566    4.6003 C   0  0  0  0  0  0  0  0  0  0  0  0
   20.7291  -35.8862    4.0816 N   0  0  0  0  0  0  0  0  0  0  0  0
   20.5089  -37.6832    5.6140 O   0  0  0  0  0  0  0  0  0  0  0  0
   20.3544  -35.2889    3.3944 H   0  0  0  0  0  0  0  0  0  0  0  0
   22.0957  -35.7130    4.5364 C   0  0  0  0  0  0  0  0  0  0  0  0
   23.4443  -34.0243    5.5839 O   0  0  0  0  0  0  0  0  0  0  0  0
   21.3515  -33.5879    5.3541 O   0  0  0  0  0  0  0  0  0  0  0  0
   22.3098  -34.3745    5.1921 C   0  0  0  0  0  0  0  0  0  0  0  0
   20.4928  -33.8303    5.0679 H   0  0  0  0  0  0  0  0  0  0  0  0
   23.0622  -35.9067    3.3677 C   0  0  0  0  0  0  0  0  0  0  0  0
   23.5391  -37.3543    3.2794 C   0  0  0  0  0  0  0  0  0  0  0  0
   23.0561  -38.0050    2.0044 C   0  0  0  0  0  0  0  0  0  0  0  0
   23.8750  -38.4845    1.1915 O   0  0  0  0  0  0  0  0  0  0  0  0
   21.8347  -38.0692    1.7456 O   0  0  0  0  0  0  0  0  0  0  0  0
   21.2092  -37.7139    2.3459 H   0  0  0  0  0  0  0  0  0  0  0  0
   14.6805  -37.5943    2.6186 N   0  0  0  0  0  0  0  0  0  0  0  0
   14.5141  -38.3068    1.9598 H   0  0  0  0  0  0  0  0  0  0  0  0
   13.5655  -36.7444    2.9963 C   0  0  0  0  0  0  0  0  0  0  0  0
   10.5671  -35.1106   -1.5260 N   0  0  0  0  0  0  0  0  0  0  0  0
   11.1852  -35.0169   -2.7539 C   0  0  0  0  0  0  0  0  0  0  0  0
   12.5261  -35.3131   -2.8818 N   0  0  0  0  0  0  0  0  0  0  0  0
   13.2681  -35.7039   -1.7839 C   0  0  0  0  0  0  0  0  0  0  0  0
   13.3805  -36.2070    0.5561 N   0  0  0  0  0  0  0  0  0  0  0  0
   12.7649  -36.3059    1.7900 C   0  0  0  0  0  0  0  0  0  0  0  0
   11.4145  -36.0001    1.9104 C   0  0  0  0  0  0  0  0  0  0  0  0
   10.6861  -35.6060    0.8044 N   0  0  0  0  0  0  0  0  0  0  0  0
   12.6505  -35.8068   -0.5460 C   0  0  0  0  0  0  0  0  0  0  0  0
   11.2991  -35.5058   -0.4249 C   0  0  0  0  0  0  0  0  0  0  0  0
   10.4910  -34.6355   -3.8200 N   0  0  0  0  0  0  0  0  0  0  0  0
   14.5633  -35.9882   -1.9101 N   0  0  0  0  0  0  0  0  0  0  0  0
    9.5336  -34.4230   -3.7339 H   0  0  0  0  0  0  0  0  0  0  0  0
   10.9339  -34.5653   -4.6965 H   0  0  0  0  0  0  0  0  0  0  0  0
   15.0001  -35.9145   -2.7893 H   0  0  0  0  0  0  0  0  0  0  0  0
   15.0839  -36.2719   -1.1241 H   0  0  0  0  0  0  0  0  0  0  0  0
  8  7  1  0  0  0
  1  7  1  0  0  0
  7  9  2  0  0  0
  8 11  1  0  0  0
 26 25  2  0  0  0
 25 34  1  0  0  0
 12 14  2  0  0  0
 35 26  1  0  0  0
 26 27  1  0  0  0
 14 13  1  0  0  0
 27 28  2  0  0  0
 28 36  1  0  0  0
 28 33  1  0  0  0
 33 29  1  0  0  0
 29 30  2  0  0  0
 31 30  1  0  0  0
 30 24  1  0  0  0
 32 31  2  0  0  0
 34 32  1  0  0  0
 24 22  1  0  0  0
 16 11  1  0  0  0
 11 14  1  0  0  0
 16 17  1  0  0  0
 19 18  2  0  0  0
 18 17  1  0  0  0
 18 20  1  0  0  0
 22  4  1  0  0  0
  6  1  2  0  0  0
  2  1  1  0  0  0
  3  2  2  0  0  0
  4  3  1  0  0  0
  4  5  2  0  0  0
  5  6  1  0  0  0
 34 33  2  0  0  0
  8 10  1  0  0  0
 13 15  1  0  0  0
 22 23  1  0  0  0
 35 37  1  0  0  0
 35 38  1  0  0  0
 36 39  1  0  0  0
 36 40  1  0  0  0
 20 21  1  0  0  0
M  END
> <minimizedAffinity>
-11.13889

$$$$
4KN1_04J_A_301


 40 42  0  0  0  0  0  0  0  0999 V2000
   18.7038  -36.5841    4.0496 C   0  0  0  0  0  0  0  0  0  0  0  0
   17.9536  -37.7400    4.2299 C   0  0  0  0  0  0  0  0  0  0  0  0
   16.6340  -37.7922    3.7989 C   0  0  0  0  0  0  0  0  0  0  0  0
   16.0532  -36.6926    3.1773 C   0  0  0  0  0  0  0  0  0  0  0  0
   16.7990  -35.5280    2.9992 C   0  0  0  0  0  0  0  0  0  0  0  0
   18.1258  -35.4721    3.4330 C   0  0  0  0  0  0  0  0  0  0  0  0
   20.1252  -36.5798    4.5357 C   0  0  0  0  0  0  0  0  0  0  0  0
   20.9950  -35.6940    4.0706 N   0  0  0  0  0  0  0  0  0  0  0  0
   20.5255  -37.5422    5.4812 O   0  0  0  0  0  0  0  0  0  0  0  0
   20.7067  -35.0019    3.4326 H   0  0  0  0  0  0  0  0  0  0  0  0
   22.3760  -35.7546    4.5111 C   0  0  0  0  0  0  0  0  0  0  0  0
   23.9973  -34.0967    5.1360 O   0  0  0  0  0  0  0  0  0  0  0  0
   21.9846  -33.7924    5.8284 O   0  0  0  0  0  0  0  0  0  0  0  0
   22.8099  -34.4841    5.1930 C   0  0  0  0  0  0  0  0  0  0  0  0
   21.0896  -34.0643    5.8838 H   0  0  0  0  0  0  0  0  0  0  0  0
   23.2873  -36.0740    3.3258 C   0  0  0  0  0  0  0  0  0  0  0  0
   23.5265  -37.5769    3.2022 C   0  0  0  0  0  0  0  0  0  0  0  0
   22.7713  -38.1487    2.0254 C   0  0  0  0  0  0  0  0  0  0  0  0
   23.1576  -39.2052    1.4812 O   0  0  0  0  0  0  0  0  0  0  0  0
   21.7551  -37.5725    1.5803 O   0  0  0  0  0  0  0  0  0  0  0  0
   21.4539  -36.7795    1.9784 H   0  0  0  0  0  0  0  0  0  0  0  0
   14.6986  -36.8033    2.7577 N   0  0  0  0  0  0  0  0  0  0  0  0
   14.0442  -36.1774    3.1439 H   0  0  0  0  0  0  0  0  0  0  0  0
   14.2191  -37.7802    1.7965 C   0  0  0  0  0  0  0  0  0  0  0  0
   12.4905  -35.3053   -2.9990 N   0  0  0  0  0  0  0  0  0  0  0  0
   11.1886  -34.8672   -3.1070 C   0  0  0  0  0  0  0  0  0  0  0  0
   10.3093  -35.0343   -2.0577 N   0  0  0  0  0  0  0  0  0  0  0  0
   10.7184  -35.6444   -0.8875 C   0  0  0  0  0  0  0  0  0  0  0  0
   12.4518  -36.6832    0.3998 N   0  0  0  0  0  0  0  0  0  0  0  0
   13.7578  -37.1218    0.5150 C   0  0  0  0  0  0  0  0  0  0  0  0
   14.6353  -36.9540   -0.5495 C   0  0  0  0  0  0  0  0  0  0  0  0
   14.2108  -36.3464   -1.7156 N   0  0  0  0  0  0  0  0  0  0  0  0
   12.0295  -36.0817   -0.7696 C   0  0  0  0  0  0  0  0  0  0  0  0
   12.9094  -35.9104   -1.8317 C   0  0  0  0  0  0  0  0  0  0  0  0
   10.7738  -34.2853   -4.2266 N   0  0  0  0  0  0  0  0  0  0  0  0
    9.8667  -35.8057    0.1239 N   0  0  0  0  0  0  0  0  0  0  0  0
   11.3977  -34.1637   -4.9785 H   0  0  0  0  0  0  0  0  0  0  0  0
    9.8426  -33.9756   -4.3046 H   0  0  0  0  0  0  0  0  0  0  0  0
    8.9365  -35.4947    0.0385 H   0  0  0  0  0  0  0  0  0  0  0  0
   10.1674  -36.2358    0.9569 H   0  0  0  0  0  0  0  0  0  0  0  0
  8  7  1  0  0  0
  1  7  1  0  0  0
  7  9  2  0  0  0
  8 11  1  0  0  0
 26 25  2  0  0  0
 25 34  1  0  0  0
 12 14  2  0  0  0
 35 26  1  0  0  0
 26 27  1  0  0  0
 14 13  1  0  0  0
 27 28  2  0  0  0
 28 36  1  0  0  0
 28 33  1  0  0  0
 33 29  1  0  0  0
 29 30  2  0  0  0
 31 30  1  0  0  0
 30 24  1  0  0  0
 32 31  2  0  0  0
 34 32  1  0  0  0
 24 22  1  0  0  0
 16 11  1  0  0  0
 11 14  1  0  0  0
 16 17  1  0  0  0
 19 18  2  0  0  0
 18 17  1  0  0  0
 18 20  1  0  0  0
 22  4  1  0  0  0
  6  1  2  0  0  0
  2  1  1  0  0  0
  3  2  2  0  0  0
  4  3  1  0  0  0
  4  5  2  0  0  0
  5  6  1  0  0  0
 34 33  2  0  0  0
  8 10  1  0  0  0
 13 15  1  0  0  0
 22 23  1  0  0  0
 35 37  1  0  0  0
 35 38  1  0  0  0
 36 39  1  0  0  0
 36 40  1  0  0  0
 20 21  1  0  0  0
M  END
> <minimizedAffinity>
-10.75248

$$$$
4KN1_04J_A_301


 40 42  0  0  0  0  0  0  0  0999 V2000
   14.7740  -36.6653    1.4488 C   0  0  0  0  0  0  0  0  0  0  0  0
   14.9859  -37.1096    2.7485 C   0  0  0  0  0  0  0  0  0  0  0  0
   16.1921  -36.8526    3.3879 C   0  0  0  0  0  0  0  0  0  0  0  0
   17.1955  -36.1431    2.7379 C   0  0  0  0  0  0  0  0  0  0  0  0
   16.9910  -35.7003    1.4317 C   0  0  0  0  0  0  0  0  0  0  0  0
   15.7796  -35.9585    0.7854 C   0  0  0  0  0  0  0  0  0  0  0  0
   13.4528  -36.9716    0.8027 C   0  0  0  0  0  0  0  0  0  0  0  0
   12.4061  -36.1820    0.9992 N   0  0  0  0  0  0  0  0  0  0  0  0
   13.3371  -38.1202   -0.0020 O   0  0  0  0  0  0  0  0  0  0  0  0
   12.4958  -35.3622    1.5370 H   0  0  0  0  0  0  0  0  0  0  0  0
   11.1272  -36.5378    0.4139 C   0  0  0  0  0  0  0  0  0  0  0  0
   11.1720  -35.2849   -1.6345 O   0  0  0  0  0  0  0  0  0  0  0  0
    9.6354  -34.7739   -0.2201 O   0  0  0  0  0  0  0  0  0  0  0  0
   10.6209  -35.4785   -0.5291 C   0  0  0  0  0  0  0  0  0  0  0  0
    9.2074  -34.9022    0.6035 H   0  0  0  0  0  0  0  0  0  0  0  0
   10.1075  -36.8143    1.5190 C   0  0  0  0  0  0  0  0  0  0  0  0
   10.6565  -36.4209    2.8882 C   0  0  0  0  0  0  0  0  0  0  0  0
    9.8919  -35.2504    3.4604 C   0  0  0  0  0  0  0  0  0  0  0  0
    9.5840  -35.2294    4.6713 O   0  0  0  0  0  0  0  0  0  0  0  0
    9.5555  -34.2920    2.7314 O   0  0  0  0  0  0  0  0  0  0  0  0
    9.7795  -34.2943    1.8216 H   0  0  0  0  0  0  0  0  0  0  0  0
   18.4095  -35.9105    3.4415 N   0  0  0  0  0  0  0  0  0  0  0  0
   18.4471  -35.1400    4.0532 H   0  0  0  0  0  0  0  0  0  0  0  0
   19.5970  -36.7365    3.3155 C   0  0  0  0  0  0  0  0  0  0  0  0
   20.5432  -39.7720    8.0061 N   0  0  0  0  0  0  0  0  0  0  0  0
   19.5224  -40.5226    8.5477 C   0  0  0  0  0  0  0  0  0  0  0  0
   18.2765  -40.5315    7.9562 N   0  0  0  0  0  0  0  0  0  0  0  0
   18.0330  -39.7880    6.8175 C   0  0  0  0  0  0  0  0  0  0  0  0
   18.8285  -38.2970    5.1188 N   0  0  0  0  0  0  0  0  0  0  0  0
   19.8498  -37.5447    4.5691 C   0  0  0  0  0  0  0  0  0  0  0  0
   21.1005  -37.5375    5.1751 C   0  0  0  0  0  0  0  0  0  0  0  0
   21.3281  -38.2822    6.3165 N   0  0  0  0  0  0  0  0  0  0  0  0
   19.0581  -39.0355    6.2632 C   0  0  0  0  0  0  0  0  0  0  0  0
   20.3106  -39.0309    6.8655 C   0  0  0  0  0  0  0  0  0  0  0  0
   19.7342  -41.2379    9.6465 N   0  0  0  0  0  0  0  0  0  0  0  0
   16.8284  -39.7975    6.2490 N   0  0  0  0  0  0  0  0  0  0  0  0
   20.6218  -41.2349   10.0724 H   0  0  0  0  0  0  0  0  0  0  0  0
   19.0036  -41.7713   10.0351 H   0  0  0  0  0  0  0  0  0  0  0  0
   16.1020  -40.3321    6.6437 H   0  0  0  0  0  0  0  0  0  0  0  0
   16.6644  -39.2699    5.4341 H   0  0  0  0  0  0  0  0  0  0  0  0
  8  7  1  0  0  0
  1  7  1  0  0  0
  7  9  2  0  0  0
  8 11  1  0  0  0
 26 25  2  0  0  0
 25 34  1  0  0  0
 12 14  2  0  0  0
 35 26  1  0  0  0
 26 27  1  0  0  0
 14 13  1  0  0  0
 27 28  2  0  0  0
 28 36  1  0  0  0
 28 33  1  0  0  0
 33 29  1  0  0  0
 29 30  2  0  0  0
 31 30  1  0  0  0
 30 24  1  0  0  0
 32 31  2  0  0  0
 34 32  1  0  0  0
 24 22  1  0  0  0
 16 11  1  0  0  0
 11 14  1  0  0  0
 16 17  1  0  0  0
 19 18  2  0  0  0
 18 17  1  0  0  0
 18 20  1  0  0  0
 22  4  1  0  0  0
  6  1  2  0  0  0
  2  1  1  0  0  0
  3  2  2  0  0  0
  4  3  1  0  0  0
  4  5  2  0  0  0
  5  6  1  0  0  0
 34 33  2  0  0  0
  8 10  1  0  0  0
 13 15  1  0  0  0
 22 23  1  0  0  0
 35 37  1  0  0  0
 35 38  1  0  0  0
 36 39  1  0  0  0
 36 40  1  0  0  0
 20 21  1  0  0  0
M  END
> <minimizedAffinity>
-10.71180

$$$$
4KN1_04J_A_301


 40 42  0  0  0  0  0  0  0  0999 V2000
   15.0317  -36.7600    1.8775 C   0  0  0  0  0  0  0  0  0  0  0  0
   15.2506  -37.3446    3.1192 C   0  0  0  0  0  0  0  0  0  0  0  0
   16.4244  -37.0878    3.8164 C   0  0  0  0  0  0  0  0  0  0  0  0
   17.3877  -36.2389    3.2832 C   0  0  0  0  0  0  0  0  0  0  0  0
   17.1764  -35.6545    2.0350 C   0  0  0  0  0  0  0  0  0  0  0  0
   15.9976  -35.9121    1.3308 C   0  0  0  0  0  0  0  0  0  0  0  0
   13.7467  -37.0726    1.1649 C   0  0  0  0  0  0  0  0  0  0  0  0
   12.6785  -36.3052    1.3314 N   0  0  0  0  0  0  0  0  0  0  0  0
   13.6878  -38.2034    0.3294 O   0  0  0  0  0  0  0  0  0  0  0  0
   12.7294  -35.4971    1.8915 H   0  0  0  0  0  0  0  0  0  0  0  0
   11.4339  -36.6679    0.6803 C   0  0  0  0  0  0  0  0  0  0  0  0
   11.6885  -35.4265   -1.3598 O   0  0  0  0  0  0  0  0  0  0  0  0
    9.9530  -34.9871   -0.1690 O   0  0  0  0  0  0  0  0  0  0  0  0
   11.0053  -35.6418   -0.3351 C   0  0  0  0  0  0  0  0  0  0  0  0
    9.4260  -35.1326    0.5920 H   0  0  0  0  0  0  0  0  0  0  0  0
   10.3419  -36.8852    1.7279 C   0  0  0  0  0  0  0  0  0  0  0  0
   10.7877  -36.3895    3.1015 C   0  0  0  0  0  0  0  0  0  0  0  0
    9.9100  -35.2556    3.5771 C   0  0  0  0  0  0  0  0  0  0  0  0
    9.5676  -35.1835    4.7767 O   0  0  0  0  0  0  0  0  0  0  0  0
    9.5136  -34.3792    2.7785 O   0  0  0  0  0  0  0  0  0  0  0  0
    9.7625  -34.4205    1.8761 H   0  0  0  0  0  0  0  0  0  0  0  0
   18.5699  -36.0136    4.0413 N   0  0  0  0  0  0  0  0  0  0  0  0
   18.7058  -35.1183    4.4275 H   0  0  0  0  0  0  0  0  0  0  0  0
   19.5891  -37.0193    4.2822 C   0  0  0  0  0  0  0  0  0  0  0  0
   24.7193  -35.2344    2.6677 N   0  0  0  0  0  0  0  0  0  0  0  0
   25.4675  -34.4538    3.5217 C   0  0  0  0  0  0  0  0  0  0  0  0
   24.9700  -34.1037    4.7595 N   0  0  0  0  0  0  0  0  0  0  0  0
   23.7168  -34.5264    5.1592 C   0  0  0  0  0  0  0  0  0  0  0  0
   21.7114  -35.7550    4.7009 N   0  0  0  0  0  0  0  0  0  0  0  0
   20.9576  -36.5412    3.8494 C   0  0  0  0  0  0  0  0  0  0  0  0
   21.4649  -36.8844    2.6019 C   0  0  0  0  0  0  0  0  0  0  0  0
   22.7179  -36.4504    2.2137 N   0  0  0  0  0  0  0  0  0  0  0  0
   22.9611  -35.3181    4.3070 C   0  0  0  0  0  0  0  0  0  0  0  0
   23.4689  -35.6660    3.0609 C   0  0  0  0  0  0  0  0  0  0  0  0
   26.6713  -34.0309    3.1529 N   0  0  0  0  0  0  0  0  0  0  0  0
   23.2382  -34.1857    6.3548 N   0  0  0  0  0  0  0  0  0  0  0  0
   27.0309  -34.2780    2.2704 H   0  0  0  0  0  0  0  0  0  0  0  0
   27.2041  -33.4702    3.7621 H   0  0  0  0  0  0  0  0  0  0  0  0
   23.7759  -33.6238    6.9583 H   0  0  0  0  0  0  0  0  0  0  0  0
   22.3469  -34.4960    6.6348 H   0  0  0  0  0  0  0  0  0  0  0  0
  8  7  1  0  0  0
  1  7  1  0  0  0
  7  9  2  0  0  0
  8 11  1  0  0  0
 26 25  2  0  0  0
 25 34  1  0  0  0
 12 14  2  0  0  0
 35 26  1  0  0  0
 26 27  1  0  0  0
 14 13  1  0  0  0
 27 28  2  0  0  0
 28 36  1  0  0  0
 28 33  1  0  0  0
 33 29  1  0  0  0
 29 30  2  0  0  0
 31 30  1  0  0  0
 30 24  1  0  0  0
 32 31  2  0  0  0
 34 32  1  0  0  0
 24 22  1  0  0  0
 16 11  1  0  0  0
 11 14  1  0  0  0
 16 17  1  0  0  0
 19 18  2  0  0  0
 18 17  1  0  0  0
 18 20  1  0  0  0
 22  4  1  0  0  0
  6  1  2  0  0  0
  2  1  1  0  0  0
  3  2  2  0  0  0
  4  3  1  0  0  0
  4  5  2  0  0  0
  5  6  1  0  0  0
 34 33  2  0  0  0
  8 10  1  0  0  0
 13 15  1  0  0  0
 22 23  1  0  0  0
 35 37  1  0  0  0
 35 38  1  0  0  0
 36 39  1  0  0  0
 36 40  1  0  0  0
 20 21  1  0  0  0
M  END
> <minimizedAffinity>
-10.61787

$$$$
4KN1_04J_A_301


 40 42  0  0  0  0  0  0  0  0999 V2000
   14.5004  -36.4190    2.7889 C   0  0  0  0  0  0  0  0  0  0  0  0
   15.3140  -35.8504    1.8161 C   0  0  0  0  0  0  0  0  0  0  0  0
   16.6885  -35.7824    2.0057 C   0  0  0  0  0  0  0  0  0  0  0  0
   17.2643  -36.2881    3.1657 C   0  0  0  0  0  0  0  0  0  0  0  0
   16.4525  -36.8541    4.1479 C   0  0  0  0  0  0  0  0  0  0  0  0
   15.0697  -36.9226    3.9607 C   0  0  0  0  0  0  0  0  0  0  0  0
   13.0205  -36.4657    2.5350 C   0  0  0  0  0  0  0  0  0  0  0  0
   12.1689  -35.9480    3.4093 N   0  0  0  0  0  0  0  0  0  0  0  0
   12.5490  -37.0830    1.3615 O   0  0  0  0  0  0  0  0  0  0  0  0
   12.5008  -35.4891    4.2146 H   0  0  0  0  0  0  0  0  0  0  0  0
   10.7432  -36.0643    3.1676 C   0  0  0  0  0  0  0  0  0  0  0  0
    9.9090  -33.8576    2.7179 O   0  0  0  0  0  0  0  0  0  0  0  0
   10.1212  -35.1750    1.0319 O   0  0  0  0  0  0  0  0  0  0  0  0
   10.2311  -34.9762    2.2615 C   0  0  0  0  0  0  0  0  0  0  0  0
   10.3569  -36.0060    0.6688 H   0  0  0  0  0  0  0  0  0  0  0  0
    9.9879  -36.0652    4.4969 C   0  0  0  0  0  0  0  0  0  0  0  0
    9.5917  -37.4817    4.9061 C   0  0  0  0  0  0  0  0  0  0  0  0
    9.5862  -37.6275    6.4098 C   0  0  0  0  0  0  0  0  0  0  0  0
   10.2863  -38.5036    6.9611 O   0  0  0  0  0  0  0  0  0  0  0  0
    8.8811  -36.8779    7.1196 O   0  0  0  0  0  0  0  0  0  0  0  0
    8.3511  -36.2166    6.7199 H   0  0  0  0  0  0  0  0  0  0  0  0
   18.6764  -36.1902    3.3056 N   0  0  0  0  0  0  0  0  0  0  0  0
   19.1344  -35.4490    2.8473 H   0  0  0  0  0  0  0  0  0  0  0  0
   19.4857  -37.1133    4.0808 C   0  0  0  0  0  0  0  0  0  0  0  0
   24.3570  -38.3356    1.4564 N   0  0  0  0  0  0  0  0  0  0  0  0
   25.1841  -39.3074    1.9761 C   0  0  0  0  0  0  0  0  0  0  0  0
   24.8326  -39.9751    3.1306 N   0  0  0  0  0  0  0  0  0  0  0  0
   23.6514  -39.6785    3.7829 C   0  0  0  0  0  0  0  0  0  0  0  0
   21.6225  -38.4092    3.8996 N   0  0  0  0  0  0  0  0  0  0  0  0
   20.7871  -37.4373    3.3809 C   0  0  0  0  0  0  0  0  0  0  0  0
   21.1522  -36.7659    2.2202 C   0  0  0  0  0  0  0  0  0  0  0  0
   22.3390  -37.0698    1.5811 N   0  0  0  0  0  0  0  0  0  0  0  0
   22.8108  -38.7060    3.2613 C   0  0  0  0  0  0  0  0  0  0  0  0
   23.1724  -38.0369    2.0981 C   0  0  0  0  0  0  0  0  0  0  0  0
   26.3277  -39.6017    1.3682 N   0  0  0  0  0  0  0  0  0  0  0  0
   23.3149  -40.3241    4.8984 N   0  0  0  0  0  0  0  0  0  0  0  0
   26.5830  -39.1279    0.5438 H   0  0  0  0  0  0  0  0  0  0  0  0
   26.9200  -40.2936    1.7418 H   0  0  0  0  0  0  0  0  0  0  0  0
   23.9126  -41.0140    5.2672 H   0  0  0  0  0  0  0  0  0  0  0  0
   22.4685  -40.1114    5.3541 H   0  0  0  0  0  0  0  0  0  0  0  0
  8  7  1  0  0  0
  1  7  1  0  0  0
  7  9  2  0  0  0
  8 11  1  0  0  0
 26 25  2  0  0  0
 25 34  1  0  0  0
 12 14  2  0  0  0
 35 26  1  0  0  0
 26 27  1  0  0  0
 14 13  1  0  0  0
 27 28  2  0  0  0
 28 36  1  0  0  0
 28 33  1  0  0  0
 33 29  1  0  0  0
 29 30  2  0  0  0
 31 30  1  0  0  0
 30 24  1  0  0  0
 32 31  2  0  0  0
 34 32  1  0  0  0
 24 22  1  0  0  0
 16 11  1  0  0  0
 11 14  1  0  0  0
 16 17  1  0  0  0
 19 18  2  0  0  0
 18 17  1  0  0  0
 18 20  1  0  0  0
 22  4  1  0  0  0
  6  1  2  0  0  0
  2  1  1  0  0  0
  3  2  2  0  0  0
  4  3  1  0  0  0
  4  5  2  0  0  0
  5  6  1  0  0  0
 34 33  2  0  0  0
  8 10  1  0  0  0
 13 15  1  0  0  0
 22 23  1  0  0  0
 35 37  1  0  0  0
 35 38  1  0  0  0
 36 39  1  0  0  0
 36 40  1  0  0  0
 20 21  1  0  0  0
M  END
> <minimizedAffinity>
-10.58113

$$$$
4KN1_04J_A_301


 40 42  0  0  0  0  0  0  0  0999 V2000
   14.3647  -36.4079    2.6740 C   0  0  0  0  0  0  0  0  0  0  0  0
   15.1478  -35.8762    1.6564 C   0  0  0  0  0  0  0  0  0  0  0  0
   16.5246  -35.7760    1.8125 C   0  0  0  0  0  0  0  0  0  0  0  0
   17.1332  -36.2125    2.9838 C   0  0  0  0  0  0  0  0  0  0  0  0
   16.3520  -36.7410    4.0107 C   0  0  0  0  0  0  0  0  0  0  0  0
   14.9670  -36.8417    3.8572 C   0  0  0  0  0  0  0  0  0  0  0  0
   12.8809  -36.4918    2.4549 C   0  0  0  0  0  0  0  0  0  0  0  0
   12.0385  -35.9535    3.3256 N   0  0  0  0  0  0  0  0  0  0  0  0
   12.3963  -37.1660    1.3187 O   0  0  0  0  0  0  0  0  0  0  0  0
   12.3787  -35.4555    4.1038 H   0  0  0  0  0  0  0  0  0  0  0  0
   10.6104  -36.1055    3.1205 C   0  0  0  0  0  0  0  0  0  0  0  0
    9.6016  -33.9945    2.5783 O   0  0  0  0  0  0  0  0  0  0  0  0
   10.0626  -35.2988    0.9323 O   0  0  0  0  0  0  0  0  0  0  0  0
   10.0628  -35.0800    2.1633 C   0  0  0  0  0  0  0  0  0  0  0  0
   10.4035  -36.1057    0.5998 H   0  0  0  0  0  0  0  0  0  0  0  0
    9.8814  -36.0402    4.4627 C   0  0  0  0  0  0  0  0  0  0  0  0
    9.3869  -37.4200    4.8903 C   0  0  0  0  0  0  0  0  0  0  0  0
    9.5044  -37.5958    6.3862 C   0  0  0  0  0  0  0  0  0  0  0  0
   10.2652  -38.4658    6.8612 O   0  0  0  0  0  0  0  0  0  0  0  0
    8.8416  -36.8773    7.1657 O   0  0  0  0  0  0  0  0  0  0  0  0
    8.2671  -36.2209    6.8236 H   0  0  0  0  0  0  0  0  0  0  0  0
   18.5459  -36.0843    3.0879 N   0  0  0  0  0  0  0  0  0  0  0  0
   19.0210  -35.6189    2.3620 H   0  0  0  0  0  0  0  0  0  0  0  0
   19.3324  -36.5959    4.1960 C   0  0  0  0  0  0  0  0  0  0  0  0
   24.8906  -36.3195    3.1276 N   0  0  0  0  0  0  0  0  0  0  0  0
   25.7028  -35.5622    3.9432 C   0  0  0  0  0  0  0  0  0  0  0  0
   25.1671  -34.8710    5.0097 N   0  0  0  0  0  0  0  0  0  0  0  0
   23.8120  -34.9247    5.2735 C   0  0  0  0  0  0  0  0  0  0  0  0
   21.6351  -35.7599    4.7217 N   0  0  0  0  0  0  0  0  0  0  0  0
   20.8158  -36.5207    3.9086 C   0  0  0  0  0  0  0  0  0  0  0  0
   21.3636  -37.2095    2.8331 C   0  0  0  0  0  0  0  0  0  0  0  0
   22.7200  -37.1426    2.5784 N   0  0  0  0  0  0  0  0  0  0  0  0
   22.9896  -35.6906    4.4604 C   0  0  0  0  0  0  0  0  0  0  0  0
   23.5367  -36.3837    3.3872 C   0  0  0  0  0  0  0  0  0  0  0  0
   27.0069  -35.4914    3.7016 N   0  0  0  0  0  0  0  0  0  0  0  0
   23.2971  -34.2550    6.3035 N   0  0  0  0  0  0  0  0  0  0  0  0
   27.3941  -35.9830    2.9416 H   0  0  0  0  0  0  0  0  0  0  0  0
   27.5864  -34.9474    4.2826 H   0  0  0  0  0  0  0  0  0  0  0  0
   23.8822  -33.7119    6.8796 H   0  0  0  0  0  0  0  0  0  0  0  0
   22.3314  -34.3033    6.4887 H   0  0  0  0  0  0  0  0  0  0  0  0
  8  7  1  0  0  0
  1  7  1  0  0  0
  7  9  2  0  0  0
  8 11  1  0  0  0
 26 25  2  0  0  0
 25 34  1  0  0  0
 12 14  2  0  0  0
 35 26  1  0  0  0
 26 27  1  0  0  0
 14 13  1  0  0  0
 27 28  2  0  0  0
 28 36  1  0  0  0
 28 33  1  0  0  0
 33 29  1  0  0  0
 29 30  2  0  0  0
 31 30  1  0  0  0
 30 24  1  0  0  0
 32 31  2  0  0  0
 34 32  1  0  0  0
 24 22  1  0  0  0
 16 11  1  0  0  0
 11 14  1  0  0  0
 16 17  1  0  0  0
 19 18  2  0  0  0
 18 17  1  0  0  0
 18 20  1  0  0  0
 22  4  1  0  0  0
  6  1  2  0  0  0
  2  1  1  0  0  0
  3  2  2  0  0  0
  4  3  1  0  0  0
  4  5  2  0  0  0
  5  6  1  0  0  0
 34 33  2  0  0  0
  8 10  1  0  0  0
 13 15  1  0  0  0
 22 23  1  0  0  0
 35 37  1  0  0  0
 35 38  1  0  0  0
 36 39  1  0  0  0
 36 40  1  0  0  0
 20 21  1  0  0  0
M  END
> <minimizedAffinity>
-10.54250

$$$$
4KN1_04J_A_301


 40 42  0  0  0  0  0  0  0  0999 V2000
   14.3027  -36.4512    2.5147 C   0  0  0  0  0  0  0  0  0  0  0  0
   15.1145  -35.9713    1.4939 C   0  0  0  0  0  0  0  0  0  0  0  0
   16.4906  -35.8979    1.6700 C   0  0  0  0  0  0  0  0  0  0  0  0
   17.0696  -36.3099    2.8649 C   0  0  0  0  0  0  0  0  0  0  0  0
   16.2596  -36.7865    3.8949 C   0  0  0  0  0  0  0  0  0  0  0  0
   14.8753  -36.8600    3.7213 C   0  0  0  0  0  0  0  0  0  0  0  0
   12.8211  -36.5079    2.2732 C   0  0  0  0  0  0  0  0  0  0  0  0
   11.9753  -35.9590    3.1341 N   0  0  0  0  0  0  0  0  0  0  0  0
   12.3417  -37.1679    1.1265 O   0  0  0  0  0  0  0  0  0  0  0  0
   12.3126  -35.4709    3.9197 H   0  0  0  0  0  0  0  0  0  0  0  0
   10.5480  -36.0848    2.9071 C   0  0  0  0  0  0  0  0  0  0  0  0
    9.5427  -33.9289    2.5766 O   0  0  0  0  0  0  0  0  0  0  0  0
   10.0198  -35.0562    0.8090 O   0  0  0  0  0  0  0  0  0  0  0  0
   10.0085  -34.9658    2.0560 C   0  0  0  0  0  0  0  0  0  0  0  0
   10.3643  -35.8246    0.3981 H   0  0  0  0  0  0  0  0  0  0  0  0
    9.8118  -36.1536    4.2452 C   0  0  0  0  0  0  0  0  0  0  0  0
    9.7982  -37.5777    4.7955 C   0  0  0  0  0  0  0  0  0  0  0  0
    9.6502  -37.5740    6.2989 C   0  0  0  0  0  0  0  0  0  0  0  0
   10.2392  -38.4302    6.9928 O   0  0  0  0  0  0  0  0  0  0  0  0
    8.9363  -36.7187    6.8663 O   0  0  0  0  0  0  0  0  0  0  0  0
    8.4888  -36.0707    6.3587 H   0  0  0  0  0  0  0  0  0  0  0  0
   18.4831  -36.2112    2.9888 N   0  0  0  0  0  0  0  0  0  0  0  0
   19.0170  -36.1805    2.1622 H   0  0  0  0  0  0  0  0  0  0  0  0
   19.1892  -36.1529    4.2561 C   0  0  0  0  0  0  0  0  0  0  0  0
   22.7520  -40.5158    4.8751 N   0  0  0  0  0  0  0  0  0  0  0  0
   24.0616  -40.3874    4.4664 C   0  0  0  0  0  0  0  0  0  0  0  0
   24.5024  -39.2073    3.9050 N   0  0  0  0  0  0  0  0  0  0  0  0
   23.6396  -38.1406    3.7416 C   0  0  0  0  0  0  0  0  0  0  0  0
   21.4534  -37.1969    4.0083 N   0  0  0  0  0  0  0  0  0  0  0  0
   20.1391  -37.3189    4.4195 C   0  0  0  0  0  0  0  0  0  0  0  0
   19.7025  -38.5138    4.9791 C   0  0  0  0  0  0  0  0  0  0  0  0
   20.5755  -39.5738    5.1319 N   0  0  0  0  0  0  0  0  0  0  0  0
   22.3216  -38.2608    4.1572 C   0  0  0  0  0  0  0  0  0  0  0  0
   21.8846  -39.4535    4.7211 C   0  0  0  0  0  0  0  0  0  0  0  0
   24.9046  -41.4039    4.6077 N   0  0  0  0  0  0  0  0  0  0  0  0
   24.0677  -37.0023    3.1980 N   0  0  0  0  0  0  0  0  0  0  0  0
   24.5948  -42.2484    5.0078 H   0  0  0  0  0  0  0  0  0  0  0  0
   25.8393  -41.3129    4.3123 H   0  0  0  0  0  0  0  0  0  0  0  0
   25.0034  -36.9188    2.9037 H   0  0  0  0  0  0  0  0  0  0  0  0
   23.4483  -36.2446    3.0906 H   0  0  0  0  0  0  0  0  0  0  0  0
  8  7  1  0  0  0
  1  7  1  0  0  0
  7  9  2  0  0  0
  8 11  1  0  0  0
 26 25  2  0  0  0
 25 34  1  0  0  0
 12 14  2  0  0  0
 35 26  1  0  0  0
 26 27  1  0  0  0
 14 13  1  0  0  0
 27 28  2  0  0  0
 28 36  1  0  0  0
 28 33  1  0  0  0
 33 29  1  0  0  0
 29 30  2  0  0  0
 31 30  1  0  0  0
 30 24  1  0  0  0
 32 31  2  0  0  0
 34 32  1  0  0  0
 24 22  1  0  0  0
 16 11  1  0  0  0
 11 14  1  0  0  0
 16 17  1  0  0  0
 19 18  2  0  0  0
 18 17  1  0  0  0
 18 20  1  0  0  0
 22  4  1  0  0  0
  6  1  2  0  0  0
  2  1  1  0  0  0
  3  2  2  0  0  0
  4  3  1  0  0  0
  4  5  2  0  0  0
  5  6  1  0  0  0
 34 33  2  0  0  0
  8 10  1  0  0  0
 13 15  1  0  0  0
 22 23  1  0  0  0
 35 37  1  0  0  0
 35 38  1  0  0  0
 36 39  1  0  0  0
 36 40  1  0  0  0
 20 21  1  0  0  0
M  END
> <minimizedAffinity>
-10.38982

$$$$
4KN1_04J_A_301


 40 42  0  0  0  0  0  0  0  0999 V2000
   18.1105  -36.7684    3.5823 C   0  0  0  0  0  0  0  0  0  0  0  0
   17.3780  -35.8632    2.8237 C   0  0  0  0  0  0  0  0  0  0  0  0
   16.0533  -36.1304    2.5020 C   0  0  0  0  0  0  0  0  0  0  0  0
   15.4453  -37.3011    2.9409 C   0  0  0  0  0  0  0  0  0  0  0  0
   16.1771  -38.2159    3.6971 C   0  0  0  0  0  0  0  0  0  0  0  0
   17.5099  -37.9507    4.0209 C   0  0  0  0  0  0  0  0  0  0  0  0
   19.5396  -36.4320    3.9004 C   0  0  0  0  0  0  0  0  0  0  0  0
   20.5321  -37.1351    3.3728 N   0  0  0  0  0  0  0  0  0  0  0  0
   19.8102  -35.3685    4.7813 O   0  0  0  0  0  0  0  0  0  0  0  0
   20.3432  -37.8588    2.7327 H   0  0  0  0  0  0  0  0  0  0  0  0
   21.8993  -36.8274    3.7480 C   0  0  0  0  0  0  0  0  0  0  0  0
   22.3245  -36.6028    1.3950 O   0  0  0  0  0  0  0  0  0  0  0  0
   23.8597  -35.9028    2.7278 O   0  0  0  0  0  0  0  0  0  0  0  0
   22.7358  -36.4251    2.5623 C   0  0  0  0  0  0  0  0  0  0  0  0
   24.1872  -35.7605    3.5940 H   0  0  0  0  0  0  0  0  0  0  0  0
   22.5218  -38.0211    4.4726 C   0  0  0  0  0  0  0  0  0  0  0  0
   22.0636  -38.0842    5.9276 C   0  0  0  0  0  0  0  0  0  0  0  0
   20.8769  -39.0066    6.0802 C   0  0  0  0  0  0  0  0  0  0  0  0
   20.2529  -39.0580    7.1616 O   0  0  0  0  0  0  0  0  0  0  0  0
   20.5069  -39.7304    5.1304 O   0  0  0  0  0  0  0  0  0  0  0  0
   20.9653  -39.7024    4.3137 H   0  0  0  0  0  0  0  0  0  0  0  0
   14.0872  -37.5218    2.5804 N   0  0  0  0  0  0  0  0  0  0  0  0
   13.8646  -38.3602    2.1148 H   0  0  0  0  0  0  0  0  0  0  0  0
   13.0081  -36.5900    2.8551 C   0  0  0  0  0  0  0  0  0  0  0  0
   10.3815  -34.9852   -1.9028 N   0  0  0  0  0  0  0  0  0  0  0  0
   11.0877  -34.9332   -3.0848 C   0  0  0  0  0  0  0  0  0  0  0  0
   12.4264  -35.2639   -3.1103 N   0  0  0  0  0  0  0  0  0  0  0  0
   13.0782  -35.6479   -1.9542 C   0  0  0  0  0  0  0  0  0  0  0  0
   13.0110  -36.1020    0.3975 N   0  0  0  0  0  0  0  0  0  0  0  0
   12.3067  -36.1592    1.5858 C   0  0  0  0  0  0  0  0  0  0  0  0
   10.9594  -35.8189    1.6028 C   0  0  0  0  0  0  0  0  0  0  0  0
   10.3217  -35.4320    0.4397 N   0  0  0  0  0  0  0  0  0  0  0  0
   12.3716  -35.7090   -0.7620 C   0  0  0  0  0  0  0  0  0  0  0  0
   11.0230  -35.3734   -0.7443 C   0  0  0  0  0  0  0  0  0  0  0  0
   10.4810  -34.5589   -4.2055 N   0  0  0  0  0  0  0  0  0  0  0  0
   14.3716  -35.9656   -1.9814 N   0  0  0  0  0  0  0  0  0  0  0  0
    9.5256  -34.3219   -4.1925 H   0  0  0  0  0  0  0  0  0  0  0  0
   10.9868  -34.5185   -5.0492 H   0  0  0  0  0  0  0  0  0  0  0  0
   14.8715  -35.9216   -2.8284 H   0  0  0  0  0  0  0  0  0  0  0  0
   14.8275  -36.2442   -1.1545 H   0  0  0  0  0  0  0  0  0  0  0  0
  8  7  1  0  0  0
  1  7  1  0  0  0
  7  9  2  0  0  0
  8 11  1  0  0  0
 26 25  2  0  0  0
 25 34  1  0  0  0
 12 14  2  0  0  0
 35 26  1  0  0  0
 26 27  1  0  0  0
 14 13  1  0  0  0
 27 28  2  0  0  0
 28 36  1  0  0  0
 28 33  1  0  0  0
 33 29  1  0  0  0
 29 30  2  0  0  0
 31 30  1  0  0  0
 30 24  1  0  0  0
 32 31  2  0  0  0
 34 32  1  0  0  0
 24 22  1  0  0  0
 16 11  1  0  0  0
 11 14  1  0  0  0
 16 17  1  0  0  0
 19 18  2  0  0  0
 18 17  1  0  0  0
 18 20  1  0  0  0
 22  4  1  0  0  0
  6  1  2  0  0  0
  2  1  1  0  0  0
  3  2  2  0  0  0
  4  3  1  0  0  0
  4  5  2  0  0  0
  5  6  1  0  0  0
 34 33  2  0  0  0
  8 10  1  0  0  0
 13 15  1  0  0  0
 22 23  1  0  0  0
 35 37  1  0  0  0
 35 38  1  0  0  0
 36 39  1  0  0  0
 36 40  1  0  0  0
 20 21  1  0  0  0
M  END
> <minimizedAffinity>
-10.32670

$$$$
4KN1_04J_A_301


 40 42  0  0  0  0  0  0  0  0999 V2000
   18.3350  -37.1524    4.3210 C   0  0  0  0  0  0  0  0  0  0  0  0
   17.2916  -38.0620    4.1968 C   0  0  0  0  0  0  0  0  0  0  0  0
   16.0825  -37.6679    3.6377 C   0  0  0  0  0  0  0  0  0  0  0  0
   15.9063  -36.3632    3.1908 C   0  0  0  0  0  0  0  0  0  0  0  0
   16.9475  -35.4446    3.3185 C   0  0  0  0  0  0  0  0  0  0  0  0
   18.1641  -35.8376    3.8817 C   0  0  0  0  0  0  0  0  0  0  0  0
   19.6206  -37.6295    4.9343 C   0  0  0  0  0  0  0  0  0  0  0  0
   19.6650  -38.7715    5.6063 N   0  0  0  0  0  0  0  0  0  0  0  0
   20.7759  -36.8373    4.7997 O   0  0  0  0  0  0  0  0  0  0  0  0
   18.8640  -39.3400    5.6737 H   0  0  0  0  0  0  0  0  0  0  0  0
   20.9053  -39.1751    6.2414 C   0  0  0  0  0  0  0  0  0  0  0  0
   21.5768  -41.4368    5.7925 O   0  0  0  0  0  0  0  0  0  0  0  0
   22.2914  -39.9275    4.4381 O   0  0  0  0  0  0  0  0  0  0  0  0
   21.6276  -40.2349    5.4522 C   0  0  0  0  0  0  0  0  0  0  0  0
   22.3428  -39.0326    4.1654 H   0  0  0  0  0  0  0  0  0  0  0  0
   20.6292  -39.6527    7.6672 C   0  0  0  0  0  0  0  0  0  0  0  0
   19.1314  -39.8151    7.9150 C   0  0  0  0  0  0  0  0  0  0  0  0
   18.7453  -41.2753    7.9495 C   0  0  0  0  0  0  0  0  0  0  0  0
   17.5602  -41.6095    8.1627 O   0  0  0  0  0  0  0  0  0  0  0  0
   19.6043  -42.1654    7.7688 O   0  0  0  0  0  0  0  0  0  0  0  0
   20.4968  -41.9295    7.6079 H   0  0  0  0  0  0  0  0  0  0  0  0
   14.6469  -36.0164    2.6280 N   0  0  0  0  0  0  0  0  0  0  0  0
   14.3253  -35.0942    2.7518 H   0  0  0  0  0  0  0  0  0  0  0  0
   13.8052  -36.9352    1.8826 C   0  0  0  0  0  0  0  0  0  0  0  0
   13.2567  -35.3354   -3.5258 N   0  0  0  0  0  0  0  0  0  0  0  0
   12.0376  -34.8819   -3.9803 C   0  0  0  0  0  0  0  0  0  0  0  0
   10.9556  -34.8224   -3.1271 N   0  0  0  0  0  0  0  0  0  0  0  0
   11.0765  -35.2184   -1.8090 C   0  0  0  0  0  0  0  0  0  0  0  0
   12.4374  -36.0577   -0.0244 N   0  0  0  0  0  0  0  0  0  0  0  0
   13.6590  -36.5105    0.4380 C   0  0  0  0  0  0  0  0  0  0  0  0
   14.7423  -36.5721   -0.4304 C   0  0  0  0  0  0  0  0  0  0  0  0
   14.6053  -36.1773   -1.7474 N   0  0  0  0  0  0  0  0  0  0  0  0
   12.3028  -35.6696   -1.3431 C   0  0  0  0  0  0  0  0  0  0  0  0
   13.3882  -35.7274   -2.2092 C   0  0  0  0  0  0  0  0  0  0  0  0
   11.8988  -34.5040   -5.2460 N   0  0  0  0  0  0  0  0  0  0  0  0
   10.0296  -35.1611   -0.9875 N   0  0  0  0  0  0  0  0  0  0  0  0
   12.6682  -34.5446   -5.8590 H   0  0  0  0  0  0  0  0  0  0  0  0
   11.0267  -34.1834   -5.5713 H   0  0  0  0  0  0  0  0  0  0  0  0
    9.1600  -34.8406   -1.3198 H   0  0  0  0  0  0  0  0  0  0  0  0
   10.1253  -35.4392   -0.0479 H   0  0  0  0  0  0  0  0  0  0  0  0
  8  7  1  0  0  0
  1  7  1  0  0  0
  7  9  2  0  0  0
  8 11  1  0  0  0
 26 25  2  0  0  0
 25 34  1  0  0  0
 12 14  2  0  0  0
 35 26  1  0  0  0
 26 27  1  0  0  0
 14 13  1  0  0  0
 27 28  2  0  0  0
 28 36  1  0  0  0
 28 33  1  0  0  0
 33 29  1  0  0  0
 29 30  2  0  0  0
 31 30  1  0  0  0
 30 24  1  0  0  0
 32 31  2  0  0  0
 34 32  1  0  0  0
 24 22  1  0  0  0
 16 11  1  0  0  0
 11 14  1  0  0  0
 16 17  1  0  0  0
 19 18  2  0  0  0
 18 17  1  0  0  0
 18 20  1  0  0  0
 22  4  1  0  0  0
  6  1  2  0  0  0
  2  1  1  0  0  0
  3  2  2  0  0  0
  4  3  1  0  0  0
  4  5  2  0  0  0
  5  6  1  0  0  0
 34 33  2  0  0  0
  8 10  1  0  0  0
 13 15  1  0  0  0
 22 23  1  0  0  0
 35 37  1  0  0  0
 35 38  1  0  0  0
 36 39  1  0  0  0
 36 40  1  0  0  0
 20 21  1  0  0  0
M  END
> <minimizedAffinity>
-10.07925

$$$$
4KN1_04J_A_301


 40 42  0  0  0  0  0  0  0  0999 V2000
   15.6088  -36.5823    3.1259 C   0  0  0  0  0  0  0  0  0  0  0  0
   15.7543  -37.9166    3.4864 C   0  0  0  0  0  0  0  0  0  0  0  0
   16.9695  -38.3813    3.9735 C   0  0  0  0  0  0  0  0  0  0  0  0
   18.0489  -37.5161    4.1118 C   0  0  0  0  0  0  0  0  0  0  0  0
   17.9107  -36.1778    3.7459 C   0  0  0  0  0  0  0  0  0  0  0  0
   16.6903  -35.7078    3.2543 C   0  0  0  0  0  0  0  0  0  0  0  0
   14.2744  -36.1319    2.6030 C   0  0  0  0  0  0  0  0  0  0  0  0
   13.6687  -36.8019    1.6325 N   0  0  0  0  0  0  0  0  0  0  0  0
   13.6831  -34.9768    3.1474 O   0  0  0  0  0  0  0  0  0  0  0  0
   14.0682  -37.6270    1.2736 H   0  0  0  0  0  0  0  0  0  0  0  0
   12.4113  -36.3071    1.1044 C   0  0  0  0  0  0  0  0  0  0  0  0
   10.2149  -37.1668    1.5565 O   0  0  0  0  0  0  0  0  0  0  0  0
   11.3057  -36.3687    3.2287 O   0  0  0  0  0  0  0  0  0  0  0  0
   11.2505  -36.6308    2.0074 C   0  0  0  0  0  0  0  0  0  0  0  0
   12.0724  -35.9670    3.5876 H   0  0  0  0  0  0  0  0  0  0  0  0
   12.1801  -36.8659   -0.2997 C   0  0  0  0  0  0  0  0  0  0  0  0
   12.2929  -35.7693   -1.3561 C   0  0  0  0  0  0  0  0  0  0  0  0
   10.9257  -35.3168   -1.8126 C   0  0  0  0  0  0  0  0  0  0  0  0
   10.7975  -34.6680   -2.8728 O   0  0  0  0  0  0  0  0  0  0  0  0
    9.9085  -35.5822   -1.1360 O   0  0  0  0  0  0  0  0  0  0  0  0
    9.9896  -36.0680   -0.3388 H   0  0  0  0  0  0  0  0  0  0  0  0
   19.2684  -38.0479    4.6149 N   0  0  0  0  0  0  0  0  0  0  0  0
   19.2858  -38.9986    4.8703 H   0  0  0  0  0  0  0  0  0  0  0  0
   20.4893  -37.2788    4.7760 C   0  0  0  0  0  0  0  0  0  0  0  0
   24.3540  -38.6692    0.8718 N   0  0  0  0  0  0  0  0  0  0  0  0
   25.1282  -39.7947    1.0522 C   0  0  0  0  0  0  0  0  0  0  0  0
   24.9686  -40.5755    2.1778 N   0  0  0  0  0  0  0  0  0  0  0  0
   24.0353  -40.2403    3.1399 C   0  0  0  0  0  0  0  0  0  0  0  0
   22.3044  -38.7742    3.9116 N   0  0  0  0  0  0  0  0  0  0  0  0
   21.5225  -37.6480    3.7344 C   0  0  0  0  0  0  0  0  0  0  0  0
   21.6942  -36.8642    2.5997 C   0  0  0  0  0  0  0  0  0  0  0  0
   22.6349  -37.2090    1.6482 N   0  0  0  0  0  0  0  0  0  0  0  0
   23.2478  -39.1124    2.9613 C   0  0  0  0  0  0  0  0  0  0  0  0
   23.4152  -38.3301    1.8247 C   0  0  0  0  0  0  0  0  0  0  0  0
   26.0364  -40.1295    0.1427 N   0  0  0  0  0  0  0  0  0  0  0  0
   23.8841  -40.9956    4.2267 N   0  0  0  0  0  0  0  0  0  0  0  0
   26.1541  -39.5753   -0.6625 H   0  0  0  0  0  0  0  0  0  0  0  0
   26.5918  -40.9317    0.2737 H   0  0  0  0  0  0  0  0  0  0  0  0
   24.4438  -41.7958    4.3518 H   0  0  0  0  0  0  0  0  0  0  0  0
   23.2126  -40.7536    4.9047 H   0  0  0  0  0  0  0  0  0  0  0  0
  8  7  1  0  0  0
  1  7  1  0  0  0
  7  9  2  0  0  0
  8 11  1  0  0  0
 26 25  2  0  0  0
 25 34  1  0  0  0
 12 14  2  0  0  0
 35 26  1  0  0  0
 26 27  1  0  0  0
 14 13  1  0  0  0
 27 28  2  0  0  0
 28 36  1  0  0  0
 28 33  1  0  0  0
 33 29  1  0  0  0
 29 30  2  0  0  0
 31 30  1  0  0  0
 30 24  1  0  0  0
 32 31  2  0  0  0
 34 32  1  0  0  0
 24 22  1  0  0  0
 16 11  1  0  0  0
 11 14  1  0  0  0
 16 17  1  0  0  0
 19 18  2  0  0  0
 18 17  1  0  0  0
 18 20  1  0  0  0
 22  4  1  0  0  0
  6  1  2  0  0  0
  2  1  1  0  0  0
  3  2  2  0  0  0
  4  3  1  0  0  0
  4  5  2  0  0  0
  5  6  1  0  0  0
 34 33  2  0  0  0
  8 10  1  0  0  0
 13 15  1  0  0  0
 22 23  1  0  0  0
 35 37  1  0  0  0
 35 38  1  0  0  0
 36 39  1  0  0  0
 36 40  1  0  0  0
 20 21  1  0  0  0
M  END
> <minimizedAffinity>
-9.82222

$$$$
