6GLB_F48_A_1201


 28 32  0  0  0  0  0  0  0  0999 V2000
   40.5941   48.4412    0.6770 C   0  0  0  0  0  0  0  0  0  0  0  0
   36.4729   48.7740    0.0486 C   0  0  0  0  0  0  0  0  0  0  0  0
   36.4511   47.8480   -0.9424 C   0  0  0  0  0  0  0  0  0  0  0  0
   37.7137   47.3541   -1.1578 N   0  0  0  0  0  0  0  0  0  0  0  0
   39.5933   50.9659    2.8875 C   0  0  0  0  0  0  0  0  0  0  0  0
   38.3793   50.6667    2.3155 N   0  0  0  0  0  0  0  0  0  0  0  0
   40.5801   50.2257    2.4250 N   0  0  0  0  0  0  0  0  0  0  0  0
   39.9853   49.3969    1.4819 C   0  0  0  0  0  0  0  0  0  0  0  0
   39.9262   47.7219   -0.2334 N   0  0  0  0  0  0  0  0  0  0  0  0
   38.6126   49.6326    1.3889 C   0  0  0  0  0  0  0  0  0  0  0  0
   37.8326   48.8836    0.4766 C   0  0  0  0  0  0  0  0  0  0  0  0
   38.6011   47.9507   -0.3120 C   0  0  0  0  0  0  0  0  0  0  0  0
   37.9448   46.6689   -1.8259 H   0  0  0  0  0  0  0  0  0  0  0  0
   37.0772   51.3022    2.6521 C   0  0  0  0  0  0  0  0  0  0  0  0
   36.1042   50.3544    3.3309 C   0  0  0  0  0  0  0  0  0  0  0  0
   34.8680   51.1191    3.7880 C   0  0  0  0  0  0  0  0  0  0  0  0
   34.2304   51.8612    2.6297 C   0  0  0  0  0  0  0  0  0  0  0  0
   35.2212   52.8309    1.9822 C   0  0  0  0  0  0  0  0  0  0  0  0
   36.4734   52.1073    1.5066 C   0  0  0  0  0  0  0  0  0  0  0  0
   39.8046   52.0001    3.8745 C   0  0  0  0  0  0  0  0  0  0  0  0
   40.8609   52.5286    4.5312 C   0  0  0  0  0  0  0  0  0  0  0  0
   40.3425   53.5055    5.4277 C   0  0  0  0  0  0  0  0  0  0  0  0
   39.0027   53.5261    5.2634 C   0  0  0  0  0  0  0  0  0  0  0  0
   38.6485   52.6085    4.3148 O   0  0  0  0  0  0  0  0  0  0  0  0
   37.8455   54.3062    5.7959 C   0  0  0  0  0  0  0  0  0  0  0  0
   36.5826   54.2501    4.9558 C   0  0  0  0  0  0  0  0  0  0  0  0
   35.3533   54.2848    5.7826 C   0  0  0  0  0  0  0  0  0  0  0  0
   34.3727   54.3357    6.3811 N   0  0  0  0  0  0  0  0  0  0  0  0
 26 27  1  0  0  0
 26 25  1  0  0  0
 27 28  3  0  0  0
 22 23  2  0  0  0
 22 21  1  0  0  0
 25 23  1  0  0  0
 23 24  1  0  0  0
 21 20  2  0  0  0
 24 20  1  0  0  0
 20  5  1  0  0  0
 16 15  1  0  0  0
 16 17  1  0  0  0
 15 14  1  0  0  0
  5  7  2  0  0  0
  5  6  1  0  0  0
 17 18  1  0  0  0
 14  6  1  0  0  0
 14 19  1  0  0  0
  7  8  1  0  0  0
  6 10  1  0  0  0
 18 19  1  0  0  0
  8 10  2  0  0  0
  8  1  1  0  0  0
 10 11  1  0  0  0
  1  9  2  0  0  0
 11  2  1  0  0  0
 11 12  2  0  0  0
  2  3  2  0  0  0
  9 12  1  0  0  0
 12  4  1  0  0  0
  3  4  1  0  0  0
  4 13  1  0  0  0
M  END
> <minimizedAffinity>
-9.18915

$$$$
6GLB_F48_A_1201


 28 32  0  0  0  0  0  0  0  0999 V2000
   40.3036   53.5397    5.9605 C   0  0  0  0  0  0  0  0  0  0  0  0
   39.4740   50.9513    2.7820 C   0  0  0  0  0  0  0  0  0  0  0  0
   40.7746   50.6199    2.5853 C   0  0  0  0  0  0  0  0  0  0  0  0
   41.5731   51.2761    3.4888 N   0  0  0  0  0  0  0  0  0  0  0  0
   36.8411   53.8138    5.5160 C   0  0  0  0  0  0  0  0  0  0  0  0
   37.1288   52.9054    4.5247 N   0  0  0  0  0  0  0  0  0  0  0  0
   37.9021   54.1825    6.2043 N   0  0  0  0  0  0  0  0  0  0  0  0
   38.9558   53.4863    5.6253 C   0  0  0  0  0  0  0  0  0  0  0  0
   41.2459   52.8514    5.3044 N   0  0  0  0  0  0  0  0  0  0  0  0
   38.5161   52.6716    4.5808 C   0  0  0  0  0  0  0  0  0  0  0  0
   39.4486   51.8840    3.8653 C   0  0  0  0  0  0  0  0  0  0  0  0
   40.8125   52.0626    4.3022 C   0  0  0  0  0  0  0  0  0  0  0  0
   42.5525   51.1912    3.5416 H   0  0  0  0  0  0  0  0  0  0  0  0
   36.1425   52.2773    3.6053 C   0  0  0  0  0  0  0  0  0  0  0  0
   35.9781   50.7846    3.8300 C   0  0  0  0  0  0  0  0  0  0  0  0
   34.8399   50.2521    2.9682 C   0  0  0  0  0  0  0  0  0  0  0  0
   35.0623   50.5901    1.5069 C   0  0  0  0  0  0  0  0  0  0  0  0
   35.1947   52.1007    1.3030 C   0  0  0  0  0  0  0  0  0  0  0  0
   36.3251   52.6760    2.1449 C   0  0  0  0  0  0  0  0  0  0  0  0
   35.5264   54.3519    5.7818 C   0  0  0  0  0  0  0  0  0  0  0  0
   34.7669   54.5922    6.8734 C   0  0  0  0  0  0  0  0  0  0  0  0
   33.5192   55.0936    6.4056 C   0  0  0  0  0  0  0  0  0  0  0  0
   33.5883   55.1400    5.0582 C   0  0  0  0  0  0  0  0  0  0  0  0
   34.8120   54.6879    4.6515 O   0  0  0  0  0  0  0  0  0  0  0  0
   32.7188   55.5939    3.9316 C   0  0  0  0  0  0  0  0  0  0  0  0
   32.6867   54.6742    2.7246 C   0  0  0  0  0  0  0  0  0  0  0  0
   31.9359   55.2599    1.5892 C   0  0  0  0  0  0  0  0  0  0  0  0
   31.3836   55.7613    0.7139 N   0  0  0  0  0  0  0  0  0  0  0  0
 26 27  1  0  0  0
 26 25  1  0  0  0
 27 28  3  0  0  0
 22 23  2  0  0  0
 22 21  1  0  0  0
 25 23  1  0  0  0
 23 24  1  0  0  0
 21 20  2  0  0  0
 24 20  1  0  0  0
 20  5  1  0  0  0
 16 15  1  0  0  0
 16 17  1  0  0  0
 15 14  1  0  0  0
  5  7  2  0  0  0
  5  6  1  0  0  0
 17 18  1  0  0  0
 14  6  1  0  0  0
 14 19  1  0  0  0
  7  8  1  0  0  0
  6 10  1  0  0  0
 18 19  1  0  0  0
  8 10  2  0  0  0
  8  1  1  0  0  0
 10 11  1  0  0  0
  1  9  2  0  0  0
 11  2  1  0  0  0
 11 12  2  0  0  0
  2  3  2  0  0  0
  9 12  1  0  0  0
 12  4  1  0  0  0
  3  4  1  0  0  0
  4 13  1  0  0  0
M  END
> <minimizedAffinity>
-9.16247

$$$$
6GLB_F48_A_1201


 28 32  0  0  0  0  0  0  0  0999 V2000
   41.1321   52.4227    4.9360 C   0  0  0  0  0  0  0  0  0  0  0  0
   37.2209   53.8447    5.3492 C   0  0  0  0  0  0  0  0  0  0  0  0
   37.5176   54.6371    6.4093 C   0  0  0  0  0  0  0  0  0  0  0  0
   38.8507   54.5335    6.7205 N   0  0  0  0  0  0  0  0  0  0  0  0
   39.3285   50.6877    2.4868 C   0  0  0  0  0  0  0  0  0  0  0  0
   38.3149   51.4446    3.0257 N   0  0  0  0  0  0  0  0  0  0  0  0
   40.4977   50.9109    3.0515 N   0  0  0  0  0  0  0  0  0  0  0  0
   40.2392   51.8623    4.0303 C   0  0  0  0  0  0  0  0  0  0  0  0
   40.7639   53.3080    5.8703 N   0  0  0  0  0  0  0  0  0  0  0  0
   38.8926   52.2294    4.0420 C   0  0  0  0  0  0  0  0  0  0  0  0
   38.4353   53.1892    4.9755 C   0  0  0  0  0  0  0  0  0  0  0  0
   39.4642   53.6619    5.8704 C   0  0  0  0  0  0  0  0  0  0  0  0
   39.2984   55.0180    7.4513 H   0  0  0  0  0  0  0  0  0  0  0  0
   36.8956   51.4436    2.5807 C   0  0  0  0  0  0  0  0  0  0  0  0
   36.4651   52.7531    1.9439 C   0  0  0  0  0  0  0  0  0  0  0  0
   35.0600   52.6146    1.3708 C   0  0  0  0  0  0  0  0  0  0  0  0
   34.0848   52.1469    2.4333 C   0  0  0  0  0  0  0  0  0  0  0  0
   34.5244   50.8119    3.0378 C   0  0  0  0  0  0  0  0  0  0  0  0
   35.9253   50.9054    3.6266 C   0  0  0  0  0  0  0  0  0  0  0  0
   39.1571   49.7166    1.4305 C   0  0  0  0  0  0  0  0  0  0  0  0
   38.1481   48.9560    0.9512 C   0  0  0  0  0  0  0  0  0  0  0  0
   38.6931   48.1598   -0.0957 C   0  0  0  0  0  0  0  0  0  0  0  0
   39.9993   48.4834   -0.2038 C   0  0  0  0  0  0  0  0  0  0  0  0
   40.3080   49.4372    0.7247 O   0  0  0  0  0  0  0  0  0  0  0  0
   41.1491   48.1182   -1.0846 C   0  0  0  0  0  0  0  0  0  0  0  0
   42.4049   47.6684   -0.3603 C   0  0  0  0  0  0  0  0  0  0  0  0
   42.2274   46.3630    0.3182 C   0  0  0  0  0  0  0  0  0  0  0  0
   42.1418   45.3551    0.8652 N   0  0  0  0  0  0  0  0  0  0  0  0
 26 27  1  0  0  0
 26 25  1  0  0  0
 27 28  3  0  0  0
 22 23  2  0  0  0
 22 21  1  0  0  0
 25 23  1  0  0  0
 23 24  1  0  0  0
 21 20  2  0  0  0
 24 20  1  0  0  0
 20  5  1  0  0  0
 16 15  1  0  0  0
 16 17  1  0  0  0
 15 14  1  0  0  0
  5  7  2  0  0  0
  5  6  1  0  0  0
 17 18  1  0  0  0
 14  6  1  0  0  0
 14 19  1  0  0  0
  7  8  1  0  0  0
  6 10  1  0  0  0
 18 19  1  0  0  0
  8 10  2  0  0  0
  8  1  1  0  0  0
 10 11  1  0  0  0
  1  9  2  0  0  0
 11  2  1  0  0  0
 11 12  2  0  0  0
  2  3  2  0  0  0
  9 12  1  0  0  0
 12  4  1  0  0  0
  3  4  1  0  0  0
  4 13  1  0  0  0
M  END
> <minimizedAffinity>
-9.11267

$$$$
6GLB_F48_A_1201


 28 32  0  0  0  0  0  0  0  0999 V2000
   41.1212   52.4045    4.8806 C   0  0  0  0  0  0  0  0  0  0  0  0
   37.2443   53.8990    5.3564 C   0  0  0  0  0  0  0  0  0  0  0  0
   37.5740   54.6901    6.4078 C   0  0  0  0  0  0  0  0  0  0  0  0
   38.9103   54.5635    6.6959 N   0  0  0  0  0  0  0  0  0  0  0  0
   39.2435   50.6930    2.4709 C   0  0  0  0  0  0  0  0  0  0  0  0
   38.2534   51.4703    3.0243 N   0  0  0  0  0  0  0  0  0  0  0  0
   40.4263   50.8970    3.0139 N   0  0  0  0  0  0  0  0  0  0  0  0
   40.2024   51.8568    3.9932 C   0  0  0  0  0  0  0  0  0  0  0  0
   40.7857   53.3001    5.8174 N   0  0  0  0  0  0  0  0  0  0  0  0
   38.8631   52.2484    4.0269 C   0  0  0  0  0  0  0  0  0  0  0  0
   38.4399   53.2201    4.9642 C   0  0  0  0  0  0  0  0  0  0  0  0
   39.4928   53.6775    5.8388 C   0  0  0  0  0  0  0  0  0  0  0  0
   39.3796   55.0427    7.4166 H   0  0  0  0  0  0  0  0  0  0  0  0
   36.8267   51.4934    2.6044 C   0  0  0  0  0  0  0  0  0  0  0  0
   36.4244   52.7855    1.9156 C   0  0  0  0  0  0  0  0  0  0  0  0
   35.0053   52.6650    1.3738 C   0  0  0  0  0  0  0  0  0  0  0  0
   34.0362   52.2765    2.4733 C   0  0  0  0  0  0  0  0  0  0  0  0
   34.4464   50.9572    3.1308 C   0  0  0  0  0  0  0  0  0  0  0  0
   35.8602   51.0336    3.6904 C   0  0  0  0  0  0  0  0  0  0  0  0
   39.0359   49.7210    1.4219 C   0  0  0  0  0  0  0  0  0  0  0  0
   39.8145   48.9589    0.6223 C   0  0  0  0  0  0  0  0  0  0  0  0
   38.9405   48.2478   -0.2481 C   0  0  0  0  0  0  0  0  0  0  0  0
   37.6794   48.6071    0.0728 C   0  0  0  0  0  0  0  0  0  0  0  0
   37.7127   49.5126    1.0956 O   0  0  0  0  0  0  0  0  0  0  0  0
   36.2946   48.2423   -0.3523 C   0  0  0  0  0  0  0  0  0  0  0  0
   35.2304   49.2852   -0.0627 C   0  0  0  0  0  0  0  0  0  0  0  0
   33.9150   48.9243   -0.6418 C   0  0  0  0  0  0  0  0  0  0  0  0
   32.8758   48.6339   -1.0393 N   0  0  0  0  0  0  0  0  0  0  0  0
 26 27  1  0  0  0
 26 25  1  0  0  0
 27 28  3  0  0  0
 22 23  2  0  0  0
 22 21  1  0  0  0
 25 23  1  0  0  0
 23 24  1  0  0  0
 21 20  2  0  0  0
 24 20  1  0  0  0
 20  5  1  0  0  0
 16 15  1  0  0  0
 16 17  1  0  0  0
 15 14  1  0  0  0
  5  7  2  0  0  0
  5  6  1  0  0  0
 17 18  1  0  0  0
 14  6  1  0  0  0
 14 19  1  0  0  0
  7  8  1  0  0  0
  6 10  1  0  0  0
 18 19  1  0  0  0
  8 10  2  0  0  0
  8  1  1  0  0  0
 10 11  1  0  0  0
  1  9  2  0  0  0
 11  2  1  0  0  0
 11 12  2  0  0  0
  2  3  2  0  0  0
  9 12  1  0  0  0
 12  4  1  0  0  0
  3  4  1  0  0  0
  4 13  1  0  0  0
M  END
> <minimizedAffinity>
-8.98608

$$$$
6GLB_F48_A_1201


 28 32  0  0  0  0  0  0  0  0999 V2000
   31.6176   54.7153    1.1993 C   0  0  0  0  0  0  0  0  0  0  0  0
   33.6689   51.4745   -0.4677 C   0  0  0  0  0  0  0  0  0  0  0  0
   32.8562   51.3924   -1.5507 C   0  0  0  0  0  0  0  0  0  0  0  0
   31.8871   52.3628   -1.4910 N   0  0  0  0  0  0  0  0  0  0  0  0
   34.0971   53.9690    3.5566 C   0  0  0  0  0  0  0  0  0  0  0  0
   34.3772   53.0061    2.6157 N   0  0  0  0  0  0  0  0  0  0  0  0
   33.0907   54.7480    3.2165 N   0  0  0  0  0  0  0  0  0  0  0  0
   32.6722   54.2632    1.9836 C   0  0  0  0  0  0  0  0  0  0  0  0
   31.2751   54.1439    0.0381 N   0  0  0  0  0  0  0  0  0  0  0  0
   33.4533   53.1835    1.5682 C   0  0  0  0  0  0  0  0  0  0  0  0
   33.1767   52.5520    0.3327 C   0  0  0  0  0  0  0  0  0  0  0  0
   32.0379   53.1070   -0.3586 C   0  0  0  0  0  0  0  0  0  0  0  0
   31.1854   52.5013   -2.1675 H   0  0  0  0  0  0  0  0  0  0  0  0
   35.4729   52.0033    2.6947 C   0  0  0  0  0  0  0  0  0  0  0  0
   36.5629   52.2222    1.6604 C   0  0  0  0  0  0  0  0  0  0  0  0
   37.7187   51.2618    1.9129 C   0  0  0  0  0  0  0  0  0  0  0  0
   37.2343   49.8253    1.9389 C   0  0  0  0  0  0  0  0  0  0  0  0
   36.1590   49.6240    3.0087 C   0  0  0  0  0  0  0  0  0  0  0  0
   34.9806   50.5635    2.7929 C   0  0  0  0  0  0  0  0  0  0  0  0
   34.7957   54.1188    4.8127 C   0  0  0  0  0  0  0  0  0  0  0  0
   34.4565   54.2899    6.1097 C   0  0  0  0  0  0  0  0  0  0  0  0
   35.6715   54.4230    6.8397 C   0  0  0  0  0  0  0  0  0  0  0  0
   36.6833   54.3174    5.9522 C   0  0  0  0  0  0  0  0  0  0  0  0
   36.1696   54.1313    4.6997 O   0  0  0  0  0  0  0  0  0  0  0  0
   38.1765   54.2989    5.9902 C   0  0  0  0  0  0  0  0  0  0  0  0
   38.8466   53.5750    4.8366 C   0  0  0  0  0  0  0  0  0  0  0  0
   40.1872   53.0574    5.1983 C   0  0  0  0  0  0  0  0  0  0  0  0
   41.2099   52.6044    5.4653 N   0  0  0  0  0  0  0  0  0  0  0  0
 26 27  1  0  0  0
 26 25  1  0  0  0
 27 28  3  0  0  0
 22 23  2  0  0  0
 22 21  1  0  0  0
 25 23  1  0  0  0
 23 24  1  0  0  0
 21 20  2  0  0  0
 24 20  1  0  0  0
 20  5  1  0  0  0
 16 15  1  0  0  0
 16 17  1  0  0  0
 15 14  1  0  0  0
  5  7  2  0  0  0
  5  6  1  0  0  0
 17 18  1  0  0  0
 14  6  1  0  0  0
 14 19  1  0  0  0
  7  8  1  0  0  0
  6 10  1  0  0  0
 18 19  1  0  0  0
  8 10  2  0  0  0
  8  1  1  0  0  0
 10 11  1  0  0  0
  1  9  2  0  0  0
 11  2  1  0  0  0
 11 12  2  0  0  0
  2  3  2  0  0  0
  9 12  1  0  0  0
 12  4  1  0  0  0
  3  4  1  0  0  0
  4 13  1  0  0  0
M  END
> <minimizedAffinity>
-8.62491

$$$$
6GLB_F48_A_1201


 28 32  0  0  0  0  0  0  0  0999 V2000
   41.2767   49.9602    2.1310 C   0  0  0  0  0  0  0  0  0  0  0  0
   38.9883   52.7029    4.3061 C   0  0  0  0  0  0  0  0  0  0  0  0
   40.0397   53.1456    5.0398 C   0  0  0  0  0  0  0  0  0  0  0  0
   41.1866   52.4878    4.6702 N   0  0  0  0  0  0  0  0  0  0  0  0
   38.0106   49.4570    0.9730 C   0  0  0  0  0  0  0  0  0  0  0  0
   37.7780   50.4545    1.8904 N   0  0  0  0  0  0  0  0  0  0  0  0
   39.2812   49.1207    0.8846 N   0  0  0  0  0  0  0  0  0  0  0  0
   39.9252   49.9353    1.8077 C   0  0  0  0  0  0  0  0  0  0  0  0
   41.7866   50.7640    3.0723 N   0  0  0  0  0  0  0  0  0  0  0  0
   39.0262   50.7883    2.4499 C   0  0  0  0  0  0  0  0  0  0  0  0
   39.4967   51.6945    3.4293 C   0  0  0  0  0  0  0  0  0  0  0  0
   40.9136   51.5886    3.6824 C   0  0  0  0  0  0  0  0  0  0  0  0
   42.0766   52.6427    5.0615 H   0  0  0  0  0  0  0  0  0  0  0  0
   36.4583   51.0712    2.1914 C   0  0  0  0  0  0  0  0  0  0  0  0
   36.3946   52.5495    1.8503 C   0  0  0  0  0  0  0  0  0  0  0  0
   34.9716   53.0634    2.0318 C   0  0  0  0  0  0  0  0  0  0  0  0
   34.4660   52.7766    3.4321 C   0  0  0  0  0  0  0  0  0  0  0  0
   34.5120   51.2786    3.7403 C   0  0  0  0  0  0  0  0  0  0  0  0
   35.9194   50.7223    3.5744 C   0  0  0  0  0  0  0  0  0  0  0  0
   36.9855   48.8027    0.1923 C   0  0  0  0  0  0  0  0  0  0  0  0
   36.8244   47.6016   -0.4059 C   0  0  0  0  0  0  0  0  0  0  0  0
   35.5659   47.6373   -1.0706 C   0  0  0  0  0  0  0  0  0  0  0  0
   35.0251   48.8517   -0.8352 C   0  0  0  0  0  0  0  0  0  0  0  0
   35.8799   49.5861   -0.0623 O   0  0  0  0  0  0  0  0  0  0  0  0
   33.7484   49.5616   -1.1472 C   0  0  0  0  0  0  0  0  0  0  0  0
   33.2887   50.5611   -0.1016 C   0  0  0  0  0  0  0  0  0  0  0  0
   32.9503   51.8780   -0.6907 C   0  0  0  0  0  0  0  0  0  0  0  0
   32.6365   52.8802   -1.1594 N   0  0  0  0  0  0  0  0  0  0  0  0
 26 27  1  0  0  0
 26 25  1  0  0  0
 27 28  3  0  0  0
 22 23  2  0  0  0
 22 21  1  0  0  0
 25 23  1  0  0  0
 23 24  1  0  0  0
 21 20  2  0  0  0
 24 20  1  0  0  0
 20  5  1  0  0  0
 16 15  1  0  0  0
 16 17  1  0  0  0
 15 14  1  0  0  0
  5  7  2  0  0  0
  5  6  1  0  0  0
 17 18  1  0  0  0
 14  6  1  0  0  0
 14 19  1  0  0  0
  7  8  1  0  0  0
  6 10  1  0  0  0
 18 19  1  0  0  0
  8 10  2  0  0  0
  8  1  1  0  0  0
 10 11  1  0  0  0
  1  9  2  0  0  0
 11  2  1  0  0  0
 11 12  2  0  0  0
  2  3  2  0  0  0
  9 12  1  0  0  0
 12  4  1  0  0  0
  3  4  1  0  0  0
  4 13  1  0  0  0
M  END
> <minimizedAffinity>
-8.39541

$$$$
6GLB_F48_A_1201


 28 32  0  0  0  0  0  0  0  0999 V2000
   40.3223   49.6151    2.3199 C   0  0  0  0  0  0  0  0  0  0  0  0
   36.7863   49.1020    0.1466 C   0  0  0  0  0  0  0  0  0  0  0  0
   37.2985   48.1245   -0.6421 C   0  0  0  0  0  0  0  0  0  0  0  0
   38.6025   47.8706   -0.2961 N   0  0  0  0  0  0  0  0  0  0  0  0
   38.1593   52.0421    3.6210 C   0  0  0  0  0  0  0  0  0  0  0  0
   37.3307   51.4761    2.6809 N   0  0  0  0  0  0  0  0  0  0  0  0
   39.3483   51.4771    3.6706 N   0  0  0  0  0  0  0  0  0  0  0  0
   39.3077   50.4873    2.6966 C   0  0  0  0  0  0  0  0  0  0  0  0
   40.1860   48.7206    1.3333 N   0  0  0  0  0  0  0  0  0  0  0  0
   38.0651   50.4464    2.0622 C   0  0  0  0  0  0  0  0  0  0  0  0
   37.8324   49.5010    1.0357 C   0  0  0  0  0  0  0  0  0  0  0  0
   38.9818   48.6831    0.7309 C   0  0  0  0  0  0  0  0  0  0  0  0
   39.1798   47.1994   -0.7269 H   0  0  0  0  0  0  0  0  0  0  0  0
   35.9216   51.8691    2.4116 C   0  0  0  0  0  0  0  0  0  0  0  0
   34.9220   50.7682    2.7189 C   0  0  0  0  0  0  0  0  0  0  0  0
   33.5018   51.3015    2.5752 C   0  0  0  0  0  0  0  0  0  0  0  0
   33.2854   51.9040    1.2008 C   0  0  0  0  0  0  0  0  0  0  0  0
   34.2847   53.0300    0.9274 C   0  0  0  0  0  0  0  0  0  0  0  0
   35.7202   52.5399    1.0572 C   0  0  0  0  0  0  0  0  0  0  0  0
   37.8039   53.1619    4.4625 C   0  0  0  0  0  0  0  0  0  0  0  0
   38.4577   54.0411    5.2537 C   0  0  0  0  0  0  0  0  0  0  0  0
   37.4686   54.8724    5.8518 C   0  0  0  0  0  0  0  0  0  0  0  0
   36.2692   54.4621    5.3874 C   0  0  0  0  0  0  0  0  0  0  0  0
   36.4497   53.4112    4.5329 O   0  0  0  0  0  0  0  0  0  0  0  0
   34.8415   54.8806    5.5204 C   0  0  0  0  0  0  0  0  0  0  0  0
   33.9525   54.5419    4.3376 C   0  0  0  0  0  0  0  0  0  0  0  0
   32.6535   55.2533    4.3867 C   0  0  0  0  0  0  0  0  0  0  0  0
   31.6198   55.7555    4.4273 N   0  0  0  0  0  0  0  0  0  0  0  0
 26 27  1  0  0  0
 26 25  1  0  0  0
 27 28  3  0  0  0
 22 23  2  0  0  0
 22 21  1  0  0  0
 25 23  1  0  0  0
 23 24  1  0  0  0
 21 20  2  0  0  0
 24 20  1  0  0  0
 20  5  1  0  0  0
 16 15  1  0  0  0
 16 17  1  0  0  0
 15 14  1  0  0  0
  5  7  2  0  0  0
  5  6  1  0  0  0
 17 18  1  0  0  0
 14  6  1  0  0  0
 14 19  1  0  0  0
  7  8  1  0  0  0
  6 10  1  0  0  0
 18 19  1  0  0  0
  8 10  2  0  0  0
  8  1  1  0  0  0
 10 11  1  0  0  0
  1  9  2  0  0  0
 11  2  1  0  0  0
 11 12  2  0  0  0
  2  3  2  0  0  0
  9 12  1  0  0  0
 12  4  1  0  0  0
  3  4  1  0  0  0
  4 13  1  0  0  0
M  END
> <minimizedAffinity>
-8.38061

$$$$
6GLB_F48_A_1201


 28 32  0  0  0  0  0  0  0  0999 V2000
   41.3636   50.8946    3.3291 C   0  0  0  0  0  0  0  0  0  0  0  0
   38.2019   53.3042    4.6280 C   0  0  0  0  0  0  0  0  0  0  0  0
   38.9541   53.9662    5.5422 C   0  0  0  0  0  0  0  0  0  0  0  0
   40.2461   53.5027    5.5185 N   0  0  0  0  0  0  0  0  0  0  0  0
   38.6100   49.7571    1.4891 C   0  0  0  0  0  0  0  0  0  0  0  0
   38.0018   50.7468    2.2248 N   0  0  0  0  0  0  0  0  0  0  0  0
   39.8995   49.6471    1.7354 N   0  0  0  0  0  0  0  0  0  0  0  0
   40.1564   50.6127    2.7007 C   0  0  0  0  0  0  0  0  0  0  0  0
   41.4897   51.8269    4.2816 N   0  0  0  0  0  0  0  0  0  0  0  0
   39.0026   51.3270    3.0274 C   0  0  0  0  0  0  0  0  0  0  0  0
   39.0653   52.3550    3.9975 C   0  0  0  0  0  0  0  0  0  0  0  0
   40.3732   52.5161    4.5861 C   0  0  0  0  0  0  0  0  0  0  0  0
   40.9747   53.8344    6.0915 H   0  0  0  0  0  0  0  0  0  0  0  0
   36.5683   51.1355    2.1454 C   0  0  0  0  0  0  0  0  0  0  0  0
   36.3535   52.5231    1.5675 C   0  0  0  0  0  0  0  0  0  0  0  0
   34.8645   52.7777    1.3678 C   0  0  0  0  0  0  0  0  0  0  0  0
   34.1009   52.5719    2.6614 C   0  0  0  0  0  0  0  0  0  0  0  0
   34.3094   51.1577    3.2072 C   0  0  0  0  0  0  0  0  0  0  0  0
   35.7865   50.8607    3.4254 C   0  0  0  0  0  0  0  0  0  0  0  0
   37.9281   48.8893    0.5562 C   0  0  0  0  0  0  0  0  0  0  0  0
   36.7003   48.3349    0.4495 C   0  0  0  0  0  0  0  0  0  0  0  0
   36.7156   47.5201   -0.7179 C   0  0  0  0  0  0  0  0  0  0  0  0
   37.9458   47.6283   -1.2633 C   0  0  0  0  0  0  0  0  0  0  0  0
   38.7091   48.4636   -0.4972 O   0  0  0  0  0  0  0  0  0  0  0  0
   38.6523   47.1282   -2.4807 C   0  0  0  0  0  0  0  0  0  0  0  0
   38.2396   47.7831   -3.7863 C   0  0  0  0  0  0  0  0  0  0  0  0
   39.0083   49.0190   -4.0648 C   0  0  0  0  0  0  0  0  0  0  0  0
   39.6136   49.9834   -4.2258 N   0  0  0  0  0  0  0  0  0  0  0  0
 26 27  1  0  0  0
 26 25  1  0  0  0
 27 28  3  0  0  0
 22 23  2  0  0  0
 22 21  1  0  0  0
 25 23  1  0  0  0
 23 24  1  0  0  0
 21 20  2  0  0  0
 24 20  1  0  0  0
 20  5  1  0  0  0
 16 15  1  0  0  0
 16 17  1  0  0  0
 15 14  1  0  0  0
  5  7  2  0  0  0
  5  6  1  0  0  0
 17 18  1  0  0  0
 14  6  1  0  0  0
 14 19  1  0  0  0
  7  8  1  0  0  0
  6 10  1  0  0  0
 18 19  1  0  0  0
  8 10  2  0  0  0
  8  1  1  0  0  0
 10 11  1  0  0  0
  1  9  2  0  0  0
 11  2  1  0  0  0
 11 12  2  0  0  0
  2  3  2  0  0  0
  9 12  1  0  0  0
 12  4  1  0  0  0
  3  4  1  0  0  0
  4 13  1  0  0  0
M  END
> <minimizedAffinity>
-7.98940

$$$$
6GLB_F48_A_1201


 28 32  0  0  0  0  0  0  0  0999 V2000
   37.0019   48.3282   -2.0441 C   0  0  0  0  0  0  0  0  0  0  0  0
   38.5291   49.4447    1.6857 C   0  0  0  0  0  0  0  0  0  0  0  0
   39.6482   48.6883    1.5622 C   0  0  0  0  0  0  0  0  0  0  0  0
   39.6468   48.0325    0.3563 N   0  0  0  0  0  0  0  0  0  0  0  0
   34.5205   50.3933   -0.6877 C   0  0  0  0  0  0  0  0  0  0  0  0
   35.4349   50.4281    0.3387 N   0  0  0  0  0  0  0  0  0  0  0  0
   34.9177   49.6642   -1.7105 N   0  0  0  0  0  0  0  0  0  0  0  0
   36.1629   49.1776   -1.3324 C   0  0  0  0  0  0  0  0  0  0  0  0
   38.1708   47.8868   -1.5635 N   0  0  0  0  0  0  0  0  0  0  0  0
   36.5272   49.6372   -0.0658 C   0  0  0  0  0  0  0  0  0  0  0  0
   37.7665   49.2451    0.4929 C   0  0  0  0  0  0  0  0  0  0  0  0
   38.5179   48.3404   -0.3435 C   0  0  0  0  0  0  0  0  0  0  0  0
   40.3575   47.4278    0.0424 H   0  0  0  0  0  0  0  0  0  0  0  0
   35.2915   51.1903    1.6080 C   0  0  0  0  0  0  0  0  0  0  0  0
   36.3201   52.2964    1.7637 C   0  0  0  0  0  0  0  0  0  0  0  0
   36.0046   53.1284    3.0006 C   0  0  0  0  0  0  0  0  0  0  0  0
   35.9146   52.2524    4.2349 C   0  0  0  0  0  0  0  0  0  0  0  0
   34.8513   51.1654    4.0648 C   0  0  0  0  0  0  0  0  0  0  0  0
   35.1294   50.3058    2.8395 C   0  0  0  0  0  0  0  0  0  0  0  0
   33.2346   51.0523   -0.6659 C   0  0  0  0  0  0  0  0  0  0  0  0
   31.9405   50.6753   -0.5683 C   0  0  0  0  0  0  0  0  0  0  0  0
   31.1570   51.8597   -0.6703 C   0  0  0  0  0  0  0  0  0  0  0  0
   32.0137   52.8930   -0.8154 C   0  0  0  0  0  0  0  0  0  0  0  0
   33.2962   52.4213   -0.8168 O   0  0  0  0  0  0  0  0  0  0  0  0
   31.9283   54.3807   -0.9187 C   0  0  0  0  0  0  0  0  0  0  0  0
   32.7750   55.1507    0.0784 C   0  0  0  0  0  0  0  0  0  0  0  0
   32.0946   55.3199    1.3838 C   0  0  0  0  0  0  0  0  0  0  0  0
   31.5611   55.3955    2.3998 N   0  0  0  0  0  0  0  0  0  0  0  0
 26 27  1  0  0  0
 26 25  1  0  0  0
 27 28  3  0  0  0
 22 23  2  0  0  0
 22 21  1  0  0  0
 25 23  1  0  0  0
 23 24  1  0  0  0
 21 20  2  0  0  0
 24 20  1  0  0  0
 20  5  1  0  0  0
 16 15  1  0  0  0
 16 17  1  0  0  0
 15 14  1  0  0  0
  5  7  2  0  0  0
  5  6  1  0  0  0
 17 18  1  0  0  0
 14  6  1  0  0  0
 14 19  1  0  0  0
  7  8  1  0  0  0
  6 10  1  0  0  0
 18 19  1  0  0  0
  8 10  2  0  0  0
  8  1  1  0  0  0
 10 11  1  0  0  0
  1  9  2  0  0  0
 11  2  1  0  0  0
 11 12  2  0  0  0
  2  3  2  0  0  0
  9 12  1  0  0  0
 12  4  1  0  0  0
  3  4  1  0  0  0
  4 13  1  0  0  0
M  END
> <minimizedAffinity>
-7.85549

$$$$
6GLB_F48_A_1201


 28 32  0  0  0  0  0  0  0  0999 V2000
   31.4330   52.1444   -1.3360 C   0  0  0  0  0  0  0  0  0  0  0  0
   32.9071   54.1725    2.0112 C   0  0  0  0  0  0  0  0  0  0  0  0
   31.9906   55.1693    1.9317 C   0  0  0  0  0  0  0  0  0  0  0  0
   31.1488   54.9559    0.8685 N   0  0  0  0  0  0  0  0  0  0  0  0
   34.2171   50.2617   -0.3531 C   0  0  0  0  0  0  0  0  0  0  0  0
   34.2569   51.2478    0.6043 N   0  0  0  0  0  0  0  0  0  0  0  0
   33.2093   50.3941   -1.1913 N   0  0  0  0  0  0  0  0  0  0  0  0
   32.5515   51.5433   -0.7708 C   0  0  0  0  0  0  0  0  0  0  0  0
   30.9021   53.2813   -0.8694 N   0  0  0  0  0  0  0  0  0  0  0  0
   33.1662   52.1014    0.3512 C   0  0  0  0  0  0  0  0  0  0  0  0
   32.6389   53.2822    0.9252 C   0  0  0  0  0  0  0  0  0  0  0  0
   31.4972   53.8098    0.2174 C   0  0  0  0  0  0  0  0  0  0  0  0
   30.4023   55.5448    0.6132 H   0  0  0  0  0  0  0  0  0  0  0  0
   35.2499   51.3523    1.7068 C   0  0  0  0  0  0  0  0  0  0  0  0
   34.6545   51.0870    3.0782 C   0  0  0  0  0  0  0  0  0  0  0  0
   35.7602   51.0506    4.1261 C   0  0  0  0  0  0  0  0  0  0  0  0
   36.5793   52.3261    4.0945 C   0  0  0  0  0  0  0  0  0  0  0  0
   37.1926   52.5551    2.7116 C   0  0  0  0  0  0  0  0  0  0  0  0
   36.1207   52.6017    1.6315 C   0  0  0  0  0  0  0  0  0  0  0  0
   35.1829   49.1935   -0.4739 C   0  0  0  0  0  0  0  0  0  0  0  0
   35.2062   47.9458   -0.9926 C   0  0  0  0  0  0  0  0  0  0  0  0
   36.4943   47.4071   -0.7135 C   0  0  0  0  0  0  0  0  0  0  0  0
   37.1878   48.3560   -0.0493 C   0  0  0  0  0  0  0  0  0  0  0  0
   36.4021   49.4626    0.1108 O   0  0  0  0  0  0  0  0  0  0  0  0
   38.5690   48.5250    0.4938 C   0  0  0  0  0  0  0  0  0  0  0  0
   38.6511   49.1343    1.8816 C   0  0  0  0  0  0  0  0  0  0  0  0
   39.9692   49.7573    2.1467 C   0  0  0  0  0  0  0  0  0  0  0  0
   40.9934   50.2576    2.2989 N   0  0  0  0  0  0  0  0  0  0  0  0
 26 27  1  0  0  0
 26 25  1  0  0  0
 27 28  3  0  0  0
 22 23  2  0  0  0
 22 21  1  0  0  0
 25 23  1  0  0  0
 23 24  1  0  0  0
 21 20  2  0  0  0
 24 20  1  0  0  0
 20  5  1  0  0  0
 16 15  1  0  0  0
 16 17  1  0  0  0
 15 14  1  0  0  0
  5  7  2  0  0  0
  5  6  1  0  0  0
 17 18  1  0  0  0
 14  6  1  0  0  0
 14 19  1  0  0  0
  7  8  1  0  0  0
  6 10  1  0  0  0
 18 19  1  0  0  0
  8 10  2  0  0  0
  8  1  1  0  0  0
 10 11  1  0  0  0
  1  9  2  0  0  0
 11  2  1  0  0  0
 11 12  2  0  0  0
  2  3  2  0  0  0
  9 12  1  0  0  0
 12  4  1  0  0  0
  3  4  1  0  0  0
  4 13  1  0  0  0
M  END
> <minimizedAffinity>
-7.84673

$$$$
