1GHY_121_H_246


 25 27  0  0  0  0  0  0  0  0999 V2000
   12.0533  -11.8429   22.9418 C   0  0  0  0  0  0  0  0  0  0  0  0
   12.1713  -10.7043   22.1221 C   0  0  0  0  0  0  0  0  0  0  0  0
   13.2023  -10.5756   21.2162 C   0  0  0  0  0  0  0  0  0  0  0  0
   14.1022  -11.6077   21.1355 C   0  0  0  0  0  0  0  0  0  0  0  0
   14.0040  -12.7204   21.9164 C   0  0  0  0  0  0  0  0  0  0  0  0
   12.9848  -12.8782   22.8370 C   0  0  0  0  0  0  0  0  0  0  0  0
   15.1725  -11.7115   20.4079 N   0  0  0  0  0  0  0  0  0  0  0  0
   15.0207  -13.4876   21.6544 N   0  0  0  0  0  0  0  0  0  0  0  0
   15.7276  -12.8591   20.7357 C   0  0  0  0  0  0  0  0  0  0  0  0
   15.5023  -11.0628   19.7448 H   0  0  0  0  0  0  0  0  0  0  0  0
   16.9453  -13.3404   20.2128 C   0  0  0  0  0  0  0  0  0  0  0  0
   17.0626  -13.2341   18.8970 N   0  0  0  0  0  0  0  0  0  0  0  0
   18.1012  -13.6560   18.2013 C   0  0  0  0  0  0  0  0  0  0  0  0
   19.1644  -14.2633   18.8587 C   0  0  0  0  0  0  0  0  0  0  0  0
   19.1068  -14.4121   20.2525 C   0  0  0  0  0  0  0  0  0  0  0  0
   17.9898  -13.9478   20.9573 C   0  0  0  0  0  0  0  0  0  0  0  0
   17.9628  -14.1112   22.3364 O   0  0  0  0  0  0  0  0  0  0  0  0
   17.2258  -13.8086   22.8297 H   0  0  0  0  0  0  0  0  0  0  0  0
   11.0275  -11.8965   23.8635 C   0  0  0  0  0  0  0  0  0  0  0  0
   10.2344  -12.9168   23.9283 N   0  0  0  0  0  0  0  0  0  0  0  0
   10.9038  -10.8737   24.6811 N   0  0  0  0  0  0  0  0  0  0  0  0
   10.3488  -13.6695   23.3042 H   0  0  0  0  0  0  0  0  0  0  0  0
    9.5166  -12.9403   24.6016 H   0  0  0  0  0  0  0  0  0  0  0  0
   11.5207  -10.1097   24.6105 H   0  0  0  0  0  0  0  0  0  0  0  0
   10.1943  -10.8720   25.3636 H   0  0  0  0  0  0  0  0  0  0  0  0
  1  2  1  0  0  0
  1  6  2  0  0  0
  1 19  1  0  0  0
  2  3  2  0  0  0
  3  4  1  0  0  0
  4  5  2  0  0  0
  4  7  1  0  0  0
  5  6  1  0  0  0
  5  8  1  0  0  0
 19 20  1  0  0  0
 19 21  2  0  0  0
  7  9  1  0  0  0
  8  9  2  0  0  0
  9 11  1  0  0  0
 11 12  2  0  0  0
 11 16  1  0  0  0
 12 13  1  0  0  0
 13 14  2  0  0  0
 14 15  1  0  0  0
 15 16  2  0  0  0
 16 17  1  0  0  0
 20 22  1  0  0  0
 20 23  1  0  0  0
 21 24  1  0  0  0
 21 25  1  0  0  0
  7 10  1  0  0  0
 17 18  1  0  0  0
M  CHG 1  21   1
M  END
> <minimizedAffinity>
-8.46942

$$$$
1GHY_121_H_246


 25 27  0  0  0  0  0  0  0  0999 V2000
   12.5924  -12.0249   22.4574 C   0  0  0  0  0  0  0  0  0  0  0  0
   12.1461  -13.2801   22.0015 C   0  0  0  0  0  0  0  0  0  0  0  0
   12.9693  -14.1146   21.2761 C   0  0  0  0  0  0  0  0  0  0  0  0
   14.2460  -13.6791   21.0271 C   0  0  0  0  0  0  0  0  0  0  0  0
   14.6994  -12.4698   21.4628 C   0  0  0  0  0  0  0  0  0  0  0  0
   13.8980  -11.6084   22.1887 C   0  0  0  0  0  0  0  0  0  0  0  0
   15.1895  -14.2461   20.3387 N   0  0  0  0  0  0  0  0  0  0  0  0
   15.9158  -12.3158   21.0299 N   0  0  0  0  0  0  0  0  0  0  0  0
   16.2014  -13.4043   20.3426 C   0  0  0  0  0  0  0  0  0  0  0  0
   15.1551  -15.1278   19.9020 H   0  0  0  0  0  0  0  0  0  0  0  0
   17.4194  -13.6098   19.6628 C   0  0  0  0  0  0  0  0  0  0  0  0
   18.4066  -14.0633   20.4217 N   0  0  0  0  0  0  0  0  0  0  0  0
   19.6354  -14.2877   19.9969 C   0  0  0  0  0  0  0  0  0  0  0  0
   19.9563  -14.0390   18.6677 C   0  0  0  0  0  0  0  0  0  0  0  0
   18.9602  -13.5543   17.8068 C   0  0  0  0  0  0  0  0  0  0  0  0
   17.6663  -13.3325   18.2930 C   0  0  0  0  0  0  0  0  0  0  0  0
   16.7032  -12.8511   17.4154 O   0  0  0  0  0  0  0  0  0  0  0  0
   15.8301  -12.6949   17.7177 H   0  0  0  0  0  0  0  0  0  0  0  0
   11.7097  -11.2116   23.1387 C   0  0  0  0  0  0  0  0  0  0  0  0
   11.7292   -9.9263   22.9914 N   0  0  0  0  0  0  0  0  0  0  0  0
   10.8402  -11.8023   23.9292 N   0  0  0  0  0  0  0  0  0  0  0  0
   12.3908   -9.5093   22.3932 H   0  0  0  0  0  0  0  0  0  0  0  0
   11.0825   -9.3653   23.4774 H   0  0  0  0  0  0  0  0  0  0  0  0
   10.8469  -12.7822   24.0234 H   0  0  0  0  0  0  0  0  0  0  0  0
   10.1826  -11.2644   24.4267 H   0  0  0  0  0  0  0  0  0  0  0  0
  1  2  1  0  0  0
  1  6  2  0  0  0
  1 19  1  0  0  0
  2  3  2  0  0  0
  3  4  1  0  0  0
  4  5  2  0  0  0
  4  7  1  0  0  0
  5  6  1  0  0  0
  5  8  1  0  0  0
 19 20  1  0  0  0
 19 21  2  0  0  0
  7  9  1  0  0  0
  8  9  2  0  0  0
  9 11  1  0  0  0
 11 12  2  0  0  0
 11 16  1  0  0  0
 12 13  1  0  0  0
 13 14  2  0  0  0
 14 15  1  0  0  0
 15 16  2  0  0  0
 16 17  1  0  0  0
 20 22  1  0  0  0
 20 23  1  0  0  0
 21 24  1  0  0  0
 21 25  1  0  0  0
  7 10  1  0  0  0
 17 18  1  0  0  0
M  CHG 1  21   1
M  END
> <minimizedAffinity>
-7.03986

$$$$
1GHY_121_H_246


 25 27  0  0  0  0  0  0  0  0999 V2000
   17.9613  -13.3430   17.3489 C   0  0  0  0  0  0  0  0  0  0  0  0
   19.3644  -13.3240   17.2336 C   0  0  0  0  0  0  0  0  0  0  0  0
   20.1766  -13.6542   18.2974 C   0  0  0  0  0  0  0  0  0  0  0  0
   19.5631  -14.0153   19.4699 C   0  0  0  0  0  0  0  0  0  0  0  0
   18.2068  -14.0444   19.6015 C   0  0  0  0  0  0  0  0  0  0  0  0
   17.3648  -13.7152   18.5556 C   0  0  0  0  0  0  0  0  0  0  0  0
   20.0921  -14.3220   20.6151 N   0  0  0  0  0  0  0  0  0  0  0  0
   17.9280  -14.3671   20.8300 N   0  0  0  0  0  0  0  0  0  0  0  0
   19.0864  -14.5298   21.4386 C   0  0  0  0  0  0  0  0  0  0  0  0
   21.0517  -14.3862   20.8253 H   0  0  0  0  0  0  0  0  0  0  0  0
   19.2203  -14.8397   22.8075 C   0  0  0  0  0  0  0  0  0  0  0  0
   18.0764  -15.0601   23.4391 N   0  0  0  0  0  0  0  0  0  0  0  0
   17.9714  -15.3276   24.7268 C   0  0  0  0  0  0  0  0  0  0  0  0
   19.1184  -15.3867   25.5094 C   0  0  0  0  0  0  0  0  0  0  0  0
   20.3651  -15.1605   24.9071 C   0  0  0  0  0  0  0  0  0  0  0  0
   20.4371  -14.8837   23.5367 C   0  0  0  0  0  0  0  0  0  0  0  0
   21.6864  -14.6632   22.9709 O   0  0  0  0  0  0  0  0  0  0  0  0
   21.7598  -14.4762   22.0557 H   0  0  0  0  0  0  0  0  0  0  0  0
   17.1988  -12.9576   16.2650 C   0  0  0  0  0  0  0  0  0  0  0  0
   16.4987  -11.8698   16.2881 N   0  0  0  0  0  0  0  0  0  0  0  0
   17.2293  -13.7359   15.2051 N   0  0  0  0  0  0  0  0  0  0  0  0
   16.4933  -11.3050   17.0945 H   0  0  0  0  0  0  0  0  0  0  0  0
   15.9715  -11.6068   15.4994 H   0  0  0  0  0  0  0  0  0  0  0  0
   17.7704  -14.5583   15.2137 H   0  0  0  0  0  0  0  0  0  0  0  0
   16.7111  -13.4959   14.4031 H   0  0  0  0  0  0  0  0  0  0  0  0
  1  2  1  0  0  0
  1  6  2  0  0  0
  1 19  1  0  0  0
  2  3  2  0  0  0
  3  4  1  0  0  0
  4  5  2  0  0  0
  4  7  1  0  0  0
  5  6  1  0  0  0
  5  8  1  0  0  0
 19 20  1  0  0  0
 19 21  2  0  0  0
  7  9  1  0  0  0
  8  9  2  0  0  0
  9 11  1  0  0  0
 11 12  2  0  0  0
 11 16  1  0  0  0
 12 13  1  0  0  0
 13 14  2  0  0  0
 14 15  1  0  0  0
 15 16  2  0  0  0
 16 17  1  0  0  0
 20 22  1  0  0  0
 20 23  1  0  0  0
 21 24  1  0  0  0
 21 25  1  0  0  0
  7 10  1  0  0  0
 17 18  1  0  0  0
M  CHG 1  21   1
M  END
> <minimizedAffinity>
-6.99180

$$$$
1GHY_121_H_246


 25 27  0  0  0  0  0  0  0  0999 V2000
   18.7529  -13.6515   18.6495 C   0  0  0  0  0  0  0  0  0  0  0  0
   17.4877  -13.7274   19.2627 C   0  0  0  0  0  0  0  0  0  0  0  0
   17.3567  -14.0076   20.6061 C   0  0  0  0  0  0  0  0  0  0  0  0
   18.5093  -14.1968   21.3253 C   0  0  0  0  0  0  0  0  0  0  0  0
   19.7438  -14.1235   20.7523 C   0  0  0  0  0  0  0  0  0  0  0  0
   19.9091  -13.8485   19.4076 C   0  0  0  0  0  0  0  0  0  0  0  0
   18.6567  -14.5132   22.5757 N   0  0  0  0  0  0  0  0  0  0  0  0
   20.6285  -14.4000   21.6645 N   0  0  0  0  0  0  0  0  0  0  0  0
   19.9523  -14.6395   22.7708 C   0  0  0  0  0  0  0  0  0  0  0  0
   17.9433  -14.6343   23.2433 H   0  0  0  0  0  0  0  0  0  0  0  0
   20.5468  -15.0272   23.9891 C   0  0  0  0  0  0  0  0  0  0  0  0
   20.2534  -14.2480   25.0202 N   0  0  0  0  0  0  0  0  0  0  0  0
   20.7317  -14.4077   26.2394 C   0  0  0  0  0  0  0  0  0  0  0  0
   21.6107  -15.4526   26.4985 C   0  0  0  0  0  0  0  0  0  0  0  0
   21.9681  -16.3161   25.4522 C   0  0  0  0  0  0  0  0  0  0  0  0
   21.4366  -16.1174   24.1723 C   0  0  0  0  0  0  0  0  0  0  0  0
   21.8112  -16.9891   23.1577 O   0  0  0  0  0  0  0  0  0  0  0  0
   21.4687  -16.8763   22.2929 H   0  0  0  0  0  0  0  0  0  0  0  0
   18.8216  -13.4141   17.2917 C   0  0  0  0  0  0  0  0  0  0  0  0
   19.9590  -13.2851   16.6885 N   0  0  0  0  0  0  0  0  0  0  0  0
   17.6822  -13.3416   16.6386 N   0  0  0  0  0  0  0  0  0  0  0  0
   20.7975  -13.3436   17.2010 H   0  0  0  0  0  0  0  0  0  0  0  0
   19.9859  -13.1285   15.7169 H   0  0  0  0  0  0  0  0  0  0  0  0
   16.8306  -13.4433   17.1219 H   0  0  0  0  0  0  0  0  0  0  0  0
   17.6811  -13.1857   15.6666 H   0  0  0  0  0  0  0  0  0  0  0  0
  1  2  1  0  0  0
  1  6  2  0  0  0
  1 19  1  0  0  0
  2  3  2  0  0  0
  3  4  1  0  0  0
  4  5  2  0  0  0
  4  7  1  0  0  0
  5  6  1  0  0  0
  5  8  1  0  0  0
 19 20  1  0  0  0
 19 21  2  0  0  0
  7  9  1  0  0  0
  8  9  2  0  0  0
  9 11  1  0  0  0
 11 12  2  0  0  0
 11 16  1  0  0  0
 12 13  1  0  0  0
 13 14  2  0  0  0
 14 15  1  0  0  0
 15 16  2  0  0  0
 16 17  1  0  0  0
 20 22  1  0  0  0
 20 23  1  0  0  0
 21 24  1  0  0  0
 21 25  1  0  0  0
  7 10  1  0  0  0
 17 18  1  0  0  0
M  CHG 1  21   1
M  END
> <minimizedAffinity>
-6.90022

$$$$
1GHY_121_H_246


 25 27  0  0  0  0  0  0  0  0999 V2000
   20.9024  -15.3019   25.3442 C   0  0  0  0  0  0  0  0  0  0  0  0
   19.5254  -15.3184   25.6373 C   0  0  0  0  0  0  0  0  0  0  0  0
   18.5795  -15.1273   24.6529 C   0  0  0  0  0  0  0  0  0  0  0  0
   19.0330  -14.9335   23.3729 C   0  0  0  0  0  0  0  0  0  0  0  0
   20.3610  -14.9182   23.0669 C   0  0  0  0  0  0  0  0  0  0  0  0
   21.3344  -15.1026   24.0311 C   0  0  0  0  0  0  0  0  0  0  0  0
   18.3605  -14.6886   22.2897 N   0  0  0  0  0  0  0  0  0  0  0  0
   20.4791  -14.6607   21.7977 N   0  0  0  0  0  0  0  0  0  0  0  0
   19.2520  -14.5190   21.3363 C   0  0  0  0  0  0  0  0  0  0  0  0
   17.3814  -14.6396   22.1996 H   0  0  0  0  0  0  0  0  0  0  0  0
   18.9462  -14.1820   20.0018 C   0  0  0  0  0  0  0  0  0  0  0  0
   19.9992  -13.9053   19.2461 N   0  0  0  0  0  0  0  0  0  0  0  0
   19.9364  -13.5311   17.9825 C   0  0  0  0  0  0  0  0  0  0  0  0
   18.6968  -13.4028   17.3673 C   0  0  0  0  0  0  0  0  0  0  0  0
   17.5379  -13.6770   18.1088 C   0  0  0  0  0  0  0  0  0  0  0  0
   17.6445  -14.0759   19.4465 C   0  0  0  0  0  0  0  0  0  0  0  0
   16.4781  -14.3387   20.1535 O   0  0  0  0  0  0  0  0  0  0  0  0
   16.5242  -14.6072   21.0501 H   0  0  0  0  0  0  0  0  0  0  0  0
   21.8050  -15.4521   26.3774 C   0  0  0  0  0  0  0  0  0  0  0  0
   22.5441  -16.5095   26.4761 N   0  0  0  0  0  0  0  0  0  0  0  0
   21.8908  -14.4671   27.2447 N   0  0  0  0  0  0  0  0  0  0  0  0
   22.4600  -17.2325   25.8132 H   0  0  0  0  0  0  0  0  0  0  0  0
   23.1906  -16.5911   27.2141 H   0  0  0  0  0  0  0  0  0  0  0  0
   21.3166  -13.6734   27.1466 H   0  0  0  0  0  0  0  0  0  0  0  0
   22.5291  -14.5234   27.9921 H   0  0  0  0  0  0  0  0  0  0  0  0
  1  2  1  0  0  0
  1  6  2  0  0  0
  1 19  1  0  0  0
  2  3  2  0  0  0
  3  4  1  0  0  0
  4  5  2  0  0  0
  4  7  1  0  0  0
  5  6  1  0  0  0
  5  8  1  0  0  0
 19 20  1  0  0  0
 19 21  2  0  0  0
  7  9  1  0  0  0
  8  9  2  0  0  0
  9 11  1  0  0  0
 11 12  2  0  0  0
 11 16  1  0  0  0
 12 13  1  0  0  0
 13 14  2  0  0  0
 14 15  1  0  0  0
 15 16  2  0  0  0
 16 17  1  0  0  0
 20 22  1  0  0  0
 20 23  1  0  0  0
 21 24  1  0  0  0
 21 25  1  0  0  0
  7 10  1  0  0  0
 17 18  1  0  0  0
M  CHG 1  21   1
M  END
> <minimizedAffinity>
-6.89966

$$$$
1GHY_121_H_246


 25 27  0  0  0  0  0  0  0  0999 V2000
   12.1970  -10.5734   23.3603 C   0  0  0  0  0  0  0  0  0  0  0  0
   12.8798  -10.2571   22.1704 C   0  0  0  0  0  0  0  0  0  0  0  0
   13.2103  -11.2304   21.2519 C   0  0  0  0  0  0  0  0  0  0  0  0
   12.8354  -12.5187   21.5371 C   0  0  0  0  0  0  0  0  0  0  0  0
   12.1701  -12.8458   22.6808 C   0  0  0  0  0  0  0  0  0  0  0  0
   11.8278  -11.8943   23.6235 C   0  0  0  0  0  0  0  0  0  0  0  0
   13.0627  -13.6089   20.8698 N   0  0  0  0  0  0  0  0  0  0  0  0
   12.0034  -14.1354   22.6952 N   0  0  0  0  0  0  0  0  0  0  0  0
   12.5556  -14.5892   21.5872 C   0  0  0  0  0  0  0  0  0  0  0  0
   13.5216  -13.6868   20.0023 H   0  0  0  0  0  0  0  0  0  0  0  0
   12.6305  -15.9553   21.2466 C   0  0  0  0  0  0  0  0  0  0  0  0
   11.8377  -16.3210   20.2496 N   0  0  0  0  0  0  0  0  0  0  0  0
   11.7239  -17.5552   19.7973 C   0  0  0  0  0  0  0  0  0  0  0  0
   12.4685  -18.5710   20.3850 C   0  0  0  0  0  0  0  0  0  0  0  0
   13.3274  -18.2565   21.4488 C   0  0  0  0  0  0  0  0  0  0  0  0
   13.4248  -16.9343   21.8984 C   0  0  0  0  0  0  0  0  0  0  0  0
   14.2833  -16.6560   22.9543 O   0  0  0  0  0  0  0  0  0  0  0  0
   14.3654  -15.7786   23.2727 H   0  0  0  0  0  0  0  0  0  0  0  0
   11.9338   -9.5651   24.2652 C   0  0  0  0  0  0  0  0  0  0  0  0
   12.8254   -8.6741   24.5572 N   0  0  0  0  0  0  0  0  0  0  0  0
   10.7336   -9.5420   24.8029 N   0  0  0  0  0  0  0  0  0  0  0  0
   13.7164   -8.7144   24.1404 H   0  0  0  0  0  0  0  0  0  0  0  0
   12.6128   -7.9559   25.1961 H   0  0  0  0  0  0  0  0  0  0  0  0
   10.0736  -10.2322   24.5634 H   0  0  0  0  0  0  0  0  0  0  0  0
   10.4953   -8.8346   25.4447 H   0  0  0  0  0  0  0  0  0  0  0  0
  1  2  1  0  0  0
  1  6  2  0  0  0
  1 19  1  0  0  0
  2  3  2  0  0  0
  3  4  1  0  0  0
  4  5  2  0  0  0
  4  7  1  0  0  0
  5  6  1  0  0  0
  5  8  1  0  0  0
 19 20  1  0  0  0
 19 21  2  0  0  0
  7  9  1  0  0  0
  8  9  2  0  0  0
  9 11  1  0  0  0
 11 12  2  0  0  0
 11 16  1  0  0  0
 12 13  1  0  0  0
 13 14  2  0  0  0
 14 15  1  0  0  0
 15 16  2  0  0  0
 16 17  1  0  0  0
 20 22  1  0  0  0
 20 23  1  0  0  0
 21 24  1  0  0  0
 21 25  1  0  0  0
  7 10  1  0  0  0
 17 18  1  0  0  0
M  CHG 1  21   1
M  END
> <minimizedAffinity>
-6.76756

$$$$
1GHY_121_H_246


 25 27  0  0  0  0  0  0  0  0999 V2000
   18.4113  -14.1294   20.0955 C   0  0  0  0  0  0  0  0  0  0  0  0
   19.6492  -13.4671   19.9893 C   0  0  0  0  0  0  0  0  0  0  0  0
   20.6727  -13.7111   20.8799 C   0  0  0  0  0  0  0  0  0  0  0  0
   20.4418  -14.6354   21.8667 C   0  0  0  0  0  0  0  0  0  0  0  0
   19.2526  -15.2909   21.9848 C   0  0  0  0  0  0  0  0  0  0  0  0
   18.2054  -15.0660   21.1108 C   0  0  0  0  0  0  0  0  0  0  0  0
   21.2128  -15.0074   22.8428 N   0  0  0  0  0  0  0  0  0  0  0  0
   19.3156  -16.0534   23.0363 N   0  0  0  0  0  0  0  0  0  0  0  0
   20.5147  -15.8683   23.5527 C   0  0  0  0  0  0  0  0  0  0  0  0
   22.1339  -14.7062   23.0168 H   0  0  0  0  0  0  0  0  0  0  0  0
   20.9645  -16.4820   24.7396 C   0  0  0  0  0  0  0  0  0  0  0  0
   20.4277  -17.6682   24.9867 N   0  0  0  0  0  0  0  0  0  0  0  0
   20.6796  -18.3956   26.0583 C   0  0  0  0  0  0  0  0  0  0  0  0
   21.5611  -17.9157   27.0197 C   0  0  0  0  0  0  0  0  0  0  0  0
   22.1647  -16.6643   26.8249 C   0  0  0  0  0  0  0  0  0  0  0  0
   21.8760  -15.9231   25.6729 C   0  0  0  0  0  0  0  0  0  0  0  0
   22.4891  -14.6873   25.5103 O   0  0  0  0  0  0  0  0  0  0  0  0
   22.3116  -14.1730   24.7475 H   0  0  0  0  0  0  0  0  0  0  0  0
   17.4069  -13.8108   19.2041 C   0  0  0  0  0  0  0  0  0  0  0  0
   17.6486  -13.6714   17.9407 N   0  0  0  0  0  0  0  0  0  0  0  0
   16.1941  -13.6722   19.6939 N   0  0  0  0  0  0  0  0  0  0  0  0
   18.5658  -13.7805   17.6000 H   0  0  0  0  0  0  0  0  0  0  0  0
   16.9153  -13.4561   17.3201 H   0  0  0  0  0  0  0  0  0  0  0  0
   16.0375  -13.7836   20.6595 H   0  0  0  0  0  0  0  0  0  0  0  0
   15.4430  -13.4570   19.0950 H   0  0  0  0  0  0  0  0  0  0  0  0
  1  2  1  0  0  0
  1  6  2  0  0  0
  1 19  1  0  0  0
  2  3  2  0  0  0
  3  4  1  0  0  0
  4  5  2  0  0  0
  4  7  1  0  0  0
  5  6  1  0  0  0
  5  8  1  0  0  0
 19 20  1  0  0  0
 19 21  2  0  0  0
  7  9  1  0  0  0
  8  9  2  0  0  0
  9 11  1  0  0  0
 11 12  2  0  0  0
 11 16  1  0  0  0
 12 13  1  0  0  0
 13 14  2  0  0  0
 14 15  1  0  0  0
 15 16  2  0  0  0
 16 17  1  0  0  0
 20 22  1  0  0  0
 20 23  1  0  0  0
 21 24  1  0  0  0
 21 25  1  0  0  0
  7 10  1  0  0  0
 17 18  1  0  0  0
M  CHG 1  21   1
M  END
> <minimizedAffinity>
-6.54622

$$$$
1GHY_121_H_246


 25 27  0  0  0  0  0  0  0  0999 V2000
   19.0981  -14.0516   19.2015 C   0  0  0  0  0  0  0  0  0  0  0  0
   20.2019  -13.4441   19.8299 C   0  0  0  0  0  0  0  0  0  0  0  0
   20.6068  -13.8219   21.0923 C   0  0  0  0  0  0  0  0  0  0  0  0
   19.8993  -14.8233   21.7073 C   0  0  0  0  0  0  0  0  0  0  0  0
   18.8307  -15.4275   21.1152 C   0  0  0  0  0  0  0  0  0  0  0  0
   18.3970  -15.0691   19.8524 C   0  0  0  0  0  0  0  0  0  0  0  0
   20.0456  -15.3239   22.8962 N   0  0  0  0  0  0  0  0  0  0  0  0
   18.3379  -16.2886   21.9558 N   0  0  0  0  0  0  0  0  0  0  0  0
   19.0854  -16.2129   23.0394 C   0  0  0  0  0  0  0  0  0  0  0  0
   20.7354  -15.0865   23.5573 H   0  0  0  0  0  0  0  0  0  0  0  0
   18.8495  -16.9579   24.2128 C   0  0  0  0  0  0  0  0  0  0  0  0
   19.9437  -17.3930   24.8210 N   0  0  0  0  0  0  0  0  0  0  0  0
   19.9492  -18.1382   25.9098 C   0  0  0  0  0  0  0  0  0  0  0  0
   18.7426  -18.5172   26.4860 C   0  0  0  0  0  0  0  0  0  0  0  0
   17.5434  -18.0948   25.8932 C   0  0  0  0  0  0  0  0  0  0  0  0
   17.5775  -17.3010   24.7405 C   0  0  0  0  0  0  0  0  0  0  0  0
   16.3727  -16.9002   24.1772 O   0  0  0  0  0  0  0  0  0  0  0  0
   16.3702  -16.3686   23.4056 H   0  0  0  0  0  0  0  0  0  0  0  0
   18.7092  -13.6007   17.9565 C   0  0  0  0  0  0  0  0  0  0  0  0
   19.5805  -13.2688   17.0593 N   0  0  0  0  0  0  0  0  0  0  0  0
   17.4170  -13.5395   17.7191 N   0  0  0  0  0  0  0  0  0  0  0  0
   20.5421  -13.3238   17.2629 H   0  0  0  0  0  0  0  0  0  0  0  0
   19.2818  -12.9613   16.1731 H   0  0  0  0  0  0  0  0  0  0  0  0
   16.7751  -13.7979   18.4194 H   0  0  0  0  0  0  0  0  0  0  0  0
   17.0917  -13.2354   16.8410 H   0  0  0  0  0  0  0  0  0  0  0  0
  1  2  1  0  0  0
  1  6  2  0  0  0
  1 19  1  0  0  0
  2  3  2  0  0  0
  3  4  1  0  0  0
  4  5  2  0  0  0
  4  7  1  0  0  0
  5  6  1  0  0  0
  5  8  1  0  0  0
 19 20  1  0  0  0
 19 21  2  0  0  0
  7  9  1  0  0  0
  8  9  2  0  0  0
  9 11  1  0  0  0
 11 12  2  0  0  0
 11 16  1  0  0  0
 12 13  1  0  0  0
 13 14  2  0  0  0
 14 15  1  0  0  0
 15 16  2  0  0  0
 16 17  1  0  0  0
 20 22  1  0  0  0
 20 23  1  0  0  0
 21 24  1  0  0  0
 21 25  1  0  0  0
  7 10  1  0  0  0
 17 18  1  0  0  0
M  CHG 1  21   1
M  END
> <minimizedAffinity>
-6.36531

$$$$
1GHY_121_H_246


 25 27  0  0  0  0  0  0  0  0999 V2000
   18.0399  -13.3554   17.4109 C   0  0  0  0  0  0  0  0  0  0  0  0
   19.4474  -13.3487   17.3746 C   0  0  0  0  0  0  0  0  0  0  0  0
   20.1955  -13.7324   18.4670 C   0  0  0  0  0  0  0  0  0  0  0  0
   19.5138  -14.1342   19.5874 C   0  0  0  0  0  0  0  0  0  0  0  0
   18.1521  -14.1524   19.6422 C   0  0  0  0  0  0  0  0  0  0  0  0
   17.3733  -13.7700   18.5659 C   0  0  0  0  0  0  0  0  0  0  0  0
   19.9749  -14.4945   20.7464 N   0  0  0  0  0  0  0  0  0  0  0  0
   17.8019  -14.5223   20.8387 N   0  0  0  0  0  0  0  0  0  0  0  0
   18.9227  -14.7241   21.5033 C   0  0  0  0  0  0  0  0  0  0  0  0
   20.9206  -14.5790   21.0067 H   0  0  0  0  0  0  0  0  0  0  0  0
   18.9768  -15.0919   22.8633 C   0  0  0  0  0  0  0  0  0  0  0  0
   19.7484  -14.3198   23.6147 N   0  0  0  0  0  0  0  0  0  0  0  0
   19.9695  -14.5080   24.9018 C   0  0  0  0  0  0  0  0  0  0  0  0
   19.3721  -15.5832   25.5489 C   0  0  0  0  0  0  0  0  0  0  0  0
   18.5441  -16.4447   24.8139 C   0  0  0  0  0  0  0  0  0  0  0  0
   18.3297  -16.2103   23.4504 C   0  0  0  0  0  0  0  0  0  0  0  0
   17.5055  -17.0823   22.7507 O   0  0  0  0  0  0  0  0  0  0  0  0
   17.3470  -16.9459   21.8373 H   0  0  0  0  0  0  0  0  0  0  0  0
   17.3431  -12.9163   16.3035 C   0  0  0  0  0  0  0  0  0  0  0  0
   16.9323  -11.6931   16.2092 N   0  0  0  0  0  0  0  0  0  0  0  0
   17.1310  -13.7912   15.3445 N   0  0  0  0  0  0  0  0  0  0  0  0
   17.1042  -11.0582   16.9417 H   0  0  0  0  0  0  0  0  0  0  0  0
   16.4477  -11.3972   15.4049 H   0  0  0  0  0  0  0  0  0  0  0  0
   17.4543  -14.7160   15.4415 H   0  0  0  0  0  0  0  0  0  0  0  0
   16.6489  -13.5212   14.5297 H   0  0  0  0  0  0  0  0  0  0  0  0
  1  2  1  0  0  0
  1  6  2  0  0  0
  1 19  1  0  0  0
  2  3  2  0  0  0
  3  4  1  0  0  0
  4  5  2  0  0  0
  4  7  1  0  0  0
  5  6  1  0  0  0
  5  8  1  0  0  0
 19 20  1  0  0  0
 19 21  2  0  0  0
  7  9  1  0  0  0
  8  9  2  0  0  0
  9 11  1  0  0  0
 11 12  2  0  0  0
 11 16  1  0  0  0
 12 13  1  0  0  0
 13 14  2  0  0  0
 14 15  1  0  0  0
 15 16  2  0  0  0
 16 17  1  0  0  0
 20 22  1  0  0  0
 20 23  1  0  0  0
 21 24  1  0  0  0
 21 25  1  0  0  0
  7 10  1  0  0  0
 17 18  1  0  0  0
M  CHG 1  21   1
M  END
> <minimizedAffinity>
-6.23438

$$$$
1GHY_121_H_246


 25 27  0  0  0  0  0  0  0  0999 V2000
   21.8410  -16.4399   26.7816 C   0  0  0  0  0  0  0  0  0  0  0  0
   21.7116  -15.0842   27.1392 C   0  0  0  0  0  0  0  0  0  0  0  0
   21.0608  -14.1851   26.3217 C   0  0  0  0  0  0  0  0  0  0  0  0
   20.5320  -14.6666   25.1512 C   0  0  0  0  0  0  0  0  0  0  0  0
   20.6421  -15.9757   24.7882 C   0  0  0  0  0  0  0  0  0  0  0  0
   21.2918  -16.9013   25.5833 C   0  0  0  0  0  0  0  0  0  0  0  0
   19.9210  -14.0281   24.2001 N   0  0  0  0  0  0  0  0  0  0  0  0
   20.0971  -16.1160   23.6159 N   0  0  0  0  0  0  0  0  0  0  0  0
   19.6646  -14.9202   23.2667 C   0  0  0  0  0  0  0  0  0  0  0  0
   19.6950  -13.0701   24.1808 H   0  0  0  0  0  0  0  0  0  0  0  0
   19.0507  -14.6347   22.0300 C   0  0  0  0  0  0  0  0  0  0  0  0
   18.1031  -13.7097   22.0836 N   0  0  0  0  0  0  0  0  0  0  0  0
   17.3782  -13.3197   21.0525 C   0  0  0  0  0  0  0  0  0  0  0  0
   17.5913  -13.8996   19.8075 C   0  0  0  0  0  0  0  0  0  0  0  0
   18.5775  -14.8889   19.6777 C   0  0  0  0  0  0  0  0  0  0  0  0
   19.3299  -15.2735   20.7939 C   0  0  0  0  0  0  0  0  0  0  0  0
   20.2979  -16.2565   20.6325 O   0  0  0  0  0  0  0  0  0  0  0  0
   20.8140  -16.5306   21.3649 H   0  0  0  0  0  0  0  0  0  0  0  0
   22.5435  -17.2847   27.6167 C   0  0  0  0  0  0  0  0  0  0  0  0
   22.5407  -18.5657   27.4343 N   0  0  0  0  0  0  0  0  0  0  0  0
   23.2268  -16.7285   28.5932 N   0  0  0  0  0  0  0  0  0  0  0  0
   22.0204  -18.9565   26.6955 H   0  0  0  0  0  0  0  0  0  0  0  0
   23.0587  -19.1495   28.0343 H   0  0  0  0  0  0  0  0  0  0  0  0
   23.2119  -15.7511   28.7099 H   0  0  0  0  0  0  0  0  0  0  0  0
   23.7533  -17.2896   29.2075 H   0  0  0  0  0  0  0  0  0  0  0  0
  1  2  1  0  0  0
  1  6  2  0  0  0
  1 19  1  0  0  0
  2  3  2  0  0  0
  3  4  1  0  0  0
  4  5  2  0  0  0
  4  7  1  0  0  0
  5  6  1  0  0  0
  5  8  1  0  0  0
 19 20  1  0  0  0
 19 21  2  0  0  0
  7  9  1  0  0  0
  8  9  2  0  0  0
  9 11  1  0  0  0
 11 12  2  0  0  0
 11 16  1  0  0  0
 12 13  1  0  0  0
 13 14  2  0  0  0
 14 15  1  0  0  0
 15 16  2  0  0  0
 16 17  1  0  0  0
 20 22  1  0  0  0
 20 23  1  0  0  0
 21 24  1  0  0  0
 21 25  1  0  0  0
  7 10  1  0  0  0
 17 18  1  0  0  0
M  CHG 1  21   1
M  END
> <minimizedAffinity>
-6.05339

$$$$
