1K1M_FD4_A_999


 40 43  0  0  0  0  0  0  0  0999 V2000
   -3.9289    4.1022   22.4884 C   0  0  0  0  0  0  0  0  0  0  0  0
   -2.5439    4.4300   23.0063 C   0  0  0  0  0  0  0  0  0  0  0  0
   -2.3754    5.6042   23.3120 O   0  0  0  0  0  0  0  0  0  0  0  0
   -1.5392    3.5192   23.1263 N   0  0  0  0  0  0  0  0  0  0  0  0
   -1.6140    2.2125   22.4748 C   0  0  0  0  0  0  0  0  0  0  0  0
   -1.1691    1.2083   23.5559 C   0  0  0  0  0  0  0  0  0  0  0  0
    0.2798    3.0451   24.5888 C   0  0  0  0  0  0  0  0  0  0  0  0
   -0.2079    3.9947   23.4764 C   0  0  0  0  0  0  0  0  0  0  0  0
    0.0312    1.6374   24.2808 N   0  0  0  0  0  0  0  0  0  0  0  0
    0.9482    0.6807   24.6323 C   0  0  0  0  0  0  0  0  0  0  0  0
    1.9255    0.9498   25.3158 O   0  0  0  0  0  0  0  0  0  0  0  0
    0.8120   -0.7696   24.2225 C   0  0  0  0  0  0  0  0  0  0  0  0
   -4.9169    4.9021   23.2154 N   0  0  0  0  0  0  0  0  0  0  0  0
   -5.5173    5.3291   22.5100 H   0  0  0  0  0  0  0  0  0  0  0  0
   -5.9705    4.1870   24.3860 S   0  0  0  0  0  0  0  0  0  0  0  0
   -7.3108    4.6266   24.1159 O   0  0  0  0  0  0  0  0  0  0  0  0
   -5.6795    2.7693   24.4754 O   0  0  0  0  0  0  0  0  0  0  0  0
   -5.4206    4.9990   25.8360 C   0  0  0  0  0  0  0  0  0  0  0  0
   -6.3455    5.6845   26.6430 C   0  0  0  0  0  0  0  0  0  0  0  0
   -5.9422    6.3354   27.8103 C   0  0  0  0  0  0  0  0  0  0  0  0
   -3.6567    5.6232   27.4146 C   0  0  0  0  0  0  0  0  0  0  0  0
   -4.6064    6.3093   28.2022 C   0  0  0  0  0  0  0  0  0  0  0  0
   -4.0708    4.9586   26.2249 C   0  0  0  0  0  0  0  0  0  0  0  0
   -4.2093    6.9544   29.3683 C   0  0  0  0  0  0  0  0  0  0  0  0
   -2.8616    6.9619   29.7358 C   0  0  0  0  0  0  0  0  0  0  0  0
   -1.9181    6.2609   28.9676 C   0  0  0  0  0  0  0  0  0  0  0  0
   -2.3134    5.5956   27.8017 C   0  0  0  0  0  0  0  0  0  0  0  0
   -4.0655    4.3180   20.9460 C   0  0  0  0  0  0  0  0  0  0  0  0
   -3.1986    5.4728   20.4186 C   0  0  0  0  0  0  0  0  0  0  0  0
   -3.7043    6.7819   20.3642 C   0  0  0  0  0  0  0  0  0  0  0  0
   -1.8965    5.2205   19.9629 C   0  0  0  0  0  0  0  0  0  0  0  0
   -1.0987    6.2669   19.4820 C   0  0  0  0  0  0  0  0  0  0  0  0
   -1.6042    7.5781   19.4325 C   0  0  0  0  0  0  0  0  0  0  0  0
   -2.9171    7.8427   19.8764 C   0  0  0  0  0  0  0  0  0  0  0  0
   -3.4825    9.2502   19.8289 C   0  0  0  0  0  0  0  0  0  0  0  0
   -2.6820   10.2605   19.5957 N   0  0  0  0  0  0  0  0  0  0  0  0
   -4.7713    9.4307   20.0152 N   0  0  0  0  0  0  0  0  0  0  0  0
   -1.7196   10.1046   19.4588 H   0  0  0  0  0  0  0  0  0  0  0  0
   -3.0427   11.1757   19.5574 H   0  0  0  0  0  0  0  0  0  0  0  0
   -5.3565    8.6584   20.1892 H   0  0  0  0  0  0  0  0  0  0  0  0
 29 30  2  0  0  0
 29 31  1  0  0  0
 29 28  1  0  0  0
 30 34  1  0  0  0
 31 32  2  0  0  0
 32 33  1  0  0  0
 33 34  2  0  0  0
 34 35  1  0  0  0
 35 36  1  0  0  0
 35 37  2  0  0  0
 28  1  1  0  0  0
  1  2  1  0  0  0
  1 13  1  0  0  0
  2  3  2  0  0  0
  2  4  1  0  0  0
  4  5  1  0  0  0
  4  8  1  0  0  0
  5  6  1  0  0  0
  6  9  1  0  0  0
  7  8  1  0  0  0
  7  9  1  0  0  0
  9 10  1  0  0  0
 13 15  1  0  0  0
 15 16  2  0  0  0
 15 17  2  0  0  0
 15 18  1  0  0  0
 18 19  2  0  0  0
 18 23  1  0  0  0
 19 20  1  0  0  0
 20 22  2  0  0  0
 21 22  1  0  0  0
 21 23  2  0  0  0
 21 27  1  0  0  0
 22 24  1  0  0  0
 24 25  2  0  0  0
 25 26  1  0  0  0
 26 27  2  0  0  0
 10 11  2  0  0  0
 10 12  1  0  0  0
 36 38  1  0  0  0
 36 39  1  0  0  0
 37 40  1  0  0  0
 13 14  1  0  0  0
M  END
> <minimizedAffinity>
-9.69954

$$$$
1K1M_FD4_A_999


 40 43  0  0  0  0  0  0  0  0999 V2000
   -3.0683    4.0224   22.5642 C   0  0  0  0  0  0  0  0  0  0  0  0
   -4.0806    4.1402   23.6847 C   0  0  0  0  0  0  0  0  0  0  0  0
   -5.2465    3.9907   23.3401 O   0  0  0  0  0  0  0  0  0  0  0  0
   -3.7564    4.4006   24.9810 N   0  0  0  0  0  0  0  0  0  0  0  0
   -2.4315    4.8967   25.3499 C   0  0  0  0  0  0  0  0  0  0  0  0
   -2.0189    4.0473   26.5679 C   0  0  0  0  0  0  0  0  0  0  0  0
   -4.4932    3.7987   27.1645 C   0  0  0  0  0  0  0  0  0  0  0  0
   -4.8323    4.6562   25.9288 C   0  0  0  0  0  0  0  0  0  0  0  0
   -3.0895    3.9055   27.5598 N   0  0  0  0  0  0  0  0  0  0  0  0
   -2.7442    3.9169   28.8866 C   0  0  0  0  0  0  0  0  0  0  0  0
   -3.5692    3.7127   29.7655 O   0  0  0  0  0  0  0  0  0  0  0  0
   -1.3274    4.1606   29.3590 C   0  0  0  0  0  0  0  0  0  0  0  0
   -2.5433    2.6558   22.5311 N   0  0  0  0  0  0  0  0  0  0  0  0
   -2.6776    2.3185   21.5778 H   0  0  0  0  0  0  0  0  0  0  0  0
   -0.8993    2.3116   22.9441 S   0  0  0  0  0  0  0  0  0  0  0  0
   -0.1672    3.5472   22.9528 O   0  0  0  0  0  0  0  0  0  0  0  0
   -0.8788    1.4517   24.1114 O   0  0  0  0  0  0  0  0  0  0  0  0
   -0.4068    1.4052   21.5298 C   0  0  0  0  0  0  0  0  0  0  0  0
   -0.7768    1.8561   20.2506 C   0  0  0  0  0  0  0  0  0  0  0  0
   -0.3937    1.1621   19.1016 C   0  0  0  0  0  0  0  0  0  0  0  0
    0.7664   -0.4669   20.4755 C   0  0  0  0  0  0  0  0  0  0  0  0
    0.3749    0.0057   19.2041 C   0  0  0  0  0  0  0  0  0  0  0  0
    0.3756    0.2436   21.6463 C   0  0  0  0  0  0  0  0  0  0  0  0
    0.7590   -0.6801   18.0570 C   0  0  0  0  0  0  0  0  0  0  0  0
    1.4941   -1.8630   18.1659 C   0  0  0  0  0  0  0  0  0  0  0  0
    1.9051   -2.3232   19.4273 C   0  0  0  0  0  0  0  0  0  0  0  0
    1.5362   -1.6290   20.5849 C   0  0  0  0  0  0  0  0  0  0  0  0
   -3.6556    4.4260   21.1726 C   0  0  0  0  0  0  0  0  0  0  0  0
   -2.9123    5.6037   20.5219 C   0  0  0  0  0  0  0  0  0  0  0  0
   -3.5025    6.8765   20.4577 C   0  0  0  0  0  0  0  0  0  0  0  0
   -1.6412    5.4076   19.9629 C   0  0  0  0  0  0  0  0  0  0  0  0
   -0.9556    6.4755   19.3691 C   0  0  0  0  0  0  0  0  0  0  0  0
   -1.5453    7.7506   19.3098 C   0  0  0  0  0  0  0  0  0  0  0  0
   -2.8290    7.9577   19.8574 C   0  0  0  0  0  0  0  0  0  0  0  0
   -3.4842    9.3255   19.8013 C   0  0  0  0  0  0  0  0  0  0  0  0
   -2.7489   10.3852   19.5729 N   0  0  0  0  0  0  0  0  0  0  0  0
   -4.7837    9.4222   19.9755 N   0  0  0  0  0  0  0  0  0  0  0  0
   -1.7772   10.2919   19.4451 H   0  0  0  0  0  0  0  0  0  0  0  0
   -3.1680   11.2749   19.5290 H   0  0  0  0  0  0  0  0  0  0  0  0
   -5.3190    8.6137   20.1461 H   0  0  0  0  0  0  0  0  0  0  0  0
 29 30  2  0  0  0
 29 31  1  0  0  0
 29 28  1  0  0  0
 30 34  1  0  0  0
 31 32  2  0  0  0
 32 33  1  0  0  0
 33 34  2  0  0  0
 34 35  1  0  0  0
 35 36  1  0  0  0
 35 37  2  0  0  0
 28  1  1  0  0  0
  1  2  1  0  0  0
  1 13  1  0  0  0
  2  3  2  0  0  0
  2  4  1  0  0  0
  4  5  1  0  0  0
  4  8  1  0  0  0
  5  6  1  0  0  0
  6  9  1  0  0  0
  7  8  1  0  0  0
  7  9  1  0  0  0
  9 10  1  0  0  0
 13 15  1  0  0  0
 15 16  2  0  0  0
 15 17  2  0  0  0
 15 18  1  0  0  0
 18 19  2  0  0  0
 18 23  1  0  0  0
 19 20  1  0  0  0
 20 22  2  0  0  0
 21 22  1  0  0  0
 21 23  2  0  0  0
 21 27  1  0  0  0
 22 24  1  0  0  0
 24 25  2  0  0  0
 25 26  1  0  0  0
 26 27  2  0  0  0
 10 11  2  0  0  0
 10 12  1  0  0  0
 36 38  1  0  0  0
 36 39  1  0  0  0
 37 40  1  0  0  0
 13 14  1  0  0  0
M  END
> <minimizedAffinity>
-9.35626

$$$$
1K1M_FD4_A_999


 40 43  0  0  0  0  0  0  0  0999 V2000
   -2.9657    3.9831   22.9475 C   0  0  0  0  0  0  0  0  0  0  0  0
   -3.9419    3.7014   24.0708 C   0  0  0  0  0  0  0  0  0  0  0  0
   -4.7599    2.8218   23.8307 O   0  0  0  0  0  0  0  0  0  0  0  0
   -3.9450    4.3609   25.2617 N   0  0  0  0  0  0  0  0  0  0  0  0
   -3.2063    5.6096   25.4428 C   0  0  0  0  0  0  0  0  0  0  0  0
   -2.4759    5.4424   26.7895 C   0  0  0  0  0  0  0  0  0  0  0  0
   -4.3643    3.8997   27.5604 C   0  0  0  0  0  0  0  0  0  0  0  0
   -5.0390    4.1133   26.1906 C   0  0  0  0  0  0  0  0  0  0  0  0
   -3.3346    4.8979   27.8461 N   0  0  0  0  0  0  0  0  0  0  0  0
   -3.1761    5.3825   29.1189 C   0  0  0  0  0  0  0  0  0  0  0  0
   -3.7914    4.9123   30.0650 O   0  0  0  0  0  0  0  0  0  0  0  0
   -2.2234    6.5105   29.4497 C   0  0  0  0  0  0  0  0  0  0  0  0
   -2.1950    2.7708   22.6636 N   0  0  0  0  0  0  0  0  0  0  0  0
   -2.0860    2.7293   21.6503 H   0  0  0  0  0  0  0  0  0  0  0  0
   -0.6198    2.5263   23.3350 S   0  0  0  0  0  0  0  0  0  0  0  0
   -0.0156    1.4040   22.6732 O   0  0  0  0  0  0  0  0  0  0  0  0
    0.0744    3.7986   23.3787 O   0  0  0  0  0  0  0  0  0  0  0  0
   -1.0476    2.0269   24.9573 C   0  0  0  0  0  0  0  0  0  0  0  0
   -1.9033    0.9271   25.1440 C   0  0  0  0  0  0  0  0  0  0  0  0
   -2.2578    0.4972   26.4240 C   0  0  0  0  0  0  0  0  0  0  0  0
   -0.8923    2.2551   27.3897 C   0  0  0  0  0  0  0  0  0  0  0  0
   -1.7588    1.1517   27.5470 C   0  0  0  0  0  0  0  0  0  0  0  0
   -0.5309    2.6910   26.0829 C   0  0  0  0  0  0  0  0  0  0  0  0
   -2.1100    0.7173   28.8205 C   0  0  0  0  0  0  0  0  0  0  0  0
   -1.6413    1.4025   29.9440 C   0  0  0  0  0  0  0  0  0  0  0  0
   -0.7608    2.4857   29.7920 C   0  0  0  0  0  0  0  0  0  0  0  0
   -0.3900    2.9179   28.5137 C   0  0  0  0  0  0  0  0  0  0  0  0
   -3.6672    4.5113   21.6539 C   0  0  0  0  0  0  0  0  0  0  0  0
   -2.8874    5.6414   20.9625 C   0  0  0  0  0  0  0  0  0  0  0  0
   -3.4958    6.8818   20.7100 C   0  0  0  0  0  0  0  0  0  0  0  0
   -1.5621    5.4312   20.5550 C   0  0  0  0  0  0  0  0  0  0  0  0
   -0.8433    6.4558   19.9255 C   0  0  0  0  0  0  0  0  0  0  0  0
   -1.4516    7.6991   19.6776 C   0  0  0  0  0  0  0  0  0  0  0  0
   -2.7884    7.9187   20.0715 C   0  0  0  0  0  0  0  0  0  0  0  0
   -3.4642    9.2523   19.8109 C   0  0  0  0  0  0  0  0  0  0  0  0
   -2.7320   10.3118   19.5720 N   0  0  0  0  0  0  0  0  0  0  0  0
   -4.7771    9.3194   19.8214 N   0  0  0  0  0  0  0  0  0  0  0  0
   -1.7501   10.2410   19.5685 H   0  0  0  0  0  0  0  0  0  0  0  0
   -3.1636   11.1790   19.3960 H   0  0  0  0  0  0  0  0  0  0  0  0
   -5.3098    8.5116   20.0031 H   0  0  0  0  0  0  0  0  0  0  0  0
 29 30  2  0  0  0
 29 31  1  0  0  0
 29 28  1  0  0  0
 30 34  1  0  0  0
 31 32  2  0  0  0
 32 33  1  0  0  0
 33 34  2  0  0  0
 34 35  1  0  0  0
 35 36  1  0  0  0
 35 37  2  0  0  0
 28  1  1  0  0  0
  1  2  1  0  0  0
  1 13  1  0  0  0
  2  3  2  0  0  0
  2  4  1  0  0  0
  4  5  1  0  0  0
  4  8  1  0  0  0
  5  6  1  0  0  0
  6  9  1  0  0  0
  7  8  1  0  0  0
  7  9  1  0  0  0
  9 10  1  0  0  0
 13 15  1  0  0  0
 15 16  2  0  0  0
 15 17  2  0  0  0
 15 18  1  0  0  0
 18 19  2  0  0  0
 18 23  1  0  0  0
 19 20  1  0  0  0
 20 22  2  0  0  0
 21 22  1  0  0  0
 21 23  2  0  0  0
 21 27  1  0  0  0
 22 24  1  0  0  0
 24 25  2  0  0  0
 25 26  1  0  0  0
 26 27  2  0  0  0
 10 11  2  0  0  0
 10 12  1  0  0  0
 36 38  1  0  0  0
 36 39  1  0  0  0
 37 40  1  0  0  0
 13 14  1  0  0  0
M  END
> <minimizedAffinity>
-9.05448

$$$$
1K1M_FD4_A_999


 40 43  0  0  0  0  0  0  0  0999 V2000
   -1.1068    3.5237   23.4216 C   0  0  0  0  0  0  0  0  0  0  0  0
    0.0707    3.1608   24.3025 C   0  0  0  0  0  0  0  0  0  0  0  0
    0.8921    4.0567   24.4551 O   0  0  0  0  0  0  0  0  0  0  0  0
    0.2397    1.9426   24.8861 N   0  0  0  0  0  0  0  0  0  0  0  0
   -0.5400    0.7805   24.4626 C   0  0  0  0  0  0  0  0  0  0  0  0
   -1.0059    0.1203   25.7749 C   0  0  0  0  0  0  0  0  0  0  0  0
    1.0920    1.0347   26.9163 C   0  0  0  0  0  0  0  0  0  0  0  0
    1.4959    1.6674   25.5696 C   0  0  0  0  0  0  0  0  0  0  0  0
    0.0627    0.0061   26.7726 N   0  0  0  0  0  0  0  0  0  0  0  0
    0.0998   -1.1221   27.5508 C   0  0  0  0  0  0  0  0  0  0  0  0
    0.9046   -1.2456   28.4628 O   0  0  0  0  0  0  0  0  0  0  0  0
   -0.8550   -2.2797   27.3556 C   0  0  0  0  0  0  0  0  0  0  0  0
   -1.9758    4.4581   24.1399 N   0  0  0  0  0  0  0  0  0  0  0  0
   -2.1688    5.2253   23.4960 H   0  0  0  0  0  0  0  0  0  0  0  0
   -3.5044    3.9589   24.7773 S   0  0  0  0  0  0  0  0  0  0  0  0
   -4.5384    4.4559   23.9133 O   0  0  0  0  0  0  0  0  0  0  0  0
   -3.4429    2.5446   25.0909 O   0  0  0  0  0  0  0  0  0  0  0  0
   -3.5446    4.8942   26.2564 C   0  0  0  0  0  0  0  0  0  0  0  0
   -4.7806    5.2974   26.7915 C   0  0  0  0  0  0  0  0  0  0  0  0
   -4.8490    6.0368   27.9737 C   0  0  0  0  0  0  0  0  0  0  0  0
   -2.4290    5.9865   28.1420 C   0  0  0  0  0  0  0  0  0  0  0  0
   -3.6839    6.3834   28.6526 C   0  0  0  0  0  0  0  0  0  0  0  0
   -2.3618    5.2310   26.9366 C   0  0  0  0  0  0  0  0  0  0  0  0
   -3.7562    7.1154   29.8327 C   0  0  0  0  0  0  0  0  0  0  0  0
   -2.5834    7.4975   30.4884 C   0  0  0  0  0  0  0  0  0  0  0  0
   -1.3348    7.0847   29.9962 C   0  0  0  0  0  0  0  0  0  0  0  0
   -1.2554    6.3337   28.8181 C   0  0  0  0  0  0  0  0  0  0  0  0
   -0.6710    4.1180   22.0428 C   0  0  0  0  0  0  0  0  0  0  0  0
   -1.8095    4.8496   21.3135 C   0  0  0  0  0  0  0  0  0  0  0  0
   -1.6589    6.1857   20.9077 C   0  0  0  0  0  0  0  0  0  0  0  0
   -3.0229    4.1905   21.0687 C   0  0  0  0  0  0  0  0  0  0  0  0
   -4.0654    4.8489   20.4035 C   0  0  0  0  0  0  0  0  0  0  0  0
   -3.9119    6.1850   19.9930 C   0  0  0  0  0  0  0  0  0  0  0  0
   -2.7005    6.8630   20.2448 C   0  0  0  0  0  0  0  0  0  0  0  0
   -2.5155    8.3059   19.8124 C   0  0  0  0  0  0  0  0  0  0  0  0
   -3.5677    9.0503   19.5788 N   0  0  0  0  0  0  0  0  0  0  0  0
   -1.2986    8.7874   19.6873 N   0  0  0  0  0  0  0  0  0  0  0  0
   -4.4708    8.6712   19.6781 H   0  0  0  0  0  0  0  0  0  0  0  0
   -3.4554    9.9890   19.3040 H   0  0  0  0  0  0  0  0  0  0  0  0
   -0.5205    8.2117   19.8675 H   0  0  0  0  0  0  0  0  0  0  0  0
 29 30  2  0  0  0
 29 31  1  0  0  0
 29 28  1  0  0  0
 30 34  1  0  0  0
 31 32  2  0  0  0
 32 33  1  0  0  0
 33 34  2  0  0  0
 34 35  1  0  0  0
 35 36  1  0  0  0
 35 37  2  0  0  0
 28  1  1  0  0  0
  1  2  1  0  0  0
  1 13  1  0  0  0
  2  3  2  0  0  0
  2  4  1  0  0  0
  4  5  1  0  0  0
  4  8  1  0  0  0
  5  6  1  0  0  0
  6  9  1  0  0  0
  7  8  1  0  0  0
  7  9  1  0  0  0
  9 10  1  0  0  0
 13 15  1  0  0  0
 15 16  2  0  0  0
 15 17  2  0  0  0
 15 18  1  0  0  0
 18 19  2  0  0  0
 18 23  1  0  0  0
 19 20  1  0  0  0
 20 22  2  0  0  0
 21 22  1  0  0  0
 21 23  2  0  0  0
 21 27  1  0  0  0
 22 24  1  0  0  0
 24 25  2  0  0  0
 25 26  1  0  0  0
 26 27  2  0  0  0
 10 11  2  0  0  0
 10 12  1  0  0  0
 36 38  1  0  0  0
 36 39  1  0  0  0
 37 40  1  0  0  0
 13 14  1  0  0  0
M  END
> <minimizedAffinity>
-8.91716

$$$$
1K1M_FD4_A_999


 40 43  0  0  0  0  0  0  0  0999 V2000
   -2.8169    4.8368   23.2105 C   0  0  0  0  0  0  0  0  0  0  0  0
   -3.9160    4.3774   24.1460 C   0  0  0  0  0  0  0  0  0  0  0  0
   -4.8028    3.7222   23.6123 O   0  0  0  0  0  0  0  0  0  0  0  0
   -3.9523    4.6604   25.4771 N   0  0  0  0  0  0  0  0  0  0  0  0
   -3.0970    5.6932   26.0598 C   0  0  0  0  0  0  0  0  0  0  0  0
   -2.5147    5.0490   27.3330 C   0  0  0  0  0  0  0  0  0  0  0  0
   -4.6267    3.6178   27.5095 C   0  0  0  0  0  0  0  0  0  0  0  0
   -5.1466    4.3051   26.2310 C   0  0  0  0  0  0  0  0  0  0  0  0
   -3.5211    4.3439   28.1330 N   0  0  0  0  0  0  0  0  0  0  0  0
   -3.4246    4.4158   29.4988 C   0  0  0  0  0  0  0  0  0  0  0  0
   -4.1718    3.7803   30.2286 O   0  0  0  0  0  0  0  0  0  0  0  0
   -2.3846    5.2624   30.1998 C   0  0  0  0  0  0  0  0  0  0  0  0
   -1.5733    4.1427   23.5508 N   0  0  0  0  0  0  0  0  0  0  0  0
   -1.5286    4.1140   24.5694 H   0  0  0  0  0  0  0  0  0  0  0  0
   -1.2609    2.5322   23.0025 S   0  0  0  0  0  0  0  0  0  0  0  0
   -2.4796    1.7782   23.0971 O   0  0  0  0  0  0  0  0  0  0  0  0
   -0.5467    2.5957   21.7422 O   0  0  0  0  0  0  0  0  0  0  0  0
   -0.1858    1.9765   24.2673 C   0  0  0  0  0  0  0  0  0  0  0  0
   -0.2442    2.5694   25.5407 C   0  0  0  0  0  0  0  0  0  0  0  0
    0.5927    2.1446   26.5741 C   0  0  0  0  0  0  0  0  0  0  0  0
    1.5779    0.4936   25.0940 C   0  0  0  0  0  0  0  0  0  0  0  0
    1.5018    1.1119   26.3608 C   0  0  0  0  0  0  0  0  0  0  0  0
    0.7221    0.9277   24.0416 C   0  0  0  0  0  0  0  0  0  0  0  0
    2.3302    0.6878   27.3941 C   0  0  0  0  0  0  0  0  0  0  0  0
    3.2702   -0.3196   27.1645 C   0  0  0  0  0  0  0  0  0  0  0  0
    3.3327   -0.9527   25.9127 C   0  0  0  0  0  0  0  0  0  0  0  0
    2.4906   -0.5423   24.8731 C   0  0  0  0  0  0  0  0  0  0  0  0
   -3.1767    4.6259   21.7037 C   0  0  0  0  0  0  0  0  0  0  0  0
   -2.6217    5.7304   20.7899 C   0  0  0  0  0  0  0  0  0  0  0  0
   -3.2639    6.9762   20.6997 C   0  0  0  0  0  0  0  0  0  0  0  0
   -1.4763    5.4910   20.0169 C   0  0  0  0  0  0  0  0  0  0  0  0
   -0.9625    6.4922   19.1824 C   0  0  0  0  0  0  0  0  0  0  0  0
   -1.6033    7.7409   19.0964 C   0  0  0  0  0  0  0  0  0  0  0  0
   -2.7636    7.9897   19.8596 C   0  0  0  0  0  0  0  0  0  0  0  0
   -3.4718    9.3295   19.7793 C   0  0  0  0  0  0  0  0  0  0  0  0
   -4.7717    9.3833   19.9309 N   0  0  0  0  0  0  0  0  0  0  0  0
   -2.7648   10.4173   19.5664 N   0  0  0  0  0  0  0  0  0  0  0  0
   -5.2834    8.5573   20.0895 H   0  0  0  0  0  0  0  0  0  0  0  0
   -5.2371   10.2497   19.8861 H   0  0  0  0  0  0  0  0  0  0  0  0
   -1.7886   10.3559   19.4550 H   0  0  0  0  0  0  0  0  0  0  0  0
 29 30  2  0  0  0
 29 31  1  0  0  0
 29 28  1  0  0  0
 30 34  1  0  0  0
 31 32  2  0  0  0
 32 33  1  0  0  0
 33 34  2  0  0  0
 34 35  1  0  0  0
 35 36  1  0  0  0
 35 37  2  0  0  0
 28  1  1  0  0  0
  1  2  1  0  0  0
  1 13  1  0  0  0
  2  3  2  0  0  0
  2  4  1  0  0  0
  4  5  1  0  0  0
  4  8  1  0  0  0
  5  6  1  0  0  0
  6  9  1  0  0  0
  7  8  1  0  0  0
  7  9  1  0  0  0
  9 10  1  0  0  0
 13 15  1  0  0  0
 15 16  2  0  0  0
 15 17  2  0  0  0
 15 18  1  0  0  0
 18 19  2  0  0  0
 18 23  1  0  0  0
 19 20  1  0  0  0
 20 22  2  0  0  0
 21 22  1  0  0  0
 21 23  2  0  0  0
 21 27  1  0  0  0
 22 24  1  0  0  0
 24 25  2  0  0  0
 25 26  1  0  0  0
 26 27  2  0  0  0
 10 11  2  0  0  0
 10 12  1  0  0  0
 36 38  1  0  0  0
 36 39  1  0  0  0
 37 40  1  0  0  0
 13 14  1  0  0  0
M  END
> <minimizedAffinity>
-8.89251

$$$$
1K1M_FD4_A_999


 40 43  0  0  0  0  0  0  0  0999 V2000
   -0.7678    2.6637   22.4525 C   0  0  0  0  0  0  0  0  0  0  0  0
   -2.1511    3.1895   22.1301 C   0  0  0  0  0  0  0  0  0  0  0  0
   -3.0699    2.5679   22.6498 O   0  0  0  0  0  0  0  0  0  0  0  0
   -2.3914    4.2590   21.3229 N   0  0  0  0  0  0  0  0  0  0  0  0
   -1.3527    4.8022   20.4489 C   0  0  0  0  0  0  0  0  0  0  0  0
   -1.4310    6.3285   20.6471 C   0  0  0  0  0  0  0  0  0  0  0  0
   -3.9212    6.0782   21.1723 C   0  0  0  0  0  0  0  0  0  0  0  0
   -3.7690    4.5590   20.9580 C   0  0  0  0  0  0  0  0  0  0  0  0
   -2.8040    6.8427   20.6197 N   0  0  0  0  0  0  0  0  0  0  0  0
   -3.0262    8.0550   20.0191 C   0  0  0  0  0  0  0  0  0  0  0  0
   -4.1263    8.5880   20.0385 O   0  0  0  0  0  0  0  0  0  0  0  0
   -1.9342    8.8272   19.3111 C   0  0  0  0  0  0  0  0  0  0  0  0
    0.0055    2.5509   21.2141 N   0  0  0  0  0  0  0  0  0  0  0  0
    0.9810    2.4437   21.4922 H   0  0  0  0  0  0  0  0  0  0  0  0
   -0.3146    1.3009   20.0623 S   0  0  0  0  0  0  0  0  0  0  0  0
   -1.6395    0.7987   20.2968 O   0  0  0  0  0  0  0  0  0  0  0  0
    0.0560    1.7728   18.7423 O   0  0  0  0  0  0  0  0  0  0  0  0
    0.8238    0.0845   20.5995 C   0  0  0  0  0  0  0  0  0  0  0  0
    0.6770   -0.4919   21.8734 C   0  0  0  0  0  0  0  0  0  0  0  0
    1.5619   -1.4705   22.3296 C   0  0  0  0  0  0  0  0  0  0  0  0
    2.7774   -1.3448   20.2334 C   0  0  0  0  0  0  0  0  0  0  0  0
    2.6094   -1.9013   21.5199 C   0  0  0  0  0  0  0  0  0  0  0  0
    1.8724   -0.3476   19.7696 C   0  0  0  0  0  0  0  0  0  0  0  0
    3.4858   -2.8800   21.9757 C   0  0  0  0  0  0  0  0  0  0  0  0
    4.5604   -3.2792   21.1775 C   0  0  0  0  0  0  0  0  0  0  0  0
    4.7169   -2.7449   19.8884 C   0  0  0  0  0  0  0  0  0  0  0  0
    3.8289   -1.7716   19.4167 C   0  0  0  0  0  0  0  0  0  0  0  0
   -0.0137    3.5458   23.5002 C   0  0  0  0  0  0  0  0  0  0  0  0
    0.0921    2.8831   24.8833 C   0  0  0  0  0  0  0  0  0  0  0  0
    1.1682    2.0348   25.1913 C   0  0  0  0  0  0  0  0  0  0  0  0
   -0.9048    3.1040   25.8446 C   0  0  0  0  0  0  0  0  0  0  0  0
   -0.8159    2.5055   27.1082 C   0  0  0  0  0  0  0  0  0  0  0  0
    0.2644    1.6602   27.4174 C   0  0  0  0  0  0  0  0  0  0  0  0
    1.2672    1.4201   26.4544 C   0  0  0  0  0  0  0  0  0  0  0  0
    2.4400    0.5091   26.7672 C   0  0  0  0  0  0  0  0  0  0  0  0
    2.7230   -0.4808   25.9573 N   0  0  0  0  0  0  0  0  0  0  0  0
    3.1586    0.7349   27.8446 N   0  0  0  0  0  0  0  0  0  0  0  0
    2.1727   -0.6334   25.1554 H   0  0  0  0  0  0  0  0  0  0  0  0
    3.4860   -1.0721   26.1505 H   0  0  0  0  0  0  0  0  0  0  0  0
    2.9297    1.4841   28.4409 H   0  0  0  0  0  0  0  0  0  0  0  0
 29 30  2  0  0  0
 29 31  1  0  0  0
 29 28  1  0  0  0
 30 34  1  0  0  0
 31 32  2  0  0  0
 32 33  1  0  0  0
 33 34  2  0  0  0
 34 35  1  0  0  0
 35 36  1  0  0  0
 35 37  2  0  0  0
 28  1  1  0  0  0
  1  2  1  0  0  0
  1 13  1  0  0  0
  2  3  2  0  0  0
  2  4  1  0  0  0
  4  5  1  0  0  0
  4  8  1  0  0  0
  5  6  1  0  0  0
  6  9  1  0  0  0
  7  8  1  0  0  0
  7  9  1  0  0  0
  9 10  1  0  0  0
 13 15  1  0  0  0
 15 16  2  0  0  0
 15 17  2  0  0  0
 15 18  1  0  0  0
 18 19  2  0  0  0
 18 23  1  0  0  0
 19 20  1  0  0  0
 20 22  2  0  0  0
 21 22  1  0  0  0
 21 23  2  0  0  0
 21 27  1  0  0  0
 22 24  1  0  0  0
 24 25  2  0  0  0
 25 26  1  0  0  0
 26 27  2  0  0  0
 10 11  2  0  0  0
 10 12  1  0  0  0
 36 38  1  0  0  0
 36 39  1  0  0  0
 37 40  1  0  0  0
 13 14  1  0  0  0
M  END
> <minimizedAffinity>
-8.89120

$$$$
1K1M_FD4_A_999


 40 43  0  0  0  0  0  0  0  0999 V2000
   -1.3037    4.0751   22.4701 C   0  0  0  0  0  0  0  0  0  0  0  0
   -1.8403    3.5083   23.7681 C   0  0  0  0  0  0  0  0  0  0  0  0
   -3.0622    3.4791   23.8485 O   0  0  0  0  0  0  0  0  0  0  0  0
   -1.0558    3.0665   24.7893 N   0  0  0  0  0  0  0  0  0  0  0  0
    0.3693    3.3875   24.8487 C   0  0  0  0  0  0  0  0  0  0  0  0
    1.0577    2.0552   25.2040 C   0  0  0  0  0  0  0  0  0  0  0  0
   -1.0672    1.3490   26.4393 C   0  0  0  0  0  0  0  0  0  0  0  0
   -1.6924    2.7029   26.0477 C   0  0  0  0  0  0  0  0  0  0  0  0
    0.3873    1.3326   26.2897 N   0  0  0  0  0  0  0  0  0  0  0  0
    1.1680    0.6657   27.1982 C   0  0  0  0  0  0  0  0  0  0  0  0
    0.6780   -0.0319   28.0745 O   0  0  0  0  0  0  0  0  0  0  0  0
    2.6798    0.7252   27.1741 C   0  0  0  0  0  0  0  0  0  0  0  0
   -0.3885    3.1063   21.8632 N   0  0  0  0  0  0  0  0  0  0  0  0
    0.0237    2.5783   22.6324 H   0  0  0  0  0  0  0  0  0  0  0  0
   -0.9436    1.9405   20.7123 S   0  0  0  0  0  0  0  0  0  0  0  0
   -2.2283    1.4606   21.1389 O   0  0  0  0  0  0  0  0  0  0  0  0
   -0.7823    2.4845   19.3780 O   0  0  0  0  0  0  0  0  0  0  0  0
    0.2226    0.6623   20.9777 C   0  0  0  0  0  0  0  0  0  0  0  0
    0.2996    0.0407   22.2364 C   0  0  0  0  0  0  0  0  0  0  0  0
    1.2122   -0.9874   22.4794 C   0  0  0  0  0  0  0  0  0  0  0  0
    2.0038   -0.8218   20.1918 C   0  0  0  0  0  0  0  0  0  0  0  0
    2.0635   -1.4234   21.4676 C   0  0  0  0  0  0  0  0  0  0  0  0
    1.0710    0.2258   19.9458 C   0  0  0  0  0  0  0  0  0  0  0  0
    2.9676   -2.4513   21.7119 C   0  0  0  0  0  0  0  0  0  0  0  0
    3.8490   -2.8572   20.7071 C   0  0  0  0  0  0  0  0  0  0  0  0
    3.7767   -2.2773   19.4302 C   0  0  0  0  0  0  0  0  0  0  0  0
    2.8579   -1.2537   19.1725 C   0  0  0  0  0  0  0  0  0  0  0  0
   -2.4367    4.4721   21.4685 C   0  0  0  0  0  0  0  0  0  0  0  0
   -2.0841    5.7001   20.6136 C   0  0  0  0  0  0  0  0  0  0  0  0
   -2.9320    6.8193   20.5826 C   0  0  0  0  0  0  0  0  0  0  0  0
   -0.9176    5.7009   19.8352 C   0  0  0  0  0  0  0  0  0  0  0  0
   -0.5875    6.8162   19.0542 C   0  0  0  0  0  0  0  0  0  0  0  0
   -1.4345    7.9383   19.0276 C   0  0  0  0  0  0  0  0  0  0  0  0
   -2.6174    7.9446   19.7965 C   0  0  0  0  0  0  0  0  0  0  0  0
   -3.5464    9.1445   19.7798 C   0  0  0  0  0  0  0  0  0  0  0  0
   -3.0432   10.3498   19.6806 N   0  0  0  0  0  0  0  0  0  0  0  0
   -4.8446    8.9522   19.8572 N   0  0  0  0  0  0  0  0  0  0  0  0
   -2.0681   10.4730   19.6238 H   0  0  0  0  0  0  0  0  0  0  0  0
   -3.6401   11.1326   19.6630 H   0  0  0  0  0  0  0  0  0  0  0  0
   -5.2033    8.0384   19.9312 H   0  0  0  0  0  0  0  0  0  0  0  0
 29 30  2  0  0  0
 29 31  1  0  0  0
 29 28  1  0  0  0
 30 34  1  0  0  0
 31 32  2  0  0  0
 32 33  1  0  0  0
 33 34  2  0  0  0
 34 35  1  0  0  0
 35 36  1  0  0  0
 35 37  2  0  0  0
 28  1  1  0  0  0
  1  2  1  0  0  0
  1 13  1  0  0  0
  2  3  2  0  0  0
  2  4  1  0  0  0
  4  5  1  0  0  0
  4  8  1  0  0  0
  5  6  1  0  0  0
  6  9  1  0  0  0
  7  8  1  0  0  0
  7  9  1  0  0  0
  9 10  1  0  0  0
 13 15  1  0  0  0
 15 16  2  0  0  0
 15 17  2  0  0  0
 15 18  1  0  0  0
 18 19  2  0  0  0
 18 23  1  0  0  0
 19 20  1  0  0  0
 20 22  2  0  0  0
 21 22  1  0  0  0
 21 23  2  0  0  0
 21 27  1  0  0  0
 22 24  1  0  0  0
 24 25  2  0  0  0
 25 26  1  0  0  0
 26 27  2  0  0  0
 10 11  2  0  0  0
 10 12  1  0  0  0
 36 38  1  0  0  0
 36 39  1  0  0  0
 37 40  1  0  0  0
 13 14  1  0  0  0
M  END
> <minimizedAffinity>
-8.68164

$$$$
1K1M_FD4_A_999


 40 43  0  0  0  0  0  0  0  0999 V2000
   -5.6357    3.5679   22.5547 C   0  0  0  0  0  0  0  0  0  0  0  0
   -4.2544    3.2138   22.0441 C   0  0  0  0  0  0  0  0  0  0  0  0
   -4.0093    2.0139   22.0183 O   0  0  0  0  0  0  0  0  0  0  0  0
   -3.3301    4.1308   21.6465 N   0  0  0  0  0  0  0  0  0  0  0  0
   -3.4764    5.5492   21.9698 C   0  0  0  0  0  0  0  0  0  0  0  0
   -3.1607    6.2868   20.6540 C   0  0  0  0  0  0  0  0  0  0  0  0
   -1.6221    4.3511   20.0013 C   0  0  0  0  0  0  0  0  0  0  0  0
   -1.9833    3.6712   21.3371 C   0  0  0  0  0  0  0  0  0  0  0  0
   -1.9650    5.7724   19.9786 N   0  0  0  0  0  0  0  0  0  0  0  0
   -1.1422    6.6719   19.3513 C   0  0  0  0  0  0  0  0  0  0  0  0
   -0.1791    6.3081   18.6918 O   0  0  0  0  0  0  0  0  0  0  0  0
   -1.3717    8.1664   19.4098 C   0  0  0  0  0  0  0  0  0  0  0  0
   -5.5084    4.3409   23.7919 N   0  0  0  0  0  0  0  0  0  0  0  0
   -5.4805    5.3227   23.5167 H   0  0  0  0  0  0  0  0  0  0  0  0
   -6.6841    4.2206   25.0549 S   0  0  0  0  0  0  0  0  0  0  0  0
   -7.8160    5.0291   24.6972 O   0  0  0  0  0  0  0  0  0  0  0  0
   -6.8720    2.8223   25.3895 O   0  0  0  0  0  0  0  0  0  0  0  0
   -5.8321    5.0323   26.3508 C   0  0  0  0  0  0  0  0  0  0  0  0
   -6.5522    5.7970   27.2854 C   0  0  0  0  0  0  0  0  0  0  0  0
   -5.9051    6.4502   28.3358 C   0  0  0  0  0  0  0  0  0  0  0  0
   -3.7762    5.5811   27.5613 C   0  0  0  0  0  0  0  0  0  0  0  0
   -4.5242    6.3476   28.4811 C   0  0  0  0  0  0  0  0  0  0  0  0
   -4.4388    4.9144   26.4913 C   0  0  0  0  0  0  0  0  0  0  0  0
   -3.8837    6.9953   29.5318 C   0  0  0  0  0  0  0  0  0  0  0  0
   -2.4936    6.9248   29.6497 C   0  0  0  0  0  0  0  0  0  0  0  0
   -1.7490    6.1444   28.7506 C   0  0  0  0  0  0  0  0  0  0  0  0
   -2.3889    5.4763   27.7006 C   0  0  0  0  0  0  0  0  0  0  0  0
   -6.4907    4.3436   21.5003 C   0  0  0  0  0  0  0  0  0  0  0  0
   -7.6736    3.5235   20.9606 C   0  0  0  0  0  0  0  0  0  0  0  0
   -7.9837    3.5285   19.5908 C   0  0  0  0  0  0  0  0  0  0  0  0
   -8.4707    2.7791   21.8421 C   0  0  0  0  0  0  0  0  0  0  0  0
   -9.5499    2.0275   21.3590 C   0  0  0  0  0  0  0  0  0  0  0  0
   -9.8566    2.0292   19.9868 C   0  0  0  0  0  0  0  0  0  0  0  0
   -9.0698    2.7841   19.0914 C   0  0  0  0  0  0  0  0  0  0  0  0
   -9.3855    2.8015   17.6071 C   0  0  0  0  0  0  0  0  0  0  0  0
   -9.8230    3.9047   17.0526 N   0  0  0  0  0  0  0  0  0  0  0  0
   -9.2061    1.7079   16.9000 N   0  0  0  0  0  0  0  0  0  0  0  0
   -9.9508    4.7133   17.5994 H   0  0  0  0  0  0  0  0  0  0  0  0
  -10.0241    3.9251   16.0891 H   0  0  0  0  0  0  0  0  0  0  0  0
   -8.8765    0.8887   17.3353 H   0  0  0  0  0  0  0  0  0  0  0  0
 29 30  2  0  0  0
 29 31  1  0  0  0
 29 28  1  0  0  0
 30 34  1  0  0  0
 31 32  2  0  0  0
 32 33  1  0  0  0
 33 34  2  0  0  0
 34 35  1  0  0  0
 35 36  1  0  0  0
 35 37  2  0  0  0
 28  1  1  0  0  0
  1  2  1  0  0  0
  1 13  1  0  0  0
  2  3  2  0  0  0
  2  4  1  0  0  0
  4  5  1  0  0  0
  4  8  1  0  0  0
  5  6  1  0  0  0
  6  9  1  0  0  0
  7  8  1  0  0  0
  7  9  1  0  0  0
  9 10  1  0  0  0
 13 15  1  0  0  0
 15 16  2  0  0  0
 15 17  2  0  0  0
 15 18  1  0  0  0
 18 19  2  0  0  0
 18 23  1  0  0  0
 19 20  1  0  0  0
 20 22  2  0  0  0
 21 22  1  0  0  0
 21 23  2  0  0  0
 21 27  1  0  0  0
 22 24  1  0  0  0
 24 25  2  0  0  0
 25 26  1  0  0  0
 26 27  2  0  0  0
 10 11  2  0  0  0
 10 12  1  0  0  0
 36 38  1  0  0  0
 36 39  1  0  0  0
 37 40  1  0  0  0
 13 14  1  0  0  0
M  END
> <minimizedAffinity>
-8.66505

$$$$
1K1M_FD4_A_999


 40 43  0  0  0  0  0  0  0  0999 V2000
   -1.4106    1.7996   22.2959 C   0  0  0  0  0  0  0  0  0  0  0  0
   -2.6664    2.6399   22.1910 C   0  0  0  0  0  0  0  0  0  0  0  0
   -3.6100    2.2374   22.8604 O   0  0  0  0  0  0  0  0  0  0  0  0
   -2.7760    3.7541   21.4166 N   0  0  0  0  0  0  0  0  0  0  0  0
   -1.7920    4.0607   20.3795 C   0  0  0  0  0  0  0  0  0  0  0  0
   -1.4797    5.5584   20.5646 C   0  0  0  0  0  0  0  0  0  0  0  0
   -3.8434    5.8821   21.4853 C   0  0  0  0  0  0  0  0  0  0  0  0
   -4.0857    4.3744   21.2724 C   0  0  0  0  0  0  0  0  0  0  0  0
   -2.6813    6.3783   20.7494 N   0  0  0  0  0  0  0  0  0  0  0  0
   -2.7074    7.6224   20.1738 C   0  0  0  0  0  0  0  0  0  0  0  0
   -3.6354    8.3960   20.3610 O   0  0  0  0  0  0  0  0  0  0  0  0
   -1.5925    8.1354   19.2887 C   0  0  0  0  0  0  0  0  0  0  0  0
   -1.0523    1.6427   23.7070 N   0  0  0  0  0  0  0  0  0  0  0  0
   -0.6744    0.7005   23.8054 H   0  0  0  0  0  0  0  0  0  0  0  0
    0.0774    2.7048   24.4736 S   0  0  0  0  0  0  0  0  0  0  0  0
    1.1411    1.9122   25.0238 O   0  0  0  0  0  0  0  0  0  0  0  0
    0.3831    3.7965   23.5696 O   0  0  0  0  0  0  0  0  0  0  0  0
   -0.8994    3.2903   25.8030 C   0  0  0  0  0  0  0  0  0  0  0  0
   -0.7091    2.7620   27.0919 C   0  0  0  0  0  0  0  0  0  0  0  0
   -1.4650    3.2123   28.1757 C   0  0  0  0  0  0  0  0  0  0  0  0
   -2.6312    4.7602   26.7159 C   0  0  0  0  0  0  0  0  0  0  0  0
   -2.4230    4.2068   27.9978 C   0  0  0  0  0  0  0  0  0  0  0  0
   -1.8578    4.3002   25.6119 C   0  0  0  0  0  0  0  0  0  0  0  0
   -3.1704    4.6566   29.0808 C   0  0  0  0  0  0  0  0  0  0  0  0
   -4.1597    5.6242   28.8906 C   0  0  0  0  0  0  0  0  0  0  0  0
   -4.3535    6.1935   27.6217 C   0  0  0  0  0  0  0  0  0  0  0  0
   -3.5935    5.7575   26.5306 C   0  0  0  0  0  0  0  0  0  0  0  0
   -1.5543    0.4065   21.6008 C   0  0  0  0  0  0  0  0  0  0  0  0
   -0.7559    0.2995   20.2915 C   0  0  0  0  0  0  0  0  0  0  0  0
   -1.2125   -0.5085   19.2375 C   0  0  0  0  0  0  0  0  0  0  0  0
    0.4540    0.9941   20.1495 C   0  0  0  0  0  0  0  0  0  0  0  0
    1.1876    0.9037   18.9593 C   0  0  0  0  0  0  0  0  0  0  0  0
    0.7272    0.0983   17.9027 C   0  0  0  0  0  0  0  0  0  0  0  0
   -0.4823   -0.6153   18.0381 C   0  0  0  0  0  0  0  0  0  0  0  0
   -0.9954   -1.4922   16.9107 C   0  0  0  0  0  0  0  0  0  0  0  0
   -1.5958   -0.9407   15.8854 N   0  0  0  0  0  0  0  0  0  0  0  0
   -0.8206   -2.7933   16.9792 N   0  0  0  0  0  0  0  0  0  0  0  0
   -1.7170    0.0358   15.8527 H   0  0  0  0  0  0  0  0  0  0  0  0
   -1.9257   -1.5027   15.1475 H   0  0  0  0  0  0  0  0  0  0  0  0
   -0.3669   -3.1887   17.7584 H   0  0  0  0  0  0  0  0  0  0  0  0
 29 30  2  0  0  0
 29 31  1  0  0  0
 29 28  1  0  0  0
 30 34  1  0  0  0
 31 32  2  0  0  0
 32 33  1  0  0  0
 33 34  2  0  0  0
 34 35  1  0  0  0
 35 36  1  0  0  0
 35 37  2  0  0  0
 28  1  1  0  0  0
  1  2  1  0  0  0
  1 13  1  0  0  0
  2  3  2  0  0  0
  2  4  1  0  0  0
  4  5  1  0  0  0
  4  8  1  0  0  0
  5  6  1  0  0  0
  6  9  1  0  0  0
  7  8  1  0  0  0
  7  9  1  0  0  0
  9 10  1  0  0  0
 13 15  1  0  0  0
 15 16  2  0  0  0
 15 17  2  0  0  0
 15 18  1  0  0  0
 18 19  2  0  0  0
 18 23  1  0  0  0
 19 20  1  0  0  0
 20 22  2  0  0  0
 21 22  1  0  0  0
 21 23  2  0  0  0
 21 27  1  0  0  0
 22 24  1  0  0  0
 24 25  2  0  0  0
 25 26  1  0  0  0
 26 27  2  0  0  0
 10 11  2  0  0  0
 10 12  1  0  0  0
 36 38  1  0  0  0
 36 39  1  0  0  0
 37 40  1  0  0  0
 13 14  1  0  0  0
M  END
> <minimizedAffinity>
-8.62522

$$$$
1K1M_FD4_A_999


 40 43  0  0  0  0  0  0  0  0999 V2000
   -1.2506    2.4725   21.9886 C   0  0  0  0  0  0  0  0  0  0  0  0
   -0.6297    2.2269   20.6291 C   0  0  0  0  0  0  0  0  0  0  0  0
   -0.7078    3.1704   19.8518 O   0  0  0  0  0  0  0  0  0  0  0  0
   -0.0330    1.0594   20.2629 N   0  0  0  0  0  0  0  0  0  0  0  0
   -0.2138   -0.1652   21.0410 C   0  0  0  0  0  0  0  0  0  0  0  0
    1.2018   -0.7602   21.1720 C   0  0  0  0  0  0  0  0  0  0  0  0
    1.8079    0.3298   18.9394 C   0  0  0  0  0  0  0  0  0  0  0  0
    0.3737    0.8921   18.8745 C   0  0  0  0  0  0  0  0  0  0  0  0
    1.9470   -0.7557   19.9091 N   0  0  0  0  0  0  0  0  0  0  0  0
    2.7573   -1.8273   19.6353 C   0  0  0  0  0  0  0  0  0  0  0  0
    3.4771   -1.8508   18.6474 O   0  0  0  0  0  0  0  0  0  0  0  0
    2.8369   -3.0410   20.5354 C   0  0  0  0  0  0  0  0  0  0  0  0
   -0.2787    3.1541   22.8461 N   0  0  0  0  0  0  0  0  0  0  0  0
   -0.6706    4.0730   23.0519 H   0  0  0  0  0  0  0  0  0  0  0  0
    0.2133    2.4819   24.3620 S   0  0  0  0  0  0  0  0  0  0  0  0
    0.2791    1.0539   24.2231 O   0  0  0  0  0  0  0  0  0  0  0  0
    1.3665    3.2143   24.8480 O   0  0  0  0  0  0  0  0  0  0  0  0
   -1.1877    2.8626   25.3400 C   0  0  0  0  0  0  0  0  0  0  0  0
   -1.8311    1.8416   26.0613 C   0  0  0  0  0  0  0  0  0  0  0  0
   -2.9455    2.1121   26.8575 C   0  0  0  0  0  0  0  0  0  0  0  0
   -2.8076    4.4570   26.2493 C   0  0  0  0  0  0  0  0  0  0  0  0
   -3.4376    3.4107   26.9574 C   0  0  0  0  0  0  0  0  0  0  0  0
   -1.6700    4.1788   25.4388 C   0  0  0  0  0  0  0  0  0  0  0  0
   -4.5447    3.6772   27.7556 C   0  0  0  0  0  0  0  0  0  0  0  0
   -5.0611    4.9735   27.8199 C   0  0  0  0  0  0  0  0  0  0  0  0
   -4.4232    6.0207   27.1357 C   0  0  0  0  0  0  0  0  0  0  0  0
   -3.2987    5.7626   26.3437 C   0  0  0  0  0  0  0  0  0  0  0  0
   -2.5849    3.2833   21.9074 C   0  0  0  0  0  0  0  0  0  0  0  0
   -3.7062    2.6897   22.7754 C   0  0  0  0  0  0  0  0  0  0  0  0
   -4.6882    3.5180   23.3429 C   0  0  0  0  0  0  0  0  0  0  0  0
   -3.7419    1.3106   23.0276 C   0  0  0  0  0  0  0  0  0  0  0  0
   -4.7609    0.7606   23.8163 C   0  0  0  0  0  0  0  0  0  0  0  0
   -5.7465    1.5900   24.3800 C   0  0  0  0  0  0  0  0  0  0  0  0
   -5.7142    2.9806   24.1440 C   0  0  0  0  0  0  0  0  0  0  0  0
   -6.7669    3.8936   24.7452 C   0  0  0  0  0  0  0  0  0  0  0  0
   -7.6923    3.3885   25.5226 N   0  0  0  0  0  0  0  0  0  0  0  0
   -6.7268    5.1808   24.4808 N   0  0  0  0  0  0  0  0  0  0  0  0
   -7.7053    2.4218   25.7084 H   0  0  0  0  0  0  0  0  0  0  0  0
   -8.3748    3.9756   25.9210 H   0  0  0  0  0  0  0  0  0  0  0  0
   -6.0232    5.5411   23.8941 H   0  0  0  0  0  0  0  0  0  0  0  0
 29 30  2  0  0  0
 29 31  1  0  0  0
 29 28  1  0  0  0
 30 34  1  0  0  0
 31 32  2  0  0  0
 32 33  1  0  0  0
 33 34  2  0  0  0
 34 35  1  0  0  0
 35 36  1  0  0  0
 35 37  2  0  0  0
 28  1  1  0  0  0
  1  2  1  0  0  0
  1 13  1  0  0  0
  2  3  2  0  0  0
  2  4  1  0  0  0
  4  5  1  0  0  0
  4  8  1  0  0  0
  5  6  1  0  0  0
  6  9  1  0  0  0
  7  8  1  0  0  0
  7  9  1  0  0  0
  9 10  1  0  0  0
 13 15  1  0  0  0
 15 16  2  0  0  0
 15 17  2  0  0  0
 15 18  1  0  0  0
 18 19  2  0  0  0
 18 23  1  0  0  0
 19 20  1  0  0  0
 20 22  2  0  0  0
 21 22  1  0  0  0
 21 23  2  0  0  0
 21 27  1  0  0  0
 22 24  1  0  0  0
 24 25  2  0  0  0
 25 26  1  0  0  0
 26 27  2  0  0  0
 10 11  2  0  0  0
 10 12  1  0  0  0
 36 38  1  0  0  0
 36 39  1  0  0  0
 37 40  1  0  0  0
 13 14  1  0  0  0
M  END
> <minimizedAffinity>
-8.51432

$$$$
