1AJ7_NPE_H_217


 21 21  0  0  0  0  0  0  0  0999 V2000
   17.8994    8.1933   37.5126 P   0  0  0  0  0  0  0  0  0  0  0  0
   19.0709    8.9160   37.1240 O   0  0  0  0  0  0  0  0  0  0  0  0
   18.3396    6.8481   37.6904 O   0  0  0  0  0  0  0  0  0  0  0  0
   16.9681    8.2186   36.2958 O   0  0  0  0  0  0  0  0  0  0  0  0
   18.2361    6.0400   32.8865 C   0  0  0  0  0  0  0  0  0  0  0  0
   18.5687    7.4198   33.0223 C   0  0  0  0  0  0  0  0  0  0  0  0
   18.1244    8.1513   34.1443 C   0  0  0  0  0  0  0  0  0  0  0  0
   17.3517    7.5084   35.1372 C   0  0  0  0  0  0  0  0  0  0  0  0
   17.0121    6.1400   35.0088 C   0  0  0  0  0  0  0  0  0  0  0  0
   17.4515    5.3998   33.8933 C   0  0  0  0  0  0  0  0  0  0  0  0
   18.6973    5.2969   31.7479 N   0  0  0  0  0  0  0  0  0  0  0  0
   18.2238    3.9803   31.5970 O   0  0  0  0  0  0  0  0  0  0  0  0
   19.5784    5.9588   30.8759 O   0  0  0  0  0  0  0  0  0  0  0  0
   17.1797    8.8328   39.0308 C   0  0  0  0  0  0  0  0  0  0  0  0
   15.7972    9.4055   38.7208 C   0  0  0  0  0  0  0  0  0  0  0  0
   15.0313    9.9838   39.9198 C   0  0  0  0  0  0  0  0  0  0  0  0
   15.1175    9.0297   41.1205 C   0  0  0  0  0  0  0  0  0  0  0  0
   14.1424    7.8560   41.1129 C   0  0  0  0  0  0  0  0  0  0  0  0
   12.9798    7.9035   41.3586 O   0  0  0  0  0  0  0  0  0  0  0  0
   14.8135    6.7369   40.7810 O   0  0  0  0  0  0  0  0  0  0  0  0
   15.7320    6.7776   40.6005 H   0  0  0  0  0  0  0  0  0  0  0  0
  5 11  1  0  0  0
  5  6  2  0  0  0
  5 10  1  0  0  0
 11 12  1  0  0  0
 11 13  2  0  0  0
  6  7  1  0  0  0
  7  8  2  0  0  0
  8  9  1  0  0  0
  8  4  1  0  0  0
  9 10  2  0  0  0
  4  1  1  0  0  0
  1  2  2  0  0  0
  1  3  1  0  0  0
  1 14  1  0  0  0
 14 15  1  0  0  0
 15 16  1  0  0  0
 16 17  1  0  0  0
 17 18  1  0  0  0
 18 19  2  0  0  0
 18 20  1  0  0  0
 20 21  1  0  0  0
M  CHG 1   3  -1
M  CHG 1  11   1
M  CHG 1  12  -1
M  END
> <minimizedAffinity>
-7.60484

$$$$
1AJ7_NPE_H_217


 21 21  0  0  0  0  0  0  0  0999 V2000
   17.1606    7.8240   34.7908 P   0  0  0  0  0  0  0  0  0  0  0  0
   17.6893    8.1620   33.5054 O   0  0  0  0  0  0  0  0  0  0  0  0
   15.8152    8.2976   34.7708 O   0  0  0  0  0  0  0  0  0  0  0  0
   17.9365    8.6764   35.8006 O   0  0  0  0  0  0  0  0  0  0  0  0
   16.7020    8.8418   39.8535 C   0  0  0  0  0  0  0  0  0  0  0  0
   17.9432    8.2333   39.5045 C   0  0  0  0  0  0  0  0  0  0  0  0
   18.3418    8.1551   38.1531 C   0  0  0  0  0  0  0  0  0  0  0  0
   17.5068    8.6878   37.1456 C   0  0  0  0  0  0  0  0  0  0  0  0
   16.2701    9.2895   37.4817 C   0  0  0  0  0  0  0  0  0  0  0  0
   15.8629    9.3742   38.8280 C   0  0  0  0  0  0  0  0  0  0  0  0
   16.3039    8.9274   41.2303 N   0  0  0  0  0  0  0  0  0  0  0  0
   16.2038   10.2110   41.7984 O   0  0  0  0  0  0  0  0  0  0  0  0
   16.0393    7.7141   41.8882 O   0  0  0  0  0  0  0  0  0  0  0  0
   17.2071    6.0536   35.0997 C   0  0  0  0  0  0  0  0  0  0  0  0
   17.1074    5.3152   33.7656 C   0  0  0  0  0  0  0  0  0  0  0  0
   18.4292    4.7694   33.2055 C   0  0  0  0  0  0  0  0  0  0  0  0
   18.4467    4.8779   31.6734 C   0  0  0  0  0  0  0  0  0  0  0  0
   19.4706    5.8434   31.0834 C   0  0  0  0  0  0  0  0  0  0  0  0
   20.3485    5.5668   30.3303 O   0  0  0  0  0  0  0  0  0  0  0  0
   19.2241    7.0794   31.5570 O   0  0  0  0  0  0  0  0  0  0  0  0
   18.5118    7.2208   32.1492 H   0  0  0  0  0  0  0  0  0  0  0  0
  5 11  1  0  0  0
  5  6  2  0  0  0
  5 10  1  0  0  0
 11 12  1  0  0  0
 11 13  2  0  0  0
  6  7  1  0  0  0
  7  8  2  0  0  0
  8  9  1  0  0  0
  8  4  1  0  0  0
  9 10  2  0  0  0
  4  1  1  0  0  0
  1  2  2  0  0  0
  1  3  1  0  0  0
  1 14  1  0  0  0
 14 15  1  0  0  0
 15 16  1  0  0  0
 16 17  1  0  0  0
 17 18  1  0  0  0
 18 19  2  0  0  0
 18 20  1  0  0  0
 20 21  1  0  0  0
M  CHG 1   3  -1
M  CHG 1  11   1
M  CHG 1  12  -1
M  END
> <minimizedAffinity>
-7.47460

$$$$
1AJ7_NPE_H_217


 21 21  0  0  0  0  0  0  0  0999 V2000
   17.6713    8.3028   37.3822 P   0  0  0  0  0  0  0  0  0  0  0  0
   18.9194    8.9531   37.1270 O   0  0  0  0  0  0  0  0  0  0  0  0
   18.0153    6.9506   37.6788 O   0  0  0  0  0  0  0  0  0  0  0  0
   16.9161    8.3066   36.0487 O   0  0  0  0  0  0  0  0  0  0  0  0
   18.2670    5.9343   32.8045 C   0  0  0  0  0  0  0  0  0  0  0  0
   17.4942    5.3491   33.8501 C   0  0  0  0  0  0  0  0  0  0  0  0
   17.0669    6.1330   34.9428 C   0  0  0  0  0  0  0  0  0  0  0  0
   17.4040    7.5041   34.9943 C   0  0  0  0  0  0  0  0  0  0  0  0
   18.1751    8.0932   33.9635 C   0  0  0  0  0  0  0  0  0  0  0  0
   18.6059    7.3201   32.8671 C   0  0  0  0  0  0  0  0  0  0  0  0
   18.6925    5.1356   31.6900 N   0  0  0  0  0  0  0  0  0  0  0  0
   19.4962    5.7564   30.7158 O   0  0  0  0  0  0  0  0  0  0  0  0
   18.2732    3.7943   31.6770 O   0  0  0  0  0  0  0  0  0  0  0  0
   16.7854    9.0497   38.7566 C   0  0  0  0  0  0  0  0  0  0  0  0
   17.4705    8.6507   40.0630 C   0  0  0  0  0  0  0  0  0  0  0  0
   16.6583    8.8955   41.3433 C   0  0  0  0  0  0  0  0  0  0  0  0
   16.4538    7.5788   42.1074 C   0  0  0  0  0  0  0  0  0  0  0  0
   17.6921    7.0010   42.7866 C   0  0  0  0  0  0  0  0  0  0  0  0
   18.4178    7.5734   43.5349 O   0  0  0  0  0  0  0  0  0  0  0  0
   17.8408    5.7200   42.3996 O   0  0  0  0  0  0  0  0  0  0  0  0
   17.2268    5.3358   41.8051 H   0  0  0  0  0  0  0  0  0  0  0  0
  5 11  1  0  0  0
  5  6  2  0  0  0
  5 10  1  0  0  0
 11 12  1  0  0  0
 11 13  2  0  0  0
  6  7  1  0  0  0
  7  8  2  0  0  0
  8  9  1  0  0  0
  8  4  1  0  0  0
  9 10  2  0  0  0
  4  1  1  0  0  0
  1  2  2  0  0  0
  1  3  1  0  0  0
  1 14  1  0  0  0
 14 15  1  0  0  0
 15 16  1  0  0  0
 16 17  1  0  0  0
 17 18  1  0  0  0
 18 19  2  0  0  0
 18 20  1  0  0  0
 20 21  1  0  0  0
M  CHG 1   3  -1
M  CHG 1  11   1
M  CHG 1  12  -1
M  END
> <minimizedAffinity>
-7.33567

$$$$
1AJ7_NPE_H_217


 21 21  0  0  0  0  0  0  0  0999 V2000
   17.9235    8.0563   37.5508 P   0  0  0  0  0  0  0  0  0  0  0  0
   18.6773    6.8919   37.8999 O   0  0  0  0  0  0  0  0  0  0  0  0
   18.7192    8.7312   36.5781 O   0  0  0  0  0  0  0  0  0  0  0  0
   17.8926    8.9290   38.8101 O   0  0  0  0  0  0  0  0  0  0  0  0
   14.4486    9.0180   41.2816 C   0  0  0  0  0  0  0  0  0  0  0  0
   15.5018    8.0951   41.5494 C   0  0  0  0  0  0  0  0  0  0  0  0
   16.6362    8.0477   40.7114 C   0  0  0  0  0  0  0  0  0  0  0  0
   16.7267    8.9238   39.6067 C   0  0  0  0  0  0  0  0  0  0  0  0
   15.6839    9.8403   39.3296 C   0  0  0  0  0  0  0  0  0  0  0  0
   14.5474    9.8971   40.1605 C   0  0  0  0  0  0  0  0  0  0  0  0
   13.3001    9.0694   42.1416 N   0  0  0  0  0  0  0  0  0  0  0  0
   12.8684   10.3375   42.5729 O   0  0  0  0  0  0  0  0  0  0  0  0
   12.7008    7.8413   42.4696 O   0  0  0  0  0  0  0  0  0  0  0  0
   16.3094    7.6427   36.8759 C   0  0  0  0  0  0  0  0  0  0  0  0
   15.9884    8.6060   35.7338 C   0  0  0  0  0  0  0  0  0  0  0  0
   15.8960    7.9756   34.3364 C   0  0  0  0  0  0  0  0  0  0  0  0
   16.8514    6.7780   34.2253 C   0  0  0  0  0  0  0  0  0  0  0  0
   18.1028    6.9976   33.3802 C   0  0  0  0  0  0  0  0  0  0  0  0
   18.5111    6.2792   32.5249 O   0  0  0  0  0  0  0  0  0  0  0  0
   18.6859    8.1502   33.7603 O   0  0  0  0  0  0  0  0  0  0  0  0
   18.3046    8.6648   34.4442 H   0  0  0  0  0  0  0  0  0  0  0  0
  5 11  1  0  0  0
  5  6  2  0  0  0
  5 10  1  0  0  0
 11 12  1  0  0  0
 11 13  2  0  0  0
  6  7  1  0  0  0
  7  8  2  0  0  0
  8  9  1  0  0  0
  8  4  1  0  0  0
  9 10  2  0  0  0
  4  1  1  0  0  0
  1  2  2  0  0  0
  1  3  1  0  0  0
  1 14  1  0  0  0
 14 15  1  0  0  0
 15 16  1  0  0  0
 16 17  1  0  0  0
 17 18  1  0  0  0
 18 19  2  0  0  0
 18 20  1  0  0  0
 20 21  1  0  0  0
M  CHG 1   3  -1
M  CHG 1  11   1
M  CHG 1  12  -1
M  END
> <minimizedAffinity>
-7.31036

$$$$
1AJ7_NPE_H_217


 21 21  0  0  0  0  0  0  0  0999 V2000
   17.5117    8.2815   36.9372 P   0  0  0  0  0  0  0  0  0  0  0  0
   17.7901    6.9908   37.4872 O   0  0  0  0  0  0  0  0  0  0  0  0
   18.7099    8.6593   36.2616 O   0  0  0  0  0  0  0  0  0  0  0  0
   17.3406    9.2203   38.1363 O   0  0  0  0  0  0  0  0  0  0  0  0
   15.7538    7.7676   41.7900 C   0  0  0  0  0  0  0  0  0  0  0  0
   17.1548    7.9948   41.6547 C   0  0  0  0  0  0  0  0  0  0  0  0
   17.6860    8.4534   40.4304 C   0  0  0  0  0  0  0  0  0  0  0  0
   16.8216    8.6921   39.3386 C   0  0  0  0  0  0  0  0  0  0  0  0
   15.4296    8.4647   39.4616 C   0  0  0  0  0  0  0  0  0  0  0  0
   14.8885    8.0082   40.6798 C   0  0  0  0  0  0  0  0  0  0  0  0
   15.2160    7.3094   43.0398 N   0  0  0  0  0  0  0  0  0  0  0  0
   14.0116    7.8893   43.4797 O   0  0  0  0  0  0  0  0  0  0  0  0
   15.9406    6.3098   43.7111 O   0  0  0  0  0  0  0  0  0  0  0  0
   16.1222    8.2481   35.7970 C   0  0  0  0  0  0  0  0  0  0  0  0
   16.6513    8.0494   34.3771 C   0  0  0  0  0  0  0  0  0  0  0  0
   17.2167    6.6558   34.0656 C   0  0  0  0  0  0  0  0  0  0  0  0
   18.3119    6.7501   32.9928 C   0  0  0  0  0  0  0  0  0  0  0  0
   18.7300    5.4323   32.3469 C   0  0  0  0  0  0  0  0  0  0  0  0
   19.0584    5.2748   31.2148 O   0  0  0  0  0  0  0  0  0  0  0  0
   18.6667    4.4566   33.2725 O   0  0  0  0  0  0  0  0  0  0  0  0
   18.3982    4.6575   34.1474 H   0  0  0  0  0  0  0  0  0  0  0  0
  5 11  1  0  0  0
  5  6  2  0  0  0
  5 10  1  0  0  0
 11 12  1  0  0  0
 11 13  2  0  0  0
  6  7  1  0  0  0
  7  8  2  0  0  0
  8  9  1  0  0  0
  8  4  1  0  0  0
  9 10  2  0  0  0
  4  1  1  0  0  0
  1  2  2  0  0  0
  1  3  1  0  0  0
  1 14  1  0  0  0
 14 15  1  0  0  0
 15 16  1  0  0  0
 16 17  1  0  0  0
 17 18  1  0  0  0
 18 19  2  0  0  0
 18 20  1  0  0  0
 20 21  1  0  0  0
M  CHG 1   3  -1
M  CHG 1  11   1
M  CHG 1  12  -1
M  END
> <minimizedAffinity>
-7.22683

$$$$
1AJ7_NPE_H_217


 21 21  0  0  0  0  0  0  0  0999 V2000
   16.0535    8.3011   41.7178 P   0  0  0  0  0  0  0  0  0  0  0  0
   15.5231    7.2218   40.9434 O   0  0  0  0  0  0  0  0  0  0  0  0
   14.9242    8.8683   42.3795 O   0  0  0  0  0  0  0  0  0  0  0  0
   16.5632    9.3326   40.7055 O   0  0  0  0  0  0  0  0  0  0  0  0
   17.2961    8.2151   36.6816 C   0  0  0  0  0  0  0  0  0  0  0  0
   16.0588    8.8233   37.0447 C   0  0  0  0  0  0  0  0  0  0  0  0
   15.8047    9.1714   38.3884 C   0  0  0  0  0  0  0  0  0  0  0  0
   16.7852    8.9190   39.3737 C   0  0  0  0  0  0  0  0  0  0  0  0
   18.0149    8.3109   39.0240 C   0  0  0  0  0  0  0  0  0  0  0  0
   18.2797    7.9605   37.6851 C   0  0  0  0  0  0  0  0  0  0  0  0
   17.5546    7.8705   35.3121 N   0  0  0  0  0  0  0  0  0  0  0  0
   16.7502    6.8726   34.7310 O   0  0  0  0  0  0  0  0  0  0  0  0
   18.5881    8.5719   34.6681 O   0  0  0  0  0  0  0  0  0  0  0  0
   17.2762    7.7431   42.9117 C   0  0  0  0  0  0  0  0  0  0  0  0
   17.5815    6.2678   42.6555 C   0  0  0  0  0  0  0  0  0  0  0  0
   17.1529    5.2962   43.7651 C   0  0  0  0  0  0  0  0  0  0  0  0
   15.6442    5.0201   43.6814 C   0  0  0  0  0  0  0  0  0  0  0  0
   15.2009    4.0574   42.5836 C   0  0  0  0  0  0  0  0  0  0  0  0
   15.4476    2.8956   42.5226 O   0  0  0  0  0  0  0  0  0  0  0  0
   14.4756    4.7385   41.6765 O   0  0  0  0  0  0  0  0  0  0  0  0
   14.3225    5.6556   41.7922 H   0  0  0  0  0  0  0  0  0  0  0  0
  5 11  1  0  0  0
  5  6  2  0  0  0
  5 10  1  0  0  0
 11 12  1  0  0  0
 11 13  2  0  0  0
  6  7  1  0  0  0
  7  8  2  0  0  0
  8  9  1  0  0  0
  8  4  1  0  0  0
  9 10  2  0  0  0
  4  1  1  0  0  0
  1  2  2  0  0  0
  1  3  1  0  0  0
  1 14  1  0  0  0
 14 15  1  0  0  0
 15 16  1  0  0  0
 16 17  1  0  0  0
 17 18  1  0  0  0
 18 19  2  0  0  0
 18 20  1  0  0  0
 20 21  1  0  0  0
M  CHG 1   3  -1
M  CHG 1  11   1
M  CHG 1  12  -1
M  END
> <minimizedAffinity>
-7.22003

$$$$
1AJ7_NPE_H_217


 21 21  0  0  0  0  0  0  0  0999 V2000
   17.2205    7.9115   36.9792 P   0  0  0  0  0  0  0  0  0  0  0  0
   18.1799    8.9530   36.7769 O   0  0  0  0  0  0  0  0  0  0  0  0
   17.9959    6.7450   37.2490 O   0  0  0  0  0  0  0  0  0  0  0  0
   16.5320    7.7069   35.6255 O   0  0  0  0  0  0  0  0  0  0  0  0
   18.5851    5.8212   32.4307 C   0  0  0  0  0  0  0  0  0  0  0  0
   17.8231    5.0454   33.3529 C   0  0  0  0  0  0  0  0  0  0  0  0
   17.1612    5.6702   34.4312 C   0  0  0  0  0  0  0  0  0  0  0  0
   17.2525    7.0710   34.5908 C   0  0  0  0  0  0  0  0  0  0  0  0
   18.0108    7.8493   33.6834 C   0  0  0  0  0  0  0  0  0  0  0  0
   18.6746    7.2360   32.6024 C   0  0  0  0  0  0  0  0  0  0  0  0
   19.2498    5.1830   31.3298 N   0  0  0  0  0  0  0  0  0  0  0  0
   19.0077    3.8108   31.1326 O   0  0  0  0  0  0  0  0  0  0  0  0
   20.0805    5.9935   30.5374 O   0  0  0  0  0  0  0  0  0  0  0  0
   16.1104    8.2677   38.3476 C   0  0  0  0  0  0  0  0  0  0  0  0
   16.8320    9.1684   39.3493 C   0  0  0  0  0  0  0  0  0  0  0  0
   17.5498    8.4456   40.4987 C   0  0  0  0  0  0  0  0  0  0  0  0
   17.2638    9.1483   41.8343 C   0  0  0  0  0  0  0  0  0  0  0  0
   15.7957    9.4313   42.1395 C   0  0  0  0  0  0  0  0  0  0  0  0
   14.9330    8.6226   42.2660 O   0  0  0  0  0  0  0  0  0  0  0  0
   15.6234   10.7626   42.2435 O   0  0  0  0  0  0  0  0  0  0  0  0
   16.3530   11.3397   42.1309 H   0  0  0  0  0  0  0  0  0  0  0  0
  5 11  1  0  0  0
  5  6  2  0  0  0
  5 10  1  0  0  0
 11 12  1  0  0  0
 11 13  2  0  0  0
  6  7  1  0  0  0
  7  8  2  0  0  0
  8  9  1  0  0  0
  8  4  1  0  0  0
  9 10  2  0  0  0
  4  1  1  0  0  0
  1  2  2  0  0  0
  1  3  1  0  0  0
  1 14  1  0  0  0
 14 15  1  0  0  0
 15 16  1  0  0  0
 16 17  1  0  0  0
 17 18  1  0  0  0
 18 19  2  0  0  0
 18 20  1  0  0  0
 20 21  1  0  0  0
M  CHG 1   3  -1
M  CHG 1  11   1
M  CHG 1  12  -1
M  END
> <minimizedAffinity>
-7.11137

$$$$
1AJ7_NPE_H_217


 21 21  0  0  0  0  0  0  0  0999 V2000
   15.3451    8.4804   40.9107 P   0  0  0  0  0  0  0  0  0  0  0  0
   16.1437    8.0002   41.9958 O   0  0  0  0  0  0  0  0  0  0  0  0
   15.0943    7.3319   40.1026 O   0  0  0  0  0  0  0  0  0  0  0  0
   16.2499    9.4221   40.1088 O   0  0  0  0  0  0  0  0  0  0  0  0
   17.3673    8.1369   36.2259 C   0  0  0  0  0  0  0  0  0  0  0  0
   18.2906    8.0415   37.3081 C   0  0  0  0  0  0  0  0  0  0  0  0
   17.9276    8.4934   38.5947 C   0  0  0  0  0  0  0  0  0  0  0  0
   16.6412    9.0370   38.8079 C   0  0  0  0  0  0  0  0  0  0  0  0
   15.7190    9.1406   37.7386 C   0  0  0  0  0  0  0  0  0  0  0  0
   16.0705    8.6913   36.4503 C   0  0  0  0  0  0  0  0  0  0  0  0
   17.7371    7.6680   34.9203 N   0  0  0  0  0  0  0  0  0  0  0  0
   17.2020    6.4371   34.4971 O   0  0  0  0  0  0  0  0  0  0  0  0
   18.5982    8.4903   34.1739 O   0  0  0  0  0  0  0  0  0  0  0  0
   13.8020    9.2103   41.4747 C   0  0  0  0  0  0  0  0  0  0  0  0
   12.7658    8.1015   41.6537 C   0  0  0  0  0  0  0  0  0  0  0  0
   12.8668    7.2996   42.9597 C   0  0  0  0  0  0  0  0  0  0  0  0
   12.8668    5.7924   42.6637 C   0  0  0  0  0  0  0  0  0  0  0  0
   14.2254    5.1000   42.7214 C   0  0  0  0  0  0  0  0  0  0  0  0
   14.9748    5.0932   43.6449 O   0  0  0  0  0  0  0  0  0  0  0  0
   14.4507    4.4883   41.5433 O   0  0  0  0  0  0  0  0  0  0  0  0
   13.8115    4.5378   40.8600 H   0  0  0  0  0  0  0  0  0  0  0  0
  5 11  1  0  0  0
  5  6  2  0  0  0
  5 10  1  0  0  0
 11 12  1  0  0  0
 11 13  2  0  0  0
  6  7  1  0  0  0
  7  8  2  0  0  0
  8  9  1  0  0  0
  8  4  1  0  0  0
  9 10  2  0  0  0
  4  1  1  0  0  0
  1  2  2  0  0  0
  1  3  1  0  0  0
  1 14  1  0  0  0
 14 15  1  0  0  0
 15 16  1  0  0  0
 16 17  1  0  0  0
 17 18  1  0  0  0
 18 19  2  0  0  0
 18 20  1  0  0  0
 20 21  1  0  0  0
M  CHG 1   3  -1
M  CHG 1  11   1
M  CHG 1  12  -1
M  END
> <minimizedAffinity>
-7.01370

$$$$
1AJ7_NPE_H_217


 21 21  0  0  0  0  0  0  0  0999 V2000
   15.7922    8.5260   41.5250 P   0  0  0  0  0  0  0  0  0  0  0  0
   15.5404    7.3029   40.8275 O   0  0  0  0  0  0  0  0  0  0  0  0
   14.5049    8.9925   41.9252 O   0  0  0  0  0  0  0  0  0  0  0  0
   16.3332    9.5033   40.4760 O   0  0  0  0  0  0  0  0  0  0  0  0
   17.3618    8.1395   36.5953 C   0  0  0  0  0  0  0  0  0  0  0  0
   16.0780    8.7094   36.8401 C   0  0  0  0  0  0  0  0  0  0  0  0
   15.7264    9.1393   38.1373 C   0  0  0  0  0  0  0  0  0  0  0  0
   16.6552    9.0073   39.1937 C   0  0  0  0  0  0  0  0  0  0  0  0
   17.9305    8.4381   38.9617 C   0  0  0  0  0  0  0  0  0  0  0  0
   18.2926    8.0068   37.6701 C   0  0  0  0  0  0  0  0  0  0  0  0
   17.7192    7.7113   35.2724 N   0  0  0  0  0  0  0  0  0  0  0  0
   17.1651    6.5035   34.8092 O   0  0  0  0  0  0  0  0  0  0  0  0
   18.5885    8.5472   34.5509 O   0  0  0  0  0  0  0  0  0  0  0  0
   16.8543    8.2853   42.9553 C   0  0  0  0  0  0  0  0  0  0  0  0
   18.2494    8.8186   42.6317 C   0  0  0  0  0  0  0  0  0  0  0  0
   18.6947   10.0504   43.4338 C   0  0  0  0  0  0  0  0  0  0  0  0
   20.0923   10.5038   42.9864 C   0  0  0  0  0  0  0  0  0  0  0  0
   21.1808   10.4670   44.0553 C   0  0  0  0  0  0  0  0  0  0  0  0
   22.1393   11.1689   44.1101 O   0  0  0  0  0  0  0  0  0  0  0  0
   20.8849    9.4983   44.9423 O   0  0  0  0  0  0  0  0  0  0  0  0
   20.1092    8.9841   44.8331 H   0  0  0  0  0  0  0  0  0  0  0  0
  5 11  1  0  0  0
  5  6  2  0  0  0
  5 10  1  0  0  0
 11 12  1  0  0  0
 11 13  2  0  0  0
  6  7  1  0  0  0
  7  8  2  0  0  0
  8  9  1  0  0  0
  8  4  1  0  0  0
  9 10  2  0  0  0
  4  1  1  0  0  0
  1  2  2  0  0  0
  1  3  1  0  0  0
  1 14  1  0  0  0
 14 15  1  0  0  0
 15 16  1  0  0  0
 16 17  1  0  0  0
 17 18  1  0  0  0
 18 19  2  0  0  0
 18 20  1  0  0  0
 20 21  1  0  0  0
M  CHG 1   3  -1
M  CHG 1  11   1
M  CHG 1  12  -1
M  END
> <minimizedAffinity>
-6.41309

$$$$
1AJ7_NPE_H_217


 21 21  0  0  0  0  0  0  0  0999 V2000
   15.8193    8.5127   41.5388 P   0  0  0  0  0  0  0  0  0  0  0  0
   15.5417    7.2946   40.8424 O   0  0  0  0  0  0  0  0  0  0  0  0
   14.5489    8.9715   41.9975 O   0  0  0  0  0  0  0  0  0  0  0  0
   16.3121    9.5005   40.4759 O   0  0  0  0  0  0  0  0  0  0  0  0
   17.3388    8.1430   36.5925 C   0  0  0  0  0  0  0  0  0  0  0  0
   16.0598    8.7241   36.8360 C   0  0  0  0  0  0  0  0  0  0  0  0
   15.7085    9.1520   38.1340 C   0  0  0  0  0  0  0  0  0  0  0  0
   16.6330    9.0068   39.1925 C   0  0  0  0  0  0  0  0  0  0  0  0
   17.9035    8.4265   38.9617 C   0  0  0  0  0  0  0  0  0  0  0  0
   18.2652    7.9970   37.6694 C   0  0  0  0  0  0  0  0  0  0  0  0
   17.6960    7.7170   35.2688 N   0  0  0  0  0  0  0  0  0  0  0  0
   17.1160    6.5270   34.7914 O   0  0  0  0  0  0  0  0  0  0  0  0
   18.5911    8.5370   34.5610 O   0  0  0  0  0  0  0  0  0  0  0  0
   16.9423    8.2639   42.9204 C   0  0  0  0  0  0  0  0  0  0  0  0
   18.3061    8.8532   42.5625 C   0  0  0  0  0  0  0  0  0  0  0  0
   18.6754   10.1611   43.2779 C   0  0  0  0  0  0  0  0  0  0  0  0
   17.8727   10.3043   44.5796 C   0  0  0  0  0  0  0  0  0  0  0  0
   16.9574   11.5219   44.6698 C   0  0  0  0  0  0  0  0  0  0  0  0
   16.6298   12.0858   45.6643 O   0  0  0  0  0  0  0  0  0  0  0  0
   16.5686   11.8651   43.4272 O   0  0  0  0  0  0  0  0  0  0  0  0
   16.8688   11.3717   42.6894 H   0  0  0  0  0  0  0  0  0  0  0  0
  5 11  1  0  0  0
  5  6  2  0  0  0
  5 10  1  0  0  0
 11 12  1  0  0  0
 11 13  2  0  0  0
  6  7  1  0  0  0
  7  8  2  0  0  0
  8  9  1  0  0  0
  8  4  1  0  0  0
  9 10  2  0  0  0
  4  1  1  0  0  0
  1  2  2  0  0  0
  1  3  1  0  0  0
  1 14  1  0  0  0
 14 15  1  0  0  0
 15 16  1  0  0  0
 16 17  1  0  0  0
 17 18  1  0  0  0
 18 19  2  0  0  0
 18 20  1  0  0  0
 20 21  1  0  0  0
M  CHG 1   3  -1
M  CHG 1  11   1
M  CHG 1  12  -1
M  END
> <minimizedAffinity>
-5.93000

$$$$
