4Z0Q_4K9_A_1002


 24 26  0  0  0  0  0  0  0  0999 V2000
   15.9110    9.0503   11.4964 C   0  0  0  0  0  0  0  0  0  0  0  0
   17.9674   11.0394   11.3478 C   0  0  0  0  0  0  0  0  0  0  0  0
   18.1008    9.8886   12.1744 C   0  0  0  0  0  0  0  0  0  0  0  0
   16.5782    6.7090   12.9474 C   0  0  0  0  0  0  0  0  0  0  0  0
   15.8237   10.1785   10.7006 C   0  0  0  0  0  0  0  0  0  0  0  0
   17.0824    8.9335   12.2160 C   0  0  0  0  0  0  0  0  0  0  0  0
   17.6535    8.2473   14.3685 C   0  0  0  0  0  0  0  0  0  0  0  0
   18.8360    9.1998   14.3775 C   0  0  0  0  0  0  0  0  0  0  0  0
   19.3207    9.6970   13.0418 C   0  0  0  0  0  0  0  0  0  0  0  0
   16.4598    6.2772   11.8310 O   0  0  0  0  0  0  0  0  0  0  0  0
   17.2544    7.8091   13.0934 N   0  0  0  0  0  0  0  0  0  0  0  0
   16.8008   11.1223   10.6457 C   0  0  0  0  0  0  0  0  0  0  0  0
   16.0858    5.8464   14.0924 C   0  0  0  0  0  0  0  0  0  0  0  0
   15.2611    4.1943   16.2074 C   0  0  0  0  0  0  0  0  0  0  0  0
   14.5402    5.3209   15.8287 C   0  0  0  0  0  0  0  0  0  0  0  0
   14.9406    6.1202   14.7923 C   0  0  0  0  0  0  0  0  0  0  0  0
   16.4469    3.8666   15.4992 C   0  0  0  0  0  0  0  0  0  0  0  0
   16.8578    4.7679   14.4515 C   0  0  0  0  0  0  0  0  0  0  0  0
   13.2979    2.7264   17.0659 O   0  0  0  0  0  0  0  0  0  0  0  0
   14.6201    3.1686   17.4696 S   0  0  0  0  0  0  0  0  0  0  0  0
   14.7191    3.9663   18.6643 O   0  0  0  0  0  0  0  0  0  0  0  0
   15.5446    1.9163   17.6620 N   0  0  0  0  0  0  0  0  0  0  0  0
   15.4974    1.3278   16.8301 H   0  0  0  0  0  0  0  0  0  0  0  0
   15.2311    1.3837   18.4734 H   0  0  0  0  0  0  0  0  0  0  0  0
  9  8  1  0  0  0
  9  3  1  0  0  0
  8  7  1  0  0  0
  3  2  2  0  0  0
  3  6  1  0  0  0
  2 12  1  0  0  0
 11  7  1  0  0  0
 11  6  1  0  0  0
 11  4  1  0  0  0
  6  1  2  0  0  0
 12  5  2  0  0  0
 10  4  2  0  0  0
  4 13  1  0  0  0
  1  5  1  0  0  0
 13 18  2  0  0  0
 13 16  1  0  0  0
 18 17  1  0  0  0
 16 15  2  0  0  0
 17 14  2  0  0  0
 15 14  1  0  0  0
 14 20  1  0  0  0
 22 20  1  0  0  0
 19 20  2  0  0  0
 20 21  2  0  0  0
 22 23  1  0  0  0
 22 24  1  0  0  0
M  END
> <minimizedAffinity>
-8.59324

$$$$
4Z0Q_4K9_A_1002


 24 26  0  0  0  0  0  0  0  0999 V2000
   14.8922    5.1648   15.8688 C   0  0  0  0  0  0  0  0  0  0  0  0
   14.6775    2.6557   17.2348 C   0  0  0  0  0  0  0  0  0  0  0  0
   15.6531    2.8726   16.2216 C   0  0  0  0  0  0  0  0  0  0  0  0
   17.1287    5.4322   14.1488 C   0  0  0  0  0  0  0  0  0  0  0  0
   13.9636    4.9159   16.8636 C   0  0  0  0  0  0  0  0  0  0  0  0
   15.7362    4.1117   15.5822 C   0  0  0  0  0  0  0  0  0  0  0  0
   16.6439    3.1838   13.6469 C   0  0  0  0  0  0  0  0  0  0  0  0
   16.6682    1.8110   14.2951 C   0  0  0  0  0  0  0  0  0  0  0  0
   16.5867    1.7654   15.7977 C   0  0  0  0  0  0  0  0  0  0  0  0
   17.3771    6.2467   14.9983 O   0  0  0  0  0  0  0  0  0  0  0  0
   16.7166    4.2646   14.5434 N   0  0  0  0  0  0  0  0  0  0  0  0
   13.8627    3.7176   17.4981 C   0  0  0  0  0  0  0  0  0  0  0  0
   17.4849    5.7771   12.7164 C   0  0  0  0  0  0  0  0  0  0  0  0
   18.0545    6.4651   10.0546 C   0  0  0  0  0  0  0  0  0  0  0  0
   18.9948    5.8512   10.8740 C   0  0  0  0  0  0  0  0  0  0  0  0
   18.7117    5.5100   12.1689 C   0  0  0  0  0  0  0  0  0  0  0  0
   16.7656    6.7471   10.5784 C   0  0  0  0  0  0  0  0  0  0  0  0
   16.5320    6.4193   11.9629 C   0  0  0  0  0  0  0  0  0  0  0  0
   18.8845    8.1502    8.2609 O   0  0  0  0  0  0  0  0  0  0  0  0
   18.4630    6.7665    8.3818 S   0  0  0  0  0  0  0  0  0  0  0  0
   17.2922    6.3610    7.6484 O   0  0  0  0  0  0  0  0  0  0  0  0
   19.6417    5.8298    7.9421 N   0  0  0  0  0  0  0  0  0  0  0  0
   20.4896    6.0914    8.4451 H   0  0  0  0  0  0  0  0  0  0  0  0
   19.7976    5.9277    6.9388 H   0  0  0  0  0  0  0  0  0  0  0  0
  9  8  1  0  0  0
  9  3  1  0  0  0
  8  7  1  0  0  0
  3  2  2  0  0  0
  3  6  1  0  0  0
  2 12  1  0  0  0
 11  7  1  0  0  0
 11  6  1  0  0  0
 11  4  1  0  0  0
  6  1  2  0  0  0
 12  5  2  0  0  0
 10  4  2  0  0  0
  4 13  1  0  0  0
  1  5  1  0  0  0
 13 18  2  0  0  0
 13 16  1  0  0  0
 18 17  1  0  0  0
 16 15  2  0  0  0
 17 14  2  0  0  0
 15 14  1  0  0  0
 14 20  1  0  0  0
 22 20  1  0  0  0
 19 20  2  0  0  0
 20 21  2  0  0  0
 22 23  1  0  0  0
 22 24  1  0  0  0
M  END
> <minimizedAffinity>
-7.92422

$$$$
4Z0Q_4K9_A_1002


 24 26  0  0  0  0  0  0  0  0999 V2000
   15.1140    9.7798   11.0382 C   0  0  0  0  0  0  0  0  0  0  0  0
   16.8697   11.9727   10.4757 C   0  0  0  0  0  0  0  0  0  0  0  0
   17.3632   10.7232   10.9452 C   0  0  0  0  0  0  0  0  0  0  0  0
   16.3856    7.3171   11.6301 C   0  0  0  0  0  0  0  0  0  0  0  0
   14.6757   11.0071   10.5738 C   0  0  0  0  0  0  0  0  0  0  0  0
   16.4798    9.6718   11.2008 C   0  0  0  0  0  0  0  0  0  0  0  0
   17.8982    8.7081   12.7786 C   0  0  0  0  0  0  0  0  0  0  0  0
   18.9522    9.7660   12.5034 C   0  0  0  0  0  0  0  0  0  0  0  0
   18.8358   10.5228   11.2072 C   0  0  0  0  0  0  0  0  0  0  0  0
   15.8364    7.0631   10.5905 O   0  0  0  0  0  0  0  0  0  0  0  0
   17.0285    8.4440   11.7058 N   0  0  0  0  0  0  0  0  0  0  0  0
   15.5163   12.0452   10.3204 C   0  0  0  0  0  0  0  0  0  0  0  0
   16.4286    6.2322   12.6877 C   0  0  0  0  0  0  0  0  0  0  0  0
   16.5612    4.1635   14.5812 C   0  0  0  0  0  0  0  0  0  0  0  0
   16.0477    5.4167   14.8945 C   0  0  0  0  0  0  0  0  0  0  0  0
   15.9773    6.4210   13.9671 C   0  0  0  0  0  0  0  0  0  0  0  0
   17.0271    3.9213   13.2624 C   0  0  0  0  0  0  0  0  0  0  0  0
   16.9832    5.0253   12.3361 C   0  0  0  0  0  0  0  0  0  0  0  0
   15.2873    3.0592   16.5571 O   0  0  0  0  0  0  0  0  0  0  0  0
   16.5127    2.9057   15.7944 S   0  0  0  0  0  0  0  0  0  0  0  0
   17.7589    3.0428   16.5026 O   0  0  0  0  0  0  0  0  0  0  0  0
   16.5159    1.4971   15.1046 N   0  0  0  0  0  0  0  0  0  0  0  0
   15.6435    1.3674   14.5923 H   0  0  0  0  0  0  0  0  0  0  0  0
   16.6041    0.7707   15.8153 H   0  0  0  0  0  0  0  0  0  0  0  0
  9  8  1  0  0  0
  9  3  1  0  0  0
  8  7  1  0  0  0
  3  2  2  0  0  0
  3  6  1  0  0  0
  2 12  1  0  0  0
 11  7  1  0  0  0
 11  6  1  0  0  0
 11  4  1  0  0  0
  6  1  2  0  0  0
 12  5  2  0  0  0
 10  4  2  0  0  0
  4 13  1  0  0  0
  1  5  1  0  0  0
 13 18  2  0  0  0
 13 16  1  0  0  0
 18 17  1  0  0  0
 16 15  2  0  0  0
 17 14  2  0  0  0
 15 14  1  0  0  0
 14 20  1  0  0  0
 22 20  1  0  0  0
 19 20  2  0  0  0
 20 21  2  0  0  0
 22 23  1  0  0  0
 22 24  1  0  0  0
M  END
> <minimizedAffinity>
-7.66072

$$$$
4Z0Q_4K9_A_1002


 24 26  0  0  0  0  0  0  0  0999 V2000
   16.2655    3.0638   15.1419 C   0  0  0  0  0  0  0  0  0  0  0  0
   14.4532    4.2354   17.0263 C   0  0  0  0  0  0  0  0  0  0  0  0
   14.8384    4.9175   15.8382 C   0  0  0  0  0  0  0  0  0  0  0  0
   16.5926    4.4878   12.7134 C   0  0  0  0  0  0  0  0  0  0  0  0
   15.8605    2.4316   16.3039 C   0  0  0  0  0  0  0  0  0  0  0  0
   15.7171    4.3130   14.9361 C   0  0  0  0  0  0  0  0  0  0  0  0
   16.4906    6.3604   14.1364 C   0  0  0  0  0  0  0  0  0  0  0  0
   15.5062    7.0997   15.0252 C   0  0  0  0  0  0  0  0  0  0  0  0
   14.3360    6.3109   15.5493 C   0  0  0  0  0  0  0  0  0  0  0  0
   16.0611    3.4780   12.3331 O   0  0  0  0  0  0  0  0  0  0  0  0
   16.0990    5.0605   13.7704 N   0  0  0  0  0  0  0  0  0  0  0  0
   15.0083    3.0010   17.1973 C   0  0  0  0  0  0  0  0  0  0  0  0
   17.6675    5.0931   11.8327 C   0  0  0  0  0  0  0  0  0  0  0  0
   19.5856    6.2403   10.1334 C   0  0  0  0  0  0  0  0  0  0  0  0
   19.9093    5.7789   11.4041 C   0  0  0  0  0  0  0  0  0  0  0  0
   18.9737    5.2132   12.2274 C   0  0  0  0  0  0  0  0  0  0  0  0
   18.2457    6.1222    9.6797 C   0  0  0  0  0  0  0  0  0  0  0  0
   17.2850    5.5700   10.6021 C   0  0  0  0  0  0  0  0  0  0  0  0
   21.9919    7.2002    9.9487 O   0  0  0  0  0  0  0  0  0  0  0  0
   20.8632    6.8482    9.1067 S   0  0  0  0  0  0  0  0  0  0  0  0
   20.2427    7.9043    8.3498 O   0  0  0  0  0  0  0  0  0  0  0  0
   21.3063    5.7386    8.0906 N   0  0  0  0  0  0  0  0  0  0  0  0
   21.7513    4.9727    8.5962 H   0  0  0  0  0  0  0  0  0  0  0  0
   21.9673    6.1342    7.4220 H   0  0  0  0  0  0  0  0  0  0  0  0
  9  8  1  0  0  0
  9  3  1  0  0  0
  8  7  1  0  0  0
  3  2  2  0  0  0
  3  6  1  0  0  0
  2 12  1  0  0  0
 11  7  1  0  0  0
 11  6  1  0  0  0
 11  4  1  0  0  0
  6  1  2  0  0  0
 12  5  2  0  0  0
 10  4  2  0  0  0
  4 13  1  0  0  0
  1  5  1  0  0  0
 13 18  2  0  0  0
 13 16  1  0  0  0
 18 17  1  0  0  0
 16 15  2  0  0  0
 17 14  2  0  0  0
 15 14  1  0  0  0
 14 20  1  0  0  0
 22 20  1  0  0  0
 19 20  2  0  0  0
 20 21  2  0  0  0
 22 23  1  0  0  0
 22 24  1  0  0  0
M  END
> <minimizedAffinity>
-7.53621

$$$$
4Z0Q_4K9_A_1002


 24 26  0  0  0  0  0  0  0  0999 V2000
   19.4401    9.3037   13.9778 C   0  0  0  0  0  0  0  0  0  0  0  0
   21.3276    9.3614   11.8232 C   0  0  0  0  0  0  0  0  0  0  0  0
   20.3783    8.3094   11.9557 C   0  0  0  0  0  0  0  0  0  0  0  0
   17.4550    7.2880   13.8096 C   0  0  0  0  0  0  0  0  0  0  0  0
   20.3734   10.3109   13.8091 C   0  0  0  0  0  0  0  0  0  0  0  0
   19.4660    8.3173   13.0134 C   0  0  0  0  0  0  0  0  0  0  0  0
   19.2486    5.9973   12.9977 C   0  0  0  0  0  0  0  0  0  0  0  0
   20.1671    5.9016   11.7925 C   0  0  0  0  0  0  0  0  0  0  0  0
   20.3620    7.1558   10.9829 C   0  0  0  0  0  0  0  0  0  0  0  0
   16.7962    8.2877   13.6939 O   0  0  0  0  0  0  0  0  0  0  0  0
   18.5529    7.2133   13.1184 N   0  0  0  0  0  0  0  0  0  0  0  0
   21.2722   10.3231   12.7891 C   0  0  0  0  0  0  0  0  0  0  0  0
   16.8625    6.1419   14.6052 C   0  0  0  0  0  0  0  0  0  0  0  0
   15.6713    4.0504   16.0505 C   0  0  0  0  0  0  0  0  0  0  0  0
   17.0489    4.1427   15.8890 C   0  0  0  0  0  0  0  0  0  0  0  0
   17.6273    5.1677   15.1903 C   0  0  0  0  0  0  0  0  0  0  0  0
   14.8428    5.0472   15.4719 C   0  0  0  0  0  0  0  0  0  0  0  0
   15.4933    6.0763   14.6995 C   0  0  0  0  0  0  0  0  0  0  0  0
   15.3898    3.0427   18.4278 O   0  0  0  0  0  0  0  0  0  0  0  0
   15.0239    2.7704   17.0499 S   0  0  0  0  0  0  0  0  0  0  0  0
   15.5286    1.5606   16.4540 O   0  0  0  0  0  0  0  0  0  0  0  0
   13.4604    2.7373   16.9300 N   0  0  0  0  0  0  0  0  0  0  0  0
   13.0697    3.5835   17.3443 H   0  0  0  0  0  0  0  0  0  0  0  0
   13.0990    1.9199   17.4215 H   0  0  0  0  0  0  0  0  0  0  0  0
  9  8  1  0  0  0
  9  3  1  0  0  0
  8  7  1  0  0  0
  3  2  2  0  0  0
  3  6  1  0  0  0
  2 12  1  0  0  0
 11  7  1  0  0  0
 11  6  1  0  0  0
 11  4  1  0  0  0
  6  1  2  0  0  0
 12  5  2  0  0  0
 10  4  2  0  0  0
  4 13  1  0  0  0
  1  5  1  0  0  0
 13 18  2  0  0  0
 13 16  1  0  0  0
 18 17  1  0  0  0
 16 15  2  0  0  0
 17 14  2  0  0  0
 15 14  1  0  0  0
 14 20  1  0  0  0
 22 20  1  0  0  0
 19 20  2  0  0  0
 20 21  2  0  0  0
 22 23  1  0  0  0
 22 24  1  0  0  0
M  END
> <minimizedAffinity>
-7.41061

$$$$
4Z0Q_4K9_A_1002


 24 26  0  0  0  0  0  0  0  0999 V2000
   14.7740    5.1489   15.9035 C   0  0  0  0  0  0  0  0  0  0  0  0
   14.9865    2.4644   16.8814 C   0  0  0  0  0  0  0  0  0  0  0  0
   15.7923    2.9328   15.8059 C   0  0  0  0  0  0  0  0  0  0  0  0
   16.7240    5.9115   13.9935 C   0  0  0  0  0  0  0  0  0  0  0  0
   14.0152    4.6570   16.9505 C   0  0  0  0  0  0  0  0  0  0  0  0
   15.6694    4.2508   15.3601 C   0  0  0  0  0  0  0  0  0  0  0  0
   16.3950    3.7155   13.2113 C   0  0  0  0  0  0  0  0  0  0  0  0
   16.6378    2.2770   13.6325 C   0  0  0  0  0  0  0  0  0  0  0  0
   16.7629    2.0111   15.1090 C   0  0  0  0  0  0  0  0  0  0  0  0
   17.0043    6.6212   14.9232 O   0  0  0  0  0  0  0  0  0  0  0  0
   16.4827    4.6603   14.2490 N   0  0  0  0  0  0  0  0  0  0  0  0
   14.1159    3.3778   17.3999 C   0  0  0  0  0  0  0  0  0  0  0  0
   16.8503    6.4934   12.5996 C   0  0  0  0  0  0  0  0  0  0  0  0
   17.0236    7.6491   10.0468 C   0  0  0  0  0  0  0  0  0  0  0  0
   17.7840    6.5427   10.4074 C   0  0  0  0  0  0  0  0  0  0  0  0
   17.6917    5.9767   11.6502 C   0  0  0  0  0  0  0  0  0  0  0  0
   16.1285    8.2074   10.9965 C   0  0  0  0  0  0  0  0  0  0  0  0
   16.1060    7.6112   12.3091 C   0  0  0  0  0  0  0  0  0  0  0  0
   15.9951    7.7070    7.6625 O   0  0  0  0  0  0  0  0  0  0  0  0
   17.1226    8.2406    8.4047 S   0  0  0  0  0  0  0  0  0  0  0  0
   18.4431    7.8674    7.9684 O   0  0  0  0  0  0  0  0  0  0  0  0
   17.0491    9.8073    8.3953 N   0  0  0  0  0  0  0  0  0  0  0  0
   16.1228   10.1060    8.7005 H   0  0  0  0  0  0  0  0  0  0  0  0
   17.2227   10.1502    7.4505 H   0  0  0  0  0  0  0  0  0  0  0  0
  9  8  1  0  0  0
  9  3  1  0  0  0
  8  7  1  0  0  0
  3  2  2  0  0  0
  3  6  1  0  0  0
  2 12  1  0  0  0
 11  7  1  0  0  0
 11  6  1  0  0  0
 11  4  1  0  0  0
  6  1  2  0  0  0
 12  5  2  0  0  0
 10  4  2  0  0  0
  4 13  1  0  0  0
  1  5  1  0  0  0
 13 18  2  0  0  0
 13 16  1  0  0  0
 18 17  1  0  0  0
 16 15  2  0  0  0
 17 14  2  0  0  0
 15 14  1  0  0  0
 14 20  1  0  0  0
 22 20  1  0  0  0
 19 20  2  0  0  0
 20 21  2  0  0  0
 22 23  1  0  0  0
 22 24  1  0  0  0
M  END
> <minimizedAffinity>
-7.34540

$$$$
4Z0Q_4K9_A_1002


 24 26  0  0  0  0  0  0  0  0999 V2000
   14.4136    5.2448   16.1286 C   0  0  0  0  0  0  0  0  0  0  0  0
   15.3870    2.5645   16.4057 C   0  0  0  0  0  0  0  0  0  0  0  0
   15.8986    3.4452   15.4116 C   0  0  0  0  0  0  0  0  0  0  0  0
   15.8373    6.8792   14.3027 C   0  0  0  0  0  0  0  0  0  0  0  0
   13.9487    4.3604   17.0855 C   0  0  0  0  0  0  0  0  0  0  0  0
   15.4077    4.7490   15.3103 C   0  0  0  0  0  0  0  0  0  0  0  0
   15.9243    4.8925   13.0426 C   0  0  0  0  0  0  0  0  0  0  0  0
   16.5552    3.5119   13.0807 C   0  0  0  0  0  0  0  0  0  0  0  0
   16.9486    2.9796   14.4329 C   0  0  0  0  0  0  0  0  0  0  0  0
   16.0731    7.4224   15.3496 O   0  0  0  0  0  0  0  0  0  0  0  0
   15.9352    5.5838   14.2670 N   0  0  0  0  0  0  0  0  0  0  0  0
   14.4096    3.0866   17.2015 C   0  0  0  0  0  0  0  0  0  0  0  0
   15.6235    7.7571   13.0857 C   0  0  0  0  0  0  0  0  0  0  0  0
   15.1310    9.4006   10.8633 C   0  0  0  0  0  0  0  0  0  0  0  0
   16.3968    8.8978   11.1413 C   0  0  0  0  0  0  0  0  0  0  0  0
   16.6324    8.0906   12.2213 C   0  0  0  0  0  0  0  0  0  0  0  0
   14.0542    9.0678   11.7262 C   0  0  0  0  0  0  0  0  0  0  0  0
   14.3614    8.2601   12.8803 C   0  0  0  0  0  0  0  0  0  0  0  0
   13.5204   10.1643    8.9742 O   0  0  0  0  0  0  0  0  0  0  0  0
   14.8967   10.3332    9.4033 S   0  0  0  0  0  0  0  0  0  0  0  0
   15.9321    9.8735    8.5146 O   0  0  0  0  0  0  0  0  0  0  0  0
   15.1630   11.8519    9.6905 N   0  0  0  0  0  0  0  0  0  0  0  0
   14.4444   12.2101   10.3196 H   0  0  0  0  0  0  0  0  0  0  0  0
   15.1380   12.3731    8.8140 H   0  0  0  0  0  0  0  0  0  0  0  0
  9  8  1  0  0  0
  9  3  1  0  0  0
  8  7  1  0  0  0
  3  2  2  0  0  0
  3  6  1  0  0  0
  2 12  1  0  0  0
 11  7  1  0  0  0
 11  6  1  0  0  0
 11  4  1  0  0  0
  6  1  2  0  0  0
 12  5  2  0  0  0
 10  4  2  0  0  0
  4 13  1  0  0  0
  1  5  1  0  0  0
 13 18  2  0  0  0
 13 16  1  0  0  0
 18 17  1  0  0  0
 16 15  2  0  0  0
 17 14  2  0  0  0
 15 14  1  0  0  0
 14 20  1  0  0  0
 22 20  1  0  0  0
 19 20  2  0  0  0
 20 21  2  0  0  0
 22 23  1  0  0  0
 22 24  1  0  0  0
M  END
> <minimizedAffinity>
-6.76863

$$$$
4Z0Q_4K9_A_1002


 24 26  0  0  0  0  0  0  0  0999 V2000
   18.2144   11.4675   11.8832 C   0  0  0  0  0  0  0  0  0  0  0  0
   19.5655   13.6992   13.0674 C   0  0  0  0  0  0  0  0  0  0  0  0
   19.7251   12.3775   13.5706 C   0  0  0  0  0  0  0  0  0  0  0  0
   18.9732    8.9191   12.8639 C   0  0  0  0  0  0  0  0  0  0  0  0
   18.0921   12.7655   11.4202 C   0  0  0  0  0  0  0  0  0  0  0  0
   19.0585   11.3108   12.9633 C   0  0  0  0  0  0  0  0  0  0  0  0
   19.0370   10.0540   14.9254 C   0  0  0  0  0  0  0  0  0  0  0  0
   19.8349   11.1280   15.6432 C   0  0  0  0  0  0  0  0  0  0  0  0
   20.5838   12.1103   14.7824 C   0  0  0  0  0  0  0  0  0  0  0  0
   19.3621    8.8673   11.7268 O   0  0  0  0  0  0  0  0  0  0  0  0
   19.2286   10.0032   13.5333 N   0  0  0  0  0  0  0  0  0  0  0  0
   18.7291   13.8194   11.9964 C   0  0  0  0  0  0  0  0  0  0  0  0
   18.3828    7.6589   13.4646 C   0  0  0  0  0  0  0  0  0  0  0  0
   17.2001    5.3463   14.5303 C   0  0  0  0  0  0  0  0  0  0  0  0
   18.5552    5.6170   14.6815 C   0  0  0  0  0  0  0  0  0  0  0  0
   19.1275    6.7491   14.1674 C   0  0  0  0  0  0  0  0  0  0  0  0
   16.3893    6.2703   13.8206 C   0  0  0  0  0  0  0  0  0  0  0  0
   17.0466    7.4201   13.2508 C   0  0  0  0  0  0  0  0  0  0  0  0
   16.2599    2.9368   14.2924 O   0  0  0  0  0  0  0  0  0  0  0  0
   16.5307    3.9334   15.3124 S   0  0  0  0  0  0  0  0  0  0  0  0
   15.4109    4.4370   16.0646 O   0  0  0  0  0  0  0  0  0  0  0  0
   17.5634    3.3507   16.3390 N   0  0  0  0  0  0  0  0  0  0  0  0
   18.3721    2.9841   15.8369 H   0  0  0  0  0  0  0  0  0  0  0  0
   17.1256    2.5998   16.8727 H   0  0  0  0  0  0  0  0  0  0  0  0
  9  8  1  0  0  0
  9  3  1  0  0  0
  8  7  1  0  0  0
  3  2  2  0  0  0
  3  6  1  0  0  0
  2 12  1  0  0  0
 11  7  1  0  0  0
 11  6  1  0  0  0
 11  4  1  0  0  0
  6  1  2  0  0  0
 12  5  2  0  0  0
 10  4  2  0  0  0
  4 13  1  0  0  0
  1  5  1  0  0  0
 13 18  2  0  0  0
 13 16  1  0  0  0
 18 17  1  0  0  0
 16 15  2  0  0  0
 17 14  2  0  0  0
 15 14  1  0  0  0
 14 20  1  0  0  0
 22 20  1  0  0  0
 19 20  2  0  0  0
 20 21  2  0  0  0
 22 23  1  0  0  0
 22 24  1  0  0  0
M  END
> <minimizedAffinity>
-6.74698

$$$$
4Z0Q_4K9_A_1002


 24 26  0  0  0  0  0  0  0  0999 V2000
   16.6151    4.7697   15.0332 C   0  0  0  0  0  0  0  0  0  0  0  0
   16.5672    1.9059   15.0963 C   0  0  0  0  0  0  0  0  0  0  0  0
   16.7490    2.6225   13.8802 C   0  0  0  0  0  0  0  0  0  0  0  0
   17.3290    5.9254   12.5459 C   0  0  0  0  0  0  0  0  0  0  0  0
   16.4484    4.0358   16.1941 C   0  0  0  0  0  0  0  0  0  0  0  0
   16.7766    4.0191   13.8869 C   0  0  0  0  0  0  0  0  0  0  0  0
   16.0301    4.1613   11.6840 C   0  0  0  0  0  0  0  0  0  0  0  0
   16.0503    2.6480   11.5608 C   0  0  0  0  0  0  0  0  0  0  0  0
   16.8796    1.8935   12.5654 C   0  0  0  0  0  0  0  0  0  0  0  0
   18.2553    6.2522   13.2401 O   0  0  0  0  0  0  0  0  0  0  0  0
   16.9285    4.6918   12.6267 N   0  0  0  0  0  0  0  0  0  0  0  0
   16.4161    2.6767   16.2116 C   0  0  0  0  0  0  0  0  0  0  0  0
   16.8317    6.9232   11.5189 C   0  0  0  0  0  0  0  0  0  0  0  0
   15.8603    8.8207    9.6918 C   0  0  0  0  0  0  0  0  0  0  0  0
   16.7939    7.8577    9.3269 C   0  0  0  0  0  0  0  0  0  0  0  0
   17.2600    6.9291   10.2179 C   0  0  0  0  0  0  0  0  0  0  0  0
   15.3796    8.8412   11.0273 C   0  0  0  0  0  0  0  0  0  0  0  0
   15.9400    7.8787   11.9430 C   0  0  0  0  0  0  0  0  0  0  0  0
   14.1144    9.2451    7.8162 O   0  0  0  0  0  0  0  0  0  0  0  0
   15.2371    9.8982    8.4643 S   0  0  0  0  0  0  0  0  0  0  0  0
   16.3823   10.2154    7.6512 O   0  0  0  0  0  0  0  0  0  0  0  0
   14.7443   11.2329    9.1244 N   0  0  0  0  0  0  0  0  0  0  0  0
   13.9307   11.0427    9.7094 H   0  0  0  0  0  0  0  0  0  0  0  0
   14.4904   11.8993    8.3951 H   0  0  0  0  0  0  0  0  0  0  0  0
  9  8  1  0  0  0
  9  3  1  0  0  0
  8  7  1  0  0  0
  3  2  2  0  0  0
  3  6  1  0  0  0
  2 12  1  0  0  0
 11  7  1  0  0  0
 11  6  1  0  0  0
 11  4  1  0  0  0
  6  1  2  0  0  0
 12  5  2  0  0  0
 10  4  2  0  0  0
  4 13  1  0  0  0
  1  5  1  0  0  0
 13 18  2  0  0  0
 13 16  1  0  0  0
 18 17  1  0  0  0
 16 15  2  0  0  0
 17 14  2  0  0  0
 15 14  1  0  0  0
 14 20  1  0  0  0
 22 20  1  0  0  0
 19 20  2  0  0  0
 20 21  2  0  0  0
 22 23  1  0  0  0
 22 24  1  0  0  0
M  END
> <minimizedAffinity>
-6.68477

$$$$
4Z0Q_4K9_A_1002


 24 26  0  0  0  0  0  0  0  0999 V2000
   16.7260    3.5409   15.5193 C   0  0  0  0  0  0  0  0  0  0  0  0
   14.2290    4.4231   16.6122 C   0  0  0  0  0  0  0  0  0  0  0  0
   14.9149    5.1743   15.6169 C   0  0  0  0  0  0  0  0  0  0  0  0
   17.6976    5.0445   13.3222 C   0  0  0  0  0  0  0  0  0  0  0  0
   16.0244    2.8371   16.4818 C   0  0  0  0  0  0  0  0  0  0  0  0
   16.1262    4.7101   15.0989 C   0  0  0  0  0  0  0  0  0  0  0  0
   16.8559    6.8579   14.5653 C   0  0  0  0  0  0  0  0  0  0  0  0
   15.5336    7.4418   15.0300 C   0  0  0  0  0  0  0  0  0  0  0  0
   14.3681    6.4942   15.1310 C   0  0  0  0  0  0  0  0  0  0  0  0
   17.4717    3.9810   12.8076 O   0  0  0  0  0  0  0  0  0  0  0  0
   16.7927    5.5251   14.1215 N   0  0  0  0  0  0  0  0  0  0  0  0
   14.8453    3.2702   17.0020 C   0  0  0  0  0  0  0  0  0  0  0  0
   18.9244    5.8048   12.8592 C   0  0  0  0  0  0  0  0  0  0  0  0
   21.2101    7.1429   11.9277 C   0  0  0  0  0  0  0  0  0  0  0  0
   20.3944    7.6798   12.9170 C   0  0  0  0  0  0  0  0  0  0  0  0
   19.2849    7.0217   13.3745 C   0  0  0  0  0  0  0  0  0  0  0  0
   20.8801    5.8771   11.3763 C   0  0  0  0  0  0  0  0  0  0  0  0
   19.6729    5.2475   11.8507 C   0  0  0  0  0  0  0  0  0  0  0  0
   22.4983    9.3963   11.8348 O   0  0  0  0  0  0  0  0  0  0  0  0
   22.6672    7.9990   11.4803 S   0  0  0  0  0  0  0  0  0  0  0  0
   22.8547    7.6836   10.0879 O   0  0  0  0  0  0  0  0  0  0  0  0
   23.8931    7.4142   12.2646 N   0  0  0  0  0  0  0  0  0  0  0  0
   23.7911    7.6210   13.2582 H   0  0  0  0  0  0  0  0  0  0  0  0
   24.7531    7.8374   11.9157 H   0  0  0  0  0  0  0  0  0  0  0  0
  9  8  1  0  0  0
  9  3  1  0  0  0
  8  7  1  0  0  0
  3  2  2  0  0  0
  3  6  1  0  0  0
  2 12  1  0  0  0
 11  7  1  0  0  0
 11  6  1  0  0  0
 11  4  1  0  0  0
  6  1  2  0  0  0
 12  5  2  0  0  0
 10  4  2  0  0  0
  4 13  1  0  0  0
  1  5  1  0  0  0
 13 18  2  0  0  0
 13 16  1  0  0  0
 18 17  1  0  0  0
 16 15  2  0  0  0
 17 14  2  0  0  0
 15 14  1  0  0  0
 14 20  1  0  0  0
 22 20  1  0  0  0
 19 20  2  0  0  0
 20 21  2  0  0  0
 22 23  1  0  0  0
 22 24  1  0  0  0
M  END
> <minimizedAffinity>
-6.55840

$$$$
