3DBU_D8W_A_301


 22 23  0  0  0  0  0  0  0  0999 V2000
   -5.6427    4.9729   12.8929 N   0  0  0  0  0  0  0  0  0  0  0  0
   -6.3808    4.9221   12.2434 H   0  0  0  0  0  0  0  0  0  0  0  0
   -5.6450    4.0231   13.8597 C   0  0  0  0  0  0  0  0  0  0  0  0
   -4.6108    2.6601   13.8269 S   0  0  0  0  0  0  0  0  0  0  0  0
   -6.4308    4.0460   14.9627 N   0  0  0  0  0  0  0  0  0  0  0  0
   -6.2060    2.9265   15.8141 N   0  0  0  0  0  0  0  0  0  0  0  0
   -5.2473    2.1076   15.3298 C   0  0  0  0  0  0  0  0  0  0  0  0
   -4.5416    0.8707   16.1833 S   0  0  0  0  0  0  0  0  0  0  0  0
   -4.6254   -0.2928   15.3529 O   0  0  0  0  0  0  0  0  0  0  0  0
   -3.2152    1.2150   16.5143 O   0  0  0  0  0  0  0  0  0  0  0  0
   -5.4144    0.6163   17.5024 N   0  0  0  0  0  0  0  0  0  0  0  0
   -6.3678    0.3693   17.2369 H   0  0  0  0  0  0  0  0  0  0  0  0
   -5.4283    1.4639   18.0697 H   0  0  0  0  0  0  0  0  0  0  0  0
   -4.6626    6.0947   12.6796 S   0  0  0  0  0  0  0  0  0  0  0  0
   -3.5030    5.8239   11.8197 O   0  0  0  0  0  0  0  0  0  0  0  0
   -4.2232    6.6213   13.9920 O   0  0  0  0  0  0  0  0  0  0  0  0
   -4.7351    8.2285   11.2534 C   0  0  0  0  0  0  0  0  0  0  0  0
   -5.4118    9.2513   10.5892 C   0  0  0  0  0  0  0  0  0  0  0  0
   -6.8003    9.2742   10.6166 C   0  0  0  0  0  0  0  0  0  0  0  0
   -7.5334    8.3116   11.3006 C   0  0  0  0  0  0  0  0  0  0  0  0
   -6.8569    7.2826   11.9553 C   0  0  0  0  0  0  0  0  0  0  0  0
   -5.4725    7.2594   11.9145 C   0  0  0  0  0  0  0  0  0  0  0  0
 17 18  2  0  0  0
 17 22  1  0  0  0
 18 19  1  0  0  0
 19 20  2  0  0  0
 20 21  1  0  0  0
 21 22  2  0  0  0
 22 14  1  0  0  0
 14 15  2  0  0  0
 14 16  2  0  0  0
 14  1  1  0  0  0
  1  3  1  0  0  0
  3  4  1  0  0  0
  3  5  2  0  0  0
  4  7  1  0  0  0
  5  6  1  0  0  0
  6  7  2  0  0  0
  7  8  1  0  0  0
  8  9  2  0  0  0
  8 10  2  0  0  0
  8 11  1  0  0  0
  1  2  1  0  0  0
 11 12  1  0  0  0
 11 13  1  0  0  0
M  END
> <minimizedAffinity>
-7.55578

$$$$
3DBU_D8W_A_301


 22 23  0  0  0  0  0  0  0  0999 V2000
   -3.9796    2.4701   13.6627 N   0  0  0  0  0  0  0  0  0  0  0  0
   -3.9103    1.4922   13.7531 H   0  0  0  0  0  0  0  0  0  0  0  0
   -3.9379    2.9468   12.3947 C   0  0  0  0  0  0  0  0  0  0  0  0
   -2.7492    4.0537   11.8559 S   0  0  0  0  0  0  0  0  0  0  0  0
   -4.7974    2.5949   11.4088 N   0  0  0  0  0  0  0  0  0  0  0  0
   -4.5024    3.2403   10.1738 N   0  0  0  0  0  0  0  0  0  0  0  0
   -3.4210    4.0439   10.2692 C   0  0  0  0  0  0  0  0  0  0  0  0
   -2.6358    4.7287    8.9765 S   0  0  0  0  0  0  0  0  0  0  0  0
   -3.4146    4.4131    7.8171 O   0  0  0  0  0  0  0  0  0  0  0  0
   -2.4958    6.1161    9.1833 O   0  0  0  0  0  0  0  0  0  0  0  0
   -1.2048    4.0226    8.8338 N   0  0  0  0  0  0  0  0  0  0  0  0
   -1.3329    3.0216    8.6852 H   0  0  0  0  0  0  0  0  0  0  0  0
   -0.6648    4.1736    9.6858 H   0  0  0  0  0  0  0  0  0  0  0  0
   -4.1177    3.2358   14.9507 S   0  0  0  0  0  0  0  0  0  0  0  0
   -4.7029    4.5810   14.8771 O   0  0  0  0  0  0  0  0  0  0  0  0
   -2.8090    3.2768   15.6424 O   0  0  0  0  0  0  0  0  0  0  0  0
   -6.4156    2.9164   16.0510 C   0  0  0  0  0  0  0  0  0  0  0  0
   -7.3216    2.2120   16.8435 C   0  0  0  0  0  0  0  0  0  0  0  0
   -6.9232    1.0170   17.4290 C   0  0  0  0  0  0  0  0  0  0  0  0
   -5.6400    0.5114   17.2567 C   0  0  0  0  0  0  0  0  0  0  0  0
   -4.7378    1.2101   16.4550 C   0  0  0  0  0  0  0  0  0  0  0  0
   -5.1451    2.3954   15.8650 C   0  0  0  0  0  0  0  0  0  0  0  0
 17 18  2  0  0  0
 17 22  1  0  0  0
 18 19  1  0  0  0
 19 20  2  0  0  0
 20 21  1  0  0  0
 21 22  2  0  0  0
 22 14  1  0  0  0
 14 15  2  0  0  0
 14 16  2  0  0  0
 14  1  1  0  0  0
  1  3  1  0  0  0
  3  4  1  0  0  0
  3  5  2  0  0  0
  4  7  1  0  0  0
  5  6  1  0  0  0
  6  7  2  0  0  0
  7  8  1  0  0  0
  8  9  2  0  0  0
  8 10  2  0  0  0
  8 11  1  0  0  0
  1  2  1  0  0  0
 11 12  1  0  0  0
 11 13  1  0  0  0
M  END
> <minimizedAffinity>
-7.34235

$$$$
3DBU_D8W_A_301


 22 23  0  0  0  0  0  0  0  0999 V2000
   -4.7616    3.2310   11.2608 N   0  0  0  0  0  0  0  0  0  0  0  0
   -5.4756    2.9206   10.6581 H   0  0  0  0  0  0  0  0  0  0  0  0
   -4.9188    2.9144   12.5692 C   0  0  0  0  0  0  0  0  0  0  0  0
   -4.4249    1.4147   13.2291 S   0  0  0  0  0  0  0  0  0  0  0  0
   -5.4515    3.7372   13.5040 N   0  0  0  0  0  0  0  0  0  0  0  0
   -5.4751    3.1456   14.7994 N   0  0  0  0  0  0  0  0  0  0  0  0
   -4.9448    1.9034   14.7975 C   0  0  0  0  0  0  0  0  0  0  0  0
   -4.5620    1.0374   16.1614 S   0  0  0  0  0  0  0  0  0  0  0  0
   -4.8013   -0.3388   15.8469 O   0  0  0  0  0  0  0  0  0  0  0  0
   -3.2252    1.2925   16.5293 O   0  0  0  0  0  0  0  0  0  0  0  0
   -5.5710    1.4743   17.3265 N   0  0  0  0  0  0  0  0  0  0  0  0
   -6.5295    1.2800   17.0368 H   0  0  0  0  0  0  0  0  0  0  0  0
   -5.4669    2.4722   17.5101 H   0  0  0  0  0  0  0  0  0  0  0  0
   -3.6415    3.9934   10.6062 S   0  0  0  0  0  0  0  0  0  0  0  0
   -3.4472    3.8016    9.1629 O   0  0  0  0  0  0  0  0  0  0  0  0
   -2.3792    3.7394   11.3375 O   0  0  0  0  0  0  0  0  0  0  0  0
   -5.0382    6.0551    9.9807 C   0  0  0  0  0  0  0  0  0  0  0  0
   -5.3719    7.4047   10.0920 C   0  0  0  0  0  0  0  0  0  0  0  0
   -4.6601    8.2080   10.9737 C   0  0  0  0  0  0  0  0  0  0  0  0
   -3.6143    7.7048   11.7386 C   0  0  0  0  0  0  0  0  0  0  0  0
   -3.2883    6.3527   11.6355 C   0  0  0  0  0  0  0  0  0  0  0  0
   -4.0094    5.5548   10.7625 C   0  0  0  0  0  0  0  0  0  0  0  0
 17 18  2  0  0  0
 17 22  1  0  0  0
 18 19  1  0  0  0
 19 20  2  0  0  0
 20 21  1  0  0  0
 21 22  2  0  0  0
 22 14  1  0  0  0
 14 15  2  0  0  0
 14 16  2  0  0  0
 14  1  1  0  0  0
  1  3  1  0  0  0
  3  4  1  0  0  0
  3  5  2  0  0  0
  4  7  1  0  0  0
  5  6  1  0  0  0
  6  7  2  0  0  0
  7  8  1  0  0  0
  8  9  2  0  0  0
  8 10  2  0  0  0
  8 11  1  0  0  0
  1  2  1  0  0  0
 11 12  1  0  0  0
 11 13  1  0  0  0
M  END
> <minimizedAffinity>
-7.08806

$$$$
3DBU_D8W_A_301


 22 23  0  0  0  0  0  0  0  0999 V2000
   -4.1706    2.9554   12.3800 N   0  0  0  0  0  0  0  0  0  0  0  0
   -4.9044    2.9527   11.7237 H   0  0  0  0  0  0  0  0  0  0  0  0
   -4.3980    2.2552   13.5179 C   0  0  0  0  0  0  0  0  0  0  0  0
   -5.3356    2.8647   14.8132 S   0  0  0  0  0  0  0  0  0  0  0  0
   -3.9433    1.0020   13.7572 N   0  0  0  0  0  0  0  0  0  0  0  0
   -4.3517    0.5089   15.0295 N   0  0  0  0  0  0  0  0  0  0  0  0
   -5.1130    1.4026   15.6974 C   0  0  0  0  0  0  0  0  0  0  0  0
   -5.9804    1.0643   17.0721 S   0  0  0  0  0  0  0  0  0  0  0  0
   -5.3796    1.8243   18.1264 O   0  0  0  0  0  0  0  0  0  0  0  0
   -7.3386    1.3831   16.8701 O   0  0  0  0  0  0  0  0  0  0  0  0
   -5.7996   -0.4928   17.4028 N   0  0  0  0  0  0  0  0  0  0  0  0
   -4.8105   -0.6977   17.5444 H   0  0  0  0  0  0  0  0  0  0  0  0
   -6.1541   -1.0490   16.6247 H   0  0  0  0  0  0  0  0  0  0  0  0
   -2.9461    3.7364   11.9857 S   0  0  0  0  0  0  0  0  0  0  0  0
   -2.8500    4.1816   10.5893 O   0  0  0  0  0  0  0  0  0  0  0  0
   -1.7334    2.9803   12.3736 O   0  0  0  0  0  0  0  0  0  0  0  0
   -4.0767    5.9373   12.6713 C   0  0  0  0  0  0  0  0  0  0  0  0
   -4.1327    7.1265   13.3978 C   0  0  0  0  0  0  0  0  0  0  0  0
   -3.0939    7.4402   14.2648 C   0  0  0  0  0  0  0  0  0  0  0  0
   -1.9925    6.6061   14.4173 C   0  0  0  0  0  0  0  0  0  0  0  0
   -1.9421    5.4116   13.6992 C   0  0  0  0  0  0  0  0  0  0  0  0
   -2.9868    5.0994   12.8447 C   0  0  0  0  0  0  0  0  0  0  0  0
 17 18  2  0  0  0
 17 22  1  0  0  0
 18 19  1  0  0  0
 19 20  2  0  0  0
 20 21  1  0  0  0
 21 22  2  0  0  0
 22 14  1  0  0  0
 14 15  2  0  0  0
 14 16  2  0  0  0
 14  1  1  0  0  0
  1  3  1  0  0  0
  3  4  1  0  0  0
  3  5  2  0  0  0
  4  7  1  0  0  0
  5  6  1  0  0  0
  6  7  2  0  0  0
  7  8  1  0  0  0
  8  9  2  0  0  0
  8 10  2  0  0  0
  8 11  1  0  0  0
  1  2  1  0  0  0
 11 12  1  0  0  0
 11 13  1  0  0  0
M  END
> <minimizedAffinity>
-6.77151

$$$$
3DBU_D8W_A_301


 22 23  0  0  0  0  0  0  0  0999 V2000
   -5.1281    4.2758   12.0091 N   0  0  0  0  0  0  0  0  0  0  0  0
   -5.9496    4.3066   11.4673 H   0  0  0  0  0  0  0  0  0  0  0  0
   -5.2382    3.6529   13.2077 C   0  0  0  0  0  0  0  0  0  0  0  0
   -4.5498    2.1188   13.5252 S   0  0  0  0  0  0  0  0  0  0  0  0
   -5.8710    4.1666   14.2895 N   0  0  0  0  0  0  0  0  0  0  0  0
   -5.8127    3.2982   15.4170 N   0  0  0  0  0  0  0  0  0  0  0  0
   -5.1241    2.1676   15.1490 C   0  0  0  0  0  0  0  0  0  0  0  0
   -4.6266    1.0710   16.2921 S   0  0  0  0  0  0  0  0  0  0  0  0
   -4.9598   -0.2246   15.7815 O   0  0  0  0  0  0  0  0  0  0  0  0
   -3.2469    1.2275   16.5353 O   0  0  0  0  0  0  0  0  0  0  0  0
   -5.4766    1.3242   17.6263 N   0  0  0  0  0  0  0  0  0  0  0  0
   -6.4694    1.2053   17.4247 H   0  0  0  0  0  0  0  0  0  0  0  0
   -5.3090    2.2729   17.9613 H   0  0  0  0  0  0  0  0  0  0  0  0
   -3.9179    4.9268   11.3956 S   0  0  0  0  0  0  0  0  0  0  0  0
   -4.1478    5.9103   10.3292 O   0  0  0  0  0  0  0  0  0  0  0  0
   -2.9729    3.8810   10.9416 O   0  0  0  0  0  0  0  0  0  0  0  0
   -3.7290    7.0163   12.8757 C   0  0  0  0  0  0  0  0  0  0  0  0
   -3.1319    7.7658   13.8891 C   0  0  0  0  0  0  0  0  0  0  0  0
   -2.0346    7.2431   14.5615 C   0  0  0  0  0  0  0  0  0  0  0  0
   -1.5070    5.9977   14.2414 C   0  0  0  0  0  0  0  0  0  0  0  0
   -2.1111    5.2436   13.2357 C   0  0  0  0  0  0  0  0  0  0  0  0
   -3.2120    5.7659   12.5768 C   0  0  0  0  0  0  0  0  0  0  0  0
 17 18  2  0  0  0
 17 22  1  0  0  0
 18 19  1  0  0  0
 19 20  2  0  0  0
 20 21  1  0  0  0
 21 22  2  0  0  0
 22 14  1  0  0  0
 14 15  2  0  0  0
 14 16  2  0  0  0
 14  1  1  0  0  0
  1  3  1  0  0  0
  3  4  1  0  0  0
  3  5  2  0  0  0
  4  7  1  0  0  0
  5  6  1  0  0  0
  6  7  2  0  0  0
  7  8  1  0  0  0
  8  9  2  0  0  0
  8 10  2  0  0  0
  8 11  1  0  0  0
  1  2  1  0  0  0
 11 12  1  0  0  0
 11 13  1  0  0  0
M  END
> <minimizedAffinity>
-6.69652

$$$$
3DBU_D8W_A_301


 22 23  0  0  0  0  0  0  0  0999 V2000
   -3.9499    4.2072   14.8440 N   0  0  0  0  0  0  0  0  0  0  0  0
   -3.6287    4.4491   15.7427 H   0  0  0  0  0  0  0  0  0  0  0  0
   -3.0118    4.2059   13.8659 C   0  0  0  0  0  0  0  0  0  0  0  0
   -2.0561    5.5753   13.4920 S   0  0  0  0  0  0  0  0  0  0  0  0
   -2.7013    3.1361   13.0953 N   0  0  0  0  0  0  0  0  0  0  0  0
   -1.6641    3.4209   12.1616 N   0  0  0  0  0  0  0  0  0  0  0  0
   -1.2190    4.6913   12.2726 C   0  0  0  0  0  0  0  0  0  0  0  0
    0.1521    5.2791   11.5437 S   0  0  0  0  0  0  0  0  0  0  0  0
   -0.1915    5.5258   10.1757 O   0  0  0  0  0  0  0  0  0  0  0  0
    0.5919    6.4369   12.2170 O   0  0  0  0  0  0  0  0  0  0  0  0
    1.2688    4.1312   11.5871 N   0  0  0  0  0  0  0  0  0  0  0  0
    0.9273    3.3059   11.0944 H   0  0  0  0  0  0  0  0  0  0  0  0
    1.4698    3.8889   12.5573 H   0  0  0  0  0  0  0  0  0  0  0  0
   -5.4169    3.8883   14.7400 S   0  0  0  0  0  0  0  0  0  0  0  0
   -5.9172    3.4286   13.4377 O   0  0  0  0  0  0  0  0  0  0  0  0
   -6.2077    5.0443   15.2206 O   0  0  0  0  0  0  0  0  0  0  0  0
   -4.7899    1.5869   15.6903 C   0  0  0  0  0  0  0  0  0  0  0  0
   -4.9982    0.4988   16.5375 C   0  0  0  0  0  0  0  0  0  0  0  0
   -6.0918    0.5065   17.3939 C   0  0  0  0  0  0  0  0  0  0  0  0
   -6.9924    1.5650   17.4190 C   0  0  0  0  0  0  0  0  0  0  0  0
   -6.7777    2.6580   16.5798 C   0  0  0  0  0  0  0  0  0  0  0  0
   -5.6789    2.6488   15.7363 C   0  0  0  0  0  0  0  0  0  0  0  0
 17 18  2  0  0  0
 17 22  1  0  0  0
 18 19  1  0  0  0
 19 20  2  0  0  0
 20 21  1  0  0  0
 21 22  2  0  0  0
 22 14  1  0  0  0
 14 15  2  0  0  0
 14 16  2  0  0  0
 14  1  1  0  0  0
  1  3  1  0  0  0
  3  4  1  0  0  0
  3  5  2  0  0  0
  4  7  1  0  0  0
  5  6  1  0  0  0
  6  7  2  0  0  0
  7  8  1  0  0  0
  8  9  2  0  0  0
  8 10  2  0  0  0
  8 11  1  0  0  0
  1  2  1  0  0  0
 11 12  1  0  0  0
 11 13  1  0  0  0
M  END
> <minimizedAffinity>
-6.63234

$$$$
3DBU_D8W_A_301


 22 23  0  0  0  0  0  0  0  0999 V2000
   -5.1406    3.4019   13.4867 N   0  0  0  0  0  0  0  0  0  0  0  0
   -6.1137    3.2981   13.5940 H   0  0  0  0  0  0  0  0  0  0  0  0
   -4.7454    4.2691   12.5231 C   0  0  0  0  0  0  0  0  0  0  0  0
   -3.9550    3.7697   11.0897 S   0  0  0  0  0  0  0  0  0  0  0  0
   -4.9449    5.6083   12.5605 N   0  0  0  0  0  0  0  0  0  0  0  0
   -4.4397    6.2661   11.4026 N   0  0  0  0  0  0  0  0  0  0  0  0
   -3.8912    5.3969   10.5264 C   0  0  0  0  0  0  0  0  0  0  0  0
   -3.4586    5.7726    8.9681 S   0  0  0  0  0  0  0  0  0  0  0  0
   -4.4886    6.6262    8.4572 O   0  0  0  0  0  0  0  0  0  0  0  0
   -2.1866    6.3804    8.9590 O   0  0  0  0  0  0  0  0  0  0  0  0
   -3.4529    4.4174    8.1137 N   0  0  0  0  0  0  0  0  0  0  0  0
   -4.3823    3.9977    8.1357 H   0  0  0  0  0  0  0  0  0  0  0  0
   -2.7765    3.7666    8.5129 H   0  0  0  0  0  0  0  0  0  0  0  0
   -4.2907    2.5764   14.4145 S   0  0  0  0  0  0  0  0  0  0  0  0
   -3.1560    3.2448   15.0648 O   0  0  0  0  0  0  0  0  0  0  0  0
   -3.8391    1.3536   13.7120 O   0  0  0  0  0  0  0  0  0  0  0  0
   -4.9575    0.9487   16.2848 C   0  0  0  0  0  0  0  0  0  0  0  0
   -5.7781    0.5395   17.3358 C   0  0  0  0  0  0  0  0  0  0  0  0
   -6.8685    1.3241   17.6889 C   0  0  0  0  0  0  0  0  0  0  0  0
   -7.1716    2.5003   17.0130 C   0  0  0  0  0  0  0  0  0  0  0  0
   -6.3444    2.9151   15.9696 C   0  0  0  0  0  0  0  0  0  0  0  0
   -5.2522    2.1337   15.6299 C   0  0  0  0  0  0  0  0  0  0  0  0
 17 18  2  0  0  0
 17 22  1  0  0  0
 18 19  1  0  0  0
 19 20  2  0  0  0
 20 21  1  0  0  0
 21 22  2  0  0  0
 22 14  1  0  0  0
 14 15  2  0  0  0
 14 16  2  0  0  0
 14  1  1  0  0  0
  1  3  1  0  0  0
  3  4  1  0  0  0
  3  5  2  0  0  0
  4  7  1  0  0  0
  5  6  1  0  0  0
  6  7  2  0  0  0
  7  8  1  0  0  0
  8  9  2  0  0  0
  8 10  2  0  0  0
  8 11  1  0  0  0
  1  2  1  0  0  0
 11 12  1  0  0  0
 11 13  1  0  0  0
M  END
> <minimizedAffinity>
-6.58442

$$$$
3DBU_D8W_A_301


 22 23  0  0  0  0  0  0  0  0999 V2000
   -3.3242    3.5619   14.8195 N   0  0  0  0  0  0  0  0  0  0  0  0
   -3.1428    3.4779   15.7835 H   0  0  0  0  0  0  0  0  0  0  0  0
   -2.5812    4.4839   14.1604 C   0  0  0  0  0  0  0  0  0  0  0  0
   -2.8402    6.1686   14.3129 S   0  0  0  0  0  0  0  0  0  0  0  0
   -1.5460    4.1953   13.3360 N   0  0  0  0  0  0  0  0  0  0  0  0
   -0.9381    5.3648   12.7961 N   0  0  0  0  0  0  0  0  0  0  0  0
   -1.5273    6.4940   13.2454 C   0  0  0  0  0  0  0  0  0  0  0  0
   -0.9140    8.0238   13.0450 S   0  0  0  0  0  0  0  0  0  0  0  0
    0.4325    7.8625   12.5853 O   0  0  0  0  0  0  0  0  0  0  0  0
   -1.7198    8.7468   12.1421 O   0  0  0  0  0  0  0  0  0  0  0  0
   -0.8782    8.7364   14.4794 N   0  0  0  0  0  0  0  0  0  0  0  0
   -0.2901    8.1953   15.1133 H   0  0  0  0  0  0  0  0  0  0  0  0
   -1.8246    8.7900   14.8561 H   0  0  0  0  0  0  0  0  0  0  0  0
   -4.3895    2.6492   14.2747 S   0  0  0  0  0  0  0  0  0  0  0  0
   -3.9501    1.3885   13.6623 O   0  0  0  0  0  0  0  0  0  0  0  0
   -5.2556    3.4049   13.3412 O   0  0  0  0  0  0  0  0  0  0  0  0
   -4.9684    0.9959   16.1519 C   0  0  0  0  0  0  0  0  0  0  0  0
   -5.7306    0.5788   17.2429 C   0  0  0  0  0  0  0  0  0  0  0  0
   -6.7852    1.3726   17.6756 C   0  0  0  0  0  0  0  0  0  0  0  0
   -7.1096    2.5658   17.0409 C   0  0  0  0  0  0  0  0  0  0  0  0
   -6.3402    2.9883   15.9571 C   0  0  0  0  0  0  0  0  0  0  0  0
   -5.2830    2.1975   15.5377 C   0  0  0  0  0  0  0  0  0  0  0  0
 17 18  2  0  0  0
 17 22  1  0  0  0
 18 19  1  0  0  0
 19 20  2  0  0  0
 20 21  1  0  0  0
 21 22  2  0  0  0
 22 14  1  0  0  0
 14 15  2  0  0  0
 14 16  2  0  0  0
 14  1  1  0  0  0
  1  3  1  0  0  0
  3  4  1  0  0  0
  3  5  2  0  0  0
  4  7  1  0  0  0
  5  6  1  0  0  0
  6  7  2  0  0  0
  7  8  1  0  0  0
  8  9  2  0  0  0
  8 10  2  0  0  0
  8 11  1  0  0  0
  1  2  1  0  0  0
 11 12  1  0  0  0
 11 13  1  0  0  0
M  END
> <minimizedAffinity>
-6.38324

$$$$
3DBU_D8W_A_301


 22 23  0  0  0  0  0  0  0  0999 V2000
   -3.2990    3.4383   14.7486 N   0  0  0  0  0  0  0  0  0  0  0  0
   -2.6545    3.0309   15.3714 H   0  0  0  0  0  0  0  0  0  0  0  0
   -3.1138    4.7559   14.4908 C   0  0  0  0  0  0  0  0  0  0  0  0
   -1.7678    5.3527   13.6187 S   0  0  0  0  0  0  0  0  0  0  0  0
   -3.9655    5.7421   14.8604 N   0  0  0  0  0  0  0  0  0  0  0  0
   -3.5236    7.0288   14.4387 N   0  0  0  0  0  0  0  0  0  0  0  0
   -2.3621    6.9645   13.7524 C   0  0  0  0  0  0  0  0  0  0  0  0
   -1.7063    8.2194   12.8853 S   0  0  0  0  0  0  0  0  0  0  0  0
   -2.4633    9.3858   13.2268 O   0  0  0  0  0  0  0  0  0  0  0  0
   -0.3357    8.3453   13.1899 O   0  0  0  0  0  0  0  0  0  0  0  0
   -1.9220    7.9129   11.3277 N   0  0  0  0  0  0  0  0  0  0  0  0
   -2.9196    7.8264   11.1331 H   0  0  0  0  0  0  0  0  0  0  0  0
   -1.4514    7.0413   11.0843 H   0  0  0  0  0  0  0  0  0  0  0  0
   -4.3582    2.5149   14.2101 S   0  0  0  0  0  0  0  0  0  0  0  0
   -3.9115    1.2459   13.6205 O   0  0  0  0  0  0  0  0  0  0  0  0
   -5.2189    3.2541   13.2585 O   0  0  0  0  0  0  0  0  0  0  0  0
   -6.2700    2.9426   15.8697 C   0  0  0  0  0  0  0  0  0  0  0  0
   -7.0606    2.5934   16.9644 C   0  0  0  0  0  0  0  0  0  0  0  0
   -6.8083    1.4001   17.6290 C   0  0  0  0  0  0  0  0  0  0  0  0
   -5.7792    0.5507   17.2400 C   0  0  0  0  0  0  0  0  0  0  0  0
   -4.9960    0.8946   16.1384 C   0  0  0  0  0  0  0  0  0  0  0  0
   -5.2601    2.0807   15.4732 C   0  0  0  0  0  0  0  0  0  0  0  0
 17 18  2  0  0  0
 17 22  1  0  0  0
 18 19  1  0  0  0
 19 20  2  0  0  0
 20 21  1  0  0  0
 21 22  2  0  0  0
 22 14  1  0  0  0
 14 15  2  0  0  0
 14 16  2  0  0  0
 14  1  1  0  0  0
  1  3  1  0  0  0
  3  4  1  0  0  0
  3  5  2  0  0  0
  4  7  1  0  0  0
  5  6  1  0  0  0
  6  7  2  0  0  0
  7  8  1  0  0  0
  8  9  2  0  0  0
  8 10  2  0  0  0
  8 11  1  0  0  0
  1  2  1  0  0  0
 11 12  1  0  0  0
 11 13  1  0  0  0
M  END
> <minimizedAffinity>
-6.31797

$$$$
3DBU_D8W_A_301


 22 23  0  0  0  0  0  0  0  0999 V2000
   -5.1006    3.8150   13.6450 N   0  0  0  0  0  0  0  0  0  0  0  0
   -6.0702    3.7321   13.7946 H   0  0  0  0  0  0  0  0  0  0  0  0
   -4.7245    4.7458   12.7346 C   0  0  0  0  0  0  0  0  0  0  0  0
   -5.3085    6.3543   12.7535 S   0  0  0  0  0  0  0  0  0  0  0  0
   -3.8386    4.5321   11.7326 N   0  0  0  0  0  0  0  0  0  0  0  0
   -3.6215    5.6960   10.9408 N   0  0  0  0  0  0  0  0  0  0  0  0
   -4.3402    6.7502   11.3843 C   0  0  0  0  0  0  0  0  0  0  0  0
   -4.1282    8.3176   10.8795 S   0  0  0  0  0  0  0  0  0  0  0  0
   -3.5190    8.2467    9.5856 O   0  0  0  0  0  0  0  0  0  0  0  0
   -5.3688    8.9870   10.8667 O   0  0  0  0  0  0  0  0  0  0  0  0
   -3.1030    9.0287   11.8844 N   0  0  0  0  0  0  0  0  0  0  0  0
   -2.2151    8.5269   11.8757 H   0  0  0  0  0  0  0  0  0  0  0  0
   -3.4900    9.0188   12.8282 H   0  0  0  0  0  0  0  0  0  0  0  0
   -4.2342    2.8911   14.4576 S   0  0  0  0  0  0  0  0  0  0  0  0
   -3.1170    3.4910   15.1988 O   0  0  0  0  0  0  0  0  0  0  0  0
   -3.7523    1.7851   13.5989 O   0  0  0  0  0  0  0  0  0  0  0  0
   -6.3258    2.9771   15.9443 C   0  0  0  0  0  0  0  0  0  0  0  0
   -7.1647    2.4615   16.9320 C   0  0  0  0  0  0  0  0  0  0  0  0
   -6.8327    1.2590   17.5430 C   0  0  0  0  0  0  0  0  0  0  0  0
   -5.6783    0.5624   17.2052 C   0  0  0  0  0  0  0  0  0  0  0  0
   -4.8454    1.0724   16.2095 C   0  0  0  0  0  0  0  0  0  0  0  0
   -5.1883    2.2663   15.5964 C   0  0  0  0  0  0  0  0  0  0  0  0
 17 18  2  0  0  0
 17 22  1  0  0  0
 18 19  1  0  0  0
 19 20  2  0  0  0
 20 21  1  0  0  0
 21 22  2  0  0  0
 22 14  1  0  0  0
 14 15  2  0  0  0
 14 16  2  0  0  0
 14  1  1  0  0  0
  1  3  1  0  0  0
  3  4  1  0  0  0
  3  5  2  0  0  0
  4  7  1  0  0  0
  5  6  1  0  0  0
  6  7  2  0  0  0
  7  8  1  0  0  0
  8  9  2  0  0  0
  8 10  2  0  0  0
  8 11  1  0  0  0
  1  2  1  0  0  0
 11 12  1  0  0  0
 11 13  1  0  0  0
M  END
> <minimizedAffinity>
-6.01163

$$$$
