4Y2Q_49N_A_602


 17 18  0  0  0  0  0  0  0  0999 V2000
  -17.0822  -11.4147   73.0366 C   0  0  0  0  0  0  0  0  0  0  0  0
  -17.1258  -12.3705   72.0467 C   0  0  0  0  0  0  0  0  0  0  0  0
  -17.1465  -10.0995   72.6280 C   0  0  0  0  0  0  0  0  0  0  0  0
  -17.2396  -11.9796   70.7267 C   0  0  0  0  0  0  0  0  0  0  0  0
  -17.3202  -10.6284   70.3924 C   0  0  0  0  0  0  0  0  0  0  0  0
  -17.2677   -9.6945   71.3527 N   0  0  0  0  0  0  0  0  0  0  0  0
  -18.6535  -10.3696   66.9770 C   0  0  0  0  0  0  0  0  0  0  0  0
  -16.5998   -8.9853   67.1045 C   0  0  0  0  0  0  0  0  0  0  0  0
  -18.8104  -10.2636   68.4896 C   0  0  0  0  0  0  0  0  0  0  0  0
  -16.7680   -9.0148   68.6314 C   0  0  0  0  0  0  0  0  0  0  0  0
  -17.8578   -9.2506   66.3959 N   0  0  0  0  0  0  0  0  0  0  0  0
  -17.4467  -10.2455   69.0093 N   0  0  0  0  0  0  0  0  0  0  0  0
  -18.4264   -8.4043   66.4228 H   0  0  0  0  0  0  0  0  0  0  0  0
  -17.2948  -13.0687   69.7050 C   0  0  0  0  0  0  0  0  0  0  0  0
  -16.7946  -14.2037   70.2088 F   0  0  0  0  0  0  0  0  0  0  0  0
  -18.5301  -13.3741   69.2663 F   0  0  0  0  0  0  0  0  0  0  0  0
  -16.6359  -12.8406   68.5457 F   0  0  0  0  0  0  0  0  0  0  0  0
 11  7  1  0  0  0
 11  8  1  0  0  0
  7  9  1  0  0  0
  8 10  1  0  0  0
 17 14  1  0  0  0
  9 12  1  0  0  0
 10 12  1  0  0  0
 12  5  1  0  0  0
 16 14  1  0  0  0
 14 15  1  0  0  0
 14  4  1  0  0  0
  5  4  1  0  0  0
  5  6  2  0  0  0
  4  2  2  0  0  0
  6  3  1  0  0  0
  2  1  1  0  0  0
  3  1  2  0  0  0
 11 13  1  0  0  0
M  END
> <minimizedAffinity>
-7.54079

$$$$
4Y2Q_49N_A_602


 17 18  0  0  0  0  0  0  0  0999 V2000
  -17.2058  -10.0509   69.3005 C   0  0  0  0  0  0  0  0  0  0  0  0
  -17.2432  -11.1091   70.1804 C   0  0  0  0  0  0  0  0  0  0  0  0
  -16.6897   -8.8663   69.7812 C   0  0  0  0  0  0  0  0  0  0  0  0
  -16.7655  -10.9434   71.4659 C   0  0  0  0  0  0  0  0  0  0  0  0
  -16.2385   -9.7185   71.8735 C   0  0  0  0  0  0  0  0  0  0  0  0
  -16.2098   -8.6830   71.0227 N   0  0  0  0  0  0  0  0  0  0  0  0
  -13.8871   -9.4678   74.6873 C   0  0  0  0  0  0  0  0  0  0  0  0
  -16.1855   -9.2214   75.5855 C   0  0  0  0  0  0  0  0  0  0  0  0
  -14.3852   -9.0349   73.3132 C   0  0  0  0  0  0  0  0  0  0  0  0
  -16.6283   -8.8977   74.1503 C   0  0  0  0  0  0  0  0  0  0  0  0
  -14.7532   -8.9807   75.7989 N   0  0  0  0  0  0  0  0  0  0  0  0
  -15.7387   -9.5724   73.2168 N   0  0  0  0  0  0  0  0  0  0  0  0
  -14.6081   -7.9764   75.9027 H   0  0  0  0  0  0  0  0  0  0  0  0
  -16.8239  -12.1361   72.3642 C   0  0  0  0  0  0  0  0  0  0  0  0
  -16.9334  -13.2573   71.6407 F   0  0  0  0  0  0  0  0  0  0  0  0
  -15.7446  -12.3093   73.1496 F   0  0  0  0  0  0  0  0  0  0  0  0
  -17.8318  -12.1618   73.2661 F   0  0  0  0  0  0  0  0  0  0  0  0
 11  7  1  0  0  0
 11  8  1  0  0  0
  7  9  1  0  0  0
  8 10  1  0  0  0
 17 14  1  0  0  0
  9 12  1  0  0  0
 10 12  1  0  0  0
 12  5  1  0  0  0
 16 14  1  0  0  0
 14 15  1  0  0  0
 14  4  1  0  0  0
  5  4  1  0  0  0
  5  6  2  0  0  0
  4  2  2  0  0  0
  6  3  1  0  0  0
  2  1  1  0  0  0
  3  1  2  0  0  0
 11 13  1  0  0  0
M  END
> <minimizedAffinity>
-7.31882

$$$$
4Y2Q_49N_A_602


 17 18  0  0  0  0  0  0  0  0999 V2000
  -15.9912   -7.0796   76.3263 C   0  0  0  0  0  0  0  0  0  0  0  0
  -14.9285   -7.4801   75.5481 C   0  0  0  0  0  0  0  0  0  0  0  0
  -17.2088   -7.6686   76.0589 C   0  0  0  0  0  0  0  0  0  0  0  0
  -15.1228   -8.4351   74.5691 C   0  0  0  0  0  0  0  0  0  0  0  0
  -16.3816   -9.0011   74.3713 C   0  0  0  0  0  0  0  0  0  0  0  0
  -17.4209   -8.6062   75.1202 N   0  0  0  0  0  0  0  0  0  0  0  0
  -16.7800  -12.2854   72.7699 C   0  0  0  0  0  0  0  0  0  0  0  0
  -16.8751  -10.5527   70.9982 C   0  0  0  0  0  0  0  0  0  0  0  0
  -17.1819  -11.2400   73.8040 C   0  0  0  0  0  0  0  0  0  0  0  0
  -17.1716   -9.5387   72.1138 C   0  0  0  0  0  0  0  0  0  0  0  0
  -17.2080  -11.9285   71.3869 N   0  0  0  0  0  0  0  0  0  0  0  0
  -16.5577  -10.0014   73.3496 N   0  0  0  0  0  0  0  0  0  0  0  0
  -18.2194  -12.0445   71.3237 H   0  0  0  0  0  0  0  0  0  0  0  0
  -13.9242   -8.8331   73.7704 C   0  0  0  0  0  0  0  0  0  0  0  0
  -12.8333   -8.2045   74.2256 F   0  0  0  0  0  0  0  0  0  0  0  0
  -13.6314  -10.1465   73.8013 F   0  0  0  0  0  0  0  0  0  0  0  0
  -13.9793   -8.5912   72.4406 F   0  0  0  0  0  0  0  0  0  0  0  0
 11  7  1  0  0  0
 11  8  1  0  0  0
  7  9  1  0  0  0
  8 10  1  0  0  0
 17 14  1  0  0  0
  9 12  1  0  0  0
 10 12  1  0  0  0
 12  5  1  0  0  0
 16 14  1  0  0  0
 14 15  1  0  0  0
 14  4  1  0  0  0
  5  4  1  0  0  0
  5  6  2  0  0  0
  4  2  2  0  0  0
  6  3  1  0  0  0
  2  1  1  0  0  0
  3  1  2  0  0  0
 11 13  1  0  0  0
M  END
> <minimizedAffinity>
-7.14140

$$$$
4Y2Q_49N_A_602


 17 18  0  0  0  0  0  0  0  0999 V2000
  -17.4629  -12.3183   72.0628 C   0  0  0  0  0  0  0  0  0  0  0  0
  -16.8014  -11.2480   71.5041 C   0  0  0  0  0  0  0  0  0  0  0  0
  -17.5828  -12.3213   73.4363 C   0  0  0  0  0  0  0  0  0  0  0  0
  -16.3108  -10.2482   72.3213 C   0  0  0  0  0  0  0  0  0  0  0  0
  -16.4893  -10.3110   73.7027 C   0  0  0  0  0  0  0  0  0  0  0  0
  -17.1239  -11.3567   74.2513 N   0  0  0  0  0  0  0  0  0  0  0  0
  -16.3661   -7.2454   75.7268 C   0  0  0  0  0  0  0  0  0  0  0  0
  -14.1056   -8.2653   75.7429 C   0  0  0  0  0  0  0  0  0  0  0  0
  -16.9686   -8.6032   75.3846 C   0  0  0  0  0  0  0  0  0  0  0  0
  -14.7769   -9.5724   75.2938 C   0  0  0  0  0  0  0  0  0  0  0  0
  -15.0435   -7.3518   76.4068 N   0  0  0  0  0  0  0  0  0  0  0  0
  -15.9760   -9.2521   74.5338 N   0  0  0  0  0  0  0  0  0  0  0  0
  -15.1975   -7.6852   77.3584 H   0  0  0  0  0  0  0  0  0  0  0  0
  -15.6154   -9.1098   71.6481 C   0  0  0  0  0  0  0  0  0  0  0  0
  -15.6029   -9.2923   70.3218 F   0  0  0  0  0  0  0  0  0  0  0  0
  -16.1768   -7.9029   71.8479 F   0  0  0  0  0  0  0  0  0  0  0  0
  -14.3332   -8.8850   72.0163 F   0  0  0  0  0  0  0  0  0  0  0  0
 11  7  1  0  0  0
 11  8  1  0  0  0
  7  9  1  0  0  0
  8 10  1  0  0  0
 17 14  1  0  0  0
  9 12  1  0  0  0
 10 12  1  0  0  0
 12  5  1  0  0  0
 16 14  1  0  0  0
 14 15  1  0  0  0
 14  4  1  0  0  0
  5  4  1  0  0  0
  5  6  2  0  0  0
  4  2  2  0  0  0
  6  3  1  0  0  0
  2  1  1  0  0  0
  3  1  2  0  0  0
 11 13  1  0  0  0
M  END
> <minimizedAffinity>
-6.58393

$$$$
4Y2Q_49N_A_602


 17 18  0  0  0  0  0  0  0  0999 V2000
  -15.8053   -9.2405   72.7778 C   0  0  0  0  0  0  0  0  0  0  0  0
  -16.3730  -10.4898   72.6682 C   0  0  0  0  0  0  0  0  0  0  0  0
  -15.7489   -8.4848   71.6259 C   0  0  0  0  0  0  0  0  0  0  0  0
  -16.8566  -10.9136   71.4455 C   0  0  0  0  0  0  0  0  0  0  0  0
  -16.7825  -10.0832   70.3279 C   0  0  0  0  0  0  0  0  0  0  0  0
  -16.2211   -8.8700   70.4285 N   0  0  0  0  0  0  0  0  0  0  0  0
  -18.8461  -10.2758   67.2925 C   0  0  0  0  0  0  0  0  0  0  0  0
  -17.1959  -12.1255   67.2156 C   0  0  0  0  0  0  0  0  0  0  0  0
  -17.9370   -9.5140   68.2500 C   0  0  0  0  0  0  0  0  0  0  0  0
  -16.3879  -11.3446   68.2633 C   0  0  0  0  0  0  0  0  0  0  0  0
  -18.1087  -11.2640   66.4542 N   0  0  0  0  0  0  0  0  0  0  0  0
  -17.3010  -10.5440   69.0653 N   0  0  0  0  0  0  0  0  0  0  0  0
  -17.5638  -10.7530   65.7597 H   0  0  0  0  0  0  0  0  0  0  0  0
  -17.4719  -12.2746   71.4006 C   0  0  0  0  0  0  0  0  0  0  0  0
  -17.8994  -12.6313   72.6181 F   0  0  0  0  0  0  0  0  0  0  0  0
  -18.5389  -12.3892   70.5881 F   0  0  0  0  0  0  0  0  0  0  0  0
  -16.6792  -13.2796   70.9628 F   0  0  0  0  0  0  0  0  0  0  0  0
 11  7  1  0  0  0
 11  8  1  0  0  0
  7  9  1  0  0  0
  8 10  1  0  0  0
 17 14  1  0  0  0
  9 12  1  0  0  0
 10 12  1  0  0  0
 12  5  1  0  0  0
 16 14  1  0  0  0
 14 15  1  0  0  0
 14  4  1  0  0  0
  5  4  1  0  0  0
  5  6  2  0  0  0
  4  2  2  0  0  0
  6  3  1  0  0  0
  2  1  1  0  0  0
  3  1  2  0  0  0
 11 13  1  0  0  0
M  END
> <minimizedAffinity>
-6.58339

$$$$
4Y2Q_49N_A_602


 17 18  0  0  0  0  0  0  0  0999 V2000
  -17.0309  -10.6855   73.7315 C   0  0  0  0  0  0  0  0  0  0  0  0
  -16.7215   -9.8091   72.7158 C   0  0  0  0  0  0  0  0  0  0  0  0
  -17.4218  -11.9530   73.3554 C   0  0  0  0  0  0  0  0  0  0  0  0
  -16.8043  -10.2310   71.4031 C   0  0  0  0  0  0  0  0  0  0  0  0
  -17.1883  -11.5370   71.1015 C   0  0  0  0  0  0  0  0  0  0  0  0
  -17.5002  -12.3901   72.0874 N   0  0  0  0  0  0  0  0  0  0  0  0
  -16.5874  -13.4679   68.0323 C   0  0  0  0  0  0  0  0  0  0  0  0
  -18.1784  -11.6442   67.4908 C   0  0  0  0  0  0  0  0  0  0  0  0
  -16.9886  -13.3726   69.4998 C   0  0  0  0  0  0  0  0  0  0  0  0
  -18.4495  -11.5378   68.9993 C   0  0  0  0  0  0  0  0  0  0  0  0
  -17.6391  -12.9549   67.1083 N   0  0  0  0  0  0  0  0  0  0  0  0
  -17.2594  -11.9562   69.7250 N   0  0  0  0  0  0  0  0  0  0  0  0
  -18.4072  -13.6258   67.0917 H   0  0  0  0  0  0  0  0  0  0  0  0
  -16.4417   -9.2329   70.3517 C   0  0  0  0  0  0  0  0  0  0  0  0
  -15.9311   -8.1306   70.9143 F   0  0  0  0  0  0  0  0  0  0  0  0
  -15.5216   -9.6524   69.4633 F   0  0  0  0  0  0  0  0  0  0  0  0
  -17.4437   -8.8210   69.5415 F   0  0  0  0  0  0  0  0  0  0  0  0
 11  7  1  0  0  0
 11  8  1  0  0  0
  7  9  1  0  0  0
  8 10  1  0  0  0
 17 14  1  0  0  0
  9 12  1  0  0  0
 10 12  1  0  0  0
 12  5  1  0  0  0
 16 14  1  0  0  0
 14 15  1  0  0  0
 14  4  1  0  0  0
  5  4  1  0  0  0
  5  6  2  0  0  0
  4  2  2  0  0  0
  6  3  1  0  0  0
  2  1  1  0  0  0
  3  1  2  0  0  0
 11 13  1  0  0  0
M  END
> <minimizedAffinity>
-6.27669

$$$$
4Y2Q_49N_A_602


 17 18  0  0  0  0  0  0  0  0999 V2000
  -17.3261  -10.8917   69.2573 C   0  0  0  0  0  0  0  0  0  0  0  0
  -16.7417   -9.7530   69.7645 C   0  0  0  0  0  0  0  0  0  0  0  0
  -17.5337  -11.9266   70.1444 C   0  0  0  0  0  0  0  0  0  0  0  0
  -16.4089   -9.6966   71.1040 C   0  0  0  0  0  0  0  0  0  0  0  0
  -16.6691  -10.7780   71.9447 C   0  0  0  0  0  0  0  0  0  0  0  0
  -17.2286  -11.8923   71.4524 N   0  0  0  0  0  0  0  0  0  0  0  0
  -17.0087  -10.7316   75.6043 C   0  0  0  0  0  0  0  0  0  0  0  0
  -14.6079  -10.4423   75.0540 C   0  0  0  0  0  0  0  0  0  0  0  0
  -17.2347  -11.3827   74.2446 C   0  0  0  0  0  0  0  0  0  0  0  0
  -14.9378  -11.0095   73.6647 C   0  0  0  0  0  0  0  0  0  0  0  0
  -15.5953  -10.8315   76.0682 N   0  0  0  0  0  0  0  0  0  0  0  0
  -16.3206  -10.6926   73.3400 N   0  0  0  0  0  0  0  0  0  0  0  0
  -15.4137  -11.7979   76.3392 H   0  0  0  0  0  0  0  0  0  0  0  0
  -15.7903   -8.4264   71.5905 C   0  0  0  0  0  0  0  0  0  0  0  0
  -15.9771   -7.4470   70.6970 F   0  0  0  0  0  0  0  0  0  0  0  0
  -16.2849   -7.9625   72.7532 F   0  0  0  0  0  0  0  0  0  0  0  0
  -14.4627   -8.4630   71.8474 F   0  0  0  0  0  0  0  0  0  0  0  0
 11  7  1  0  0  0
 11  8  1  0  0  0
  7  9  1  0  0  0
  8 10  1  0  0  0
 17 14  1  0  0  0
  9 12  1  0  0  0
 10 12  1  0  0  0
 12  5  1  0  0  0
 16 14  1  0  0  0
 14 15  1  0  0  0
 14  4  1  0  0  0
  5  4  1  0  0  0
  5  6  2  0  0  0
  4  2  2  0  0  0
  6  3  1  0  0  0
  2  1  1  0  0  0
  3  1  2  0  0  0
 11 13  1  0  0  0
M  END
> <minimizedAffinity>
-6.24517

$$$$
4Y2Q_49N_A_602


 17 18  0  0  0  0  0  0  0  0999 V2000
  -17.2124   -9.6149   67.7396 C   0  0  0  0  0  0  0  0  0  0  0  0
  -17.4266  -10.8307   68.3489 C   0  0  0  0  0  0  0  0  0  0  0  0
  -16.7277   -8.6010   68.5383 C   0  0  0  0  0  0  0  0  0  0  0  0
  -17.1439  -10.9784   69.6929 C   0  0  0  0  0  0  0  0  0  0  0  0
  -16.6356   -9.9107   70.4315 C   0  0  0  0  0  0  0  0  0  0  0  0
  -16.4354   -8.7224   69.8441 N   0  0  0  0  0  0  0  0  0  0  0  0
  -14.7256  -10.3160   73.5455 C   0  0  0  0  0  0  0  0  0  0  0  0
  -17.1385  -10.3470   74.1174 C   0  0  0  0  0  0  0  0  0  0  0  0
  -15.0476   -9.5668   72.2576 C   0  0  0  0  0  0  0  0  0  0  0  0
  -17.3910   -9.6873   72.7530 C   0  0  0  0  0  0  0  0  0  0  0  0
  -15.7671  -10.1372   74.5973 N   0  0  0  0  0  0  0  0  0  0  0  0
  -16.3407  -10.0913   71.8301 N   0  0  0  0  0  0  0  0  0  0  0  0
  -15.6960   -9.1871   74.9616 H   0  0  0  0  0  0  0  0  0  0  0  0
  -17.3871  -12.3278   70.2870 C   0  0  0  0  0  0  0  0  0  0  0  0
  -18.6934  -12.5032   70.5219 F   0  0  0  0  0  0  0  0  0  0  0  0
  -17.0097  -13.3645   69.5159 F   0  0  0  0  0  0  0  0  0  0  0  0
  -16.7489  -12.5980   71.4489 F   0  0  0  0  0  0  0  0  0  0  0  0
 11  7  1  0  0  0
 11  8  1  0  0  0
  7  9  1  0  0  0
  8 10  1  0  0  0
 17 14  1  0  0  0
  9 12  1  0  0  0
 10 12  1  0  0  0
 12  5  1  0  0  0
 16 14  1  0  0  0
 14 15  1  0  0  0
 14  4  1  0  0  0
  5  4  1  0  0  0
  5  6  2  0  0  0
  4  2  2  0  0  0
  6  3  1  0  0  0
  2  1  1  0  0  0
  3  1  2  0  0  0
 11 13  1  0  0  0
M  END
> <minimizedAffinity>
-6.14755

$$$$
4Y2Q_49N_A_602


 17 18  0  0  0  0  0  0  0  0999 V2000
  -18.6023  -12.1366   67.8545 C   0  0  0  0  0  0  0  0  0  0  0  0
  -17.7076  -11.0903   67.8493 C   0  0  0  0  0  0  0  0  0  0  0  0
  -18.8377  -12.7415   69.0708 C   0  0  0  0  0  0  0  0  0  0  0  0
  -17.1110  -10.6981   69.0319 C   0  0  0  0  0  0  0  0  0  0  0  0
  -17.4156  -11.3465   70.2281 C   0  0  0  0  0  0  0  0  0  0  0  0
  -18.2785  -12.3723   70.2354 N   0  0  0  0  0  0  0  0  0  0  0  0
  -16.3377   -9.1730   72.9892 C   0  0  0  0  0  0  0  0  0  0  0  0
  -15.4622  -11.4525   73.4221 C   0  0  0  0  0  0  0  0  0  0  0  0
  -17.4186   -9.7660   72.0927 C   0  0  0  0  0  0  0  0  0  0  0  0
  -16.5119  -11.9616   72.4223 C   0  0  0  0  0  0  0  0  0  0  0  0
  -15.8157  -10.1462   73.9909 N   0  0  0  0  0  0  0  0  0  0  0  0
  -16.7869  -10.9141   71.4500 N   0  0  0  0  0  0  0  0  0  0  0  0
  -16.5315  -10.2890   74.7033 H   0  0  0  0  0  0  0  0  0  0  0  0
  -16.1606   -9.5475   68.9565 C   0  0  0  0  0  0  0  0  0  0  0  0
  -15.6037   -9.4842   67.7407 F   0  0  0  0  0  0  0  0  0  0  0  0
  -16.7132   -8.3391   69.1712 F   0  0  0  0  0  0  0  0  0  0  0  0
  -15.1411   -9.5495   69.8457 F   0  0  0  0  0  0  0  0  0  0  0  0
 11  7  1  0  0  0
 11  8  1  0  0  0
  7  9  1  0  0  0
  8 10  1  0  0  0
 17 14  1  0  0  0
  9 12  1  0  0  0
 10 12  1  0  0  0
 12  5  1  0  0  0
 16 14  1  0  0  0
 14 15  1  0  0  0
 14  4  1  0  0  0
  5  4  1  0  0  0
  5  6  2  0  0  0
  4  2  2  0  0  0
  6  3  1  0  0  0
  2  1  1  0  0  0
  3  1  2  0  0  0
 11 13  1  0  0  0
M  END
> <minimizedAffinity>
-6.11713

$$$$
4Y2Q_49N_A_602


 17 18  0  0  0  0  0  0  0  0999 V2000
  -15.7392   -8.4755   71.9653 C   0  0  0  0  0  0  0  0  0  0  0  0
  -16.0177   -8.1912   70.6474 C   0  0  0  0  0  0  0  0  0  0  0  0
  -16.0242   -9.7543   72.3946 C   0  0  0  0  0  0  0  0  0  0  0  0
  -16.5454   -9.1758   69.8349 C   0  0  0  0  0  0  0  0  0  0  0  0
  -16.7878  -10.4540   70.3366 C   0  0  0  0  0  0  0  0  0  0  0  0
  -16.5275  -10.7315   71.6220 N   0  0  0  0  0  0  0  0  0  0  0  0
  -17.1065  -12.7991   67.5244 C   0  0  0  0  0  0  0  0  0  0  0  0
  -19.1095  -13.0531   68.9645 C   0  0  0  0  0  0  0  0  0  0  0  0
  -16.3387  -12.2194   68.7068 C   0  0  0  0  0  0  0  0  0  0  0  0
  -18.3027  -12.3635   70.0753 C   0  0  0  0  0  0  0  0  0  0  0  0
  -18.2502  -13.6602   67.9408 N   0  0  0  0  0  0  0  0  0  0  0  0
  -17.3309  -11.4666   69.4677 N   0  0  0  0  0  0  0  0  0  0  0  0
  -17.8763  -14.5336   68.3120 H   0  0  0  0  0  0  0  0  0  0  0  0
  -16.8112   -8.8032   68.4124 C   0  0  0  0  0  0  0  0  0  0  0  0
  -16.6718   -7.4823   68.2446 F   0  0  0  0  0  0  0  0  0  0  0  0
  -15.9912   -9.3767   67.5121 F   0  0  0  0  0  0  0  0  0  0  0  0
  -18.0307   -9.1253   67.9233 F   0  0  0  0  0  0  0  0  0  0  0  0
 11  7  1  0  0  0
 11  8  1  0  0  0
  7  9  1  0  0  0
  8 10  1  0  0  0
 17 14  1  0  0  0
  9 12  1  0  0  0
 10 12  1  0  0  0
 12  5  1  0  0  0
 16 14  1  0  0  0
 14 15  1  0  0  0
 14  4  1  0  0  0
  5  4  1  0  0  0
  5  6  2  0  0  0
  4  2  2  0  0  0
  6  3  1  0  0  0
  2  1  1  0  0  0
  3  1  2  0  0  0
 11 13  1  0  0  0
M  END
> <minimizedAffinity>
-5.83604

$$$$
