1E1X_NW1_A_401


 22 23  0  0  0  0  0  0  0  0999 V2000
    0.6913   25.1846   10.4769 N   0  0  0  0  0  0  0  0  0  0  0  0
   -0.2992   26.0360   10.8545 C   0  0  0  0  0  0  0  0  0  0  0  0
   -1.0473   25.8419   12.1340 C   0  0  0  0  0  0  0  0  0  0  0  0
   -0.7039   24.7853   12.8718 C   0  0  0  0  0  0  0  0  0  0  0  0
   -1.2957   24.4995   13.9948 N   0  0  0  0  0  0  0  0  0  0  0  0
    0.3938   23.9477   12.3677 N   0  0  0  0  0  0  0  0  0  0  0  0
    1.0194   24.0967   11.2816 C   0  0  0  0  0  0  0  0  0  0  0  0
    1.9710   23.3079   10.8506 N   0  0  0  0  0  0  0  0  0  0  0  0
   -2.0299   25.0676   14.3228 H   0  0  0  0  0  0  0  0  0  0  0  0
   -1.0093   23.7153   14.5165 H   0  0  0  0  0  0  0  0  0  0  0  0
    2.4114   23.4927    9.9897 H   0  0  0  0  0  0  0  0  0  0  0  0
    2.2463   22.5298   11.3873 H   0  0  0  0  0  0  0  0  0  0  0  0
   -2.0974   26.8091   12.3908 N   0  0  0  0  0  0  0  0  0  0  0  0
   -3.2736   26.4112   12.3582 O   0  0  0  0  0  0  0  0  0  0  0  0
   -0.6011   27.0905    9.9904 O   0  0  0  0  0  0  0  0  0  0  0  0
    0.2522   27.1823    8.8173 C   0  0  0  0  0  0  0  0  0  0  0  0
    0.1818   28.6473    8.3800 C   0  0  0  0  0  0  0  0  0  0  0  0
   -0.0570   29.6108    9.5601 C   0  0  0  0  0  0  0  0  0  0  0  0
   -0.2278   31.0586    9.0116 C   0  0  0  0  0  0  0  0  0  0  0  0
    1.0714   31.4543    8.2297 C   0  0  0  0  0  0  0  0  0  0  0  0
    1.1581   30.5258    6.9865 C   0  0  0  0  0  0  0  0  0  0  0  0
    1.4067   29.0784    7.5256 C   0  0  0  0  0  0  0  0  0  0  0  0
  1  2  2  0  0  0
  1  7  1  0  0  0
  2 15  1  0  0  0
  2  3  1  0  0  0
 15 16  1  0  0  0
 16 17  1  0  0  0
 17 18  1  0  0  0
 17 22  1  0  0  0
 18 19  1  0  0  0
 19 20  1  0  0  0
 20 21  1  0  0  0
 21 22  1  0  0  0
  3 13  1  0  0  0
  3  4  2  0  0  0
 13 14  2  0  0  0
  4  5  1  0  0  0
  4  6  1  0  0  0
  6  7  2  0  0  0
  7  8  1  0  0  0
  5  9  1  0  0  0
  5 10  1  0  0  0
  8 11  1  0  0  0
  8 12  1  0  0  0
M  END
> <minimizedAffinity>
-8.12594

$$$$
1E1X_NW1_A_401


 22 23  0  0  0  0  0  0  0  0999 V2000
   -1.8672   26.4351   13.1783 N   0  0  0  0  0  0  0  0  0  0  0  0
   -1.2353   26.0005   12.0556 C   0  0  0  0  0  0  0  0  0  0  0  0
   -0.6395   24.6318   11.9777 C   0  0  0  0  0  0  0  0  0  0  0  0
   -0.7457   23.8715   13.0683 C   0  0  0  0  0  0  0  0  0  0  0  0
   -0.2495   22.6702   13.1295 N   0  0  0  0  0  0  0  0  0  0  0  0
   -1.4663   24.4451   14.2139 N   0  0  0  0  0  0  0  0  0  0  0  0
   -1.9585   25.6047   14.2922 C   0  0  0  0  0  0  0  0  0  0  0  0
   -2.5652   26.0918   15.3449 N   0  0  0  0  0  0  0  0  0  0  0  0
    0.2312   22.2962   12.3560 H   0  0  0  0  0  0  0  0  0  0  0  0
   -0.3548   22.1353   13.9493 H   0  0  0  0  0  0  0  0  0  0  0  0
   -2.9229   27.0088   15.3265 H   0  0  0  0  0  0  0  0  0  0  0  0
   -2.6638   25.5411   16.1551 H   0  0  0  0  0  0  0  0  0  0  0  0
    0.0301   24.3174   10.7299 N   0  0  0  0  0  0  0  0  0  0  0  0
   -0.3996   23.3597   10.0659 O   0  0  0  0  0  0  0  0  0  0  0  0
   -1.1509   26.8906   10.9831 O   0  0  0  0  0  0  0  0  0  0  0  0
    0.0235   27.7472   10.9913 C   0  0  0  0  0  0  0  0  0  0  0  0
    0.0308   28.4360    9.6246 C   0  0  0  0  0  0  0  0  0  0  0  0
    0.0161   29.9742    9.7324 C   0  0  0  0  0  0  0  0  0  0  0  0
   -0.0905   30.5859    8.3039 C   0  0  0  0  0  0  0  0  0  0  0  0
    1.1384   30.1030    7.4597 C   0  0  0  0  0  0  0  0  0  0  0  0
    0.9984   28.5651    7.2857 C   0  0  0  0  0  0  0  0  0  0  0  0
    1.1807   27.9357    8.7063 C   0  0  0  0  0  0  0  0  0  0  0  0
  1  2  2  0  0  0
  1  7  1  0  0  0
  2 15  1  0  0  0
  2  3  1  0  0  0
 15 16  1  0  0  0
 16 17  1  0  0  0
 17 18  1  0  0  0
 17 22  1  0  0  0
 18 19  1  0  0  0
 19 20  1  0  0  0
 20 21  1  0  0  0
 21 22  1  0  0  0
  3 13  1  0  0  0
  3  4  2  0  0  0
 13 14  2  0  0  0
  4  5  1  0  0  0
  4  6  1  0  0  0
  6  7  2  0  0  0
  7  8  1  0  0  0
  5  9  1  0  0  0
  5 10  1  0  0  0
  8 11  1  0  0  0
  8 12  1  0  0  0
M  END
> <minimizedAffinity>
-8.07874

$$$$
1E1X_NW1_A_401


 22 23  0  0  0  0  0  0  0  0999 V2000
   -0.1553   24.1324   11.4733 N   0  0  0  0  0  0  0  0  0  0  0  0
   -0.7921   25.3279   11.5911 C   0  0  0  0  0  0  0  0  0  0  0  0
   -1.4571   25.7336   12.8669 C   0  0  0  0  0  0  0  0  0  0  0  0
   -1.4069   24.8574   13.8712 C   0  0  0  0  0  0  0  0  0  0  0  0
   -1.9658   25.0876   15.0233 N   0  0  0  0  0  0  0  0  0  0  0  0
   -0.6746   23.6061   13.6289 N   0  0  0  0  0  0  0  0  0  0  0  0
   -0.1240   23.2505   12.5503 C   0  0  0  0  0  0  0  0  0  0  0  0
    0.4915   22.1104   12.3634 N   0  0  0  0  0  0  0  0  0  0  0  0
   -2.4538   25.9292   15.1743 H   0  0  0  0  0  0  0  0  0  0  0  0
   -1.9008   24.4201   15.7441 H   0  0  0  0  0  0  0  0  0  0  0  0
    0.8967   21.9072   11.4894 H   0  0  0  0  0  0  0  0  0  0  0  0
    0.5492   21.4561   13.0968 H   0  0  0  0  0  0  0  0  0  0  0  0
   -2.1234   27.0217   12.8361 N   0  0  0  0  0  0  0  0  0  0  0  0
   -1.4252   28.0397   12.9731 O   0  0  0  0  0  0  0  0  0  0  0  0
   -0.8140   26.1553   10.4666 O   0  0  0  0  0  0  0  0  0  0  0  0
    0.4650   26.3034    9.7921 C   0  0  0  0  0  0  0  0  0  0  0  0
    0.3180   27.5495    8.9158 C   0  0  0  0  0  0  0  0  0  0  0  0
    0.0436   28.8261    9.7361 C   0  0  0  0  0  0  0  0  0  0  0  0
   -0.2040   30.0163    8.7623 C   0  0  0  0  0  0  0  0  0  0  0  0
    1.0662   30.1999    7.8629 C   0  0  0  0  0  0  0  0  0  0  0  0
    1.1863   28.9298    6.9755 C   0  0  0  0  0  0  0  0  0  0  0  0
    1.5114   27.7404    7.9384 C   0  0  0  0  0  0  0  0  0  0  0  0
  1  2  2  0  0  0
  1  7  1  0  0  0
  2 15  1  0  0  0
  2  3  1  0  0  0
 15 16  1  0  0  0
 16 17  1  0  0  0
 17 18  1  0  0  0
 17 22  1  0  0  0
 18 19  1  0  0  0
 19 20  1  0  0  0
 20 21  1  0  0  0
 21 22  1  0  0  0
  3 13  1  0  0  0
  3  4  2  0  0  0
 13 14  2  0  0  0
  4  5  1  0  0  0
  4  6  1  0  0  0
  6  7  2  0  0  0
  7  8  1  0  0  0
  5  9  1  0  0  0
  5 10  1  0  0  0
  8 11  1  0  0  0
  8 12  1  0  0  0
M  END
> <minimizedAffinity>
-7.77362

$$$$
1E1X_NW1_A_401


 22 23  0  0  0  0  0  0  0  0999 V2000
   -1.2813   26.5977   11.8085 N   0  0  0  0  0  0  0  0  0  0  0  0
   -0.6830   26.1930   10.6566 C   0  0  0  0  0  0  0  0  0  0  0  0
   -0.1740   24.7972   10.4922 C   0  0  0  0  0  0  0  0  0  0  0  0
   -0.3222   23.9808   11.5363 C   0  0  0  0  0  0  0  0  0  0  0  0
    0.0985   22.7497   11.5216 N   0  0  0  0  0  0  0  0  0  0  0  0
   -1.0003   24.5281   12.7201 N   0  0  0  0  0  0  0  0  0  0  0  0
   -1.4189   25.7091   12.8716 C   0  0  0  0  0  0  0  0  0  0  0  0
   -1.9891   26.1688   13.9566 N   0  0  0  0  0  0  0  0  0  0  0  0
    0.5513   22.3937   10.7232 H   0  0  0  0  0  0  0  0  0  0  0  0
   -0.0361   22.1740   12.3089 H   0  0  0  0  0  0  0  0  0  0  0  0
   -2.2891   27.1057   13.9959 H   0  0  0  0  0  0  0  0  0  0  0  0
   -2.1180   25.5776   14.7332 H   0  0  0  0  0  0  0  0  0  0  0  0
    0.4688   24.5175    9.2222 N   0  0  0  0  0  0  0  0  0  0  0  0
   -0.0136   23.6193    8.5129 O   0  0  0  0  0  0  0  0  0  0  0  0
   -0.5483   27.1390    9.6384 O   0  0  0  0  0  0  0  0  0  0  0  0
   -0.0928   28.4478   10.0770 C   0  0  0  0  0  0  0  0  0  0  0  0
    0.8394   28.9435    8.9690 C   0  0  0  0  0  0  0  0  0  0  0  0
    1.1372   27.8610    7.9119 C   0  0  0  0  0  0  0  0  0  0  0  0
    2.1771   28.4141    6.8927 C   0  0  0  0  0  0  0  0  0  0  0  0
    1.5825   29.6972    6.2172 C   0  0  0  0  0  0  0  0  0  0  0  0
    1.4448   30.7766    7.3268 C   0  0  0  0  0  0  0  0  0  0  0  0
    0.3456   30.2643    8.3152 C   0  0  0  0  0  0  0  0  0  0  0  0
  1  2  2  0  0  0
  1  7  1  0  0  0
  2 15  1  0  0  0
  2  3  1  0  0  0
 15 16  1  0  0  0
 16 17  1  0  0  0
 17 18  1  0  0  0
 17 22  1  0  0  0
 18 19  1  0  0  0
 19 20  1  0  0  0
 20 21  1  0  0  0
 21 22  1  0  0  0
  3 13  1  0  0  0
  3  4  2  0  0  0
 13 14  2  0  0  0
  4  5  1  0  0  0
  4  6  1  0  0  0
  6  7  2  0  0  0
  7  8  1  0  0  0
  5  9  1  0  0  0
  5 10  1  0  0  0
  8 11  1  0  0  0
  8 12  1  0  0  0
M  END
> <minimizedAffinity>
-7.70506

$$$$
1E1X_NW1_A_401


 22 23  0  0  0  0  0  0  0  0999 V2000
    1.3101   25.1822    9.9746 N   0  0  0  0  0  0  0  0  0  0  0  0
    0.1306   25.8082   10.2306 C   0  0  0  0  0  0  0  0  0  0  0  0
   -0.6805   25.4763   11.4416 C   0  0  0  0  0  0  0  0  0  0  0  0
   -0.1957   24.5267   12.2429 C   0  0  0  0  0  0  0  0  0  0  0  0
   -0.8202   24.1365   13.3156 N   0  0  0  0  0  0  0  0  0  0  0  0
    1.0975   23.9354   11.8703 N   0  0  0  0  0  0  0  0  0  0  0  0
    1.7801   24.1997   10.8421 C   0  0  0  0  0  0  0  0  0  0  0  0
    2.9137   23.6259   10.5272 N   0  0  0  0  0  0  0  0  0  0  0  0
   -1.6858   24.5396   13.5553 H   0  0  0  0  0  0  0  0  0  0  0  0
   -0.4271   23.4381   13.8874 H   0  0  0  0  0  0  0  0  0  0  0  0
    3.3868   23.8888    9.7049 H   0  0  0  0  0  0  0  0  0  0  0  0
    3.2932   22.9314   11.1128 H   0  0  0  0  0  0  0  0  0  0  0  0
   -1.9306   26.2011   11.5680 N   0  0  0  0  0  0  0  0  0  0  0  0
   -2.2240   26.6621   12.6834 O   0  0  0  0  0  0  0  0  0  0  0  0
   -0.3013   26.7628    9.3076 O   0  0  0  0  0  0  0  0  0  0  0  0
    0.5682   26.9357    8.1556 C   0  0  0  0  0  0  0  0  0  0  0  0
    0.9782   28.4101    8.1764 C   0  0  0  0  0  0  0  0  0  0  0  0
    1.3721   28.9389    6.7824 C   0  0  0  0  0  0  0  0  0  0  0  0
    1.8810   30.4048    6.9167 C   0  0  0  0  0  0  0  0  0  0  0  0
    0.7358   31.2777    7.5353 C   0  0  0  0  0  0  0  0  0  0  0  0
    0.5006   30.7647    8.9833 C   0  0  0  0  0  0  0  0  0  0  0  0
   -0.0836   29.3190    8.8564 C   0  0  0  0  0  0  0  0  0  0  0  0
  1  2  2  0  0  0
  1  7  1  0  0  0
  2 15  1  0  0  0
  2  3  1  0  0  0
 15 16  1  0  0  0
 16 17  1  0  0  0
 17 18  1  0  0  0
 17 22  1  0  0  0
 18 19  1  0  0  0
 19 20  1  0  0  0
 20 21  1  0  0  0
 21 22  1  0  0  0
  3 13  1  0  0  0
  3  4  2  0  0  0
 13 14  2  0  0  0
  4  5  1  0  0  0
  4  6  1  0  0  0
  6  7  2  0  0  0
  7  8  1  0  0  0
  5  9  1  0  0  0
  5 10  1  0  0  0
  8 11  1  0  0  0
  8 12  1  0  0  0
M  END
> <minimizedAffinity>
-7.58730

$$$$
1E1X_NW1_A_401


 22 23  0  0  0  0  0  0  0  0999 V2000
   -1.3296   25.7616   13.4933 N   0  0  0  0  0  0  0  0  0  0  0  0
   -0.5874   24.9204   12.7251 C   0  0  0  0  0  0  0  0  0  0  0  0
   -0.4787   23.4645   13.0461 C   0  0  0  0  0  0  0  0  0  0  0  0
   -1.1313   23.0418   14.1298 C   0  0  0  0  0  0  0  0  0  0  0  0
   -1.0964   21.8020   14.5229 N   0  0  0  0  0  0  0  0  0  0  0  0
   -1.9142   24.0419   14.8696 N   0  0  0  0  0  0  0  0  0  0  0  0
   -1.9983   25.2750   14.6134 C   0  0  0  0  0  0  0  0  0  0  0  0
   -2.6809   26.1419   15.3177 N   0  0  0  0  0  0  0  0  0  0  0  0
   -0.5686   21.1407   14.0195 H   0  0  0  0  0  0  0  0  0  0  0  0
   -1.5978   21.5252   15.3236 H   0  0  0  0  0  0  0  0  0  0  0  0
   -2.6964   27.0895   15.0512 H   0  0  0  0  0  0  0  0  0  0  0  0
   -3.1787   25.8464   16.1140 H   0  0  0  0  0  0  0  0  0  0  0  0
    0.3722   22.6959   12.1578 N   0  0  0  0  0  0  0  0  0  0  0  0
    0.9816   21.7242   12.6345 O   0  0  0  0  0  0  0  0  0  0  0  0
    0.0831   25.4744   11.6328 O   0  0  0  0  0  0  0  0  0  0  0  0
   -0.6464   26.5199   10.9345 C   0  0  0  0  0  0  0  0  0  0  0  0
    0.3807   27.1841   10.0146 C   0  0  0  0  0  0  0  0  0  0  0  0
    1.3003   26.1641    9.3131 C   0  0  0  0  0  0  0  0  0  0  0  0
    2.3802   26.9294    8.4920 C   0  0  0  0  0  0  0  0  0  0  0  0
    1.6578   27.8376    7.4388 C   0  0  0  0  0  0  0  0  0  0  0  0
    0.8678   28.9168    8.2301 C   0  0  0  0  0  0  0  0  0  0  0  0
   -0.2687   28.1653    8.9989 C   0  0  0  0  0  0  0  0  0  0  0  0
  1  2  2  0  0  0
  1  7  1  0  0  0
  2 15  1  0  0  0
  2  3  1  0  0  0
 15 16  1  0  0  0
 16 17  1  0  0  0
 17 18  1  0  0  0
 17 22  1  0  0  0
 18 19  1  0  0  0
 19 20  1  0  0  0
 20 21  1  0  0  0
 21 22  1  0  0  0
  3 13  1  0  0  0
  3  4  2  0  0  0
 13 14  2  0  0  0
  4  5  1  0  0  0
  4  6  1  0  0  0
  6  7  2  0  0  0
  7  8  1  0  0  0
  5  9  1  0  0  0
  5 10  1  0  0  0
  8 11  1  0  0  0
  8 12  1  0  0  0
M  END
> <minimizedAffinity>
-7.51650

$$$$
1E1X_NW1_A_401


 22 23  0  0  0  0  0  0  0  0999 V2000
    1.4511   28.2758    7.3126 N   0  0  0  0  0  0  0  0  0  0  0  0
    0.5603   28.6880    8.2535 C   0  0  0  0  0  0  0  0  0  0  0  0
    0.4034   30.1344    8.5965 C   0  0  0  0  0  0  0  0  0  0  0  0
    1.1917   30.9912    7.9458 C   0  0  0  0  0  0  0  0  0  0  0  0
    1.1622   32.2722    8.1717 N   0  0  0  0  0  0  0  0  0  0  0  0
    2.1019   30.4275    6.9387 N   0  0  0  0  0  0  0  0  0  0  0  0
    2.2506   29.2068    6.6547 C   0  0  0  0  0  0  0  0  0  0  0  0
    3.0981   28.7402    5.7728 N   0  0  0  0  0  0  0  0  0  0  0  0
    0.5485   32.6387    8.8487 H   0  0  0  0  0  0  0  0  0  0  0  0
    1.7537   32.8750    7.6657 H   0  0  0  0  0  0  0  0  0  0  0  0
    3.1538   27.7712    5.6083 H   0  0  0  0  0  0  0  0  0  0  0  0
    3.6797   29.3585    5.2740 H   0  0  0  0  0  0  0  0  0  0  0  0
   -0.5615   30.4226    9.6405 N   0  0  0  0  0  0  0  0  0  0  0  0
   -1.4090   31.3036    9.4205 O   0  0  0  0  0  0  0  0  0  0  0  0
   -0.1910   27.7038    8.8988 O   0  0  0  0  0  0  0  0  0  0  0  0
    0.4427   26.3973    8.9655 C   0  0  0  0  0  0  0  0  0  0  0  0
   -0.2480   25.6717   10.1226 C   0  0  0  0  0  0  0  0  0  0  0  0
    0.5843   24.4945   10.6697 C   0  0  0  0  0  0  0  0  0  0  0  0
   -0.2404   23.7485   11.7603 C   0  0  0  0  0  0  0  0  0  0  0  0
   -0.5858   24.7603   12.9061 C   0  0  0  0  0  0  0  0  0  0  0  0
   -1.5348   25.8315   12.3003 C   0  0  0  0  0  0  0  0  0  0  0  0
   -0.6922   26.6371   11.2570 C   0  0  0  0  0  0  0  0  0  0  0  0
  1  2  2  0  0  0
  1  7  1  0  0  0
  2 15  1  0  0  0
  2  3  1  0  0  0
 15 16  1  0  0  0
 16 17  1  0  0  0
 17 18  1  0  0  0
 17 22  1  0  0  0
 18 19  1  0  0  0
 19 20  1  0  0  0
 20 21  1  0  0  0
 21 22  1  0  0  0
  3 13  1  0  0  0
  3  4  2  0  0  0
 13 14  2  0  0  0
  4  5  1  0  0  0
  4  6  1  0  0  0
  6  7  2  0  0  0
  7  8  1  0  0  0
  5  9  1  0  0  0
  5 10  1  0  0  0
  8 11  1  0  0  0
  8 12  1  0  0  0
M  END
> <minimizedAffinity>
-7.50860

$$$$
1E1X_NW1_A_401


 22 23  0  0  0  0  0  0  0  0999 V2000
    2.5121   27.6990    7.0839 N   0  0  0  0  0  0  0  0  0  0  0  0
    1.4188   27.9013    7.8665 C   0  0  0  0  0  0  0  0  0  0  0  0
    0.7579   29.2394    7.9504 C   0  0  0  0  0  0  0  0  0  0  0  0
    1.3057   30.2218    7.2337 C   0  0  0  0  0  0  0  0  0  0  0  0
    0.8333   31.4341    7.2405 N   0  0  0  0  0  0  0  0  0  0  0  0
    2.4751   29.8766    6.4127 N   0  0  0  0  0  0  0  0  0  0  0  0
    3.0474   28.7534    6.3487 C   0  0  0  0  0  0  0  0  0  0  0  0
    4.1098   28.4935    5.6294 N   0  0  0  0  0  0  0  0  0  0  0  0
    0.0496   31.6539    7.7943 H   0  0  0  0  0  0  0  0  0  0  0  0
    1.2597   32.1316    6.6919 H   0  0  0  0  0  0  0  0  0  0  0  0
    4.4976   27.5886    5.6333 H   0  0  0  0  0  0  0  0  0  0  0  0
    4.5210   29.2030    5.0845 H   0  0  0  0  0  0  0  0  0  0  0  0
   -0.3784   29.3141    8.8489 N   0  0  0  0  0  0  0  0  0  0  0  0
   -0.2803   30.0436    9.8493 O   0  0  0  0  0  0  0  0  0  0  0  0
    0.9476   26.8120    8.6021 O   0  0  0  0  0  0  0  0  0  0  0  0
    1.6217   26.5947    9.8714 C   0  0  0  0  0  0  0  0  0  0  0  0
    1.1748   25.2058   10.3338 C   0  0  0  0  0  0  0  0  0  0  0  0
    0.1843   24.5421    9.3559 C   0  0  0  0  0  0  0  0  0  0  0  0
   -0.3018   23.1909    9.9590 C   0  0  0  0  0  0  0  0  0  0  0  0
    0.9444   22.2699   10.1929 C   0  0  0  0  0  0  0  0  0  0  0  0
    1.8148   22.9468   11.2881 C   0  0  0  0  0  0  0  0  0  0  0  0
    2.3705   24.2692   10.6639 C   0  0  0  0  0  0  0  0  0  0  0  0
  1  2  2  0  0  0
  1  7  1  0  0  0
  2 15  1  0  0  0
  2  3  1  0  0  0
 15 16  1  0  0  0
 16 17  1  0  0  0
 17 18  1  0  0  0
 17 22  1  0  0  0
 18 19  1  0  0  0
 19 20  1  0  0  0
 20 21  1  0  0  0
 21 22  1  0  0  0
  3 13  1  0  0  0
  3  4  2  0  0  0
 13 14  2  0  0  0
  4  5  1  0  0  0
  4  6  1  0  0  0
  6  7  2  0  0  0
  7  8  1  0  0  0
  5  9  1  0  0  0
  5 10  1  0  0  0
  8 11  1  0  0  0
  8 12  1  0  0  0
M  END
> <minimizedAffinity>
-7.29776

$$$$
1E1X_NW1_A_401


 22 23  0  0  0  0  0  0  0  0999 V2000
   -0.0012   24.3058   10.0650 N   0  0  0  0  0  0  0  0  0  0  0  0
   -0.3583   25.5342   10.5256 C   0  0  0  0  0  0  0  0  0  0  0  0
   -0.6593   25.7667   11.9712 C   0  0  0  0  0  0  0  0  0  0  0  0
   -0.5757   24.7067   12.7763 C   0  0  0  0  0  0  0  0  0  0  0  0
   -0.8337   24.7786   14.0496 N   0  0  0  0  0  0  0  0  0  0  0  0
   -0.1630   23.4353   12.1649 N   0  0  0  0  0  0  0  0  0  0  0  0
    0.0778   23.2283   10.9434 C   0  0  0  0  0  0  0  0  0  0  0  0
    0.4111   22.0707   10.4308 N   0  0  0  0  0  0  0  0  0  0  0  0
   -1.1094   25.6355   14.4483 H   0  0  0  0  0  0  0  0  0  0  0  0
   -0.7533   23.9762   14.6142 H   0  0  0  0  0  0  0  0  0  0  0  0
    0.5833   21.9913    9.4648 H   0  0  0  0  0  0  0  0  0  0  0  0
    0.4896   21.2795   11.0115 H   0  0  0  0  0  0  0  0  0  0  0  0
   -1.0571   27.1194   12.3116 N   0  0  0  0  0  0  0  0  0  0  0  0
   -2.0030   27.2644   13.1034 O   0  0  0  0  0  0  0  0  0  0  0  0
   -0.4487   26.5672    9.5905 O   0  0  0  0  0  0  0  0  0  0  0  0
    0.5476   27.6151    9.7399 C   0  0  0  0  0  0  0  0  0  0  0  0
    1.1051   27.8462    8.3334 C   0  0  0  0  0  0  0  0  0  0  0  0
    1.0236   29.3224    7.8950 C   0  0  0  0  0  0  0  0  0  0  0  0
    1.5039   29.4445    6.4184 C   0  0  0  0  0  0  0  0  0  0  0  0
    2.9784   28.9216    6.3267 C   0  0  0  0  0  0  0  0  0  0  0  0
    2.9460   27.4017    6.6490 C   0  0  0  0  0  0  0  0  0  0  0  0
    2.5383   27.2722    8.1538 C   0  0  0  0  0  0  0  0  0  0  0  0
  1  2  2  0  0  0
  1  7  1  0  0  0
  2 15  1  0  0  0
  2  3  1  0  0  0
 15 16  1  0  0  0
 16 17  1  0  0  0
 17 18  1  0  0  0
 17 22  1  0  0  0
 18 19  1  0  0  0
 19 20  1  0  0  0
 20 21  1  0  0  0
 21 22  1  0  0  0
  3 13  1  0  0  0
  3  4  2  0  0  0
 13 14  2  0  0  0
  4  5  1  0  0  0
  4  6  1  0  0  0
  6  7  2  0  0  0
  7  8  1  0  0  0
  5  9  1  0  0  0
  5 10  1  0  0  0
  8 11  1  0  0  0
  8 12  1  0  0  0
M  END
> <minimizedAffinity>
-7.24666

$$$$
1E1X_NW1_A_401


 22 23  0  0  0  0  0  0  0  0999 V2000
   -0.4740   25.4584   11.2325 N   0  0  0  0  0  0  0  0  0  0  0  0
    0.3200   25.7796   10.1766 C   0  0  0  0  0  0  0  0  0  0  0  0
    1.6249   25.0883    9.9448 C   0  0  0  0  0  0  0  0  0  0  0  0
    1.9735   24.1574   10.8340 C   0  0  0  0  0  0  0  0  0  0  0  0
    3.0943   23.5016   10.7510 N   0  0  0  0  0  0  0  0  0  0  0  0
    1.0242   23.8861   11.9230 N   0  0  0  0  0  0  0  0  0  0  0  0
   -0.0716   24.4760   12.1335 C   0  0  0  0  0  0  0  0  0  0  0  0
   -0.8757   24.2280   13.1363 N   0  0  0  0  0  0  0  0  0  0  0  0
    3.7226   23.6916   10.0173 H   0  0  0  0  0  0  0  0  0  0  0  0
    3.3139   22.8154   11.4219 H   0  0  0  0  0  0  0  0  0  0  0  0
   -1.7152   24.7336   13.2307 H   0  0  0  0  0  0  0  0  0  0  0  0
   -0.6409   23.5360   13.7960 H   0  0  0  0  0  0  0  0  0  0  0  0
    2.3792   25.5566    8.7977 N   0  0  0  0  0  0  0  0  0  0  0  0
    3.3465   26.3073    9.0063 O   0  0  0  0  0  0  0  0  0  0  0  0
   -0.1250   26.7934    9.3258 O   0  0  0  0  0  0  0  0  0  0  0  0
   -0.1241   28.1247    9.9094 C   0  0  0  0  0  0  0  0  0  0  0  0
    0.6973   28.9869    8.9480 C   0  0  0  0  0  0  0  0  0  0  0  0
    0.8140   28.3655    7.5415 C   0  0  0  0  0  0  0  0  0  0  0  0
    1.7555   29.2479    6.6692 C   0  0  0  0  0  0  0  0  0  0  0  0
    1.1535   30.6925    6.5868 C   0  0  0  0  0  0  0  0  0  0  0  0
    1.2015   31.2909    8.0202 C   0  0  0  0  0  0  0  0  0  0  0  0
    0.1997   30.4581    8.8864 C   0  0  0  0  0  0  0  0  0  0  0  0
  1  2  2  0  0  0
  1  7  1  0  0  0
  2 15  1  0  0  0
  2  3  1  0  0  0
 15 16  1  0  0  0
 16 17  1  0  0  0
 17 18  1  0  0  0
 17 22  1  0  0  0
 18 19  1  0  0  0
 19 20  1  0  0  0
 20 21  1  0  0  0
 21 22  1  0  0  0
  3 13  1  0  0  0
  3  4  2  0  0  0
 13 14  2  0  0  0
  4  5  1  0  0  0
  4  6  1  0  0  0
  6  7  2  0  0  0
  7  8  1  0  0  0
  5  9  1  0  0  0
  5 10  1  0  0  0
  8 11  1  0  0  0
  8 12  1  0  0  0
M  END
> <minimizedAffinity>
-7.19487

$$$$
