5OT9_AOZ_A_303


 20 20  0  0  0  0  0  0  0  0999 V2000
   18.2083   -6.0886   -2.0848 C   0  0  0  0  0  0  0  0  0  0  0  0
   16.9569   -6.9288   -2.2350 C   0  0  0  0  0  0  0  0  0  0  0  0
   17.0657   -8.1784   -2.3516 O   0  0  0  0  0  0  0  0  0  0  0  0
   15.8098   -6.3915   -2.2063 O   0  0  0  0  0  0  0  0  0  0  0  0
   17.9145   -8.5748   -2.3727 H   0  0  0  0  0  0  0  0  0  0  0  0
   19.2049   -6.7612   -1.2706 N   0  0  0  0  0  0  0  0  0  0  0  0
   19.9778   -7.0002   -1.8918 H   0  0  0  0  0  0  0  0  0  0  0  0
   19.7970   -6.0797   -0.0987 C   0  0  0  0  0  0  0  0  0  0  0  0
   20.8873   -5.1293   -0.5469 C   0  0  0  0  0  0  0  0  0  0  0  0
   21.5818   -7.2438    1.1385 O   0  0  0  0  0  0  0  0  0  0  0  0
   20.3341   -7.0156    1.0012 C   0  0  0  0  0  0  0  0  0  0  0  0
   19.5074   -7.5309    1.7777 O   0  0  0  0  0  0  0  0  0  0  0  0
   18.5928   -7.3582    1.6700 H   0  0  0  0  0  0  0  0  0  0  0  0
   18.6328   -5.4189   -3.3933 C   0  0  0  0  0  0  0  0  0  0  0  0
   19.3045   -6.2386   -4.4669 C   0  0  0  0  0  0  0  0  0  0  0  0
   20.1513   -7.2578   -4.2385 N   0  0  0  0  0  0  0  0  0  0  0  0
   19.2096   -6.1372   -5.8573 C   0  0  0  0  0  0  0  0  0  0  0  0
   20.5541   -7.7679   -5.3952 C   0  0  0  0  0  0  0  0  0  0  0  0
   19.9789   -7.1065   -6.3857 N   0  0  0  0  0  0  0  0  0  0  0  0
   20.0939   -7.2919   -7.3457 H   0  0  0  0  0  0  0  0  0  0  0  0
  4  2  2  0  0  0
 18 16  2  0  0  0
 18 19  1  0  0  0
 16 15  1  0  0  0
 19 17  1  0  0  0
 15 14  1  0  0  0
 15 17  2  0  0  0
  2  3  1  0  0  0
  2  1  1  0  0  0
 14  1  1  0  0  0
  1  6  1  0  0  0
  6  8  1  0  0  0
  8 11  1  0  0  0
  8  9  1  0  0  0
 10 11  2  0  0  0
 11 12  1  0  0  0
  6  7  1  0  0  0
  3  5  1  0  0  0
 19 20  1  0  0  0
 12 13  1  0  0  0
M  END
> <minimizedAffinity>
-7.99561

$$$$
5OT9_AOZ_A_303


 20 20  0  0  0  0  0  0  0  0999 V2000
   18.2175   -6.9156   -2.2874 C   0  0  0  0  0  0  0  0  0  0  0  0
   16.7526   -6.7123   -1.9599 C   0  0  0  0  0  0  0  0  0  0  0  0
   16.2730   -7.2515   -0.9273 O   0  0  0  0  0  0  0  0  0  0  0  0
   16.0221   -5.9788   -2.6905 O   0  0  0  0  0  0  0  0  0  0  0  0
   16.8139   -7.7937   -0.3876 H   0  0  0  0  0  0  0  0  0  0  0  0
   18.4196   -7.1232   -3.7103 N   0  0  0  0  0  0  0  0  0  0  0  0
   17.5552   -6.8419   -4.1729 H   0  0  0  0  0  0  0  0  0  0  0  0
   19.5226   -6.4358   -4.4169 C   0  0  0  0  0  0  0  0  0  0  0  0
   19.1676   -4.9813   -4.6432 C   0  0  0  0  0  0  0  0  0  0  0  0
   19.5985   -6.6066   -6.8738 O   0  0  0  0  0  0  0  0  0  0  0  0
   19.9543   -7.0850   -5.7460 C   0  0  0  0  0  0  0  0  0  0  0  0
   20.6896   -8.0889   -5.6881 O   0  0  0  0  0  0  0  0  0  0  0  0
   20.9464   -8.4342   -4.8557 H   0  0  0  0  0  0  0  0  0  0  0  0
   19.1331   -5.9519   -1.5299 C   0  0  0  0  0  0  0  0  0  0  0  0
   20.0041   -6.4726   -0.4137 C   0  0  0  0  0  0  0  0  0  0  0  0
   19.5576   -6.8487    0.7976 N   0  0  0  0  0  0  0  0  0  0  0  0
   21.3865   -6.6731   -0.3801 C   0  0  0  0  0  0  0  0  0  0  0  0
   20.5777   -7.2637    1.5375 C   0  0  0  0  0  0  0  0  0  0  0  0
   21.6917   -7.1761    0.8299 N   0  0  0  0  0  0  0  0  0  0  0  0
   22.5908   -7.4348    1.1364 H   0  0  0  0  0  0  0  0  0  0  0  0
  4  2  2  0  0  0
 18 16  2  0  0  0
 18 19  1  0  0  0
 16 15  1  0  0  0
 19 17  1  0  0  0
 15 14  1  0  0  0
 15 17  2  0  0  0
  2  3  1  0  0  0
  2  1  1  0  0  0
 14  1  1  0  0  0
  1  6  1  0  0  0
  6  8  1  0  0  0
  8 11  1  0  0  0
  8  9  1  0  0  0
 10 11  2  0  0  0
 11 12  1  0  0  0
  6  7  1  0  0  0
  3  5  1  0  0  0
 19 20  1  0  0  0
 12 13  1  0  0  0
M  END
> <minimizedAffinity>
-7.47882

$$$$
5OT9_AOZ_A_303


 20 20  0  0  0  0  0  0  0  0999 V2000
   19.3318   -5.9141    0.0339 C   0  0  0  0  0  0  0  0  0  0  0  0
   20.7702   -5.5286   -0.2431 C   0  0  0  0  0  0  0  0  0  0  0  0
   21.0497   -4.3224   -0.4748 O   0  0  0  0  0  0  0  0  0  0  0  0
   21.6915   -6.3978   -0.2061 O   0  0  0  0  0  0  0  0  0  0  0  0
   20.3677   -3.6804   -0.5020 H   0  0  0  0  0  0  0  0  0  0  0  0
   18.4562   -5.5147   -1.0534 N   0  0  0  0  0  0  0  0  0  0  0  0
   18.7795   -4.6002   -1.3689 H   0  0  0  0  0  0  0  0  0  0  0  0
   18.3297   -6.3602   -2.2607 C   0  0  0  0  0  0  0  0  0  0  0  0
   18.7277   -5.5719   -3.4907 C   0  0  0  0  0  0  0  0  0  0  0  0
   15.8724   -6.3063   -2.4353 O   0  0  0  0  0  0  0  0  0  0  0  0
   16.9432   -6.9989   -2.4708 C   0  0  0  0  0  0  0  0  0  0  0  0
   16.8983   -8.2219   -2.7031 O   0  0  0  0  0  0  0  0  0  0  0  0
   17.6893   -8.7235   -2.7275 H   0  0  0  0  0  0  0  0  0  0  0  0
   19.1988   -7.3166    0.6308 C   0  0  0  0  0  0  0  0  0  0  0  0
   18.1849   -7.5713    1.7183 C   0  0  0  0  0  0  0  0  0  0  0  0
   18.4539   -8.1597    2.8971 N   0  0  0  0  0  0  0  0  0  0  0  0
   16.8199   -7.2745    1.7528 C   0  0  0  0  0  0  0  0  0  0  0  0
   17.3464   -8.2222    3.6250 C   0  0  0  0  0  0  0  0  0  0  0  0
   16.3502   -7.6753    2.9483 N   0  0  0  0  0  0  0  0  0  0  0  0
   15.4232   -7.5781    3.2652 H   0  0  0  0  0  0  0  0  0  0  0  0
  4  2  2  0  0  0
 18 16  2  0  0  0
 18 19  1  0  0  0
 16 15  1  0  0  0
 19 17  1  0  0  0
 15 14  1  0  0  0
 15 17  2  0  0  0
  2  3  1  0  0  0
  2  1  1  0  0  0
 14  1  1  0  0  0
  1  6  1  0  0  0
  6  8  1  0  0  0
  8 11  1  0  0  0
  8  9  1  0  0  0
 10 11  2  0  0  0
 11 12  1  0  0  0
  6  7  1  0  0  0
  3  5  1  0  0  0
 19 20  1  0  0  0
 12 13  1  0  0  0
M  END
> <minimizedAffinity>
-7.43283

$$$$
5OT9_AOZ_A_303


 20 20  0  0  0  0  0  0  0  0999 V2000
   19.8463   -6.4454   -1.4835 C   0  0  0  0  0  0  0  0  0  0  0  0
   20.9003   -5.7112   -0.6805 C   0  0  0  0  0  0  0  0  0  0  0  0
   20.7181   -4.4990   -0.3902 O   0  0  0  0  0  0  0  0  0  0  0  0
   21.9368   -6.3134   -0.2702 O   0  0  0  0  0  0  0  0  0  0  0  0
   19.9513   -4.0546   -0.6941 H   0  0  0  0  0  0  0  0  0  0  0  0
   18.8664   -7.0792   -0.6195 N   0  0  0  0  0  0  0  0  0  0  0  0
   19.2035   -6.9678    0.3367 H   0  0  0  0  0  0  0  0  0  0  0  0
   17.4579   -6.6269   -0.6286 C   0  0  0  0  0  0  0  0  0  0  0  0
   16.7598   -7.0771    0.6374 C   0  0  0  0  0  0  0  0  0  0  0  0
   16.8357   -8.1762   -2.4407 O   0  0  0  0  0  0  0  0  0  0  0  0
   16.6399   -7.0564   -1.8618 C   0  0  0  0  0  0  0  0  0  0  0  0
   15.7544   -6.2802   -2.2683 O   0  0  0  0  0  0  0  0  0  0  0  0
   15.6170   -5.4595   -1.8375 H   0  0  0  0  0  0  0  0  0  0  0  0
   19.3732   -5.6535   -2.7040 C   0  0  0  0  0  0  0  0  0  0  0  0
   19.6002   -6.2096   -4.0878 C   0  0  0  0  0  0  0  0  0  0  0  0
   20.2833   -7.3352   -4.3610 N   0  0  0  0  0  0  0  0  0  0  0  0
   19.1810   -5.7181   -5.3268 C   0  0  0  0  0  0  0  0  0  0  0  0
   20.2883   -7.5445   -5.6711 C   0  0  0  0  0  0  0  0  0  0  0  0
   19.6104   -6.5783   -6.2681 N   0  0  0  0  0  0  0  0  0  0  0  0
   19.4477   -6.5017   -7.2360 H   0  0  0  0  0  0  0  0  0  0  0  0
  4  2  2  0  0  0
 18 16  2  0  0  0
 18 19  1  0  0  0
 16 15  1  0  0  0
 19 17  1  0  0  0
 15 14  1  0  0  0
 15 17  2  0  0  0
  2  3  1  0  0  0
  2  1  1  0  0  0
 14  1  1  0  0  0
  1  6  1  0  0  0
  6  8  1  0  0  0
  8 11  1  0  0  0
  8  9  1  0  0  0
 10 11  2  0  0  0
 11 12  1  0  0  0
  6  7  1  0  0  0
  3  5  1  0  0  0
 19 20  1  0  0  0
 12 13  1  0  0  0
M  END
> <minimizedAffinity>
-7.17170

$$$$
5OT9_AOZ_A_303


 20 20  0  0  0  0  0  0  0  0999 V2000
   19.5948   -6.9915    0.4281 C   0  0  0  0  0  0  0  0  0  0  0  0
   21.0853   -7.2412    0.3249 C   0  0  0  0  0  0  0  0  0  0  0  0
   21.6077   -7.3818   -0.8127 O   0  0  0  0  0  0  0  0  0  0  0  0
   21.8095   -7.2714    1.3641 O   0  0  0  0  0  0  0  0  0  0  0  0
   21.0713   -7.3593   -1.5806 H   0  0  0  0  0  0  0  0  0  0  0  0
   19.1196   -7.1692    1.7886 N   0  0  0  0  0  0  0  0  0  0  0  0
   18.9812   -6.2353    2.1748 H   0  0  0  0  0  0  0  0  0  0  0  0
   17.8769   -7.9267    2.0537 C   0  0  0  0  0  0  0  0  0  0  0  0
   16.6757   -7.1362    1.5792 C   0  0  0  0  0  0  0  0  0  0  0  0
   18.6557   -8.4767    4.3257 O   0  0  0  0  0  0  0  0  0  0  0  0
   17.6750   -8.3627    3.5178 C   0  0  0  0  0  0  0  0  0  0  0  0
   16.5102   -8.5802    3.9018 O   0  0  0  0  0  0  0  0  0  0  0  0
   15.7954   -8.4942    3.3021 H   0  0  0  0  0  0  0  0  0  0  0  0
   19.1420   -5.7697   -0.3738 C   0  0  0  0  0  0  0  0  0  0  0  0
   18.7271   -5.9351   -1.8147 C   0  0  0  0  0  0  0  0  0  0  0  0
   19.5737   -5.9703   -2.8588 N   0  0  0  0  0  0  0  0  0  0  0  0
   17.4509   -6.0813   -2.3645 C   0  0  0  0  0  0  0  0  0  0  0  0
   18.8868   -6.1351   -3.9818 C   0  0  0  0  0  0  0  0  0  0  0  0
   17.5983   -6.2186   -3.6949 N   0  0  0  0  0  0  0  0  0  0  0  0
   16.8713   -6.3575   -4.3439 H   0  0  0  0  0  0  0  0  0  0  0  0
  4  2  2  0  0  0
 18 16  2  0  0  0
 18 19  1  0  0  0
 16 15  1  0  0  0
 19 17  1  0  0  0
 15 14  1  0  0  0
 15 17  2  0  0  0
  2  3  1  0  0  0
  2  1  1  0  0  0
 14  1  1  0  0  0
  1  6  1  0  0  0
  6  8  1  0  0  0
  8 11  1  0  0  0
  8  9  1  0  0  0
 10 11  2  0  0  0
 11 12  1  0  0  0
  6  7  1  0  0  0
  3  5  1  0  0  0
 19 20  1  0  0  0
 12 13  1  0  0  0
M  END
> <minimizedAffinity>
-6.20783

$$$$
5OT9_AOZ_A_303


 20 20  0  0  0  0  0  0  0  0999 V2000
   19.3486   -6.1544   -0.6973 C   0  0  0  0  0  0  0  0  0  0  0  0
   20.7137   -5.5377   -0.4718 C   0  0  0  0  0  0  0  0  0  0  0  0
   20.8157   -4.2851   -0.3854 O   0  0  0  0  0  0  0  0  0  0  0  0
   21.7389   -6.2691   -0.3327 O   0  0  0  0  0  0  0  0  0  0  0  0
   20.0570   -3.7450   -0.4885 H   0  0  0  0  0  0  0  0  0  0  0  0
   19.2614   -6.7890   -2.0004 N   0  0  0  0  0  0  0  0  0  0  0  0
   18.6167   -7.5733   -1.9016 H   0  0  0  0  0  0  0  0  0  0  0  0
   18.8130   -6.0167   -3.1798 C   0  0  0  0  0  0  0  0  0  0  0  0
   17.3162   -6.1614   -3.3568 C   0  0  0  0  0  0  0  0  0  0  0  0
   20.2536   -7.4032   -4.6197 O   0  0  0  0  0  0  0  0  0  0  0  0
   19.5342   -6.3567   -4.4984 C   0  0  0  0  0  0  0  0  0  0  0  0
   19.3737   -5.5838   -5.4621 O   0  0  0  0  0  0  0  0  0  0  0  0
   18.8438   -4.8173   -5.3647 H   0  0  0  0  0  0  0  0  0  0  0  0
   18.8204   -6.8908    0.5353 C   0  0  0  0  0  0  0  0  0  0  0  0
   17.3323   -7.0061    0.7545 C   0  0  0  0  0  0  0  0  0  0  0  0
   16.4289   -7.2390   -0.2138 N   0  0  0  0  0  0  0  0  0  0  0  0
   16.5941   -6.9050    1.9365 C   0  0  0  0  0  0  0  0  0  0  0  0
   15.2136   -7.2903    0.3160 C   0  0  0  0  0  0  0  0  0  0  0  0
   15.3009   -7.1037    1.6225 N   0  0  0  0  0  0  0  0  0  0  0  0
   14.5481   -7.1093    2.2570 H   0  0  0  0  0  0  0  0  0  0  0  0
  4  2  2  0  0  0
 18 16  2  0  0  0
 18 19  1  0  0  0
 16 15  1  0  0  0
 19 17  1  0  0  0
 15 14  1  0  0  0
 15 17  2  0  0  0
  2  3  1  0  0  0
  2  1  1  0  0  0
 14  1  1  0  0  0
  1  6  1  0  0  0
  6  8  1  0  0  0
  8 11  1  0  0  0
  8  9  1  0  0  0
 10 11  2  0  0  0
 11 12  1  0  0  0
  6  7  1  0  0  0
  3  5  1  0  0  0
 19 20  1  0  0  0
 12 13  1  0  0  0
M  END
> <minimizedAffinity>
-6.16845

$$$$
5OT9_AOZ_A_303


 20 20  0  0  0  0  0  0  0  0999 V2000
   19.2986   -5.9662   -1.3264 C   0  0  0  0  0  0  0  0  0  0  0  0
   20.6480   -5.5570   -0.7729 C   0  0  0  0  0  0  0  0  0  0  0  0
   20.8619   -4.3440   -0.5088 O   0  0  0  0  0  0  0  0  0  0  0  0
   21.5417   -6.4245   -0.5401 O   0  0  0  0  0  0  0  0  0  0  0  0
   20.2004   -3.7032   -0.6813 H   0  0  0  0  0  0  0  0  0  0  0  0
   18.2660   -5.9050   -0.3074 N   0  0  0  0  0  0  0  0  0  0  0  0
   17.4480   -5.4806   -0.7445 H   0  0  0  0  0  0  0  0  0  0  0  0
   17.7987   -7.1404    0.3588 C   0  0  0  0  0  0  0  0  0  0  0  0
   16.3245   -7.0282    0.6859 C   0  0  0  0  0  0  0  0  0  0  0  0
   18.0212   -8.1015    2.6167 O   0  0  0  0  0  0  0  0  0  0  0  0
   18.5882   -7.5438    1.6191 C   0  0  0  0  0  0  0  0  0  0  0  0
   19.8152   -7.3293    1.6271 O   0  0  0  0  0  0  0  0  0  0  0  0
   20.2240   -6.9192    0.8904 H   0  0  0  0  0  0  0  0  0  0  0  0
   19.0241   -5.3790   -2.7123 C   0  0  0  0  0  0  0  0  0  0  0  0
   19.4390   -6.1463   -3.9430 C   0  0  0  0  0  0  0  0  0  0  0  0
   20.2140   -7.2452   -3.9383 N   0  0  0  0  0  0  0  0  0  0  0  0
   19.1349   -5.9105   -5.2862 C   0  0  0  0  0  0  0  0  0  0  0  0
   20.3799   -7.6767   -5.1819 C   0  0  0  0  0  0  0  0  0  0  0  0
   19.7183   -6.8842   -6.0087 N   0  0  0  0  0  0  0  0  0  0  0  0
   19.6622   -6.9889   -6.9860 H   0  0  0  0  0  0  0  0  0  0  0  0
  4  2  2  0  0  0
 18 16  2  0  0  0
 18 19  1  0  0  0
 16 15  1  0  0  0
 19 17  1  0  0  0
 15 14  1  0  0  0
 15 17  2  0  0  0
  2  3  1  0  0  0
  2  1  1  0  0  0
 14  1  1  0  0  0
  1  6  1  0  0  0
  6  8  1  0  0  0
  8 11  1  0  0  0
  8  9  1  0  0  0
 10 11  2  0  0  0
 11 12  1  0  0  0
  6  7  1  0  0  0
  3  5  1  0  0  0
 19 20  1  0  0  0
 12 13  1  0  0  0
M  END
> <minimizedAffinity>
-6.14090

$$$$
5OT9_AOZ_A_303


 20 20  0  0  0  0  0  0  0  0999 V2000
   17.5576   -6.6955   -0.7520 C   0  0  0  0  0  0  0  0  0  0  0  0
   16.3977   -6.9989    0.1738 C   0  0  0  0  0  0  0  0  0  0  0  0
   15.3155   -7.4202   -0.3143 O   0  0  0  0  0  0  0  0  0  0  0  0
   16.5202   -6.8692    1.4282 O   0  0  0  0  0  0  0  0  0  0  0  0
   15.2258   -7.5158   -1.2421 H   0  0  0  0  0  0  0  0  0  0  0  0
   18.7644   -7.3873   -0.3355 N   0  0  0  0  0  0  0  0  0  0  0  0
   19.1712   -7.7982   -1.1757 H   0  0  0  0  0  0  0  0  0  0  0  0
   19.8512   -6.6505    0.3461 C   0  0  0  0  0  0  0  0  0  0  0  0
   19.7551   -5.1730    0.0291 C   0  0  0  0  0  0  0  0  0  0  0  0
   22.2310   -6.3619   -0.2236 O   0  0  0  0  0  0  0  0  0  0  0  0
   21.2746   -7.1608    0.0497 C   0  0  0  0  0  0  0  0  0  0  0  0
   21.4735   -8.3891    0.1090 O   0  0  0  0  0  0  0  0  0  0  0  0
   20.7657   -8.9691    0.3104 H   0  0  0  0  0  0  0  0  0  0  0  0
   17.1556   -6.7059   -2.2282 C   0  0  0  0  0  0  0  0  0  0  0  0
   18.2142   -6.5434   -3.2906 C   0  0  0  0  0  0  0  0  0  0  0  0
   18.9238   -7.5509   -3.8286 N   0  0  0  0  0  0  0  0  0  0  0  0
   18.6737   -5.3849   -3.9224 C   0  0  0  0  0  0  0  0  0  0  0  0
   19.7615   -7.0682   -4.7371 C   0  0  0  0  0  0  0  0  0  0  0  0
   19.6098   -5.7565   -4.8146 N   0  0  0  0  0  0  0  0  0  0  0  0
   20.0985   -5.1548   -5.4215 H   0  0  0  0  0  0  0  0  0  0  0  0
  4  2  2  0  0  0
 18 16  2  0  0  0
 18 19  1  0  0  0
 16 15  1  0  0  0
 19 17  1  0  0  0
 15 14  1  0  0  0
 15 17  2  0  0  0
  2  3  1  0  0  0
  2  1  1  0  0  0
 14  1  1  0  0  0
  1  6  1  0  0  0
  6  8  1  0  0  0
  8 11  1  0  0  0
  8  9  1  0  0  0
 10 11  2  0  0  0
 11 12  1  0  0  0
  6  7  1  0  0  0
  3  5  1  0  0  0
 19 20  1  0  0  0
 12 13  1  0  0  0
M  END
> <minimizedAffinity>
-5.82672

$$$$
5OT9_AOZ_A_303


 20 20  0  0  0  0  0  0  0  0999 V2000
   18.4980   -6.6796   -2.4588 C   0  0  0  0  0  0  0  0  0  0  0  0
   17.0708   -7.1506   -2.6488 C   0  0  0  0  0  0  0  0  0  0  0  0
   16.8423   -8.3825   -2.7793 O   0  0  0  0  0  0  0  0  0  0  0  0
   16.1103   -6.3243   -2.6391 O   0  0  0  0  0  0  0  0  0  0  0  0
   17.5533   -8.9927   -2.7863 H   0  0  0  0  0  0  0  0  0  0  0  0
   19.0357   -6.1084   -3.6807 N   0  0  0  0  0  0  0  0  0  0  0  0
   19.9329   -5.6886   -3.4376 H   0  0  0  0  0  0  0  0  0  0  0  0
   19.2736   -6.9633   -4.8643 C   0  0  0  0  0  0  0  0  0  0  0  0
   20.6047   -7.6730   -4.7331 C   0  0  0  0  0  0  0  0  0  0  0  0
   18.1284   -5.6577   -6.6122 O   0  0  0  0  0  0  0  0  0  0  0  0
   19.1949   -6.2390   -6.2221 C   0  0  0  0  0  0  0  0  0  0  0  0
   20.2221   -6.2161   -6.9265 O   0  0  0  0  0  0  0  0  0  0  0  0
   21.0013   -6.6455   -6.6327 H   0  0  0  0  0  0  0  0  0  0  0  0
   18.7092   -5.9503   -1.1305 C   0  0  0  0  0  0  0  0  0  0  0  0
   18.3380   -6.6330    0.1624 C   0  0  0  0  0  0  0  0  0  0  0  0
   17.0994   -6.6680    0.6848 N   0  0  0  0  0  0  0  0  0  0  0  0
   19.1410   -7.3420    1.0596 C   0  0  0  0  0  0  0  0  0  0  0  0
   17.1157   -7.3539    1.8203 C   0  0  0  0  0  0  0  0  0  0  0  0
   18.3458   -7.7812    2.0523 N   0  0  0  0  0  0  0  0  0  0  0  0
   18.6310   -8.3273    2.8202 H   0  0  0  0  0  0  0  0  0  0  0  0
  4  2  2  0  0  0
 18 16  2  0  0  0
 18 19  1  0  0  0
 16 15  1  0  0  0
 19 17  1  0  0  0
 15 14  1  0  0  0
 15 17  2  0  0  0
  2  3  1  0  0  0
  2  1  1  0  0  0
 14  1  1  0  0  0
  1  6  1  0  0  0
  6  8  1  0  0  0
  8 11  1  0  0  0
  8  9  1  0  0  0
 10 11  2  0  0  0
 11 12  1  0  0  0
  6  7  1  0  0  0
  3  5  1  0  0  0
 19 20  1  0  0  0
 12 13  1  0  0  0
M  END
> <minimizedAffinity>
-5.68346

$$$$
5OT9_AOZ_A_303


 20 20  0  0  0  0  0  0  0  0999 V2000
   17.4289   -7.2395   -0.7150 C   0  0  0  0  0  0  0  0  0  0  0  0
   15.9599   -7.0396   -1.0259 C   0  0  0  0  0  0  0  0  0  0  0  0
   15.0973   -7.4236   -0.1920 O   0  0  0  0  0  0  0  0  0  0  0  0
   15.5976   -6.4595   -2.0925 O   0  0  0  0  0  0  0  0  0  0  0  0
   15.3663   -7.8525    0.5964 H   0  0  0  0  0  0  0  0  0  0  0  0
   18.2482   -7.0936   -1.9049 N   0  0  0  0  0  0  0  0  0  0  0  0
   17.6094   -7.0773   -2.7000 H   0  0  0  0  0  0  0  0  0  0  0  0
   19.1452   -5.9271   -2.0568 C   0  0  0  0  0  0  0  0  0  0  0  0
   19.5010   -5.7322   -3.5156 C   0  0  0  0  0  0  0  0  0  0  0  0
   20.8610   -4.9414   -0.5885 O   0  0  0  0  0  0  0  0  0  0  0  0
   20.4277   -5.9716   -1.2038 C   0  0  0  0  0  0  0  0  0  0  0  0
   21.0240   -7.0614   -1.1111 O   0  0  0  0  0  0  0  0  0  0  0  0
   20.6992   -7.8133   -1.5661 H   0  0  0  0  0  0  0  0  0  0  0  0
   17.8584   -6.5529    0.5832 C   0  0  0  0  0  0  0  0  0  0  0  0
   17.8027   -7.3152    1.8838 C   0  0  0  0  0  0  0  0  0  0  0  0
   16.6793   -7.5697    2.5776 N   0  0  0  0  0  0  0  0  0  0  0  0
   18.8366   -7.8968    2.6221 C   0  0  0  0  0  0  0  0  0  0  0  0
   16.9783   -8.2663    3.6664 C   0  0  0  0  0  0  0  0  0  0  0  0
   18.2825   -8.4844    3.6983 N   0  0  0  0  0  0  0  0  0  0  0  0
   18.7654   -8.9903    4.3912 H   0  0  0  0  0  0  0  0  0  0  0  0
  4  2  2  0  0  0
 18 16  2  0  0  0
 18 19  1  0  0  0
 16 15  1  0  0  0
 19 17  1  0  0  0
 15 14  1  0  0  0
 15 17  2  0  0  0
  2  3  1  0  0  0
  2  1  1  0  0  0
 14  1  1  0  0  0
  1  6  1  0  0  0
  6  8  1  0  0  0
  8 11  1  0  0  0
  8  9  1  0  0  0
 10 11  2  0  0  0
 11 12  1  0  0  0
  6  7  1  0  0  0
  3  5  1  0  0  0
 19 20  1  0  0  0
 12 13  1  0  0  0
M  END
> <minimizedAffinity>
-5.28012

$$$$
