4E5W_0NT_A_1201


 29 33  0  0  0  0  0  0  0  0999 V2000
    6.4668   52.1587    1.7302 C   0  0  0  0  0  0  0  0  0  0  0  0
    5.7879   51.4621    0.9762 O   0  0  0  0  0  0  0  0  0  0  0  0
    6.2199   53.5022    1.8443 N   0  0  0  0  0  0  0  0  0  0  0  0
    5.1403   54.1457    1.0599 C   0  0  0  0  0  0  0  0  0  0  0  0
    5.7162   55.3074    0.2060 C   0  0  0  0  0  0  0  0  0  0  0  0
    6.5338   56.2620    1.0977 C   0  0  0  0  0  0  0  0  0  0  0  0
    7.6330   55.5396    1.9179 C   0  0  0  0  0  0  0  0  0  0  0  0
    6.9813   54.4118    2.7476 C   0  0  0  0  0  0  0  0  0  0  0  0
    7.0502   57.4633    0.4189 N   0  0  0  0  0  0  0  0  0  0  0  0
    8.2808   57.6053   -0.1850 C   0  0  0  0  0  0  0  0  0  0  0  0
    8.4471   58.8321   -0.5880 N   0  0  0  0  0  0  0  0  0  0  0  0
    7.3570   59.5718   -0.2599 C   0  0  0  0  0  0  0  0  0  0  0  0
    6.4486   58.7025    0.3911 C   0  0  0  0  0  0  0  0  0  0  0  0
    5.2372   59.2342    0.8732 C   0  0  0  0  0  0  0  0  0  0  0  0
    4.0781   58.6757    1.5821 C   0  0  0  0  0  0  0  0  0  0  0  0
    3.2273   59.6984    1.7734 C   0  0  0  0  0  0  0  0  0  0  0  0
    3.7510   60.8529    1.2533 N   0  0  0  0  0  0  0  0  0  0  0  0
    4.9749   60.6111    0.6774 C   0  0  0  0  0  0  0  0  0  0  0  0
    5.8694   61.3954    0.0482 N   0  0  0  0  0  0  0  0  0  0  0  0
    7.0201   60.9286   -0.4149 C   0  0  0  0  0  0  0  0  0  0  0  0
    3.3115   61.7332    1.2875 H   0  0  0  0  0  0  0  0  0  0  0  0
    8.9386   51.7259    1.7386 C   0  0  0  0  0  0  0  0  0  0  0  0
    9.3627   50.3376    1.2279 C   0  0  0  0  0  0  0  0  0  0  0  0
    7.3941   49.9759    2.5376 N   0  0  0  0  0  0  0  0  0  0  0  0
    8.7762   49.4341    2.3251 C   0  0  0  0  0  0  0  0  0  0  0  0
    7.5914   51.4699    2.4852 C   0  0  0  0  0  0  0  0  0  0  0  0
    6.7745   49.4784    3.8041 C   0  0  0  0  0  0  0  0  0  0  0  0
    6.6186   47.9488    3.8069 C   0  0  0  0  0  0  0  0  0  0  0  0
    5.3607   50.0339    4.0325 C   0  0  0  0  0  0  0  0  0  0  0  0
 11 12  1  0  0  0
 11 10  2  0  0  0
 20 12  2  0  0  0
 20 19  1  0  0  0
 12 13  1  0  0  0
 10  9  1  0  0  0
 19 18  2  0  0  0
  5  6  1  0  0  0
  5  4  1  0  0  0
 13  9  1  0  0  0
 13 14  2  0  0  0
  9  6  1  0  0  0
 18 14  1  0  0  0
 18 17  1  0  0  0
 14 15  1  0  0  0
 23 22  1  0  0  0
 23 25  1  0  0  0
  2  1  2  0  0  0
 17 16  1  0  0  0
  6  7  1  0  0  0
  4  3  1  0  0  0
 22 26  1  0  0  0
 15 16  2  0  0  0
  1  3  1  0  0  0
  1 26  1  0  0  0
  3  8  1  0  0  0
  7  8  1  0  0  0
 25 24  1  0  0  0
 26 24  1  0  0  0
 24 27  1  0  0  0
 28 27  1  0  0  0
 27 29  1  0  0  0
 17 21  1  0  0  0
M  END
> <minimizedAffinity>
-10.30625

$$$$
4E5W_0NT_A_1201


 29 33  0  0  0  0  0  0  0  0999 V2000
    5.8832   52.0520    1.4198 C   0  0  0  0  0  0  0  0  0  0  0  0
    4.7929   51.6689    0.9964 O   0  0  0  0  0  0  0  0  0  0  0  0
    6.0714   53.3653    1.7644 N   0  0  0  0  0  0  0  0  0  0  0  0
    4.9741   54.3515    1.6281 C   0  0  0  0  0  0  0  0  0  0  0  0
    5.4215   55.5309    0.7229 C   0  0  0  0  0  0  0  0  0  0  0  0
    6.7582   56.1066    1.2296 C   0  0  0  0  0  0  0  0  0  0  0  0
    7.8667   55.0337    1.3809 C   0  0  0  0  0  0  0  0  0  0  0  0
    7.3523   53.9063    2.3027 C   0  0  0  0  0  0  0  0  0  0  0  0
    7.2379   57.2995    0.5102 N   0  0  0  0  0  0  0  0  0  0  0  0
    8.4652   57.4597   -0.0961 C   0  0  0  0  0  0  0  0  0  0  0  0
    8.5934   58.6764   -0.5412 N   0  0  0  0  0  0  0  0  0  0  0  0
    7.4793   59.3918   -0.2410 C   0  0  0  0  0  0  0  0  0  0  0  0
    6.5972   58.5171    0.4382 C   0  0  0  0  0  0  0  0  0  0  0  0
    5.3681   59.0263    0.8994 C   0  0  0  0  0  0  0  0  0  0  0  0
    4.2254   58.4560    1.6252 C   0  0  0  0  0  0  0  0  0  0  0  0
    3.3419   59.4570    1.7793 C   0  0  0  0  0  0  0  0  0  0  0  0
    3.8300   60.6089    1.2202 N   0  0  0  0  0  0  0  0  0  0  0  0
    5.0626   60.3865    0.6553 C   0  0  0  0  0  0  0  0  0  0  0  0
    5.9335   61.1765    0.0007 N   0  0  0  0  0  0  0  0  0  0  0  0
    7.0998   60.7310   -0.4438 C   0  0  0  0  0  0  0  0  0  0  0  0
    3.3625   61.4753    1.2230 H   0  0  0  0  0  0  0  0  0  0  0  0
    6.8111   50.1784    2.8075 C   0  0  0  0  0  0  0  0  0  0  0  0
    8.0278   50.5457    3.6752 C   0  0  0  0  0  0  0  0  0  0  0  0
    8.3533   51.6692    1.5888 N   0  0  0  0  0  0  0  0  0  0  0  0
    9.0820   50.8254    2.5916 C   0  0  0  0  0  0  0  0  0  0  0  0
    6.9951   51.0198    1.5051 C   0  0  0  0  0  0  0  0  0  0  0  0
    9.0773   51.7580    0.2837 C   0  0  0  0  0  0  0  0  0  0  0  0
    9.5308   50.3773   -0.2184 C   0  0  0  0  0  0  0  0  0  0  0  0
   10.3577   52.6023    0.3703 C   0  0  0  0  0  0  0  0  0  0  0  0
 11 12  1  0  0  0
 11 10  2  0  0  0
 20 12  2  0  0  0
 20 19  1  0  0  0
 12 13  1  0  0  0
 10  9  1  0  0  0
 19 18  2  0  0  0
  5  6  1  0  0  0
  5  4  1  0  0  0
 13  9  1  0  0  0
 13 14  2  0  0  0
  9  6  1  0  0  0
 18 14  1  0  0  0
 18 17  1  0  0  0
 14 15  1  0  0  0
 23 22  1  0  0  0
 23 25  1  0  0  0
  2  1  2  0  0  0
 17 16  1  0  0  0
  6  7  1  0  0  0
  4  3  1  0  0  0
 22 26  1  0  0  0
 15 16  2  0  0  0
  1  3  1  0  0  0
  1 26  1  0  0  0
  3  8  1  0  0  0
  7  8  1  0  0  0
 25 24  1  0  0  0
 26 24  1  0  0  0
 24 27  1  0  0  0
 28 27  1  0  0  0
 27 29  1  0  0  0
 17 21  1  0  0  0
M  END
> <minimizedAffinity>
-8.16765

$$$$
4E5W_0NT_A_1201


 29 33  0  0  0  0  0  0  0  0999 V2000
    7.9630   52.7032    1.2159 C   0  0  0  0  0  0  0  0  0  0  0  0
    7.5858   51.8795    0.3828 O   0  0  0  0  0  0  0  0  0  0  0  0
    7.0781   53.6008    1.7545 N   0  0  0  0  0  0  0  0  0  0  0  0
    5.6550   53.6057    1.3423 C   0  0  0  0  0  0  0  0  0  0  0  0
    5.2563   55.0068    0.8053 C   0  0  0  0  0  0  0  0  0  0  0  0
    5.6442   56.0930    1.8274 C   0  0  0  0  0  0  0  0  0  0  0  0
    7.1349   56.0313    2.2476 C   0  0  0  0  0  0  0  0  0  0  0  0
    7.4483   54.6163    2.7815 C   0  0  0  0  0  0  0  0  0  0  0  0
    5.2251   57.4609    1.4755 N   0  0  0  0  0  0  0  0  0  0  0  0
    3.9917   58.0312    1.7056 C   0  0  0  0  0  0  0  0  0  0  0  0
    3.9344   59.2153    1.1675 N   0  0  0  0  0  0  0  0  0  0  0  0
    5.1062   59.4878    0.5385 C   0  0  0  0  0  0  0  0  0  0  0  0
    5.9476   58.3648    0.7276 C   0  0  0  0  0  0  0  0  0  0  0  0
    7.2251   58.3744    0.1357 C   0  0  0  0  0  0  0  0  0  0  0  0
    8.3494   57.4296    0.0993 C   0  0  0  0  0  0  0  0  0  0  0  0
    9.3065   58.0144   -0.6412 C   0  0  0  0  0  0  0  0  0  0  0  0
    8.8818   59.2412   -1.0797 N   0  0  0  0  0  0  0  0  0  0  0  0
    7.6174   59.5092   -0.6134 C   0  0  0  0  0  0  0  0  0  0  0  0
    6.7822   60.5542   -0.7605 N   0  0  0  0  0  0  0  0  0  0  0  0
    5.5723   60.5768   -0.2201 C   0  0  0  0  0  0  0  0  0  0  0  0
    9.4093   59.8464   -1.6496 H   0  0  0  0  0  0  0  0  0  0  0  0
   10.1089   53.9904    1.0268 C   0  0  0  0  0  0  0  0  0  0  0  0
   11.0831   53.4856   -0.0522 C   0  0  0  0  0  0  0  0  0  0  0  0
   10.1588   51.5248    0.9588 N   0  0  0  0  0  0  0  0  0  0  0  0
   11.4680   52.1133    0.5246 C   0  0  0  0  0  0  0  0  0  0  0  0
    9.4380   52.6939    1.5810 C   0  0  0  0  0  0  0  0  0  0  0  0
   10.3343   50.3516    1.8689 C   0  0  0  0  0  0  0  0  0  0  0  0
   11.7197   49.7032    1.7123 C   0  0  0  0  0  0  0  0  0  0  0  0
    9.3236   49.2283    1.5925 C   0  0  0  0  0  0  0  0  0  0  0  0
 11 12  1  0  0  0
 11 10  2  0  0  0
 20 12  2  0  0  0
 20 19  1  0  0  0
 12 13  1  0  0  0
 10  9  1  0  0  0
 19 18  2  0  0  0
  5  6  1  0  0  0
  5  4  1  0  0  0
 13  9  1  0  0  0
 13 14  2  0  0  0
  9  6  1  0  0  0
 18 14  1  0  0  0
 18 17  1  0  0  0
 14 15  1  0  0  0
 23 22  1  0  0  0
 23 25  1  0  0  0
  2  1  2  0  0  0
 17 16  1  0  0  0
  6  7  1  0  0  0
  4  3  1  0  0  0
 22 26  1  0  0  0
 15 16  2  0  0  0
  1  3  1  0  0  0
  1 26  1  0  0  0
  3  8  1  0  0  0
  7  8  1  0  0  0
 25 24  1  0  0  0
 26 24  1  0  0  0
 24 27  1  0  0  0
 28 27  1  0  0  0
 27 29  1  0  0  0
 17 21  1  0  0  0
M  END
> <minimizedAffinity>
-7.68738

$$$$
