5M9W_7GR_A_412


 33 33  0  0  0  0  0  0  0  0999 V2000
   57.6673   38.9287    6.9681 P   0  0  0  0  0  0  0  0  0  0  0  0
   56.6025   38.1714    6.2564 O   0  0  0  0  0  0  0  0  0  0  0  0
   59.0479   38.7243    6.3112 O   0  0  0  0  0  0  0  0  0  0  0  0
   56.8306   37.2287    6.2424 H   0  0  0  0  0  0  0  0  0  0  0  0
   57.3838   40.5600    7.0547 N   0  0  0  0  0  0  0  0  0  0  0  0
   57.8722   40.8911    7.8867 H   0  0  0  0  0  0  0  0  0  0  0  0
   57.7512   41.4545    5.9887 C   0  0  0  0  0  0  0  0  0  0  0  0
   56.7090   41.5929    4.9024 C   0  0  0  0  0  0  0  0  0  0  0  0
   55.7206   42.3018    5.0144 O   0  0  0  0  0  0  0  0  0  0  0  0
   56.9370   40.8358    3.7687 N   0  0  0  0  0  0  0  0  0  0  0  0
   57.7427   40.2709    3.7347 H   0  0  0  0  0  0  0  0  0  0  0  0
   56.0552   40.8362    2.6432 C   0  0  0  0  0  0  0  0  0  0  0  0
   54.9726   39.8240    2.8651 C   0  0  0  0  0  0  0  0  0  0  0  0
   53.8346   40.1820    3.2562 O   0  0  0  0  0  0  0  0  0  0  0  0
   55.2689   38.6303    2.6127 O   0  0  0  0  0  0  0  0  0  0  0  0
   56.1332   38.4133    2.3231 H   0  0  0  0  0  0  0  0  0  0  0  0
   56.7698   40.7564    1.3076 C   0  0  0  0  0  0  0  0  0  0  0  0
   55.5820   42.9867    1.0330 C   0  0  0  0  0  0  0  0  0  0  0  0
   56.5122   41.9534    0.3912 C   0  0  0  0  0  0  0  0  0  0  0  0
   55.8587   41.4718   -0.9166 C   0  0  0  0  0  0  0  0  0  0  0  0
   57.7161   38.4494    8.7114 C   0  0  0  0  0  0  0  0  0  0  0  0
   58.3802   39.4856    9.4864 N   0  0  0  0  0  0  0  0  0  0  0  0
   59.7041   39.3133    9.8888 C   0  0  0  0  0  0  0  0  0  0  0  0
   60.4021   38.4038    9.5582 O   0  0  0  0  0  0  0  0  0  0  0  0
   57.8954   40.3081    9.7267 H   0  0  0  0  0  0  0  0  0  0  0  0
   60.1825   40.3193   10.6940 O   0  0  0  0  0  0  0  0  0  0  0  0
   59.7747   41.6328   10.2513 C   0  0  0  0  0  0  0  0  0  0  0  0
   59.8560   42.4876   11.5211 C   0  0  0  0  0  0  0  0  0  0  0  0
   60.2738   41.9368   12.7185 C   0  0  0  0  0  0  0  0  0  0  0  0
   60.2904   42.7129   13.8708 C   0  0  0  0  0  0  0  0  0  0  0  0
   59.9564   44.0563   13.8246 C   0  0  0  0  0  0  0  0  0  0  0  0
   59.5490   44.5826   12.6058 C   0  0  0  0  0  0  0  0  0  0  0  0
   59.4832   43.8035   11.4659 C   0  0  0  0  0  0  0  0  0  0  0  0
 32 33  2  0  0  0
 32 31  1  0  0  0
 33 28  1  0  0  0
 31 30  2  0  0  0
 28 27  1  0  0  0
 28 29  2  0  0  0
 30 29  1  0  0  0
 27 26  1  0  0  0
 26 23  1  0  0  0
 23 24  2  0  0  0
 23 22  1  0  0  0
 22 21  1  0  0  0
 21  1  1  0  0  0
  3  1  2  0  0  0
  2  1  1  0  0  0
  1  5  1  0  0  0
 14 13  2  0  0  0
 15 13  1  0  0  0
 13 12  1  0  0  0
  5  7  1  0  0  0
 12 10  1  0  0  0
 12 17  1  0  0  0
 10  8  1  0  0  0
  8  7  1  0  0  0
  8  9  2  0  0  0
 17 19  1  0  0  0
 19 18  1  0  0  0
 19 20  1  0  0  0
  5  6  1  0  0  0
 10 11  1  0  0  0
 15 16  1  0  0  0
  2  4  1  0  0  0
 22 25  1  0  0  0
M  END
> <minimizedAffinity>
-8.19475

$$$$
5M9W_7GR_A_412


 33 33  0  0  0  0  0  0  0  0999 V2000
   58.3187   39.8816    7.1248 P   0  0  0  0  0  0  0  0  0  0  0  0
   57.4276   39.4646    8.2411 O   0  0  0  0  0  0  0  0  0  0  0  0
   59.4425   38.8539    6.8786 O   0  0  0  0  0  0  0  0  0  0  0  0
   57.9538   39.3439    9.0471 H   0  0  0  0  0  0  0  0  0  0  0  0
   57.5252   40.1188    5.6886 N   0  0  0  0  0  0  0  0  0  0  0  0
   56.7055   39.5122    5.7114 H   0  0  0  0  0  0  0  0  0  0  0  0
   57.0546   41.4174    5.2839 C   0  0  0  0  0  0  0  0  0  0  0  0
   56.0087   41.3905    4.1926 C   0  0  0  0  0  0  0  0  0  0  0  0
   55.0354   42.1287    4.1850 O   0  0  0  0  0  0  0  0  0  0  0  0
   56.2145   40.4470    3.2038 N   0  0  0  0  0  0  0  0  0  0  0  0
   57.0084   39.8680    3.2642 H   0  0  0  0  0  0  0  0  0  0  0  0
   55.3259   40.2743    2.0970 C   0  0  0  0  0  0  0  0  0  0  0  0
   54.3542   39.1777    2.4117 C   0  0  0  0  0  0  0  0  0  0  0  0
   54.5069   38.0306    1.9249 O   0  0  0  0  0  0  0  0  0  0  0  0
   53.4194   39.4729    3.1961 O   0  0  0  0  0  0  0  0  0  0  0  0
   53.3480   40.3444    3.5330 H   0  0  0  0  0  0  0  0  0  0  0  0
   56.0314   40.1671    0.7584 C   0  0  0  0  0  0  0  0  0  0  0  0
   55.5952   42.6710    0.7871 C   0  0  0  0  0  0  0  0  0  0  0  0
   56.3327   41.5160    0.1037 C   0  0  0  0  0  0  0  0  0  0  0  0
   55.8996   41.4819   -1.3730 C   0  0  0  0  0  0  0  0  0  0  0  0
   59.0153   41.5169    7.4590 C   0  0  0  0  0  0  0  0  0  0  0  0
   58.7976   41.8668    8.8538 N   0  0  0  0  0  0  0  0  0  0  0  0
   59.7736   42.5744    9.5546 C   0  0  0  0  0  0  0  0  0  0  0  0
   60.7665   43.0246    9.0695 O   0  0  0  0  0  0  0  0  0  0  0  0
   57.9617   41.6044    9.3029 H   0  0  0  0  0  0  0  0  0  0  0  0
   59.4877   42.7579   10.8864 O   0  0  0  0  0  0  0  0  0  0  0  0
   60.1090   41.7667   11.7344 C   0  0  0  0  0  0  0  0  0  0  0  0
   60.2122   42.4638   13.0957 C   0  0  0  0  0  0  0  0  0  0  0  0
   60.7015   41.7900   14.1995 C   0  0  0  0  0  0  0  0  0  0  0  0
   60.7380   42.4205   15.4371 C   0  0  0  0  0  0  0  0  0  0  0  0
   60.3517   43.7441   15.5692 C   0  0  0  0  0  0  0  0  0  0  0  0
   59.8728   44.3965   14.4407 C   0  0  0  0  0  0  0  0  0  0  0  0
   59.7878   43.7594   13.2170 C   0  0  0  0  0  0  0  0  0  0  0  0
 32 33  2  0  0  0
 32 31  1  0  0  0
 33 28  1  0  0  0
 31 30  2  0  0  0
 28 27  1  0  0  0
 28 29  2  0  0  0
 30 29  1  0  0  0
 27 26  1  0  0  0
 26 23  1  0  0  0
 23 24  2  0  0  0
 23 22  1  0  0  0
 22 21  1  0  0  0
 21  1  1  0  0  0
  3  1  2  0  0  0
  2  1  1  0  0  0
  1  5  1  0  0  0
 14 13  2  0  0  0
 15 13  1  0  0  0
 13 12  1  0  0  0
  5  7  1  0  0  0
 12 10  1  0  0  0
 12 17  1  0  0  0
 10  8  1  0  0  0
  8  7  1  0  0  0
  8  9  2  0  0  0
 17 19  1  0  0  0
 19 18  1  0  0  0
 19 20  1  0  0  0
  5  6  1  0  0  0
 10 11  1  0  0  0
 15 16  1  0  0  0
  2  4  1  0  0  0
 22 25  1  0  0  0
M  END
> <minimizedAffinity>
-7.95566

$$$$
5M9W_7GR_A_412


 33 33  0  0  0  0  0  0  0  0999 V2000
   57.7282   41.3812    6.0965 P   0  0  0  0  0  0  0  0  0  0  0  0
   56.6797   41.6803    7.1089 O   0  0  0  0  0  0  0  0  0  0  0  0
   59.0301   42.1592    6.3777 O   0  0  0  0  0  0  0  0  0  0  0  0
   56.5041   42.6343    7.1205 H   0  0  0  0  0  0  0  0  0  0  0  0
   58.1128   39.7722    5.9872 N   0  0  0  0  0  0  0  0  0  0  0  0
   58.5712   39.6486    5.0844 H   0  0  0  0  0  0  0  0  0  0  0  0
   58.9530   39.1223    6.9584 C   0  0  0  0  0  0  0  0  0  0  0  0
   58.8265   39.6717    8.3611 C   0  0  0  0  0  0  0  0  0  0  0  0
   57.8917   39.4020    9.0999 O   0  0  0  0  0  0  0  0  0  0  0  0
   59.8375   40.5301    8.7500 N   0  0  0  0  0  0  0  0  0  0  0  0
   60.5610   40.7244    8.1113 H   0  0  0  0  0  0  0  0  0  0  0  0
   59.8795   41.1487   10.0385 C   0  0  0  0  0  0  0  0  0  0  0  0
   60.0499   42.6280    9.8696 C   0  0  0  0  0  0  0  0  0  0  0  0
   59.4728   43.4294   10.6445 O   0  0  0  0  0  0  0  0  0  0  0  0
   60.8111   42.9963    8.9415 O   0  0  0  0  0  0  0  0  0  0  0  0
   61.2190   42.3588    8.3891 H   0  0  0  0  0  0  0  0  0  0  0  0
   60.8375   40.4800   11.0059 C   0  0  0  0  0  0  0  0  0  0  0  0
   60.4465   41.1100   13.4371 C   0  0  0  0  0  0  0  0  0  0  0  0
   60.1987   40.0757   12.3353 C   0  0  0  0  0  0  0  0  0  0  0  0
   60.7855   38.7318   12.8031 C   0  0  0  0  0  0  0  0  0  0  0  0
   57.1151   41.7482    4.4349 C   0  0  0  0  0  0  0  0  0  0  0  0
   56.3028   40.6407    3.9564 N   0  0  0  0  0  0  0  0  0  0  0  0
   54.9604   40.8471    3.6411 C   0  0  0  0  0  0  0  0  0  0  0  0
   54.4204   41.9112    3.6312 O   0  0  0  0  0  0  0  0  0  0  0  0
   56.7006   39.7458    3.8551 H   0  0  0  0  0  0  0  0  0  0  0  0
   54.2821   39.7034    3.2932 O   0  0  0  0  0  0  0  0  0  0  0  0
   54.9093   38.9896    2.2047 C   0  0  0  0  0  0  0  0  0  0  0  0
   54.0027   37.7712    1.9966 C   0  0  0  0  0  0  0  0  0  0  0  0
   54.2988   36.8264    1.0315 C   0  0  0  0  0  0  0  0  0  0  0  0
   53.4375   35.7568    0.8206 C   0  0  0  0  0  0  0  0  0  0  0  0
   52.3143   35.5852    1.6127 C   0  0  0  0  0  0  0  0  0  0  0  0
   52.0483   36.5462    2.5792 C   0  0  0  0  0  0  0  0  0  0  0  0
   52.8749   37.6391    2.7610 C   0  0  0  0  0  0  0  0  0  0  0  0
 32 33  2  0  0  0
 32 31  1  0  0  0
 33 28  1  0  0  0
 31 30  2  0  0  0
 28 27  1  0  0  0
 28 29  2  0  0  0
 30 29  1  0  0  0
 27 26  1  0  0  0
 26 23  1  0  0  0
 23 24  2  0  0  0
 23 22  1  0  0  0
 22 21  1  0  0  0
 21  1  1  0  0  0
  3  1  2  0  0  0
  2  1  1  0  0  0
  1  5  1  0  0  0
 14 13  2  0  0  0
 15 13  1  0  0  0
 13 12  1  0  0  0
  5  7  1  0  0  0
 12 10  1  0  0  0
 12 17  1  0  0  0
 10  8  1  0  0  0
  8  7  1  0  0  0
  8  9  2  0  0  0
 17 19  1  0  0  0
 19 18  1  0  0  0
 19 20  1  0  0  0
  5  6  1  0  0  0
 10 11  1  0  0  0
 15 16  1  0  0  0
  2  4  1  0  0  0
 22 25  1  0  0  0
M  END
> <minimizedAffinity>
-7.87345

$$$$
5M9W_7GR_A_412


 33 33  0  0  0  0  0  0  0  0999 V2000
   58.1092   39.0358    7.0924 P   0  0  0  0  0  0  0  0  0  0  0  0
   59.1330   38.9932    6.0135 O   0  0  0  0  0  0  0  0  0  0  0  0
   58.6631   38.4916    8.4252 O   0  0  0  0  0  0  0  0  0  0  0  0
   59.4449   38.0818    5.8995 H   0  0  0  0  0  0  0  0  0  0  0  0
   57.5006   40.5514    7.3774 N   0  0  0  0  0  0  0  0  0  0  0  0
   57.2646   40.5827    8.3693 H   0  0  0  0  0  0  0  0  0  0  0  0
   58.2633   41.7417    7.1067 C   0  0  0  0  0  0  0  0  0  0  0  0
   59.3478   42.0323    8.1190 C   0  0  0  0  0  0  0  0  0  0  0  0
   60.3432   42.6904    7.8578 O   0  0  0  0  0  0  0  0  0  0  0  0
   59.1498   41.4767    9.3690 N   0  0  0  0  0  0  0  0  0  0  0  0
   58.3365   40.9437    9.5232 H   0  0  0  0  0  0  0  0  0  0  0  0
   60.0733   41.6414   10.4481 C   0  0  0  0  0  0  0  0  0  0  0  0
   60.6985   40.3175   10.7680 C   0  0  0  0  0  0  0  0  0  0  0  0
   61.9428   40.2144   10.8990 O   0  0  0  0  0  0  0  0  0  0  0  0
   59.9090   39.3529   10.9181 O   0  0  0  0  0  0  0  0  0  0  0  0
   58.9871   39.4807   10.8094 H   0  0  0  0  0  0  0  0  0  0  0  0
   59.5033   42.4046   11.6286 C   0  0  0  0  0  0  0  0  0  0  0  0
   61.1646   44.2003   10.9386 C   0  0  0  0  0  0  0  0  0  0  0  0
   59.8253   43.8996   11.6175 C   0  0  0  0  0  0  0  0  0  0  0  0
   59.8959   44.4238   13.0630 C   0  0  0  0  0  0  0  0  0  0  0  0
   56.6361   38.1130    6.5925 C   0  0  0  0  0  0  0  0  0  0  0  0
   55.9158   38.8556    5.5702 N   0  0  0  0  0  0  0  0  0  0  0  0
   55.0189   38.1948    4.7317 C   0  0  0  0  0  0  0  0  0  0  0  0
   54.6995   37.0506    4.8448 O   0  0  0  0  0  0  0  0  0  0  0  0
   56.0614   39.8241    5.4704 H   0  0  0  0  0  0  0  0  0  0  0  0
   54.4775   38.9894    3.7496 O   0  0  0  0  0  0  0  0  0  0  0  0
   55.0846   38.7735    2.4564 C   0  0  0  0  0  0  0  0  0  0  0  0
   55.4637   40.1838    1.9908 C   0  0  0  0  0  0  0  0  0  0  0  0
   56.0348   40.3884    0.7483 C   0  0  0  0  0  0  0  0  0  0  0  0
   56.4211   41.6667    0.3644 C   0  0  0  0  0  0  0  0  0  0  0  0
   56.1802   42.7558    1.1855 C   0  0  0  0  0  0  0  0  0  0  0  0
   55.5975   42.5193    2.4236 C   0  0  0  0  0  0  0  0  0  0  0  0
   55.2558   41.2436    2.8318 C   0  0  0  0  0  0  0  0  0  0  0  0
 32 33  2  0  0  0
 32 31  1  0  0  0
 33 28  1  0  0  0
 31 30  2  0  0  0
 28 27  1  0  0  0
 28 29  2  0  0  0
 30 29  1  0  0  0
 27 26  1  0  0  0
 26 23  1  0  0  0
 23 24  2  0  0  0
 23 22  1  0  0  0
 22 21  1  0  0  0
 21  1  1  0  0  0
  3  1  2  0  0  0
  2  1  1  0  0  0
  1  5  1  0  0  0
 14 13  2  0  0  0
 15 13  1  0  0  0
 13 12  1  0  0  0
  5  7  1  0  0  0
 12 10  1  0  0  0
 12 17  1  0  0  0
 10  8  1  0  0  0
  8  7  1  0  0  0
  8  9  2  0  0  0
 17 19  1  0  0  0
 19 18  1  0  0  0
 19 20  1  0  0  0
  5  6  1  0  0  0
 10 11  1  0  0  0
 15 16  1  0  0  0
  2  4  1  0  0  0
 22 25  1  0  0  0
M  END
> <minimizedAffinity>
-7.75901

$$$$
5M9W_7GR_A_412


 33 33  0  0  0  0  0  0  0  0999 V2000
   58.0846   38.1935    7.7176 P   0  0  0  0  0  0  0  0  0  0  0  0
   57.0912   38.4381    8.7981 O   0  0  0  0  0  0  0  0  0  0  0  0
   57.8417   36.8415    7.0158 O   0  0  0  0  0  0  0  0  0  0  0  0
   57.1297   37.7143    9.4427 H   0  0  0  0  0  0  0  0  0  0  0  0
   58.1090   39.3725    6.5521 N   0  0  0  0  0  0  0  0  0  0  0  0
   57.6117   38.9896    5.7480 H   0  0  0  0  0  0  0  0  0  0  0  0
   57.5570   40.6818    6.7816 C   0  0  0  0  0  0  0  0  0  0  0  0
   57.5007   41.5600    5.5523 C   0  0  0  0  0  0  0  0  0  0  0  0
   57.9184   42.7078    5.5345 O   0  0  0  0  0  0  0  0  0  0  0  0
   56.9155   40.9810    4.4421 N   0  0  0  0  0  0  0  0  0  0  0  0
   56.5833   40.0570    4.5137 H   0  0  0  0  0  0  0  0  0  0  0  0
   56.7709   41.6640    3.1943 C   0  0  0  0  0  0  0  0  0  0  0  0
   55.3956   42.2535    3.1117 C   0  0  0  0  0  0  0  0  0  0  0  0
   54.4275   41.6978    3.6861 O   0  0  0  0  0  0  0  0  0  0  0  0
   55.2896   43.3265    2.4684 O   0  0  0  0  0  0  0  0  0  0  0  0
   56.0428   43.7023    2.0567 H   0  0  0  0  0  0  0  0  0  0  0  0
   57.2114   40.8455    1.9956 C   0  0  0  0  0  0  0  0  0  0  0  0
   56.0369   39.0365    0.6507 C   0  0  0  0  0  0  0  0  0  0  0  0
   56.0842   40.5235    1.0134 C   0  0  0  0  0  0  0  0  0  0  0  0
   56.2862   41.3243   -0.2856 C   0  0  0  0  0  0  0  0  0  0  0  0
   59.7642   38.2707    8.3841 C   0  0  0  0  0  0  0  0  0  0  0  0
   59.8903   39.4224    9.2634 N   0  0  0  0  0  0  0  0  0  0  0  0
   61.1004   39.6773    9.9076 C   0  0  0  0  0  0  0  0  0  0  0  0
   62.1114   39.0723    9.7189 O   0  0  0  0  0  0  0  0  0  0  0  0
   59.1218   40.0215    9.4038 H   0  0  0  0  0  0  0  0  0  0  0  0
   61.0596   40.7369   10.7820 O   0  0  0  0  0  0  0  0  0  0  0  0
   60.0216   41.6891   10.4601 C   0  0  0  0  0  0  0  0  0  0  0  0
   59.9452   42.5807   11.7046 C   0  0  0  0  0  0  0  0  0  0  0  0
   59.5177   43.8922   11.6094 C   0  0  0  0  0  0  0  0  0  0  0  0
   59.5055   44.7015   12.7387 C   0  0  0  0  0  0  0  0  0  0  0  0
   59.8539   44.1922   13.9788 C   0  0  0  0  0  0  0  0  0  0  0  0
   60.2710   42.8692   14.0435 C   0  0  0  0  0  0  0  0  0  0  0  0
   60.3322   42.0728   12.9154 C   0  0  0  0  0  0  0  0  0  0  0  0
 32 33  2  0  0  0
 32 31  1  0  0  0
 33 28  1  0  0  0
 31 30  2  0  0  0
 28 27  1  0  0  0
 28 29  2  0  0  0
 30 29  1  0  0  0
 27 26  1  0  0  0
 26 23  1  0  0  0
 23 24  2  0  0  0
 23 22  1  0  0  0
 22 21  1  0  0  0
 21  1  1  0  0  0
  3  1  2  0  0  0
  2  1  1  0  0  0
  1  5  1  0  0  0
 14 13  2  0  0  0
 15 13  1  0  0  0
 13 12  1  0  0  0
  5  7  1  0  0  0
 12 10  1  0  0  0
 12 17  1  0  0  0
 10  8  1  0  0  0
  8  7  1  0  0  0
  8  9  2  0  0  0
 17 19  1  0  0  0
 19 18  1  0  0  0
 19 20  1  0  0  0
  5  6  1  0  0  0
 10 11  1  0  0  0
 15 16  1  0  0  0
  2  4  1  0  0  0
 22 25  1  0  0  0
M  END
> <minimizedAffinity>
-7.74782

$$$$
5M9W_7GR_A_412


 33 33  0  0  0  0  0  0  0  0999 V2000
   61.0599   43.5101   13.1054 P   0  0  0  0  0  0  0  0  0  0  0  0
   60.9632   44.6316   14.0785 O   0  0  0  0  0  0  0  0  0  0  0  0
   60.2723   42.2725   13.5823 O   0  0  0  0  0  0  0  0  0  0  0  0
   61.2910   44.3386   14.9432 H   0  0  0  0  0  0  0  0  0  0  0  0
   60.5248   43.8964   11.5845 N   0  0  0  0  0  0  0  0  0  0  0  0
   61.3329   43.8137   10.9676 H   0  0  0  0  0  0  0  0  0  0  0  0
   59.4555   43.1740   10.9470 C   0  0  0  0  0  0  0  0  0  0  0  0
   59.7976   42.6309    9.5783 C   0  0  0  0  0  0  0  0  0  0  0  0
   60.8782   42.8162    9.0396 O   0  0  0  0  0  0  0  0  0  0  0  0
   58.7864   41.9228    8.9569 N   0  0  0  0  0  0  0  0  0  0  0  0
   57.9297   41.8134    9.4296 H   0  0  0  0  0  0  0  0  0  0  0  0
   58.9287   41.3418    7.6581 C   0  0  0  0  0  0  0  0  0  0  0  0
   57.8647   41.8876    6.7549 C   0  0  0  0  0  0  0  0  0  0  0  0
   58.1726   42.4908    5.6978 O   0  0  0  0  0  0  0  0  0  0  0  0
   56.6776   41.6803    7.1074 O   0  0  0  0  0  0  0  0  0  0  0  0
   56.4990   41.2247    7.9065 H   0  0  0  0  0  0  0  0  0  0  0  0
   59.0678   39.8314    7.6767 C   0  0  0  0  0  0  0  0  0  0  0  0
   58.7293   38.5196    9.8273 C   0  0  0  0  0  0  0  0  0  0  0  0
   58.0635   39.1248    8.5882 C   0  0  0  0  0  0  0  0  0  0  0  0
   57.3746   37.9867    7.8140 C   0  0  0  0  0  0  0  0  0  0  0  0
   62.7933   43.0857   12.8116 C   0  0  0  0  0  0  0  0  0  0  0  0
   62.8766   41.7890   12.1581 N   0  0  0  0  0  0  0  0  0  0  0  0
   63.8662   40.8818   12.5348 C   0  0  0  0  0  0  0  0  0  0  0  0
   64.6179   41.0365   13.4484 O   0  0  0  0  0  0  0  0  0  0  0  0
   62.2347   41.5520   11.4503 H   0  0  0  0  0  0  0  0  0  0  0  0
   63.8961   39.7355   11.7770 O   0  0  0  0  0  0  0  0  0  0  0  0
   62.6186   39.4278   11.1761 C   0  0  0  0  0  0  0  0  0  0  0  0
   62.9092   38.1967   10.3105 C   0  0  0  0  0  0  0  0  0  0  0  0
   64.0319   37.4221   10.5374 C   0  0  0  0  0  0  0  0  0  0  0  0
   64.3078   36.3411    9.7093 C   0  0  0  0  0  0  0  0  0  0  0  0
   63.4345   35.9852    8.6948 C   0  0  0  0  0  0  0  0  0  0  0  0
   62.3114   36.7776    8.4970 C   0  0  0  0  0  0  0  0  0  0  0  0
   62.0568   37.8835    9.2863 C   0  0  0  0  0  0  0  0  0  0  0  0
 32 33  2  0  0  0
 32 31  1  0  0  0
 33 28  1  0  0  0
 31 30  2  0  0  0
 28 27  1  0  0  0
 28 29  2  0  0  0
 30 29  1  0  0  0
 27 26  1  0  0  0
 26 23  1  0  0  0
 23 24  2  0  0  0
 23 22  1  0  0  0
 22 21  1  0  0  0
 21  1  1  0  0  0
  3  1  2  0  0  0
  2  1  1  0  0  0
  1  5  1  0  0  0
 14 13  2  0  0  0
 15 13  1  0  0  0
 13 12  1  0  0  0
  5  7  1  0  0  0
 12 10  1  0  0  0
 12 17  1  0  0  0
 10  8  1  0  0  0
  8  7  1  0  0  0
  8  9  2  0  0  0
 17 19  1  0  0  0
 19 18  1  0  0  0
 19 20  1  0  0  0
  5  6  1  0  0  0
 10 11  1  0  0  0
 15 16  1  0  0  0
  2  4  1  0  0  0
 22 25  1  0  0  0
M  END
> <minimizedAffinity>
-7.69123

$$$$
5M9W_7GR_A_412


 33 33  0  0  0  0  0  0  0  0999 V2000
   56.7599   41.4255    2.4656 P   0  0  0  0  0  0  0  0  0  0  0  0
   58.1371   40.9176    2.2217 O   0  0  0  0  0  0  0  0  0  0  0  0
   56.3379   42.4607    1.4026 O   0  0  0  0  0  0  0  0  0  0  0  0
   58.7593   41.6617    2.2131 H   0  0  0  0  0  0  0  0  0  0  0  0
   55.6052   40.2364    2.5015 N   0  0  0  0  0  0  0  0  0  0  0  0
   56.0896   39.3752    2.7545 H   0  0  0  0  0  0  0  0  0  0  0  0
   54.4537   40.3187    3.3612 C   0  0  0  0  0  0  0  0  0  0  0  0
   53.7377   39.0043    3.5736 C   0  0  0  0  0  0  0  0  0  0  0  0
   52.5500   38.8470    3.3352 O   0  0  0  0  0  0  0  0  0  0  0  0
   54.5185   37.9852    4.0856 N   0  0  0  0  0  0  0  0  0  0  0  0
   55.4676   38.1685    4.2724 H   0  0  0  0  0  0  0  0  0  0  0  0
   54.0095   36.6767    4.3561 C   0  0  0  0  0  0  0  0  0  0  0  0
   54.1927   36.3678    5.8110 C   0  0  0  0  0  0  0  0  0  0  0  0
   53.2555   36.5529    6.6256 O   0  0  0  0  0  0  0  0  0  0  0  0
   55.3091   35.8983    6.1423 O   0  0  0  0  0  0  0  0  0  0  0  0
   55.9773   35.7787    5.4965 H   0  0  0  0  0  0  0  0  0  0  0  0
   54.5034   35.6175    3.3891 C   0  0  0  0  0  0  0  0  0  0  0  0
   53.6999   36.2117    1.0521 C   0  0  0  0  0  0  0  0  0  0  0  0
   53.5191   35.2937    2.2644 C   0  0  0  0  0  0  0  0  0  0  0  0
   52.0769   35.4593    2.7761 C   0  0  0  0  0  0  0  0  0  0  0  0
   56.6402   42.1342    4.1253 C   0  0  0  0  0  0  0  0  0  0  0  0
   57.8537   41.8422    4.8718 N   0  0  0  0  0  0  0  0  0  0  0  0
   57.8079   41.7368    6.2614 C   0  0  0  0  0  0  0  0  0  0  0  0
   56.8084   41.7655    6.9127 O   0  0  0  0  0  0  0  0  0  0  0  0
   58.7070   41.7189    4.3964 H   0  0  0  0  0  0  0  0  0  0  0  0
   59.0353   41.5538    6.8523 O   0  0  0  0  0  0  0  0  0  0  0  0
   59.0634   40.4180    7.7450 C   0  0  0  0  0  0  0  0  0  0  0  0
   59.3945   41.0339    9.1091 C   0  0  0  0  0  0  0  0  0  0  0  0
   59.8194   40.2402   10.1585 C   0  0  0  0  0  0  0  0  0  0  0  0
   60.0638   40.8079   11.4029 C   0  0  0  0  0  0  0  0  0  0  0  0
   59.9519   42.1755   11.5916 C   0  0  0  0  0  0  0  0  0  0  0  0
   59.5312   42.9471   10.5164 C   0  0  0  0  0  0  0  0  0  0  0  0
   59.2391   42.3818    9.2893 C   0  0  0  0  0  0  0  0  0  0  0  0
 32 33  2  0  0  0
 32 31  1  0  0  0
 33 28  1  0  0  0
 31 30  2  0  0  0
 28 27  1  0  0  0
 28 29  2  0  0  0
 30 29  1  0  0  0
 27 26  1  0  0  0
 26 23  1  0  0  0
 23 24  2  0  0  0
 23 22  1  0  0  0
 22 21  1  0  0  0
 21  1  1  0  0  0
  3  1  2  0  0  0
  2  1  1  0  0  0
  1  5  1  0  0  0
 14 13  2  0  0  0
 15 13  1  0  0  0
 13 12  1  0  0  0
  5  7  1  0  0  0
 12 10  1  0  0  0
 12 17  1  0  0  0
 10  8  1  0  0  0
  8  7  1  0  0  0
  8  9  2  0  0  0
 17 19  1  0  0  0
 19 18  1  0  0  0
 19 20  1  0  0  0
  5  6  1  0  0  0
 10 11  1  0  0  0
 15 16  1  0  0  0
  2  4  1  0  0  0
 22 25  1  0  0  0
M  END
> <minimizedAffinity>
-7.59867

$$$$
5M9W_7GR_A_412


 33 33  0  0  0  0  0  0  0  0999 V2000
   54.8362   36.2738    6.3160 P   0  0  0  0  0  0  0  0  0  0  0  0
   53.4589   36.3095    6.8780 O   0  0  0  0  0  0  0  0  0  0  0  0
   55.0051   35.1307    5.2941 O   0  0  0  0  0  0  0  0  0  0  0  0
   53.2568   35.4564    7.2930 H   0  0  0  0  0  0  0  0  0  0  0  0
   55.2940   37.6858    5.5775 N   0  0  0  0  0  0  0  0  0  0  0  0
   56.2725   37.5667    5.3150 H   0  0  0  0  0  0  0  0  0  0  0  0
   54.6210   38.1866    4.4080 C   0  0  0  0  0  0  0  0  0  0  0  0
   54.9637   39.6158    4.0541 C   0  0  0  0  0  0  0  0  0  0  0  0
   54.2385   40.3255    3.3740 O   0  0  0  0  0  0  0  0  0  0  0  0
   56.1788   40.0657    4.5352 N   0  0  0  0  0  0  0  0  0  0  0  0
   56.7313   39.4487    5.0675 H   0  0  0  0  0  0  0  0  0  0  0  0
   56.6694   41.3870    4.2943 C   0  0  0  0  0  0  0  0  0  0  0  0
   57.1538   41.9755    5.5846 C   0  0  0  0  0  0  0  0  0  0  0  0
   58.2165   42.6428    5.6224 O   0  0  0  0  0  0  0  0  0  0  0  0
   56.4272   41.7820    6.5901 O   0  0  0  0  0  0  0  0  0  0  0  0
   55.6425   41.2761    6.5107 H   0  0  0  0  0  0  0  0  0  0  0  0
   55.7200   42.2534    3.4888 C   0  0  0  0  0  0  0  0  0  0  0  0
   55.3875   43.8013    1.5004 C   0  0  0  0  0  0  0  0  0  0  0  0
   56.3365   42.8360    2.2163 C   0  0  0  0  0  0  0  0  0  0  0  0
   56.6817   41.6966    1.2408 C   0  0  0  0  0  0  0  0  0  0  0  0
   56.0504   36.1200    7.6477 C   0  0  0  0  0  0  0  0  0  0  0  0
   56.7743   37.3725    7.7981 N   0  0  0  0  0  0  0  0  0  0  0  0
   58.1580   37.3605    7.9703 C   0  0  0  0  0  0  0  0  0  0  0  0
   58.8430   36.3858    7.9025 O   0  0  0  0  0  0  0  0  0  0  0  0
   56.2877   38.2281    7.7785 H   0  0  0  0  0  0  0  0  0  0  0  0
   58.7072   38.6001    8.1961 O   0  0  0  0  0  0  0  0  0  0  0  0
   59.5892   38.6219    9.3403 C   0  0  0  0  0  0  0  0  0  0  0  0
   59.6082   40.0965    9.7586 C   0  0  0  0  0  0  0  0  0  0  0  0
   60.0178   40.4664   11.0264 C   0  0  0  0  0  0  0  0  0  0  0  0
   59.9779   41.8023   11.4061 C   0  0  0  0  0  0  0  0  0  0  0  0
   59.5949   42.7831   10.5061 C   0  0  0  0  0  0  0  0  0  0  0  0
   59.1971   42.3811    9.2379 C   0  0  0  0  0  0  0  0  0  0  0  0
   59.1877   41.0488    8.8698 C   0  0  0  0  0  0  0  0  0  0  0  0
 32 33  2  0  0  0
 32 31  1  0  0  0
 33 28  1  0  0  0
 31 30  2  0  0  0
 28 27  1  0  0  0
 28 29  2  0  0  0
 30 29  1  0  0  0
 27 26  1  0  0  0
 26 23  1  0  0  0
 23 24  2  0  0  0
 23 22  1  0  0  0
 22 21  1  0  0  0
 21  1  1  0  0  0
  3  1  2  0  0  0
  2  1  1  0  0  0
  1  5  1  0  0  0
 14 13  2  0  0  0
 15 13  1  0  0  0
 13 12  1  0  0  0
  5  7  1  0  0  0
 12 10  1  0  0  0
 12 17  1  0  0  0
 10  8  1  0  0  0
  8  7  1  0  0  0
  8  9  2  0  0  0
 17 19  1  0  0  0
 19 18  1  0  0  0
 19 20  1  0  0  0
  5  6  1  0  0  0
 10 11  1  0  0  0
 15 16  1  0  0  0
  2  4  1  0  0  0
 22 25  1  0  0  0
M  END
> <minimizedAffinity>
-7.31671

$$$$
5M9W_7GR_A_412


 33 33  0  0  0  0  0  0  0  0999 V2000
   58.0321   41.2829    7.1480 P   0  0  0  0  0  0  0  0  0  0  0  0
   56.6544   41.8429    7.1953 O   0  0  0  0  0  0  0  0  0  0  0  0
   59.0020   42.2187    6.3975 O   0  0  0  0  0  0  0  0  0  0  0  0
   56.3376   41.9989    6.2919 H   0  0  0  0  0  0  0  0  0  0  0  0
   58.6803   40.9741    8.6424 N   0  0  0  0  0  0  0  0  0  0  0  0
   58.8911   39.9763    8.6618 H   0  0  0  0  0  0  0  0  0  0  0  0
   59.8633   41.6454    9.1129 C   0  0  0  0  0  0  0  0  0  0  0  0
   59.6959   42.3493   10.4403 C   0  0  0  0  0  0  0  0  0  0  0  0
   59.0022   43.3446   10.5832 O   0  0  0  0  0  0  0  0  0  0  0  0
   60.4077   41.8012   11.4906 N   0  0  0  0  0  0  0  0  0  0  0  0
   60.9622   41.0060   11.3187 H   0  0  0  0  0  0  0  0  0  0  0  0
   60.3749   42.3373   12.8158 C   0  0  0  0  0  0  0  0  0  0  0  0
   61.4064   43.4178   12.9358 C   0  0  0  0  0  0  0  0  0  0  0  0
   62.6168   43.1725   12.7105 O   0  0  0  0  0  0  0  0  0  0  0  0
   60.9815   44.5589   13.2421 O   0  0  0  0  0  0  0  0  0  0  0  0
   60.0676   44.6915   13.4009 H   0  0  0  0  0  0  0  0  0  0  0  0
   60.3970   41.2799   13.9030 C   0  0  0  0  0  0  0  0  0  0  0  0
   59.8083   38.8207   14.1608 C   0  0  0  0  0  0  0  0  0  0  0  0
   60.6240   39.8590   13.3851 C   0  0  0  0  0  0  0  0  0  0  0  0
   62.1128   39.4917   13.5191 C   0  0  0  0  0  0  0  0  0  0  0  0
   58.0141   39.6429    6.3855 C   0  0  0  0  0  0  0  0  0  0  0  0
   59.2565   38.9489    6.6859 N   0  0  0  0  0  0  0  0  0  0  0  0
   59.2264   37.6254    7.1238 C   0  0  0  0  0  0  0  0  0  0  0  0
   58.2439   36.9507    7.1812 O   0  0  0  0  0  0  0  0  0  0  0  0
   60.1181   39.4133    6.5801 H   0  0  0  0  0  0  0  0  0  0  0  0
   60.4574   37.1175    7.4638 O   0  0  0  0  0  0  0  0  0  0  0  0
   60.9944   37.7093    8.6677 C   0  0  0  0  0  0  0  0  0  0  0  0
   62.3420   37.0025    8.8522 C   0  0  0  0  0  0  0  0  0  0  0  0
   62.7139   35.9617    8.0214 C   0  0  0  0  0  0  0  0  0  0  0  0
   63.9152   35.2976    8.2368 C   0  0  0  0  0  0  0  0  0  0  0  0
   64.7823   35.7084    9.2358 C   0  0  0  0  0  0  0  0  0  0  0  0
   64.3844   36.7619   10.0482 C   0  0  0  0  0  0  0  0  0  0  0  0
   63.1685   37.3949    9.8704 C   0  0  0  0  0  0  0  0  0  0  0  0
 32 33  2  0  0  0
 32 31  1  0  0  0
 33 28  1  0  0  0
 31 30  2  0  0  0
 28 27  1  0  0  0
 28 29  2  0  0  0
 30 29  1  0  0  0
 27 26  1  0  0  0
 26 23  1  0  0  0
 23 24  2  0  0  0
 23 22  1  0  0  0
 22 21  1  0  0  0
 21  1  1  0  0  0
  3  1  2  0  0  0
  2  1  1  0  0  0
  1  5  1  0  0  0
 14 13  2  0  0  0
 15 13  1  0  0  0
 13 12  1  0  0  0
  5  7  1  0  0  0
 12 10  1  0  0  0
 12 17  1  0  0  0
 10  8  1  0  0  0
  8  7  1  0  0  0
  8  9  2  0  0  0
 17 19  1  0  0  0
 19 18  1  0  0  0
 19 20  1  0  0  0
  5  6  1  0  0  0
 10 11  1  0  0  0
 15 16  1  0  0  0
  2  4  1  0  0  0
 22 25  1  0  0  0
M  END
> <minimizedAffinity>
-7.29551

$$$$
5M9W_7GR_A_412


 33 33  0  0  0  0  0  0  0  0999 V2000
   57.8903   41.3926    6.6376 P   0  0  0  0  0  0  0  0  0  0  0  0
   59.0684   41.9016    5.8846 O   0  0  0  0  0  0  0  0  0  0  0  0
   57.5408   42.3035    7.8325 O   0  0  0  0  0  0  0  0  0  0  0  0
   59.8279   41.9748    6.4835 H   0  0  0  0  0  0  0  0  0  0  0  0
   56.5255   41.2259    5.7112 N   0  0  0  0  0  0  0  0  0  0  0  0
   55.7979   41.7710    6.1736 H   0  0  0  0  0  0  0  0  0  0  0  0
   56.4953   41.6081    4.3239 C   0  0  0  0  0  0  0  0  0  0  0  0
   55.3516   41.0106    3.5362 C   0  0  0  0  0  0  0  0  0  0  0  0
   54.4885   41.6873    2.9984 O   0  0  0  0  0  0  0  0  0  0  0  0
   55.3314   39.6296    3.4842 N   0  0  0  0  0  0  0  0  0  0  0  0
   56.0439   39.1312    3.9459 H   0  0  0  0  0  0  0  0  0  0  0  0
   54.3221   38.8924    2.7898 C   0  0  0  0  0  0  0  0  0  0  0  0
   53.2341   38.5208    3.7511 C   0  0  0  0  0  0  0  0  0  0  0  0
   52.0311   38.7463    3.4716 O   0  0  0  0  0  0  0  0  0  0  0  0
   53.5998   37.9593    4.8128 O   0  0  0  0  0  0  0  0  0  0  0  0
   54.5109   37.8132    4.9758 H   0  0  0  0  0  0  0  0  0  0  0  0
   54.8680   37.7600    1.9409 C   0  0  0  0  0  0  0  0  0  0  0  0
   54.9083   35.2776    2.4854 C   0  0  0  0  0  0  0  0  0  0  0  0
   54.0568   36.4668    2.0317 C   0  0  0  0  0  0  0  0  0  0  0  0
   53.4653   36.1297    0.6512 C   0  0  0  0  0  0  0  0  0  0  0  0
   58.1903   39.6988    7.1964 C   0  0  0  0  0  0  0  0  0  0  0  0
   58.2310   39.6620    8.6498 N   0  0  0  0  0  0  0  0  0  0  0  0
   59.3961   39.2627    9.3037 C   0  0  0  0  0  0  0  0  0  0  0  0
   60.4353   39.0359    8.7630 O   0  0  0  0  0  0  0  0  0  0  0  0
   57.4366   39.9188    9.1716 H   0  0  0  0  0  0  0  0  0  0  0  0
   59.2736   39.1797   10.6702 O   0  0  0  0  0  0  0  0  0  0  0  0
   60.4662   39.6052   11.3663 C   0  0  0  0  0  0  0  0  0  0  0  0
   60.1778   41.0674   11.7245 C   0  0  0  0  0  0  0  0  0  0  0  0
   59.7401   41.9580   10.7617 C   0  0  0  0  0  0  0  0  0  0  0  0
   59.5349   43.2917   11.0925 C   0  0  0  0  0  0  0  0  0  0  0  0
   59.6990   43.7315   12.3956 C   0  0  0  0  0  0  0  0  0  0  0  0
   60.1314   42.8115   13.3418 C   0  0  0  0  0  0  0  0  0  0  0  0
   60.3846   41.4942   13.0086 C   0  0  0  0  0  0  0  0  0  0  0  0
 32 33  2  0  0  0
 32 31  1  0  0  0
 33 28  1  0  0  0
 31 30  2  0  0  0
 28 27  1  0  0  0
 28 29  2  0  0  0
 30 29  1  0  0  0
 27 26  1  0  0  0
 26 23  1  0  0  0
 23 24  2  0  0  0
 23 22  1  0  0  0
 22 21  1  0  0  0
 21  1  1  0  0  0
  3  1  2  0  0  0
  2  1  1  0  0  0
  1  5  1  0  0  0
 14 13  2  0  0  0
 15 13  1  0  0  0
 13 12  1  0  0  0
  5  7  1  0  0  0
 12 10  1  0  0  0
 12 17  1  0  0  0
 10  8  1  0  0  0
  8  7  1  0  0  0
  8  9  2  0  0  0
 17 19  1  0  0  0
 19 18  1  0  0  0
 19 20  1  0  0  0
  5  6  1  0  0  0
 10 11  1  0  0  0
 15 16  1  0  0  0
  2  4  1  0  0  0
 22 25  1  0  0  0
M  END
> <minimizedAffinity>
-7.27350

$$$$
