4M6U_TTN_A_402


  9  8  0  0  0  0  0  0  0  0999 V2000
  -22.1890   20.6255  -24.4247 C   0  0  0  0  0  0  0  0  0  0  0  0
  -20.8268   20.7127  -23.9910 O   0  0  0  0  0  0  0  0  0  0  0  0
  -20.7987   21.0329  -23.0758 H   0  0  0  0  0  0  0  0  0  0  0  0
  -22.9299   19.6561  -23.5526 C   0  0  0  0  0  0  0  0  0  0  0  0
  -24.1622   19.8054  -23.4069 O   0  0  0  0  0  0  0  0  0  0  0  0
  -22.2859   18.7355  -23.0043 O   0  0  0  0  0  0  0  0  0  0  0  0
  -22.8189   21.9859  -24.3711 C   0  0  0  0  0  0  0  0  0  0  0  0
  -23.5020   22.3658  -25.3456 O   0  0  0  0  0  0  0  0  0  0  0  0
  -22.6363   22.6876  -23.3525 O   0  0  0  0  0  0  0  0  0  0  0  0
  4  1  1  0  0  0
  4  5  2  0  0  0
  4  6  1  0  0  0
  1  7  1  0  0  0
  1  2  1  0  0  0
  7  8  2  0  0  0
  7  9  1  0  0  0
  2  3  1  0  0  0
M  CHG 1   6  -1
M  CHG 1   9  -1
M  END
> <minimizedAffinity>
-4.81213

$$$$
4M6U_TTN_A_402


  9  8  0  0  0  0  0  0  0  0999 V2000
  -22.5150   22.1207  -24.8135 C   0  0  0  0  0  0  0  0  0  0  0  0
  -22.2925   21.8091  -26.1936 O   0  0  0  0  0  0  0  0  0  0  0  0
  -21.3649   21.5564  -26.3225 H   0  0  0  0  0  0  0  0  0  0  0  0
  -22.2243   20.9117  -23.9751 C   0  0  0  0  0  0  0  0  0  0  0  0
  -23.1584   20.4004  -23.3208 O   0  0  0  0  0  0  0  0  0  0  0  0
  -21.0581   20.4617  -23.9628 O   0  0  0  0  0  0  0  0  0  0  0  0
  -21.6422   23.2736  -24.4143 C   0  0  0  0  0  0  0  0  0  0  0  0
  -22.0773   24.0877  -23.5726 O   0  0  0  0  0  0  0  0  0  0  0  0
  -20.5120   23.3753  -24.9392 O   0  0  0  0  0  0  0  0  0  0  0  0
  4  1  1  0  0  0
  4  5  2  0  0  0
  4  6  1  0  0  0
  1  7  1  0  0  0
  1  2  1  0  0  0
  7  8  2  0  0  0
  7  9  1  0  0  0
  2  3  1  0  0  0
M  CHG 1   6  -1
M  CHG 1   9  -1
M  END
> <minimizedAffinity>
-4.55752

$$$$
4M6U_TTN_A_402


  9  8  0  0  0  0  0  0  0  0999 V2000
  -22.5073   22.1671  -24.8196 C   0  0  0  0  0  0  0  0  0  0  0  0
  -22.2214   21.8688  -26.1909 O   0  0  0  0  0  0  0  0  0  0  0  0
  -21.2838   21.6380  -26.2829 H   0  0  0  0  0  0  0  0  0  0  0  0
  -22.2236   20.9601  -23.9760 C   0  0  0  0  0  0  0  0  0  0  0  0
  -21.0679   20.4844  -23.9841 O   0  0  0  0  0  0  0  0  0  0  0  0
  -23.1547   20.4758  -23.2969 O   0  0  0  0  0  0  0  0  0  0  0  0
  -21.6781   23.3371  -24.3791 C   0  0  0  0  0  0  0  0  0  0  0  0
  -20.5111   23.4383  -24.8129 O   0  0  0  0  0  0  0  0  0  0  0  0
  -22.1874   24.1668  -23.5945 O   0  0  0  0  0  0  0  0  0  0  0  0
  4  1  1  0  0  0
  4  5  2  0  0  0
  4  6  1  0  0  0
  1  7  1  0  0  0
  1  2  1  0  0  0
  7  8  2  0  0  0
  7  9  1  0  0  0
  2  3  1  0  0  0
M  CHG 1   6  -1
M  CHG 1   9  -1
M  END
> <minimizedAffinity>
-4.55495

$$$$
4M6U_TTN_A_402


  9  8  0  0  0  0  0  0  0  0999 V2000
  -22.3408   22.0228  -24.9958 C   0  0  0  0  0  0  0  0  0  0  0  0
  -23.7222   22.0851  -25.3685 O   0  0  0  0  0  0  0  0  0  0  0  0
  -24.2613   22.2657  -24.5826 H   0  0  0  0  0  0  0  0  0  0  0  0
  -21.9199   23.3400  -24.4155 C   0  0  0  0  0  0  0  0  0  0  0  0
  -20.7026   23.6229  -24.3978 O   0  0  0  0  0  0  0  0  0  0  0  0
  -22.8033   24.1049  -23.9713 O   0  0  0  0  0  0  0  0  0  0  0  0
  -22.1390   20.9118  -24.0082 C   0  0  0  0  0  0  0  0  0  0  0  0
  -23.1096   20.5512  -23.3094 O   0  0  0  0  0  0  0  0  0  0  0  0
  -21.0066   20.3888  -23.9227 O   0  0  0  0  0  0  0  0  0  0  0  0
  4  1  1  0  0  0
  4  5  2  0  0  0
  4  6  1  0  0  0
  1  7  1  0  0  0
  1  2  1  0  0  0
  7  8  2  0  0  0
  7  9  1  0  0  0
  2  3  1  0  0  0
M  CHG 1   6  -1
M  CHG 1   9  -1
M  END
> <minimizedAffinity>
-4.46221

$$$$
4M6U_TTN_A_402


  9  8  0  0  0  0  0  0  0  0999 V2000
  -21.6860   22.6385  -24.8203 C   0  0  0  0  0  0  0  0  0  0  0  0
  -20.5009   22.4994  -25.6122 O   0  0  0  0  0  0  0  0  0  0  0  0
  -20.6563   21.8496  -26.3154 H   0  0  0  0  0  0  0  0  0  0  0  0
  -22.8106   23.1249  -25.6851 C   0  0  0  0  0  0  0  0  0  0  0  0
  -22.9242   22.6543  -26.8374 O   0  0  0  0  0  0  0  0  0  0  0  0
  -23.5916   23.9831  -25.2200 O   0  0  0  0  0  0  0  0  0  0  0  0
  -22.0245   21.3196  -24.1907 C   0  0  0  0  0  0  0  0  0  0  0  0
  -21.0969   20.5186  -23.9488 O   0  0  0  0  0  0  0  0  0  0  0  0
  -23.2225   21.0727  -23.9318 O   0  0  0  0  0  0  0  0  0  0  0  0
  4  1  1  0  0  0
  4  5  2  0  0  0
  4  6  1  0  0  0
  1  7  1  0  0  0
  1  2  1  0  0  0
  7  8  2  0  0  0
  7  9  1  0  0  0
  2  3  1  0  0  0
M  CHG 1   6  -1
M  CHG 1   9  -1
M  END
> <minimizedAffinity>
-4.26080

$$$$
4M6U_TTN_A_402


  9  8  0  0  0  0  0  0  0  0999 V2000
  -23.1142   21.9264  -24.0459 C   0  0  0  0  0  0  0  0  0  0  0  0
  -23.8705   20.7239  -24.2272 O   0  0  0  0  0  0  0  0  0  0  0  0
  -23.7657   20.4103  -25.1391 H   0  0  0  0  0  0  0  0  0  0  0  0
  -21.6621   21.6456  -24.2944 C   0  0  0  0  0  0  0  0  0  0  0  0
  -21.1998   20.5383  -23.9448 O   0  0  0  0  0  0  0  0  0  0  0  0
  -20.9694   22.5306  -24.8419 O   0  0  0  0  0  0  0  0  0  0  0  0
  -23.6242   22.9836  -24.9800 C   0  0  0  0  0  0  0  0  0  0  0  0
  -23.8150   24.1339  -24.5319 O   0  0  0  0  0  0  0  0  0  0  0  0
  -23.8387   22.6728  -26.1719 O   0  0  0  0  0  0  0  0  0  0  0  0
  4  1  1  0  0  0
  4  5  2  0  0  0
  4  6  1  0  0  0
  1  7  1  0  0  0
  1  2  1  0  0  0
  7  8  2  0  0  0
  7  9  1  0  0  0
  2  3  1  0  0  0
M  CHG 1   6  -1
M  CHG 1   9  -1
M  END
> <minimizedAffinity>
-4.10997

$$$$
4M6U_TTN_A_402


  9  8  0  0  0  0  0  0  0  0999 V2000
  -21.5801   22.5770  -25.1104 C   0  0  0  0  0  0  0  0  0  0  0  0
  -20.7966   23.5188  -24.3686 O   0  0  0  0  0  0  0  0  0  0  0  0
  -21.3226   23.8681  -23.6323 H   0  0  0  0  0  0  0  0  0  0  0  0
  -21.9718   21.4386  -24.2161 C   0  0  0  0  0  0  0  0  0  0  0  0
  -21.1203   20.5604  -23.9598 O   0  0  0  0  0  0  0  0  0  0  0  0
  -23.1359   21.4118  -23.7611 O   0  0  0  0  0  0  0  0  0  0  0  0
  -22.7918   23.2636  -25.6678 C   0  0  0  0  0  0  0  0  0  0  0  0
  -23.1879   24.3135  -25.1188 O   0  0  0  0  0  0  0  0  0  0  0  0
  -23.3589   22.7587  -26.6611 O   0  0  0  0  0  0  0  0  0  0  0  0
  4  1  1  0  0  0
  4  5  2  0  0  0
  4  6  1  0  0  0
  1  7  1  0  0  0
  1  2  1  0  0  0
  7  8  2  0  0  0
  7  9  1  0  0  0
  2  3  1  0  0  0
M  CHG 1   6  -1
M  CHG 1   9  -1
M  END
> <minimizedAffinity>
-4.07560

$$$$
4M6U_TTN_A_402


  9  8  0  0  0  0  0  0  0  0999 V2000
  -23.3185   21.8361  -24.2975 C   0  0  0  0  0  0  0  0  0  0  0  0
  -23.7514   22.2464  -22.9954 O   0  0  0  0  0  0  0  0  0  0  0  0
  -23.2265   23.0088  -22.7055 H   0  0  0  0  0  0  0  0  0  0  0  0
  -23.5241   22.9597  -25.2694 C   0  0  0  0  0  0  0  0  0  0  0  0
  -23.7085   24.1113  -24.8202 O   0  0  0  0  0  0  0  0  0  0  0  0
  -23.5033   22.7008  -26.4922 O   0  0  0  0  0  0  0  0  0  0  0  0
  -21.8747   21.4329  -24.2404 C   0  0  0  0  0  0  0  0  0  0  0  0
  -21.0065   22.2801  -24.5384 O   0  0  0  0  0  0  0  0  0  0  0  0
  -21.5956   20.2637  -23.8963 O   0  0  0  0  0  0  0  0  0  0  0  0
  4  1  1  0  0  0
  4  5  2  0  0  0
  4  6  1  0  0  0
  1  7  1  0  0  0
  1  2  1  0  0  0
  7  8  2  0  0  0
  7  9  1  0  0  0
  2  3  1  0  0  0
M  CHG 1   6  -1
M  CHG 1   9  -1
M  END
> <minimizedAffinity>
-3.95128

$$$$
4M6U_TTN_A_402


  9  8  0  0  0  0  0  0  0  0999 V2000
  -23.1461   22.1236  -23.6554 C   0  0  0  0  0  0  0  0  0  0  0  0
  -21.8895   22.7158  -24.0037 O   0  0  0  0  0  0  0  0  0  0  0  0
  -21.6412   22.4432  -24.9008 H   0  0  0  0  0  0  0  0  0  0  0  0
  -24.2020   22.5938  -24.6110 C   0  0  0  0  0  0  0  0  0  0  0  0
  -23.9800   22.5035  -25.8377 O   0  0  0  0  0  0  0  0  0  0  0  0
  -25.2642   23.0585  -24.1436 O   0  0  0  0  0  0  0  0  0  0  0  0
  -23.0204   20.6291  -23.6869 C   0  0  0  0  0  0  0  0  0  0  0  0
  -24.0460   19.9401  -23.5024 O   0  0  0  0  0  0  0  0  0  0  0  0
  -21.8935   20.1300  -23.8971 O   0  0  0  0  0  0  0  0  0  0  0  0
  4  1  1  0  0  0
  4  5  2  0  0  0
  4  6  1  0  0  0
  1  7  1  0  0  0
  1  2  1  0  0  0
  7  8  2  0  0  0
  7  9  1  0  0  0
  2  3  1  0  0  0
M  CHG 1   6  -1
M  CHG 1   9  -1
M  END
> <minimizedAffinity>
-3.94325

$$$$
4M6U_TTN_A_402


  9  8  0  0  0  0  0  0  0  0999 V2000
  -21.6090   22.7971  -24.7404 C   0  0  0  0  0  0  0  0  0  0  0  0
  -21.6793   23.7626  -23.6850 O   0  0  0  0  0  0  0  0  0  0  0  0
  -22.5828   23.7916  -23.3330 H   0  0  0  0  0  0  0  0  0  0  0  0
  -21.9597   21.4419  -24.2022 C   0  0  0  0  0  0  0  0  0  0  0  0
  -23.1611   21.1821  -23.9758 O   0  0  0  0  0  0  0  0  0  0  0  0
  -21.0363   20.6238  -24.0004 O   0  0  0  0  0  0  0  0  0  0  0  0
  -22.5432   23.1946  -25.8448 C   0  0  0  0  0  0  0  0  0  0  0  0
  -23.3375   24.1375  -25.6438 O   0  0  0  0  0  0  0  0  0  0  0  0
  -22.4908   22.5667  -26.9248 O   0  0  0  0  0  0  0  0  0  0  0  0
  4  1  1  0  0  0
  4  5  2  0  0  0
  4  6  1  0  0  0
  1  7  1  0  0  0
  1  2  1  0  0  0
  7  8  2  0  0  0
  7  9  1  0  0  0
  2  3  1  0  0  0
M  CHG 1   6  -1
M  CHG 1   9  -1
M  END
> <minimizedAffinity>
-3.93178

$$$$
