4JWK_CTN_A_201


 22 23  0  0  0  0  0  0  0  0999 V2000
    3.1587   16.8396   30.0793 C   0  0  0  0  0  0  0  0  0  0  0  0
    2.7940   15.4892   29.7446 O   0  0  0  0  0  0  0  0  0  0  0  0
    1.9771   15.5912   28.5637 C   0  0  0  0  0  0  0  0  0  0  0  0
    1.3974   17.0044   28.6283 C   0  0  0  0  0  0  0  0  0  0  0  0
    1.9336   17.7552   27.5286 O   0  0  0  0  0  0  0  0  0  0  0  0
    1.8585   17.5731   29.9571 C   0  0  0  0  0  0  0  0  0  0  0  0
    2.1021   18.9783   29.9168 O   0  0  0  0  0  0  0  0  0  0  0  0
    2.9026   17.7440   27.5713 H   0  0  0  0  0  0  0  0  0  0  0  0
    2.7427   19.1754   29.2156 H   0  0  0  0  0  0  0  0  0  0  0  0
    0.8755   14.6188   28.4003 N   0  0  0  0  0  0  0  0  0  0  0  0
    0.7867   13.6629   29.3424 C   0  0  0  0  0  0  0  0  0  0  0  0
   -0.1924   12.6777   29.3034 C   0  0  0  0  0  0  0  0  0  0  0  0
   -1.1071   12.6763   28.2597 C   0  0  0  0  0  0  0  0  0  0  0  0
   -1.0269   13.6279   27.2948 N   0  0  0  0  0  0  0  0  0  0  0  0
   -0.0690   14.5999   27.3263 C   0  0  0  0  0  0  0  0  0  0  0  0
   -0.0573   15.4508   26.4070 O   0  0  0  0  0  0  0  0  0  0  0  0
   -2.0687   11.7160   28.2212 N   0  0  0  0  0  0  0  0  0  0  0  0
   -2.1117   11.0337   28.9296 H   0  0  0  0  0  0  0  0  0  0  0  0
   -2.7220   11.7028   27.4848 H   0  0  0  0  0  0  0  0  0  0  0  0
    3.5198   16.0616   32.3569 O   0  0  0  0  0  0  0  0  0  0  0  0
    3.9159   17.0603   31.3857 C   0  0  0  0  0  0  0  0  0  0  0  0
    4.0037   16.2062   33.1850 H   0  0  0  0  0  0  0  0  0  0  0  0
 20 21  1  0  0  0
 21  1  1  0  0  0
  1  2  1  0  0  0
  1  6  1  0  0  0
  2  3  1  0  0  0
  3 10  1  0  0  0
  3  4  1  0  0  0
 10 11  1  0  0  0
 10 15  1  0  0  0
 11 12  2  0  0  0
 12 13  1  0  0  0
 13 14  2  0  0  0
 13 17  1  0  0  0
 14 15  1  0  0  0
 15 16  2  0  0  0
  4  5  1  0  0  0
  4  6  1  0  0  0
  6  7  1  0  0  0
 20 22  1  0  0  0
 17 18  1  0  0  0
 17 19  1  0  0  0
  5  8  1  0  0  0
  7  9  1  0  0  0
M  END
> <minimizedAffinity>
-6.51838

$$$$
4JWK_CTN_A_201


 22 23  0  0  0  0  0  0  0  0999 V2000
   -1.6328   14.0298   29.0435 C   0  0  0  0  0  0  0  0  0  0  0  0
   -1.0837   15.2240   29.6274 O   0  0  0  0  0  0  0  0  0  0  0  0
    0.0416   15.5756   28.8012 C   0  0  0  0  0  0  0  0  0  0  0  0
    0.4667   14.2534   28.1622 C   0  0  0  0  0  0  0  0  0  0  0  0
    0.2327   14.3474   26.7491 O   0  0  0  0  0  0  0  0  0  0  0  0
   -0.4153   13.1934   28.7948 C   0  0  0  0  0  0  0  0  0  0  0  0
   -0.7404   12.1248   27.9071 O   0  0  0  0  0  0  0  0  0  0  0  0
   -0.7003   14.5594   26.5893 H   0  0  0  0  0  0  0  0  0  0  0  0
   -1.1523   12.4841   27.1057 H   0  0  0  0  0  0  0  0  0  0  0  0
    1.2109   16.1992   29.4565 N   0  0  0  0  0  0  0  0  0  0  0  0
    1.4125   15.8684   30.7446 C   0  0  0  0  0  0  0  0  0  0  0  0
    2.4657   16.3920   31.4844 C   0  0  0  0  0  0  0  0  0  0  0  0
    3.3369   17.2863   30.8786 C   0  0  0  0  0  0  0  0  0  0  0  0
    3.1434   17.6391   29.5820 N   0  0  0  0  0  0  0  0  0  0  0  0
    2.1122   17.1283   28.8478 C   0  0  0  0  0  0  0  0  0  0  0  0
    1.9967   17.4919   27.6546 O   0  0  0  0  0  0  0  0  0  0  0  0
    4.3706   17.7973   31.5988 N   0  0  0  0  0  0  0  0  0  0  0  0
    4.4956   17.5301   32.5381 H   0  0  0  0  0  0  0  0  0  0  0  0
    4.9942   18.4344   31.1811 H   0  0  0  0  0  0  0  0  0  0  0  0
   -3.5139   12.4935   28.8875 O   0  0  0  0  0  0  0  0  0  0  0  0
   -2.7634   13.3345   29.7966 C   0  0  0  0  0  0  0  0  0  0  0  0
   -4.2310   12.0541   29.3709 H   0  0  0  0  0  0  0  0  0  0  0  0
 20 21  1  0  0  0
 21  1  1  0  0  0
  1  2  1  0  0  0
  1  6  1  0  0  0
  2  3  1  0  0  0
  3 10  1  0  0  0
  3  4  1  0  0  0
 10 11  1  0  0  0
 10 15  1  0  0  0
 11 12  2  0  0  0
 12 13  1  0  0  0
 13 14  2  0  0  0
 13 17  1  0  0  0
 14 15  1  0  0  0
 15 16  2  0  0  0
  4  5  1  0  0  0
  4  6  1  0  0  0
  6  7  1  0  0  0
 20 22  1  0  0  0
 17 18  1  0  0  0
 17 19  1  0  0  0
  5  8  1  0  0  0
  7  9  1  0  0  0
M  END
> <minimizedAffinity>
-6.15967

$$$$
4JWK_CTN_A_201


 22 23  0  0  0  0  0  0  0  0999 V2000
   -1.8445   11.3048   28.3665 C   0  0  0  0  0  0  0  0  0  0  0  0
   -0.5947   11.9218   28.0114 O   0  0  0  0  0  0  0  0  0  0  0  0
   -0.2572   12.7760   29.1199 C   0  0  0  0  0  0  0  0  0  0  0  0
   -1.6022   13.0916   29.7747 C   0  0  0  0  0  0  0  0  0  0  0  0
   -1.6108   12.4969   31.0811 O   0  0  0  0  0  0  0  0  0  0  0  0
   -2.6499   12.4596   28.8776 C   0  0  0  0  0  0  0  0  0  0  0  0
   -3.7863   11.9740   29.5907 O   0  0  0  0  0  0  0  0  0  0  0  0
   -1.4445   11.5444   31.0038 H   0  0  0  0  0  0  0  0  0  0  0  0
   -3.4964   11.3511   30.2755 H   0  0  0  0  0  0  0  0  0  0  0  0
    0.4513   14.0400   28.8265 N   0  0  0  0  0  0  0  0  0  0  0  0
    1.4159   14.3920   29.6953 C   0  0  0  0  0  0  0  0  0  0  0  0
    2.1508   15.5619   29.5471 C   0  0  0  0  0  0  0  0  0  0  0  0
    1.8817   16.3962   28.4713 C   0  0  0  0  0  0  0  0  0  0  0  0
    0.9052   16.0617   27.5896 N   0  0  0  0  0  0  0  0  0  0  0  0
    0.1795   14.9138   27.7271 C   0  0  0  0  0  0  0  0  0  0  0  0
   -0.7020   14.6636   26.8729 O   0  0  0  0  0  0  0  0  0  0  0  0
    2.6019   17.5395   28.3216 N   0  0  0  0  0  0  0  0  0  0  0  0
    3.3064   17.7661   28.9709 H   0  0  0  0  0  0  0  0  0  0  0  0
    2.4189   18.1409   27.5639 H   0  0  0  0  0  0  0  0  0  0  0  0
   -3.5203   11.2312   26.6031 O   0  0  0  0  0  0  0  0  0  0  0  0
   -2.5297   10.4447   27.3083 C   0  0  0  0  0  0  0  0  0  0  0  0
   -3.9527   10.6802   25.9320 H   0  0  0  0  0  0  0  0  0  0  0  0
 20 21  1  0  0  0
 21  1  1  0  0  0
  1  2  1  0  0  0
  1  6  1  0  0  0
  2  3  1  0  0  0
  3 10  1  0  0  0
  3  4  1  0  0  0
 10 11  1  0  0  0
 10 15  1  0  0  0
 11 12  2  0  0  0
 12 13  1  0  0  0
 13 14  2  0  0  0
 13 17  1  0  0  0
 14 15  1  0  0  0
 15 16  2  0  0  0
  4  5  1  0  0  0
  4  6  1  0  0  0
  6  7  1  0  0  0
 20 22  1  0  0  0
 17 18  1  0  0  0
 17 19  1  0  0  0
  5  8  1  0  0  0
  7  9  1  0  0  0
M  END
> <minimizedAffinity>
-5.84860

$$$$
4JWK_CTN_A_201


 22 23  0  0  0  0  0  0  0  0999 V2000
    1.7974   15.2222   29.3710 C   0  0  0  0  0  0  0  0  0  0  0  0
    1.2797   13.8844   29.4759 O   0  0  0  0  0  0  0  0  0  0  0  0
    0.2643   13.7826   28.4606 C   0  0  0  0  0  0  0  0  0  0  0  0
   -0.1893   15.2253   28.2363 C   0  0  0  0  0  0  0  0  0  0  0  0
    0.1826   15.6058   26.9032 O   0  0  0  0  0  0  0  0  0  0  0  0
    0.5538   16.0509   29.2697 C   0  0  0  0  0  0  0  0  0  0  0  0
    0.8862   17.3614   28.8138 O   0  0  0  0  0  0  0  0  0  0  0  0
    1.1389   15.4902   26.7888 H   0  0  0  0  0  0  0  0  0  0  0  0
    1.3956   17.2979   27.9907 H   0  0  0  0  0  0  0  0  0  0  0  0
   -0.9156   12.9389   28.7465 N   0  0  0  0  0  0  0  0  0  0  0  0
   -1.1736   12.7048   30.0456 C   0  0  0  0  0  0  0  0  0  0  0  0
   -2.2429   11.9174   30.4549 C   0  0  0  0  0  0  0  0  0  0  0  0
   -3.0706   11.3517   29.4953 C   0  0  0  0  0  0  0  0  0  0  0  0
   -2.8198   11.5695   28.1790 N   0  0  0  0  0  0  0  0  0  0  0  0
   -1.7725   12.3427   27.7686 C   0  0  0  0  0  0  0  0  0  0  0  0
   -1.6034   12.5074   26.5383 O   0  0  0  0  0  0  0  0  0  0  0  0
   -4.1199   10.5841   29.8930 N   0  0  0  0  0  0  0  0  0  0  0  0
   -4.2866   10.4370   30.8520 H   0  0  0  0  0  0  0  0  0  0  0  0
   -4.7130   10.1754   29.2219 H   0  0  0  0  0  0  0  0  0  0  0  0
    3.6498   16.7140   29.8873 O   0  0  0  0  0  0  0  0  0  0  0  0
    2.8013   15.6726   30.4285 C   0  0  0  0  0  0  0  0  0  0  0  0
    4.2857   16.9966   30.5630 H   0  0  0  0  0  0  0  0  0  0  0  0
 20 21  1  0  0  0
 21  1  1  0  0  0
  1  2  1  0  0  0
  1  6  1  0  0  0
  2  3  1  0  0  0
  3 10  1  0  0  0
  3  4  1  0  0  0
 10 11  1  0  0  0
 10 15  1  0  0  0
 11 12  2  0  0  0
 12 13  1  0  0  0
 13 14  2  0  0  0
 13 17  1  0  0  0
 14 15  1  0  0  0
 15 16  2  0  0  0
  4  5  1  0  0  0
  4  6  1  0  0  0
  6  7  1  0  0  0
 20 22  1  0  0  0
 17 18  1  0  0  0
 17 19  1  0  0  0
  5  8  1  0  0  0
  7  9  1  0  0  0
M  END
> <minimizedAffinity>
-5.82879

$$$$
4JWK_CTN_A_201


 22 23  0  0  0  0  0  0  0  0999 V2000
    1.4078   17.0595   29.9983 C   0  0  0  0  0  0  0  0  0  0  0  0
    0.5966   16.0246   30.5812 O   0  0  0  0  0  0  0  0  0  0  0  0
    0.8715   14.8393   29.8120 C   0  0  0  0  0  0  0  0  0  0  0  0
    1.3387   15.3703   28.4567 C   0  0  0  0  0  0  0  0  0  0  0  0
    2.7175   15.0082   28.2890 O   0  0  0  0  0  0  0  0  0  0  0  0
    1.1724   16.8766   28.5304 C   0  0  0  0  0  0  0  0  0  0  0  0
    2.1626   17.5915   27.7928 O   0  0  0  0  0  0  0  0  0  0  0  0
    3.2364   15.3593   29.0295 H   0  0  0  0  0  0  0  0  0  0  0  0
    3.0453   17.3260   28.0950 H   0  0  0  0  0  0  0  0  0  0  0  0
   -0.2334   13.8789   29.6053 N   0  0  0  0  0  0  0  0  0  0  0  0
   -0.5208   13.5753   28.3269 C   0  0  0  0  0  0  0  0  0  0  0  0
   -1.5439   12.6977   27.9894 C   0  0  0  0  0  0  0  0  0  0  0  0
   -2.2958   12.1168   29.0010 C   0  0  0  0  0  0  0  0  0  0  0  0
   -2.0261   12.4189   30.2967 N   0  0  0  0  0  0  0  0  0  0  0  0
   -1.0220   13.2789   30.6368 C   0  0  0  0  0  0  0  0  0  0  0  0
   -0.8235   13.5075   31.8524 O   0  0  0  0  0  0  0  0  0  0  0  0
   -3.2949   11.2547   28.6739 N   0  0  0  0  0  0  0  0  0  0  0  0
   -3.4763   11.0473   27.7287 H   0  0  0  0  0  0  0  0  0  0  0  0
   -3.8369   10.8379   29.3822 H   0  0  0  0  0  0  0  0  0  0  0  0
    0.9565   19.3789   29.4154 O   0  0  0  0  0  0  0  0  0  0  0  0
    1.2172   18.4806   30.5209 C   0  0  0  0  0  0  0  0  0  0  0  0
    0.8362   20.2804   29.7528 H   0  0  0  0  0  0  0  0  0  0  0  0
 20 21  1  0  0  0
 21  1  1  0  0  0
  1  2  1  0  0  0
  1  6  1  0  0  0
  2  3  1  0  0  0
  3 10  1  0  0  0
  3  4  1  0  0  0
 10 11  1  0  0  0
 10 15  1  0  0  0
 11 12  2  0  0  0
 12 13  1  0  0  0
 13 14  2  0  0  0
 13 17  1  0  0  0
 14 15  1  0  0  0
 15 16  2  0  0  0
  4  5  1  0  0  0
  4  6  1  0  0  0
  6  7  1  0  0  0
 20 22  1  0  0  0
 17 18  1  0  0  0
 17 19  1  0  0  0
  5  8  1  0  0  0
  7  9  1  0  0  0
M  END
> <minimizedAffinity>
-5.78007

$$$$
4JWK_CTN_A_201


 22 23  0  0  0  0  0  0  0  0999 V2000
    1.2066   16.3355   30.0068 C   0  0  0  0  0  0  0  0  0  0  0  0
    1.2795   17.5173   30.8233 O   0  0  0  0  0  0  0  0  0  0  0  0
    1.9043   18.5183   29.9987 C   0  0  0  0  0  0  0  0  0  0  0  0
    2.7177   17.7153   28.9835 C   0  0  0  0  0  0  0  0  0  0  0  0
    2.1492   17.9361   27.6842 O   0  0  0  0  0  0  0  0  0  0  0  0
    2.5763   16.2646   29.4047 C   0  0  0  0  0  0  0  0  0  0  0  0
    2.5709   15.3547   28.3057 O   0  0  0  0  0  0  0  0  0  0  0  0
    1.2115   17.6881   27.6952 H   0  0  0  0  0  0  0  0  0  0  0  0
    1.8701   15.6038   27.6831 H   0  0  0  0  0  0  0  0  0  0  0  0
    2.7852   19.5051   30.6591 N   0  0  0  0  0  0  0  0  0  0  0  0
    2.6608   20.7786   30.2446 C   0  0  0  0  0  0  0  0  0  0  0  0
    3.4365   21.8045   30.7706 C   0  0  0  0  0  0  0  0  0  0  0  0
    4.3711   21.5082   31.7527 C   0  0  0  0  0  0  0  0  0  0  0  0
    4.5171   20.2268   32.1766 N   0  0  0  0  0  0  0  0  0  0  0  0
    3.7583   19.2135   31.6661 C   0  0  0  0  0  0  0  0  0  0  0  0
    3.9407   18.0555   32.1079 O   0  0  0  0  0  0  0  0  0  0  0  0
    5.1287   22.5106   32.2721 N   0  0  0  0  0  0  0  0  0  0  0  0
    5.0091   23.4341   31.9526 H   0  0  0  0  0  0  0  0  0  0  0  0
    5.7968   22.3129   32.9676 H   0  0  0  0  0  0  0  0  0  0  0  0
    0.4594   14.0452   29.6605 O   0  0  0  0  0  0  0  0  0  0  0  0
    0.7145   15.0520   30.6698 C   0  0  0  0  0  0  0  0  0  0  0  0
    0.1470   13.2319   30.0869 H   0  0  0  0  0  0  0  0  0  0  0  0
 20 21  1  0  0  0
 21  1  1  0  0  0
  1  2  1  0  0  0
  1  6  1  0  0  0
  2  3  1  0  0  0
  3 10  1  0  0  0
  3  4  1  0  0  0
 10 11  1  0  0  0
 10 15  1  0  0  0
 11 12  2  0  0  0
 12 13  1  0  0  0
 13 14  2  0  0  0
 13 17  1  0  0  0
 14 15  1  0  0  0
 15 16  2  0  0  0
  4  5  1  0  0  0
  4  6  1  0  0  0
  6  7  1  0  0  0
 20 22  1  0  0  0
 17 18  1  0  0  0
 17 19  1  0  0  0
  5  8  1  0  0  0
  7  9  1  0  0  0
M  END
> <minimizedAffinity>
-5.69884

$$$$
4JWK_CTN_A_201


 22 23  0  0  0  0  0  0  0  0999 V2000
   -2.9512   12.2428   29.2390 C   0  0  0  0  0  0  0  0  0  0  0  0
   -2.3768   13.5351   29.5015 O   0  0  0  0  0  0  0  0  0  0  0  0
   -1.4862   13.7927   28.4002 C   0  0  0  0  0  0  0  0  0  0  0  0
   -1.1148   12.4025   27.8837 C   0  0  0  0  0  0  0  0  0  0  0  0
   -1.6560   12.2604   26.5618 O   0  0  0  0  0  0  0  0  0  0  0  0
   -1.7591   11.4244   28.8480 C   0  0  0  0  0  0  0  0  0  0  0  0
   -2.1904   10.2161   28.2239 O   0  0  0  0  0  0  0  0  0  0  0  0
   -2.6142   12.4085   26.5871 H   0  0  0  0  0  0  0  0  0  0  0  0
   -2.7913   10.4267   27.4922 H   0  0  0  0  0  0  0  0  0  0  0  0
   -0.2511   14.5571   28.6756 N   0  0  0  0  0  0  0  0  0  0  0  0
    0.2244   14.4790   29.9314 C   0  0  0  0  0  0  0  0  0  0  0  0
    1.3692   15.1582   30.3301 C   0  0  0  0  0  0  0  0  0  0  0  0
    2.0435   15.9443   29.4065 C   0  0  0  0  0  0  0  0  0  0  0  0
    1.5729   16.0425   28.1369 N   0  0  0  0  0  0  0  0  0  0  0  0
    0.4499   15.3775   27.7367 C   0  0  0  0  0  0  0  0  0  0  0  0
    0.0755   15.5077   26.5484 O   0  0  0  0  0  0  0  0  0  0  0  0
    3.1661   16.6069   29.7927 N   0  0  0  0  0  0  0  0  0  0  0  0
    3.4930   16.5240   30.7177 H   0  0  0  0  0  0  0  0  0  0  0  0
    3.6522   17.1695   29.1474 H   0  0  0  0  0  0  0  0  0  0  0  0
   -3.3519   10.3152   30.6697 O   0  0  0  0  0  0  0  0  0  0  0  0
   -3.8379   11.6343   30.3218 C   0  0  0  0  0  0  0  0  0  0  0  0
   -3.9186    9.9330   31.3580 H   0  0  0  0  0  0  0  0  0  0  0  0
 20 21  1  0  0  0
 21  1  1  0  0  0
  1  2  1  0  0  0
  1  6  1  0  0  0
  2  3  1  0  0  0
  3 10  1  0  0  0
  3  4  1  0  0  0
 10 11  1  0  0  0
 10 15  1  0  0  0
 11 12  2  0  0  0
 12 13  1  0  0  0
 13 14  2  0  0  0
 13 17  1  0  0  0
 14 15  1  0  0  0
 15 16  2  0  0  0
  4  5  1  0  0  0
  4  6  1  0  0  0
  6  7  1  0  0  0
 20 22  1  0  0  0
 17 18  1  0  0  0
 17 19  1  0  0  0
  5  8  1  0  0  0
  7  9  1  0  0  0
M  END
> <minimizedAffinity>
-5.66242

$$$$
4JWK_CTN_A_201


 22 23  0  0  0  0  0  0  0  0999 V2000
    1.2970   17.7135   29.8455 C   0  0  0  0  0  0  0  0  0  0  0  0
    0.2677   17.0167   29.1219 O   0  0  0  0  0  0  0  0  0  0  0  0
   -0.1803   15.9686   30.0012 C   0  0  0  0  0  0  0  0  0  0  0  0
    1.0127   15.7155   30.9231 C   0  0  0  0  0  0  0  0  0  0  0  0
    0.6351   16.0990   32.2538 O   0  0  0  0  0  0  0  0  0  0  0  0
    2.1295   16.5960   30.3948 C   0  0  0  0  0  0  0  0  0  0  0  0
    2.9882   17.0957   31.4188 O   0  0  0  0  0  0  0  0  0  0  0  0
    0.3495   17.0260   32.2544 H   0  0  0  0  0  0  0  0  0  0  0  0
    2.4602   17.5676   32.0817 H   0  0  0  0  0  0  0  0  0  0  0  0
   -0.6056   14.6907   29.3914 N   0  0  0  0  0  0  0  0  0  0  0  0
    0.1146   13.6062   29.7296 C   0  0  0  0  0  0  0  0  0  0  0  0
   -0.1674   12.3450   29.2189 C   0  0  0  0  0  0  0  0  0  0  0  0
   -1.2231   12.1974   28.3303 C   0  0  0  0  0  0  0  0  0  0  0  0
   -1.9550   13.2825   27.9703 N   0  0  0  0  0  0  0  0  0  0  0  0
   -1.6855   14.5246   28.4682 C   0  0  0  0  0  0  0  0  0  0  0  0
   -2.4055   15.4807   28.0985 O   0  0  0  0  0  0  0  0  0  0  0  0
   -1.5039   10.9639   27.8322 N   0  0  0  0  0  0  0  0  0  0  0  0
   -0.9623   10.1881   28.1045 H   0  0  0  0  0  0  0  0  0  0  0  0
   -2.2487   10.8465   27.1992 H   0  0  0  0  0  0  0  0  0  0  0  0
    2.2782   18.3973   27.7258 O   0  0  0  0  0  0  0  0  0  0  0  0
    2.0673   18.8003   29.1008 C   0  0  0  0  0  0  0  0  0  0  0  0
    2.7679   19.0911   27.2571 H   0  0  0  0  0  0  0  0  0  0  0  0
 20 21  1  0  0  0
 21  1  1  0  0  0
  1  2  1  0  0  0
  1  6  1  0  0  0
  2  3  1  0  0  0
  3 10  1  0  0  0
  3  4  1  0  0  0
 10 11  1  0  0  0
 10 15  1  0  0  0
 11 12  2  0  0  0
 12 13  1  0  0  0
 13 14  2  0  0  0
 13 17  1  0  0  0
 14 15  1  0  0  0
 15 16  2  0  0  0
  4  5  1  0  0  0
  4  6  1  0  0  0
  6  7  1  0  0  0
 20 22  1  0  0  0
 17 18  1  0  0  0
 17 19  1  0  0  0
  5  8  1  0  0  0
  7  9  1  0  0  0
M  END
> <minimizedAffinity>
-5.38850

$$$$
4JWK_CTN_A_201


 22 23  0  0  0  0  0  0  0  0999 V2000
   -2.1821    9.5460   27.1630 C   0  0  0  0  0  0  0  0  0  0  0  0
   -1.1103   10.3811   27.6348 O   0  0  0  0  0  0  0  0  0  0  0  0
   -1.7038   11.2560   28.6117 C   0  0  0  0  0  0  0  0  0  0  0  0
   -3.1795   11.3152   28.2164 C   0  0  0  0  0  0  0  0  0  0  0  0
   -3.9448   10.6988   29.2627 O   0  0  0  0  0  0  0  0  0  0  0  0
   -3.2862   10.5293   26.9230 C   0  0  0  0  0  0  0  0  0  0  0  0
   -4.5250    9.8353   26.7837 O   0  0  0  0  0  0  0  0  0  0  0  0
   -3.6293    9.7924   29.4031 H   0  0  0  0  0  0  0  0  0  0  0  0
   -4.6602    9.2579   27.5512 H   0  0  0  0  0  0  0  0  0  0  0  0
   -1.1721   12.6313   28.7203 N   0  0  0  0  0  0  0  0  0  0  0  0
   -1.1202   13.3366   27.5762 C   0  0  0  0  0  0  0  0  0  0  0  0
   -0.6299   14.6360   27.5325 C   0  0  0  0  0  0  0  0  0  0  0  0
   -0.1768   15.2260   28.7040 C   0  0  0  0  0  0  0  0  0  0  0  0
   -0.2128   14.5258   29.8665 N   0  0  0  0  0  0  0  0  0  0  0  0
   -0.6941   13.2495   29.9183 C   0  0  0  0  0  0  0  0  0  0  0  0
   -0.7046   12.6642   31.0259 O   0  0  0  0  0  0  0  0  0  0  0  0
    0.2998   16.4987   28.6650 N   0  0  0  0  0  0  0  0  0  0  0  0
    0.3184   16.9915   27.8129 H   0  0  0  0  0  0  0  0  0  0  0  0
    0.6263   16.9275   29.4889 H   0  0  0  0  0  0  0  0  0  0  0  0
   -2.7623    8.8943   24.8910 O   0  0  0  0  0  0  0  0  0  0  0  0
   -1.8798    8.6031   26.0018 C   0  0  0  0  0  0  0  0  0  0  0  0
   -2.5662    8.2925   24.1559 H   0  0  0  0  0  0  0  0  0  0  0  0
 20 21  1  0  0  0
 21  1  1  0  0  0
  1  2  1  0  0  0
  1  6  1  0  0  0
  2  3  1  0  0  0
  3 10  1  0  0  0
  3  4  1  0  0  0
 10 11  1  0  0  0
 10 15  1  0  0  0
 11 12  2  0  0  0
 12 13  1  0  0  0
 13 14  2  0  0  0
 13 17  1  0  0  0
 14 15  1  0  0  0
 15 16  2  0  0  0
  4  5  1  0  0  0
  4  6  1  0  0  0
  6  7  1  0  0  0
 20 22  1  0  0  0
 17 18  1  0  0  0
 17 19  1  0  0  0
  5  8  1  0  0  0
  7  9  1  0  0  0
M  END
> <minimizedAffinity>
-5.34433

$$$$
4JWK_CTN_A_201


 22 23  0  0  0  0  0  0  0  0999 V2000
   -0.3541   13.6361   29.0705 C   0  0  0  0  0  0  0  0  0  0  0  0
    0.2148   14.2726   30.2281 O   0  0  0  0  0  0  0  0  0  0  0  0
    0.1888   15.6837   29.9448 C   0  0  0  0  0  0  0  0  0  0  0  0
    0.1882   15.7608   28.4179 C   0  0  0  0  0  0  0  0  0  0  0  0
   -1.0673   16.3182   28.0016 O   0  0  0  0  0  0  0  0  0  0  0  0
    0.3388   14.3295   27.9380 C   0  0  0  0  0  0  0  0  0  0  0  0
   -0.3535   14.0662   26.7185 O   0  0  0  0  0  0  0  0  0  0  0  0
   -1.7929   15.7775   28.3510 H   0  0  0  0  0  0  0  0  0  0  0  0
   -1.2893   14.2997   26.8210 H   0  0  0  0  0  0  0  0  0  0  0  0
    1.2906   16.5146   30.4750 N   0  0  0  0  0  0  0  0  0  0  0  0
    2.3827   15.8504   30.8937 C   0  0  0  0  0  0  0  0  0  0  0  0
    3.4856   16.5063   31.4268 C   0  0  0  0  0  0  0  0  0  0  0  0
    3.4613   17.8897   31.5339 C   0  0  0  0  0  0  0  0  0  0  0  0
    2.3637   18.5760   31.1251 N   0  0  0  0  0  0  0  0  0  0  0  0
    1.2766   17.9395   30.5991 C   0  0  0  0  0  0  0  0  0  0  0  0
    0.3004   18.6354   30.2357 O   0  0  0  0  0  0  0  0  0  0  0  0
    4.5405   18.5345   32.0514 N   0  0  0  0  0  0  0  0  0  0  0  0
    5.3280   18.0204   32.3428 H   0  0  0  0  0  0  0  0  0  0  0  0
    4.5346   19.5154   32.1348 H   0  0  0  0  0  0  0  0  0  0  0  0
   -1.0288   11.6451   27.8441 O   0  0  0  0  0  0  0  0  0  0  0  0
   -0.3259   12.1111   29.0214 C   0  0  0  0  0  0  0  0  0  0  0  0
   -1.0080   10.6757   27.8176 H   0  0  0  0  0  0  0  0  0  0  0  0
 20 21  1  0  0  0
 21  1  1  0  0  0
  1  2  1  0  0  0
  1  6  1  0  0  0
  2  3  1  0  0  0
  3 10  1  0  0  0
  3  4  1  0  0  0
 10 11  1  0  0  0
 10 15  1  0  0  0
 11 12  2  0  0  0
 12 13  1  0  0  0
 13 14  2  0  0  0
 13 17  1  0  0  0
 14 15  1  0  0  0
 15 16  2  0  0  0
  4  5  1  0  0  0
  4  6  1  0  0  0
  6  7  1  0  0  0
 20 22  1  0  0  0
 17 18  1  0  0  0
 17 19  1  0  0  0
  5  8  1  0  0  0
  7  9  1  0  0  0
M  END
> <minimizedAffinity>
-5.23002

$$$$
