4I71_AGV_A_401


 26 28  0  0  0  0  0  0  0  0999 V2000
    6.1271   21.5703   20.7659 C   0  0  0  0  0  0  0  0  0  0  0  0
    4.9823   21.4517   21.7278 C   0  0  0  0  0  0  0  0  0  0  0  0
    5.0179   20.7291   22.8967 C   0  0  0  0  0  0  0  0  0  0  0  0
    3.8138   20.8475   23.5104 N   0  0  0  0  0  0  0  0  0  0  0  0
    2.9704   21.6484   22.7666 C   0  0  0  0  0  0  0  0  0  0  0  0
    3.7027   22.0306   21.6398 C   0  0  0  0  0  0  0  0  0  0  0  0
    1.6594   22.1033   22.9619 C   0  0  0  0  0  0  0  0  0  0  0  0
    0.9349   21.8110   24.0429 N   0  0  0  0  0  0  0  0  0  0  0  0
    1.1323   22.8935   21.9982 N   0  0  0  0  0  0  0  0  0  0  0  0
    1.8684   23.1992   20.9375 C   0  0  0  0  0  0  0  0  0  0  0  0
    3.1335   22.8042   20.7000 N   0  0  0  0  0  0  0  0  0  0  0  0
    3.5751   20.4221   24.3656 H   0  0  0  0  0  0  0  0  0  0  0  0
    1.3124   21.2366   24.7478 H   0  0  0  0  0  0  0  0  0  0  0  0
    0.0228   22.1695   24.1360 H   0  0  0  0  0  0  0  0  0  0  0  0
    6.6415   20.0443   18.6768 C   0  0  0  0  0  0  0  0  0  0  0  0
    6.9298   18.5433   18.5335 C   0  0  0  0  0  0  0  0  0  0  0  0
    8.3175   18.3009   18.3083 O   0  0  0  0  0  0  0  0  0  0  0  0
    6.5837   20.2110   20.1794 N   0  0  0  0  0  0  0  0  0  0  0  0
    5.9054   18.9805   20.6926 C   0  0  0  0  0  0  0  0  0  0  0  0
    6.4285   17.9001   19.8340 C   0  0  0  0  0  0  0  0  0  0  0  0
    7.4660   17.2096   20.5581 O   0  0  0  0  0  0  0  0  0  0  0  0
    8.8327   18.6608   19.0472 H   0  0  0  0  0  0  0  0  0  0  0  0
    8.1611   17.8391   20.8060 H   0  0  0  0  0  0  0  0  0  0  0  0
    5.3089   21.9072   17.6773 O   0  0  0  0  0  0  0  0  0  0  0  0
    5.3954   20.5044   17.9355 C   0  0  0  0  0  0  0  0  0  0  0  0
    4.4842   22.0985   17.2038 H   0  0  0  0  0  0  0  0  0  0  0  0
 24 25  1  0  0  0
 25 15  1  0  0  0
 17 16  1  0  0  0
 16 15  1  0  0  0
 16 20  1  0  0  0
 15 18  1  0  0  0
 20 21  1  0  0  0
 20 19  1  0  0  0
 18 19  1  0  0  0
 18  1  1  0  0  0
  3  2  2  0  0  0
  3  4  1  0  0  0
  1  2  1  0  0  0
  2  6  1  0  0  0
  4  5  1  0  0  0
  6  5  1  0  0  0
  6 11  2  0  0  0
  5  7  2  0  0  0
 11 10  1  0  0  0
  7  8  1  0  0  0
  7  9  1  0  0  0
 10  9  2  0  0  0
 24 26  1  0  0  0
 17 22  1  0  0  0
 21 23  1  0  0  0
  4 12  1  0  0  0
  8 13  1  0  0  0
  8 14  1  0  0  0
M  END
> <minimizedAffinity>
-10.77212

$$$$
4I71_AGV_A_401


 26 28  0  0  0  0  0  0  0  0999 V2000
    6.3634   21.7041   20.6740 C   0  0  0  0  0  0  0  0  0  0  0  0
    4.9851   21.8401   21.2499 C   0  0  0  0  0  0  0  0  0  0  0  0
    3.9506   22.5136   20.6452 C   0  0  0  0  0  0  0  0  0  0  0  0
    2.8587   22.4298   21.4459 N   0  0  0  0  0  0  0  0  0  0  0  0
    3.1488   21.7006   22.5817 C   0  0  0  0  0  0  0  0  0  0  0  0
    4.4901   21.3280   22.4635 C   0  0  0  0  0  0  0  0  0  0  0  0
    2.3855   21.3026   23.6876 C   0  0  0  0  0  0  0  0  0  0  0  0
    1.0897   21.5870   23.8250 N   0  0  0  0  0  0  0  0  0  0  0  0
    3.0150   20.5774   24.6408 N   0  0  0  0  0  0  0  0  0  0  0  0
    4.2982   20.2783   24.4846 C   0  0  0  0  0  0  0  0  0  0  0  0
    5.0790   20.6205   23.4425 N   0  0  0  0  0  0  0  0  0  0  0  0
    1.9829   22.8323   21.2453 H   0  0  0  0  0  0  0  0  0  0  0  0
    0.6255   22.1142   23.1351 H   0  0  0  0  0  0  0  0  0  0  0  0
    0.5973   21.2698   24.6163 H   0  0  0  0  0  0  0  0  0  0  0  0
    6.6067   20.0454   18.6375 C   0  0  0  0  0  0  0  0  0  0  0  0
    6.7633   18.5206   18.5537 C   0  0  0  0  0  0  0  0  0  0  0  0
    8.1080   18.1533   18.2501 O   0  0  0  0  0  0  0  0  0  0  0  0
    6.6678   20.2858   20.1301 N   0  0  0  0  0  0  0  0  0  0  0  0
    5.9310   19.1411   20.7501 C   0  0  0  0  0  0  0  0  0  0  0  0
    6.3046   17.9823   19.9161 C   0  0  0  0  0  0  0  0  0  0  0  0
    7.3318   17.2421   20.6049 O   0  0  0  0  0  0  0  0  0  0  0  0
    8.7009   18.5030   18.9337 H   0  0  0  0  0  0  0  0  0  0  0  0
    8.0907   17.8224   20.7733 H   0  0  0  0  0  0  0  0  0  0  0  0
    5.3633   21.9628   17.6261 O   0  0  0  0  0  0  0  0  0  0  0  0
    5.3524   20.5728   17.9574 C   0  0  0  0  0  0  0  0  0  0  0  0
    4.5252   22.2001   17.1994 H   0  0  0  0  0  0  0  0  0  0  0  0
 24 25  1  0  0  0
 25 15  1  0  0  0
 17 16  1  0  0  0
 16 15  1  0  0  0
 16 20  1  0  0  0
 15 18  1  0  0  0
 20 21  1  0  0  0
 20 19  1  0  0  0
 18 19  1  0  0  0
 18  1  1  0  0  0
  3  2  2  0  0  0
  3  4  1  0  0  0
  1  2  1  0  0  0
  2  6  1  0  0  0
  4  5  1  0  0  0
  6  5  1  0  0  0
  6 11  2  0  0  0
  5  7  2  0  0  0
 11 10  1  0  0  0
  7  8  1  0  0  0
  7  9  1  0  0  0
 10  9  2  0  0  0
 24 26  1  0  0  0
 17 22  1  0  0  0
 21 23  1  0  0  0
  4 12  1  0  0  0
  8 13  1  0  0  0
  8 14  1  0  0  0
M  END
> <minimizedAffinity>
-10.73797

$$$$
4I71_AGV_A_401


 26 28  0  0  0  0  0  0  0  0999 V2000
    5.7491   21.7572   19.9589 C   0  0  0  0  0  0  0  0  0  0  0  0
    4.5275   21.9381   20.8103 C   0  0  0  0  0  0  0  0  0  0  0  0
    3.4487   22.7190   20.4698 C   0  0  0  0  0  0  0  0  0  0  0  0
    2.5345   22.6463   21.4695 N   0  0  0  0  0  0  0  0  0  0  0  0
    2.9873   21.8182   22.4772 C   0  0  0  0  0  0  0  0  0  0  0  0
    4.2453   21.3705   22.0666 C   0  0  0  0  0  0  0  0  0  0  0  0
    2.4304   21.3893   23.6896 C   0  0  0  0  0  0  0  0  0  0  0  0
    1.2137   21.7449   24.1044 N   0  0  0  0  0  0  0  0  0  0  0  0
    3.1787   20.5571   24.4500 N   0  0  0  0  0  0  0  0  0  0  0  0
    4.3782   20.1890   24.0185 C   0  0  0  0  0  0  0  0  0  0  0  0
    4.9605   20.5566   22.8615 N   0  0  0  0  0  0  0  0  0  0  0  0
    1.6702   23.1175   21.4756 H   0  0  0  0  0  0  0  0  0  0  0  0
    0.6640   22.3501   23.5560 H   0  0  0  0  0  0  0  0  0  0  0  0
    0.8654   21.4022   24.9591 H   0  0  0  0  0  0  0  0  0  0  0  0
    7.0194   19.5092   20.4983 C   0  0  0  0  0  0  0  0  0  0  0  0
    7.1856   18.1979   19.7178 C   0  0  0  0  0  0  0  0  0  0  0  0
    6.3575   17.1670   20.2534 O   0  0  0  0  0  0  0  0  0  0  0  0
    6.0529   20.2758   19.6223 N   0  0  0  0  0  0  0  0  0  0  0  0
    6.4516   19.9604   18.2155 C   0  0  0  0  0  0  0  0  0  0  0  0
    6.8305   18.5348   18.2628 C   0  0  0  0  0  0  0  0  0  0  0  0
    5.7277   17.7570   17.7568 O   0  0  0  0  0  0  0  0  0  0  0  0
    5.4297   17.4480   20.2211 H   0  0  0  0  0  0  0  0  0  0  0  0
    4.9357   17.9354   18.2877 H   0  0  0  0  0  0  0  0  0  0  0  0
    9.5164   19.5262   20.4003 O   0  0  0  0  0  0  0  0  0  0  0  0
    8.3306   20.2267   20.7811 C   0  0  0  0  0  0  0  0  0  0  0  0
   10.2938   20.0630   20.6205 H   0  0  0  0  0  0  0  0  0  0  0  0
 24 25  1  0  0  0
 25 15  1  0  0  0
 17 16  1  0  0  0
 16 15  1  0  0  0
 16 20  1  0  0  0
 15 18  1  0  0  0
 20 21  1  0  0  0
 20 19  1  0  0  0
 18 19  1  0  0  0
 18  1  1  0  0  0
  3  2  2  0  0  0
  3  4  1  0  0  0
  1  2  1  0  0  0
  2  6  1  0  0  0
  4  5  1  0  0  0
  6  5  1  0  0  0
  6 11  2  0  0  0
  5  7  2  0  0  0
 11 10  1  0  0  0
  7  8  1  0  0  0
  7  9  1  0  0  0
 10  9  2  0  0  0
 24 26  1  0  0  0
 17 22  1  0  0  0
 21 23  1  0  0  0
  4 12  1  0  0  0
  8 13  1  0  0  0
  8 14  1  0  0  0
M  END
> <minimizedAffinity>
-8.61972

$$$$
4I71_AGV_A_401


 26 28  0  0  0  0  0  0  0  0999 V2000
    6.3079   21.3977   21.4571 C   0  0  0  0  0  0  0  0  0  0  0  0
    4.9516   21.9884   21.2086 C   0  0  0  0  0  0  0  0  0  0  0  0
    4.6297   22.7743   20.1278 C   0  0  0  0  0  0  0  0  0  0  0  0
    3.3235   23.1267   20.2281 N   0  0  0  0  0  0  0  0  0  0  0  0
    2.7627   22.5794   21.3648 C   0  0  0  0  0  0  0  0  0  0  0  0
    3.7867   21.8619   21.9878 C   0  0  0  0  0  0  0  0  0  0  0  0
    1.4707   22.6088   21.9070 C   0  0  0  0  0  0  0  0  0  0  0  0
    0.4459   23.2349   21.3268 N   0  0  0  0  0  0  0  0  0  0  0  0
    1.2760   21.9439   23.0692 N   0  0  0  0  0  0  0  0  0  0  0  0
    2.2953   21.3035   23.6272 C   0  0  0  0  0  0  0  0  0  0  0  0
    3.5520   21.2290   23.1498 N   0  0  0  0  0  0  0  0  0  0  0  0
    2.8433   23.6928   19.5815 H   0  0  0  0  0  0  0  0  0  0  0  0
    0.5807   23.7205   20.4811 H   0  0  0  0  0  0  0  0  0  0  0  0
   -0.4454   23.2114   21.7443 H   0  0  0  0  0  0  0  0  0  0  0  0
    5.7152   19.0014   20.5275 C   0  0  0  0  0  0  0  0  0  0  0  0
    6.4953   18.0013   19.6629 C   0  0  0  0  0  0  0  0  0  0  0  0
    6.0154   17.9925   18.3194 O   0  0  0  0  0  0  0  0  0  0  0  0
    6.6384   20.2001   20.5317 N   0  0  0  0  0  0  0  0  0  0  0  0
    8.0228   19.6385   20.6054 C   0  0  0  0  0  0  0  0  0  0  0  0
    7.9653   18.4339   19.7547 C   0  0  0  0  0  0  0  0  0  0  0  0
    8.5389   18.7581   18.4728 O   0  0  0  0  0  0  0  0  0  0  0  0
    6.0979   18.8817   17.9407 H   0  0  0  0  0  0  0  0  0  0  0  0
    8.0523   19.4990   18.0789 H   0  0  0  0  0  0  0  0  0  0  0  0
    5.4725   17.0570   22.0785 O   0  0  0  0  0  0  0  0  0  0  0  0
    5.3532   18.4704   21.9063 C   0  0  0  0  0  0  0  0  0  0  0  0
    5.2210   16.8192   22.9847 H   0  0  0  0  0  0  0  0  0  0  0  0
 24 25  1  0  0  0
 25 15  1  0  0  0
 17 16  1  0  0  0
 16 15  1  0  0  0
 16 20  1  0  0  0
 15 18  1  0  0  0
 20 21  1  0  0  0
 20 19  1  0  0  0
 18 19  1  0  0  0
 18  1  1  0  0  0
  3  2  2  0  0  0
  3  4  1  0  0  0
  1  2  1  0  0  0
  2  6  1  0  0  0
  4  5  1  0  0  0
  6  5  1  0  0  0
  6 11  2  0  0  0
  5  7  2  0  0  0
 11 10  1  0  0  0
  7  8  1  0  0  0
  7  9  1  0  0  0
 10  9  2  0  0  0
 24 26  1  0  0  0
 17 22  1  0  0  0
 21 23  1  0  0  0
  4 12  1  0  0  0
  8 13  1  0  0  0
  8 14  1  0  0  0
M  END
> <minimizedAffinity>
-8.52700

$$$$
4I71_AGV_A_401


 26 28  0  0  0  0  0  0  0  0999 V2000
    6.2388   21.5138   21.3987 C   0  0  0  0  0  0  0  0  0  0  0  0
    5.0042   21.3271   22.2299 C   0  0  0  0  0  0  0  0  0  0  0  0
    4.9342   20.5425   23.3564 C   0  0  0  0  0  0  0  0  0  0  0  0
    3.6716   20.6104   23.8480 N   0  0  0  0  0  0  0  0  0  0  0  0
    2.8933   21.4388   23.0645 C   0  0  0  0  0  0  0  0  0  0  0  0
    3.7293   21.8919   22.0410 C   0  0  0  0  0  0  0  0  0  0  0  0
    1.5605   21.8641   23.1472 C   0  0  0  0  0  0  0  0  0  0  0  0
    0.7351   21.5033   24.1308 N   0  0  0  0  0  0  0  0  0  0  0  0
    1.1194   22.6981   22.1773 N   0  0  0  0  0  0  0  0  0  0  0  0
    1.9540   23.0713   21.2157 C   0  0  0  0  0  0  0  0  0  0  0  0
    3.2442   22.7075   21.0895 N   0  0  0  0  0  0  0  0  0  0  0  0
    3.3550   20.1359   24.6504 H   0  0  0  0  0  0  0  0  0  0  0  0
    1.0496   20.8967   24.8397 H   0  0  0  0  0  0  0  0  0  0  0  0
   -0.1885   21.8435   24.1480 H   0  0  0  0  0  0  0  0  0  0  0  0
    7.1058   19.3862   20.1027 C   0  0  0  0  0  0  0  0  0  0  0  0
    7.0047   18.9530   18.6335 C   0  0  0  0  0  0  0  0  0  0  0  0
    6.0265   17.9290   18.4607 O   0  0  0  0  0  0  0  0  0  0  0  0
    6.2594   20.6402   20.1194 N   0  0  0  0  0  0  0  0  0  0  0  0
    6.5413   21.3304   18.8226 C   0  0  0  0  0  0  0  0  0  0  0  0
    6.6605   20.2271   17.8495 C   0  0  0  0  0  0  0  0  0  0  0  0
    5.4178   20.1260   17.1265 O   0  0  0  0  0  0  0  0  0  0  0  0
    5.1634   18.2520   18.7636 H   0  0  0  0  0  0  0  0  0  0  0  0
    4.6913   19.9761   17.7515 H   0  0  0  0  0  0  0  0  0  0  0  0
    9.5563   19.0664   19.7316 O   0  0  0  0  0  0  0  0  0  0  0  0
    8.5340   19.5740   20.5913 C   0  0  0  0  0  0  0  0  0  0  0  0
   10.4253   19.2337   20.1288 H   0  0  0  0  0  0  0  0  0  0  0  0
 24 25  1  0  0  0
 25 15  1  0  0  0
 17 16  1  0  0  0
 16 15  1  0  0  0
 16 20  1  0  0  0
 15 18  1  0  0  0
 20 21  1  0  0  0
 20 19  1  0  0  0
 18 19  1  0  0  0
 18  1  1  0  0  0
  3  2  2  0  0  0
  3  4  1  0  0  0
  1  2  1  0  0  0
  2  6  1  0  0  0
  4  5  1  0  0  0
  6  5  1  0  0  0
  6 11  2  0  0  0
  5  7  2  0  0  0
 11 10  1  0  0  0
  7  8  1  0  0  0
  7  9  1  0  0  0
 10  9  2  0  0  0
 24 26  1  0  0  0
 17 22  1  0  0  0
 21 23  1  0  0  0
  4 12  1  0  0  0
  8 13  1  0  0  0
  8 14  1  0  0  0
M  END
> <minimizedAffinity>
-8.24196

$$$$
4I71_AGV_A_401


 26 28  0  0  0  0  0  0  0  0999 V2000
    4.2203   22.8805   20.6627 C   0  0  0  0  0  0  0  0  0  0  0  0
    4.8534   21.6604   20.0623 C   0  0  0  0  0  0  0  0  0  0  0  0
    5.2904   21.5685   18.7622 C   0  0  0  0  0  0  0  0  0  0  0  0
    5.8058   20.3285   18.5701 N   0  0  0  0  0  0  0  0  0  0  0  0
    5.7243   19.5874   19.7320 C   0  0  0  0  0  0  0  0  0  0  0  0
    5.1223   20.4230   20.6759 C   0  0  0  0  0  0  0  0  0  0  0  0
    6.1307   18.2904   20.0734 C   0  0  0  0  0  0  0  0  0  0  0  0
    6.7553   17.4707   19.2267 N   0  0  0  0  0  0  0  0  0  0  0  0
    5.8817   17.8806   21.3387 N   0  0  0  0  0  0  0  0  0  0  0  0
    5.2816   18.7110   22.1817 C   0  0  0  0  0  0  0  0  0  0  0  0
    4.8798   19.9686   21.9171 N   0  0  0  0  0  0  0  0  0  0  0  0
    6.1846   20.0030   17.7217 H   0  0  0  0  0  0  0  0  0  0  0  0
    6.9396   17.7625   18.3047 H   0  0  0  0  0  0  0  0  0  0  0  0
    7.0321   16.5738   19.5237 H   0  0  0  0  0  0  0  0  0  0  0  0
    1.7211   23.7230   20.7060 C   0  0  0  0  0  0  0  0  0  0  0  0
    0.4745   23.2362   21.4581 C   0  0  0  0  0  0  0  0  0  0  0  0
   -0.4047   22.5177   20.5943 O   0  0  0  0  0  0  0  0  0  0  0  0
    2.7420   22.6691   21.0751 N   0  0  0  0  0  0  0  0  0  0  0  0
    2.4712   22.3341   22.5076 C   0  0  0  0  0  0  0  0  0  0  0  0
    0.9993   22.3680   22.6101 C   0  0  0  0  0  0  0  0  0  0  0  0
    0.5116   21.0125   22.5621 O   0  0  0  0  0  0  0  0  0  0  0  0
    0.0636   21.7569   20.2165 H   0  0  0  0  0  0  0  0  0  0  0  0
    0.8043   20.5925   21.7382 H   0  0  0  0  0  0  0  0  0  0  0  0
    1.0621   26.0210   21.4342 O   0  0  0  0  0  0  0  0  0  0  0  0
    2.1257   25.1496   21.0455 C   0  0  0  0  0  0  0  0  0  0  0  0
    1.4200   26.9013   21.6286 H   0  0  0  0  0  0  0  0  0  0  0  0
 24 25  1  0  0  0
 25 15  1  0  0  0
 17 16  1  0  0  0
 16 15  1  0  0  0
 16 20  1  0  0  0
 15 18  1  0  0  0
 20 21  1  0  0  0
 20 19  1  0  0  0
 18 19  1  0  0  0
 18  1  1  0  0  0
  3  2  2  0  0  0
  3  4  1  0  0  0
  1  2  1  0  0  0
  2  6  1  0  0  0
  4  5  1  0  0  0
  6  5  1  0  0  0
  6 11  2  0  0  0
  5  7  2  0  0  0
 11 10  1  0  0  0
  7  8  1  0  0  0
  7  9  1  0  0  0
 10  9  2  0  0  0
 24 26  1  0  0  0
 17 22  1  0  0  0
 21 23  1  0  0  0
  4 12  1  0  0  0
  8 13  1  0  0  0
  8 14  1  0  0  0
M  END
> <minimizedAffinity>
-8.07715

$$$$
4I71_AGV_A_401


 26 28  0  0  0  0  0  0  0  0999 V2000
    4.1074   22.5489   20.8346 C   0  0  0  0  0  0  0  0  0  0  0  0
    4.7549   21.2067   21.0057 C   0  0  0  0  0  0  0  0  0  0  0  0
    4.8542   20.5359   22.2014 C   0  0  0  0  0  0  0  0  0  0  0  0
    5.4944   19.3603   21.9813 N   0  0  0  0  0  0  0  0  0  0  0  0
    5.8216   19.2324   20.6462 C   0  0  0  0  0  0  0  0  0  0  0  0
    5.3588   20.3960   20.0268 C   0  0  0  0  0  0  0  0  0  0  0  0
    6.4472   18.2215   19.9040 C   0  0  0  0  0  0  0  0  0  0  0  0
    6.8612   17.0705   20.4358 N   0  0  0  0  0  0  0  0  0  0  0  0
    6.6098   18.4419   18.5790 N   0  0  0  0  0  0  0  0  0  0  0  0
    6.1733   19.5795   18.0537 C   0  0  0  0  0  0  0  0  0  0  0  0
    5.5561   20.5798   18.7104 N   0  0  0  0  0  0  0  0  0  0  0  0
    5.6971   18.6925   22.6757 H   0  0  0  0  0  0  0  0  0  0  0  0
    6.7459   16.9037   21.3992 H   0  0  0  0  0  0  0  0  0  0  0  0
    7.2821   16.3878   19.8649 H   0  0  0  0  0  0  0  0  0  0  0  0
    1.7507   23.7226   20.6734 C   0  0  0  0  0  0  0  0  0  0  0  0
    0.3890   23.4083   21.3086 C   0  0  0  0  0  0  0  0  0  0  0  0
   -0.5004   22.8168   20.3628 O   0  0  0  0  0  0  0  0  0  0  0  0
    2.5839   22.5394   21.1152 N   0  0  0  0  0  0  0  0  0  0  0  0
    2.1464   22.2422   22.5143 C   0  0  0  0  0  0  0  0  0  0  0  0
    0.6892   22.4752   22.4900 C   0  0  0  0  0  0  0  0  0  0  0  0
    0.0291   21.1985   22.3822 O   0  0  0  0  0  0  0  0  0  0  0  0
   -0.1080   22.0001   20.0167 H   0  0  0  0  0  0  0  0  0  0  0  0
    0.3331   20.7439   21.5811 H   0  0  0  0  0  0  0  0  0  0  0  0
    1.3799   25.9961   21.6421 O   0  0  0  0  0  0  0  0  0  0  0  0
    2.3130   25.0806   21.0653 C   0  0  0  0  0  0  0  0  0  0  0  0
    1.8323   26.8271   21.8561 H   0  0  0  0  0  0  0  0  0  0  0  0
 24 25  1  0  0  0
 25 15  1  0  0  0
 17 16  1  0  0  0
 16 15  1  0  0  0
 16 20  1  0  0  0
 15 18  1  0  0  0
 20 21  1  0  0  0
 20 19  1  0  0  0
 18 19  1  0  0  0
 18  1  1  0  0  0
  3  2  2  0  0  0
  3  4  1  0  0  0
  1  2  1  0  0  0
  2  6  1  0  0  0
  4  5  1  0  0  0
  6  5  1  0  0  0
  6 11  2  0  0  0
  5  7  2  0  0  0
 11 10  1  0  0  0
  7  8  1  0  0  0
  7  9  1  0  0  0
 10  9  2  0  0  0
 24 26  1  0  0  0
 17 22  1  0  0  0
 21 23  1  0  0  0
  4 12  1  0  0  0
  8 13  1  0  0  0
  8 14  1  0  0  0
M  END
> <minimizedAffinity>
-8.03081

$$$$
