4TU4_37N_A_1204


 28 30  0  0  0  0  0  0  0  0999 V2000
  -11.5152   23.6773   11.3331 C   0  0  0  0  0  0  0  0  0  0  0  0
  -12.7818   23.9718   11.8306 C   0  0  0  0  0  0  0  0  0  0  0  0
  -13.9160   23.5207   11.1443 C   0  0  0  0  0  0  0  0  0  0  0  0
  -13.7691   22.7833    9.9793 C   0  0  0  0  0  0  0  0  0  0  0  0
  -12.4997   22.4870    9.4915 C   0  0  0  0  0  0  0  0  0  0  0  0
  -11.3807   22.9353   10.1661 C   0  0  0  0  0  0  0  0  0  0  0  0
  -10.1255   22.3950   13.9615 C   0  0  0  0  0  0  0  0  0  0  0  0
   -9.6131   23.5786   13.1559 C   0  0  0  0  0  0  0  0  0  0  0  0
  -10.2446   24.1321   12.0044 C   0  0  0  0  0  0  0  0  0  0  0  0
   -9.3421   25.1987   11.6188 C   0  0  0  0  0  0  0  0  0  0  0  0
   -9.4995   26.1423   10.4481 C   0  0  0  0  0  0  0  0  0  0  0  0
   -8.3368   25.2061   12.4754 N   0  0  0  0  0  0  0  0  0  0  0  0
   -8.4962   24.2703   13.3758 O   0  0  0  0  0  0  0  0  0  0  0  0
  -12.3405   21.7100    8.2130 C   0  0  0  0  0  0  0  0  0  0  0  0
  -13.3260   21.3471    7.5133 O   0  0  0  0  0  0  0  0  0  0  0  0
  -11.1879   21.3680    7.8807 O   0  0  0  0  0  0  0  0  0  0  0  0
  -14.1938   21.6014    7.7588 H   0  0  0  0  0  0  0  0  0  0  0  0
  -15.2368   23.7814   11.6045 N   0  0  0  0  0  0  0  0  0  0  0  0
  -15.6684   23.1108   12.1818 H   0  0  0  0  0  0  0  0  0  0  0  0
  -16.0900   25.1509   11.2235 S   0  0  0  0  0  0  0  0  0  0  0  0
  -15.2209   26.2098   10.7888 O   0  0  0  0  0  0  0  0  0  0  0  0
  -16.6220   25.7622   12.4182 O   0  0  0  0  0  0  0  0  0  0  0  0
  -17.3888   24.8155   10.0491 C   0  0  0  0  0  0  0  0  0  0  0  0
  -17.2380   23.7802    9.1224 C   0  0  0  0  0  0  0  0  0  0  0  0
  -18.2461   23.4991    8.2017 C   0  0  0  0  0  0  0  0  0  0  0  0
  -19.4093   24.2508    8.2056 C   0  0  0  0  0  0  0  0  0  0  0  0
  -19.5663   25.2891    9.1292 C   0  0  0  0  0  0  0  0  0  0  0  0
  -18.5611   25.5720   10.0522 C   0  0  0  0  0  0  0  0  0  0  0  0
 26 25  2  0  0  0
 26 27  1  0  0  0
 25 24  1  0  0  0
 27 28  2  0  0  0
 24 23  2  0  0  0
 28 23  1  0  0  0
 23 20  1  0  0  0
 16 14  2  0  0  0
 14 15  1  0  0  0
 14  5  1  0  0  0
  4  5  2  0  0  0
  4  3  1  0  0  0
  5  6  1  0  0  0
 20 22  2  0  0  0
 20 18  1  0  0  0
 20 21  2  0  0  0
 18  3  1  0  0  0
  3  2  2  0  0  0
 11 10  1  0  0  0
  6  1  2  0  0  0
  2  1  1  0  0  0
  1  9  1  0  0  0
 10  9  1  0  0  0
 10 12  2  0  0  0
  9  8  2  0  0  0
 12 13  1  0  0  0
  8 13  1  0  0  0
  8  7  1  0  0  0
 18 19  1  0  0  0
 15 17  1  0  0  0
M  END
> <minimizedAffinity>
-8.11901

$$$$
4TU4_37N_A_1204


 28 30  0  0  0  0  0  0  0  0999 V2000
  -12.4152   22.1286   10.2213 C   0  0  0  0  0  0  0  0  0  0  0  0
  -13.7334   22.5219   10.4363 C   0  0  0  0  0  0  0  0  0  0  0  0
  -14.0655   23.2167   11.6059 C   0  0  0  0  0  0  0  0  0  0  0  0
  -13.0806   23.5097   12.5369 C   0  0  0  0  0  0  0  0  0  0  0  0
  -11.7638   23.1193   12.3122 C   0  0  0  0  0  0  0  0  0  0  0  0
  -11.4366   22.4303   11.1604 C   0  0  0  0  0  0  0  0  0  0  0  0
  -10.4165   23.1641    7.8938 C   0  0  0  0  0  0  0  0  0  0  0  0
  -11.0929   21.8039    7.9638 C   0  0  0  0  0  0  0  0  0  0  0  0
  -11.9756   21.3701    8.9952 C   0  0  0  0  0  0  0  0  0  0  0  0
  -12.3013   20.0151    8.5969 C   0  0  0  0  0  0  0  0  0  0  0  0
  -13.2098   19.0491    9.3229 C   0  0  0  0  0  0  0  0  0  0  0  0
  -11.6555   19.7584    7.4737 N   0  0  0  0  0  0  0  0  0  0  0  0
  -10.9586   20.8001    7.0985 O   0  0  0  0  0  0  0  0  0  0  0  0
  -10.7001   23.4135   13.3348 C   0  0  0  0  0  0  0  0  0  0  0  0
  -10.2448   24.5751   13.5240 O   0  0  0  0  0  0  0  0  0  0  0  0
  -10.2191   22.4513   13.9661 O   0  0  0  0  0  0  0  0  0  0  0  0
  -10.6027   25.3012   13.0521 H   0  0  0  0  0  0  0  0  0  0  0  0
  -15.3916   23.6528   11.8806 N   0  0  0  0  0  0  0  0  0  0  0  0
  -15.9555   23.0894   12.4584 H   0  0  0  0  0  0  0  0  0  0  0  0
  -16.0407   25.0562   11.2827 S   0  0  0  0  0  0  0  0  0  0  0  0
  -15.0204   25.9440   10.7967 O   0  0  0  0  0  0  0  0  0  0  0  0
  -16.5630   25.8677   12.3564 O   0  0  0  0  0  0  0  0  0  0  0  0
  -17.2978   24.7350   10.0599 C   0  0  0  0  0  0  0  0  0  0  0  0
  -18.4709   25.4945   10.0526 C   0  0  0  0  0  0  0  0  0  0  0  0
  -19.4612   25.2621    9.0995 C   0  0  0  0  0  0  0  0  0  0  0  0
  -19.2811   24.2708    8.1492 C   0  0  0  0  0  0  0  0  0  0  0  0
  -18.1103   23.5060    8.1516 C   0  0  0  0  0  0  0  0  0  0  0  0
  -17.1174   23.7367    9.1020 C   0  0  0  0  0  0  0  0  0  0  0  0
 26 25  2  0  0  0
 26 27  1  0  0  0
 25 24  1  0  0  0
 27 28  2  0  0  0
 24 23  2  0  0  0
 28 23  1  0  0  0
 23 20  1  0  0  0
 16 14  2  0  0  0
 14 15  1  0  0  0
 14  5  1  0  0  0
  4  5  2  0  0  0
  4  3  1  0  0  0
  5  6  1  0  0  0
 20 22  2  0  0  0
 20 18  1  0  0  0
 20 21  2  0  0  0
 18  3  1  0  0  0
  3  2  2  0  0  0
 11 10  1  0  0  0
  6  1  2  0  0  0
  2  1  1  0  0  0
  1  9  1  0  0  0
 10  9  1  0  0  0
 10 12  2  0  0  0
  9  8  2  0  0  0
 12 13  1  0  0  0
  8 13  1  0  0  0
  8  7  1  0  0  0
 18 19  1  0  0  0
 15 17  1  0  0  0
M  END
> <minimizedAffinity>
-8.02414

$$$$
4TU4_37N_A_1204


 28 30  0  0  0  0  0  0  0  0999 V2000
  -13.3761   17.1332    6.5122 C   0  0  0  0  0  0  0  0  0  0  0  0
  -13.4331   17.9209    7.6588 C   0  0  0  0  0  0  0  0  0  0  0  0
  -14.1505   19.1234    7.6363 C   0  0  0  0  0  0  0  0  0  0  0  0
  -14.7995   19.5174    6.4762 C   0  0  0  0  0  0  0  0  0  0  0  0
  -14.7437   18.7216    5.3357 C   0  0  0  0  0  0  0  0  0  0  0  0
  -14.0328   17.5373    5.3564 C   0  0  0  0  0  0  0  0  0  0  0  0
  -14.6199   14.1631    6.1713 C   0  0  0  0  0  0  0  0  0  0  0  0
  -13.1457   14.5161    6.2926 C   0  0  0  0  0  0  0  0  0  0  0  0
  -12.6192   15.8312    6.4489 C   0  0  0  0  0  0  0  0  0  0  0  0
  -11.1876   15.6073    6.4825 C   0  0  0  0  0  0  0  0  0  0  0  0
  -10.1081   16.6553    6.6316 C   0  0  0  0  0  0  0  0  0  0  0  0
  -10.9791   14.3094    6.3543 N   0  0  0  0  0  0  0  0  0  0  0  0
  -12.1166   13.6713    6.2523 O   0  0  0  0  0  0  0  0  0  0  0  0
  -15.4254   19.1622    4.0689 C   0  0  0  0  0  0  0  0  0  0  0  0
  -16.3175   20.0546    4.0545 O   0  0  0  0  0  0  0  0  0  0  0  0
  -15.1283   18.5689    3.0127 O   0  0  0  0  0  0  0  0  0  0  0  0
  -16.5442   20.5032    4.8453 H   0  0  0  0  0  0  0  0  0  0  0  0
  -14.2535   19.9687    8.7761 N   0  0  0  0  0  0  0  0  0  0  0  0
  -14.9406   19.7591    9.4493 H   0  0  0  0  0  0  0  0  0  0  0  0
  -13.2815   21.2866    9.0346 S   0  0  0  0  0  0  0  0  0  0  0  0
  -12.5658   21.6556    7.8441 O   0  0  0  0  0  0  0  0  0  0  0  0
  -12.1642   20.9316    9.8771 O   0  0  0  0  0  0  0  0  0  0  0  0
  -14.1916   22.6534    9.7289 C   0  0  0  0  0  0  0  0  0  0  0  0
  -13.9753   23.0295   11.0575 C   0  0  0  0  0  0  0  0  0  0  0  0
  -14.6726   24.1001   11.6148 C   0  0  0  0  0  0  0  0  0  0  0  0
  -15.5871   24.7998   10.8451 C   0  0  0  0  0  0  0  0  0  0  0  0
  -15.8094   24.4280    9.5154 C   0  0  0  0  0  0  0  0  0  0  0  0
  -15.1130   23.3591    8.9545 C   0  0  0  0  0  0  0  0  0  0  0  0
 26 25  2  0  0  0
 26 27  1  0  0  0
 25 24  1  0  0  0
 27 28  2  0  0  0
 24 23  2  0  0  0
 28 23  1  0  0  0
 23 20  1  0  0  0
 16 14  2  0  0  0
 14 15  1  0  0  0
 14  5  1  0  0  0
  4  5  2  0  0  0
  4  3  1  0  0  0
  5  6  1  0  0  0
 20 22  2  0  0  0
 20 18  1  0  0  0
 20 21  2  0  0  0
 18  3  1  0  0  0
  3  2  2  0  0  0
 11 10  1  0  0  0
  6  1  2  0  0  0
  2  1  1  0  0  0
  1  9  1  0  0  0
 10  9  1  0  0  0
 10 12  2  0  0  0
  9  8  2  0  0  0
 12 13  1  0  0  0
  8 13  1  0  0  0
  8  7  1  0  0  0
 18 19  1  0  0  0
 15 17  1  0  0  0
M  END
> <minimizedAffinity>
-7.75852

$$$$
4TU4_37N_A_1204


 28 30  0  0  0  0  0  0  0  0999 V2000
  -13.2966   17.1288    6.4427 C   0  0  0  0  0  0  0  0  0  0  0  0
  -13.3752   17.9238    7.5831 C   0  0  0  0  0  0  0  0  0  0  0  0
  -14.1121   19.1140    7.5465 C   0  0  0  0  0  0  0  0  0  0  0  0
  -14.7588   19.4889    6.3787 C   0  0  0  0  0  0  0  0  0  0  0  0
  -14.6813   18.6859    5.2446 C   0  0  0  0  0  0  0  0  0  0  0  0
  -13.9511   17.5137    5.2791 C   0  0  0  0  0  0  0  0  0  0  0  0
  -10.0874   16.7723    6.6849 C   0  0  0  0  0  0  0  0  0  0  0  0
  -11.1085   15.6597    6.5058 C   0  0  0  0  0  0  0  0  0  0  0  0
  -12.5179   15.8391    6.3946 C   0  0  0  0  0  0  0  0  0  0  0  0
  -13.0109   14.4815    6.2735 C   0  0  0  0  0  0  0  0  0  0  0  0
  -14.4518   14.0487    6.1257 C   0  0  0  0  0  0  0  0  0  0  0  0
  -11.9706   13.6690    6.3191 N   0  0  0  0  0  0  0  0  0  0  0  0
  -10.8619   14.3520    6.4455 O   0  0  0  0  0  0  0  0  0  0  0  0
  -15.3606   19.1060    3.9695 C   0  0  0  0  0  0  0  0  0  0  0  0
  -16.2451   20.0055    3.9375 O   0  0  0  0  0  0  0  0  0  0  0  0
  -15.0696   18.4886    2.9255 O   0  0  0  0  0  0  0  0  0  0  0  0
  -16.4672   20.4721    4.7191 H   0  0  0  0  0  0  0  0  0  0  0  0
  -14.2376   19.9657    8.6793 N   0  0  0  0  0  0  0  0  0  0  0  0
  -14.9804   19.8011    9.3041 H   0  0  0  0  0  0  0  0  0  0  0  0
  -13.2035   21.2195    9.0064 S   0  0  0  0  0  0  0  0  0  0  0  0
  -12.5560   21.6938    7.8141 O   0  0  0  0  0  0  0  0  0  0  0  0
  -12.0460   20.7437    9.7261 O   0  0  0  0  0  0  0  0  0  0  0  0
  -14.0150   22.5293    9.9033 C   0  0  0  0  0  0  0  0  0  0  0  0
  -14.9293   23.3583    9.2474 C   0  0  0  0  0  0  0  0  0  0  0  0
  -15.5785   24.3827    9.9346 C   0  0  0  0  0  0  0  0  0  0  0  0
  -15.3174   24.5805   11.2803 C   0  0  0  0  0  0  0  0  0  0  0  0
  -14.4028   23.7555   11.9424 C   0  0  0  0  0  0  0  0  0  0  0  0
  -13.7530   22.7293   11.2590 C   0  0  0  0  0  0  0  0  0  0  0  0
 26 25  2  0  0  0
 26 27  1  0  0  0
 25 24  1  0  0  0
 27 28  2  0  0  0
 24 23  2  0  0  0
 28 23  1  0  0  0
 23 20  1  0  0  0
 16 14  2  0  0  0
 14 15  1  0  0  0
 14  5  1  0  0  0
  4  5  2  0  0  0
  4  3  1  0  0  0
  5  6  1  0  0  0
 20 22  2  0  0  0
 20 18  1  0  0  0
 20 21  2  0  0  0
 18  3  1  0  0  0
  3  2  2  0  0  0
 11 10  1  0  0  0
  6  1  2  0  0  0
  2  1  1  0  0  0
  1  9  1  0  0  0
 10  9  1  0  0  0
 10 12  2  0  0  0
  9  8  2  0  0  0
 12 13  1  0  0  0
  8 13  1  0  0  0
  8  7  1  0  0  0
 18 19  1  0  0  0
 15 17  1  0  0  0
M  END
> <minimizedAffinity>
-7.70539

$$$$
4TU4_37N_A_1204


 28 30  0  0  0  0  0  0  0  0999 V2000
  -13.6397   22.7270    9.5478 C   0  0  0  0  0  0  0  0  0  0  0  0
  -12.3501   22.9118    9.0565 C   0  0  0  0  0  0  0  0  0  0  0  0
  -11.8485   22.0365    8.0852 C   0  0  0  0  0  0  0  0  0  0  0  0
  -12.6394   20.9975    7.6191 C   0  0  0  0  0  0  0  0  0  0  0  0
  -13.9300   20.8229    8.1099 C   0  0  0  0  0  0  0  0  0  0  0  0
  -14.4236   21.6836    9.0710 C   0  0  0  0  0  0  0  0  0  0  0  0
  -12.5698   23.2086   12.5657 C   0  0  0  0  0  0  0  0  0  0  0  0
  -13.7938   23.8480   11.9290 C   0  0  0  0  0  0  0  0  0  0  0  0
  -14.2516   23.6169   10.5993 C   0  0  0  0  0  0  0  0  0  0  0  0
  -15.4119   24.4798   10.4994 C   0  0  0  0  0  0  0  0  0  0  0  0
  -16.3129   24.6541    9.2980 C   0  0  0  0  0  0  0  0  0  0  0  0
  -15.5509   25.1043   11.6549 N   0  0  0  0  0  0  0  0  0  0  0  0
  -14.6162   24.7323   12.4913 O   0  0  0  0  0  0  0  0  0  0  0  0
  -14.7785   19.6794    7.6239 C   0  0  0  0  0  0  0  0  0  0  0  0
  -15.8786   19.8559    7.0315 O   0  0  0  0  0  0  0  0  0  0  0  0
  -14.3936   18.5208    7.8796 O   0  0  0  0  0  0  0  0  0  0  0  0
  -16.1720   20.7243    6.8372 H   0  0  0  0  0  0  0  0  0  0  0  0
  -10.5428   22.1761    7.5376 N   0  0  0  0  0  0  0  0  0  0  0  0
  -10.3855   21.8490    6.6225 H   0  0  0  0  0  0  0  0  0  0  0  0
   -9.2713   22.8586    8.3538 S   0  0  0  0  0  0  0  0  0  0  0  0
   -8.0599   22.1086    8.1648 O   0  0  0  0  0  0  0  0  0  0  0  0
   -9.4338   22.6833    9.7775 O   0  0  0  0  0  0  0  0  0  0  0  0
   -9.0716   24.5823    7.9446 C   0  0  0  0  0  0  0  0  0  0  0  0
   -7.9493   25.2796    8.4001 C   0  0  0  0  0  0  0  0  0  0  0  0
   -7.7732   26.6256    8.0839 C   0  0  0  0  0  0  0  0  0  0  0  0
   -8.7176   27.2788    7.3095 C   0  0  0  0  0  0  0  0  0  0  0  0
   -9.8437   26.5876    6.8515 C   0  0  0  0  0  0  0  0  0  0  0  0
  -10.0223   25.2413    7.1645 C   0  0  0  0  0  0  0  0  0  0  0  0
 26 25  2  0  0  0
 26 27  1  0  0  0
 25 24  1  0  0  0
 27 28  2  0  0  0
 24 23  2  0  0  0
 28 23  1  0  0  0
 23 20  1  0  0  0
 16 14  2  0  0  0
 14 15  1  0  0  0
 14  5  1  0  0  0
  4  5  2  0  0  0
  4  3  1  0  0  0
  5  6  1  0  0  0
 20 22  2  0  0  0
 20 18  1  0  0  0
 20 21  2  0  0  0
 18  3  1  0  0  0
  3  2  2  0  0  0
 11 10  1  0  0  0
  6  1  2  0  0  0
  2  1  1  0  0  0
  1  9  1  0  0  0
 10  9  1  0  0  0
 10 12  2  0  0  0
  9  8  2  0  0  0
 12 13  1  0  0  0
  8 13  1  0  0  0
  8  7  1  0  0  0
 18 19  1  0  0  0
 15 17  1  0  0  0
M  END
> <minimizedAffinity>
-7.70417

$$$$
4TU4_37N_A_1204


 28 30  0  0  0  0  0  0  0  0999 V2000
  -13.7002   22.6214    9.5125 C   0  0  0  0  0  0  0  0  0  0  0  0
  -12.4074   22.7877    9.0230 C   0  0  0  0  0  0  0  0  0  0  0  0
  -11.9076   21.8894    8.0721 C   0  0  0  0  0  0  0  0  0  0  0  0
  -12.7032   20.8460    7.6242 C   0  0  0  0  0  0  0  0  0  0  0  0
  -13.9969   20.6898    8.1131 C   0  0  0  0  0  0  0  0  0  0  0  0
  -14.4889   21.5734    9.0541 C   0  0  0  0  0  0  0  0  0  0  0  0
  -12.6343   23.1656   12.5212 C   0  0  0  0  0  0  0  0  0  0  0  0
  -13.8546   23.7955   11.8679 C   0  0  0  0  0  0  0  0  0  0  0  0
  -14.3107   23.5368   10.5428 C   0  0  0  0  0  0  0  0  0  0  0  0
  -15.4673   24.4018   10.4215 C   0  0  0  0  0  0  0  0  0  0  0  0
  -16.3653   24.5529    9.2146 C   0  0  0  0  0  0  0  0  0  0  0  0
  -15.6062   25.0523   11.5626 N   0  0  0  0  0  0  0  0  0  0  0  0
  -14.6745   24.6952   12.4089 O   0  0  0  0  0  0  0  0  0  0  0  0
  -14.8508   19.5419    7.6473 C   0  0  0  0  0  0  0  0  0  0  0  0
  -15.8847   19.7085    6.9433 O   0  0  0  0  0  0  0  0  0  0  0  0
  -14.5439   18.3960    8.0324 O   0  0  0  0  0  0  0  0  0  0  0  0
  -16.1195   20.5674    6.6515 H   0  0  0  0  0  0  0  0  0  0  0  0
  -10.5988   22.0093    7.5272 N   0  0  0  0  0  0  0  0  0  0  0  0
  -10.4953   21.9510    6.5499 H   0  0  0  0  0  0  0  0  0  0  0  0
   -9.2381   22.2417    8.4454 S   0  0  0  0  0  0  0  0  0  0  0  0
   -8.0415   22.0624    7.6697 O   0  0  0  0  0  0  0  0  0  0  0  0
   -9.0717   21.1571    9.3837 O   0  0  0  0  0  0  0  0  0  0  0  0
   -9.2696   23.8121    9.2888 C   0  0  0  0  0  0  0  0  0  0  0  0
   -9.2127   24.9983    8.5520 C   0  0  0  0  0  0  0  0  0  0  0  0
   -9.2436   26.2351    9.1941 C   0  0  0  0  0  0  0  0  0  0  0  0
   -9.3335   26.2902   10.5751 C   0  0  0  0  0  0  0  0  0  0  0  0
   -9.3894   25.1072   11.3187 C   0  0  0  0  0  0  0  0  0  0  0  0
   -9.3603   23.8689   10.6799 C   0  0  0  0  0  0  0  0  0  0  0  0
 26 25  2  0  0  0
 26 27  1  0  0  0
 25 24  1  0  0  0
 27 28  2  0  0  0
 24 23  2  0  0  0
 28 23  1  0  0  0
 23 20  1  0  0  0
 16 14  2  0  0  0
 14 15  1  0  0  0
 14  5  1  0  0  0
  4  5  2  0  0  0
  4  3  1  0  0  0
  5  6  1  0  0  0
 20 22  2  0  0  0
 20 18  1  0  0  0
 20 21  2  0  0  0
 18  3  1  0  0  0
  3  2  2  0  0  0
 11 10  1  0  0  0
  6  1  2  0  0  0
  2  1  1  0  0  0
  1  9  1  0  0  0
 10  9  1  0  0  0
 10 12  2  0  0  0
  9  8  2  0  0  0
 12 13  1  0  0  0
  8 13  1  0  0  0
  8  7  1  0  0  0
 18 19  1  0  0  0
 15 17  1  0  0  0
M  END
> <minimizedAffinity>
-7.59183

$$$$
4TU4_37N_A_1204


 28 30  0  0  0  0  0  0  0  0999 V2000
  -13.3068   22.3697    9.6088 C   0  0  0  0  0  0  0  0  0  0  0  0
  -12.2034   22.6915    8.8230 C   0  0  0  0  0  0  0  0  0  0  0  0
  -11.5526   21.6845    8.0995 C   0  0  0  0  0  0  0  0  0  0  0  0
  -12.0131   20.3785    8.1687 C   0  0  0  0  0  0  0  0  0  0  0  0
  -13.1208   20.0652    8.9511 C   0  0  0  0  0  0  0  0  0  0  0  0
  -13.7605   21.0577    9.6680 C   0  0  0  0  0  0  0  0  0  0  0  0
  -16.0636   23.8680    8.8092 C   0  0  0  0  0  0  0  0  0  0  0  0
  -15.2741   24.0558   10.0953 C   0  0  0  0  0  0  0  0  0  0  0  0
  -14.0577   23.3904   10.4250 C   0  0  0  0  0  0  0  0  0  0  0  0
  -13.7549   23.9009   11.7473 C   0  0  0  0  0  0  0  0  0  0  0  0
  -12.5655   23.5418   12.6086 C   0  0  0  0  0  0  0  0  0  0  0  0
  -14.7132   24.7457   12.0828 N   0  0  0  0  0  0  0  0  0  0  0  0
  -15.5937   24.8444   11.1202 O   0  0  0  0  0  0  0  0  0  0  0  0
  -13.6042   18.6437    9.0474 C   0  0  0  0  0  0  0  0  0  0  0  0
  -13.2765   17.8794    9.9966 O   0  0  0  0  0  0  0  0  0  0  0  0
  -14.3040   18.2035    8.1135 O   0  0  0  0  0  0  0  0  0  0  0  0
  -12.7509   18.2054   10.7005 H   0  0  0  0  0  0  0  0  0  0  0  0
  -10.4255   21.9496    7.2728 N   0  0  0  0  0  0  0  0  0  0  0  0
  -10.5250   21.8327    6.3003 H   0  0  0  0  0  0  0  0  0  0  0  0
   -8.9541   22.4442    7.8547 S   0  0  0  0  0  0  0  0  0  0  0  0
   -7.9843   22.5664    6.8010 O   0  0  0  0  0  0  0  0  0  0  0  0
   -8.3340   21.3889    8.6203 O   0  0  0  0  0  0  0  0  0  0  0  0
   -9.0931   23.9344    8.8235 C   0  0  0  0  0  0  0  0  0  0  0  0
   -9.1735   23.8532   10.2164 C   0  0  0  0  0  0  0  0  0  0  0  0
   -9.2754   25.0082   10.9902 C   0  0  0  0  0  0  0  0  0  0  0  0
   -9.2951   26.2484   10.3741 C   0  0  0  0  0  0  0  0  0  0  0  0
   -9.2164   26.3370    8.9807 C   0  0  0  0  0  0  0  0  0  0  0  0
   -9.1130   25.1844    8.2040 C   0  0  0  0  0  0  0  0  0  0  0  0
 26 25  2  0  0  0
 26 27  1  0  0  0
 25 24  1  0  0  0
 27 28  2  0  0  0
 24 23  2  0  0  0
 28 23  1  0  0  0
 23 20  1  0  0  0
 16 14  2  0  0  0
 14 15  1  0  0  0
 14  5  1  0  0  0
  4  5  2  0  0  0
  4  3  1  0  0  0
  5  6  1  0  0  0
 20 22  2  0  0  0
 20 18  1  0  0  0
 20 21  2  0  0  0
 18  3  1  0  0  0
  3  2  2  0  0  0
 11 10  1  0  0  0
  6  1  2  0  0  0
  2  1  1  0  0  0
  1  9  1  0  0  0
 10  9  1  0  0  0
 10 12  2  0  0  0
  9  8  2  0  0  0
 12 13  1  0  0  0
  8 13  1  0  0  0
  8  7  1  0  0  0
 18 19  1  0  0  0
 15 17  1  0  0  0
M  END
> <minimizedAffinity>
-7.33995

$$$$
4TU4_37N_A_1204


 28 30  0  0  0  0  0  0  0  0999 V2000
  -13.4005   22.7009    9.5011 C   0  0  0  0  0  0  0  0  0  0  0  0
  -13.9356   21.5353    8.9593 C   0  0  0  0  0  0  0  0  0  0  0  0
  -13.1968   20.8081    8.0178 C   0  0  0  0  0  0  0  0  0  0  0  0
  -11.9400   21.2519    7.6358 C   0  0  0  0  0  0  0  0  0  0  0  0
  -11.4086   22.4144    8.1866 C   0  0  0  0  0  0  0  0  0  0  0  0
  -12.1388   23.1341    9.1124 C   0  0  0  0  0  0  0  0  0  0  0  0
  -12.5390   23.2624   12.5714 C   0  0  0  0  0  0  0  0  0  0  0  0
  -13.7677   23.8117   11.8636 C   0  0  0  0  0  0  0  0  0  0  0  0
  -14.1325   23.5464   10.5117 C   0  0  0  0  0  0  0  0  0  0  0  0
  -15.3438   24.3241   10.3423 C   0  0  0  0  0  0  0  0  0  0  0  0
  -16.1860   24.4317    9.0914 C   0  0  0  0  0  0  0  0  0  0  0  0
  -15.5917   24.9388   11.4847 N   0  0  0  0  0  0  0  0  0  0  0  0
  -14.6813   24.6358   12.3741 O   0  0  0  0  0  0  0  0  0  0  0  0
  -10.0563   22.9105    7.7522 C   0  0  0  0  0  0  0  0  0  0  0  0
   -9.3218   22.2651    6.9545 O   0  0  0  0  0  0  0  0  0  0  0  0
   -9.6367   23.9709    8.2575 O   0  0  0  0  0  0  0  0  0  0  0  0
   -9.6325   21.4679    6.5724 H   0  0  0  0  0  0  0  0  0  0  0  0
  -13.6839   19.6059    7.4333 N   0  0  0  0  0  0  0  0  0  0  0  0
  -14.1917   19.6707    6.5924 H   0  0  0  0  0  0  0  0  0  0  0  0
  -13.4446   18.1020    8.0887 S   0  0  0  0  0  0  0  0  0  0  0  0
  -14.5818   17.2485    7.8793 O   0  0  0  0  0  0  0  0  0  0  0  0
  -13.4677   18.1708    9.5305 O   0  0  0  0  0  0  0  0  0  0  0  0
  -11.9279   17.3631    7.5122 C   0  0  0  0  0  0  0  0  0  0  0  0
  -11.9680   16.1703    6.7850 C   0  0  0  0  0  0  0  0  0  0  0  0
  -10.7927   15.5823    6.3203 C   0  0  0  0  0  0  0  0  0  0  0  0
   -9.5734   16.1859    6.5793 C   0  0  0  0  0  0  0  0  0  0  0  0
   -9.5258   17.3788    7.3076 C   0  0  0  0  0  0  0  0  0  0  0  0
  -10.6990   17.9704    7.7724 C   0  0  0  0  0  0  0  0  0  0  0  0
 26 25  2  0  0  0
 26 27  1  0  0  0
 25 24  1  0  0  0
 27 28  2  0  0  0
 24 23  2  0  0  0
 28 23  1  0  0  0
 23 20  1  0  0  0
 16 14  2  0  0  0
 14 15  1  0  0  0
 14  5  1  0  0  0
  4  5  2  0  0  0
  4  3  1  0  0  0
  5  6  1  0  0  0
 20 22  2  0  0  0
 20 18  1  0  0  0
 20 21  2  0  0  0
 18  3  1  0  0  0
  3  2  2  0  0  0
 11 10  1  0  0  0
  6  1  2  0  0  0
  2  1  1  0  0  0
  1  9  1  0  0  0
 10  9  1  0  0  0
 10 12  2  0  0  0
  9  8  2  0  0  0
 12 13  1  0  0  0
  8 13  1  0  0  0
  8  7  1  0  0  0
 18 19  1  0  0  0
 15 17  1  0  0  0
M  END
> <minimizedAffinity>
-7.32863

$$$$
4TU4_37N_A_1204


 28 30  0  0  0  0  0  0  0  0999 V2000
   -9.3094   24.5576    8.7516 C   0  0  0  0  0  0  0  0  0  0  0  0
  -10.2045   23.5259    9.0219 C   0  0  0  0  0  0  0  0  0  0  0  0
  -10.7405   23.3955   10.3091 C   0  0  0  0  0  0  0  0  0  0  0  0
  -10.3790   24.2945   11.3008 C   0  0  0  0  0  0  0  0  0  0  0  0
   -9.4889   25.3273   11.0216 C   0  0  0  0  0  0  0  0  0  0  0  0
   -8.9569   25.4539    9.7530 C   0  0  0  0  0  0  0  0  0  0  0  0
  -10.2690   26.6135    6.4413 C   0  0  0  0  0  0  0  0  0  0  0  0
   -9.0817   25.6659    6.3704 C   0  0  0  0  0  0  0  0  0  0  0  0
   -8.6801   24.7632    7.3974 C   0  0  0  0  0  0  0  0  0  0  0  0
   -7.5001   24.1355    6.8367 C   0  0  0  0  0  0  0  0  0  0  0  0
   -6.6377   23.0784    7.4882 C   0  0  0  0  0  0  0  0  0  0  0  0
   -7.2974   24.6547    5.6392 N   0  0  0  0  0  0  0  0  0  0  0  0
   -8.2208   25.5389    5.3618 O   0  0  0  0  0  0  0  0  0  0  0  0
   -9.0759   26.2867   12.1045 C   0  0  0  0  0  0  0  0  0  0  0  0
   -9.1857   27.5376   11.9796 O   0  0  0  0  0  0  0  0  0  0  0  0
   -8.5509   25.8123   13.1316 O   0  0  0  0  0  0  0  0  0  0  0  0
   -9.5793   27.8989   11.2099 H   0  0  0  0  0  0  0  0  0  0  0  0
  -11.6652   22.3684   10.6470 N   0  0  0  0  0  0  0  0  0  0  0  0
  -11.4844   21.8258   11.4484 H   0  0  0  0  0  0  0  0  0  0  0  0
  -13.0300   22.0337    9.7674 S   0  0  0  0  0  0  0  0  0  0  0  0
  -13.4888   20.6911    9.9963 O   0  0  0  0  0  0  0  0  0  0  0  0
  -12.7127   21.9348    8.3625 O   0  0  0  0  0  0  0  0  0  0  0  0
  -14.3095   23.2436   10.0460 C   0  0  0  0  0  0  0  0  0  0  0  0
  -14.4614   23.8161   11.3119 C   0  0  0  0  0  0  0  0  0  0  0  0
  -15.4516   24.7688   11.5460 C   0  0  0  0  0  0  0  0  0  0  0  0
  -16.2921   25.1540   10.5148 C   0  0  0  0  0  0  0  0  0  0  0  0
  -16.1466   24.5842    9.2460 C   0  0  0  0  0  0  0  0  0  0  0  0
  -15.1567   23.6325    9.0079 C   0  0  0  0  0  0  0  0  0  0  0  0
 26 25  2  0  0  0
 26 27  1  0  0  0
 25 24  1  0  0  0
 27 28  2  0  0  0
 24 23  2  0  0  0
 28 23  1  0  0  0
 23 20  1  0  0  0
 16 14  2  0  0  0
 14 15  1  0  0  0
 14  5  1  0  0  0
  4  5  2  0  0  0
  4  3  1  0  0  0
  5  6  1  0  0  0
 20 22  2  0  0  0
 20 18  1  0  0  0
 20 21  2  0  0  0
 18  3  1  0  0  0
  3  2  2  0  0  0
 11 10  1  0  0  0
  6  1  2  0  0  0
  2  1  1  0  0  0
  1  9  1  0  0  0
 10  9  1  0  0  0
 10 12  2  0  0  0
  9  8  2  0  0  0
 12 13  1  0  0  0
  8 13  1  0  0  0
  8  7  1  0  0  0
 18 19  1  0  0  0
 15 17  1  0  0  0
M  END
> <minimizedAffinity>
-7.20921

$$$$
4TU4_37N_A_1204


 28 30  0  0  0  0  0  0  0  0999 V2000
  -13.6089   22.4689    9.4883 C   0  0  0  0  0  0  0  0  0  0  0  0
  -12.3521   22.6640    8.9217 C   0  0  0  0  0  0  0  0  0  0  0  0
  -11.8670   21.7451    7.9829 C   0  0  0  0  0  0  0  0  0  0  0  0
  -12.6414   20.6527    7.6235 C   0  0  0  0  0  0  0  0  0  0  0  0
  -13.8995   20.4676    8.1891 C   0  0  0  0  0  0  0  0  0  0  0  0
  -14.3768   21.3717    9.1182 C   0  0  0  0  0  0  0  0  0  0  0  0
  -12.5515   22.9896   12.5041 C   0  0  0  0  0  0  0  0  0  0  0  0
  -13.7480   23.6527   11.8398 C   0  0  0  0  0  0  0  0  0  0  0  0
  -14.2009   23.4039   10.5116 C   0  0  0  0  0  0  0  0  0  0  0  0
  -15.3312   24.3015   10.3792 C   0  0  0  0  0  0  0  0  0  0  0  0
  -16.2149   24.4755    9.1649 C   0  0  0  0  0  0  0  0  0  0  0  0
  -15.4602   24.9586   11.5177 N   0  0  0  0  0  0  0  0  0  0  0  0
  -14.5459   24.5770   12.3722 O   0  0  0  0  0  0  0  0  0  0  0  0
  -14.7287   19.2678    7.8194 C   0  0  0  0  0  0  0  0  0  0  0  0
  -15.8341   19.3670    7.2189 O   0  0  0  0  0  0  0  0  0  0  0  0
  -14.3216   18.1461    8.1825 O   0  0  0  0  0  0  0  0  0  0  0  0
  -16.1443   20.2074    6.9442 H   0  0  0  0  0  0  0  0  0  0  0  0
  -10.5952   21.8922    7.3621 N   0  0  0  0  0  0  0  0  0  0  0  0
  -10.5279   21.7211    6.3950 H   0  0  0  0  0  0  0  0  0  0  0  0
   -9.2204   22.3354    8.1757 S   0  0  0  0  0  0  0  0  0  0  0  0
   -9.1440   23.7606    8.3447 O   0  0  0  0  0  0  0  0  0  0  0  0
   -8.0567   22.1369    7.3447 O   0  0  0  0  0  0  0  0  0  0  0  0
   -9.0549   21.4603    9.7202 C   0  0  0  0  0  0  0  0  0  0  0  0
   -9.0500   22.1698   10.9243 C   0  0  0  0  0  0  0  0  0  0  0  0
   -8.9288   21.5015   12.1415 C   0  0  0  0  0  0  0  0  0  0  0  0
   -8.8139   20.1214   12.1593 C   0  0  0  0  0  0  0  0  0  0  0  0
   -8.8167   19.4053   10.9581 C   0  0  0  0  0  0  0  0  0  0  0  0
   -8.9393   20.0700    9.7393 C   0  0  0  0  0  0  0  0  0  0  0  0
 26 25  2  0  0  0
 26 27  1  0  0  0
 25 24  1  0  0  0
 27 28  2  0  0  0
 24 23  2  0  0  0
 28 23  1  0  0  0
 23 20  1  0  0  0
 16 14  2  0  0  0
 14 15  1  0  0  0
 14  5  1  0  0  0
  4  5  2  0  0  0
  4  3  1  0  0  0
  5  6  1  0  0  0
 20 22  2  0  0  0
 20 18  1  0  0  0
 20 21  2  0  0  0
 18  3  1  0  0  0
  3  2  2  0  0  0
 11 10  1  0  0  0
  6  1  2  0  0  0
  2  1  1  0  0  0
  1  9  1  0  0  0
 10  9  1  0  0  0
 10 12  2  0  0  0
  9  8  2  0  0  0
 12 13  1  0  0  0
  8 13  1  0  0  0
  8  7  1  0  0  0
 18 19  1  0  0  0
 15 17  1  0  0  0
M  END
> <minimizedAffinity>
-7.08892

$$$$
