5HZ5_65X_A_203


 29 33  0  0  0  0  0  0  0  0999 V2000
  -13.3641    7.1808  -10.0465 C   0  0  0  0  0  0  0  0  0  0  0  0
  -13.2517    4.2411  -12.3332 C   0  0  0  0  0  0  0  0  0  0  0  0
  -14.1493    3.3847  -11.7272 C   0  0  0  0  0  0  0  0  0  0  0  0
  -14.7819    3.7690  -10.5851 C   0  0  0  0  0  0  0  0  0  0  0  0
  -14.5278    5.0327  -10.0068 C   0  0  0  0  0  0  0  0  0  0  0  0
  -13.6046    5.9030  -10.6432 C   0  0  0  0  0  0  0  0  0  0  0  0
  -12.9672    5.4725  -11.8248 C   0  0  0  0  0  0  0  0  0  0  0  0
  -15.1925    5.3649   -8.8580 N   0  0  0  0  0  0  0  0  0  0  0  0
  -14.9381    6.5423   -8.3448 C   0  0  0  0  0  0  0  0  0  0  0  0
  -14.0370    7.4891   -8.8859 C   0  0  0  0  0  0  0  0  0  0  0  0
  -12.4615    3.7305  -13.7956 Cl  0  0  0  0  0  0  0  0  0  0  0  0
  -12.3980    8.1342  -10.6706 C   0  0  0  0  0  0  0  0  0  0  0  0
  -11.9202    9.9105  -12.2343 C   0  0  0  0  0  0  0  0  0  0  0  0
  -10.1632    9.0213  -10.8894 C   0  0  0  0  0  0  0  0  0  0  0  0
  -11.0547    8.1398  -10.3016 C   0  0  0  0  0  0  0  0  0  0  0  0
  -12.8163    9.0300  -11.6528 C   0  0  0  0  0  0  0  0  0  0  0  0
  -10.5954    9.9049  -11.8540 C   0  0  0  0  0  0  0  0  0  0  0  0
  -13.8514    8.7607   -8.2381 C   0  0  0  0  0  0  0  0  0  0  0  0
  -14.7032    9.7870   -8.3242 N   0  0  0  0  0  0  0  0  0  0  0  0
  -14.2304   10.8106   -7.5854 N   0  0  0  0  0  0  0  0  0  0  0  0
  -13.1175   10.4004   -7.0679 N   0  0  0  0  0  0  0  0  0  0  0  0
  -12.8524    9.1224   -7.4483 N   0  0  0  0  0  0  0  0  0  0  0  0
  -15.5400    9.7943   -8.8429 H   0  0  0  0  0  0  0  0  0  0  0  0
  -14.9600    6.6225   -5.9052 C   0  0  0  0  0  0  0  0  0  0  0  0
  -15.3618    7.6890   -4.9195 C   0  0  0  0  0  0  0  0  0  0  0  0
  -16.8711    7.7843   -4.8134 C   0  0  0  0  0  0  0  0  0  0  0  0
  -17.5028    7.9629   -6.1753 C   0  0  0  0  0  0  0  0  0  0  0  0
  -17.0459    6.8857   -7.1212 C   0  0  0  0  0  0  0  0  0  0  0  0
  -15.5855    6.8669   -7.2057 N   0  0  0  0  0  0  0  0  0  0  0  0
 11  2  1  0  0  0
  2  7  2  0  0  0
  2  3  1  0  0  0
 14 17  2  0  0  0
 14 15  1  0  0  0
  7  6  1  0  0  0
  3  4  2  0  0  0
 17 13  1  0  0  0
 15 12  2  0  0  0
 13 16  2  0  0  0
  4  5  1  0  0  0
  6  5  2  0  0  0
  6  1  1  0  0  0
 12 16  1  0  0  0
 12  1  1  0  0  0
  5  8  1  0  0  0
  1 10  2  0  0  0
  8  9  2  0  0  0
 10  9  1  0  0  0
 10 18  1  0  0  0
  9 29  1  0  0  0
 18 19  1  0  0  0
 18 22  2  0  0  0
 19 20  1  0  0  0
 22 21  1  0  0  0
 20 21  2  0  0  0
 29 28  1  0  0  0
 29 24  1  0  0  0
 28 27  1  0  0  0
 27 26  1  0  0  0
 24 25  1  0  0  0
 25 26  1  0  0  0
 19 23  1  0  0  0
M  END
> <minimizedAffinity>
-11.30057

$$$$
5HZ5_65X_A_203


 29 33  0  0  0  0  0  0  0  0999 V2000
  -14.6629    6.5730   -9.9157 C   0  0  0  0  0  0  0  0  0  0  0  0
  -11.2157    7.9875   -9.9044 C   0  0  0  0  0  0  0  0  0  0  0  0
  -11.4381    9.2539   -9.4011 C   0  0  0  0  0  0  0  0  0  0  0  0
  -12.7018    9.6356   -9.0701 C   0  0  0  0  0  0  0  0  0  0  0  0
  -13.7924    8.7538   -9.2400 C   0  0  0  0  0  0  0  0  0  0  0  0
  -13.5473    7.4543   -9.7557 C   0  0  0  0  0  0  0  0  0  0  0  0
  -12.2259    7.0923  -10.0884 C   0  0  0  0  0  0  0  0  0  0  0  0
  -15.0405    9.1920   -8.8906 N   0  0  0  0  0  0  0  0  0  0  0  0
  -16.0321    8.3536   -9.0580 C   0  0  0  0  0  0  0  0  0  0  0  0
  -15.9101    7.0391   -9.5665 C   0  0  0  0  0  0  0  0  0  0  0  0
   -9.5914    7.5205  -10.3132 Cl  0  0  0  0  0  0  0  0  0  0  0  0
  -14.4636    5.1959  -10.4596 C   0  0  0  0  0  0  0  0  0  0  0  0
  -13.8848    3.7277  -12.2867 C   0  0  0  0  0  0  0  0  0  0  0  0
  -14.5081    2.7981  -10.1811 C   0  0  0  0  0  0  0  0  0  0  0  0
  -14.6878    4.0717   -9.6682 C   0  0  0  0  0  0  0  0  0  0  0  0
  -14.0653    5.0038  -11.7812 C   0  0  0  0  0  0  0  0  0  0  0  0
  -14.1074    2.6267  -11.4880 C   0  0  0  0  0  0  0  0  0  0  0  0
  -17.0746    6.2028   -9.6911 C   0  0  0  0  0  0  0  0  0  0  0  0
  -17.5342    5.3950   -8.7306 N   0  0  0  0  0  0  0  0  0  0  0  0
  -18.6448    4.7743   -9.1760 N   0  0  0  0  0  0  0  0  0  0  0  0
  -18.8433    5.2058  -10.3798 N   0  0  0  0  0  0  0  0  0  0  0  0
  -17.8860    6.1044  -10.7325 N   0  0  0  0  0  0  0  0  0  0  0  0
  -17.1278    5.2731   -7.8423 H   0  0  0  0  0  0  0  0  0  0  0  0
  -17.8127   10.0001   -9.3360 C   0  0  0  0  0  0  0  0  0  0  0  0
  -19.3047    9.8757   -9.5056 C   0  0  0  0  0  0  0  0  0  0  0  0
  -19.9734    9.5578   -8.1827 C   0  0  0  0  0  0  0  0  0  0  0  0
  -19.3445    8.3470   -7.5315 C   0  0  0  0  0  0  0  0  0  0  0  0
  -17.8545    8.5184   -7.4119 C   0  0  0  0  0  0  0  0  0  0  0  0
  -17.2653    8.7886   -8.7234 N   0  0  0  0  0  0  0  0  0  0  0  0
 11  2  1  0  0  0
  2  7  2  0  0  0
  2  3  1  0  0  0
 14 17  2  0  0  0
 14 15  1  0  0  0
  7  6  1  0  0  0
  3  4  2  0  0  0
 17 13  1  0  0  0
 15 12  2  0  0  0
 13 16  2  0  0  0
  4  5  1  0  0  0
  6  5  2  0  0  0
  6  1  1  0  0  0
 12 16  1  0  0  0
 12  1  1  0  0  0
  5  8  1  0  0  0
  1 10  2  0  0  0
  8  9  2  0  0  0
 10  9  1  0  0  0
 10 18  1  0  0  0
  9 29  1  0  0  0
 18 19  1  0  0  0
 18 22  2  0  0  0
 19 20  1  0  0  0
 22 21  1  0  0  0
 20 21  2  0  0  0
 29 28  1  0  0  0
 29 24  1  0  0  0
 28 27  1  0  0  0
 27 26  1  0  0  0
 24 25  1  0  0  0
 25 26  1  0  0  0
 19 23  1  0  0  0
M  END
> <minimizedAffinity>
-8.76379

$$$$
