3NOX_6A5_A_1


 30 33  0  0  0  0  0  0  0  0999 V2000
   48.3584   50.1505   35.3887 C   0  0  0  0  0  0  0  0  0  0  0  0
   47.3999   50.8274   34.6752 C   0  0  0  0  0  0  0  0  0  0  0  0
   47.7378   51.3092   33.3825 C   0  0  0  0  0  0  0  0  0  0  0  0
   48.9216   51.1986   32.7932 N   0  0  0  0  0  0  0  0  0  0  0  0
   49.5916   50.0501   34.8285 N   0  0  0  0  0  0  0  0  0  0  0  0
   49.8997   50.5447   33.5300 C   0  0  0  0  0  0  0  0  0  0  0  0
   51.1936   50.2798   33.1909 N   0  0  0  0  0  0  0  0  0  0  0  0
   51.6843   49.6085   34.3187 C   0  0  0  0  0  0  0  0  0  0  0  0
   50.7460   49.4536   35.3176 C   0  0  0  0  0  0  0  0  0  0  0  0
   46.7337   52.0467   32.5686 C   0  0  0  0  0  0  0  0  0  0  0  0
   53.0762   49.1053   34.3812 C   0  0  0  0  0  0  0  0  0  0  0  0
   53.4114   48.1340   33.6727 O   0  0  0  0  0  0  0  0  0  0  0  0
   53.8350   49.5080   35.4928 N   0  0  0  0  0  0  0  0  0  0  0  0
   53.9125   50.8979   35.9931 C   0  0  0  0  0  0  0  0  0  0  0  0
   55.2371   51.5779   35.4661 C   0  0  0  0  0  0  0  0  0  0  0  0
   56.4173   50.7700   35.6705 O   0  0  0  0  0  0  0  0  0  0  0  0
   56.2879   49.3632   35.3416 C   0  0  0  0  0  0  0  0  0  0  0  0
   55.0011   48.7005   35.9085 C   0  0  0  0  0  0  0  0  0  0  0  0
   48.1854   49.6357   36.7576 C   0  0  0  0  0  0  0  0  0  0  0  0
   47.6627   48.3692   36.9474 C   0  0  0  0  0  0  0  0  0  0  0  0
   47.5321   47.8823   38.2434 C   0  0  0  0  0  0  0  0  0  0  0  0
   47.9387   48.6816   39.3142 C   0  0  0  0  0  0  0  0  0  0  0  0
   48.4528   49.9326   39.1584 C   0  0  0  0  0  0  0  0  0  0  0  0
   48.5793   50.3899   37.8759 C   0  0  0  0  0  0  0  0  0  0  0  0
   49.2403   51.9384   37.6710 Cl  0  0  0  0  0  0  0  0  0  0  0  0
   47.8429   48.0770   40.8979 Cl  0  0  0  0  0  0  0  0  0  0  0  0
   45.9952   50.9732   35.1935 C   0  0  0  0  0  0  0  0  0  0  0  0
   45.9956   52.0048   36.1916 N   0  0  0  0  0  0  0  0  0  0  0  0
   46.6339   51.7489   36.9449 H   0  0  0  0  0  0  0  0  0  0  0  0
   45.0536   52.1151   36.5669 H   0  0  0  0  0  0  0  0  0  0  0  0
  1  2  2  0  0  0
  1  5  1  0  0  0
  1 19  1  0  0  0
  2  3  1  0  0  0
  2 27  1  0  0  0
  3  4  2  0  0  0
  3 10  1  0  0  0
  4  6  1  0  0  0
  5  6  1  0  0  0
  5  9  1  0  0  0
  6  7  2  0  0  0
  7  8  1  0  0  0
  8  9  2  0  0  0
  8 11  1  0  0  0
 11 12  2  0  0  0
 11 13  1  0  0  0
 13 14  1  0  0  0
 13 18  1  0  0  0
 19 20  2  0  0  0
 19 24  1  0  0  0
 27 28  1  0  0  0
 20 21  1  0  0  0
 21 22  2  0  0  0
 22 23  1  0  0  0
 22 26  1  0  0  0
 23 24  2  0  0  0
 24 25  1  0  0  0
 14 15  1  0  0  0
 15 16  1  0  0  0
 16 17  1  0  0  0
 17 18  1  0  0  0
 28 29  1  0  0  0
 28 30  1  0  0  0
M  END
> <minimizedAffinity>
-8.26367

$$$$
3NOX_6A5_A_1


 30 33  0  0  0  0  0  0  0  0999 V2000
   54.6273   50.0373   34.4766 C   0  0  0  0  0  0  0  0  0  0  0  0
   55.4794   51.0515   34.1138 C   0  0  0  0  0  0  0  0  0  0  0  0
   54.9553   52.3678   34.0139 C   0  0  0  0  0  0  0  0  0  0  0  0
   53.6910   52.7213   34.2077 N   0  0  0  0  0  0  0  0  0  0  0  0
   53.3192   50.3595   34.6484 N   0  0  0  0  0  0  0  0  0  0  0  0
   52.8239   51.6894   34.5402 C   0  0  0  0  0  0  0  0  0  0  0  0
   51.4862   51.7446   34.7986 N   0  0  0  0  0  0  0  0  0  0  0  0
   51.1612   50.4083   35.0672 C   0  0  0  0  0  0  0  0  0  0  0  0
   52.2406   49.5535   34.9868 C   0  0  0  0  0  0  0  0  0  0  0  0
   55.8381   53.5015   33.6266 C   0  0  0  0  0  0  0  0  0  0  0  0
   49.7836   49.9987   35.4262 C   0  0  0  0  0  0  0  0  0  0  0  0
   49.5441   49.5928   36.5819 O   0  0  0  0  0  0  0  0  0  0  0  0
   48.9108   49.7430   34.3556 N   0  0  0  0  0  0  0  0  0  0  0  0
   48.7486   50.6257   33.1797 C   0  0  0  0  0  0  0  0  0  0  0  0
   47.4636   51.5251   33.3651 C   0  0  0  0  0  0  0  0  0  0  0  0
   46.2909   50.7767   33.7552 O   0  0  0  0  0  0  0  0  0  0  0  0
   46.4886   49.7835   34.7937 C   0  0  0  0  0  0  0  0  0  0  0  0
   47.7317   48.8777   34.5693 C   0  0  0  0  0  0  0  0  0  0  0  0
   54.9998   48.6159   34.5732 C   0  0  0  0  0  0  0  0  0  0  0  0
   55.3403   48.0837   35.8037 C   0  0  0  0  0  0  0  0  0  0  0  0
   55.6610   46.7331   35.8874 C   0  0  0  0  0  0  0  0  0  0  0  0
   55.6229   45.9523   34.7299 C   0  0  0  0  0  0  0  0  0  0  0  0
   55.2954   46.4489   33.5053 C   0  0  0  0  0  0  0  0  0  0  0  0
   54.9768   47.7773   33.4459 C   0  0  0  0  0  0  0  0  0  0  0  0
   54.5450   48.3996   31.9283 Cl  0  0  0  0  0  0  0  0  0  0  0  0
   55.9517   44.2893   34.8270 Cl  0  0  0  0  0  0  0  0  0  0  0  0
   56.9515   50.8070   33.9238 C   0  0  0  0  0  0  0  0  0  0  0  0
   57.5889   50.9203   35.2050 N   0  0  0  0  0  0  0  0  0  0  0  0
   57.4236   51.8520   35.5858 H   0  0  0  0  0  0  0  0  0  0  0  0
   58.5922   50.7690   35.1002 H   0  0  0  0  0  0  0  0  0  0  0  0
  1  2  2  0  0  0
  1  5  1  0  0  0
  1 19  1  0  0  0
  2  3  1  0  0  0
  2 27  1  0  0  0
  3  4  2  0  0  0
  3 10  1  0  0  0
  4  6  1  0  0  0
  5  6  1  0  0  0
  5  9  1  0  0  0
  6  7  2  0  0  0
  7  8  1  0  0  0
  8  9  2  0  0  0
  8 11  1  0  0  0
 11 12  2  0  0  0
 11 13  1  0  0  0
 13 14  1  0  0  0
 13 18  1  0  0  0
 19 20  2  0  0  0
 19 24  1  0  0  0
 27 28  1  0  0  0
 20 21  1  0  0  0
 21 22  2  0  0  0
 22 23  1  0  0  0
 22 26  1  0  0  0
 23 24  2  0  0  0
 24 25  1  0  0  0
 14 15  1  0  0  0
 15 16  1  0  0  0
 16 17  1  0  0  0
 17 18  1  0  0  0
 28 29  1  0  0  0
 28 30  1  0  0  0
M  END
> <minimizedAffinity>
-7.11152

$$$$
3NOX_6A5_A_1


 30 33  0  0  0  0  0  0  0  0999 V2000
   47.9487   49.8707   34.4631 C   0  0  0  0  0  0  0  0  0  0  0  0
   47.6021   50.0531   35.7794 C   0  0  0  0  0  0  0  0  0  0  0  0
   48.6184   49.9398   36.7651 C   0  0  0  0  0  0  0  0  0  0  0  0
   49.8911   49.6367   36.5427 N   0  0  0  0  0  0  0  0  0  0  0  0
   49.2363   49.5249   34.2041 N   0  0  0  0  0  0  0  0  0  0  0  0
   50.2325   49.4184   35.2149 C   0  0  0  0  0  0  0  0  0  0  0  0
   51.4472   49.0982   34.6846 N   0  0  0  0  0  0  0  0  0  0  0  0
   51.1776   49.0042   33.3127 C   0  0  0  0  0  0  0  0  0  0  0  0
   49.8600   49.2569   32.9930 C   0  0  0  0  0  0  0  0  0  0  0  0
   48.2944   50.1308   38.2049 C   0  0  0  0  0  0  0  0  0  0  0  0
   52.2402   48.6884   32.3300 C   0  0  0  0  0  0  0  0  0  0  0  0
   52.9275   49.6125   31.8490 O   0  0  0  0  0  0  0  0  0  0  0  0
   52.1713   47.4234   31.7230 N   0  0  0  0  0  0  0  0  0  0  0  0
   51.9424   46.1571   32.4526 C   0  0  0  0  0  0  0  0  0  0  0  0
   53.3211   45.4225   32.6852 C   0  0  0  0  0  0  0  0  0  0  0  0
   54.1264   45.3220   31.4898 O   0  0  0  0  0  0  0  0  0  0  0  0
   54.2098   46.5213   30.6783 C   0  0  0  0  0  0  0  0  0  0  0  0
   52.8370   47.2039   30.4217 C   0  0  0  0  0  0  0  0  0  0  0  0
   47.0080   49.9019   33.3304 C   0  0  0  0  0  0  0  0  0  0  0  0
   46.8594   51.0677   32.6011 C   0  0  0  0  0  0  0  0  0  0  0  0
   45.9907   51.0762   31.5152 C   0  0  0  0  0  0  0  0  0  0  0  0
   45.3000   49.9071   31.1880 C   0  0  0  0  0  0  0  0  0  0  0  0
   45.4232   48.7467   31.8892 C   0  0  0  0  0  0  0  0  0  0  0  0
   46.2874   48.7575   32.9488 C   0  0  0  0  0  0  0  0  0  0  0  0
   46.4647   47.3096   33.8142 Cl  0  0  0  0  0  0  0  0  0  0  0  0
   44.2833   49.8846   29.8283 Cl  0  0  0  0  0  0  0  0  0  0  0  0
   46.2091   50.4626   36.1728 C   0  0  0  0  0  0  0  0  0  0  0  0
   46.1057   51.8862   36.0206 N   0  0  0  0  0  0  0  0  0  0  0  0
   46.7979   52.3429   36.6146 H   0  0  0  0  0  0  0  0  0  0  0  0
   45.1708   52.1902   36.2925 H   0  0  0  0  0  0  0  0  0  0  0  0
  1  2  2  0  0  0
  1  5  1  0  0  0
  1 19  1  0  0  0
  2  3  1  0  0  0
  2 27  1  0  0  0
  3  4  2  0  0  0
  3 10  1  0  0  0
  4  6  1  0  0  0
  5  6  1  0  0  0
  5  9  1  0  0  0
  6  7  2  0  0  0
  7  8  1  0  0  0
  8  9  2  0  0  0
  8 11  1  0  0  0
 11 12  2  0  0  0
 11 13  1  0  0  0
 13 14  1  0  0  0
 13 18  1  0  0  0
 19 20  2  0  0  0
 19 24  1  0  0  0
 27 28  1  0  0  0
 20 21  1  0  0  0
 21 22  2  0  0  0
 22 23  1  0  0  0
 22 26  1  0  0  0
 23 24  2  0  0  0
 24 25  1  0  0  0
 14 15  1  0  0  0
 15 16  1  0  0  0
 16 17  1  0  0  0
 17 18  1  0  0  0
 28 29  1  0  0  0
 28 30  1  0  0  0
M  END
> <minimizedAffinity>
-7.10945

$$$$
3NOX_6A5_A_1


 30 33  0  0  0  0  0  0  0  0999 V2000
   54.5717   49.8299   34.1710 C   0  0  0  0  0  0  0  0  0  0  0  0
   55.4127   50.8538   33.8098 C   0  0  0  0  0  0  0  0  0  0  0  0
   54.8406   52.1141   33.4907 C   0  0  0  0  0  0  0  0  0  0  0  0
   53.5451   52.4013   33.4737 N   0  0  0  0  0  0  0  0  0  0  0  0
   53.2376   50.0808   34.1302 N   0  0  0  0  0  0  0  0  0  0  0  0
   52.6944   51.3555   33.8052 C   0  0  0  0  0  0  0  0  0  0  0  0
   51.3328   51.3489   33.8765 N   0  0  0  0  0  0  0  0  0  0  0  0
   51.0428   50.0304   34.2518 C   0  0  0  0  0  0  0  0  0  0  0  0
   52.1653   49.2456   34.4136 C   0  0  0  0  0  0  0  0  0  0  0  0
   55.7092   53.2560   33.0955 C   0  0  0  0  0  0  0  0  0  0  0  0
   49.6515   49.5708   34.4703 C   0  0  0  0  0  0  0  0  0  0  0  0
   49.1869   48.6566   33.7588 O   0  0  0  0  0  0  0  0  0  0  0  0
   48.8205   50.4295   35.2089 N   0  0  0  0  0  0  0  0  0  0  0  0
   49.2083   51.0793   36.4800 C   0  0  0  0  0  0  0  0  0  0  0  0
   48.6127   50.2648   37.6951 C   0  0  0  0  0  0  0  0  0  0  0  0
   47.2079   49.9602   37.5482 O   0  0  0  0  0  0  0  0  0  0  0  0
   46.7951   49.4850   36.2414 C   0  0  0  0  0  0  0  0  0  0  0  0
   47.3535   50.3274   35.0604 C   0  0  0  0  0  0  0  0  0  0  0  0
   54.9998   48.4549   34.4789 C   0  0  0  0  0  0  0  0  0  0  0  0
   55.2356   48.0937   35.7932 C   0  0  0  0  0  0  0  0  0  0  0  0
   55.6101   46.7843   36.0745 C   0  0  0  0  0  0  0  0  0  0  0  0
   55.7299   45.8710   35.0246 C   0  0  0  0  0  0  0  0  0  0  0  0
   55.5080   46.1983   33.7219 C   0  0  0  0  0  0  0  0  0  0  0  0
   55.1341   47.4887   33.4674 C   0  0  0  0  0  0  0  0  0  0  0  0
   54.8331   47.8997   31.8496 Cl  0  0  0  0  0  0  0  0  0  0  0  0
   56.1260   44.2540   35.3587 Cl  0  0  0  0  0  0  0  0  0  0  0  0
   56.9075   50.6889   33.8454 C   0  0  0  0  0  0  0  0  0  0  0  0
   57.3557   50.9925   35.1749 N   0  0  0  0  0  0  0  0  0  0  0  0
   57.0919   51.9487   35.4125 H   0  0  0  0  0  0  0  0  0  0  0  0
   58.3702   50.8981   35.2215 H   0  0  0  0  0  0  0  0  0  0  0  0
  1  2  2  0  0  0
  1  5  1  0  0  0
  1 19  1  0  0  0
  2  3  1  0  0  0
  2 27  1  0  0  0
  3  4  2  0  0  0
  3 10  1  0  0  0
  4  6  1  0  0  0
  5  6  1  0  0  0
  5  9  1  0  0  0
  6  7  2  0  0  0
  7  8  1  0  0  0
  8  9  2  0  0  0
  8 11  1  0  0  0
 11 12  2  0  0  0
 11 13  1  0  0  0
 13 14  1  0  0  0
 13 18  1  0  0  0
 19 20  2  0  0  0
 19 24  1  0  0  0
 27 28  1  0  0  0
 20 21  1  0  0  0
 21 22  2  0  0  0
 22 23  1  0  0  0
 22 26  1  0  0  0
 23 24  2  0  0  0
 24 25  1  0  0  0
 14 15  1  0  0  0
 15 16  1  0  0  0
 16 17  1  0  0  0
 17 18  1  0  0  0
 28 29  1  0  0  0
 28 30  1  0  0  0
M  END
> <minimizedAffinity>
-7.09394

$$$$
3NOX_6A5_A_1


 30 33  0  0  0  0  0  0  0  0999 V2000
   47.1699   48.9729   32.3170 C   0  0  0  0  0  0  0  0  0  0  0  0
   45.9227   49.4346   31.9745 C   0  0  0  0  0  0  0  0  0  0  0  0
   45.4734   50.6521   32.5518 C   0  0  0  0  0  0  0  0  0  0  0  0
   46.1369   51.3894   33.4335 N   0  0  0  0  0  0  0  0  0  0  0  0
   47.8610   49.6859   33.2437 N   0  0  0  0  0  0  0  0  0  0  0  0
   47.3830   50.9032   33.8052 C   0  0  0  0  0  0  0  0  0  0  0  0
   48.2850   51.4367   34.6775 N   0  0  0  0  0  0  0  0  0  0  0  0
   49.3384   50.5133   34.6462 C   0  0  0  0  0  0  0  0  0  0  0  0
   49.1144   49.4527   33.7935 C   0  0  0  0  0  0  0  0  0  0  0  0
   44.1307   51.1956   32.2112 C   0  0  0  0  0  0  0  0  0  0  0  0
   50.5695   50.7086   35.4468 C   0  0  0  0  0  0  0  0  0  0  0  0
   50.4769   50.9598   36.6659 O   0  0  0  0  0  0  0  0  0  0  0  0
   51.7478   50.9630   34.7256 N   0  0  0  0  0  0  0  0  0  0  0  0
   52.1855   50.1934   33.5406 C   0  0  0  0  0  0  0  0  0  0  0  0
   53.2676   49.1265   33.9712 C   0  0  0  0  0  0  0  0  0  0  0  0
   54.3245   49.6785   34.7873 O   0  0  0  0  0  0  0  0  0  0  0  0
   53.9050   50.5758   35.8469 C   0  0  0  0  0  0  0  0  0  0  0  0
   52.8752   51.6478   35.3925 C   0  0  0  0  0  0  0  0  0  0  0  0
   47.7590   47.7067   31.8498 C   0  0  0  0  0  0  0  0  0  0  0  0
   48.5273   47.6970   30.6997 C   0  0  0  0  0  0  0  0  0  0  0  0
   49.1032   46.5010   30.2850 C   0  0  0  0  0  0  0  0  0  0  0  0
   48.8958   45.3474   31.0445 C   0  0  0  0  0  0  0  0  0  0  0  0
   48.1419   45.3257   32.1780 C   0  0  0  0  0  0  0  0  0  0  0  0
   47.5904   46.5132   32.5721 C   0  0  0  0  0  0  0  0  0  0  0  0
   46.6685   46.5005   33.9958 Cl  0  0  0  0  0  0  0  0  0  0  0  0
   49.6428   43.8934   30.5851 Cl  0  0  0  0  0  0  0  0  0  0  0  0
   45.0854   48.7340   30.9396 C   0  0  0  0  0  0  0  0  0  0  0  0
   45.4323   49.2678   29.6529 N   0  0  0  0  0  0  0  0  0  0  0  0
   45.2543   50.2721   29.6423 H   0  0  0  0  0  0  0  0  0  0  0  0
   44.8684   48.8149   28.9337 H   0  0  0  0  0  0  0  0  0  0  0  0
  1  2  2  0  0  0
  1  5  1  0  0  0
  1 19  1  0  0  0
  2  3  1  0  0  0
  2 27  1  0  0  0
  3  4  2  0  0  0
  3 10  1  0  0  0
  4  6  1  0  0  0
  5  6  1  0  0  0
  5  9  1  0  0  0
  6  7  2  0  0  0
  7  8  1  0  0  0
  8  9  2  0  0  0
  8 11  1  0  0  0
 11 12  2  0  0  0
 11 13  1  0  0  0
 13 14  1  0  0  0
 13 18  1  0  0  0
 19 20  2  0  0  0
 19 24  1  0  0  0
 27 28  1  0  0  0
 20 21  1  0  0  0
 21 22  2  0  0  0
 22 23  1  0  0  0
 22 26  1  0  0  0
 23 24  2  0  0  0
 24 25  1  0  0  0
 14 15  1  0  0  0
 15 16  1  0  0  0
 16 17  1  0  0  0
 17 18  1  0  0  0
 28 29  1  0  0  0
 28 30  1  0  0  0
M  END
> <minimizedAffinity>
-7.08203

$$$$
3NOX_6A5_A_1


 30 33  0  0  0  0  0  0  0  0999 V2000
   48.4331   50.3319   34.2578 C   0  0  0  0  0  0  0  0  0  0  0  0
   47.5425   50.0210   35.2560 C   0  0  0  0  0  0  0  0  0  0  0  0
   48.0498   49.7875   36.5620 C   0  0  0  0  0  0  0  0  0  0  0  0
   49.3280   49.8073   36.9179 N   0  0  0  0  0  0  0  0  0  0  0  0
   49.7522   50.3263   34.5810 N   0  0  0  0  0  0  0  0  0  0  0  0
   50.2298   50.0874   35.9003 C   0  0  0  0  0  0  0  0  0  0  0  0
   51.5889   50.1784   35.9614 N   0  0  0  0  0  0  0  0  0  0  0  0
   51.9450   50.4773   34.6396 C   0  0  0  0  0  0  0  0  0  0  0  0
   50.8644   50.5745   33.7880 C   0  0  0  0  0  0  0  0  0  0  0  0
   47.1257   49.4496   37.6784 C   0  0  0  0  0  0  0  0  0  0  0  0
   53.3563   50.6882   34.2418 C   0  0  0  0  0  0  0  0  0  0  0  0
   53.7400   51.8311   33.9188 O   0  0  0  0  0  0  0  0  0  0  0  0
   54.0854   49.5376   33.8984 N   0  0  0  0  0  0  0  0  0  0  0  0
   54.0984   48.2885   34.6907 C   0  0  0  0  0  0  0  0  0  0  0  0
   55.3983   48.2424   35.5866 C   0  0  0  0  0  0  0  0  0  0  0  0
   56.6096   48.5352   34.8555 O   0  0  0  0  0  0  0  0  0  0  0  0
   56.5437   49.6611   33.9433 C   0  0  0  0  0  0  0  0  0  0  0  0
   55.2803   49.6637   33.0377 C   0  0  0  0  0  0  0  0  0  0  0  0
   48.0760   50.5494   32.8457 C   0  0  0  0  0  0  0  0  0  0  0  0
   47.8291   51.8340   32.3963 C   0  0  0  0  0  0  0  0  0  0  0  0
   47.5224   52.0301   31.0541 C   0  0  0  0  0  0  0  0  0  0  0  0
   47.4799   50.9272   30.1982 C   0  0  0  0  0  0  0  0  0  0  0  0
   47.7146   49.6518   30.6125 C   0  0  0  0  0  0  0  0  0  0  0  0
   48.0211   49.4814   31.9342 C   0  0  0  0  0  0  0  0  0  0  0  0
   48.3376   47.8984   32.4546 Cl  0  0  0  0  0  0  0  0  0  0  0  0
   47.1678   51.1580   28.5452 Cl  0  0  0  0  0  0  0  0  0  0  0  0
   46.0585   50.0242   35.0103 C   0  0  0  0  0  0  0  0  0  0  0  0
   45.5791   51.3628   35.2078 N   0  0  0  0  0  0  0  0  0  0  0  0
   45.7883   51.6618   36.1603 H   0  0  0  0  0  0  0  0  0  0  0  0
   44.5706   51.3885   35.0571 H   0  0  0  0  0  0  0  0  0  0  0  0
  1  2  2  0  0  0
  1  5  1  0  0  0
  1 19  1  0  0  0
  2  3  1  0  0  0
  2 27  1  0  0  0
  3  4  2  0  0  0
  3 10  1  0  0  0
  4  6  1  0  0  0
  5  6  1  0  0  0
  5  9  1  0  0  0
  6  7  2  0  0  0
  7  8  1  0  0  0
  8  9  2  0  0  0
  8 11  1  0  0  0
 11 12  2  0  0  0
 11 13  1  0  0  0
 13 14  1  0  0  0
 13 18  1  0  0  0
 19 20  2  0  0  0
 19 24  1  0  0  0
 27 28  1  0  0  0
 20 21  1  0  0  0
 21 22  2  0  0  0
 22 23  1  0  0  0
 22 26  1  0  0  0
 23 24  2  0  0  0
 24 25  1  0  0  0
 14 15  1  0  0  0
 15 16  1  0  0  0
 16 17  1  0  0  0
 17 18  1  0  0  0
 28 29  1  0  0  0
 28 30  1  0  0  0
M  END
> <minimizedAffinity>
-7.03357

$$$$
3NOX_6A5_A_1


 30 33  0  0  0  0  0  0  0  0999 V2000
   54.4762   49.3517   34.3765 C   0  0  0  0  0  0  0  0  0  0  0  0
   55.5550   50.1858   34.5404 C   0  0  0  0  0  0  0  0  0  0  0  0
   55.3629   51.4044   35.2443 C   0  0  0  0  0  0  0  0  0  0  0  0
   54.2148   51.8452   35.7429 N   0  0  0  0  0  0  0  0  0  0  0  0
   53.2787   49.7892   34.8447 N   0  0  0  0  0  0  0  0  0  0  0  0
   53.1181   51.0172   35.5459 C   0  0  0  0  0  0  0  0  0  0  0  0
   51.8259   51.1988   35.9416 N   0  0  0  0  0  0  0  0  0  0  0  0
   51.1845   50.0489   35.4622 C   0  0  0  0  0  0  0  0  0  0  0  0
   52.0304   49.1829   34.8014 C   0  0  0  0  0  0  0  0  0  0  0  0
   56.5007   52.3412   35.4504 C   0  0  0  0  0  0  0  0  0  0  0  0
   49.7400   49.8111   35.6887 C   0  0  0  0  0  0  0  0  0  0  0  0
   49.3411   49.4855   36.8257 O   0  0  0  0  0  0  0  0  0  0  0  0
   48.9549   49.6070   34.5419 N   0  0  0  0  0  0  0  0  0  0  0  0
   49.0136   50.4497   33.3275 C   0  0  0  0  0  0  0  0  0  0  0  0
   47.8285   51.4936   33.3487 C   0  0  0  0  0  0  0  0  0  0  0  0
   46.5444   50.8980   33.6385 O   0  0  0  0  0  0  0  0  0  0  0  0
   46.5218   49.9356   34.7235 C   0  0  0  0  0  0  0  0  0  0  0  0
   47.6687   48.8883   34.6594 C   0  0  0  0  0  0  0  0  0  0  0  0
   54.4961   48.0831   33.6290 C   0  0  0  0  0  0  0  0  0  0  0  0
   54.2114   48.0861   32.2754 C   0  0  0  0  0  0  0  0  0  0  0  0
   54.2627   46.8864   31.5741 C   0  0  0  0  0  0  0  0  0  0  0  0
   54.6071   45.7158   32.2538 C   0  0  0  0  0  0  0  0  0  0  0  0
   54.8885   45.6815   33.5854 C   0  0  0  0  0  0  0  0  0  0  0  0
   54.8392   46.8727   34.2550 C   0  0  0  0  0  0  0  0  0  0  0  0
   55.2109   46.8432   35.9096 Cl  0  0  0  0  0  0  0  0  0  0  0  0
   54.7342   44.2543   31.3989 Cl  0  0  0  0  0  0  0  0  0  0  0  0
   56.9306   49.7860   34.0815 C   0  0  0  0  0  0  0  0  0  0  0  0
   57.5981   49.1506   35.1821 N   0  0  0  0  0  0  0  0  0  0  0  0
   57.6534   49.7998   35.9668 H   0  0  0  0  0  0  0  0  0  0  0  0
   58.5395   48.8794   34.8981 H   0  0  0  0  0  0  0  0  0  0  0  0
  1  2  2  0  0  0
  1  5  1  0  0  0
  1 19  1  0  0  0
  2  3  1  0  0  0
  2 27  1  0  0  0
  3  4  2  0  0  0
  3 10  1  0  0  0
  4  6  1  0  0  0
  5  6  1  0  0  0
  5  9  1  0  0  0
  6  7  2  0  0  0
  7  8  1  0  0  0
  8  9  2  0  0  0
  8 11  1  0  0  0
 11 12  2  0  0  0
 11 13  1  0  0  0
 13 14  1  0  0  0
 13 18  1  0  0  0
 19 20  2  0  0  0
 19 24  1  0  0  0
 27 28  1  0  0  0
 20 21  1  0  0  0
 21 22  2  0  0  0
 22 23  1  0  0  0
 22 26  1  0  0  0
 23 24  2  0  0  0
 24 25  1  0  0  0
 14 15  1  0  0  0
 15 16  1  0  0  0
 16 17  1  0  0  0
 17 18  1  0  0  0
 28 29  1  0  0  0
 28 30  1  0  0  0
M  END
> <minimizedAffinity>
-7.01162

$$$$
3NOX_6A5_A_1


 30 33  0  0  0  0  0  0  0  0999 V2000
   56.7187   47.5190   35.0354 C   0  0  0  0  0  0  0  0  0  0  0  0
   57.1582   46.2450   35.2994 C   0  0  0  0  0  0  0  0  0  0  0  0
   58.5577   46.0215   35.3935 C   0  0  0  0  0  0  0  0  0  0  0  0
   59.5071   46.9317   35.2161 N   0  0  0  0  0  0  0  0  0  0  0  0
   57.6656   48.4672   34.8141 N   0  0  0  0  0  0  0  0  0  0  0  0
   59.0621   48.2117   34.9148 C   0  0  0  0  0  0  0  0  0  0  0  0
   59.7921   49.3402   34.6853 N   0  0  0  0  0  0  0  0  0  0  0  0
   58.8089   50.3065   34.4343 C   0  0  0  0  0  0  0  0  0  0  0  0
   57.5228   49.8135   34.5063 C   0  0  0  0  0  0  0  0  0  0  0  0
   59.0843   44.6595   35.6800 C   0  0  0  0  0  0  0  0  0  0  0  0
   59.1584   51.7177   34.1498 C   0  0  0  0  0  0  0  0  0  0  0  0
   59.4957   52.4689   35.0877 O   0  0  0  0  0  0  0  0  0  0  0  0
   58.7400   52.2250   32.9084 N   0  0  0  0  0  0  0  0  0  0  0  0
   58.9142   51.5245   31.6172 C   0  0  0  0  0  0  0  0  0  0  0  0
   60.1795   52.1007   30.8679 C   0  0  0  0  0  0  0  0  0  0  0  0
   60.2028   53.5441   30.8077 O   0  0  0  0  0  0  0  0  0  0  0  0
   59.8604   54.2359   32.0357 C   0  0  0  0  0  0  0  0  0  0  0  0
   58.5857   53.6846   32.7339 C   0  0  0  0  0  0  0  0  0  0  0  0
   55.3091   47.9053   34.8551 C   0  0  0  0  0  0  0  0  0  0  0  0
   54.6309   48.5117   35.8970 C   0  0  0  0  0  0  0  0  0  0  0  0
   53.3093   48.8992   35.7047 C   0  0  0  0  0  0  0  0  0  0  0  0
   52.7077   48.6721   34.4648 C   0  0  0  0  0  0  0  0  0  0  0  0
   53.3486   48.0745   33.4228 C   0  0  0  0  0  0  0  0  0  0  0  0
   54.6494   47.7074   33.6303 C   0  0  0  0  0  0  0  0  0  0  0  0
   55.4629   46.9830   32.3302 Cl  0  0  0  0  0  0  0  0  0  0  0  0
   51.1150   49.1953   34.1952 Cl  0  0  0  0  0  0  0  0  0  0  0  0
   56.1929   45.1271   35.5846 C   0  0  0  0  0  0  0  0  0  0  0  0
   56.0514   45.0156   37.0087 N   0  0  0  0  0  0  0  0  0  0  0  0
   56.9616   44.8225   37.4267 H   0  0  0  0  0  0  0  0  0  0  0  0
   55.4083   44.2549   37.2280 H   0  0  0  0  0  0  0  0  0  0  0  0
  1  2  2  0  0  0
  1  5  1  0  0  0
  1 19  1  0  0  0
  2  3  1  0  0  0
  2 27  1  0  0  0
  3  4  2  0  0  0
  3 10  1  0  0  0
  4  6  1  0  0  0
  5  6  1  0  0  0
  5  9  1  0  0  0
  6  7  2  0  0  0
  7  8  1  0  0  0
  8  9  2  0  0  0
  8 11  1  0  0  0
 11 12  2  0  0  0
 11 13  1  0  0  0
 13 14  1  0  0  0
 13 18  1  0  0  0
 19 20  2  0  0  0
 19 24  1  0  0  0
 27 28  1  0  0  0
 20 21  1  0  0  0
 21 22  2  0  0  0
 22 23  1  0  0  0
 22 26  1  0  0  0
 23 24  2  0  0  0
 24 25  1  0  0  0
 14 15  1  0  0  0
 15 16  1  0  0  0
 16 17  1  0  0  0
 17 18  1  0  0  0
 28 29  1  0  0  0
 28 30  1  0  0  0
M  END
> <minimizedAffinity>
-6.88949

$$$$
3NOX_6A5_A_1


 30 33  0  0  0  0  0  0  0  0999 V2000
   54.0354   50.0671   34.8892 C   0  0  0  0  0  0  0  0  0  0  0  0
   54.7037   51.2544   35.0616 C   0  0  0  0  0  0  0  0  0  0  0  0
   53.9600   52.4623   34.9888 C   0  0  0  0  0  0  0  0  0  0  0  0
   52.6620   52.5655   34.7329 N   0  0  0  0  0  0  0  0  0  0  0  0
   52.7123   50.1390   34.5912 N   0  0  0  0  0  0  0  0  0  0  0  0
   51.9946   51.3662   34.5243 C   0  0  0  0  0  0  0  0  0  0  0  0
   50.6758   51.1568   34.2484 N   0  0  0  0  0  0  0  0  0  0  0  0
   50.5933   49.7621   34.1412 C   0  0  0  0  0  0  0  0  0  0  0  0
   51.7987   49.1232   34.3438 C   0  0  0  0  0  0  0  0  0  0  0  0
   54.6374   53.7748   35.1709 C   0  0  0  0  0  0  0  0  0  0  0  0
   49.3098   49.0768   33.8629 C   0  0  0  0  0  0  0  0  0  0  0  0
   48.4407   49.0122   34.7564 O   0  0  0  0  0  0  0  0  0  0  0  0
   49.2871   48.2267   32.7448 N   0  0  0  0  0  0  0  0  0  0  0  0
   49.8223   48.5829   31.4126 C   0  0  0  0  0  0  0  0  0  0  0  0
   48.6393   49.0384   30.4704 C   0  0  0  0  0  0  0  0  0  0  0  0
   47.5191   48.1258   30.4739 O   0  0  0  0  0  0  0  0  0  0  0  0
   47.1024   47.6379   31.7748 C   0  0  0  0  0  0  0  0  0  0  0  0
   48.2764   47.1508   32.6696 C   0  0  0  0  0  0  0  0  0  0  0  0
   54.6664   48.7365   34.8826 C   0  0  0  0  0  0  0  0  0  0  0  0
   54.7799   48.0312   36.0671 C   0  0  0  0  0  0  0  0  0  0  0  0
   55.3504   46.7632   36.0433 C   0  0  0  0  0  0  0  0  0  0  0  0
   55.7848   46.2358   34.8251 C   0  0  0  0  0  0  0  0  0  0  0  0
   55.6895   46.9077   33.6448 C   0  0  0  0  0  0  0  0  0  0  0  0
   55.1195   48.1498   33.6889 C   0  0  0  0  0  0  0  0  0  0  0  0
   54.9756   48.9848   32.2195 Cl  0  0  0  0  0  0  0  0  0  0  0  0
   56.4265   44.6647   34.7707 Cl  0  0  0  0  0  0  0  0  0  0  0  0
   56.1644   51.2859   35.4198 C   0  0  0  0  0  0  0  0  0  0  0  0
   56.9196   51.3212   34.1996 N   0  0  0  0  0  0  0  0  0  0  0  0
   56.7023   50.4957   33.6413 H   0  0  0  0  0  0  0  0  0  0  0  0
   57.9162   51.3320   34.4168 H   0  0  0  0  0  0  0  0  0  0  0  0
  1  2  2  0  0  0
  1  5  1  0  0  0
  1 19  1  0  0  0
  2  3  1  0  0  0
  2 27  1  0  0  0
  3  4  2  0  0  0
  3 10  1  0  0  0
  4  6  1  0  0  0
  5  6  1  0  0  0
  5  9  1  0  0  0
  6  7  2  0  0  0
  7  8  1  0  0  0
  8  9  2  0  0  0
  8 11  1  0  0  0
 11 12  2  0  0  0
 11 13  1  0  0  0
 13 14  1  0  0  0
 13 18  1  0  0  0
 19 20  2  0  0  0
 19 24  1  0  0  0
 27 28  1  0  0  0
 20 21  1  0  0  0
 21 22  2  0  0  0
 22 23  1  0  0  0
 22 26  1  0  0  0
 23 24  2  0  0  0
 24 25  1  0  0  0
 14 15  1  0  0  0
 15 16  1  0  0  0
 16 17  1  0  0  0
 17 18  1  0  0  0
 28 29  1  0  0  0
 28 30  1  0  0  0
M  END
> <minimizedAffinity>
-6.88611

$$$$
3NOX_6A5_A_1


 30 33  0  0  0  0  0  0  0  0999 V2000
   48.8407   49.6806   34.2160 C   0  0  0  0  0  0  0  0  0  0  0  0
   47.9031   49.3428   35.1610 C   0  0  0  0  0  0  0  0  0  0  0  0
   48.1392   49.7223   36.5092 C   0  0  0  0  0  0  0  0  0  0  0  0
   49.2126   50.3554   36.9653 N   0  0  0  0  0  0  0  0  0  0  0  0
   49.9676   50.2986   34.6551 N   0  0  0  0  0  0  0  0  0  0  0  0
   50.1755   50.6652   36.0144 C   0  0  0  0  0  0  0  0  0  0  0  0
   51.3670   51.3072   36.1799 N   0  0  0  0  0  0  0  0  0  0  0  0
   51.8979   51.3262   34.8833 C   0  0  0  0  0  0  0  0  0  0  0  0
   51.0804   50.7302   33.9459 C   0  0  0  0  0  0  0  0  0  0  0  0
   47.1528   49.3818   37.5701 C   0  0  0  0  0  0  0  0  0  0  0  0
   53.2033   51.9601   34.5854 C   0  0  0  0  0  0  0  0  0  0  0  0
   53.2849   53.2045   34.5325 O   0  0  0  0  0  0  0  0  0  0  0  0
   54.1853   51.1289   34.0213 N   0  0  0  0  0  0  0  0  0  0  0  0
   54.5257   49.7789   34.5211 C   0  0  0  0  0  0  0  0  0  0  0  0
   55.8183   49.8586   35.4252 C   0  0  0  0  0  0  0  0  0  0  0  0
   56.9016   50.5938   34.8139 O   0  0  0  0  0  0  0  0  0  0  0  0
   56.5373   51.8407   34.1687 C   0  0  0  0  0  0  0  0  0  0  0  0
   55.2906   51.7312   33.2467 C   0  0  0  0  0  0  0  0  0  0  0  0
   48.7716   49.3167   32.7907 C   0  0  0  0  0  0  0  0  0  0  0  0
   49.2365   48.0802   32.3806 C   0  0  0  0  0  0  0  0  0  0  0  0
   49.1382   47.7360   31.0368 C   0  0  0  0  0  0  0  0  0  0  0  0
   48.5671   48.6442   30.1424 C   0  0  0  0  0  0  0  0  0  0  0  0
   48.1046   49.8689   30.5161 C   0  0  0  0  0  0  0  0  0  0  0  0
   48.2042   50.1850   31.8427 C   0  0  0  0  0  0  0  0  0  0  0  0
   47.6095   51.6997   32.3212 Cl  0  0  0  0  0  0  0  0  0  0  0  0
   48.3840   48.2137   28.5101 Cl  0  0  0  0  0  0  0  0  0  0  0  0
   46.6088   48.6791   34.7775 C   0  0  0  0  0  0  0  0  0  0  0  0
   46.7927   47.2588   34.8751 N   0  0  0  0  0  0  0  0  0  0  0  0
   47.5457   46.9698   34.2508 H   0  0  0  0  0  0  0  0  0  0  0  0
   45.9295   46.7851   34.6088 H   0  0  0  0  0  0  0  0  0  0  0  0
  1  2  2  0  0  0
  1  5  1  0  0  0
  1 19  1  0  0  0
  2  3  1  0  0  0
  2 27  1  0  0  0
  3  4  2  0  0  0
  3 10  1  0  0  0
  4  6  1  0  0  0
  5  6  1  0  0  0
  5  9  1  0  0  0
  6  7  2  0  0  0
  7  8  1  0  0  0
  8  9  2  0  0  0
  8 11  1  0  0  0
 11 12  2  0  0  0
 11 13  1  0  0  0
 13 14  1  0  0  0
 13 18  1  0  0  0
 19 20  2  0  0  0
 19 24  1  0  0  0
 27 28  1  0  0  0
 20 21  1  0  0  0
 21 22  2  0  0  0
 22 23  1  0  0  0
 22 26  1  0  0  0
 23 24  2  0  0  0
 24 25  1  0  0  0
 14 15  1  0  0  0
 15 16  1  0  0  0
 16 17  1  0  0  0
 17 18  1  0  0  0
 28 29  1  0  0  0
 28 30  1  0  0  0
M  END
> <minimizedAffinity>
-6.84190

$$$$
