2J77_NOJ_A_1446


 16 16  0  0  0  0  0  0  0  0999 V2000
   -1.1408   10.9967   10.9421 C   0  0  0  0  0  0  0  0  0  0  0  0
    0.0809   11.3576   10.0851 C   0  0  0  0  0  0  0  0  0  0  0  0
    0.5503   12.5799   10.6144 O   0  0  0  0  0  0  0  0  0  0  0  0
   -0.3444   11.6022    8.6301 C   0  0  0  0  0  0  0  0  0  0  0  0
    0.8476   11.7524    7.8898 O   0  0  0  0  0  0  0  0  0  0  0  0
   -1.2886   10.4956    8.0897 C   0  0  0  0  0  0  0  0  0  0  0  0
   -1.5224   10.8061    6.7306 O   0  0  0  0  0  0  0  0  0  0  0  0
   -2.5666   10.5307    8.9466 C   0  0  0  0  0  0  0  0  0  0  0  0
   -2.1888   10.1913   10.3163 N   0  0  0  0  0  0  0  0  0  0  0  0
   -0.1566   13.2429   10.5730 H   0  0  0  0  0  0  0  0  0  0  0  0
    1.3823   10.9472    7.9711 H   0  0  0  0  0  0  0  0  0  0  0  0
   -1.8870   11.7024    6.6618 H   0  0  0  0  0  0  0  0  0  0  0  0
   -3.0251   10.2740   10.8943 H   0  0  0  0  0  0  0  0  0  0  0  0
   -3.6350    9.5065    8.5312 C   0  0  0  0  0  0  0  0  0  0  0  0
   -3.2504    8.1954    8.9161 O   0  0  0  0  0  0  0  0  0  0  0  0
   -2.4165    7.9617    8.4791 H   0  0  0  0  0  0  0  0  0  0  0  0
  1  2  1  0  0  0
  1  9  1  0  0  0
  2  3  1  0  0  0
  2  4  1  0  0  0
  4  5  1  0  0  0
  4  6  1  0  0  0
  6  7  1  0  0  0
  6  8  1  0  0  0
  8  9  1  0  0  0
  8 14  1  0  0  0
 14 15  1  0  0  0
  3 10  1  0  0  0
  5 11  1  0  0  0
  7 12  1  0  0  0
  9 13  1  0  0  0
 15 16  1  0  0  0
M  END
> <minimizedAffinity>
-7.00502

$$$$
2J77_NOJ_A_1446


 16 16  0  0  0  0  0  0  0  0999 V2000
    0.1698   11.4005   10.1118 C   0  0  0  0  0  0  0  0  0  0  0  0
   -0.0194   11.2941    8.5919 C   0  0  0  0  0  0  0  0  0  0  0  0
   -0.0192   12.6286    8.1294 O   0  0  0  0  0  0  0  0  0  0  0  0
   -1.3889   10.6797    8.2686 C   0  0  0  0  0  0  0  0  0  0  0  0
   -1.4044   10.4598    6.8747 O   0  0  0  0  0  0  0  0  0  0  0  0
   -1.6887    9.4117    9.1116 C   0  0  0  0  0  0  0  0  0  0  0  0
   -2.9282    8.9145    8.6486 O   0  0  0  0  0  0  0  0  0  0  0  0
   -1.7245    9.8458   10.5878 C   0  0  0  0  0  0  0  0  0  0  0  0
   -0.3920   10.3320   10.9371 N   0  0  0  0  0  0  0  0  0  0  0  0
   -0.7273   13.1236    8.5703 H   0  0  0  0  0  0  0  0  0  0  0  0
   -0.6819    9.8591    6.6341 H   0  0  0  0  0  0  0  0  0  0  0  0
   -3.6034    9.6067    8.7255 H   0  0  0  0  0  0  0  0  0  0  0  0
   -0.4330   10.6754   11.8967 H   0  0  0  0  0  0  0  0  0  0  0  0
   -2.0374    8.7088   11.5739 C   0  0  0  0  0  0  0  0  0  0  0  0
   -1.3077    8.8752   12.7801 O   0  0  0  0  0  0  0  0  0  0  0  0
   -0.3571    8.8601   12.5876 H   0  0  0  0  0  0  0  0  0  0  0  0
  1  2  1  0  0  0
  1  9  1  0  0  0
  2  3  1  0  0  0
  2  4  1  0  0  0
  4  5  1  0  0  0
  4  6  1  0  0  0
  6  7  1  0  0  0
  6  8  1  0  0  0
  8  9  1  0  0  0
  8 14  1  0  0  0
 14 15  1  0  0  0
  3 10  1  0  0  0
  5 11  1  0  0  0
  7 12  1  0  0  0
  9 13  1  0  0  0
 15 16  1  0  0  0
M  END
> <minimizedAffinity>
-6.89977

$$$$
2J77_NOJ_A_1446


 16 16  0  0  0  0  0  0  0  0999 V2000
   -3.0322    9.9296    8.7432 C   0  0  0  0  0  0  0  0  0  0  0  0
   -1.7734   10.7048    8.3289 C   0  0  0  0  0  0  0  0  0  0  0  0
   -1.7389   10.6191    6.9196 O   0  0  0  0  0  0  0  0  0  0  0  0
   -0.5179   10.0117    8.8777 C   0  0  0  0  0  0  0  0  0  0  0  0
    0.5631   10.8761    8.6023 O   0  0  0  0  0  0  0  0  0  0  0  0
   -0.6541    9.6274   10.3750 C   0  0  0  0  0  0  0  0  0  0  0  0
    0.5937    9.0843   10.7576 O   0  0  0  0  0  0  0  0  0  0  0  0
   -1.8112    8.6182   10.4814 C   0  0  0  0  0  0  0  0  0  0  0  0
   -3.0327    9.3019   10.0641 N   0  0  0  0  0  0  0  0  0  0  0  0
   -1.7202    9.6867    6.6527 H   0  0  0  0  0  0  0  0  0  0  0  0
    0.4127   11.7303    9.0365 H   0  0  0  0  0  0  0  0  0  0  0  0
    0.8127    8.3378   10.1783 H   0  0  0  0  0  0  0  0  0  0  0  0
   -3.7875    8.6160   10.0770 H   0  0  0  0  0  0  0  0  0  0  0  0
   -2.0736    8.1049   11.9065 C   0  0  0  0  0  0  0  0  0  0  0  0
   -1.3349    8.8586   12.8558 O   0  0  0  0  0  0  0  0  0  0  0  0
   -0.3868    8.7727   12.6697 H   0  0  0  0  0  0  0  0  0  0  0  0
  1  2  1  0  0  0
  1  9  1  0  0  0
  2  3  1  0  0  0
  2  4  1  0  0  0
  4  5  1  0  0  0
  4  6  1  0  0  0
  6  7  1  0  0  0
  6  8  1  0  0  0
  8  9  1  0  0  0
  8 14  1  0  0  0
 14 15  1  0  0  0
  3 10  1  0  0  0
  5 11  1  0  0  0
  7 12  1  0  0  0
  9 13  1  0  0  0
 15 16  1  0  0  0
M  END
> <minimizedAffinity>
-6.22716

$$$$
2J77_NOJ_A_1446


 16 16  0  0  0  0  0  0  0  0999 V2000
   -0.0944    8.1325   10.2801 C   0  0  0  0  0  0  0  0  0  0  0  0
   -1.6003    7.8570   10.1632 C   0  0  0  0  0  0  0  0  0  0  0  0
   -1.6949    6.6384    9.4555 O   0  0  0  0  0  0  0  0  0  0  0  0
   -2.2764    8.9488    9.3213 C   0  0  0  0  0  0  0  0  0  0  0  0
   -3.6651    8.7152    9.4128 O   0  0  0  0  0  0  0  0  0  0  0  0
   -1.8471   10.3793    9.7425 C   0  0  0  0  0  0  0  0  0  0  0  0
   -2.6063   11.2686    8.9481 O   0  0  0  0  0  0  0  0  0  0  0  0
   -0.3322   10.4903    9.4951 C   0  0  0  0  0  0  0  0  0  0  0  0
    0.3299    9.5289   10.3733 N   0  0  0  0  0  0  0  0  0  0  0  0
   -1.2537    6.7284    8.5964 H   0  0  0  0  0  0  0  0  0  0  0  0
   -3.9407    8.7637   10.3415 H   0  0  0  0  0  0  0  0  0  0  0  0
   -2.4559   11.0730    8.0100 H   0  0  0  0  0  0  0  0  0  0  0  0
    1.3279    9.5604   10.1651 H   0  0  0  0  0  0  0  0  0  0  0  0
    0.2656   11.8646    9.8372 C   0  0  0  0  0  0  0  0  0  0  0  0
   -0.2447   12.8645    8.9685 O   0  0  0  0  0  0  0  0  0  0  0  0
   -0.0091   12.6482    8.0528 H   0  0  0  0  0  0  0  0  0  0  0  0
  1  2  1  0  0  0
  1  9  1  0  0  0
  2  3  1  0  0  0
  2  4  1  0  0  0
  4  5  1  0  0  0
  4  6  1  0  0  0
  6  7  1  0  0  0
  6  8  1  0  0  0
  8  9  1  0  0  0
  8 14  1  0  0  0
 14 15  1  0  0  0
  3 10  1  0  0  0
  5 11  1  0  0  0
  7 12  1  0  0  0
  9 13  1  0  0  0
 15 16  1  0  0  0
M  END
> <minimizedAffinity>
-6.12025

$$$$
2J77_NOJ_A_1446


 16 16  0  0  0  0  0  0  0  0999 V2000
   -0.1002    7.4257    9.5126 C   0  0  0  0  0  0  0  0  0  0  0  0
   -0.1642    7.5008   11.0447 C   0  0  0  0  0  0  0  0  0  0  0  0
   -0.6977    6.2573   11.4495 O   0  0  0  0  0  0  0  0  0  0  0  0
   -1.1410    8.6017   11.4824 C   0  0  0  0  0  0  0  0  0  0  0  0
   -1.0055    8.7167   12.8823 O   0  0  0  0  0  0  0  0  0  0  0  0
   -0.9234    9.9329   10.7150 C   0  0  0  0  0  0  0  0  0  0  0  0
   -1.8248   10.8646   11.2786 O   0  0  0  0  0  0  0  0  0  0  0  0
   -1.1979    9.6496    9.2274 C   0  0  0  0  0  0  0  0  0  0  0  0
   -0.2027    8.6822    8.7715 N   0  0  0  0  0  0  0  0  0  0  0  0
   -1.5652    6.1275   11.0353 H   0  0  0  0  0  0  0  0  0  0  0  0
   -0.0895    8.9499   13.1004 H   0  0  0  0  0  0  0  0  0  0  0  0
   -2.7287   10.5182   11.2168 H   0  0  0  0  0  0  0  0  0  0  0  0
   -0.4226    8.4497    7.8030 H   0  0  0  0  0  0  0  0  0  0  0  0
   -1.0525   10.8765    8.3126 C   0  0  0  0  0  0  0  0  0  0  0  0
   -1.1774   10.5035    6.9487 O   0  0  0  0  0  0  0  0  0  0  0  0
   -0.4799    9.8687    6.7219 H   0  0  0  0  0  0  0  0  0  0  0  0
  1  2  1  0  0  0
  1  9  1  0  0  0
  2  3  1  0  0  0
  2  4  1  0  0  0
  4  5  1  0  0  0
  4  6  1  0  0  0
  6  7  1  0  0  0
  6  8  1  0  0  0
  8  9  1  0  0  0
  8 14  1  0  0  0
 14 15  1  0  0  0
  3 10  1  0  0  0
  5 11  1  0  0  0
  7 12  1  0  0  0
  9 13  1  0  0  0
 15 16  1  0  0  0
M  END
> <minimizedAffinity>
-6.11244

$$$$
2J77_NOJ_A_1446


 16 16  0  0  0  0  0  0  0  0999 V2000
   -1.9664    9.4552   10.7841 C   0  0  0  0  0  0  0  0  0  0  0  0
   -2.8540    9.5522    9.5351 C   0  0  0  0  0  0  0  0  0  0  0  0
   -3.2917    8.2312    9.2944 O   0  0  0  0  0  0  0  0  0  0  0  0
   -2.0225   10.0047    8.3262 C   0  0  0  0  0  0  0  0  0  0  0  0
   -2.9399   10.2336    7.2787 O   0  0  0  0  0  0  0  0  0  0  0  0
   -1.1141   11.2211    8.6477 C   0  0  0  0  0  0  0  0  0  0  0  0
   -0.4829   11.5737    7.4330 O   0  0  0  0  0  0  0  0  0  0  0  0
   -0.1229   10.7727    9.7363 C   0  0  0  0  0  0  0  0  0  0  0  0
   -0.8981   10.4430   10.9299 N   0  0  0  0  0  0  0  0  0  0  0  0
   -2.5225    7.6526    9.1742 H   0  0  0  0  0  0  0  0  0  0  0  0
   -3.5736   10.9171    7.5475 H   0  0  0  0  0  0  0  0  0  0  0  0
   -0.0036   10.8065    7.0831 H   0  0  0  0  0  0  0  0  0  0  0  0
   -0.2465   10.0886   11.6301 H   0  0  0  0  0  0  0  0  0  0  0  0
    0.8803   11.8563   10.1634 C   0  0  0  0  0  0  0  0  0  0  0  0
    0.3661   12.6185   11.2449 O   0  0  0  0  0  0  0  0  0  0  0  0
   -0.4563   13.0541   10.9713 H   0  0  0  0  0  0  0  0  0  0  0  0
  1  2  1  0  0  0
  1  9  1  0  0  0
  2  3  1  0  0  0
  2  4  1  0  0  0
  4  5  1  0  0  0
  4  6  1  0  0  0
  6  7  1  0  0  0
  6  8  1  0  0  0
  8  9  1  0  0  0
  8 14  1  0  0  0
 14 15  1  0  0  0
  3 10  1  0  0  0
  5 11  1  0  0  0
  7 12  1  0  0  0
  9 13  1  0  0  0
 15 16  1  0  0  0
M  END
> <minimizedAffinity>
-5.97621

$$$$
2J77_NOJ_A_1446


 16 16  0  0  0  0  0  0  0  0999 V2000
   -1.7537   10.2615   11.2006 C   0  0  0  0  0  0  0  0  0  0  0  0
   -1.5049   10.5760    9.7185 C   0  0  0  0  0  0  0  0  0  0  0  0
   -2.7213   11.1210    9.2516 O   0  0  0  0  0  0  0  0  0  0  0  0
   -1.2344    9.2812    8.9388 C   0  0  0  0  0  0  0  0  0  0  0  0
   -0.8480    9.6752    7.6400 O   0  0  0  0  0  0  0  0  0  0  0  0
   -0.2095    8.3585    9.6504 C   0  0  0  0  0  0  0  0  0  0  0  0
    0.0011    7.2614    8.7842 O   0  0  0  0  0  0  0  0  0  0  0  0
   -0.8249    7.9529   11.0015 C   0  0  0  0  0  0  0  0  0  0  0  0
   -0.9858    9.1685   11.7956 N   0  0  0  0  0  0  0  0  0  0  0  0
   -3.4373   10.4822    9.3931 H   0  0  0  0  0  0  0  0  0  0  0  0
   -0.0530   10.2284    7.6931 H   0  0  0  0  0  0  0  0  0  0  0  0
   -0.8477    6.8327    8.5932 H   0  0  0  0  0  0  0  0  0  0  0  0
   -1.4490    8.9068   12.6658 H   0  0  0  0  0  0  0  0  0  0  0  0
    0.0530    7.0083   11.8382 C   0  0  0  0  0  0  0  0  0  0  0  0
    1.4292    7.2427   11.5816 O   0  0  0  0  0  0  0  0  0  0  0  0
    1.6152    7.0818   10.6433 H   0  0  0  0  0  0  0  0  0  0  0  0
  1  2  1  0  0  0
  1  9  1  0  0  0
  2  3  1  0  0  0
  2  4  1  0  0  0
  4  5  1  0  0  0
  4  6  1  0  0  0
  6  7  1  0  0  0
  6  8  1  0  0  0
  8  9  1  0  0  0
  8 14  1  0  0  0
 14 15  1  0  0  0
  3 10  1  0  0  0
  5 11  1  0  0  0
  7 12  1  0  0  0
  9 13  1  0  0  0
 15 16  1  0  0  0
M  END
> <minimizedAffinity>
-5.82442

$$$$
2J77_NOJ_A_1446


 16 16  0  0  0  0  0  0  0  0999 V2000
   -1.3280   10.2531   10.3075 C   0  0  0  0  0  0  0  0  0  0  0  0
   -0.5943    9.3259    9.3280 C   0  0  0  0  0  0  0  0  0  0  0  0
   -1.2432    9.5171    8.0882 O   0  0  0  0  0  0  0  0  0  0  0  0
   -0.7835    7.8593    9.7418 C   0  0  0  0  0  0  0  0  0  0  0  0
    0.0577    7.0997    8.9010 O   0  0  0  0  0  0  0  0  0  0  0  0
   -0.5370    7.6295   11.2566 C   0  0  0  0  0  0  0  0  0  0  0  0
   -0.6610    6.2376   11.4694 O   0  0  0  0  0  0  0  0  0  0  0  0
   -1.5900    8.4540   12.0183 C   0  0  0  0  0  0  0  0  0  0  0  0
   -1.3496    9.8630   11.7167 N   0  0  0  0  0  0  0  0  0  0  0  0
   -2.1859    9.3082    8.1810 H   0  0  0  0  0  0  0  0  0  0  0  0
    0.9771    7.3849    9.0206 H   0  0  0  0  0  0  0  0  0  0  0  0
   -1.5319    5.9400   11.1631 H   0  0  0  0  0  0  0  0  0  0  0  0
   -2.0844   10.4037   12.1730 H   0  0  0  0  0  0  0  0  0  0  0  0
   -1.5096    8.3241   13.5479 C   0  0  0  0  0  0  0  0  0  0  0  0
   -0.2151    7.9017   13.9487 O   0  0  0  0  0  0  0  0  0  0  0  0
   -0.0223    7.0351   13.5578 H   0  0  0  0  0  0  0  0  0  0  0  0
  1  2  1  0  0  0
  1  9  1  0  0  0
  2  3  1  0  0  0
  2  4  1  0  0  0
  4  5  1  0  0  0
  4  6  1  0  0  0
  6  7  1  0  0  0
  6  8  1  0  0  0
  8  9  1  0  0  0
  8 14  1  0  0  0
 14 15  1  0  0  0
  3 10  1  0  0  0
  5 11  1  0  0  0
  7 12  1  0  0  0
  9 13  1  0  0  0
 15 16  1  0  0  0
M  END
> <minimizedAffinity>
-5.78897

$$$$
2J77_NOJ_A_1446


 16 16  0  0  0  0  0  0  0  0999 V2000
   -1.0473    7.3949   10.1469 C   0  0  0  0  0  0  0  0  0  0  0  0
    0.0974    8.4162   10.2074 C   0  0  0  0  0  0  0  0  0  0  0  0
    0.7911    8.1173   11.4007 O   0  0  0  0  0  0  0  0  0  0  0  0
   -0.4662    9.8393   10.3294 C   0  0  0  0  0  0  0  0  0  0  0  0
    0.6349   10.7128   10.2025 O   0  0  0  0  0  0  0  0  0  0  0  0
   -1.6122   10.1165    9.3204 C   0  0  0  0  0  0  0  0  0  0  0  0
   -1.9668   11.4743    9.4899 O   0  0  0  0  0  0  0  0  0  0  0  0
   -2.7580    9.1456    9.6567 C   0  0  0  0  0  0  0  0  0  0  0  0
   -2.2645    7.7881    9.4382 N   0  0  0  0  0  0  0  0  0  0  0  0
    0.1819    8.1792   12.1530 H   0  0  0  0  0  0  0  0  0  0  0  0
    1.0603   10.5738    9.3419 H   0  0  0  0  0  0  0  0  0  0  0  0
   -2.2110   11.6316   10.4154 H   0  0  0  0  0  0  0  0  0  0  0  0
   -3.0042    7.1443    9.7191 H   0  0  0  0  0  0  0  0  0  0  0  0
   -3.9994    9.2986    8.7629 C   0  0  0  0  0  0  0  0  0  0  0  0
   -3.6724    9.9805    7.5617 O   0  0  0  0  0  0  0  0  0  0  0  0
   -3.3372   10.8658    7.7735 H   0  0  0  0  0  0  0  0  0  0  0  0
  1  2  1  0  0  0
  1  9  1  0  0  0
  2  3  1  0  0  0
  2  4  1  0  0  0
  4  5  1  0  0  0
  4  6  1  0  0  0
  6  7  1  0  0  0
  6  8  1  0  0  0
  8  9  1  0  0  0
  8 14  1  0  0  0
 14 15  1  0  0  0
  3 10  1  0  0  0
  5 11  1  0  0  0
  7 12  1  0  0  0
  9 13  1  0  0  0
 15 16  1  0  0  0
M  END
> <minimizedAffinity>
-5.58543

$$$$
2J77_NOJ_A_1446


 16 16  0  0  0  0  0  0  0  0999 V2000
   -0.9148    9.7765    8.3479 C   0  0  0  0  0  0  0  0  0  0  0  0
   -1.5583   10.6454    9.4379 C   0  0  0  0  0  0  0  0  0  0  0  0
   -1.1392   11.9629    9.1496 O   0  0  0  0  0  0  0  0  0  0  0  0
   -1.0053   10.2625   10.8182 C   0  0  0  0  0  0  0  0  0  0  0  0
   -1.7700   10.9792   11.7632 O   0  0  0  0  0  0  0  0  0  0  0  0
   -0.9898    8.7282   11.0507 C   0  0  0  0  0  0  0  0  0  0  0  0
   -0.5430    8.5352   12.3778 O   0  0  0  0  0  0  0  0  0  0  0  0
   -0.0449    8.1191    9.9997 C   0  0  0  0  0  0  0  0  0  0  0  0
   -0.6199    8.3839    8.6831 N   0  0  0  0  0  0  0  0  0  0  0  0
   -0.1699   12.0015    9.1509 H   0  0  0  0  0  0  0  0  0  0  0  0
   -2.7044   10.7335   11.6762 H   0  0  0  0  0  0  0  0  0  0  0  0
    0.3219    8.9591   12.4927 H   0  0  0  0  0  0  0  0  0  0  0  0
    0.0368    8.0334    7.9858 H   0  0  0  0  0  0  0  0  0  0  0  0
    0.1120    6.5931   10.0990 C   0  0  0  0  0  0  0  0  0  0  0  0
    0.1540    6.0074    8.8066 O   0  0  0  0  0  0  0  0  0  0  0  0
   -0.6728    6.1998    8.3374 H   0  0  0  0  0  0  0  0  0  0  0  0
  1  2  1  0  0  0
  1  9  1  0  0  0
  2  3  1  0  0  0
  2  4  1  0  0  0
  4  5  1  0  0  0
  4  6  1  0  0  0
  6  7  1  0  0  0
  6  8  1  0  0  0
  8  9  1  0  0  0
  8 14  1  0  0  0
 14 15  1  0  0  0
  3 10  1  0  0  0
  5 11  1  0  0  0
  7 12  1  0  0  0
  9 13  1  0  0  0
 15 16  1  0  0  0
M  END
> <minimizedAffinity>
-5.20912

$$$$
