3JRS_A8S_A_1


 21 21  0  0  0  0  0  0  0  0999 V2000
   30.2820  -18.1927   19.5605 C   0  0  0  0  0  0  0  0  0  0  0  0
   28.9822  -18.6912   19.9512 O   0  0  0  0  0  0  0  0  0  0  0  0
   30.1468  -16.8434   18.8466 C   0  0  0  0  0  0  0  0  0  0  0  0
   30.9947  -16.7823   17.8629 C   0  0  0  0  0  0  0  0  0  0  0  0
   31.9335  -17.4069   17.3135 C   0  0  0  0  0  0  0  0  0  0  0  0
   32.7350  -17.0251   16.3193 O   0  0  0  0  0  0  0  0  0  0  0  0
   32.0904  -18.6335   17.9408 C   0  0  0  0  0  0  0  0  0  0  0  0
   30.8734  -19.2637   18.5973 C   0  0  0  0  0  0  0  0  0  0  0  0
   29.0855  -15.8773   19.2936 C   0  0  0  0  0  0  0  0  0  0  0  0
   29.9374  -19.6656   17.4304 C   0  0  0  0  0  0  0  0  0  0  0  0
   31.2153  -20.5811   19.3463 C   0  0  0  0  0  0  0  0  0  0  0  0
   29.0849  -19.5444   20.4010 H   0  0  0  0  0  0  0  0  0  0  0  0
   31.3408  -16.9143   21.3877 C   0  0  0  0  0  0  0  0  0  0  0  0
   31.2081  -18.1204   20.7795 C   0  0  0  0  0  0  0  0  0  0  0  0
   32.3429  -15.5048   23.3853 C   0  0  0  0  0  0  0  0  0  0  0  0
   32.1655  -16.8349   22.6815 C   0  0  0  0  0  0  0  0  0  0  0  0
   33.4549  -17.6411   22.6683 C   0  0  0  0  0  0  0  0  0  0  0  0
   31.1051  -14.6746   23.6272 C   0  0  0  0  0  0  0  0  0  0  0  0
   30.5521  -14.8062   24.7595 O   0  0  0  0  0  0  0  0  0  0  0  0
   30.7534  -13.8005   22.7923 O   0  0  0  0  0  0  0  0  0  0  0  0
   30.8465  -15.4713   25.3502 H   0  0  0  0  0  0  0  0  0  0  0  0
 19 18  1  0  0  0
 20 18  2  0  0  0
 18 15  1  0  0  0
 15 16  2  0  0  0
 16 13  1  0  0  0
 16 17  1  0  0  0
 13 14  2  0  0  0
 14  1  1  0  0  0
  2  1  1  0  0  0
  1  8  1  0  0  0
  1  3  1  0  0  0
  3  9  1  0  0  0
  3  4  2  0  0  0
  4  5  1  0  0  0
  7  5  1  0  0  0
  5  6  2  0  0  0
  8  7  1  0  0  0
 11  8  1  0  0  0
 10  8  1  0  0  0
  2 12  1  0  0  0
 19 21  1  0  0  0
M  END
> <minimizedAffinity>
-8.43472

$$$$
3JRS_A8S_A_1


 21 21  0  0  0  0  0  0  0  0999 V2000
   31.5125  -17.8040   19.0236 C   0  0  0  0  0  0  0  0  0  0  0  0
   30.1870  -17.2353   19.1251 O   0  0  0  0  0  0  0  0  0  0  0  0
   32.3103  -17.1106   17.9139 C   0  0  0  0  0  0  0  0  0  0  0  0
   33.0296  -17.9879   17.2789 C   0  0  0  0  0  0  0  0  0  0  0  0
   33.3578  -19.1985   17.2788 C   0  0  0  0  0  0  0  0  0  0  0  0
   34.2502  -19.8323   16.5182 O   0  0  0  0  0  0  0  0  0  0  0  0
   32.6593  -19.8579   18.2788 C   0  0  0  0  0  0  0  0  0  0  0  0
   31.3018  -19.3094   18.6860 C   0  0  0  0  0  0  0  0  0  0  0  0
   32.1140  -15.6394   17.6757 C   0  0  0  0  0  0  0  0  0  0  0  0
   30.3711  -19.5727   17.4762 C   0  0  0  0  0  0  0  0  0  0  0  0
   30.6806  -20.0828   19.8816 C   0  0  0  0  0  0  0  0  0  0  0  0
   29.6957  -17.6843   19.8307 H   0  0  0  0  0  0  0  0  0  0  0  0
   31.7892  -16.8015   21.2624 C   0  0  0  0  0  0  0  0  0  0  0  0
   32.2201  -17.7400   20.3816 C   0  0  0  0  0  0  0  0  0  0  0  0
   32.4136  -15.5079   23.4800 C   0  0  0  0  0  0  0  0  0  0  0  0
   32.3958  -16.7908   22.6739 C   0  0  0  0  0  0  0  0  0  0  0  0
   33.6980  -17.5630   22.8160 C   0  0  0  0  0  0  0  0  0  0  0  0
   31.1251  -14.7260   23.5729 C   0  0  0  0  0  0  0  0  0  0  0  0
   30.5153  -14.7767   24.6823 O   0  0  0  0  0  0  0  0  0  0  0  0
   30.7798  -13.9573   22.6377 O   0  0  0  0  0  0  0  0  0  0  0  0
   30.8073  -15.3645   25.3510 H   0  0  0  0  0  0  0  0  0  0  0  0
 19 18  1  0  0  0
 20 18  2  0  0  0
 18 15  1  0  0  0
 15 16  2  0  0  0
 16 13  1  0  0  0
 16 17  1  0  0  0
 13 14  2  0  0  0
 14  1  1  0  0  0
  2  1  1  0  0  0
  1  8  1  0  0  0
  1  3  1  0  0  0
  3  9  1  0  0  0
  3  4  2  0  0  0
  4  5  1  0  0  0
  7  5  1  0  0  0
  5  6  2  0  0  0
  8  7  1  0  0  0
 11  8  1  0  0  0
 10  8  1  0  0  0
  2 12  1  0  0  0
 19 21  1  0  0  0
M  END
> <minimizedAffinity>
-8.36387

$$$$
3JRS_A8S_A_1


 21 21  0  0  0  0  0  0  0  0999 V2000
   32.2701  -17.4142   18.8328 C   0  0  0  0  0  0  0  0  0  0  0  0
   30.8466  -17.6681   18.8269 O   0  0  0  0  0  0  0  0  0  0  0  0
   32.5876  -16.1214   18.0735 C   0  0  0  0  0  0  0  0  0  0  0  0
   33.6832  -16.2735   17.3902 C   0  0  0  0  0  0  0  0  0  0  0  0
   34.6174  -17.0803   17.1678 C   0  0  0  0  0  0  0  0  0  0  0  0
   35.7286  -16.9103   16.4515 O   0  0  0  0  0  0  0  0  0  0  0  0
   34.3672  -18.2626   17.8477 C   0  0  0  0  0  0  0  0  0  0  0  0
   32.9207  -18.6382   18.1238 C   0  0  0  0  0  0  0  0  0  0  0  0
   31.6278  -14.9672   18.1518 C   0  0  0  0  0  0  0  0  0  0  0  0
   32.3120  -18.9783   16.7407 C   0  0  0  0  0  0  0  0  0  0  0  0
   32.7928  -19.9295   18.9780 C   0  0  0  0  0  0  0  0  0  0  0  0
   30.6625  -18.4884   19.3107 H   0  0  0  0  0  0  0  0  0  0  0  0
   32.0289  -16.7742   21.2048 C   0  0  0  0  0  0  0  0  0  0  0  0
   32.7967  -17.3928   20.2720 C   0  0  0  0  0  0  0  0  0  0  0  0
   32.4103  -15.5971   23.5394 C   0  0  0  0  0  0  0  0  0  0  0  0
   32.4701  -16.8402   22.6750 C   0  0  0  0  0  0  0  0  0  0  0  0
   33.7385  -17.6403   22.9267 C   0  0  0  0  0  0  0  0  0  0  0  0
   31.1288  -14.7987   23.5230 C   0  0  0  0  0  0  0  0  0  0  0  0
   30.4859  -14.7447   24.6134 O   0  0  0  0  0  0  0  0  0  0  0  0
   30.8202  -14.1135   22.5130 O   0  0  0  0  0  0  0  0  0  0  0  0
   30.7512  -15.2730   25.3403 H   0  0  0  0  0  0  0  0  0  0  0  0
 19 18  1  0  0  0
 20 18  2  0  0  0
 18 15  1  0  0  0
 15 16  2  0  0  0
 16 13  1  0  0  0
 16 17  1  0  0  0
 13 14  2  0  0  0
 14  1  1  0  0  0
  2  1  1  0  0  0
  1  8  1  0  0  0
  1  3  1  0  0  0
  3  9  1  0  0  0
  3  4  2  0  0  0
  4  5  1  0  0  0
  7  5  1  0  0  0
  5  6  2  0  0  0
  8  7  1  0  0  0
 11  8  1  0  0  0
 10  8  1  0  0  0
  2 12  1  0  0  0
 19 21  1  0  0  0
M  END
> <minimizedAffinity>
-8.32055

$$$$
3JRS_A8S_A_1


 21 21  0  0  0  0  0  0  0  0999 V2000
   31.8414  -17.3224   18.9196 C   0  0  0  0  0  0  0  0  0  0  0  0
   31.4932  -18.6791   18.5604 O   0  0  0  0  0  0  0  0  0  0  0  0
   30.6083  -16.4152   18.8480 C   0  0  0  0  0  0  0  0  0  0  0  0
   30.9458  -15.2560   18.3656 C   0  0  0  0  0  0  0  0  0  0  0  0
   31.9329  -14.5809   17.9872 C   0  0  0  0  0  0  0  0  0  0  0  0
   31.9897  -13.3024   17.6148 O   0  0  0  0  0  0  0  0  0  0  0  0
   33.0716  -15.3698   18.0467 C   0  0  0  0  0  0  0  0  0  0  0  0
   32.9121  -16.8722   17.8827 C   0  0  0  0  0  0  0  0  0  0  0  0
   29.2659  -16.9655   19.2412 C   0  0  0  0  0  0  0  0  0  0  0  0
   32.5036  -17.0842   16.4037 C   0  0  0  0  0  0  0  0  0  0  0  0
   34.2504  -17.6380   18.0721 C   0  0  0  0  0  0  0  0  0  0  0  0
   32.2832  -19.2397   18.6107 H   0  0  0  0  0  0  0  0  0  0  0  0
   31.8514  -16.6486   21.2945 C   0  0  0  0  0  0  0  0  0  0  0  0
   32.5089  -17.2961   20.2990 C   0  0  0  0  0  0  0  0  0  0  0  0
   32.4443  -15.4640   23.5806 C   0  0  0  0  0  0  0  0  0  0  0  0
   32.4350  -16.7073   22.7144 C   0  0  0  0  0  0  0  0  0  0  0  0
   33.7321  -17.4909   22.8409 C   0  0  0  0  0  0  0  0  0  0  0  0
   31.1573  -14.6818   23.6896 C   0  0  0  0  0  0  0  0  0  0  0  0
   30.5025  -14.8235   24.7650 O   0  0  0  0  0  0  0  0  0  0  0  0
   30.8544  -13.8316   22.8120 O   0  0  0  0  0  0  0  0  0  0  0  0
   30.7639  -15.4698   25.3910 H   0  0  0  0  0  0  0  0  0  0  0  0
 19 18  1  0  0  0
 20 18  2  0  0  0
 18 15  1  0  0  0
 15 16  2  0  0  0
 16 13  1  0  0  0
 16 17  1  0  0  0
 13 14  2  0  0  0
 14  1  1  0  0  0
  2  1  1  0  0  0
  1  8  1  0  0  0
  1  3  1  0  0  0
  3  9  1  0  0  0
  3  4  2  0  0  0
  4  5  1  0  0  0
  7  5  1  0  0  0
  5  6  2  0  0  0
  8  7  1  0  0  0
 11  8  1  0  0  0
 10  8  1  0  0  0
  2 12  1  0  0  0
 19 21  1  0  0  0
M  END
> <minimizedAffinity>
-8.03149

$$$$
3JRS_A8S_A_1


 21 21  0  0  0  0  0  0  0  0999 V2000
   32.9705  -17.2840   18.2579 C   0  0  0  0  0  0  0  0  0  0  0  0
   34.2299  -16.6612   17.9162 O   0  0  0  0  0  0  0  0  0  0  0  0
   33.1957  -18.4602   19.2143 C   0  0  0  0  0  0  0  0  0  0  0  0
   32.3894  -19.4331   18.9084 C   0  0  0  0  0  0  0  0  0  0  0  0
   31.4437  -19.7437   18.1451 C   0  0  0  0  0  0  0  0  0  0  0  0
   30.6990  -20.8490   18.1285 O   0  0  0  0  0  0  0  0  0  0  0  0
   31.2058  -18.6963   17.2682 C   0  0  0  0  0  0  0  0  0  0  0  0
   32.3663  -17.7820   16.9121 C   0  0  0  0  0  0  0  0  0  0  0  0
   34.2835  -18.3705   20.2478 C   0  0  0  0  0  0  0  0  0  0  0  0
   33.3258  -18.6476   16.0580 C   0  0  0  0  0  0  0  0  0  0  0  0
   31.9350  -16.5971   16.0047 C   0  0  0  0  0  0  0  0  0  0  0  0
   34.0703  -15.9198   17.3113 H   0  0  0  0  0  0  0  0  0  0  0  0
   31.4720  -16.4919   20.0527 C   0  0  0  0  0  0  0  0  0  0  0  0
   32.0035  -16.2412   18.8292 C   0  0  0  0  0  0  0  0  0  0  0  0
   30.5525  -15.2796   22.2128 C   0  0  0  0  0  0  0  0  0  0  0  0
   30.5950  -15.4116   20.7039 C   0  0  0  0  0  0  0  0  0  0  0  0
   29.2151  -15.2497   20.0856 C   0  0  0  0  0  0  0  0  0  0  0  0
   31.8720  -15.2448   22.9460 C   0  0  0  0  0  0  0  0  0  0  0  0
   32.4146  -14.1070   23.0737 O   0  0  0  0  0  0  0  0  0  0  0  0
   32.3088  -16.2781   23.5172 O   0  0  0  0  0  0  0  0  0  0  0  0
   32.0554  -13.3642   22.6296 H   0  0  0  0  0  0  0  0  0  0  0  0
 19 18  1  0  0  0
 20 18  2  0  0  0
 18 15  1  0  0  0
 15 16  2  0  0  0
 16 13  1  0  0  0
 16 17  1  0  0  0
 13 14  2  0  0  0
 14  1  1  0  0  0
  2  1  1  0  0  0
  1  8  1  0  0  0
  1  3  1  0  0  0
  3  9  1  0  0  0
  3  4  2  0  0  0
  4  5  1  0  0  0
  7  5  1  0  0  0
  5  6  2  0  0  0
  8  7  1  0  0  0
 11  8  1  0  0  0
 10  8  1  0  0  0
  2 12  1  0  0  0
 19 21  1  0  0  0
M  END
> <minimizedAffinity>
-8.02053

$$$$
3JRS_A8S_A_1


 21 21  0  0  0  0  0  0  0  0999 V2000
   32.4935  -18.9419   18.8399 C   0  0  0  0  0  0  0  0  0  0  0  0
   33.5948  -19.8746   18.7496 O   0  0  0  0  0  0  0  0  0  0  0  0
   31.1593  -19.6925   18.9122 C   0  0  0  0  0  0  0  0  0  0  0  0
   30.2624  -19.0578   18.2172 C   0  0  0  0  0  0  0  0  0  0  0  0
   30.0716  -18.0136   17.5490 C   0  0  0  0  0  0  0  0  0  0  0  0
   28.9459  -17.5525   17.0043 O   0  0  0  0  0  0  0  0  0  0  0  0
   31.2595  -17.3029   17.4692 C   0  0  0  0  0  0  0  0  0  0  0  0
   32.5648  -18.0773   17.5470 C   0  0  0  0  0  0  0  0  0  0  0  0
   31.0886  -20.9980   19.6540 C   0  0  0  0  0  0  0  0  0  0  0  0
   32.6393  -18.8925   16.2320 C   0  0  0  0  0  0  0  0  0  0  0  0
   33.8100  -17.1484   17.5470 C   0  0  0  0  0  0  0  0  0  0  0  0
   34.4307  -19.3845   18.7047 H   0  0  0  0  0  0  0  0  0  0  0  0
   31.7374  -17.9850   20.9862 C   0  0  0  0  0  0  0  0  0  0  0  0
   32.6988  -17.9959   20.0282 C   0  0  0  0  0  0  0  0  0  0  0  0
   31.9528  -15.6258   22.1564 C   0  0  0  0  0  0  0  0  0  0  0  0
   31.9713  -17.1383   22.2467 C   0  0  0  0  0  0  0  0  0  0  0  0
   33.0878  -17.6344   23.1521 C   0  0  0  0  0  0  0  0  0  0  0  0
   30.7925  -14.9859   21.4323 C   0  0  0  0  0  0  0  0  0  0  0  0
   31.0618  -14.4118   20.3354 O   0  0  0  0  0  0  0  0  0  0  0  0
   29.6148  -15.1586   21.8422 O   0  0  0  0  0  0  0  0  0  0  0  0
   31.9538  -14.3046   20.0694 H   0  0  0  0  0  0  0  0  0  0  0  0
 19 18  1  0  0  0
 20 18  2  0  0  0
 18 15  1  0  0  0
 15 16  2  0  0  0
 16 13  1  0  0  0
 16 17  1  0  0  0
 13 14  2  0  0  0
 14  1  1  0  0  0
  2  1  1  0  0  0
  1  8  1  0  0  0
  1  3  1  0  0  0
  3  9  1  0  0  0
  3  4  2  0  0  0
  4  5  1  0  0  0
  7  5  1  0  0  0
  5  6  2  0  0  0
  8  7  1  0  0  0
 11  8  1  0  0  0
 10  8  1  0  0  0
  2 12  1  0  0  0
 19 21  1  0  0  0
M  END
> <minimizedAffinity>
-7.80284

$$$$
3JRS_A8S_A_1


 21 21  0  0  0  0  0  0  0  0999 V2000
   32.2554  -19.2235   18.6740 C   0  0  0  0  0  0  0  0  0  0  0  0
   32.6794  -20.5802   18.9392 O   0  0  0  0  0  0  0  0  0  0  0  0
   31.1403  -19.2057   17.6229 C   0  0  0  0  0  0  0  0  0  0  0  0
   31.3062  -18.1914   16.8267 C   0  0  0  0  0  0  0  0  0  0  0  0
   32.0196  -17.1774   16.6365 C   0  0  0  0  0  0  0  0  0  0  0  0
   31.8800  -16.2019   15.7389 O   0  0  0  0  0  0  0  0  0  0  0  0
   33.0377  -17.1561   17.5776 C   0  0  0  0  0  0  0  0  0  0  0  0
   33.5178  -18.4820   18.1441 C   0  0  0  0  0  0  0  0  0  0  0  0
   30.1275  -20.3163   17.6055 C   0  0  0  0  0  0  0  0  0  0  0  0
   34.2371  -19.1947   16.9719 C   0  0  0  0  0  0  0  0  0  0  0  0
   34.5862  -18.3026   19.2576 C   0  0  0  0  0  0  0  0  0  0  0  0
   33.3844  -20.5742   19.6055 H   0  0  0  0  0  0  0  0  0  0  0  0
   30.5579  -18.1035   20.0734 C   0  0  0  0  0  0  0  0  0  0  0  0
   31.8414  -18.5350   19.9792 C   0  0  0  0  0  0  0  0  0  0  0  0
   29.7796  -16.0378   21.5254 C   0  0  0  0  0  0  0  0  0  0  0  0
   30.0799  -17.5187   21.4112 C   0  0  0  0  0  0  0  0  0  0  0  0
   30.8149  -18.0399   22.6361 C   0  0  0  0  0  0  0  0  0  0  0  0
   28.9021  -15.4214   20.4623 C   0  0  0  0  0  0  0  0  0  0  0  0
   27.6794  -15.2726   20.7592 O   0  0  0  0  0  0  0  0  0  0  0  0
   29.4117  -14.9543   19.4103 O   0  0  0  0  0  0  0  0  0  0  0  0
   27.3423  -15.6378   21.5535 H   0  0  0  0  0  0  0  0  0  0  0  0
 19 18  1  0  0  0
 20 18  2  0  0  0
 18 15  1  0  0  0
 15 16  2  0  0  0
 16 13  1  0  0  0
 16 17  1  0  0  0
 13 14  2  0  0  0
 14  1  1  0  0  0
  2  1  1  0  0  0
  1  8  1  0  0  0
  1  3  1  0  0  0
  3  9  1  0  0  0
  3  4  2  0  0  0
  4  5  1  0  0  0
  7  5  1  0  0  0
  5  6  2  0  0  0
  8  7  1  0  0  0
 11  8  1  0  0  0
 10  8  1  0  0  0
  2 12  1  0  0  0
 19 21  1  0  0  0
M  END
> <minimizedAffinity>
-7.78952

$$$$
3JRS_A8S_A_1


 21 21  0  0  0  0  0  0  0  0999 V2000
   33.7518  -17.7281   17.9991 C   0  0  0  0  0  0  0  0  0  0  0  0
   35.1665  -17.4556   17.8762 O   0  0  0  0  0  0  0  0  0  0  0  0
   33.4758  -18.5819   19.2415 C   0  0  0  0  0  0  0  0  0  0  0  0
   32.5484  -19.4534   18.9759 C   0  0  0  0  0  0  0  0  0  0  0  0
   31.7467  -19.8177   18.0825 C   0  0  0  0  0  0  0  0  0  0  0  0
   30.7828  -20.7368   18.1355 O   0  0  0  0  0  0  0  0  0  0  0  0
   31.9627  -19.0587   16.9424 C   0  0  0  0  0  0  0  0  0  0  0  0
   33.3563  -18.5005   16.7063 C   0  0  0  0  0  0  0  0  0  0  0  0
   34.3002  -18.3674   20.4800 C   0  0  0  0  0  0  0  0  0  0  0  0
   34.2454  -19.7300   16.3948 C   0  0  0  0  0  0  0  0  0  0  0  0
   33.4286  -17.5895   15.4501 C   0  0  0  0  0  0  0  0  0  0  0  0
   35.3243  -16.9152   17.0863 H   0  0  0  0  0  0  0  0  0  0  0  0
   32.1538  -16.1798   19.0684 C   0  0  0  0  0  0  0  0  0  0  0  0
   32.9596  -16.4161   18.0020 C   0  0  0  0  0  0  0  0  0  0  0  0
   29.9492  -14.7672   19.4227 C   0  0  0  0  0  0  0  0  0  0  0  0
   31.4403  -14.8222   19.1586 C   0  0  0  0  0  0  0  0  0  0  0  0
   31.8639  -13.8062   18.1094 C   0  0  0  0  0  0  0  0  0  0  0  0
   29.4132  -15.5978   20.5641 C   0  0  0  0  0  0  0  0  0  0  0  0
   28.9023  -16.7152   20.2550 O   0  0  0  0  0  0  0  0  0  0  0  0
   29.6121  -15.2434   21.7556 O   0  0  0  0  0  0  0  0  0  0  0  0
   28.7722  -16.9378   19.3542 H   0  0  0  0  0  0  0  0  0  0  0  0
 19 18  1  0  0  0
 20 18  2  0  0  0
 18 15  1  0  0  0
 15 16  2  0  0  0
 16 13  1  0  0  0
 16 17  1  0  0  0
 13 14  2  0  0  0
 14  1  1  0  0  0
  2  1  1  0  0  0
  1  8  1  0  0  0
  1  3  1  0  0  0
  3  9  1  0  0  0
  3  4  2  0  0  0
  4  5  1  0  0  0
  7  5  1  0  0  0
  5  6  2  0  0  0
  8  7  1  0  0  0
 11  8  1  0  0  0
 10  8  1  0  0  0
  2 12  1  0  0  0
 19 21  1  0  0  0
M  END
> <minimizedAffinity>
-7.75378

$$$$
3JRS_A8S_A_1


 21 21  0  0  0  0  0  0  0  0999 V2000
   31.8966  -17.6183   18.3353 C   0  0  0  0  0  0  0  0  0  0  0  0
   30.5517  -17.5128   17.8146 O   0  0  0  0  0  0  0  0  0  0  0  0
   32.7107  -16.3709   17.9751 C   0  0  0  0  0  0  0  0  0  0  0  0
   33.9280  -16.7149   17.6747 C   0  0  0  0  0  0  0  0  0  0  0  0
   34.7047  -17.6987   17.6272 C   0  0  0  0  0  0  0  0  0  0  0  0
   36.0103  -17.7327   17.3608 O   0  0  0  0  0  0  0  0  0  0  0  0
   34.0020  -18.8478   17.9564 C   0  0  0  0  0  0  0  0  0  0  0  0
   32.5105  -18.8834   17.6669 C   0  0  0  0  0  0  0  0  0  0  0  0
   32.0299  -15.0311   17.9447 C   0  0  0  0  0  0  0  0  0  0  0  0
   32.3911  -18.9168   16.1230 C   0  0  0  0  0  0  0  0  0  0  0  0
   31.8352  -20.1859   18.1777 C   0  0  0  0  0  0  0  0  0  0  0  0
   30.0502  -18.3088   18.0508 H   0  0  0  0  0  0  0  0  0  0  0  0
   31.7203  -16.7990   20.6573 C   0  0  0  0  0  0  0  0  0  0  0  0
   31.8593  -17.8778   19.8454 C   0  0  0  0  0  0  0  0  0  0  0  0
   32.5861  -17.8597   22.9171 C   0  0  0  0  0  0  0  0  0  0  0  0
   31.5589  -17.0364   22.1666 C   0  0  0  0  0  0  0  0  0  0  0  0
   30.1422  -17.3590   22.6153 C   0  0  0  0  0  0  0  0  0  0  0  0
   34.0418  -17.5223   22.7003 C   0  0  0  0  0  0  0  0  0  0  0  0
   34.5421  -16.6607   23.4831 O   0  0  0  0  0  0  0  0  0  0  0  0
   34.7320  -18.1837   21.8812 O   0  0  0  0  0  0  0  0  0  0  0  0
   33.9902  -16.1912   24.0772 H   0  0  0  0  0  0  0  0  0  0  0  0
 19 18  1  0  0  0
 20 18  2  0  0  0
 18 15  1  0  0  0
 15 16  2  0  0  0
 16 13  1  0  0  0
 16 17  1  0  0  0
 13 14  2  0  0  0
 14  1  1  0  0  0
  2  1  1  0  0  0
  1  8  1  0  0  0
  1  3  1  0  0  0
  3  9  1  0  0  0
  3  4  2  0  0  0
  4  5  1  0  0  0
  7  5  1  0  0  0
  5  6  2  0  0  0
  8  7  1  0  0  0
 11  8  1  0  0  0
 10  8  1  0  0  0
  2 12  1  0  0  0
 19 21  1  0  0  0
M  END
> <minimizedAffinity>
-7.74665

$$$$
3JRS_A8S_A_1


 21 21  0  0  0  0  0  0  0  0999 V2000
   31.9818  -18.6218   18.7295 C   0  0  0  0  0  0  0  0  0  0  0  0
   31.3400  -17.5022   18.0772 O   0  0  0  0  0  0  0  0  0  0  0  0
   33.4050  -18.8112   18.1935 C   0  0  0  0  0  0  0  0  0  0  0  0
   33.6658  -20.0802   18.0844 C   0  0  0  0  0  0  0  0  0  0  0  0
   33.1948  -21.2198   18.3143 C   0  0  0  0  0  0  0  0  0  0  0  0
   33.7703  -22.4147   18.1817 O   0  0  0  0  0  0  0  0  0  0  0  0
   31.9067  -21.0867   18.8098 C   0  0  0  0  0  0  0  0  0  0  0  0
   31.1033  -19.8640   18.3985 C   0  0  0  0  0  0  0  0  0  0  0  0
   34.2186  -17.6029   17.8224 C   0  0  0  0  0  0  0  0  0  0  0  0
   30.8033  -20.0559   16.8911 C   0  0  0  0  0  0  0  0  0  0  0  0
   29.7217  -19.7931   19.1053 C   0  0  0  0  0  0  0  0  0  0  0  0
   30.4416  -17.3958   18.4270 H   0  0  0  0  0  0  0  0  0  0  0  0
   31.7721  -17.1749   20.7186 C   0  0  0  0  0  0  0  0  0  0  0  0
   31.9483  -18.4367   20.2506 C   0  0  0  0  0  0  0  0  0  0  0  0
   32.6323  -17.5652   23.1862 C   0  0  0  0  0  0  0  0  0  0  0  0
   31.6138  -16.9728   22.2334 C   0  0  0  0  0  0  0  0  0  0  0  0
   30.1946  -17.1339   22.7552 C   0  0  0  0  0  0  0  0  0  0  0  0
   34.0918  -17.3250   22.8827 C   0  0  0  0  0  0  0  0  0  0  0  0
   34.6230  -16.3172   23.4373 O   0  0  0  0  0  0  0  0  0  0  0  0
   34.7544  -18.1768   22.2346 O   0  0  0  0  0  0  0  0  0  0  0  0
   34.0909  -15.7080   23.9102 H   0  0  0  0  0  0  0  0  0  0  0  0
 19 18  1  0  0  0
 20 18  2  0  0  0
 18 15  1  0  0  0
 15 16  2  0  0  0
 16 13  1  0  0  0
 16 17  1  0  0  0
 13 14  2  0  0  0
 14  1  1  0  0  0
  2  1  1  0  0  0
  1  8  1  0  0  0
  1  3  1  0  0  0
  3  9  1  0  0  0
  3  4  2  0  0  0
  4  5  1  0  0  0
  7  5  1  0  0  0
  5  6  2  0  0  0
  8  7  1  0  0  0
 11  8  1  0  0  0
 10  8  1  0  0  0
  2 12  1  0  0  0
 19 21  1  0  0  0
M  END
> <minimizedAffinity>
-7.73589

$$$$
