2YI0_YI0_A_1225


 24 26  0  0  0  0  0  0  0  0999 V2000
   30.1058    9.0792   27.8255 N   0  0  0  0  0  0  0  0  0  0  0  0
   30.0839   10.0160   26.9253 N   0  0  0  0  0  0  0  0  0  0  0  0
   30.8893    9.6823   25.8775 C   0  0  0  0  0  0  0  0  0  0  0  0
   31.5776    8.4579   25.9871 C   0  0  0  0  0  0  0  0  0  0  0  0
   31.0534    7.8001   27.5309 S   0  0  0  0  0  0  0  0  0  0  0  0
   31.0414   10.5486   24.7348 C   0  0  0  0  0  0  0  0  0  0  0  0
   29.9934   10.8180   23.8777 C   0  0  0  0  0  0  0  0  0  0  0  0
   30.0975   11.6034   22.6812 C   0  0  0  0  0  0  0  0  0  0  0  0
   31.3284   12.2688   22.5536 C   0  0  0  0  0  0  0  0  0  0  0  0
   32.3559   12.0042   23.4641 C   0  0  0  0  0  0  0  0  0  0  0  0
   32.2966   11.1986   24.5470 C   0  0  0  0  0  0  0  0  0  0  0  0
   31.5798   12.9649   21.4148 O   0  0  0  0  0  0  0  0  0  0  0  0
   28.7965   10.2454   24.0823 O   0  0  0  0  0  0  0  0  0  0  0  0
   33.9050   12.9100   23.2280 Cl  0  0  0  0  0  0  0  0  0  0  0  0
   30.8863   13.1385   20.8091 H   0  0  0  0  0  0  0  0  0  0  0  0
   28.6536    9.7174   24.8431 H   0  0  0  0  0  0  0  0  0  0  0  0
   32.4875    7.7907   25.1485 C   0  0  0  0  0  0  0  0  0  0  0  0
   32.0646    7.2553   23.9564 C   0  0  0  0  0  0  0  0  0  0  0  0
   32.8565    6.6015   23.0605 C   0  0  0  0  0  0  0  0  0  0  0  0
   34.2169    6.5559   23.2973 C   0  0  0  0  0  0  0  0  0  0  0  0
   34.7148    7.0795   24.4811 C   0  0  0  0  0  0  0  0  0  0  0  0
   33.8498    7.6867   25.3714 C   0  0  0  0  0  0  0  0  0  0  0  0
   35.1464    5.9359   22.5274 O   0  0  0  0  0  0  0  0  0  0  0  0
   35.7963    6.7539   21.5212 C   0  0  0  0  0  0  0  0  0  0  0  0
  1  2  2  0  0  0
  1  5  1  0  0  0
  2  3  1  0  0  0
  3  4  2  0  0  0
  3  6  1  0  0  0
  4 17  1  0  0  0
  4  5  1  0  0  0
  6  7  1  0  0  0
  6 11  2  0  0  0
 17 18  1  0  0  0
 17 22  2  0  0  0
 18 19  2  0  0  0
 19 20  1  0  0  0
 20 21  2  0  0  0
 20 23  1  0  0  0
 21 22  1  0  0  0
  7  8  2  0  0  0
  7 13  1  0  0  0
  8  9  1  0  0  0
  9 10  2  0  0  0
  9 12  1  0  0  0
 10 11  1  0  0  0
 10 14  1  0  0  0
 23 24  1  0  0  0
 12 15  1  0  0  0
 13 16  1  0  0  0
M  END
> <minimizedAffinity>
-9.09696

$$$$
2YI0_YI0_A_1225


 24 26  0  0  0  0  0  0  0  0999 V2000
   30.7988    8.4885   27.6687 N   0  0  0  0  0  0  0  0  0  0  0  0
   31.5393    7.7838   26.8667 N   0  0  0  0  0  0  0  0  0  0  0  0
   31.6798    8.4224   25.6707 C   0  0  0  0  0  0  0  0  0  0  0  0
   31.0005    9.6495   25.5372 C   0  0  0  0  0  0  0  0  0  0  0  0
   30.2170    9.8853   27.0932 S   0  0  0  0  0  0  0  0  0  0  0  0
   32.4622    7.8577   24.5991 C   0  0  0  0  0  0  0  0  0  0  0  0
   32.0259    6.7689   23.8714 C   0  0  0  0  0  0  0  0  0  0  0  0
   32.7886    6.1102   22.8497 C   0  0  0  0  0  0  0  0  0  0  0  0
   33.9579    6.8015   22.4906 C   0  0  0  0  0  0  0  0  0  0  0  0
   34.3496    7.9262   23.2229 C   0  0  0  0  0  0  0  0  0  0  0  0
   33.6819    8.5056   24.2445 C   0  0  0  0  0  0  0  0  0  0  0  0
   34.8102    6.2266   21.6029 O   0  0  0  0  0  0  0  0  0  0  0  0
   30.8533    6.1885   24.1720 O   0  0  0  0  0  0  0  0  0  0  0  0
   35.8653    8.7581   22.6873 Cl  0  0  0  0  0  0  0  0  0  0  0  0
   34.5409    5.4729   21.1156 H   0  0  0  0  0  0  0  0  0  0  0  0
   30.3005    6.5623   24.8298 H   0  0  0  0  0  0  0  0  0  0  0  0
   30.8878   10.5736   24.4838 C   0  0  0  0  0  0  0  0  0  0  0  0
   31.9692   11.3351   24.1134 C   0  0  0  0  0  0  0  0  0  0  0  0
   31.9809   12.2494   23.1028 C   0  0  0  0  0  0  0  0  0  0  0  0
   30.8596   12.3586   22.3031 C   0  0  0  0  0  0  0  0  0  0  0  0
   29.7305   11.6172   22.6173 C   0  0  0  0  0  0  0  0  0  0  0  0
   29.7687   10.7428   23.6868 C   0  0  0  0  0  0  0  0  0  0  0  0
   30.6897   13.2226   21.2707 O   0  0  0  0  0  0  0  0  0  0  0  0
   29.3401   13.3493   20.7546 C   0  0  0  0  0  0  0  0  0  0  0  0
  1  2  2  0  0  0
  1  5  1  0  0  0
  2  3  1  0  0  0
  3  4  2  0  0  0
  3  6  1  0  0  0
  4 17  1  0  0  0
  4  5  1  0  0  0
  6  7  1  0  0  0
  6 11  2  0  0  0
 17 18  1  0  0  0
 17 22  2  0  0  0
 18 19  2  0  0  0
 19 20  1  0  0  0
 20 21  2  0  0  0
 20 23  1  0  0  0
 21 22  1  0  0  0
  7  8  2  0  0  0
  7 13  1  0  0  0
  8  9  1  0  0  0
  9 10  2  0  0  0
  9 12  1  0  0  0
 10 11  1  0  0  0
 10 14  1  0  0  0
 23 24  1  0  0  0
 12 15  1  0  0  0
 13 16  1  0  0  0
M  END
> <minimizedAffinity>
-7.72540

$$$$
2YI0_YI0_A_1225


 24 26  0  0  0  0  0  0  0  0999 V2000
   30.6006    8.2765   27.9015 N   0  0  0  0  0  0  0  0  0  0  0  0
   31.5100    7.5883   27.2788 N   0  0  0  0  0  0  0  0  0  0  0  0
   31.8283    8.1877   26.0967 C   0  0  0  0  0  0  0  0  0  0  0  0
   31.1190    9.3644   25.7850 C   0  0  0  0  0  0  0  0  0  0  0  0
   30.0573    9.6114   27.1642 S   0  0  0  0  0  0  0  0  0  0  0  0
   32.8197    7.6313   25.2096 C   0  0  0  0  0  0  0  0  0  0  0  0
   34.1524    7.5532   25.5605 C   0  0  0  0  0  0  0  0  0  0  0  0
   35.1991    7.0871   24.6964 C   0  0  0  0  0  0  0  0  0  0  0  0
   34.7264    6.5046   23.5083 C   0  0  0  0  0  0  0  0  0  0  0  0
   33.3634    6.5645   23.2027 C   0  0  0  0  0  0  0  0  0  0  0  0
   32.3786    7.0790   23.9711 C   0  0  0  0  0  0  0  0  0  0  0  0
   35.6264    6.1147   22.5688 O   0  0  0  0  0  0  0  0  0  0  0  0
   34.5615    8.0277   26.7479 O   0  0  0  0  0  0  0  0  0  0  0  0
   32.8419    5.7836   21.6553 Cl  0  0  0  0  0  0  0  0  0  0  0  0
   36.5383    6.0770   22.7807 H   0  0  0  0  0  0  0  0  0  0  0  0
   33.9342    8.3498   27.3650 H   0  0  0  0  0  0  0  0  0  0  0  0
   31.1478   10.2383   24.6842 C   0  0  0  0  0  0  0  0  0  0  0  0
   29.9785   10.6168   24.0710 C   0  0  0  0  0  0  0  0  0  0  0  0
   29.8838   11.4657   23.0092 C   0  0  0  0  0  0  0  0  0  0  0  0
   31.0320   12.0931   22.5654 C   0  0  0  0  0  0  0  0  0  0  0  0
   32.2492   11.7606   23.1409 C   0  0  0  0  0  0  0  0  0  0  0  0
   32.2820   10.8539   24.1833 C   0  0  0  0  0  0  0  0  0  0  0  0
   31.1264   12.9486   21.5165 O   0  0  0  0  0  0  0  0  0  0  0  0
   29.9135   13.1617   20.7502 C   0  0  0  0  0  0  0  0  0  0  0  0
  1  2  2  0  0  0
  1  5  1  0  0  0
  2  3  1  0  0  0
  3  4  2  0  0  0
  3  6  1  0  0  0
  4 17  1  0  0  0
  4  5  1  0  0  0
  6  7  1  0  0  0
  6 11  2  0  0  0
 17 18  1  0  0  0
 17 22  2  0  0  0
 18 19  2  0  0  0
 19 20  1  0  0  0
 20 21  2  0  0  0
 20 23  1  0  0  0
 21 22  1  0  0  0
  7  8  2  0  0  0
  7 13  1  0  0  0
  8  9  1  0  0  0
  9 10  2  0  0  0
  9 12  1  0  0  0
 10 11  1  0  0  0
 10 14  1  0  0  0
 23 24  1  0  0  0
 12 15  1  0  0  0
 13 16  1  0  0  0
M  END
> <minimizedAffinity>
-7.31538

$$$$
2YI0_YI0_A_1225


 24 26  0  0  0  0  0  0  0  0999 V2000
   34.2035    6.2340   27.2560 N   0  0  0  0  0  0  0  0  0  0  0  0
   34.5870    5.7966   26.0941 N   0  0  0  0  0  0  0  0  0  0  0  0
   34.2060    6.6641   25.1141 C   0  0  0  0  0  0  0  0  0  0  0  0
   33.4792    7.7959   25.5333 C   0  0  0  0  0  0  0  0  0  0  0  0
   33.3804    7.6277   27.2805 S   0  0  0  0  0  0  0  0  0  0  0  0
   34.5132    6.4198   23.7266 C   0  0  0  0  0  0  0  0  0  0  0  0
   34.0065    5.3302   23.0471 C   0  0  0  0  0  0  0  0  0  0  0  0
   34.3362    4.9856   21.6936 C   0  0  0  0  0  0  0  0  0  0  0  0
   35.0690    5.9808   21.0252 C   0  0  0  0  0  0  0  0  0  0  0  0
   35.5321    7.0933   21.7342 C   0  0  0  0  0  0  0  0  0  0  0  0
   35.3001    7.3854   23.0327 C   0  0  0  0  0  0  0  0  0  0  0  0
   35.5217    5.7268   19.7701 O   0  0  0  0  0  0  0  0  0  0  0  0
   33.2240    4.4465   23.6867 O   0  0  0  0  0  0  0  0  0  0  0  0
   36.4624    8.3280   20.7929 Cl  0  0  0  0  0  0  0  0  0  0  0  0
   35.2069    4.9794   19.3008 H   0  0  0  0  0  0  0  0  0  0  0  0
   32.9671    4.6043   24.5739 H   0  0  0  0  0  0  0  0  0  0  0  0
   32.9123    8.8813   24.8428 C   0  0  0  0  0  0  0  0  0  0  0  0
   31.5523    8.9532   24.6647 C   0  0  0  0  0  0  0  0  0  0  0  0
   30.8927    9.9605   24.0261 C   0  0  0  0  0  0  0  0  0  0  0  0
   31.6179   11.0610   23.6116 C   0  0  0  0  0  0  0  0  0  0  0  0
   32.9965   11.0578   23.7621 C   0  0  0  0  0  0  0  0  0  0  0  0
   33.6098    9.9817   24.3749 C   0  0  0  0  0  0  0  0  0  0  0  0
   31.1320   12.1402   22.9480 O   0  0  0  0  0  0  0  0  0  0  0  0
   29.7884   12.0158   22.4159 C   0  0  0  0  0  0  0  0  0  0  0  0
  1  2  2  0  0  0
  1  5  1  0  0  0
  2  3  1  0  0  0
  3  4  2  0  0  0
  3  6  1  0  0  0
  4 17  1  0  0  0
  4  5  1  0  0  0
  6  7  1  0  0  0
  6 11  2  0  0  0
 17 18  1  0  0  0
 17 22  2  0  0  0
 18 19  2  0  0  0
 19 20  1  0  0  0
 20 21  2  0  0  0
 20 23  1  0  0  0
 21 22  1  0  0  0
  7  8  2  0  0  0
  7 13  1  0  0  0
  8  9  1  0  0  0
  9 10  2  0  0  0
  9 12  1  0  0  0
 10 11  1  0  0  0
 10 14  1  0  0  0
 23 24  1  0  0  0
 12 15  1  0  0  0
 13 16  1  0  0  0
M  END
> <minimizedAffinity>
-7.27686

$$$$
2YI0_YI0_A_1225


 24 26  0  0  0  0  0  0  0  0999 V2000
   36.0793    3.4926   19.2715 N   0  0  0  0  0  0  0  0  0  0  0  0
   36.6099    2.9962   20.3487 N   0  0  0  0  0  0  0  0  0  0  0  0
   36.2151    3.7096   21.4410 C   0  0  0  0  0  0  0  0  0  0  0  0
   35.3726    4.8113   21.1933 C   0  0  0  0  0  0  0  0  0  0  0  0
   35.1347    4.7949   19.4515 S   0  0  0  0  0  0  0  0  0  0  0  0
   36.6565    3.3644   22.7697 C   0  0  0  0  0  0  0  0  0  0  0  0
   37.9173    3.6899   23.2282 C   0  0  0  0  0  0  0  0  0  0  0  0
   38.4463    3.3065   24.5059 C   0  0  0  0  0  0  0  0  0  0  0  0
   37.4869    2.7398   25.3618 C   0  0  0  0  0  0  0  0  0  0  0  0
   36.2055    2.4611   24.8772 C   0  0  0  0  0  0  0  0  0  0  0  0
   35.7220    2.7396   23.6469 C   0  0  0  0  0  0  0  0  0  0  0  0
   37.8909    2.2497   26.5624 O   0  0  0  0  0  0  0  0  0  0  0  0
   38.7815    4.3233   22.4192 O   0  0  0  0  0  0  0  0  0  0  0  0
   35.0322    1.7370   26.0499 Cl  0  0  0  0  0  0  0  0  0  0  0  0
   38.7512    2.4406   26.8809 H   0  0  0  0  0  0  0  0  0  0  0  0
   38.5072    4.6040   21.5684 H   0  0  0  0  0  0  0  0  0  0  0  0
   34.7820    5.7742   22.0301 C   0  0  0  0  0  0  0  0  0  0  0  0
   35.4076    6.9771   22.2492 C   0  0  0  0  0  0  0  0  0  0  0  0
   34.9250    7.9869   23.0269 C   0  0  0  0  0  0  0  0  0  0  0  0
   33.6572    7.8565   23.5604 C   0  0  0  0  0  0  0  0  0  0  0  0
   32.9657    6.6684   23.3770 C   0  0  0  0  0  0  0  0  0  0  0  0
   33.5332    5.6632   22.6172 C   0  0  0  0  0  0  0  0  0  0  0  0
   33.0293    8.7481   24.3678 O   0  0  0  0  0  0  0  0  0  0  0  0
   31.5958    8.5832   24.5146 C   0  0  0  0  0  0  0  0  0  0  0  0
  1  2  2  0  0  0
  1  5  1  0  0  0
  2  3  1  0  0  0
  3  4  2  0  0  0
  3  6  1  0  0  0
  4 17  1  0  0  0
  4  5  1  0  0  0
  6  7  1  0  0  0
  6 11  2  0  0  0
 17 18  1  0  0  0
 17 22  2  0  0  0
 18 19  2  0  0  0
 19 20  1  0  0  0
 20 21  2  0  0  0
 20 23  1  0  0  0
 21 22  1  0  0  0
  7  8  2  0  0  0
  7 13  1  0  0  0
  8  9  1  0  0  0
  9 10  2  0  0  0
  9 12  1  0  0  0
 10 11  1  0  0  0
 10 14  1  0  0  0
 23 24  1  0  0  0
 12 15  1  0  0  0
 13 16  1  0  0  0
M  END
> <minimizedAffinity>
-7.14037

$$$$
2YI0_YI0_A_1225


 24 26  0  0  0  0  0  0  0  0999 V2000
   36.0786    3.5588   19.1989 N   0  0  0  0  0  0  0  0  0  0  0  0
   36.3630    2.9436   20.3075 N   0  0  0  0  0  0  0  0  0  0  0  0
   35.9109    3.6612   21.3746 C   0  0  0  0  0  0  0  0  0  0  0  0
   35.2805    4.8859   21.0787 C   0  0  0  0  0  0  0  0  0  0  0  0
   35.3114    4.9789   19.3234 S   0  0  0  0  0  0  0  0  0  0  0  0
   36.0910    3.1981   22.7283 C   0  0  0  0  0  0  0  0  0  0  0  0
   35.1168    2.4776   23.3896 C   0  0  0  0  0  0  0  0  0  0  0  0
   35.1991    2.0580   24.7595 C   0  0  0  0  0  0  0  0  0  0  0  0
   36.4668    2.2587   25.3313 C   0  0  0  0  0  0  0  0  0  0  0  0
   37.4454    2.9567   24.6173 C   0  0  0  0  0  0  0  0  0  0  0  0
   37.3493    3.4328   23.3567 C   0  0  0  0  0  0  0  0  0  0  0  0
   36.6379    1.9896   26.6515 O   0  0  0  0  0  0  0  0  0  0  0  0
   33.9501    2.2126   22.7805 O   0  0  0  0  0  0  0  0  0  0  0  0
   39.0506    3.1640   25.4278 Cl  0  0  0  0  0  0  0  0  0  0  0  0
   35.9778    1.5213   27.1236 H   0  0  0  0  0  0  0  0  0  0  0  0
   33.8228    2.4574   21.8851 H   0  0  0  0  0  0  0  0  0  0  0  0
   34.7112    5.8900   21.8812 C   0  0  0  0  0  0  0  0  0  0  0  0
   33.4390    5.7408   22.3768 C   0  0  0  0  0  0  0  0  0  0  0  0
   32.7924    6.6382   23.1729 C   0  0  0  0  0  0  0  0  0  0  0  0
   33.4915    7.7432   23.6192 C   0  0  0  0  0  0  0  0  0  0  0  0
   34.7829    7.9564   23.1608 C   0  0  0  0  0  0  0  0  0  0  0  0
   35.3641    7.0312   22.3146 C   0  0  0  0  0  0  0  0  0  0  0  0
   33.0042    8.7420   24.3976 O   0  0  0  0  0  0  0  0  0  0  0  0
   31.5601    8.8293   24.5014 C   0  0  0  0  0  0  0  0  0  0  0  0
  1  2  2  0  0  0
  1  5  1  0  0  0
  2  3  1  0  0  0
  3  4  2  0  0  0
  3  6  1  0  0  0
  4 17  1  0  0  0
  4  5  1  0  0  0
  6  7  1  0  0  0
  6 11  2  0  0  0
 17 18  1  0  0  0
 17 22  2  0  0  0
 18 19  2  0  0  0
 19 20  1  0  0  0
 20 21  2  0  0  0
 20 23  1  0  0  0
 21 22  1  0  0  0
  7  8  2  0  0  0
  7 13  1  0  0  0
  8  9  1  0  0  0
  9 10  2  0  0  0
  9 12  1  0  0  0
 10 11  1  0  0  0
 10 14  1  0  0  0
 23 24  1  0  0  0
 12 15  1  0  0  0
 13 16  1  0  0  0
M  END
> <minimizedAffinity>
-6.86736

$$$$
2YI0_YI0_A_1225


 24 26  0  0  0  0  0  0  0  0999 V2000
   36.2563    2.4500   24.4186 N   0  0  0  0  0  0  0  0  0  0  0  0
   36.4625    2.7982   23.1839 N   0  0  0  0  0  0  0  0  0  0  0  0
   35.8088    3.9616   22.9063 C   0  0  0  0  0  0  0  0  0  0  0  0
   35.0497    4.5145   23.9565 C   0  0  0  0  0  0  0  0  0  0  0  0
   35.2996    3.4115   25.3024 S   0  0  0  0  0  0  0  0  0  0  0  0
   35.8763    4.5745   21.6027 C   0  0  0  0  0  0  0  0  0  0  0  0
   35.5974    3.8699   20.4489 C   0  0  0  0  0  0  0  0  0  0  0  0
   35.7238    4.3957   19.1196 C   0  0  0  0  0  0  0  0  0  0  0  0
   35.9574    5.7807   19.0853 C   0  0  0  0  0  0  0  0  0  0  0  0
   36.1951    6.4723   20.2769 C   0  0  0  0  0  0  0  0  0  0  0  0
   36.1638    5.9693   21.5303 C   0  0  0  0  0  0  0  0  0  0  0  0
   36.1909    6.3743   17.8862 O   0  0  0  0  0  0  0  0  0  0  0  0
   35.2774    2.5680   20.5198 O   0  0  0  0  0  0  0  0  0  0  0  0
   36.4809    8.2544   20.1398 Cl  0  0  0  0  0  0  0  0  0  0  0  0
   36.0293    5.9048   17.0916 H   0  0  0  0  0  0  0  0  0  0  0  0
   35.1775    2.1549   21.3549 H   0  0  0  0  0  0  0  0  0  0  0  0
   34.2441    5.6623   24.0564 C   0  0  0  0  0  0  0  0  0  0  0  0
   33.0708    5.7473   23.3475 C   0  0  0  0  0  0  0  0  0  0  0  0
   32.2065    6.8007   23.3763 C   0  0  0  0  0  0  0  0  0  0  0  0
   32.4545    7.8294   24.2646 C   0  0  0  0  0  0  0  0  0  0  0  0
   33.6205    7.8080   25.0151 C   0  0  0  0  0  0  0  0  0  0  0  0
   34.4805    6.7322   24.9024 C   0  0  0  0  0  0  0  0  0  0  0  0
   31.7158    8.9578   24.4141 O   0  0  0  0  0  0  0  0  0  0  0  0
   32.4263   10.2142   24.2716 C   0  0  0  0  0  0  0  0  0  0  0  0
  1  2  2  0  0  0
  1  5  1  0  0  0
  2  3  1  0  0  0
  3  4  2  0  0  0
  3  6  1  0  0  0
  4 17  1  0  0  0
  4  5  1  0  0  0
  6  7  1  0  0  0
  6 11  2  0  0  0
 17 18  1  0  0  0
 17 22  2  0  0  0
 18 19  2  0  0  0
 19 20  1  0  0  0
 20 21  2  0  0  0
 20 23  1  0  0  0
 21 22  1  0  0  0
  7  8  2  0  0  0
  7 13  1  0  0  0
  8  9  1  0  0  0
  9 10  2  0  0  0
  9 12  1  0  0  0
 10 11  1  0  0  0
 10 14  1  0  0  0
 23 24  1  0  0  0
 12 15  1  0  0  0
 13 16  1  0  0  0
M  END
> <minimizedAffinity>
-6.48460

$$$$
2YI0_YI0_A_1225


 24 26  0  0  0  0  0  0  0  0999 V2000
   33.9798    6.5821   27.9447 N   0  0  0  0  0  0  0  0  0  0  0  0
   33.4221    7.6759   27.5194 N   0  0  0  0  0  0  0  0  0  0  0  0
   33.4873    7.7408   26.1594 C   0  0  0  0  0  0  0  0  0  0  0  0
   34.1430    6.6724   25.5163 C   0  0  0  0  0  0  0  0  0  0  0  0
   34.6168    5.6001   26.8263 S   0  0  0  0  0  0  0  0  0  0  0  0
   32.9344    8.8538   25.4281 C   0  0  0  0  0  0  0  0  0  0  0  0
   31.5989    9.1927   25.5132 C   0  0  0  0  0  0  0  0  0  0  0  0
   30.9701   10.2344   24.7523 C   0  0  0  0  0  0  0  0  0  0  0  0
   31.8804   11.0425   24.0505 C   0  0  0  0  0  0  0  0  0  0  0  0
   33.2340   10.6940   24.0191 C   0  0  0  0  0  0  0  0  0  0  0  0
   33.8245    9.6634   24.6628 C   0  0  0  0  0  0  0  0  0  0  0  0
   31.3965   12.0009   23.2186 O   0  0  0  0  0  0  0  0  0  0  0  0
   30.7691    8.4608   26.2735 O   0  0  0  0  0  0  0  0  0  0  0  0
   34.3359   11.7943   23.0965 Cl  0  0  0  0  0  0  0  0  0  0  0  0
   30.4882   12.2293   23.2452 H   0  0  0  0  0  0  0  0  0  0  0  0
   31.1080    7.7624   26.7983 H   0  0  0  0  0  0  0  0  0  0  0  0
   34.4218    6.3909   24.1675 C   0  0  0  0  0  0  0  0  0  0  0  0
   35.7175    6.4037   23.7120 C   0  0  0  0  0  0  0  0  0  0  0  0
   36.1069    6.1344   22.4341 C   0  0  0  0  0  0  0  0  0  0  0  0
   35.1513    5.7059   21.5329 C   0  0  0  0  0  0  0  0  0  0  0  0
   33.8218    5.6662   21.9254 C   0  0  0  0  0  0  0  0  0  0  0  0
   33.4873    5.9996   23.2241 C   0  0  0  0  0  0  0  0  0  0  0  0
   35.3551    5.4132   20.2237 O   0  0  0  0  0  0  0  0  0  0  0  0
   35.8257    4.0729   19.9309 C   0  0  0  0  0  0  0  0  0  0  0  0
  1  2  2  0  0  0
  1  5  1  0  0  0
  2  3  1  0  0  0
  3  4  2  0  0  0
  3  6  1  0  0  0
  4 17  1  0  0  0
  4  5  1  0  0  0
  6  7  1  0  0  0
  6 11  2  0  0  0
 17 18  1  0  0  0
 17 22  2  0  0  0
 18 19  2  0  0  0
 19 20  1  0  0  0
 20 21  2  0  0  0
 20 23  1  0  0  0
 21 22  1  0  0  0
  7  8  2  0  0  0
  7 13  1  0  0  0
  8  9  1  0  0  0
  9 10  2  0  0  0
  9 12  1  0  0  0
 10 11  1  0  0  0
 10 14  1  0  0  0
 23 24  1  0  0  0
 12 15  1  0  0  0
 13 16  1  0  0  0
M  END
> <minimizedAffinity>
-6.45106

$$$$
2YI0_YI0_A_1225


 24 26  0  0  0  0  0  0  0  0999 V2000
   30.5714   11.0633   25.1669 N   0  0  0  0  0  0  0  0  0  0  0  0
   30.7359   10.3340   26.2296 N   0  0  0  0  0  0  0  0  0  0  0  0
   31.5523    9.2776   25.9550 C   0  0  0  0  0  0  0  0  0  0  0  0
   32.0105    9.1742   24.6267 C   0  0  0  0  0  0  0  0  0  0  0  0
   31.3140   10.5698   23.8157 S   0  0  0  0  0  0  0  0  0  0  0  0
   31.9049    8.3116   26.9659 C   0  0  0  0  0  0  0  0  0  0  0  0
   31.0250    7.9448   27.9643 C   0  0  0  0  0  0  0  0  0  0  0  0
   31.3397    7.0534   29.0440 C   0  0  0  0  0  0  0  0  0  0  0  0
   32.5746    6.4013   28.8897 C   0  0  0  0  0  0  0  0  0  0  0  0
   33.4248    6.7678   27.8421 C   0  0  0  0  0  0  0  0  0  0  0  0
   33.1743    7.6695   26.8678 C   0  0  0  0  0  0  0  0  0  0  0  0
   33.0240    5.6068   29.8955 O   0  0  0  0  0  0  0  0  0  0  0  0
   29.8100    8.5124   28.0283 O   0  0  0  0  0  0  0  0  0  0  0  0
   34.9925    5.8720   27.7156 Cl  0  0  0  0  0  0  0  0  0  0  0  0
   32.4486    5.3651   30.5944 H   0  0  0  0  0  0  0  0  0  0  0  0
   29.5344    9.1062   27.3580 H   0  0  0  0  0  0  0  0  0  0  0  0
   32.8319    8.2446   23.9652 C   0  0  0  0  0  0  0  0  0  0  0  0
   32.3159    7.0443   23.5416 C   0  0  0  0  0  0  0  0  0  0  0  0
   33.0112    6.0761   22.8811 C   0  0  0  0  0  0  0  0  0  0  0  0
   34.3118    6.3455   22.5003 C   0  0  0  0  0  0  0  0  0  0  0  0
   34.8970    7.5402   22.8921 C   0  0  0  0  0  0  0  0  0  0  0  0
   34.1508    8.4601   23.6038 C   0  0  0  0  0  0  0  0  0  0  0  0
   35.1530    5.4972   21.8569 O   0  0  0  0  0  0  0  0  0  0  0  0
   36.4839    5.3640   22.4179 C   0  0  0  0  0  0  0  0  0  0  0  0
  1  2  2  0  0  0
  1  5  1  0  0  0
  2  3  1  0  0  0
  3  4  2  0  0  0
  3  6  1  0  0  0
  4 17  1  0  0  0
  4  5  1  0  0  0
  6  7  1  0  0  0
  6 11  2  0  0  0
 17 18  1  0  0  0
 17 22  2  0  0  0
 18 19  2  0  0  0
 19 20  1  0  0  0
 20 21  2  0  0  0
 20 23  1  0  0  0
 21 22  1  0  0  0
  7  8  2  0  0  0
  7 13  1  0  0  0
  8  9  1  0  0  0
  9 10  2  0  0  0
  9 12  1  0  0  0
 10 11  1  0  0  0
 10 14  1  0  0  0
 23 24  1  0  0  0
 12 15  1  0  0  0
 13 16  1  0  0  0
M  END
> <minimizedAffinity>
-6.29373

$$$$
