3DD8_2C7_A_300


 26 28  0  0  0  0  0  0  0  0999 V2000
   -4.4421    6.1306   11.5445 C   0  0  0  0  0  0  0  0  0  0  0  0
   -5.1434    6.3985   12.6618 C   0  0  0  0  0  0  0  0  0  0  0  0
   -4.0342    4.4740   11.6087 S   0  0  0  0  0  0  0  0  0  0  0  0
   -4.6662    3.7679   10.4331 O   0  0  0  0  0  0  0  0  0  0  0  0
   -2.5542    4.2495   11.7013 O   0  0  0  0  0  0  0  0  0  0  0  0
   -4.8130    4.1384   13.0951 C   0  0  0  0  0  0  0  0  0  0  0  0
   -4.9567    2.9703   13.8554 C   0  0  0  0  0  0  0  0  0  0  0  0
   -5.3497    5.3660   13.5152 C   0  0  0  0  0  0  0  0  0  0  0  0
   -6.0588    5.3666   14.7203 C   0  0  0  0  0  0  0  0  0  0  0  0
   -6.2123    4.2042   15.4758 C   0  0  0  0  0  0  0  0  0  0  0  0
   -5.6457    2.9991   15.0739 C   0  0  0  0  0  0  0  0  0  0  0  0
   -4.0845    7.0521   10.3547 C   0  0  0  0  0  0  0  0  0  0  0  0
   -6.4105    6.7872    9.6049 C   0  0  0  0  0  0  0  0  0  0  0  0
   -7.1855    6.7797    8.2759 C   0  0  0  0  0  0  0  0  0  0  0  0
   -8.1017    8.0092    8.1233 C   0  0  0  0  0  0  0  0  0  0  0  0
   -7.3009    9.3257    8.1727 C   0  0  0  0  0  0  0  0  0  0  0  0
   -6.9246    9.7194    9.6142 C   0  0  0  0  0  0  0  0  0  0  0  0
   -5.5976    9.1224   10.1307 C   0  0  0  0  0  0  0  0  0  0  0  0
   -5.2042    7.7390    9.5611 C   0  0  0  0  0  0  0  0  0  0  0  0
   -5.8182    1.8279   15.7847 O   0  0  0  0  0  0  0  0  0  0  0  0
   -4.7836    0.9400   16.3458 S   0  0  0  0  0  0  0  0  0  0  0  0
   -4.6252   -0.3091   15.5379 O   0  0  0  0  0  0  0  0  0  0  0  0
   -3.4785    1.6384   16.4688 O   0  0  0  0  0  0  0  0  0  0  0  0
   -5.3528    0.5259   17.7699 N   0  0  0  0  0  0  0  0  0  0  0  0
   -6.2472    0.0497   17.6532 H   0  0  0  0  0  0  0  0  0  0  0  0
   -5.4844    1.3616   18.3397 H   0  0  0  0  0  0  0  0  0  0  0  0
 13 14  1  0  0  0
 13 19  1  0  0  0
 14 15  1  0  0  0
 15 16  1  0  0  0
 16 17  1  0  0  0
 17 18  1  0  0  0
 18 19  1  0  0  0
 19 12  1  0  0  0
 12  1  1  0  0  0
  1  2  2  0  0  0
  1  3  1  0  0  0
  2  8  1  0  0  0
  3  4  2  0  0  0
  3  5  2  0  0  0
  3  6  1  0  0  0
  6  7  2  0  0  0
  6  8  1  0  0  0
  7 11  1  0  0  0
  8  9  2  0  0  0
  9 10  1  0  0  0
 10 11  2  0  0  0
 11 20  1  0  0  0
 20 21  1  0  0  0
 21 22  2  0  0  0
 21 23  2  0  0  0
 21 24  1  0  0  0
 24 25  1  0  0  0
 24 26  1  0  0  0
M  END
> <minimizedAffinity>
-8.12832

$$$$
3DD8_2C7_A_300


 26 28  0  0  0  0  0  0  0  0999 V2000
   -2.7250    5.9754   13.2343 C   0  0  0  0  0  0  0  0  0  0  0  0
   -4.0224    6.0153   13.5909 C   0  0  0  0  0  0  0  0  0  0  0  0
   -2.1407    4.4364   13.6871 S   0  0  0  0  0  0  0  0  0  0  0  0
   -1.6871    3.7008   12.4488 O   0  0  0  0  0  0  0  0  0  0  0  0
   -1.0808    4.5124   14.7455 O   0  0  0  0  0  0  0  0  0  0  0  0
   -3.6168    3.8453   14.3198 C   0  0  0  0  0  0  0  0  0  0  0  0
   -3.9882    2.6219   14.8930 C   0  0  0  0  0  0  0  0  0  0  0  0
   -4.5274    4.9051   14.1816 C   0  0  0  0  0  0  0  0  0  0  0  0
   -5.8350    4.6762   14.6212 C   0  0  0  0  0  0  0  0  0  0  0  0
   -6.2116    3.4568   15.1837 C   0  0  0  0  0  0  0  0  0  0  0  0
   -5.2955    2.4238   15.3534 C   0  0  0  0  0  0  0  0  0  0  0  0
   -1.8667    7.0318   12.4995 C   0  0  0  0  0  0  0  0  0  0  0  0
   -2.3120    9.4152   12.9041 C   0  0  0  0  0  0  0  0  0  0  0  0
   -1.5675   10.7540   12.7606 C   0  0  0  0  0  0  0  0  0  0  0  0
   -1.2349   11.3901   14.1241 C   0  0  0  0  0  0  0  0  0  0  0  0
   -0.3456   10.4674   14.9812 C   0  0  0  0  0  0  0  0  0  0  0  0
   -1.1565    9.3385   15.6465 C   0  0  0  0  0  0  0  0  0  0  0  0
   -1.3211    8.0611   14.7948 C   0  0  0  0  0  0  0  0  0  0  0  0
   -1.3589    8.2633   13.2617 C   0  0  0  0  0  0  0  0  0  0  0  0
   -5.6547    1.1950   15.8707 O   0  0  0  0  0  0  0  0  0  0  0  0
   -6.1368    0.8818   17.2283 S   0  0  0  0  0  0  0  0  0  0  0  0
   -5.8805   -0.5461   17.5937 O   0  0  0  0  0  0  0  0  0  0  0  0
   -5.5314    1.7850   18.2402 O   0  0  0  0  0  0  0  0  0  0  0  0
   -7.7101    1.0841   17.1421 N   0  0  0  0  0  0  0  0  0  0  0  0
   -8.0962    0.4520   16.4408 H   0  0  0  0  0  0  0  0  0  0  0  0
   -7.9150    2.0484   16.8804 H   0  0  0  0  0  0  0  0  0  0  0  0
 13 14  1  0  0  0
 13 19  1  0  0  0
 14 15  1  0  0  0
 15 16  1  0  0  0
 16 17  1  0  0  0
 17 18  1  0  0  0
 18 19  1  0  0  0
 19 12  1  0  0  0
 12  1  1  0  0  0
  1  2  2  0  0  0
  1  3  1  0  0  0
  2  8  1  0  0  0
  3  4  2  0  0  0
  3  5  2  0  0  0
  3  6  1  0  0  0
  6  7  2  0  0  0
  6  8  1  0  0  0
  7 11  1  0  0  0
  8  9  2  0  0  0
  9 10  1  0  0  0
 10 11  2  0  0  0
 11 20  1  0  0  0
 20 21  1  0  0  0
 21 22  2  0  0  0
 21 23  2  0  0  0
 21 24  1  0  0  0
 24 25  1  0  0  0
 24 26  1  0  0  0
M  END
> <minimizedAffinity>
-8.06174

$$$$
3DD8_2C7_A_300


 26 28  0  0  0  0  0  0  0  0999 V2000
   -4.1274    3.7811   13.4907 C   0  0  0  0  0  0  0  0  0  0  0  0
   -3.7681    2.6522   12.8517 C   0  0  0  0  0  0  0  0  0  0  0  0
   -3.0197    4.9884   13.0106 S   0  0  0  0  0  0  0  0  0  0  0  0
   -3.7715    6.0889   12.3011 O   0  0  0  0  0  0  0  0  0  0  0  0
   -2.1850    5.4892   14.1515 O   0  0  0  0  0  0  0  0  0  0  0  0
   -2.1055    4.0042   11.9502 C   0  0  0  0  0  0  0  0  0  0  0  0
   -0.9954    4.2555   11.1330 C   0  0  0  0  0  0  0  0  0  0  0  0
   -2.6903    2.7304   12.0338 C   0  0  0  0  0  0  0  0  0  0  0  0
   -2.1283    1.7238   11.2425 C   0  0  0  0  0  0  0  0  0  0  0  0
   -1.0292    1.9716   10.4204 C   0  0  0  0  0  0  0  0  0  0  0  0
   -0.4300    3.2259   10.3709 C   0  0  0  0  0  0  0  0  0  0  0  0
   -5.3234    4.0471   14.4349 C   0  0  0  0  0  0  0  0  0  0  0  0
   -4.6259    2.2217   15.9261 C   0  0  0  0  0  0  0  0  0  0  0  0
   -4.8165    0.6985   16.0291 C   0  0  0  0  0  0  0  0  0  0  0  0
   -5.6906    0.2960   17.2327 C   0  0  0  0  0  0  0  0  0  0  0  0
   -7.0965    0.9235   17.1505 C   0  0  0  0  0  0  0  0  0  0  0  0
   -7.0947    2.4034   17.5797 C   0  0  0  0  0  0  0  0  0  0  0  0
   -6.7934    3.4123   16.4503 C   0  0  0  0  0  0  0  0  0  0  0  0
   -5.8580    2.9153   15.3229 C   0  0  0  0  0  0  0  0  0  0  0  0
    0.6331    3.5047    9.5351 O   0  0  0  0  0  0  0  0  0  0  0  0
    1.9259    4.1246    9.8784 S   0  0  0  0  0  0  0  0  0  0  0  0
    1.9736    5.5666    9.4827 O   0  0  0  0  0  0  0  0  0  0  0  0
    2.2285    3.9814   11.3255 O   0  0  0  0  0  0  0  0  0  0  0  0
    2.9842    3.3435    8.9877 N   0  0  0  0  0  0  0  0  0  0  0  0
    2.7508    3.4602    8.0017 H   0  0  0  0  0  0  0  0  0  0  0  0
    2.9641    2.3522    9.2268 H   0  0  0  0  0  0  0  0  0  0  0  0
 13 14  1  0  0  0
 13 19  1  0  0  0
 14 15  1  0  0  0
 15 16  1  0  0  0
 16 17  1  0  0  0
 17 18  1  0  0  0
 18 19  1  0  0  0
 19 12  1  0  0  0
 12  1  1  0  0  0
  1  2  2  0  0  0
  1  3  1  0  0  0
  2  8  1  0  0  0
  3  4  2  0  0  0
  3  5  2  0  0  0
  3  6  1  0  0  0
  6  7  2  0  0  0
  6  8  1  0  0  0
  7 11  1  0  0  0
  8  9  2  0  0  0
  9 10  1  0  0  0
 10 11  2  0  0  0
 11 20  1  0  0  0
 20 21  1  0  0  0
 21 22  2  0  0  0
 21 23  2  0  0  0
 21 24  1  0  0  0
 24 25  1  0  0  0
 24 26  1  0  0  0
M  END
> <minimizedAffinity>
-7.71233

$$$$
3DD8_2C7_A_300


 26 28  0  0  0  0  0  0  0  0999 V2000
   -2.7520    7.0099   12.6277 C   0  0  0  0  0  0  0  0  0  0  0  0
   -3.8888    6.9839   13.3480 C   0  0  0  0  0  0  0  0  0  0  0  0
   -2.1747    5.4043   12.5670 S   0  0  0  0  0  0  0  0  0  0  0  0
   -2.1444    4.9486   11.1278 O   0  0  0  0  0  0  0  0  0  0  0  0
   -0.8557    5.2410   13.2619 O   0  0  0  0  0  0  0  0  0  0  0  0
   -3.4491    4.7042   13.4693 C   0  0  0  0  0  0  0  0  0  0  0  0
   -3.7291    3.3895   13.8646 C   0  0  0  0  0  0  0  0  0  0  0  0
   -4.2836    5.7771   13.8218 C   0  0  0  0  0  0  0  0  0  0  0  0
   -5.4258    5.4707   14.5681 C   0  0  0  0  0  0  0  0  0  0  0  0
   -5.7134    4.1622   14.9558 C   0  0  0  0  0  0  0  0  0  0  0  0
   -4.8630    3.1087   14.6366 C   0  0  0  0  0  0  0  0  0  0  0  0
   -2.0641    8.1921   11.9051 C   0  0  0  0  0  0  0  0  0  0  0  0
   -0.6944    8.6859   13.8856 C   0  0  0  0  0  0  0  0  0  0  0  0
   -0.8261    9.4900   15.1906 C   0  0  0  0  0  0  0  0  0  0  0  0
    0.0950   10.7251   15.2149 C   0  0  0  0  0  0  0  0  0  0  0  0
   -0.2170   11.6912   14.0546 C   0  0  0  0  0  0  0  0  0  0  0  0
    0.3825   11.2050   12.7209 C   0  0  0  0  0  0  0  0  0  0  0  0
   -0.5181   10.2502   11.9076 C   0  0  0  0  0  0  0  0  0  0  0  0
   -1.4638    9.3407   12.7271 C   0  0  0  0  0  0  0  0  0  0  0  0
   -5.1476    1.8006   14.9750 O   0  0  0  0  0  0  0  0  0  0  0  0
   -4.5274    0.9743   16.0267 S   0  0  0  0  0  0  0  0  0  0  0  0
   -4.6125   -0.4852   15.7096 O   0  0  0  0  0  0  0  0  0  0  0  0
   -3.1135    1.3653   16.2599 O   0  0  0  0  0  0  0  0  0  0  0  0
   -5.4198    1.2425   17.3133 N   0  0  0  0  0  0  0  0  0  0  0  0
   -6.3827    0.9650   17.1230 H   0  0  0  0  0  0  0  0  0  0  0  0
   -5.3917    2.2353   17.5456 H   0  0  0  0  0  0  0  0  0  0  0  0
 13 14  1  0  0  0
 13 19  1  0  0  0
 14 15  1  0  0  0
 15 16  1  0  0  0
 16 17  1  0  0  0
 17 18  1  0  0  0
 18 19  1  0  0  0
 19 12  1  0  0  0
 12  1  1  0  0  0
  1  2  2  0  0  0
  1  3  1  0  0  0
  2  8  1  0  0  0
  3  4  2  0  0  0
  3  5  2  0  0  0
  3  6  1  0  0  0
  6  7  2  0  0  0
  6  8  1  0  0  0
  7 11  1  0  0  0
  8  9  2  0  0  0
  9 10  1  0  0  0
 10 11  2  0  0  0
 11 20  1  0  0  0
 20 21  1  0  0  0
 21 22  2  0  0  0
 21 23  2  0  0  0
 21 24  1  0  0  0
 24 25  1  0  0  0
 24 26  1  0  0  0
M  END
> <minimizedAffinity>
-7.29331

$$$$
3DD8_2C7_A_300


 26 28  0  0  0  0  0  0  0  0999 V2000
   -3.0917    4.7063   11.2438 C   0  0  0  0  0  0  0  0  0  0  0  0
   -3.7924    5.3750   12.1785 C   0  0  0  0  0  0  0  0  0  0  0  0
   -3.1881    3.0512   11.6515 S   0  0  0  0  0  0  0  0  0  0  0  0
   -3.8780    2.3100   10.5314 O   0  0  0  0  0  0  0  0  0  0  0  0
   -1.8528    2.4677   12.0059 O   0  0  0  0  0  0  0  0  0  0  0  0
   -4.1733    3.2483   13.0369 C   0  0  0  0  0  0  0  0  0  0  0  0
   -4.7225    2.3432   13.9546 C   0  0  0  0  0  0  0  0  0  0  0  0
   -4.3711    4.6335   13.1541 C   0  0  0  0  0  0  0  0  0  0  0  0
   -5.1651    5.0706   14.2189 C   0  0  0  0  0  0  0  0  0  0  0  0
   -5.7215    4.1725   15.1295 C   0  0  0  0  0  0  0  0  0  0  0  0
   -5.4904    2.8044   15.0307 C   0  0  0  0  0  0  0  0  0  0  0  0
   -2.3677    5.2338    9.9827 C   0  0  0  0  0  0  0  0  0  0  0  0
   -0.3555    5.5136   11.3666 C   0  0  0  0  0  0  0  0  0  0  0  0
    0.8929    6.4123   11.3939 C   0  0  0  0  0  0  0  0  0  0  0  0
    2.1825    5.6364   11.0629 C   0  0  0  0  0  0  0  0  0  0  0  0
    2.1174    4.9946    9.6626 C   0  0  0  0  0  0  0  0  0  0  0  0
    1.2766    3.7032    9.6575 C   0  0  0  0  0  0  0  0  0  0  0  0
   -0.2352    3.9072    9.4184 C   0  0  0  0  0  0  0  0  0  0  0  0
   -0.8338    5.2380    9.9320 C   0  0  0  0  0  0  0  0  0  0  0  0
   -6.0631    1.8937   15.8963 O   0  0  0  0  0  0  0  0  0  0  0  0
   -5.4026    1.0803   16.9334 S   0  0  0  0  0  0  0  0  0  0  0  0
   -5.5156    1.7069   18.2872 O   0  0  0  0  0  0  0  0  0  0  0  0
   -5.9432   -0.3028   16.9635 O   0  0  0  0  0  0  0  0  0  0  0  0
   -3.8682    1.0912   16.5221 N   0  0  0  0  0  0  0  0  0  0  0  0
   -3.5262    2.0521   16.5102 H   0  0  0  0  0  0  0  0  0  0  0  0
   -3.7620    0.6810   15.5943 H   0  0  0  0  0  0  0  0  0  0  0  0
 13 14  1  0  0  0
 13 19  1  0  0  0
 14 15  1  0  0  0
 15 16  1  0  0  0
 16 17  1  0  0  0
 17 18  1  0  0  0
 18 19  1  0  0  0
 19 12  1  0  0  0
 12  1  1  0  0  0
  1  2  2  0  0  0
  1  3  1  0  0  0
  2  8  1  0  0  0
  3  4  2  0  0  0
  3  5  2  0  0  0
  3  6  1  0  0  0
  6  7  2  0  0  0
  6  8  1  0  0  0
  7 11  1  0  0  0
  8  9  2  0  0  0
  9 10  1  0  0  0
 10 11  2  0  0  0
 11 20  1  0  0  0
 20 21  1  0  0  0
 21 22  2  0  0  0
 21 23  2  0  0  0
 21 24  1  0  0  0
 24 25  1  0  0  0
 24 26  1  0  0  0
M  END
> <minimizedAffinity>
-7.18709

$$$$
3DD8_2C7_A_300


 26 28  0  0  0  0  0  0  0  0999 V2000
   -3.4844    6.4059   13.1454 C   0  0  0  0  0  0  0  0  0  0  0  0
   -3.4336    5.5492   14.1824 C   0  0  0  0  0  0  0  0  0  0  0  0
   -3.8343    5.4742   11.7582 S   0  0  0  0  0  0  0  0  0  0  0  0
   -5.1516    5.9324   11.1797 O   0  0  0  0  0  0  0  0  0  0  0  0
   -2.7169    5.4905   10.7579 O   0  0  0  0  0  0  0  0  0  0  0  0
   -3.9375    3.9646   12.5576 C   0  0  0  0  0  0  0  0  0  0  0  0
   -4.2103    2.6646   12.1117 C   0  0  0  0  0  0  0  0  0  0  0  0
   -3.6575    4.2416   13.9054 C   0  0  0  0  0  0  0  0  0  0  0  0
   -3.6873    3.1609   14.7922 C   0  0  0  0  0  0  0  0  0  0  0  0
   -3.9676    1.8667   14.3543 C   0  0  0  0  0  0  0  0  0  0  0  0
   -4.2063    1.5921   13.0117 C   0  0  0  0  0  0  0  0  0  0  0  0
   -3.3359    7.9455   13.1243 C   0  0  0  0  0  0  0  0  0  0  0  0
   -1.6987    8.7450   14.7744 C   0  0  0  0  0  0  0  0  0  0  0  0
   -0.9451   10.0479   15.0929 C   0  0  0  0  0  0  0  0  0  0  0  0
    0.5658    9.9364   14.8113 C   0  0  0  0  0  0  0  0  0  0  0  0
    0.8462    9.6014   13.3328 C   0  0  0  0  0  0  0  0  0  0  0  0
    0.6256    8.1072   13.0271 C   0  0  0  0  0  0  0  0  0  0  0  0
   -0.8183    7.7254   12.6353 C   0  0  0  0  0  0  0  0  0  0  0  0
   -1.9446    8.5776   13.2662 C   0  0  0  0  0  0  0  0  0  0  0  0
   -4.5251    0.3263   12.5615 O   0  0  0  0  0  0  0  0  0  0  0  0
   -3.9221   -0.4241   11.4449 S   0  0  0  0  0  0  0  0  0  0  0  0
   -2.4997   -0.0243   11.2104 O   0  0  0  0  0  0  0  0  0  0  0  0
   -4.0112   -1.8902   11.6662 O   0  0  0  0  0  0  0  0  0  0  0  0
   -4.7651    0.0197   10.1737 N   0  0  0  0  0  0  0  0  0  0  0  0
   -4.6846    1.0287   10.0478 H   0  0  0  0  0  0  0  0  0  0  0  0
   -5.7447   -0.2287   10.3117 H   0  0  0  0  0  0  0  0  0  0  0  0
 13 14  1  0  0  0
 13 19  1  0  0  0
 14 15  1  0  0  0
 15 16  1  0  0  0
 16 17  1  0  0  0
 17 18  1  0  0  0
 18 19  1  0  0  0
 19 12  1  0  0  0
 12  1  1  0  0  0
  1  2  2  0  0  0
  1  3  1  0  0  0
  2  8  1  0  0  0
  3  4  2  0  0  0
  3  5  2  0  0  0
  3  6  1  0  0  0
  6  7  2  0  0  0
  6  8  1  0  0  0
  7 11  1  0  0  0
  8  9  2  0  0  0
  9 10  1  0  0  0
 10 11  2  0  0  0
 11 20  1  0  0  0
 20 21  1  0  0  0
 21 22  2  0  0  0
 21 23  2  0  0  0
 21 24  1  0  0  0
 24 25  1  0  0  0
 24 26  1  0  0  0
M  END
> <minimizedAffinity>
-7.10010

$$$$
3DD8_2C7_A_300


 26 28  0  0  0  0  0  0  0  0999 V2000
   -4.1196    6.9000   11.3289 C   0  0  0  0  0  0  0  0  0  0  0  0
   -4.9438    6.8389   12.3913 C   0  0  0  0  0  0  0  0  0  0  0  0
   -3.4465    5.3421   11.1420 S   0  0  0  0  0  0  0  0  0  0  0  0
   -3.8542    4.7904    9.7968 O   0  0  0  0  0  0  0  0  0  0  0  0
   -1.9622    5.3276   11.3566 O   0  0  0  0  0  0  0  0  0  0  0  0
   -4.2757    4.6129   12.4493 C   0  0  0  0  0  0  0  0  0  0  0  0
   -4.2827    3.3117   12.9690 C   0  0  0  0  0  0  0  0  0  0  0  0
   -5.0425    5.6419   13.0191 C   0  0  0  0  0  0  0  0  0  0  0  0
   -5.8368    5.3034   14.1191 C   0  0  0  0  0  0  0  0  0  0  0  0
   -5.8541    4.0073   14.6339 C   0  0  0  0  0  0  0  0  0  0  0  0
   -5.0630    3.0011   14.0893 C   0  0  0  0  0  0  0  0  0  0  0  0
   -3.8263    8.0771   10.3690 C   0  0  0  0  0  0  0  0  0  0  0  0
   -3.6183   10.5189   10.1775 C   0  0  0  0  0  0  0  0  0  0  0  0
   -3.8283   11.7540   11.0705 C   0  0  0  0  0  0  0  0  0  0  0  0
   -5.0298   12.6072   10.6198 C   0  0  0  0  0  0  0  0  0  0  0  0
   -6.3433   11.8005   10.6471 C   0  0  0  0  0  0  0  0  0  0  0  0
   -6.4766   10.8722    9.4244 C   0  0  0  0  0  0  0  0  0  0  0  0
   -5.8442    9.4735    9.5921 C   0  0  0  0  0  0  0  0  0  0  0  0
   -4.6061    9.3908   10.5158 C   0  0  0  0  0  0  0  0  0  0  0  0
   -5.0938    1.7021   14.5567 O   0  0  0  0  0  0  0  0  0  0  0  0
   -4.6517    1.1932   15.8679 S   0  0  0  0  0  0  0  0  0  0  0  0
   -5.4991    1.7193   16.9829 O   0  0  0  0  0  0  0  0  0  0  0  0
   -4.6349   -0.2917   15.8953 O   0  0  0  0  0  0  0  0  0  0  0  0
   -3.1907    1.7902   16.0478 N   0  0  0  0  0  0  0  0  0  0  0  0
   -3.2345    2.8090   16.0247 H   0  0  0  0  0  0  0  0  0  0  0  0
   -2.5923    1.4584   15.2913 H   0  0  0  0  0  0  0  0  0  0  0  0
 13 14  1  0  0  0
 13 19  1  0  0  0
 14 15  1  0  0  0
 15 16  1  0  0  0
 16 17  1  0  0  0
 17 18  1  0  0  0
 18 19  1  0  0  0
 19 12  1  0  0  0
 12  1  1  0  0  0
  1  2  2  0  0  0
  1  3  1  0  0  0
  2  8  1  0  0  0
  3  4  2  0  0  0
  3  5  2  0  0  0
  3  6  1  0  0  0
  6  7  2  0  0  0
  6  8  1  0  0  0
  7 11  1  0  0  0
  8  9  2  0  0  0
  9 10  1  0  0  0
 10 11  2  0  0  0
 11 20  1  0  0  0
 20 21  1  0  0  0
 21 22  2  0  0  0
 21 23  2  0  0  0
 21 24  1  0  0  0
 24 25  1  0  0  0
 24 26  1  0  0  0
M  END
> <minimizedAffinity>
-7.08177

$$$$
3DD8_2C7_A_300


 26 28  0  0  0  0  0  0  0  0999 V2000
   -2.7146    6.4023   12.2046 C   0  0  0  0  0  0  0  0  0  0  0  0
   -1.6133    5.7992   11.7193 C   0  0  0  0  0  0  0  0  0  0  0  0
   -3.8854    5.1791   12.4239 S   0  0  0  0  0  0  0  0  0  0  0  0
   -4.2444    5.1015   13.8885 O   0  0  0  0  0  0  0  0  0  0  0  0
   -5.0802    5.3611   11.5358 O   0  0  0  0  0  0  0  0  0  0  0  0
   -2.9076    3.8763   11.8994 C   0  0  0  0  0  0  0  0  0  0  0  0
   -3.1335    2.4982   11.7857 C   0  0  0  0  0  0  0  0  0  0  0  0
   -1.6836    4.4587   11.5328 C   0  0  0  0  0  0  0  0  0  0  0  0
   -0.6861    3.5949   11.0699 C   0  0  0  0  0  0  0  0  0  0  0  0
   -0.9035    2.2213   10.9641 C   0  0  0  0  0  0  0  0  0  0  0  0
   -2.1308    1.6548   11.2922 C   0  0  0  0  0  0  0  0  0  0  0  0
   -2.9473    7.8841   12.5825 C   0  0  0  0  0  0  0  0  0  0  0  0
   -2.1121   10.1350   13.1101 C   0  0  0  0  0  0  0  0  0  0  0  0
   -0.7881   10.9120   13.0083 C   0  0  0  0  0  0  0  0  0  0  0  0
   -0.1767   11.2141   14.3902 C   0  0  0  0  0  0  0  0  0  0  0  0
    0.1164    9.9218   15.1781 C   0  0  0  0  0  0  0  0  0  0  0  0
   -1.1573    9.3305   15.8125 C   0  0  0  0  0  0  0  0  0  0  0  0
   -1.9518    8.3644   14.9072 C   0  0  0  0  0  0  0  0  0  0  0  0
   -1.8814    8.6406   13.3868 C   0  0  0  0  0  0  0  0  0  0  0  0
   -2.3559    0.2937   11.2335 O   0  0  0  0  0  0  0  0  0  0  0  0
   -3.6464   -0.4157   11.1625 S   0  0  0  0  0  0  0  0  0  0  0  0
   -4.4623   -0.2108   12.3995 O   0  0  0  0  0  0  0  0  0  0  0  0
   -4.4236   -0.0084    9.9641 O   0  0  0  0  0  0  0  0  0  0  0  0
   -3.2463   -1.9516   11.0960 N   0  0  0  0  0  0  0  0  0  0  0  0
   -2.7150   -2.2010   11.9302 H   0  0  0  0  0  0  0  0  0  0  0  0
   -2.6760   -2.1188   10.2670 H   0  0  0  0  0  0  0  0  0  0  0  0
 13 14  1  0  0  0
 13 19  1  0  0  0
 14 15  1  0  0  0
 15 16  1  0  0  0
 16 17  1  0  0  0
 17 18  1  0  0  0
 18 19  1  0  0  0
 19 12  1  0  0  0
 12  1  1  0  0  0
  1  2  2  0  0  0
  1  3  1  0  0  0
  2  8  1  0  0  0
  3  4  2  0  0  0
  3  5  2  0  0  0
  3  6  1  0  0  0
  6  7  2  0  0  0
  6  8  1  0  0  0
  7 11  1  0  0  0
  8  9  2  0  0  0
  9 10  1  0  0  0
 10 11  2  0  0  0
 11 20  1  0  0  0
 20 21  1  0  0  0
 21 22  2  0  0  0
 21 23  2  0  0  0
 21 24  1  0  0  0
 24 25  1  0  0  0
 24 26  1  0  0  0
M  END
> <minimizedAffinity>
-6.88994

$$$$
3DD8_2C7_A_300


 26 28  0  0  0  0  0  0  0  0999 V2000
   -1.6814    5.4951   11.1957 C   0  0  0  0  0  0  0  0  0  0  0  0
   -2.5560    6.0533   12.0533 C   0  0  0  0  0  0  0  0  0  0  0  0
   -1.7158    3.8133   11.4876 S   0  0  0  0  0  0  0  0  0  0  0  0
   -2.1817    3.1083   10.2363 O   0  0  0  0  0  0  0  0  0  0  0  0
   -0.4070    3.2922   12.0019 O   0  0  0  0  0  0  0  0  0  0  0  0
   -2.9022    3.8532   12.7204 C   0  0  0  0  0  0  0  0  0  0  0  0
   -3.5112    2.8550   13.4922 C   0  0  0  0  0  0  0  0  0  0  0  0
   -3.2143    5.2121   12.8873 C   0  0  0  0  0  0  0  0  0  0  0  0
   -4.1830    5.5249   13.8460 C   0  0  0  0  0  0  0  0  0  0  0  0
   -4.7987    4.5336   14.6100 C   0  0  0  0  0  0  0  0  0  0  0  0
   -4.4575    3.1926   14.4673 C   0  0  0  0  0  0  0  0  0  0  0  0
   -0.8230    6.1518   10.0890 C   0  0  0  0  0  0  0  0  0  0  0  0
    1.1775    7.3669    9.3381 C   0  0  0  0  0  0  0  0  0  0  0  0
    2.5232    7.0419    8.6669 C   0  0  0  0  0  0  0  0  0  0  0  0
    3.7181    7.2428    9.6190 C   0  0  0  0  0  0  0  0  0  0  0  0
    3.6076    6.3466   10.8685 C   0  0  0  0  0  0  0  0  0  0  0  0
    2.6192    6.9179   11.9036 C   0  0  0  0  0  0  0  0  0  0  0  0
    1.1481    6.4910   11.7093 C   0  0  0  0  0  0  0  0  0  0  0  0
    0.7012    6.2264   10.2521 C   0  0  0  0  0  0  0  0  0  0  0  0
   -5.0819    2.1909   15.1837 O   0  0  0  0  0  0  0  0  0  0  0  0
   -4.4870    1.2615   16.1616 S   0  0  0  0  0  0  0  0  0  0  0  0
   -3.0264    1.5196   16.3566 O   0  0  0  0  0  0  0  0  0  0  0  0
   -5.1953    1.3206   17.4658 O   0  0  0  0  0  0  0  0  0  0  0  0
   -4.6396   -0.1683   15.4865 N   0  0  0  0  0  0  0  0  0  0  0  0
   -4.1441   -0.1780   14.5949 H   0  0  0  0  0  0  0  0  0  0  0  0
   -5.6277   -0.3661   15.3284 H   0  0  0  0  0  0  0  0  0  0  0  0
 13 14  1  0  0  0
 13 19  1  0  0  0
 14 15  1  0  0  0
 15 16  1  0  0  0
 16 17  1  0  0  0
 17 18  1  0  0  0
 18 19  1  0  0  0
 19 12  1  0  0  0
 12  1  1  0  0  0
  1  2  2  0  0  0
  1  3  1  0  0  0
  2  8  1  0  0  0
  3  4  2  0  0  0
  3  5  2  0  0  0
  3  6  1  0  0  0
  6  7  2  0  0  0
  6  8  1  0  0  0
  7 11  1  0  0  0
  8  9  2  0  0  0
  9 10  1  0  0  0
 10 11  2  0  0  0
 11 20  1  0  0  0
 20 21  1  0  0  0
 21 22  2  0  0  0
 21 23  2  0  0  0
 21 24  1  0  0  0
 24 25  1  0  0  0
 24 26  1  0  0  0
M  END
> <minimizedAffinity>
-6.81822

$$$$
3DD8_2C7_A_300


 26 28  0  0  0  0  0  0  0  0999 V2000
   -3.7593    4.1081   12.9846 C   0  0  0  0  0  0  0  0  0  0  0  0
   -4.2235    5.3121   12.6016 C   0  0  0  0  0  0  0  0  0  0  0  0
   -2.1404    4.3414   13.4745 S   0  0  0  0  0  0  0  0  0  0  0  0
   -2.0125    3.9751   14.9337 O   0  0  0  0  0  0  0  0  0  0  0  0
   -1.1643    3.6134   12.5991 O   0  0  0  0  0  0  0  0  0  0  0  0
   -2.0935    6.0293   13.1963 C   0  0  0  0  0  0  0  0  0  0  0  0
   -1.0954    6.9978   13.3668 C   0  0  0  0  0  0  0  0  0  0  0  0
   -3.3618    6.3545   12.6891 C   0  0  0  0  0  0  0  0  0  0  0  0
   -3.5944    7.6989   12.3829 C   0  0  0  0  0  0  0  0  0  0  0  0
   -2.6069    8.6678   12.5599 C   0  0  0  0  0  0  0  0  0  0  0  0
   -1.3398    8.3337   13.0264 C   0  0  0  0  0  0  0  0  0  0  0  0
   -4.4870    2.7454   13.0641 C   0  0  0  0  0  0  0  0  0  0  0  0
   -4.2701    1.7680   15.3091 C   0  0  0  0  0  0  0  0  0  0  0  0
   -4.8782    0.6023   16.1081 C   0  0  0  0  0  0  0  0  0  0  0  0
   -5.7782    1.0870   17.2611 C   0  0  0  0  0  0  0  0  0  0  0  0
   -6.9521    1.9434   16.7459 C   0  0  0  0  0  0  0  0  0  0  0  0
   -6.5143    3.3828   16.4125 C   0  0  0  0  0  0  0  0  0  0  0  0
   -5.9891    3.5912   14.9756 C   0  0  0  0  0  0  0  0  0  0  0  0
   -5.2809    2.3793   14.3254 C   0  0  0  0  0  0  0  0  0  0  0  0
   -0.3599    9.2812   13.2472 O   0  0  0  0  0  0  0  0  0  0  0  0
   -0.1514   10.1167   14.4439 S   0  0  0  0  0  0  0  0  0  0  0  0
   -0.9112    9.5978   15.6235 O   0  0  0  0  0  0  0  0  0  0  0  0
    1.2911   10.2360   14.7771 O   0  0  0  0  0  0  0  0  0  0  0  0
   -0.7712   11.5257   14.0512 N   0  0  0  0  0  0  0  0  0  0  0  0
   -1.7600   11.4119   13.8282 H   0  0  0  0  0  0  0  0  0  0  0  0
   -0.2801   11.8985   13.2386 H   0  0  0  0  0  0  0  0  0  0  0  0
 13 14  1  0  0  0
 13 19  1  0  0  0
 14 15  1  0  0  0
 15 16  1  0  0  0
 16 17  1  0  0  0
 17 18  1  0  0  0
 18 19  1  0  0  0
 19 12  1  0  0  0
 12  1  1  0  0  0
  1  2  2  0  0  0
  1  3  1  0  0  0
  2  8  1  0  0  0
  3  4  2  0  0  0
  3  5  2  0  0  0
  3  6  1  0  0  0
  6  7  2  0  0  0
  6  8  1  0  0  0
  7 11  1  0  0  0
  8  9  2  0  0  0
  9 10  1  0  0  0
 10 11  2  0  0  0
 11 20  1  0  0  0
 20 21  1  0  0  0
 21 22  2  0  0  0
 21 23  2  0  0  0
 21 24  1  0  0  0
 24 25  1  0  0  0
 24 26  1  0  0  0
M  END
> <minimizedAffinity>
-6.60913

$$$$
