3GM0_B41_A_600


 15 16  0  0  0  0  0  0  0  0999 V2000
   -7.9445   -6.1575   16.4484 O   0  0  0  0  0  0  0  0  0  0  0  0
   -7.0852   -8.1728   17.0967 O   0  0  0  0  0  0  0  0  0  0  0  0
   -4.5852   -4.9141   17.1929 C   0  0  0  0  0  0  0  0  0  0  0  0
   -5.9867   -4.8020   17.0091 C   0  0  0  0  0  0  0  0  0  0  0  0
   -4.0252   -6.1655   17.5524 C   0  0  0  0  0  0  0  0  0  0  0  0
   -6.8138   -5.9326   17.1868 C   0  0  0  0  0  0  0  0  0  0  0  0
   -4.8652   -7.2939   17.7208 C   0  0  0  0  0  0  0  0  0  0  0  0
   -6.2618   -7.1594   17.5394 C   0  0  0  0  0  0  0  0  0  0  0  0
   -8.3399   -7.5229   16.7597 C   0  0  0  0  0  0  0  0  0  0  0  0
   -3.7043   -3.6891   17.0176 C   0  0  0  0  0  0  0  0  0  0  0  0
   -3.3040   -3.4548   15.5443 C   0  0  0  0  0  0  0  0  0  0  0  0
   -1.9401   -4.1051   15.2560 C   0  0  0  0  0  0  0  0  0  0  0  0
   -3.2209   -2.0058   15.2682 N   0  0  0  0  0  0  0  0  0  0  0  0
   -4.1103   -1.2659   16.1636 C   0  0  0  0  0  0  0  0  0  0  0  0
   -2.2615   -1.6906   15.4112 H   0  0  0  0  0  0  0  0  0  0  0  0
  1  9  1  0  0  0
  1  6  1  0  0  0
  9  2  1  0  0  0
  2  8  1  0  0  0
 14 13  1  0  0  0
 13 11  1  0  0  0
 12 11  1  0  0  0
 11 10  1  0  0  0
 10  3  1  0  0  0
  4  3  2  0  0  0
  3  5  1  0  0  0
  4  6  1  0  0  0
  5  7  2  0  0  0
  6  8  2  0  0  0
  8  7  1  0  0  0
 13 15  1  0  0  0
M  END
> <minimizedAffinity>
-8.14434

$$$$
3GM0_B41_A_600


 15 16  0  0  0  0  0  0  0  0999 V2000
   -4.5110   -1.4381   16.1589 O   0  0  0  0  0  0  0  0  0  0  0  0
   -2.4212   -1.8143   15.3156 O   0  0  0  0  0  0  0  0  0  0  0  0
   -4.4040   -4.9996   16.9893 C   0  0  0  0  0  0  0  0  0  0  0  0
   -5.0383   -3.7641   16.7033 C   0  0  0  0  0  0  0  0  0  0  0  0
   -3.0904   -5.2375   16.5134 C   0  0  0  0  0  0  0  0  0  0  0  0
   -4.3614   -2.7824   15.9471 C   0  0  0  0  0  0  0  0  0  0  0  0
   -2.4194   -4.2416   15.7617 C   0  0  0  0  0  0  0  0  0  0  0  0
   -3.0724   -3.0183   15.4814 C   0  0  0  0  0  0  0  0  0  0  0  0
   -3.4666   -0.8070   15.3662 C   0  0  0  0  0  0  0  0  0  0  0  0
   -5.1457   -6.0576   17.7880 C   0  0  0  0  0  0  0  0  0  0  0  0
   -6.5549   -6.3441   17.2240 C   0  0  0  0  0  0  0  0  0  0  0  0
   -7.6105   -5.5411   18.0031 C   0  0  0  0  0  0  0  0  0  0  0  0
   -6.8594   -7.7855   17.3351 N   0  0  0  0  0  0  0  0  0  0  0  0
   -8.2299   -8.0507   16.8973 C   0  0  0  0  0  0  0  0  0  0  0  0
   -6.2113   -8.3123   16.7496 H   0  0  0  0  0  0  0  0  0  0  0  0
  1  9  1  0  0  0
  1  6  1  0  0  0
  9  2  1  0  0  0
  2  8  1  0  0  0
 14 13  1  0  0  0
 13 11  1  0  0  0
 12 11  1  0  0  0
 11 10  1  0  0  0
 10  3  1  0  0  0
  4  3  2  0  0  0
  3  5  1  0  0  0
  4  6  1  0  0  0
  5  7  2  0  0  0
  6  8  2  0  0  0
  8  7  1  0  0  0
 13 15  1  0  0  0
M  END
> <minimizedAffinity>
-8.00936

$$$$
3GM0_B41_A_600


 15 16  0  0  0  0  0  0  0  0999 V2000
   -1.1002   -4.8870   16.8318 O   0  0  0  0  0  0  0  0  0  0  0  0
   -1.6612   -3.4800   15.1213 O   0  0  0  0  0  0  0  0  0  0  0  0
   -4.7147   -5.0571   17.3725 C   0  0  0  0  0  0  0  0  0  0  0  0
   -3.3515   -5.1551   17.7507 C   0  0  0  0  0  0  0  0  0  0  0  0
   -5.0804   -4.2241   16.2858 C   0  0  0  0  0  0  0  0  0  0  0  0
   -2.3703   -4.4233   17.0470 C   0  0  0  0  0  0  0  0  0  0  0  0
   -4.0854   -3.5004   15.5835 C   0  0  0  0  0  0  0  0  0  0  0  0
   -2.7318   -3.6066   15.9809 C   0  0  0  0  0  0  0  0  0  0  0  0
   -0.5146   -3.9669   15.8686 C   0  0  0  0  0  0  0  0  0  0  0  0
   -5.7664   -5.8336   18.1461 C   0  0  0  0  0  0  0  0  0  0  0  0
   -6.9277   -6.3125   17.2472 C   0  0  0  0  0  0  0  0  0  0  0  0
   -8.2625   -5.7442   17.7586 C   0  0  0  0  0  0  0  0  0  0  0  0
   -6.9932   -7.7884   17.2510 N   0  0  0  0  0  0  0  0  0  0  0  0
   -8.3358   -8.2387   16.8839 C   0  0  0  0  0  0  0  0  0  0  0  0
   -6.3195   -8.1567   16.5795 H   0  0  0  0  0  0  0  0  0  0  0  0
  1  9  1  0  0  0
  1  6  1  0  0  0
  9  2  1  0  0  0
  2  8  1  0  0  0
 14 13  1  0  0  0
 13 11  1  0  0  0
 12 11  1  0  0  0
 11 10  1  0  0  0
 10  3  1  0  0  0
  4  3  2  0  0  0
  3  5  1  0  0  0
  4  6  1  0  0  0
  5  7  2  0  0  0
  6  8  2  0  0  0
  8  7  1  0  0  0
 13 15  1  0  0  0
M  END
> <minimizedAffinity>
-7.74807

$$$$
3GM0_B41_A_600


 15 16  0  0  0  0  0  0  0  0999 V2000
   -3.5664   -3.7216   16.9898 O   0  0  0  0  0  0  0  0  0  0  0  0
   -2.4427   -5.6656   17.4122 O   0  0  0  0  0  0  0  0  0  0  0  0
   -6.5487   -5.7800   17.4945 C   0  0  0  0  0  0  0  0  0  0  0  0
   -5.8209   -4.6713   16.9926 C   0  0  0  0  0  0  0  0  0  0  0  0
   -5.8652   -6.9821   17.8050 C   0  0  0  0  0  0  0  0  0  0  0  0
   -4.4252   -4.7714   16.8034 C   0  0  0  0  0  0  0  0  0  0  0  0
   -4.4635   -7.0673   17.6172 C   0  0  0  0  0  0  0  0  0  0  0  0
   -3.7569   -5.9521   17.1089 C   0  0  0  0  0  0  0  0  0  0  0  0
   -2.2339   -4.3050   16.9484 C   0  0  0  0  0  0  0  0  0  0  0  0
   -8.0526   -5.6703   17.6781 C   0  0  0  0  0  0  0  0  0  0  0  0
   -8.8076   -6.8949   17.1159 C   0  0  0  0  0  0  0  0  0  0  0  0
   -9.0422   -6.7249   15.6053 C   0  0  0  0  0  0  0  0  0  0  0  0
  -10.1100   -7.0414   17.7978 N   0  0  0  0  0  0  0  0  0  0  0  0
  -10.6839   -5.7269   18.0856 C   0  0  0  0  0  0  0  0  0  0  0  0
  -10.7479   -7.5626   17.1962 H   0  0  0  0  0  0  0  0  0  0  0  0
  1  9  1  0  0  0
  1  6  1  0  0  0
  9  2  1  0  0  0
  2  8  1  0  0  0
 14 13  1  0  0  0
 13 11  1  0  0  0
 12 11  1  0  0  0
 11 10  1  0  0  0
 10  3  1  0  0  0
  4  3  2  0  0  0
  3  5  1  0  0  0
  4  6  1  0  0  0
  5  7  2  0  0  0
  6  8  2  0  0  0
  8  7  1  0  0  0
 13 15  1  0  0  0
M  END
> <minimizedAffinity>
-7.59639

$$$$
3GM0_B41_A_600


 15 16  0  0  0  0  0  0  0  0999 V2000
   -4.9497   -2.5692   16.3241 O   0  0  0  0  0  0  0  0  0  0  0  0
   -2.9182   -3.0686   17.2427 O   0  0  0  0  0  0  0  0  0  0  0  0
   -5.8329   -5.9611   17.3731 C   0  0  0  0  0  0  0  0  0  0  0  0
   -5.9526   -4.7846   16.5907 C   0  0  0  0  0  0  0  0  0  0  0  0
   -4.5938   -6.2681   17.9887 C   0  0  0  0  0  0  0  0  0  0  0  0
   -4.8404   -3.9300   16.4279 C   0  0  0  0  0  0  0  0  0  0  0  0
   -3.4875   -5.3987   17.8233 C   0  0  0  0  0  0  0  0  0  0  0  0
   -3.6256   -4.2335   17.0331 C   0  0  0  0  0  0  0  0  0  0  0  0
   -3.5885   -2.0664   16.4326 C   0  0  0  0  0  0  0  0  0  0  0  0
   -7.0289   -6.8847   17.5285 C   0  0  0  0  0  0  0  0  0  0  0  0
   -8.3193   -6.2873   16.9252 C   0  0  0  0  0  0  0  0  0  0  0  0
   -9.2610   -5.8185   18.0474 C   0  0  0  0  0  0  0  0  0  0  0  0
   -9.0089   -7.3027   16.1029 N   0  0  0  0  0  0  0  0  0  0  0  0
   -9.6873   -6.6670   14.9734 C   0  0  0  0  0  0  0  0  0  0  0  0
   -8.3243   -7.9719   15.7508 H   0  0  0  0  0  0  0  0  0  0  0  0
  1  9  1  0  0  0
  1  6  1  0  0  0
  9  2  1  0  0  0
  2  8  1  0  0  0
 14 13  1  0  0  0
 13 11  1  0  0  0
 12 11  1  0  0  0
 11 10  1  0  0  0
 10  3  1  0  0  0
  4  3  2  0  0  0
  3  5  1  0  0  0
  4  6  1  0  0  0
  5  7  2  0  0  0
  6  8  2  0  0  0
  8  7  1  0  0  0
 13 15  1  0  0  0
M  END
> <minimizedAffinity>
-7.43551

$$$$
3GM0_B41_A_600


 15 16  0  0  0  0  0  0  0  0999 V2000
   -2.3951   -5.3885   18.4560 O   0  0  0  0  0  0  0  0  0  0  0  0
   -2.4005   -3.7174   16.8978 O   0  0  0  0  0  0  0  0  0  0  0  0
   -5.8616   -5.8751   17.3918 C   0  0  0  0  0  0  0  0  0  0  0  0
   -4.7677   -5.9614   18.2900 C   0  0  0  0  0  0  0  0  0  0  0  0
   -5.8653   -4.8737   16.3890 C   0  0  0  0  0  0  0  0  0  0  0  0
   -3.6935   -5.0513   18.1822 C   0  0  0  0  0  0  0  0  0  0  0  0
   -4.7782   -3.9710   16.2870 C   0  0  0  0  0  0  0  0  0  0  0  0
   -3.6996   -4.0695   17.1971 C   0  0  0  0  0  0  0  0  0  0  0  0
   -1.5995   -4.2681   17.9772 C   0  0  0  0  0  0  0  0  0  0  0  0
   -7.0218   -6.8465   17.5258 C   0  0  0  0  0  0  0  0  0  0  0  0
   -8.3451   -6.2654   16.9806 C   0  0  0  0  0  0  0  0  0  0  0  0
   -9.0917   -5.5121   18.0947 C   0  0  0  0  0  0  0  0  0  0  0  0
   -9.2023   -7.3551   16.4703 N   0  0  0  0  0  0  0  0  0  0  0  0
  -10.5690   -7.2031   16.9696 C   0  0  0  0  0  0  0  0  0  0  0  0
   -9.2115   -7.3265   15.4508 H   0  0  0  0  0  0  0  0  0  0  0  0
  1  9  1  0  0  0
  1  6  1  0  0  0
  9  2  1  0  0  0
  2  8  1  0  0  0
 14 13  1  0  0  0
 13 11  1  0  0  0
 12 11  1  0  0  0
 11 10  1  0  0  0
 10  3  1  0  0  0
  4  3  2  0  0  0
  3  5  1  0  0  0
  4  6  1  0  0  0
  5  7  2  0  0  0
  6  8  2  0  0  0
  8  7  1  0  0  0
 13 15  1  0  0  0
M  END
> <minimizedAffinity>
-7.18300

$$$$
3GM0_B41_A_600


 15 16  0  0  0  0  0  0  0  0999 V2000
   -9.9177   -5.6129   16.9245 O   0  0  0  0  0  0  0  0  0  0  0  0
   -9.9054   -7.7996   16.2624 O   0  0  0  0  0  0  0  0  0  0  0  0
   -6.4151   -6.2447   17.7719 C   0  0  0  0  0  0  0  0  0  0  0  0
   -7.6595   -5.5711   17.8643 C   0  0  0  0  0  0  0  0  0  0  0  0
   -6.3792   -7.5880   17.3216 C   0  0  0  0  0  0  0  0  0  0  0  0
   -8.8514   -6.2403   17.5108 C   0  0  0  0  0  0  0  0  0  0  0  0
   -7.5816   -8.2460   16.9632 C   0  0  0  0  0  0  0  0  0  0  0  0
   -8.8135   -7.5585   17.0691 C   0  0  0  0  0  0  0  0  0  0  0  0
  -10.8056   -6.6842   16.4985 C   0  0  0  0  0  0  0  0  0  0  0  0
   -5.1392   -5.5235   18.1713 C   0  0  0  0  0  0  0  0  0  0  0  0
   -4.3199   -5.0515   16.9499 C   0  0  0  0  0  0  0  0  0  0  0  0
   -2.9344   -4.5577   17.4001 C   0  0  0  0  0  0  0  0  0  0  0  0
   -5.0284   -3.9531   16.2611 N   0  0  0  0  0  0  0  0  0  0  0  0
   -4.2756   -2.7050   16.3866 C   0  0  0  0  0  0  0  0  0  0  0  0
   -5.1309   -4.1863   15.2734 H   0  0  0  0  0  0  0  0  0  0  0  0
  1  9  1  0  0  0
  1  6  1  0  0  0
  9  2  1  0  0  0
  2  8  1  0  0  0
 14 13  1  0  0  0
 13 11  1  0  0  0
 12 11  1  0  0  0
 11 10  1  0  0  0
 10  3  1  0  0  0
  4  3  2  0  0  0
  3  5  1  0  0  0
  4  6  1  0  0  0
  5  7  2  0  0  0
  6  8  2  0  0  0
  8  7  1  0  0  0
 13 15  1  0  0  0
M  END
> <minimizedAffinity>
-6.98650

$$$$
3GM0_B41_A_600


 15 16  0  0  0  0  0  0  0  0999 V2000
   -2.8676   -6.2223   17.1409 O   0  0  0  0  0  0  0  0  0  0  0  0
   -3.5648   -4.0493   17.0300 O   0  0  0  0  0  0  0  0  0  0  0  0
   -6.4474   -6.9673   17.2639 C   0  0  0  0  0  0  0  0  0  0  0  0
   -5.0712   -7.2274   17.4852 C   0  0  0  0  0  0  0  0  0  0  0  0
   -6.8958   -5.6278   17.1479 C   0  0  0  0  0  0  0  0  0  0  0  0
   -4.1590   -6.1549   17.5906 C   0  0  0  0  0  0  0  0  0  0  0  0
   -5.9692   -4.5608   17.2486 C   0  0  0  0  0  0  0  0  0  0  0  0
   -4.6014   -4.8413   17.4763 C   0  0  0  0  0  0  0  0  0  0  0  0
   -2.3693   -4.8564   17.2013 C   0  0  0  0  0  0  0  0  0  0  0  0
   -7.4252   -8.1260   17.1697 C   0  0  0  0  0  0  0  0  0  0  0  0
   -8.8729   -7.6576   16.9037 C   0  0  0  0  0  0  0  0  0  0  0  0
   -9.8459   -8.8413   17.0391 C   0  0  0  0  0  0  0  0  0  0  0  0
   -8.9786   -7.0933   15.5425 N   0  0  0  0  0  0  0  0  0  0  0  0
  -10.3583   -6.6953   15.2629 C   0  0  0  0  0  0  0  0  0  0  0  0
   -8.3715   -6.2769   15.4688 H   0  0  0  0  0  0  0  0  0  0  0  0
  1  9  1  0  0  0
  1  6  1  0  0  0
  9  2  1  0  0  0
  2  8  1  0  0  0
 14 13  1  0  0  0
 13 11  1  0  0  0
 12 11  1  0  0  0
 11 10  1  0  0  0
 10  3  1  0  0  0
  4  3  2  0  0  0
  3  5  1  0  0  0
  4  6  1  0  0  0
  5  7  2  0  0  0
  6  8  2  0  0  0
  8  7  1  0  0  0
 13 15  1  0  0  0
M  END
> <minimizedAffinity>
-6.78027

$$$$
3GM0_B41_A_600


 15 16  0  0  0  0  0  0  0  0999 V2000
   -9.6332   -4.8813   17.6124 O   0  0  0  0  0  0  0  0  0  0  0  0
  -10.6505   -6.7767   16.8424 O   0  0  0  0  0  0  0  0  0  0  0  0
   -6.5974   -6.9200   17.4983 C   0  0  0  0  0  0  0  0  0  0  0  0
   -7.4104   -5.8475   17.9449 C   0  0  0  0  0  0  0  0  0  0  0  0
   -7.2063   -8.0883   16.9759 C   0  0  0  0  0  0  0  0  0  0  0  0
   -8.8167   -5.9499   17.8691 C   0  0  0  0  0  0  0  0  0  0  0  0
   -8.6182   -8.1757   16.8988 C   0  0  0  0  0  0  0  0  0  0  0  0
   -9.4117   -7.0974   17.3559 C   0  0  0  0  0  0  0  0  0  0  0  0
  -10.9477   -5.4545   17.3654 C   0  0  0  0  0  0  0  0  0  0  0  0
   -5.0858   -6.8095   17.6000 C   0  0  0  0  0  0  0  0  0  0  0  0
   -4.6180   -5.3710   17.9129 C   0  0  0  0  0  0  0  0  0  0  0  0
   -4.6655   -4.5097   16.6393 C   0  0  0  0  0  0  0  0  0  0  0  0
   -3.2363   -5.3921   18.4355 N   0  0  0  0  0  0  0  0  0  0  0  0
   -2.3742   -4.5288   17.6283 C   0  0  0  0  0  0  0  0  0  0  0  0
   -3.2364   -5.0601   19.4000 H   0  0  0  0  0  0  0  0  0  0  0  0
  1  9  1  0  0  0
  1  6  1  0  0  0
  9  2  1  0  0  0
  2  8  1  0  0  0
 14 13  1  0  0  0
 13 11  1  0  0  0
 12 11  1  0  0  0
 11 10  1  0  0  0
 10  3  1  0  0  0
  4  3  2  0  0  0
  3  5  1  0  0  0
  4  6  1  0  0  0
  5  7  2  0  0  0
  6  8  2  0  0  0
  8  7  1  0  0  0
 13 15  1  0  0  0
M  END
> <minimizedAffinity>
-6.74393

$$$$
3GM0_B41_A_600


 15 16  0  0  0  0  0  0  0  0999 V2000
   -2.0234   -5.1570   19.1917 O   0  0  0  0  0  0  0  0  0  0  0  0
   -0.7809   -4.2681   17.4928 O   0  0  0  0  0  0  0  0  0  0  0  0
   -4.7924   -4.8467   16.8207 C   0  0  0  0  0  0  0  0  0  0  0  0
   -4.2067   -4.9480   18.1081 C   0  0  0  0  0  0  0  0  0  0  0  0
   -4.0260   -4.3390   15.7421 C   0  0  0  0  0  0  0  0  0  0  0  0
   -2.8692   -4.5420   18.3081 C   0  0  0  0  0  0  0  0  0  0  0  0
   -2.6829   -3.9416   15.9544 C   0  0  0  0  0  0  0  0  0  0  0  0
   -2.1192   -4.0443   17.2479 C   0  0  0  0  0  0  0  0  0  0  0  0
   -0.7052   -4.6131   18.9018 C   0  0  0  0  0  0  0  0  0  0  0  0
   -6.2375   -5.2686   16.6177 C   0  0  0  0  0  0  0  0  0  0  0  0
   -6.7257   -6.2490   17.7070 C   0  0  0  0  0  0  0  0  0  0  0  0
   -6.2938   -7.6840   17.3602 C   0  0  0  0  0  0  0  0  0  0  0  0
   -8.1984   -6.1952   17.8110 N   0  0  0  0  0  0  0  0  0  0  0  0
   -8.6243   -4.8950   18.3292 C   0  0  0  0  0  0  0  0  0  0  0  0
   -8.6063   -6.3391   16.8873 H   0  0  0  0  0  0  0  0  0  0  0  0
  1  9  1  0  0  0
  1  6  1  0  0  0
  9  2  1  0  0  0
  2  8  1  0  0  0
 14 13  1  0  0  0
 13 11  1  0  0  0
 12 11  1  0  0  0
 11 10  1  0  0  0
 10  3  1  0  0  0
  4  3  2  0  0  0
  3  5  1  0  0  0
  4  6  1  0  0  0
  5  7  2  0  0  0
  6  8  2  0  0  0
  8  7  1  0  0  0
 13 15  1  0  0  0
M  END
> <minimizedAffinity>
-6.56002

$$$$
