1NKI_PPF_A_5001


 10  9  0  0  0  0  0  0  0  0999 V2000
   37.3323   37.6566   15.2861 O   0  0  0  0  0  0  0  0  0  0  0  0
   36.5816   38.4485   17.5063 O   0  0  0  0  0  0  0  0  0  0  0  0
   35.1377   36.8523   16.2219 O   0  0  0  0  0  0  0  0  0  0  0  0
   36.5234   37.3183   16.5056 P   0  0  0  0  0  0  0  0  0  0  0  0
   38.2167   37.9498   15.5558 H   0  0  0  0  0  0  0  0  0  0  0  0
   37.5056   38.7069   17.6489 H   0  0  0  0  0  0  0  0  0  0  0  0
   37.3831   35.8720   17.1319 C   0  0  0  0  0  0  0  0  0  0  0  0
   36.8142   34.7264   17.1246 O   0  0  0  0  0  0  0  0  0  0  0  0
   38.5885   35.9725   17.5510 O   0  0  0  0  0  0  0  0  0  0  0  0
   35.9322   34.6433   16.8196 H   0  0  0  0  0  0  0  0  0  0  0  0
  7  8  1  0  0  0
  7  9  2  0  0  0
  7  4  1  0  0  0
  1  4  1  0  0  0
  2  4  1  0  0  0
  3  4  2  0  0  0
  1  5  1  0  0  0
  2  6  1  0  0  0
  8 10  1  0  0  0
M  END
> <minimizedAffinity>
-5.42870

$$$$
1NKI_PPF_A_5001


 10  9  0  0  0  0  0  0  0  0999 V2000
   36.6826   38.3094   17.5019 O   0  0  0  0  0  0  0  0  0  0  0  0
   35.1150   36.9660   16.1387 O   0  0  0  0  0  0  0  0  0  0  0  0
   37.3306   37.6224   15.1680 O   0  0  0  0  0  0  0  0  0  0  0  0
   36.5661   37.2924   16.4027 P   0  0  0  0  0  0  0  0  0  0  0  0
   36.1586   38.0213   18.2657 H   0  0  0  0  0  0  0  0  0  0  0  0
   34.6721   36.7606   16.9769 H   0  0  0  0  0  0  0  0  0  0  0  0
   37.4149   35.8789   17.1133 C   0  0  0  0  0  0  0  0  0  0  0  0
   36.8503   34.7315   17.1423 O   0  0  0  0  0  0  0  0  0  0  0  0
   38.6090   36.0031   17.5574 O   0  0  0  0  0  0  0  0  0  0  0  0
   35.9764   34.6311   16.8194 H   0  0  0  0  0  0  0  0  0  0  0  0
  7  8  1  0  0  0
  7  9  2  0  0  0
  7  4  1  0  0  0
  1  4  1  0  0  0
  2  4  1  0  0  0
  3  4  2  0  0  0
  1  5  1  0  0  0
  2  6  1  0  0  0
  8 10  1  0  0  0
M  END
> <minimizedAffinity>
-5.36524

$$$$
1NKI_PPF_A_5001


 10  9  0  0  0  0  0  0  0  0999 V2000
   35.2985   36.9326   16.2610 O   0  0  0  0  0  0  0  0  0  0  0  0
   37.2938   37.5989   14.9591 O   0  0  0  0  0  0  0  0  0  0  0  0
   37.0690   38.3646   17.3351 O   0  0  0  0  0  0  0  0  0  0  0  0
   36.7516   37.3049   16.3381 P   0  0  0  0  0  0  0  0  0  0  0  0
   35.1771   36.2404   15.5924 H   0  0  0  0  0  0  0  0  0  0  0  0
   37.0560   36.8763   14.3573 H   0  0  0  0  0  0  0  0  0  0  0  0
   37.4843   35.8059   17.0011 C   0  0  0  0  0  0  0  0  0  0  0  0
   38.6904   35.8078   17.4270 O   0  0  0  0  0  0  0  0  0  0  0  0
   36.7880   34.7355   17.0903 O   0  0  0  0  0  0  0  0  0  0  0  0
   39.2076   36.5867   17.3658 H   0  0  0  0  0  0  0  0  0  0  0  0
  7  8  1  0  0  0
  7  9  2  0  0  0
  7  4  1  0  0  0
  1  4  1  0  0  0
  2  4  1  0  0  0
  3  4  2  0  0  0
  1  5  1  0  0  0
  2  6  1  0  0  0
  8 10  1  0  0  0
M  END
> <minimizedAffinity>
-5.31385

$$$$
1NKI_PPF_A_5001


 10  9  0  0  0  0  0  0  0  0999 V2000
   36.6811   36.5340   18.8593 O   0  0  0  0  0  0  0  0  0  0  0  0
   38.7778   36.1620   17.6001 O   0  0  0  0  0  0  0  0  0  0  0  0
   36.8219   34.6469   17.1986 O   0  0  0  0  0  0  0  0  0  0  0  0
   37.2747   36.0129   17.5817 P   0  0  0  0  0  0  0  0  0  0  0  0
   37.0250   37.4235   19.0364 H   0  0  0  0  0  0  0  0  0  0  0  0
   39.0098   37.0686   17.8555 H   0  0  0  0  0  0  0  0  0  0  0  0
   36.5439   37.1067   16.3598 C   0  0  0  0  0  0  0  0  0  0  0  0
   37.2813   37.8909   15.6689 O   0  0  0  0  0  0  0  0  0  0  0  0
   35.2826   37.0768   16.1434 O   0  0  0  0  0  0  0  0  0  0  0  0
   38.2055   37.9195   15.8204 H   0  0  0  0  0  0  0  0  0  0  0  0
  7  8  1  0  0  0
  7  9  2  0  0  0
  7  4  1  0  0  0
  1  4  1  0  0  0
  2  4  1  0  0  0
  3  4  2  0  0  0
  1  5  1  0  0  0
  2  6  1  0  0  0
  8 10  1  0  0  0
M  END
> <minimizedAffinity>
-5.13582

$$$$
1NKI_PPF_A_5001


 10  9  0  0  0  0  0  0  0  0999 V2000
   38.7497   35.6411   16.0724 O   0  0  0  0  0  0  0  0  0  0  0  0
   36.8928   34.7241   17.4256 O   0  0  0  0  0  0  0  0  0  0  0  0
   38.1134   36.7571   18.2377 O   0  0  0  0  0  0  0  0  0  0  0  0
   37.6635   35.9698   17.0564 P   0  0  0  0  0  0  0  0  0  0  0  0
   38.3763   35.1303   15.3372 H   0  0  0  0  0  0  0  0  0  0  0  0
   36.6283   34.2563   16.6181 H   0  0  0  0  0  0  0  0  0  0  0  0
   36.6336   37.0955   16.1101 C   0  0  0  0  0  0  0  0  0  0  0  0
   35.3595   37.0500   16.2135 O   0  0  0  0  0  0  0  0  0  0  0  0
   37.1718   37.9797   15.3571 O   0  0  0  0  0  0  0  0  0  0  0  0
   34.9567   36.4062   16.7623 H   0  0  0  0  0  0  0  0  0  0  0  0
  7  8  1  0  0  0
  7  9  2  0  0  0
  7  4  1  0  0  0
  1  4  1  0  0  0
  2  4  1  0  0  0
  3  4  2  0  0  0
  1  5  1  0  0  0
  2  6  1  0  0  0
  8 10  1  0  0  0
M  END
> <minimizedAffinity>
-5.09854

$$$$
1NKI_PPF_A_5001


 10  9  0  0  0  0  0  0  0  0999 V2000
   37.7758   38.4040   17.5616 O   0  0  0  0  0  0  0  0  0  0  0  0
   36.2289   36.5387   18.0595 O   0  0  0  0  0  0  0  0  0  0  0  0
   35.3498   38.5871   16.9134 O   0  0  0  0  0  0  0  0  0  0  0  0
   36.5223   37.6957   17.1336 P   0  0  0  0  0  0  0  0  0  0  0  0
   38.4877   37.7564   17.6830 H   0  0  0  0  0  0  0  0  0  0  0  0
   37.0269   35.9970   18.1631 H   0  0  0  0  0  0  0  0  0  0  0  0
   36.9707   37.1022   15.4996 C   0  0  0  0  0  0  0  0  0  0  0  0
   36.1253   37.1438   14.5406 O   0  0  0  0  0  0  0  0  0  0  0  0
   38.1553   36.6723   15.2749 O   0  0  0  0  0  0  0  0  0  0  0  0
   35.2559   37.4570   14.6958 H   0  0  0  0  0  0  0  0  0  0  0  0
  7  8  1  0  0  0
  7  9  2  0  0  0
  7  4  1  0  0  0
  1  4  1  0  0  0
  2  4  1  0  0  0
  3  4  2  0  0  0
  1  5  1  0  0  0
  2  6  1  0  0  0
  8 10  1  0  0  0
M  END
> <minimizedAffinity>
-5.08909

$$$$
1NKI_PPF_A_5001


 10  9  0  0  0  0  0  0  0  0999 V2000
   35.1101   36.9679   16.2243 O   0  0  0  0  0  0  0  0  0  0  0  0
   37.1559   35.6525   16.6771 O   0  0  0  0  0  0  0  0  0  0  0  0
   37.3238   37.7497   15.3147 O   0  0  0  0  0  0  0  0  0  0  0  0
   36.6006   37.0297   16.3994 P   0  0  0  0  0  0  0  0  0  0  0  0
   34.7169   36.4854   16.9682 H   0  0  0  0  0  0  0  0  0  0  0  0
   36.6460   35.2359   17.3894 H   0  0  0  0  0  0  0  0  0  0  0  0
   36.7612   38.0816   17.8455 C   0  0  0  0  0  0  0  0  0  0  0  0
   37.9117   38.4957   18.2208 O   0  0  0  0  0  0  0  0  0  0  0  0
   35.7183   38.4579   18.4852 O   0  0  0  0  0  0  0  0  0  0  0  0
   38.6806   38.2255   17.7586 H   0  0  0  0  0  0  0  0  0  0  0  0
  7  8  1  0  0  0
  7  9  2  0  0  0
  7  4  1  0  0  0
  1  4  1  0  0  0
  2  4  1  0  0  0
  3  4  2  0  0  0
  1  5  1  0  0  0
  2  6  1  0  0  0
  8 10  1  0  0  0
M  END
> <minimizedAffinity>
-4.95030

$$$$
1NKI_PPF_A_5001


 10  9  0  0  0  0  0  0  0  0999 V2000
   37.2925   37.8006   15.4168 O   0  0  0  0  0  0  0  0  0  0  0  0
   35.0778   36.9442   16.1109 O   0  0  0  0  0  0  0  0  0  0  0  0
   37.1408   35.6817   16.7682 O   0  0  0  0  0  0  0  0  0  0  0  0
   36.5472   37.0110   16.4547 P   0  0  0  0  0  0  0  0  0  0  0  0
   36.8438   38.6482   15.2715 H   0  0  0  0  0  0  0  0  0  0  0  0
   34.7500   37.8365   15.9175 H   0  0  0  0  0  0  0  0  0  0  0  0
   36.8087   37.9987   17.9311 C   0  0  0  0  0  0  0  0  0  0  0  0
   35.8351   38.2546   18.7202 O   0  0  0  0  0  0  0  0  0  0  0  0
   37.9823   38.4174   18.2244 O   0  0  0  0  0  0  0  0  0  0  0  0
   34.9727   37.9522   18.5136 H   0  0  0  0  0  0  0  0  0  0  0  0
  7  8  1  0  0  0
  7  9  2  0  0  0
  7  4  1  0  0  0
  1  4  1  0  0  0
  2  4  1  0  0  0
  3  4  2  0  0  0
  1  5  1  0  0  0
  2  6  1  0  0  0
  8 10  1  0  0  0
M  END
> <minimizedAffinity>
-4.89714

$$$$
1NKI_PPF_A_5001


 10  9  0  0  0  0  0  0  0  0999 V2000
   37.3242   35.8586   16.5119 O   0  0  0  0  0  0  0  0  0  0  0  0
   37.1083   37.9139   15.1520 O   0  0  0  0  0  0  0  0  0  0  0  0
   35.0635   36.9257   16.2124 O   0  0  0  0  0  0  0  0  0  0  0  0
   36.5370   37.1208   16.3039 P   0  0  0  0  0  0  0  0  0  0  0  0
   38.2693   36.0712   16.5604 H   0  0  0  0  0  0  0  0  0  0  0  0
   38.0669   38.0070   15.2675 H   0  0  0  0  0  0  0  0  0  0  0  0
   36.7983   37.9816   17.8577 C   0  0  0  0  0  0  0  0  0  0  0  0
   35.8150   38.2169   18.6412 O   0  0  0  0  0  0  0  0  0  0  0  0
   37.9793   38.3276   18.2098 O   0  0  0  0  0  0  0  0  0  0  0  0
   34.9471   37.9672   18.3918 H   0  0  0  0  0  0  0  0  0  0  0  0
  7  8  1  0  0  0
  7  9  2  0  0  0
  7  4  1  0  0  0
  1  4  1  0  0  0
  2  4  1  0  0  0
  3  4  2  0  0  0
  1  5  1  0  0  0
  2  6  1  0  0  0
  8 10  1  0  0  0
M  END
> <minimizedAffinity>
-4.85983

$$$$
1NKI_PPF_A_5001


 10  9  0  0  0  0  0  0  0  0999 V2000
   35.0756   37.7634   16.6066 O   0  0  0  0  0  0  0  0  0  0  0  0
   37.0830   37.7636   18.0525 O   0  0  0  0  0  0  0  0  0  0  0  0
   36.2207   35.5888   17.1531 O   0  0  0  0  0  0  0  0  0  0  0  0
   36.3595   37.0549   16.9316 P   0  0  0  0  0  0  0  0  0  0  0  0
   35.2516   38.7086   16.4777 H   0  0  0  0  0  0  0  0  0  0  0  0
   37.1417   38.7107   17.8515 H   0  0  0  0  0  0  0  0  0  0  0  0
   37.2694   37.2101   15.3917 C   0  0  0  0  0  0  0  0  0  0  0  0
   38.3233   36.5143   15.1889 O   0  0  0  0  0  0  0  0  0  0  0  0
   36.8433   37.9888   14.4694 O   0  0  0  0  0  0  0  0  0  0  0  0
   38.6426   35.9416   15.8583 H   0  0  0  0  0  0  0  0  0  0  0  0
  7  8  1  0  0  0
  7  9  2  0  0  0
  7  4  1  0  0  0
  1  4  1  0  0  0
  2  4  1  0  0  0
  3  4  2  0  0  0
  1  5  1  0  0  0
  2  6  1  0  0  0
  8 10  1  0  0  0
M  END
> <minimizedAffinity>
-4.64799

$$$$
