4Q99_HT4_A_302


 11 11  0  0  0  0  0  0  0  0999 V2000
   16.7035   -0.2103   15.5684 O   0  0  0  0  0  0  0  0  0  0  0  0
   15.9821    0.8341   16.0919 C   0  0  0  0  0  0  0  0  0  0  0  0
   15.3832    0.7520   17.3166 C   0  0  0  0  0  0  0  0  0  0  0  0
   14.6523    1.8500   17.8103 C   0  0  0  0  0  0  0  0  0  0  0  0
   14.5486    2.9987   17.0528 C   0  0  0  0  0  0  0  0  0  0  0  0
   13.8264    4.0918   17.5344 C   0  0  0  0  0  0  0  0  0  0  0  0
   15.1769    3.0650   15.7853 C   0  0  0  0  0  0  0  0  0  0  0  0
   15.8885    1.9781   15.3173 C   0  0  0  0  0  0  0  0  0  0  0  0
   16.7016    2.0507   13.6877 S   0  0  0  0  0  0  0  0  0  0  0  0
   17.1042   -0.1270   14.7255 H   0  0  0  0  0  0  0  0  0  0  0  0
   16.4708    3.2646   13.1196 H   0  0  0  0  0  0  0  0  0  0  0  0
  6  5  1  0  0  0
  5  7  2  0  0  0
  5  4  1  0  0  0
  7  8  1  0  0  0
  4  3  2  0  0  0
  8  9  1  0  0  0
  8  2  2  0  0  0
  3  2  1  0  0  0
  2  1  1  0  0  0
  1 10  1  0  0  0
  9 11  1  0  0  0
M  END
> <minimizedAffinity>
-5.89490

$$$$
4Q99_HT4_A_302


 11 11  0  0  0  0  0  0  0  0999 V2000
   15.3831   -0.0487   17.8650 O   0  0  0  0  0  0  0  0  0  0  0  0
   15.1910    1.2085   17.3475 C   0  0  0  0  0  0  0  0  0  0  0  0
   14.4901    2.1654   18.0246 C   0  0  0  0  0  0  0  0  0  0  0  0
   14.3185    3.4404   17.4514 C   0  0  0  0  0  0  0  0  0  0  0  0
   14.8605    3.7114   16.2117 C   0  0  0  0  0  0  0  0  0  0  0  0
   14.6956    4.9724   15.6362 C   0  0  0  0  0  0  0  0  0  0  0  0
   15.5844    2.7062   15.5251 C   0  0  0  0  0  0  0  0  0  0  0  0
   15.7414    1.4618   16.1025 C   0  0  0  0  0  0  0  0  0  0  0  0
   16.6707    0.1596   15.2290 S   0  0  0  0  0  0  0  0  0  0  0  0
   15.8682   -0.6862   17.3789 H   0  0  0  0  0  0  0  0  0  0  0  0
   17.1112    0.6400   14.0354 H   0  0  0  0  0  0  0  0  0  0  0  0
  6  5  1  0  0  0
  5  7  2  0  0  0
  5  4  1  0  0  0
  7  8  1  0  0  0
  4  3  2  0  0  0
  8  9  1  0  0  0
  8  2  2  0  0  0
  3  2  1  0  0  0
  2  1  1  0  0  0
  1 10  1  0  0  0
  9 11  1  0  0  0
M  END
> <minimizedAffinity>
-5.54676

$$$$
4Q99_HT4_A_302


 11 11  0  0  0  0  0  0  0  0999 V2000
   15.1021    5.2215   14.8228 O   0  0  0  0  0  0  0  0  0  0  0  0
   15.0848    4.0666   15.5652 C   0  0  0  0  0  0  0  0  0  0  0  0
   14.3716    3.9685   16.7258 C   0  0  0  0  0  0  0  0  0  0  0  0
   14.3862    2.7626   17.4533 C   0  0  0  0  0  0  0  0  0  0  0  0
   15.1201    1.6913   16.9867 C   0  0  0  0  0  0  0  0  0  0  0  0
   15.1402    0.4923   17.7011 C   0  0  0  0  0  0  0  0  0  0  0  0
   15.8531    1.8122   15.7809 C   0  0  0  0  0  0  0  0  0  0  0  0
   15.8275    3.0027   15.0818 C   0  0  0  0  0  0  0  0  0  0  0  0
   16.7666    3.1710   13.5287 S   0  0  0  0  0  0  0  0  0  0  0  0
   15.6001    5.2614   14.0301 H   0  0  0  0  0  0  0  0  0  0  0  0
   17.4115    2.0042   13.2601 H   0  0  0  0  0  0  0  0  0  0  0  0
  6  5  1  0  0  0
  5  7  2  0  0  0
  5  4  1  0  0  0
  7  8  1  0  0  0
  4  3  2  0  0  0
  8  9  1  0  0  0
  8  2  2  0  0  0
  3  2  1  0  0  0
  2  1  1  0  0  0
  1 10  1  0  0  0
  9 11  1  0  0  0
M  END
> <minimizedAffinity>
-5.47475

$$$$
4Q99_HT4_A_302


 11 11  0  0  0  0  0  0  0  0999 V2000
   16.1666    0.2190   16.7194 O   0  0  0  0  0  0  0  0  0  0  0  0
   15.8497    1.4196   16.1335 C   0  0  0  0  0  0  0  0  0  0  0  0
   16.2883    1.7473   14.8823 C   0  0  0  0  0  0  0  0  0  0  0  0
   15.9377    2.9919   14.3242 C   0  0  0  0  0  0  0  0  0  0  0  0
   15.1539    3.8686   15.0462 C   0  0  0  0  0  0  0  0  0  0  0  0
   14.8015    5.1042   14.5008 C   0  0  0  0  0  0  0  0  0  0  0  0
   14.7084    3.5109   16.3421 C   0  0  0  0  0  0  0  0  0  0  0  0
   15.0630    2.2866   16.8731 C   0  0  0  0  0  0  0  0  0  0  0  0
   14.4963    1.8144   18.5398 S   0  0  0  0  0  0  0  0  0  0  0  0
   15.8522    0.0199   17.5793 H   0  0  0  0  0  0  0  0  0  0  0  0
   13.7445    2.8190   19.0646 H   0  0  0  0  0  0  0  0  0  0  0  0
  6  5  1  0  0  0
  5  7  2  0  0  0
  5  4  1  0  0  0
  7  8  1  0  0  0
  4  3  2  0  0  0
  8  9  1  0  0  0
  8  2  2  0  0  0
  3  2  1  0  0  0
  2  1  1  0  0  0
  1 10  1  0  0  0
  9 11  1  0  0  0
M  END
> <minimizedAffinity>
-5.37055

$$$$
4Q99_HT4_A_302


 11 11  0  0  0  0  0  0  0  0999 V2000
   15.7643    5.0597   12.9630 O   0  0  0  0  0  0  0  0  0  0  0  0
   15.4582    4.4532   14.1561 C   0  0  0  0  0  0  0  0  0  0  0  0
   14.8599    5.1354   15.1770 C   0  0  0  0  0  0  0  0  0  0  0  0
   14.5669    4.4696   16.3829 C   0  0  0  0  0  0  0  0  0  0  0  0
   14.8861    3.1344   16.5220 C   0  0  0  0  0  0  0  0  0  0  0  0
   14.5992    2.4665   17.7136 C   0  0  0  0  0  0  0  0  0  0  0  0
   15.5060    2.4438   15.4520 C   0  0  0  0  0  0  0  0  0  0  0  0
   15.7865    3.1135   14.2775 C   0  0  0  0  0  0  0  0  0  0  0  0
   16.5840    2.2362   12.8931 S   0  0  0  0  0  0  0  0  0  0  0  0
   16.1748    4.5679   12.2792 H   0  0  0  0  0  0  0  0  0  0  0  0
   16.8077    0.9418   13.2454 H   0  0  0  0  0  0  0  0  0  0  0  0
  6  5  1  0  0  0
  5  7  2  0  0  0
  5  4  1  0  0  0
  7  8  1  0  0  0
  4  3  2  0  0  0
  8  9  1  0  0  0
  8  2  2  0  0  0
  3  2  1  0  0  0
  2  1  1  0  0  0
  1 10  1  0  0  0
  9 11  1  0  0  0
M  END
> <minimizedAffinity>
-5.25445

$$$$
4Q99_HT4_A_302


 11 11  0  0  0  0  0  0  0  0999 V2000
   13.7478    3.9333   17.3309 O   0  0  0  0  0  0  0  0  0  0  0  0
   14.6846    3.8722   16.3289 C   0  0  0  0  0  0  0  0  0  0  0  0
   15.0663    4.9833   15.6325 C   0  0  0  0  0  0  0  0  0  0  0  0
   16.0304    4.8696   14.6121 C   0  0  0  0  0  0  0  0  0  0  0  0
   16.5809    3.6371   14.3257 C   0  0  0  0  0  0  0  0  0  0  0  0
   17.5371    3.5151   13.3162 C   0  0  0  0  0  0  0  0  0  0  0  0
   16.1725    2.4963   15.0590 C   0  0  0  0  0  0  0  0  0  0  0  0
   15.2254    2.6271   16.0553 C   0  0  0  0  0  0  0  0  0  0  0  0
   14.6913    1.1668   17.0063 S   0  0  0  0  0  0  0  0  0  0  0  0
   13.5043    3.1553   17.7927 H   0  0  0  0  0  0  0  0  0  0  0  0
   15.3564    0.0675   16.5605 H   0  0  0  0  0  0  0  0  0  0  0  0
  6  5  1  0  0  0
  5  7  2  0  0  0
  5  4  1  0  0  0
  7  8  1  0  0  0
  4  3  2  0  0  0
  8  9  1  0  0  0
  8  2  2  0  0  0
  3  2  1  0  0  0
  2  1  1  0  0  0
  1 10  1  0  0  0
  9 11  1  0  0  0
M  END
> <minimizedAffinity>
-4.89582

$$$$
4Q99_HT4_A_302


 11 11  0  0  0  0  0  0  0  0999 V2000
   17.3402    4.7492   12.7943 O   0  0  0  0  0  0  0  0  0  0  0  0
   16.5307    4.3972   13.8459 C   0  0  0  0  0  0  0  0  0  0  0  0
   16.0399    5.3265   14.7182 C   0  0  0  0  0  0  0  0  0  0  0  0
   15.2143    4.9160   15.7827 C   0  0  0  0  0  0  0  0  0  0  0  0
   14.9081    3.5791   15.9344 C   0  0  0  0  0  0  0  0  0  0  0  0
   14.0904    3.1633   16.9865 C   0  0  0  0  0  0  0  0  0  0  0  0
   15.4263    2.6302   15.0196 C   0  0  0  0  0  0  0  0  0  0  0  0
   16.2349    3.0513   13.9825 C   0  0  0  0  0  0  0  0  0  0  0  0
   16.9081    1.8402   12.7985 S   0  0  0  0  0  0  0  0  0  0  0  0
   17.6630    4.0910   12.2108 H   0  0  0  0  0  0  0  0  0  0  0  0
   16.4832    0.5928   13.1349 H   0  0  0  0  0  0  0  0  0  0  0  0
  6  5  1  0  0  0
  5  7  2  0  0  0
  5  4  1  0  0  0
  7  8  1  0  0  0
  4  3  2  0  0  0
  8  9  1  0  0  0
  8  2  2  0  0  0
  3  2  1  0  0  0
  2  1  1  0  0  0
  1 10  1  0  0  0
  9 11  1  0  0  0
M  END
> <minimizedAffinity>
-4.58925

$$$$
4Q99_HT4_A_302


 11 11  0  0  0  0  0  0  0  0999 V2000
   17.0572    2.1144   13.5079 O   0  0  0  0  0  0  0  0  0  0  0  0
   16.2506    2.6664   14.4722 C   0  0  0  0  0  0  0  0  0  0  0  0
   15.7611    3.9365   14.3599 C   0  0  0  0  0  0  0  0  0  0  0  0
   14.9384    4.4592   15.3765 C   0  0  0  0  0  0  0  0  0  0  0  0
   14.6338    3.6833   16.4762 C   0  0  0  0  0  0  0  0  0  0  0  0
   13.8190    4.1932   17.4884 C   0  0  0  0  0  0  0  0  0  0  0  0
   15.1506    2.3684   16.5748 C   0  0  0  0  0  0  0  0  0  0  0  0
   15.9563    1.8733   15.5685 C   0  0  0  0  0  0  0  0  0  0  0  0
   16.6276    0.1827   15.6835 S   0  0  0  0  0  0  0  0  0  0  0  0
   17.3792    1.2405   13.6104 H   0  0  0  0  0  0  0  0  0  0  0  0
   16.2046   -0.3954   16.8395 H   0  0  0  0  0  0  0  0  0  0  0  0
  6  5  1  0  0  0
  5  7  2  0  0  0
  5  4  1  0  0  0
  7  8  1  0  0  0
  4  3  2  0  0  0
  8  9  1  0  0  0
  8  2  2  0  0  0
  3  2  1  0  0  0
  2  1  1  0  0  0
  1 10  1  0  0  0
  9 11  1  0  0  0
M  END
> <minimizedAffinity>
-4.45893

$$$$
4Q99_HT4_A_302


 11 11  0  0  0  0  0  0  0  0999 V2000
   17.8351    3.3271   12.4413 O   0  0  0  0  0  0  0  0  0  0  0  0
   17.8710    1.9948   12.1114 C   0  0  0  0  0  0  0  0  0  0  0  0
   16.8867    1.1311   12.4995 C   0  0  0  0  0  0  0  0  0  0  0  0
   16.9688   -0.2275   12.1377 C   0  0  0  0  0  0  0  0  0  0  0  0
   18.0421   -0.6735   11.3938 C   0  0  0  0  0  0  0  0  0  0  0  0
   18.1314   -2.0183   11.0305 C   0  0  0  0  0  0  0  0  0  0  0  0
   19.0527    0.2374   11.0004 C   0  0  0  0  0  0  0  0  0  0  0  0
   18.9557    1.5656   11.3654 C   0  0  0  0  0  0  0  0  0  0  0  0
   20.2497    2.7478   10.8654 S   0  0  0  0  0  0  0  0  0  0  0  0
   18.5238    3.8977   12.1618 H   0  0  0  0  0  0  0  0  0  0  0  0
   21.2040    2.0981   10.1465 H   0  0  0  0  0  0  0  0  0  0  0  0
  6  5  1  0  0  0
  5  7  2  0  0  0
  5  4  1  0  0  0
  7  8  1  0  0  0
  4  3  2  0  0  0
  8  9  1  0  0  0
  8  2  2  0  0  0
  3  2  1  0  0  0
  2  1  1  0  0  0
  1 10  1  0  0  0
  9 11  1  0  0  0
M  END
> <minimizedAffinity>
-4.33741

$$$$
4Q99_HT4_A_302


 11 11  0  0  0  0  0  0  0  0999 V2000
   19.1559    2.7291   12.2416 O   0  0  0  0  0  0  0  0  0  0  0  0
   18.0940    3.3453   12.8564 C   0  0  0  0  0  0  0  0  0  0  0  0
   18.1807    4.6227   13.3319 C   0  0  0  0  0  0  0  0  0  0  0  0
   17.0640    5.2114   13.9565 C   0  0  0  0  0  0  0  0  0  0  0  0
   15.8927    4.4927   14.0817 C   0  0  0  0  0  0  0  0  0  0  0  0
   14.7810    5.0684   14.6992 C   0  0  0  0  0  0  0  0  0  0  0  0
   15.8221    3.1694   13.5821 C   0  0  0  0  0  0  0  0  0  0  0  0
   16.9274    2.6086   12.9736 C   0  0  0  0  0  0  0  0  0  0  0  0
   16.8495    0.9064   12.3265 S   0  0  0  0  0  0  0  0  0  0  0  0
   19.0690    1.8517   11.9246 H   0  0  0  0  0  0  0  0  0  0  0  0
   15.6122    0.3904   12.5560 H   0  0  0  0  0  0  0  0  0  0  0  0
  6  5  1  0  0  0
  5  7  2  0  0  0
  5  4  1  0  0  0
  7  8  1  0  0  0
  4  3  2  0  0  0
  8  9  1  0  0  0
  8  2  2  0  0  0
  3  2  1  0  0  0
  2  1  1  0  0  0
  1 10  1  0  0  0
  9 11  1  0  0  0
M  END
> <minimizedAffinity>
-4.03136

$$$$
