3DND_LL2_A_351


 15 16  0  0  0  0  0  0  0  0999 V2000
    8.5559   10.5477    4.6411 C   0  0  0  0  0  0  0  0  0  0  0  0
    8.5904    8.9001    4.7775 S   0  0  0  0  0  0  0  0  0  0  0  0
    9.6481   10.9259    3.9002 C   0  0  0  0  0  0  0  0  0  0  0  0
   10.4723    9.9104    3.4435 N   0  0  0  0  0  0  0  0  0  0  0  0
   10.0319    8.6744    3.8370 C   0  0  0  0  0  0  0  0  0  0  0  0
   10.5764    7.4827    3.5822 N   0  0  0  0  0  0  0  0  0  0  0  0
   10.1534    6.6640    3.9288 H   0  0  0  0  0  0  0  0  0  0  0  0
   11.4009    7.4224    3.0478 H   0  0  0  0  0  0  0  0  0  0  0  0
    7.3904   11.3153    5.3085 C   0  0  0  0  0  0  0  0  0  0  0  0
    6.0890   10.9117    3.1170 C   0  0  0  0  0  0  0  0  0  0  0  0
    4.9161   10.6296    2.3891 C   0  0  0  0  0  0  0  0  0  0  0  0
    3.6882   10.4539    3.0496 C   0  0  0  0  0  0  0  0  0  0  0  0
    3.6960   10.5630    4.4491 C   0  0  0  0  0  0  0  0  0  0  0  0
    4.8657   10.8344    5.1976 C   0  0  0  0  0  0  0  0  0  0  0  0
    6.0865   11.0121    4.5270 C   0  0  0  0  0  0  0  0  0  0  0  0
 10 11  2  0  0  0
 10 15  1  0  0  0
 11 12  1  0  0  0
 12 13  2  0  0  0
 13 14  1  0  0  0
 14 15  2  0  0  0
 15  9  1  0  0  0
  9  1  1  0  0  0
  1  2  1  0  0  0
  1  3  2  0  0  0
  2  5  1  0  0  0
  3  4  1  0  0  0
  4  5  2  0  0  0
  5  6  1  0  0  0
  6  7  1  0  0  0
  6  8  1  0  0  0
M  END
> <minimizedAffinity>
-6.66308

$$$$
3DND_LL2_A_351


 15 16  0  0  0  0  0  0  0  0999 V2000
    9.7892    9.8007    3.7488 C   0  0  0  0  0  0  0  0  0  0  0  0
   10.9141   10.1357    2.5840 S   0  0  0  0  0  0  0  0  0  0  0  0
    9.6864    8.4351    3.8461 C   0  0  0  0  0  0  0  0  0  0  0  0
   10.5073    7.6884    3.0169 N   0  0  0  0  0  0  0  0  0  0  0  0
   11.2913    8.4807    2.2205 C   0  0  0  0  0  0  0  0  0  0  0  0
   12.1897    8.1044    1.3079 N   0  0  0  0  0  0  0  0  0  0  0  0
   12.6896    8.7836    0.8001 H   0  0  0  0  0  0  0  0  0  0  0  0
   12.3524    7.1476    1.1427 H   0  0  0  0  0  0  0  0  0  0  0  0
    9.1092   10.9853    4.4750 C   0  0  0  0  0  0  0  0  0  0  0  0
    6.6581   10.9884    5.2820 C   0  0  0  0  0  0  0  0  0  0  0  0
    5.2669   10.9331    5.0660 C   0  0  0  0  0  0  0  0  0  0  0  0
    4.7492   10.7835    3.7682 C   0  0  0  0  0  0  0  0  0  0  0  0
    5.6764   10.7036    2.7174 C   0  0  0  0  0  0  0  0  0  0  0  0
    7.0761   10.7687    2.9139 C   0  0  0  0  0  0  0  0  0  0  0  0
    7.5827   10.9144    4.2153 C   0  0  0  0  0  0  0  0  0  0  0  0
 10 11  2  0  0  0
 10 15  1  0  0  0
 11 12  1  0  0  0
 12 13  2  0  0  0
 13 14  1  0  0  0
 14 15  2  0  0  0
 15  9  1  0  0  0
  9  1  1  0  0  0
  1  2  1  0  0  0
  1  3  2  0  0  0
  2  5  1  0  0  0
  3  4  1  0  0  0
  4  5  2  0  0  0
  5  6  1  0  0  0
  6  7  1  0  0  0
  6  8  1  0  0  0
M  END
> <minimizedAffinity>
-6.46501

$$$$
3DND_LL2_A_351


 15 16  0  0  0  0  0  0  0  0999 V2000
   10.3813    9.1494    2.9310 C   0  0  0  0  0  0  0  0  0  0  0  0
   11.1044   10.5045    3.5439 S   0  0  0  0  0  0  0  0  0  0  0  0
   10.9609    8.8834    1.7153 C   0  0  0  0  0  0  0  0  0  0  0  0
   11.9703    9.7396    1.3062 N   0  0  0  0  0  0  0  0  0  0  0  0
   12.2048   10.7321    2.2208 C   0  0  0  0  0  0  0  0  0  0  0  0
   13.0956   11.7239    2.1546 N   0  0  0  0  0  0  0  0  0  0  0  0
   13.1609   12.3766    2.8888 H   0  0  0  0  0  0  0  0  0  0  0  0
   13.6872   11.8028    1.3717 H   0  0  0  0  0  0  0  0  0  0  0  0
    9.2743    8.4658    3.7679 C   0  0  0  0  0  0  0  0  0  0  0  0
    7.4397    9.7899    5.0091 C   0  0  0  0  0  0  0  0  0  0  0  0
    6.3121   10.6336    5.0490 C   0  0  0  0  0  0  0  0  0  0  0  0
    5.7201   11.0943    3.8607 C   0  0  0  0  0  0  0  0  0  0  0  0
    6.3086   10.6835    2.6544 C   0  0  0  0  0  0  0  0  0  0  0  0
    7.4476    9.8460    2.5949 C   0  0  0  0  0  0  0  0  0  0  0  0
    8.0288    9.3883    3.7884 C   0  0  0  0  0  0  0  0  0  0  0  0
 10 11  2  0  0  0
 10 15  1  0  0  0
 11 12  1  0  0  0
 12 13  2  0  0  0
 13 14  1  0  0  0
 14 15  2  0  0  0
 15  9  1  0  0  0
  9  1  1  0  0  0
  1  2  1  0  0  0
  1  3  2  0  0  0
  2  5  1  0  0  0
  3  4  1  0  0  0
  4  5  2  0  0  0
  5  6  1  0  0  0
  6  7  1  0  0  0
  6  8  1  0  0  0
M  END
> <minimizedAffinity>
-6.30233

$$$$
3DND_LL2_A_351


 15 16  0  0  0  0  0  0  0  0999 V2000
   10.3931    9.1645    2.9818 C   0  0  0  0  0  0  0  0  0  0  0  0
   11.1442   10.5113    3.5788 S   0  0  0  0  0  0  0  0  0  0  0  0
   10.9305    8.9031    1.7458 C   0  0  0  0  0  0  0  0  0  0  0  0
   11.9308    9.7561    1.3088 N   0  0  0  0  0  0  0  0  0  0  0  0
   12.2014   10.7413    2.2213 C   0  0  0  0  0  0  0  0  0  0  0  0
   13.0953   11.7284    2.1319 N   0  0  0  0  0  0  0  0  0  0  0  0
   13.1888   12.3759    2.8676 H   0  0  0  0  0  0  0  0  0  0  0  0
   13.6611   11.8091    1.3302 H   0  0  0  0  0  0  0  0  0  0  0  0
    9.3105    8.4817    3.8506 C   0  0  0  0  0  0  0  0  0  0  0  0
    7.4342    9.7821    2.6474 C   0  0  0  0  0  0  0  0  0  0  0  0
    6.2788   10.5883    2.6313 C   0  0  0  0  0  0  0  0  0  0  0  0
    5.6995   11.0333    3.8318 C   0  0  0  0  0  0  0  0  0  0  0  0
    6.3177   10.6300    5.0258 C   0  0  0  0  0  0  0  0  0  0  0  0
    7.4714    9.8115    5.0617 C   0  0  0  0  0  0  0  0  0  0  0  0
    8.0442    9.3757    3.8561 C   0  0  0  0  0  0  0  0  0  0  0  0
 10 11  2  0  0  0
 10 15  1  0  0  0
 11 12  1  0  0  0
 12 13  2  0  0  0
 13 14  1  0  0  0
 14 15  2  0  0  0
 15  9  1  0  0  0
  9  1  1  0  0  0
  1  2  1  0  0  0
  1  3  2  0  0  0
  2  5  1  0  0  0
  3  4  1  0  0  0
  4  5  2  0  0  0
  5  6  1  0  0  0
  6  7  1  0  0  0
  6  8  1  0  0  0
M  END
> <minimizedAffinity>
-6.30177

$$$$
3DND_LL2_A_351


 15 16  0  0  0  0  0  0  0  0999 V2000
    8.4061    9.6816    2.8599 C   0  0  0  0  0  0  0  0  0  0  0  0
    9.7939    9.3585    2.0209 S   0  0  0  0  0  0  0  0  0  0  0  0
    8.3281    8.7832    3.8950 C   0  0  0  0  0  0  0  0  0  0  0  0
    9.3696    7.8774    4.0130 N   0  0  0  0  0  0  0  0  0  0  0  0
   10.3132    8.0486    3.0348 C   0  0  0  0  0  0  0  0  0  0  0  0
   11.4391    7.3582    2.8419 N   0  0  0  0  0  0  0  0  0  0  0  0
   12.0348    7.5875    2.0923 H   0  0  0  0  0  0  0  0  0  0  0  0
   11.6738    6.6197    3.4491 H   0  0  0  0  0  0  0  0  0  0  0  0
    7.5130   10.8499    2.3795 C   0  0  0  0  0  0  0  0  0  0  0  0
    4.9550   10.5143    2.4372 C   0  0  0  0  0  0  0  0  0  0  0  0
    3.7151   10.4378    3.1021 C   0  0  0  0  0  0  0  0  0  0  0  0
    3.6333   10.6411    4.4902 C   0  0  0  0  0  0  0  0  0  0  0  0
    4.8334   10.9097    5.1669 C   0  0  0  0  0  0  0  0  0  0  0  0
    6.0889   10.9791    4.5180 C   0  0  0  0  0  0  0  0  0  0  0  0
    6.1586   10.7781    3.1300 C   0  0  0  0  0  0  0  0  0  0  0  0
 10 11  2  0  0  0
 10 15  1  0  0  0
 11 12  1  0  0  0
 12 13  2  0  0  0
 13 14  1  0  0  0
 14 15  2  0  0  0
 15  9  1  0  0  0
  9  1  1  0  0  0
  1  2  1  0  0  0
  1  3  2  0  0  0
  2  5  1  0  0  0
  3  4  1  0  0  0
  4  5  2  0  0  0
  5  6  1  0  0  0
  6  7  1  0  0  0
  6  8  1  0  0  0
M  END
> <minimizedAffinity>
-6.29936

$$$$
3DND_LL2_A_351


 15 16  0  0  0  0  0  0  0  0999 V2000
   10.3063    9.6541    2.5022 C   0  0  0  0  0  0  0  0  0  0  0  0
   10.3700    8.0694    2.9704 S   0  0  0  0  0  0  0  0  0  0  0  0
   11.5276   10.2176    2.7772 C   0  0  0  0  0  0  0  0  0  0  0  0
   12.4868    9.3852    3.3307 N   0  0  0  0  0  0  0  0  0  0  0  0
   12.0181    8.1111    3.5139 C   0  0  0  0  0  0  0  0  0  0  0  0
   12.6620    7.0581    4.0217 N   0  0  0  0  0  0  0  0  0  0  0  0
   12.2032    6.1904    4.0982 H   0  0  0  0  0  0  0  0  0  0  0  0
   13.5959    7.1490    4.3199 H   0  0  0  0  0  0  0  0  0  0  0  0
    8.9935   10.1830    1.8778 C   0  0  0  0  0  0  0  0  0  0  0  0
    6.6064   10.5343    2.7932 C   0  0  0  0  0  0  0  0  0  0  0  0
    5.6882   10.8283    3.8206 C   0  0  0  0  0  0  0  0  0  0  0  0
    6.1375   11.1341    5.1166 C   0  0  0  0  0  0  0  0  0  0  0  0
    7.5249   11.1211    5.3298 C   0  0  0  0  0  0  0  0  0  0  0  0
    8.4612   10.8173    4.3134 C   0  0  0  0  0  0  0  0  0  0  0  0
    8.0014   10.5169    3.0211 C   0  0  0  0  0  0  0  0  0  0  0  0
 10 11  2  0  0  0
 10 15  1  0  0  0
 11 12  1  0  0  0
 12 13  2  0  0  0
 13 14  1  0  0  0
 14 15  2  0  0  0
 15  9  1  0  0  0
  9  1  1  0  0  0
  1  2  1  0  0  0
  1  3  2  0  0  0
  2  5  1  0  0  0
  3  4  1  0  0  0
  4  5  2  0  0  0
  5  6  1  0  0  0
  6  7  1  0  0  0
  6  8  1  0  0  0
M  END
> <minimizedAffinity>
-6.27465

$$$$
3DND_LL2_A_351


 15 16  0  0  0  0  0  0  0  0999 V2000
    5.6083   11.0000    4.7867 C   0  0  0  0  0  0  0  0  0  0  0  0
    5.6034   10.9351    3.1344 S   0  0  0  0  0  0  0  0  0  0  0  0
    4.3329   10.7293    5.2166 C   0  0  0  0  0  0  0  0  0  0  0  0
    3.3902   10.4596    4.2379 N   0  0  0  0  0  0  0  0  0  0  0  0
    3.9244   10.5230    2.9781 C   0  0  0  0  0  0  0  0  0  0  0  0
    3.3117   10.3241    1.8091 N   0  0  0  0  0  0  0  0  0  0  0  0
    3.8183   10.4013    0.9684 H   0  0  0  0  0  0  0  0  0  0  0  0
    2.3533   10.1002    1.7874 H   0  0  0  0  0  0  0  0  0  0  0  0
    6.9409   11.3189    5.5049 C   0  0  0  0  0  0  0  0  0  0  0  0
    8.0335    9.0927    4.7911 C   0  0  0  0  0  0  0  0  0  0  0  0
    9.0497    8.3355    4.1755 C   0  0  0  0  0  0  0  0  0  0  0  0
   10.1581    8.9685    3.5878 C   0  0  0  0  0  0  0  0  0  0  0  0
   10.1919   10.3709    3.6380 C   0  0  0  0  0  0  0  0  0  0  0  0
    9.1753   11.1483    4.2416 C   0  0  0  0  0  0  0  0  0  0  0  0
    8.0740   10.5052    4.8293 C   0  0  0  0  0  0  0  0  0  0  0  0
 10 11  2  0  0  0
 10 15  1  0  0  0
 11 12  1  0  0  0
 12 13  2  0  0  0
 13 14  1  0  0  0
 14 15  2  0  0  0
 15  9  1  0  0  0
  9  1  1  0  0  0
  1  2  1  0  0  0
  1  3  2  0  0  0
  2  5  1  0  0  0
  3  4  1  0  0  0
  4  5  2  0  0  0
  5  6  1  0  0  0
  6  7  1  0  0  0
  6  8  1  0  0  0
M  END
> <minimizedAffinity>
-6.13626

$$$$
3DND_LL2_A_351


 15 16  0  0  0  0  0  0  0  0999 V2000
   10.4230    9.8738    3.2197 C   0  0  0  0  0  0  0  0  0  0  0  0
   11.6946    9.0573    2.5483 S   0  0  0  0  0  0  0  0  0  0  0  0
   10.9002   11.0728    3.6881 C   0  0  0  0  0  0  0  0  0  0  0  0
   12.2478   11.3264    3.4903 N   0  0  0  0  0  0  0  0  0  0  0  0
   12.8766   10.2928    2.8478 C   0  0  0  0  0  0  0  0  0  0  0  0
   14.1615   10.1948    2.4999 N   0  0  0  0  0  0  0  0  0  0  0  0
   14.4861    9.3885    2.0376 H   0  0  0  0  0  0  0  0  0  0  0  0
   14.7845   10.9288    2.7055 H   0  0  0  0  0  0  0  0  0  0  0  0
    9.0279    9.2056    3.1981 C   0  0  0  0  0  0  0  0  0  0  0  0
    6.7674   10.3561    2.7230 C   0  0  0  0  0  0  0  0  0  0  0  0
    5.8980   11.1339    1.9330 C   0  0  0  0  0  0  0  0  0  0  0  0
    6.3140   11.6282    0.6850 C   0  0  0  0  0  0  0  0  0  0  0  0
    7.6221   11.3187    0.2807 C   0  0  0  0  0  0  0  0  0  0  0  0
    8.5129   10.5488    1.0655 C   0  0  0  0  0  0  0  0  0  0  0  0
    8.0855   10.0566    2.3092 C   0  0  0  0  0  0  0  0  0  0  0  0
 10 11  2  0  0  0
 10 15  1  0  0  0
 11 12  1  0  0  0
 12 13  2  0  0  0
 13 14  1  0  0  0
 14 15  2  0  0  0
 15  9  1  0  0  0
  9  1  1  0  0  0
  1  2  1  0  0  0
  1  3  2  0  0  0
  2  5  1  0  0  0
  3  4  1  0  0  0
  4  5  2  0  0  0
  5  6  1  0  0  0
  6  7  1  0  0  0
  6  8  1  0  0  0
M  END
> <minimizedAffinity>
-5.65147

$$$$
3DND_LL2_A_351


 15 16  0  0  0  0  0  0  0  0999 V2000
    7.6308   10.1826    3.7290 C   0  0  0  0  0  0  0  0  0  0  0  0
    8.2891   10.9826    5.0179 S   0  0  0  0  0  0  0  0  0  0  0  0
    8.0372    8.8733    3.8015 C   0  0  0  0  0  0  0  0  0  0  0  0
    8.8391    8.5291    4.8776 N   0  0  0  0  0  0  0  0  0  0  0  0
    9.0920    9.5999    5.6936 C   0  0  0  0  0  0  0  0  0  0  0  0
    9.8227    9.6344    6.8100 N   0  0  0  0  0  0  0  0  0  0  0  0
    9.9243   10.4788    7.3059 H   0  0  0  0  0  0  0  0  0  0  0  0
   10.2601    8.8155    7.1376 H   0  0  0  0  0  0  0  0  0  0  0  0
    6.7367   10.9790    2.7495 C   0  0  0  0  0  0  0  0  0  0  0  0
    6.7411   11.5164    0.2255 C   0  0  0  0  0  0  0  0  0  0  0  0
    7.3195   11.4989   -1.0591 C   0  0  0  0  0  0  0  0  0  0  0  0
    8.5656   10.8861   -1.2751 C   0  0  0  0  0  0  0  0  0  0  0  0
    9.1953   10.3118   -0.1597 C   0  0  0  0  0  0  0  0  0  0  0  0
    8.6352   10.3297    1.1396 C   0  0  0  0  0  0  0  0  0  0  0  0
    7.3877   10.9413    1.3433 C   0  0  0  0  0  0  0  0  0  0  0  0
 10 11  2  0  0  0
 10 15  1  0  0  0
 11 12  1  0  0  0
 12 13  2  0  0  0
 13 14  1  0  0  0
 14 15  2  0  0  0
 15  9  1  0  0  0
  9  1  1  0  0  0
  1  2  1  0  0  0
  1  3  2  0  0  0
  2  5  1  0  0  0
  3  4  1  0  0  0
  4  5  2  0  0  0
  5  6  1  0  0  0
  6  7  1  0  0  0
  6  8  1  0  0  0
M  END
> <minimizedAffinity>
-5.58750

$$$$
3DND_LL2_A_351


 15 16  0  0  0  0  0  0  0  0999 V2000
    7.1373   10.8441    2.9846 C   0  0  0  0  0  0  0  0  0  0  0  0
    5.5927   10.7007    3.5576 S   0  0  0  0  0  0  0  0  0  0  0  0
    7.0730   10.8431    1.6132 C   0  0  0  0  0  0  0  0  0  0  0  0
    5.8112   10.7487    1.0492 N   0  0  0  0  0  0  0  0  0  0  0  0
    4.8283   10.6634    1.9995 C   0  0  0  0  0  0  0  0  0  0  0  0
    3.5100   10.5587    1.8187 N   0  0  0  0  0  0  0  0  0  0  0  0
    2.9091   10.5052    2.5968 H   0  0  0  0  0  0  0  0  0  0  0  0
    3.1385   10.5350    0.9073 H   0  0  0  0  0  0  0  0  0  0  0  0
    8.2924   10.9551    4.0075 C   0  0  0  0  0  0  0  0  0  0  0  0
   10.6224   10.5846    2.9621 C   0  0  0  0  0  0  0  0  0  0  0  0
   11.6923    9.7707    2.5401 C   0  0  0  0  0  0  0  0  0  0  0  0
   11.6232    8.3731    2.6697 C   0  0  0  0  0  0  0  0  0  0  0  0
   10.4557    7.8429    3.2408 C   0  0  0  0  0  0  0  0  0  0  0  0
    9.3762    8.6451    3.6806 C   0  0  0  0  0  0  0  0  0  0  0  0
    9.4543   10.0403    3.5429 C   0  0  0  0  0  0  0  0  0  0  0  0
 10 11  2  0  0  0
 10 15  1  0  0  0
 11 12  1  0  0  0
 12 13  2  0  0  0
 13 14  1  0  0  0
 14 15  2  0  0  0
 15  9  1  0  0  0
  9  1  1  0  0  0
  1  2  1  0  0  0
  1  3  2  0  0  0
  2  5  1  0  0  0
  3  4  1  0  0  0
  4  5  2  0  0  0
  5  6  1  0  0  0
  6  7  1  0  0  0
  6  8  1  0  0  0
M  END
> <minimizedAffinity>
-5.54949

$$$$
