5O1D_9GW_A_402


 22 23  0  0  0  0  0  0  0  0999 V2000
   91.1531   93.6099  -46.1238 C   0  0  0  0  0  0  0  0  0  0  0  0
   91.0032   96.2439  -43.5928 O   0  0  0  0  0  0  0  0  0  0  0  0
   91.7681   92.5578  -45.4315 C   0  0  0  0  0  0  0  0  0  0  0  0
   92.1275   92.7629  -44.0910 C   0  0  0  0  0  0  0  0  0  0  0  0
   91.8717   94.0010  -43.4726 C   0  0  0  0  0  0  0  0  0  0  0  0
   91.2544   95.0363  -44.1909 C   0  0  0  0  0  0  0  0  0  0  0  0
   90.8894   94.8499  -45.5226 C   0  0  0  0  0  0  0  0  0  0  0  0
   92.3686   94.3687  -41.4417 I   0  0  0  0  0  0  0  0  0  0  0  0
   90.5907   96.9306  -44.0788 H   0  0  0  0  0  0  0  0  0  0  0  0
   93.2326   90.1519  -41.8514 C   0  0  0  0  0  0  0  0  0  0  0  0
   92.7755   91.7986  -43.2900 N   0  0  0  0  0  0  0  0  0  0  0  0
   92.2248   90.7919  -42.5341 C   0  0  0  0  0  0  0  0  0  0  0  0
   94.4474   90.7941  -42.1814 C   0  0  0  0  0  0  0  0  0  0  0  0
   94.1377   91.8125  -43.0499 C   0  0  0  0  0  0  0  0  0  0  0  0
   90.6478   97.1209  -46.1551 O   0  0  0  0  0  0  0  0  0  0  0  0
   89.3108   95.5528  -47.1181 O   0  0  0  0  0  0  0  0  0  0  0  0
   90.2302   95.9285  -46.3332 C   0  0  0  0  0  0  0  0  0  0  0  0
   89.0818   94.6457  -47.1714 H   0  0  0  0  0  0  0  0  0  0  0  0
   92.0302   91.3328  -45.9853 O   0  0  0  0  0  0  0  0  0  0  0  0
   91.0848   90.8749  -46.9562 C   0  0  0  0  0  0  0  0  0  0  0  0
   91.1739   90.3605  -49.4166 C   0  0  0  0  0  0  0  0  0  0  0  0
   91.8456   90.1710  -48.0675 C   0  0  0  0  0  0  0  0  0  0  0  0
 21 22  1  0  0  0
 22 20  1  0  0  0
 20 19  1  0  0  0
 15 17  2  0  0  0
 19  3  1  0  0  0
  1  3  2  0  0  0
  1  7  1  0  0  0
 17  7  1  0  0  0
 17 16  1  0  0  0
  3  4  1  0  0  0
  7  6  2  0  0  0
  4 11  1  0  0  0
  4  5  2  0  0  0
  6  5  1  0  0  0
  6  2  1  0  0  0
 11 14  1  0  0  0
 11 12  1  0  0  0
  5  8  1  0  0  0
 14 13  2  0  0  0
 12 10  2  0  0  0
 13 10  1  0  0  0
  2  9  1  0  0  0
 16 18  1  0  0  0
M  END
> <minimizedAffinity>
-6.48179

$$$$
5O1D_9GW_A_402


 22 23  0  0  0  0  0  0  0  0999 V2000
   90.9903   95.6405  -45.8781 C   0  0  0  0  0  0  0  0  0  0  0  0
   90.8392   97.5090  -42.7391 O   0  0  0  0  0  0  0  0  0  0  0  0
   91.5110   94.4045  -45.4712 C   0  0  0  0  0  0  0  0  0  0  0  0
   91.8067   94.2214  -44.1121 C   0  0  0  0  0  0  0  0  0  0  0  0
   91.5821   95.2638  -43.1936 C   0  0  0  0  0  0  0  0  0  0  0  0
   91.0597   96.4907  -43.6300 C   0  0  0  0  0  0  0  0  0  0  0  0
   90.7588   96.6899  -44.9759 C   0  0  0  0  0  0  0  0  0  0  0  0
   91.9857   95.0441  -41.1210 I   0  0  0  0  0  0  0  0  0  0  0  0
   90.4901   98.3255  -43.0379 H   0  0  0  0  0  0  0  0  0  0  0  0
   93.7443   91.4009  -42.9523 C   0  0  0  0  0  0  0  0  0  0  0  0
   92.3590   93.0386  -43.5757 N   0  0  0  0  0  0  0  0  0  0  0  0
   93.6798   92.6804  -43.4523 C   0  0  0  0  0  0  0  0  0  0  0  0
   92.4189   90.9434  -42.7759 C   0  0  0  0  0  0  0  0  0  0  0  0
   91.5883   91.9590  -43.1836 C   0  0  0  0  0  0  0  0  0  0  0  0
   90.9543   98.6723  -46.2596 O   0  0  0  0  0  0  0  0  0  0  0  0
   89.0325   98.2818  -45.1071 O   0  0  0  0  0  0  0  0  0  0  0  0
   90.2019   97.9857  -45.4911 C   0  0  0  0  0  0  0  0  0  0  0  0
   88.5652   97.7019  -44.5385 H   0  0  0  0  0  0  0  0  0  0  0  0
   91.7390   93.3570  -46.3237 O   0  0  0  0  0  0  0  0  0  0  0  0
   90.5737   92.6727  -46.7926 C   0  0  0  0  0  0  0  0  0  0  0  0
   92.2347   90.8527  -47.2970 C   0  0  0  0  0  0  0  0  0  0  0  0
   90.8521   91.1792  -46.7597 C   0  0  0  0  0  0  0  0  0  0  0  0
 21 22  1  0  0  0
 22 20  1  0  0  0
 20 19  1  0  0  0
 15 17  2  0  0  0
 19  3  1  0  0  0
  1  3  2  0  0  0
  1  7  1  0  0  0
 17  7  1  0  0  0
 17 16  1  0  0  0
  3  4  1  0  0  0
  7  6  2  0  0  0
  4 11  1  0  0  0
  4  5  2  0  0  0
  6  5  1  0  0  0
  6  2  1  0  0  0
 11 14  1  0  0  0
 11 12  1  0  0  0
  5  8  1  0  0  0
 14 13  2  0  0  0
 12 10  2  0  0  0
 13 10  1  0  0  0
  2  9  1  0  0  0
 16 18  1  0  0  0
M  END
> <minimizedAffinity>
-6.19603

$$$$
5O1D_9GW_A_402


 22 23  0  0  0  0  0  0  0  0999 V2000
   91.0620   94.2639  -45.6683 C   0  0  0  0  0  0  0  0  0  0  0  0
   92.1227   92.9778  -42.4145 O   0  0  0  0  0  0  0  0  0  0  0  0
   90.8989   95.6328  -45.4156 C   0  0  0  0  0  0  0  0  0  0  0  0
   91.1580   96.1064  -44.1206 C   0  0  0  0  0  0  0  0  0  0  0  0
   91.5684   95.2153  -43.1115 C   0  0  0  0  0  0  0  0  0  0  0  0
   91.7232   93.8496  -43.3940 C   0  0  0  0  0  0  0  0  0  0  0  0
   91.4717   93.3618  -44.6748 C   0  0  0  0  0  0  0  0  0  0  0  0
   91.9990   95.8701  -41.1386 I   0  0  0  0  0  0  0  0  0  0  0  0
   92.2239   92.0672  -42.6105 H   0  0  0  0  0  0  0  0  0  0  0  0
   90.1846   99.4254  -43.0758 C   0  0  0  0  0  0  0  0  0  0  0  0
   91.0072   97.4531  -43.7266 N   0  0  0  0  0  0  0  0  0  0  0  0
   89.8902   98.0928  -43.2459 C   0  0  0  0  0  0  0  0  0  0  0  0
   91.5241   99.6223  -43.4809 C   0  0  0  0  0  0  0  0  0  0  0  0
   92.0001   98.4015  -43.8938 C   0  0  0  0  0  0  0  0  0  0  0  0
   92.0784   91.6382  -46.1836 O   0  0  0  0  0  0  0  0  0  0  0  0
   91.2667   91.0824  -44.1327 O   0  0  0  0  0  0  0  0  0  0  0  0
   91.6196   91.9090  -45.0243 C   0  0  0  0  0  0  0  0  0  0  0  0
   90.9412   91.3912  -43.3101 H   0  0  0  0  0  0  0  0  0  0  0  0
   90.5107   96.5410  -46.3646 O   0  0  0  0  0  0  0  0  0  0  0  0
   89.2266   96.3145  -46.9526 C   0  0  0  0  0  0  0  0  0  0  0  0
   87.1970   96.9977  -45.6335 C   0  0  0  0  0  0  0  0  0  0  0  0
   88.3115   97.4608  -46.5558 C   0  0  0  0  0  0  0  0  0  0  0  0
 21 22  1  0  0  0
 22 20  1  0  0  0
 20 19  1  0  0  0
 15 17  2  0  0  0
 19  3  1  0  0  0
  1  3  2  0  0  0
  1  7  1  0  0  0
 17  7  1  0  0  0
 17 16  1  0  0  0
  3  4  1  0  0  0
  7  6  2  0  0  0
  4 11  1  0  0  0
  4  5  2  0  0  0
  6  5  1  0  0  0
  6  2  1  0  0  0
 11 14  1  0  0  0
 11 12  1  0  0  0
  5  8  1  0  0  0
 14 13  2  0  0  0
 12 10  2  0  0  0
 13 10  1  0  0  0
  2  9  1  0  0  0
 16 18  1  0  0  0
M  END
> <minimizedAffinity>
-5.57219

$$$$
5O1D_9GW_A_402


 22 23  0  0  0  0  0  0  0  0999 V2000
   92.7085   91.8255  -44.0195 C   0  0  0  0  0  0  0  0  0  0  0  0
   93.0540   93.3321  -40.7062 O   0  0  0  0  0  0  0  0  0  0  0  0
   92.1247   92.8594  -44.7641 C   0  0  0  0  0  0  0  0  0  0  0  0
   91.8540   94.0748  -44.1177 C   0  0  0  0  0  0  0  0  0  0  0  0
   92.1650   94.2344  -42.7544 C   0  0  0  0  0  0  0  0  0  0  0  0
   92.7492   93.1813  -42.0342 C   0  0  0  0  0  0  0  0  0  0  0  0
   93.0265   91.9678  -42.6603 C   0  0  0  0  0  0  0  0  0  0  0  0
   91.8030   96.0541  -41.7228 I   0  0  0  0  0  0  0  0  0  0  0  0
   93.4440   92.6244  -40.2318 H   0  0  0  0  0  0  0  0  0  0  0  0
   89.8358   96.5399  -45.8220 C   0  0  0  0  0  0  0  0  0  0  0  0
   91.2453   95.1841  -44.7426 N   0  0  0  0  0  0  0  0  0  0  0  0
   89.9598   95.3146  -45.2099 C   0  0  0  0  0  0  0  0  0  0  0  0
   91.0913   97.1841  -45.7472 C   0  0  0  0  0  0  0  0  0  0  0  0
   91.9435   96.3240  -45.0979 C   0  0  0  0  0  0  0  0  0  0  0  0
   94.8364   90.9731  -41.4982 O   0  0  0  0  0  0  0  0  0  0  0  0
   92.9303   89.7738  -41.8185 O   0  0  0  0  0  0  0  0  0  0  0  0
   93.6471   90.8112  -41.9310 C   0  0  0  0  0  0  0  0  0  0  0  0
   92.0642   89.7617  -42.1757 H   0  0  0  0  0  0  0  0  0  0  0  0
   91.8117   92.7569  -46.0936 O   0  0  0  0  0  0  0  0  0  0  0  0
   90.9492   91.6719  -46.4468 C   0  0  0  0  0  0  0  0  0  0  0  0
   92.8674   90.4550  -47.5265 C   0  0  0  0  0  0  0  0  0  0  0  0
   91.4784   91.0376  -47.7222 C   0  0  0  0  0  0  0  0  0  0  0  0
 21 22  1  0  0  0
 22 20  1  0  0  0
 20 19  1  0  0  0
 15 17  2  0  0  0
 19  3  1  0  0  0
  1  3  2  0  0  0
  1  7  1  0  0  0
 17  7  1  0  0  0
 17 16  1  0  0  0
  3  4  1  0  0  0
  7  6  2  0  0  0
  4 11  1  0  0  0
  4  5  2  0  0  0
  6  5  1  0  0  0
  6  2  1  0  0  0
 11 14  1  0  0  0
 11 12  1  0  0  0
  5  8  1  0  0  0
 14 13  2  0  0  0
 12 10  2  0  0  0
 13 10  1  0  0  0
  2  9  1  0  0  0
 16 18  1  0  0  0
M  END
> <minimizedAffinity>
-5.39594

$$$$
5O1D_9GW_A_402


 22 23  0  0  0  0  0  0  0  0999 V2000
   91.4353   95.4592  -43.8834 C   0  0  0  0  0  0  0  0  0  0  0  0
   92.1052   97.1791  -40.7274 O   0  0  0  0  0  0  0  0  0  0  0  0
   91.2061   96.5231  -44.7666 C   0  0  0  0  0  0  0  0  0  0  0  0
   91.2855   97.8318  -44.2674 C   0  0  0  0  0  0  0  0  0  0  0  0
   91.5867   98.0533  -42.9106 C   0  0  0  0  0  0  0  0  0  0  0  0
   91.8114   96.9684  -42.0497 C   0  0  0  0  0  0  0  0  0  0  0  0
   91.7382   95.6618  -42.5284 C   0  0  0  0  0  0  0  0  0  0  0  0
   91.7450  100.0078  -42.0973 I   0  0  0  0  0  0  0  0  0  0  0  0
   92.2540   96.4496  -40.1585 H   0  0  0  0  0  0  0  0  0  0  0  0
   90.1017  100.6806  -46.1483 C   0  0  0  0  0  0  0  0  0  0  0  0
   91.0509   98.9885  -45.0412 N   0  0  0  0  0  0  0  0  0  0  0  0
   89.8714   99.6597  -45.2561 C   0  0  0  0  0  0  0  0  0  0  0  0
   91.4662  100.6304  -46.5125 C   0  0  0  0  0  0  0  0  0  0  0  0
   92.0218   99.5722  -45.8350 C   0  0  0  0  0  0  0  0  0  0  0  0
   92.7534   93.5665  -42.0871 O   0  0  0  0  0  0  0  0  0  0  0  0
   91.3489   94.4665  -40.5406 O   0  0  0  0  0  0  0  0  0  0  0  0
   91.9669   94.4690  -41.6455 C   0  0  0  0  0  0  0  0  0  0  0  0
   90.7924   95.1853  -40.3135 H   0  0  0  0  0  0  0  0  0  0  0  0
   90.9188   96.3603  -46.0959 O   0  0  0  0  0  0  0  0  0  0  0  0
   89.6959   95.6782  -46.3881 C   0  0  0  0  0  0  0  0  0  0  0  0
   87.5213   96.8936  -46.0419 C   0  0  0  0  0  0  0  0  0  0  0  0
   88.7129   96.6857  -46.9605 C   0  0  0  0  0  0  0  0  0  0  0  0
 21 22  1  0  0  0
 22 20  1  0  0  0
 20 19  1  0  0  0
 15 17  2  0  0  0
 19  3  1  0  0  0
  1  3  2  0  0  0
  1  7  1  0  0  0
 17  7  1  0  0  0
 17 16  1  0  0  0
  3  4  1  0  0  0
  7  6  2  0  0  0
  4 11  1  0  0  0
  4  5  2  0  0  0
  6  5  1  0  0  0
  6  2  1  0  0  0
 11 14  1  0  0  0
 11 12  1  0  0  0
  5  8  1  0  0  0
 14 13  2  0  0  0
 12 10  2  0  0  0
 13 10  1  0  0  0
  2  9  1  0  0  0
 16 18  1  0  0  0
M  END
> <minimizedAffinity>
-5.35767

$$$$
5O1D_9GW_A_402


 22 23  0  0  0  0  0  0  0  0999 V2000
   91.3155   97.1692  -43.8615 C   0  0  0  0  0  0  0  0  0  0  0  0
   89.5840   99.7336  -41.9139 O   0  0  0  0  0  0  0  0  0  0  0  0
   90.4549   96.9831  -44.9519 C   0  0  0  0  0  0  0  0  0  0  0  0
   89.2793   97.7464  -45.0103 C   0  0  0  0  0  0  0  0  0  0  0  0
   88.9854   98.6701  -43.9900 C   0  0  0  0  0  0  0  0  0  0  0  0
   89.8660   98.8351  -42.9101 C   0  0  0  0  0  0  0  0  0  0  0  0
   91.0389   98.0866  -42.8364 C   0  0  0  0  0  0  0  0  0  0  0  0
   87.2363   99.8726  -44.0298 I   0  0  0  0  0  0  0  0  0  0  0  0
   90.1768   99.8383  -41.1959 H   0  0  0  0  0  0  0  0  0  0  0  0
   86.6180   96.9871  -47.3331 C   0  0  0  0  0  0  0  0  0  0  0  0
   88.3166   97.6378  -46.0364 N   0  0  0  0  0  0  0  0  0  0  0  0
   87.2226   96.8097  -46.1107 C   0  0  0  0  0  0  0  0  0  0  0  0
   87.3721   97.9448  -48.0481 C   0  0  0  0  0  0  0  0  0  0  0  0
   88.4192   98.3139  -47.2388 C   0  0  0  0  0  0  0  0  0  0  0  0
   92.4501   97.1452  -41.1816 O   0  0  0  0  0  0  0  0  0  0  0  0
   92.2983   99.4083  -41.3536 O   0  0  0  0  0  0  0  0  0  0  0  0
   92.0099   98.2251  -41.6994 C   0  0  0  0  0  0  0  0  0  0  0  0
   91.9154  100.1347  -41.8047 H   0  0  0  0  0  0  0  0  0  0  0  0
   90.7001   96.1043  -45.9735 O   0  0  0  0  0  0  0  0  0  0  0  0
   91.7008   95.1153  -45.7155 C   0  0  0  0  0  0  0  0  0  0  0  0
   91.3721   93.2518  -44.0586 C   0  0  0  0  0  0  0  0  0  0  0  0
   91.0041   93.7958  -45.4281 C   0  0  0  0  0  0  0  0  0  0  0  0
 21 22  1  0  0  0
 22 20  1  0  0  0
 20 19  1  0  0  0
 15 17  2  0  0  0
 19  3  1  0  0  0
  1  3  2  0  0  0
  1  7  1  0  0  0
 17  7  1  0  0  0
 17 16  1  0  0  0
  3  4  1  0  0  0
  7  6  2  0  0  0
  4 11  1  0  0  0
  4  5  2  0  0  0
  6  5  1  0  0  0
  6  2  1  0  0  0
 11 14  1  0  0  0
 11 12  1  0  0  0
  5  8  1  0  0  0
 14 13  2  0  0  0
 12 10  2  0  0  0
 13 10  1  0  0  0
  2  9  1  0  0  0
 16 18  1  0  0  0
M  END
> <minimizedAffinity>
-5.30669

$$$$
5O1D_9GW_A_402


 22 23  0  0  0  0  0  0  0  0999 V2000
   91.7428   92.3197  -44.4219 C   0  0  0  0  0  0  0  0  0  0  0  0
   92.4378   93.4759  -41.0238 O   0  0  0  0  0  0  0  0  0  0  0  0
   91.3898   93.5056  -45.0802 C   0  0  0  0  0  0  0  0  0  0  0  0
   91.3949   94.7014  -44.3465 C   0  0  0  0  0  0  0  0  0  0  0  0
   91.7461   94.6924  -42.9836 C   0  0  0  0  0  0  0  0  0  0  0  0
   92.0950   93.4896  -42.3510 C   0  0  0  0  0  0  0  0  0  0  0  0
   92.0968   92.2927  -43.0644 C   0  0  0  0  0  0  0  0  0  0  0  0
   91.7967   96.4690  -41.8227 I   0  0  0  0  0  0  0  0  0  0  0  0
   92.6696   92.6688  -40.6081 H   0  0  0  0  0  0  0  0  0  0  0  0
   91.0445   98.0727  -45.5979 C   0  0  0  0  0  0  0  0  0  0  0  0
   91.0351   95.9574  -44.8798 N   0  0  0  0  0  0  0  0  0  0  0  0
   91.8391   97.0295  -45.1836 C   0  0  0  0  0  0  0  0  0  0  0  0
   89.7011   97.6390  -45.5325 C   0  0  0  0  0  0  0  0  0  0  0  0
   89.7212   96.3451  -45.0708 C   0  0  0  0  0  0  0  0  0  0  0  0
   93.6188   90.8937  -41.9058 O   0  0  0  0  0  0  0  0  0  0  0  0
   91.5767   90.0741  -42.4823 O   0  0  0  0  0  0  0  0  0  0  0  0
   92.4590   90.9805  -42.4307 C   0  0  0  0  0  0  0  0  0  0  0  0
   90.7528   90.2452  -42.8944 H   0  0  0  0  0  0  0  0  0  0  0  0
   91.0494   93.5681  -46.4055 O   0  0  0  0  0  0  0  0  0  0  0  0
   90.7387   92.3176  -47.0266 C   0  0  0  0  0  0  0  0  0  0  0  0
   90.0641   91.6310  -49.3503 C   0  0  0  0  0  0  0  0  0  0  0  0
   89.8067   92.5849  -48.1967 C   0  0  0  0  0  0  0  0  0  0  0  0
 21 22  1  0  0  0
 22 20  1  0  0  0
 20 19  1  0  0  0
 15 17  2  0  0  0
 19  3  1  0  0  0
  1  3  2  0  0  0
  1  7  1  0  0  0
 17  7  1  0  0  0
 17 16  1  0  0  0
  3  4  1  0  0  0
  7  6  2  0  0  0
  4 11  1  0  0  0
  4  5  2  0  0  0
  6  5  1  0  0  0
  6  2  1  0  0  0
 11 14  1  0  0  0
 11 12  1  0  0  0
  5  8  1  0  0  0
 14 13  2  0  0  0
 12 10  2  0  0  0
 13 10  1  0  0  0
  2  9  1  0  0  0
 16 18  1  0  0  0
M  END
> <minimizedAffinity>
-5.27825

$$$$
5O1D_9GW_A_402


 22 23  0  0  0  0  0  0  0  0999 V2000
   92.1667   92.2266  -45.2245 C   0  0  0  0  0  0  0  0  0  0  0  0
   89.7781   93.0052  -47.8807 O   0  0  0  0  0  0  0  0  0  0  0  0
   92.2377   93.4339  -44.5162 C   0  0  0  0  0  0  0  0  0  0  0  0
   91.4578   94.5127  -44.9591 C   0  0  0  0  0  0  0  0  0  0  0  0
   90.6318   94.3700  -46.0897 C   0  0  0  0  0  0  0  0  0  0  0  0
   90.5812   93.1490  -46.7790 C   0  0  0  0  0  0  0  0  0  0  0  0
   91.3478   92.0664  -46.3525 C   0  0  0  0  0  0  0  0  0  0  0  0
   89.4096   95.9547  -46.7979 I   0  0  0  0  0  0  0  0  0  0  0  0
   89.7495   92.1867  -48.3360 H   0  0  0  0  0  0  0  0  0  0  0  0
   91.1411   97.5124  -42.9701 C   0  0  0  0  0  0  0  0  0  0  0  0
   91.4564   95.7879  -44.3545 N   0  0  0  0  0  0  0  0  0  0  0  0
   91.0393   96.1467  -43.0954 C   0  0  0  0  0  0  0  0  0  0  0  0
   91.6212   98.0198  -44.1986 C   0  0  0  0  0  0  0  0  0  0  0  0
   91.7881   96.9444  -45.0370 C   0  0  0  0  0  0  0  0  0  0  0  0
   92.4108   90.3788  -47.6322 O   0  0  0  0  0  0  0  0  0  0  0  0
   90.2352   90.1069  -47.0264 O   0  0  0  0  0  0  0  0  0  0  0  0
   91.3300   90.7417  -47.0593 C   0  0  0  0  0  0  0  0  0  0  0  0
   89.4981   90.4673  -46.5739 H   0  0  0  0  0  0  0  0  0  0  0  0
   93.0183   93.6203  -43.4061 O   0  0  0  0  0  0  0  0  0  0  0  0
   92.6445   92.8654  -42.2501 C   0  0  0  0  0  0  0  0  0  0  0  0
   94.6297   91.3293  -42.0907 C   0  0  0  0  0  0  0  0  0  0  0  0
   93.9069   92.5171  -41.4793 C   0  0  0  0  0  0  0  0  0  0  0  0
 21 22  1  0  0  0
 22 20  1  0  0  0
 20 19  1  0  0  0
 15 17  2  0  0  0
 19  3  1  0  0  0
  1  3  2  0  0  0
  1  7  1  0  0  0
 17  7  1  0  0  0
 17 16  1  0  0  0
  3  4  1  0  0  0
  7  6  2  0  0  0
  4 11  1  0  0  0
  4  5  2  0  0  0
  6  5  1  0  0  0
  6  2  1  0  0  0
 11 14  1  0  0  0
 11 12  1  0  0  0
  5  8  1  0  0  0
 14 13  2  0  0  0
 12 10  2  0  0  0
 13 10  1  0  0  0
  2  9  1  0  0  0
 16 18  1  0  0  0
M  END
> <minimizedAffinity>
-5.25777

$$$$
5O1D_9GW_A_402


 22 23  0  0  0  0  0  0  0  0999 V2000
   91.7242   92.5057  -45.6944 C   0  0  0  0  0  0  0  0  0  0  0  0
   89.2808   93.5449  -48.2077 O   0  0  0  0  0  0  0  0  0  0  0  0
   91.9059   93.6761  -44.9451 C   0  0  0  0  0  0  0  0  0  0  0  0
   91.1814   94.8204  -45.3111 C   0  0  0  0  0  0  0  0  0  0  0  0
   90.2999   94.7776  -46.4074 C   0  0  0  0  0  0  0  0  0  0  0  0
   90.1383   93.5914  -47.1392 C   0  0  0  0  0  0  0  0  0  0  0  0
   90.8486   92.4449  -46.7891 C   0  0  0  0  0  0  0  0  0  0  0  0
   89.1568   96.4658  -46.9991 I   0  0  0  0  0  0  0  0  0  0  0  0
   89.1781   92.7491  -48.6917 H   0  0  0  0  0  0  0  0  0  0  0  0
   91.7912   98.1767  -44.1203 C   0  0  0  0  0  0  0  0  0  0  0  0
   91.2911   96.0674  -44.6596 N   0  0  0  0  0  0  0  0  0  0  0  0
   91.8130   97.2469  -45.1333 C   0  0  0  0  0  0  0  0  0  0  0  0
   91.2536   97.5480  -42.9745 C   0  0  0  0  0  0  0  0  0  0  0  0
   90.9730   96.2498  -43.3258 C   0  0  0  0  0  0  0  0  0  0  0  0
   90.8725   91.2049  -48.8084 O   0  0  0  0  0  0  0  0  0  0  0  0
   90.4423   90.1292  -46.8509 O   0  0  0  0  0  0  0  0  0  0  0  0
   90.7121   91.1539  -47.5436 C   0  0  0  0  0  0  0  0  0  0  0  0
   90.3450   90.2040  -45.9220 H   0  0  0  0  0  0  0  0  0  0  0  0
   92.7442   93.7662  -43.8656 O   0  0  0  0  0  0  0  0  0  0  0  0
   93.4077   92.5555  -43.4916 C   0  0  0  0  0  0  0  0  0  0  0  0
   92.9634   93.7845  -41.3426 C   0  0  0  0  0  0  0  0  0  0  0  0
   93.5168   92.5200  -41.9764 C   0  0  0  0  0  0  0  0  0  0  0  0
 21 22  1  0  0  0
 22 20  1  0  0  0
 20 19  1  0  0  0
 15 17  2  0  0  0
 19  3  1  0  0  0
  1  3  2  0  0  0
  1  7  1  0  0  0
 17  7  1  0  0  0
 17 16  1  0  0  0
  3  4  1  0  0  0
  7  6  2  0  0  0
  4 11  1  0  0  0
  4  5  2  0  0  0
  6  5  1  0  0  0
  6  2  1  0  0  0
 11 14  1  0  0  0
 11 12  1  0  0  0
  5  8  1  0  0  0
 14 13  2  0  0  0
 12 10  2  0  0  0
 13 10  1  0  0  0
  2  9  1  0  0  0
 16 18  1  0  0  0
M  END
> <minimizedAffinity>
-5.09651

$$$$
5O1D_9GW_A_402


 22 23  0  0  0  0  0  0  0  0999 V2000
   92.4705   94.0617  -42.1730 C   0  0  0  0  0  0  0  0  0  0  0  0
   90.7589   97.0276  -43.4537 O   0  0  0  0  0  0  0  0  0  0  0  0
   92.3544   93.1596  -43.2394 C   0  0  0  0  0  0  0  0  0  0  0  0
   91.6856   93.5811  -44.3983 C   0  0  0  0  0  0  0  0  0  0  0  0
   91.1486   94.8800  -44.4712 C   0  0  0  0  0  0  0  0  0  0  0  0
   91.2802   95.7615  -43.3875 C   0  0  0  0  0  0  0  0  0  0  0  0
   91.9426   95.3605  -42.2291 C   0  0  0  0  0  0  0  0  0  0  0  0
   90.1461   95.5880  -46.2033 I   0  0  0  0  0  0  0  0  0  0  0  0
   90.8507   97.6107  -42.7261 H   0  0  0  0  0  0  0  0  0  0  0  0
   91.1372   92.0103  -47.6056 C   0  0  0  0  0  0  0  0  0  0  0  0
   91.4758   92.7654  -45.5307 N   0  0  0  0  0  0  0  0  0  0  0  0
   91.4709   93.1162  -46.8593 C   0  0  0  0  0  0  0  0  0  0  0  0
   90.9106   90.9418  -46.7089 C   0  0  0  0  0  0  0  0  0  0  0  0
   91.1057   91.4356  -45.4418 C   0  0  0  0  0  0  0  0  0  0  0  0
   92.4787   97.4635  -41.2775 O   0  0  0  0  0  0  0  0  0  0  0  0
   91.8621   95.7524  -39.9114 O   0  0  0  0  0  0  0  0  0  0  0  0
   92.1054   96.2663  -41.0426 C   0  0  0  0  0  0  0  0  0  0  0  0
   91.5924   94.8571  -39.8518 H   0  0  0  0  0  0  0  0  0  0  0  0
   92.8669   91.8895  -43.2210 O   0  0  0  0  0  0  0  0  0  0  0  0
   94.2843   91.7891  -43.3849 C   0  0  0  0  0  0  0  0  0  0  0  0
   93.9890   90.2498  -41.4178 C   0  0  0  0  0  0  0  0  0  0  0  0
   94.8805   91.2852  -42.0812 C   0  0  0  0  0  0  0  0  0  0  0  0
 21 22  1  0  0  0
 22 20  1  0  0  0
 20 19  1  0  0  0
 15 17  2  0  0  0
 19  3  1  0  0  0
  1  3  2  0  0  0
  1  7  1  0  0  0
 17  7  1  0  0  0
 17 16  1  0  0  0
  3  4  1  0  0  0
  7  6  2  0  0  0
  4 11  1  0  0  0
  4  5  2  0  0  0
  6  5  1  0  0  0
  6  2  1  0  0  0
 11 14  1  0  0  0
 11 12  1  0  0  0
  5  8  1  0  0  0
 14 13  2  0  0  0
 12 10  2  0  0  0
 13 10  1  0  0  0
  2  9  1  0  0  0
 16 18  1  0  0  0
M  END
> <minimizedAffinity>
-4.92907

$$$$
