2RK8_PPF_A_3969


 10  9  0  0  0  0  0  0  0  0999 V2000
   20.9787    3.0107    4.8344 O   0  0  0  0  0  0  0  0  0  0  0  0
   23.4687    2.8258    4.8620 O   0  0  0  0  0  0  0  0  0  0  0  0
   22.1722    1.6910    2.9699 O   0  0  0  0  0  0  0  0  0  0  0  0
   22.2239    2.8062    4.0121 P   0  0  0  0  0  0  0  0  0  0  0  0
   21.1203    3.7382    5.4601 H   0  0  0  0  0  0  0  0  0  0  0  0
   23.4181    3.5611    5.4927 H   0  0  0  0  0  0  0  0  0  0  0  0
   22.4089    4.2098    3.0548 C   0  0  0  0  0  0  0  0  0  0  0  0
   23.2139    5.1007    3.4344 O   0  0  0  0  0  0  0  0  0  0  0  0
   21.7272    4.3192    2.0141 O   0  0  0  0  0  0  0  0  0  0  0  0
   23.7077    4.9812    4.2217 H   0  0  0  0  0  0  0  0  0  0  0  0
  7  8  1  0  0  0
  7  9  2  0  0  0
  7  4  1  0  0  0
  1  4  1  0  0  0
  2  4  1  0  0  0
  3  4  2  0  0  0
  1  5  1  0  0  0
  2  6  1  0  0  0
  8 10  1  0  0  0
M  END
> <minimizedAffinity>
-5.26627

$$$$
2RK8_PPF_A_3969


 10  9  0  0  0  0  0  0  0  0999 V2000
   22.6117    1.1802    9.4479 O   0  0  0  0  0  0  0  0  0  0  0  0
   22.4382    2.0943    7.1307 O   0  0  0  0  0  0  0  0  0  0  0  0
   20.2853    1.6303    8.4342 O   0  0  0  0  0  0  0  0  0  0  0  0
   21.7735    1.9709    8.4781 P   0  0  0  0  0  0  0  0  0  0  0  0
   23.5340    1.4758    9.3939 H   0  0  0  0  0  0  0  0  0  0  0  0
   23.3759    2.3109    7.2515 H   0  0  0  0  0  0  0  0  0  0  0  0
   21.7752    3.5852    9.0393 C   0  0  0  0  0  0  0  0  0  0  0  0
   22.6964    3.9569    9.8132 O   0  0  0  0  0  0  0  0  0  0  0  0
   20.8524    4.3456    8.6789 O   0  0  0  0  0  0  0  0  0  0  0  0
   23.3715    3.3560   10.0605 H   0  0  0  0  0  0  0  0  0  0  0  0
  7  8  1  0  0  0
  7  9  2  0  0  0
  7  4  1  0  0  0
  1  4  1  0  0  0
  2  4  1  0  0  0
  3  4  2  0  0  0
  1  5  1  0  0  0
  2  6  1  0  0  0
  8 10  1  0  0  0
M  END
> <minimizedAffinity>
-5.17639

$$$$
2RK8_PPF_A_3969


 10  9  0  0  0  0  0  0  0  0999 V2000
   22.2632    1.6825    2.9529 O   0  0  0  0  0  0  0  0  0  0  0  0
   20.9051    3.1517    4.4469 O   0  0  0  0  0  0  0  0  0  0  0  0
   23.4570    3.3135    4.5521 O   0  0  0  0  0  0  0  0  0  0  0  0
   22.2175    2.9737    3.7270 P   0  0  0  0  0  0  0  0  0  0  0  0
   21.4311    1.5664    2.4681 H   0  0  0  0  0  0  0  0  0  0  0  0
   20.1757    2.9151    3.8528 H   0  0  0  0  0  0  0  0  0  0  0  0
   22.1771    4.2313    2.5704 C   0  0  0  0  0  0  0  0  0  0  0  0
   21.1770    4.3245    1.8109 O   0  0  0  0  0  0  0  0  0  0  0  0
   23.1494    5.0121    2.5004 O   0  0  0  0  0  0  0  0  0  0  0  0
   20.4670    3.7189    1.8948 H   0  0  0  0  0  0  0  0  0  0  0  0
  7  8  1  0  0  0
  7  9  2  0  0  0
  7  4  1  0  0  0
  1  4  1  0  0  0
  2  4  1  0  0  0
  3  4  2  0  0  0
  1  5  1  0  0  0
  2  6  1  0  0  0
  8 10  1  0  0  0
M  END
> <minimizedAffinity>
-5.16957

$$$$
2RK8_PPF_A_3969


 10  9  0  0  0  0  0  0  0  0999 V2000
   22.3905    1.7916    2.8471 O   0  0  0  0  0  0  0  0  0  0  0  0
   20.9232    3.6608    2.0801 O   0  0  0  0  0  0  0  0  0  0  0  0
   21.0963    3.1831    4.5883 O   0  0  0  0  0  0  0  0  0  0  0  0
   21.7515    3.1062    3.2108 P   0  0  0  0  0  0  0  0  0  0  0  0
   22.7734    1.8533    1.9580 H   0  0  0  0  0  0  0  0  0  0  0  0
   21.4124    3.5723    1.2472 H   0  0  0  0  0  0  0  0  0  0  0  0
   23.0201    4.2451    3.3318 C   0  0  0  0  0  0  0  0  0  0  0  0
   23.6319    4.3569    4.4267 O   0  0  0  0  0  0  0  0  0  0  0  0
   23.2926    4.9462    2.3349 O   0  0  0  0  0  0  0  0  0  0  0  0
   23.3977    3.8119    5.1520 H   0  0  0  0  0  0  0  0  0  0  0  0
  7  8  1  0  0  0
  7  9  2  0  0  0
  7  4  1  0  0  0
  1  4  1  0  0  0
  2  4  1  0  0  0
  3  4  2  0  0  0
  1  5  1  0  0  0
  2  6  1  0  0  0
  8 10  1  0  0  0
M  END
> <minimizedAffinity>
-5.16063

$$$$
2RK8_PPF_A_3969


 10  9  0  0  0  0  0  0  0  0999 V2000
   24.2399    3.7185    9.4950 O   0  0  0  0  0  0  0  0  0  0  0  0
   23.0214    1.5392    9.5239 O   0  0  0  0  0  0  0  0  0  0  0  0
   21.6795    3.7020    9.7894 O   0  0  0  0  0  0  0  0  0  0  0  0
   22.9309    3.0175    9.2433 P   0  0  0  0  0  0  0  0  0  0  0  0
   24.9635    3.2009    9.1085 H   0  0  0  0  0  0  0  0  0  0  0  0
   23.8419    1.1877    9.1441 H   0  0  0  0  0  0  0  0  0  0  0  0
   22.6764    3.0572    7.5538 C   0  0  0  0  0  0  0  0  0  0  0  0
   23.6664    2.9172    6.7882 O   0  0  0  0  0  0  0  0  0  0  0  0
   21.5173    3.2412    7.1268 O   0  0  0  0  0  0  0  0  0  0  0  0
   24.5209    2.7810    7.1476 H   0  0  0  0  0  0  0  0  0  0  0  0
  7  8  1  0  0  0
  7  9  2  0  0  0
  7  4  1  0  0  0
  1  4  1  0  0  0
  2  4  1  0  0  0
  3  4  2  0  0  0
  1  5  1  0  0  0
  2  6  1  0  0  0
  8 10  1  0  0  0
M  END
> <minimizedAffinity>
-5.15912

$$$$
2RK8_PPF_A_3969


 10  9  0  0  0  0  0  0  0  0999 V2000
   22.2361    3.3780    7.1366 O   0  0  0  0  0  0  0  0  0  0  0  0
   21.4297    1.0630    6.6615 O   0  0  0  0  0  0  0  0  0  0  0  0
   19.9090    3.0381    6.0821 O   0  0  0  0  0  0  0  0  0  0  0  0
   21.3308    2.5209    6.2914 P   0  0  0  0  0  0  0  0  0  0  0  0
   23.1082    2.9587    7.2037 H   0  0  0  0  0  0  0  0  0  0  0  0
   22.3621    0.8206    6.7745 H   0  0  0  0  0  0  0  0  0  0  0  0
   21.9780    2.5445    4.7098 C   0  0  0  0  0  0  0  0  0  0  0  0
   22.0020    3.6353    4.0809 O   0  0  0  0  0  0  0  0  0  0  0  0
   22.3932    1.4750    4.2165 O   0  0  0  0  0  0  0  0  0  0  0  0
   21.6810    4.4168    4.4860 H   0  0  0  0  0  0  0  0  0  0  0  0
  7  8  1  0  0  0
  7  9  2  0  0  0
  7  4  1  0  0  0
  1  4  1  0  0  0
  2  4  1  0  0  0
  3  4  2  0  0  0
  1  5  1  0  0  0
  2  6  1  0  0  0
  8 10  1  0  0  0
M  END
> <minimizedAffinity>
-5.06626

$$$$
2RK8_PPF_A_3969


 10  9  0  0  0  0  0  0  0  0999 V2000
   19.9362    3.0857    6.2177 O   0  0  0  0  0  0  0  0  0  0  0  0
   22.2787    3.3906    7.0267 O   0  0  0  0  0  0  0  0  0  0  0  0
   21.4064    1.0140    6.6528 O   0  0  0  0  0  0  0  0  0  0  0  0
   21.3196    2.4941    6.2861 P   0  0  0  0  0  0  0  0  0  0  0  0
   19.9971    4.0237    5.9785 H   0  0  0  0  0  0  0  0  0  0  0  0
   22.1561    4.3072    6.7340 H   0  0  0  0  0  0  0  0  0  0  0  0
   21.9399    2.5258    4.6938 C   0  0  0  0  0  0  0  0  0  0  0  0
   22.4097    1.4646    4.2051 O   0  0  0  0  0  0  0  0  0  0  0  0
   21.9250    3.6057    4.0667 O   0  0  0  0  0  0  0  0  0  0  0  0
   22.4027    0.6740    4.7079 H   0  0  0  0  0  0  0  0  0  0  0  0
  7  8  1  0  0  0
  7  9  2  0  0  0
  7  4  1  0  0  0
  1  4  1  0  0  0
  2  4  1  0  0  0
  3  4  2  0  0  0
  1  5  1  0  0  0
  2  6  1  0  0  0
  8 10  1  0  0  0
M  END
> <minimizedAffinity>
-5.06133

$$$$
2RK8_PPF_A_3969


 10  9  0  0  0  0  0  0  0  0999 V2000
   22.5544    2.2665    6.9985 O   0  0  0  0  0  0  0  0  0  0  0  0
   20.3359    3.1087    6.2212 O   0  0  0  0  0  0  0  0  0  0  0  0
   20.4034    1.0870    7.7888 O   0  0  0  0  0  0  0  0  0  0  0  0
   21.0819    2.3648    7.2994 P   0  0  0  0  0  0  0  0  0  0  0  0
   22.8811    3.1287    6.6973 H   0  0  0  0  0  0  0  0  0  0  0  0
   20.8349    3.9021    5.9713 H   0  0  0  0  0  0  0  0  0  0  0  0
   20.9300    3.4113    8.6420 C   0  0  0  0  0  0  0  0  0  0  0  0
   21.1324    4.6431    8.4764 O   0  0  0  0  0  0  0  0  0  0  0  0
   20.6391    2.9214    9.7534 O   0  0  0  0  0  0  0  0  0  0  0  0
   21.3487    4.9722    7.6261 H   0  0  0  0  0  0  0  0  0  0  0  0
  7  8  1  0  0  0
  7  9  2  0  0  0
  7  4  1  0  0  0
  1  4  1  0  0  0
  2  4  1  0  0  0
  3  4  2  0  0  0
  1  5  1  0  0  0
  2  6  1  0  0  0
  8 10  1  0  0  0
M  END
> <minimizedAffinity>
-5.01952

$$$$
2RK8_PPF_A_3969


 10  9  0  0  0  0  0  0  0  0999 V2000
   19.9772    3.0093    6.0604 O   0  0  0  0  0  0  0  0  0  0  0  0
   21.8398    1.5949    5.1857 O   0  0  0  0  0  0  0  0  0  0  0  0
   22.3646    3.3550    6.9677 O   0  0  0  0  0  0  0  0  0  0  0  0
   21.3333    2.4179    6.3426 P   0  0  0  0  0  0  0  0  0  0  0  0
   19.4047    2.3322    5.6669 H   0  0  0  0  0  0  0  0  0  0  0  0
   21.1241    1.0319    4.8515 H   0  0  0  0  0  0  0  0  0  0  0  0
   21.1052    1.2407    7.5605 C   0  0  0  0  0  0  0  0  0  0  0  0
   22.0003    0.3735    7.7405 O   0  0  0  0  0  0  0  0  0  0  0  0
   20.0487    1.2643    8.2259 O   0  0  0  0  0  0  0  0  0  0  0  0
   22.7796    0.3895    7.2204 H   0  0  0  0  0  0  0  0  0  0  0  0
  7  8  1  0  0  0
  7  9  2  0  0  0
  7  4  1  0  0  0
  1  4  1  0  0  0
  2  4  1  0  0  0
  3  4  2  0  0  0
  1  5  1  0  0  0
  2  6  1  0  0  0
  8 10  1  0  0  0
M  END
> <minimizedAffinity>
-4.93698

$$$$
2RK8_PPF_A_3969


 10  9  0  0  0  0  0  0  0  0999 V2000
   22.5284    1.3118    4.0293 O   0  0  0  0  0  0  0  0  0  0  0  0
   23.1737    3.5470    4.9362 O   0  0  0  0  0  0  0  0  0  0  0  0
   21.0521    3.3614    3.5172 O   0  0  0  0  0  0  0  0  0  0  0  0
   22.0441    2.6736    4.4528 P   0  0  0  0  0  0  0  0  0  0  0  0
   23.1496    0.9693    4.6909 H   0  0  0  0  0  0  0  0  0  0  0  0
   23.7521    3.0332    5.5213 H   0  0  0  0  0  0  0  0  0  0  0  0
   21.1239    2.4408    5.8741 C   0  0  0  0  0  0  0  0  0  0  0  0
   20.0335    3.0583    5.9981 O   0  0  0  0  0  0  0  0  0  0  0  0
   21.5682    1.6773    6.7569 O   0  0  0  0  0  0  0  0  0  0  0  0
   19.7340    3.6225    5.3126 H   0  0  0  0  0  0  0  0  0  0  0  0
  7  8  1  0  0  0
  7  9  2  0  0  0
  7  4  1  0  0  0
  1  4  1  0  0  0
  2  4  1  0  0  0
  3  4  2  0  0  0
  1  5  1  0  0  0
  2  6  1  0  0  0
  8 10  1  0  0  0
M  END
> <minimizedAffinity>
-4.92404

$$$$
