3TT4_E1S_A_1


 30 31  0  0  0  0  0  0  0  0999 V2000
   -3.2783   10.0104  -15.5893 N   0  0  0  0  0  0  0  0  0  0  0  0
   -3.6685    8.9546  -14.6481 C   0  0  0  0  0  0  0  0  0  0  0  0
   -3.5536    7.7970  -14.9704 O   0  0  0  0  0  0  0  0  0  0  0  0
   -3.4159   10.9480  -15.3226 H   0  0  0  0  0  0  0  0  0  0  0  0
   -4.3000    9.3278  -13.3241 C   0  0  0  0  0  0  0  0  0  0  0  0
   -5.8003    9.5941  -13.5751 C   0  0  0  0  0  0  0  0  0  0  0  0
   -6.2209   10.9483  -13.0506 C   0  0  0  0  0  0  0  0  0  0  0  0
   -5.6274   12.0888  -13.5642 C   0  0  0  0  0  0  0  0  0  0  0  0
   -6.0921   13.4294  -13.0618 C   0  0  0  0  0  0  0  0  0  0  0  0
   -7.2964   11.0399  -12.0233 C   0  0  0  0  0  0  0  0  0  0  0  0
   -7.0682   13.4877  -12.0759 C   0  0  0  0  0  0  0  0  0  0  0  0
   -7.7073   12.2706  -11.5819 C   0  0  0  0  0  0  0  0  0  0  0  0
   -7.5208   14.8389  -11.5625 C   0  0  0  0  0  0  0  0  0  0  0  0
   -8.4656   15.1144  -10.5272 C   0  0  0  0  0  0  0  0  0  0  0  0
   -8.6128   16.5401  -10.3106 C   0  0  0  0  0  0  0  0  0  0  0  0
   -6.8259   16.3078  -12.2192 S   0  0  0  0  0  0  0  0  0  0  0  0
   -7.6860   18.7824  -11.2471 C   0  0  0  0  0  0  0  0  0  0  0  0
   -7.7806   17.2717  -11.1518 C   0  0  0  0  0  0  0  0  0  0  0  0
   -2.6950    9.7411  -16.9044 C   0  0  0  0  0  0  0  0  0  0  0  0
   -0.9722   11.3709  -16.1972 N   0  0  0  0  0  0  0  0  0  0  0  0
   -1.4304   11.1951  -18.2956 O   0  0  0  0  0  0  0  0  0  0  0  0
   -1.6495   10.8155  -17.1678 C   0  0  0  0  0  0  0  0  0  0  0  0
   -0.3020   12.0635  -16.3982 H   0  0  0  0  0  0  0  0  0  0  0  0
   -1.1322   11.0964  -15.2654 H   0  0  0  0  0  0  0  0  0  0  0  0
   -3.8047    9.7241  -17.9653 C   0  0  0  0  0  0  0  0  0  0  0  0
   -5.0553   10.3110  -17.3445 C   0  0  0  0  0  0  0  0  0  0  0  0
   -6.2201    9.3919  -17.2226 C   0  0  0  0  0  0  0  0  0  0  0  0
   -6.0323    8.1469  -17.0413 O   0  0  0  0  0  0  0  0  0  0  0  0
   -7.4132    9.8289  -17.2885 O   0  0  0  0  0  0  0  0  0  0  0  0
   -5.1605    7.8071  -16.9902 H   0  0  0  0  0  0  0  0  0  0  0  0
  2  5  1  0  0  0
  6  5  1  0  0  0
 19  1  1  0  0  0
  1  2  1  0  0  0
  2  3  2  0  0  0
 25 26  1  0  0  0
 25 19  1  0  0  0
 22 20  1  0  0  0
 27 26  1  0  0  0
 29 27  2  0  0  0
 27 28  1  0  0  0
 21 22  2  0  0  0
 22 19  1  0  0  0
  6  7  1  0  0  0
 10  7  2  0  0  0
  7  8  1  0  0  0
  8  9  2  0  0  0
 11  9  1  0  0  0
 10 12  1  0  0  0
 14 13  2  0  0  0
 11 13  1  0  0  0
 13 16  1  0  0  0
 14 15  1  0  0  0
 15 18  2  0  0  0
 18 16  1  0  0  0
 18 17  1  0  0  0
 12 11  2  0  0  0
  1  4  1  0  0  0
 20 23  1  0  0  0
 20 24  1  0  0  0
 28 30  1  0  0  0
M  END
> <minimizedAffinity>
-9.19071

$$$$
3TT4_E1S_A_1


 30 31  0  0  0  0  0  0  0  0999 V2000
   -2.6618    9.8388  -12.4140 N   0  0  0  0  0  0  0  0  0  0  0  0
   -3.5735    9.6659  -13.5507 C   0  0  0  0  0  0  0  0  0  0  0  0
   -3.2399   10.0495  -14.6455 O   0  0  0  0  0  0  0  0  0  0  0  0
   -2.9680    9.5548  -11.5225 H   0  0  0  0  0  0  0  0  0  0  0  0
   -4.9577    9.0986  -13.3206 C   0  0  0  0  0  0  0  0  0  0  0  0
   -5.9480    9.9016  -14.1920 C   0  0  0  0  0  0  0  0  0  0  0  0
   -6.3987   11.1679  -13.4997 C   0  0  0  0  0  0  0  0  0  0  0  0
   -7.4137   11.1029  -12.5604 C   0  0  0  0  0  0  0  0  0  0  0  0
   -7.8169   12.3667  -11.8492 C   0  0  0  0  0  0  0  0  0  0  0  0
   -5.7169   12.4575  -13.8038 C   0  0  0  0  0  0  0  0  0  0  0  0
   -7.1937   13.5632  -12.1780 C   0  0  0  0  0  0  0  0  0  0  0  0
   -6.0971   13.5961  -13.1424 C   0  0  0  0  0  0  0  0  0  0  0  0
   -7.6143   14.8348  -11.4707 C   0  0  0  0  0  0  0  0  0  0  0  0
   -8.5277   14.9738  -10.3812 C   0  0  0  0  0  0  0  0  0  0  0  0
   -8.6498   16.3572   -9.9660 C   0  0  0  0  0  0  0  0  0  0  0  0
   -6.9170   16.3735  -11.9375 S   0  0  0  0  0  0  0  0  0  0  0  0
   -7.7176   18.6983  -10.6098 C   0  0  0  0  0  0  0  0  0  0  0  0
   -7.8301   17.1899  -10.7212 C   0  0  0  0  0  0  0  0  0  0  0  0
   -1.3207   10.4117  -12.5377 C   0  0  0  0  0  0  0  0  0  0  0  0
   -0.4879    8.5242  -13.9046 N   0  0  0  0  0  0  0  0  0  0  0  0
    0.5403    9.0083  -12.0736 O   0  0  0  0  0  0  0  0  0  0  0  0
   -0.3622    9.2677  -12.8365 C   0  0  0  0  0  0  0  0  0  0  0  0
    0.1475    7.7910  -14.0715 H   0  0  0  0  0  0  0  0  0  0  0  0
   -1.2180    8.6976  -14.5419 H   0  0  0  0  0  0  0  0  0  0  0  0
   -0.9611   11.1618  -11.2473 C   0  0  0  0  0  0  0  0  0  0  0  0
   -1.8379   10.6265  -10.1344 C   0  0  0  0  0  0  0  0  0  0  0  0
   -1.1907    9.6747   -9.1901 C   0  0  0  0  0  0  0  0  0  0  0  0
   -1.1243    8.4376   -9.4789 O   0  0  0  0  0  0  0  0  0  0  0  0
   -0.6898   10.0757   -8.0914 O   0  0  0  0  0  0  0  0  0  0  0  0
   -1.4878    8.1242  -10.2837 H   0  0  0  0  0  0  0  0  0  0  0  0
  2  5  1  0  0  0
  6  5  1  0  0  0
 19  1  1  0  0  0
  1  2  1  0  0  0
  2  3  2  0  0  0
 25 26  1  0  0  0
 25 19  1  0  0  0
 22 20  1  0  0  0
 27 26  1  0  0  0
 29 27  2  0  0  0
 27 28  1  0  0  0
 21 22  2  0  0  0
 22 19  1  0  0  0
  6  7  1  0  0  0
 10  7  2  0  0  0
  7  8  1  0  0  0
  8  9  2  0  0  0
 11  9  1  0  0  0
 10 12  1  0  0  0
 14 13  2  0  0  0
 11 13  1  0  0  0
 13 16  1  0  0  0
 14 15  1  0  0  0
 15 18  2  0  0  0
 18 16  1  0  0  0
 18 17  1  0  0  0
 12 11  2  0  0  0
  1  4  1  0  0  0
 20 23  1  0  0  0
 20 24  1  0  0  0
 28 30  1  0  0  0
M  END
> <minimizedAffinity>
-9.01259

$$$$
3TT4_E1S_A_1


 30 31  0  0  0  0  0  0  0  0999 V2000
   -5.3739    8.2573  -16.1585 N   0  0  0  0  0  0  0  0  0  0  0  0
   -4.4891    9.2653  -15.5637 C   0  0  0  0  0  0  0  0  0  0  0  0
   -3.7027    9.8553  -16.2641 O   0  0  0  0  0  0  0  0  0  0  0  0
   -5.9808    7.7596  -15.5643 H   0  0  0  0  0  0  0  0  0  0  0  0
   -4.5040    9.4844  -14.0661 C   0  0  0  0  0  0  0  0  0  0  0  0
   -5.9787    9.5275  -13.6099 C   0  0  0  0  0  0  0  0  0  0  0  0
   -6.3584   10.8920  -13.0810 C   0  0  0  0  0  0  0  0  0  0  0  0
   -5.7205   12.0147  -13.5806 C   0  0  0  0  0  0  0  0  0  0  0  0
   -6.1445   13.3673  -13.0743 C   0  0  0  0  0  0  0  0  0  0  0  0
   -7.4415   11.0140  -12.0649 C   0  0  0  0  0  0  0  0  0  0  0  0
   -7.1289   13.4528  -12.0988 C   0  0  0  0  0  0  0  0  0  0  0  0
   -7.8148   12.2554  -11.6198 C   0  0  0  0  0  0  0  0  0  0  0  0
   -7.5406   14.8155  -11.5813 C   0  0  0  0  0  0  0  0  0  0  0  0
   -8.4687   15.1160  -10.5378 C   0  0  0  0  0  0  0  0  0  0  0  0
   -8.5756   16.5450  -10.3198 C   0  0  0  0  0  0  0  0  0  0  0  0
   -6.8122   16.2655  -12.2438 S   0  0  0  0  0  0  0  0  0  0  0  0
   -7.5971   18.7620  -11.2641 C   0  0  0  0  0  0  0  0  0  0  0  0
   -7.7313   17.2543  -11.1681 C   0  0  0  0  0  0  0  0  0  0  0  0
   -5.4005    7.9537  -17.5901 C   0  0  0  0  0  0  0  0  0  0  0  0
   -7.6919    8.8884  -17.5691 N   0  0  0  0  0  0  0  0  0  0  0  0
   -6.4555    9.2193  -19.3029 O   0  0  0  0  0  0  0  0  0  0  0  0
   -6.5572    8.7330  -18.1997 C   0  0  0  0  0  0  0  0  0  0  0  0
   -8.4224    9.3978  -17.9887 H   0  0  0  0  0  0  0  0  0  0  0  0
   -7.8157    8.4962  -16.6747 H   0  0  0  0  0  0  0  0  0  0  0  0
   -5.5382    6.4379  -17.7918 C   0  0  0  0  0  0  0  0  0  0  0  0
   -4.3507    5.9636  -18.6035 C   0  0  0  0  0  0  0  0  0  0  0  0
   -4.3069    4.5078  -18.9119 C   0  0  0  0  0  0  0  0  0  0  0  0
   -5.2051    3.7326  -18.4531 O   0  0  0  0  0  0  0  0  0  0  0  0
   -3.3853    4.0163  -19.6386 O   0  0  0  0  0  0  0  0  0  0  0  0
   -5.8915    4.0768  -17.9162 H   0  0  0  0  0  0  0  0  0  0  0  0
  2  5  1  0  0  0
  6  5  1  0  0  0
 19  1  1  0  0  0
  1  2  1  0  0  0
  2  3  2  0  0  0
 25 26  1  0  0  0
 25 19  1  0  0  0
 22 20  1  0  0  0
 27 26  1  0  0  0
 29 27  2  0  0  0
 27 28  1  0  0  0
 21 22  2  0  0  0
 22 19  1  0  0  0
  6  7  1  0  0  0
 10  7  2  0  0  0
  7  8  1  0  0  0
  8  9  2  0  0  0
 11  9  1  0  0  0
 10 12  1  0  0  0
 14 13  2  0  0  0
 11 13  1  0  0  0
 13 16  1  0  0  0
 14 15  1  0  0  0
 15 18  2  0  0  0
 18 16  1  0  0  0
 18 17  1  0  0  0
 12 11  2  0  0  0
  1  4  1  0  0  0
 20 23  1  0  0  0
 20 24  1  0  0  0
 28 30  1  0  0  0
M  END
> <minimizedAffinity>
-8.84129

$$$$
3TT4_E1S_A_1


 30 31  0  0  0  0  0  0  0  0999 V2000
   -7.2918   16.9465  -11.2239 N   0  0  0  0  0  0  0  0  0  0  0  0
   -8.0762   15.8060  -10.7375 C   0  0  0  0  0  0  0  0  0  0  0  0
   -8.3604   15.7346   -9.5665 O   0  0  0  0  0  0  0  0  0  0  0  0
   -7.0372   16.9667  -12.1747 H   0  0  0  0  0  0  0  0  0  0  0  0
   -8.4365   14.6850  -11.6886 C   0  0  0  0  0  0  0  0  0  0  0  0
   -8.0405   13.3514  -11.0182 C   0  0  0  0  0  0  0  0  0  0  0  0
   -7.3077   12.4417  -11.9780 C   0  0  0  0  0  0  0  0  0  0  0  0
   -7.6663   11.1066  -12.0549 C   0  0  0  0  0  0  0  0  0  0  0  0
   -6.9559   10.2276  -13.0490 C   0  0  0  0  0  0  0  0  0  0  0  0
   -6.2430   13.0014  -12.8576 C   0  0  0  0  0  0  0  0  0  0  0  0
   -5.9404   10.7632  -13.8300 C   0  0  0  0  0  0  0  0  0  0  0  0
   -5.6109   12.1845  -13.7584 C   0  0  0  0  0  0  0  0  0  0  0  0
   -5.2180    9.8704  -14.8175 C   0  0  0  0  0  0  0  0  0  0  0  0
   -4.6875    8.5629  -14.5956 C   0  0  0  0  0  0  0  0  0  0  0  0
   -4.0867    8.0240  -15.7997 C   0  0  0  0  0  0  0  0  0  0  0  0
   -4.9958   10.3916  -16.4761 S   0  0  0  0  0  0  0  0  0  0  0  0
   -3.6580    8.7174  -18.2694 C   0  0  0  0  0  0  0  0  0  0  0  0
   -4.2006    8.9100  -16.8663 C   0  0  0  0  0  0  0  0  0  0  0  0
   -6.8684   18.0558  -10.3681 C   0  0  0  0  0  0  0  0  0  0  0  0
   -8.6292   18.7134   -8.7583 N   0  0  0  0  0  0  0  0  0  0  0  0
   -8.6880   19.5366  -10.7490 O   0  0  0  0  0  0  0  0  0  0  0  0
   -8.1202   18.8184   -9.9579 C   0  0  0  0  0  0  0  0  0  0  0  0
   -9.4401   19.2191   -8.5217 H   0  0  0  0  0  0  0  0  0  0  0  0
   -8.2016   18.1287   -8.0916 H   0  0  0  0  0  0  0  0  0  0  0  0
   -5.8630   18.9348  -11.1256 C   0  0  0  0  0  0  0  0  0  0  0  0
   -4.6819   19.1891  -10.2122 C   0  0  0  0  0  0  0  0  0  0  0  0
   -3.4462   19.7013  -10.8657 C   0  0  0  0  0  0  0  0  0  0  0  0
   -3.5311   20.5309  -11.8263 O   0  0  0  0  0  0  0  0  0  0  0  0
   -2.2932   19.3302  -10.4760 O   0  0  0  0  0  0  0  0  0  0  0  0
   -4.3718   20.8154  -12.1267 H   0  0  0  0  0  0  0  0  0  0  0  0
  2  5  1  0  0  0
  6  5  1  0  0  0
 19  1  1  0  0  0
  1  2  1  0  0  0
  2  3  2  0  0  0
 25 26  1  0  0  0
 25 19  1  0  0  0
 22 20  1  0  0  0
 27 26  1  0  0  0
 29 27  2  0  0  0
 27 28  1  0  0  0
 21 22  2  0  0  0
 22 19  1  0  0  0
  6  7  1  0  0  0
 10  7  2  0  0  0
  7  8  1  0  0  0
  8  9  2  0  0  0
 11  9  1  0  0  0
 10 12  1  0  0  0
 14 13  2  0  0  0
 11 13  1  0  0  0
 13 16  1  0  0  0
 14 15  1  0  0  0
 15 18  2  0  0  0
 18 16  1  0  0  0
 18 17  1  0  0  0
 12 11  2  0  0  0
  1  4  1  0  0  0
 20 23  1  0  0  0
 20 24  1  0  0  0
 28 30  1  0  0  0
M  END
> <minimizedAffinity>
-8.58304

$$$$
3TT4_E1S_A_1


 30 31  0  0  0  0  0  0  0  0999 V2000
   -4.0148    9.9071  -14.3885 N   0  0  0  0  0  0  0  0  0  0  0  0
   -5.1213   10.2556  -15.2869 C   0  0  0  0  0  0  0  0  0  0  0  0
   -4.8813   10.7083  -16.3798 O   0  0  0  0  0  0  0  0  0  0  0  0
   -4.2316    9.5759  -13.4871 H   0  0  0  0  0  0  0  0  0  0  0  0
   -6.5487   10.1353  -14.7981 C   0  0  0  0  0  0  0  0  0  0  0  0
   -6.5319   10.2512  -13.2583 C   0  0  0  0  0  0  0  0  0  0  0  0
   -6.8070   11.6665  -12.8033 C   0  0  0  0  0  0  0  0  0  0  0  0
   -7.7603   11.8913  -11.8248 C   0  0  0  0  0  0  0  0  0  0  0  0
   -7.9872   13.3025  -11.3530 C   0  0  0  0  0  0  0  0  0  0  0  0
   -6.0200   12.7928  -13.3800 C   0  0  0  0  0  0  0  0  0  0  0  0
   -7.2693   14.3397  -11.9333 C   0  0  0  0  0  0  0  0  0  0  0  0
   -6.2399   14.0699  -12.9339 C   0  0  0  0  0  0  0  0  0  0  0  0
   -7.5130   15.7597  -11.4660 C   0  0  0  0  0  0  0  0  0  0  0  0
   -7.0594   16.9732  -12.0677 C   0  0  0  0  0  0  0  0  0  0  0  0
   -7.5212   18.1337  -11.3321 C   0  0  0  0  0  0  0  0  0  0  0  0
   -8.5009   16.0632  -10.0504 S   0  0  0  0  0  0  0  0  0  0  0  0
   -8.9282   18.6962   -9.2183 C   0  0  0  0  0  0  0  0  0  0  0  0
   -8.3048   17.7674  -10.2424 C   0  0  0  0  0  0  0  0  0  0  0  0
   -2.6051   10.0267  -14.7638 C   0  0  0  0  0  0  0  0  0  0  0  0
   -1.5288    7.8028  -14.6213 N   0  0  0  0  0  0  0  0  0  0  0  0
   -2.4022    8.4111  -16.4950 O   0  0  0  0  0  0  0  0  0  0  0  0
   -2.1716    8.6861  -15.3396 C   0  0  0  0  0  0  0  0  0  0  0  0
   -1.2611    6.9439  -15.0210 H   0  0  0  0  0  0  0  0  0  0  0  0
   -1.3126    7.9966  -13.6806 H   0  0  0  0  0  0  0  0  0  0  0  0
   -1.7793   10.4371  -13.5362 C   0  0  0  0  0  0  0  0  0  0  0  0
   -2.6976   10.4344  -12.3317 C   0  0  0  0  0  0  0  0  0  0  0  0
   -2.0403   10.5976  -11.0059 C   0  0  0  0  0  0  0  0  0  0  0  0
   -1.8374    9.5824  -10.2667 O   0  0  0  0  0  0  0  0  0  0  0  0
   -1.6654   11.7413  -10.5934 O   0  0  0  0  0  0  0  0  0  0  0  0
   -2.1068    8.7322  -10.5542 H   0  0  0  0  0  0  0  0  0  0  0  0
  2  5  1  0  0  0
  6  5  1  0  0  0
 19  1  1  0  0  0
  1  2  1  0  0  0
  2  3  2  0  0  0
 25 26  1  0  0  0
 25 19  1  0  0  0
 22 20  1  0  0  0
 27 26  1  0  0  0
 29 27  2  0  0  0
 27 28  1  0  0  0
 21 22  2  0  0  0
 22 19  1  0  0  0
  6  7  1  0  0  0
 10  7  2  0  0  0
  7  8  1  0  0  0
  8  9  2  0  0  0
 11  9  1  0  0  0
 10 12  1  0  0  0
 14 13  2  0  0  0
 11 13  1  0  0  0
 13 16  1  0  0  0
 14 15  1  0  0  0
 15 18  2  0  0  0
 18 16  1  0  0  0
 18 17  1  0  0  0
 12 11  2  0  0  0
  1  4  1  0  0  0
 20 23  1  0  0  0
 20 24  1  0  0  0
 28 30  1  0  0  0
M  END
> <minimizedAffinity>
-8.53147

$$$$
3TT4_E1S_A_1


 30 31  0  0  0  0  0  0  0  0999 V2000
   -3.8177    9.7363  -15.1279 N   0  0  0  0  0  0  0  0  0  0  0  0
   -5.0595    9.1985  -14.5609 C   0  0  0  0  0  0  0  0  0  0  0  0
   -5.0988    8.0484  -14.1963 O   0  0  0  0  0  0  0  0  0  0  0  0
   -3.8175   10.6649  -15.4551 H   0  0  0  0  0  0  0  0  0  0  0  0
   -6.3030   10.0608  -14.5290 C   0  0  0  0  0  0  0  0  0  0  0  0
   -6.7525   10.1870  -13.0570 C   0  0  0  0  0  0  0  0  0  0  0  0
   -6.9509   11.6315  -12.6572 C   0  0  0  0  0  0  0  0  0  0  0  0
   -7.8865   11.9441  -11.6857 C   0  0  0  0  0  0  0  0  0  0  0  0
   -8.0369   13.3826  -11.2690 C   0  0  0  0  0  0  0  0  0  0  0  0
   -6.1087   12.6915  -13.2798 C   0  0  0  0  0  0  0  0  0  0  0  0
   -7.2684   14.3572  -11.8915 C   0  0  0  0  0  0  0  0  0  0  0  0
   -6.2592   13.9949  -12.8835 C   0  0  0  0  0  0  0  0  0  0  0  0
   -7.4351   15.8052  -11.4796 C   0  0  0  0  0  0  0  0  0  0  0  0
   -6.8826   16.9656  -12.1029 C   0  0  0  0  0  0  0  0  0  0  0  0
   -7.2932   18.1781  -11.4228 C   0  0  0  0  0  0  0  0  0  0  0  0
   -8.4498   16.2201  -10.1121 S   0  0  0  0  0  0  0  0  0  0  0  0
   -8.7333   18.9023   -9.3818 C   0  0  0  0  0  0  0  0  0  0  0  0
   -8.1365   17.9006  -10.3516 C   0  0  0  0  0  0  0  0  0  0  0  0
   -2.5793    8.9632  -15.2321 C   0  0  0  0  0  0  0  0  0  0  0  0
   -1.1325   10.9646  -15.0731 N   0  0  0  0  0  0  0  0  0  0  0  0
   -0.8571    9.3732  -13.6464 O   0  0  0  0  0  0  0  0  0  0  0  0
   -1.4698    9.7928  -14.6017 C   0  0  0  0  0  0  0  0  0  0  0  0
   -0.4105   11.4785  -14.6443 H   0  0  0  0  0  0  0  0  0  0  0  0
   -1.6004   11.3331  -15.8570 H   0  0  0  0  0  0  0  0  0  0  0  0
   -2.3035    8.6302  -16.7053 C   0  0  0  0  0  0  0  0  0  0  0  0
   -2.7166    7.1931  -16.9461 C   0  0  0  0  0  0  0  0  0  0  0  0
   -4.0261    6.9923  -17.6252 C   0  0  0  0  0  0  0  0  0  0  0  0
   -5.1097    7.1504  -16.9780 O   0  0  0  0  0  0  0  0  0  0  0  0
   -4.0875    6.6700  -18.8546 O   0  0  0  0  0  0  0  0  0  0  0  0
   -5.0839    7.3878  -16.0719 H   0  0  0  0  0  0  0  0  0  0  0  0
  2  5  1  0  0  0
  6  5  1  0  0  0
 19  1  1  0  0  0
  1  2  1  0  0  0
  2  3  2  0  0  0
 25 26  1  0  0  0
 25 19  1  0  0  0
 22 20  1  0  0  0
 27 26  1  0  0  0
 29 27  2  0  0  0
 27 28  1  0  0  0
 21 22  2  0  0  0
 22 19  1  0  0  0
  6  7  1  0  0  0
 10  7  2  0  0  0
  7  8  1  0  0  0
  8  9  2  0  0  0
 11  9  1  0  0  0
 10 12  1  0  0  0
 14 13  2  0  0  0
 11 13  1  0  0  0
 13 16  1  0  0  0
 14 15  1  0  0  0
 15 18  2  0  0  0
 18 16  1  0  0  0
 18 17  1  0  0  0
 12 11  2  0  0  0
  1  4  1  0  0  0
 20 23  1  0  0  0
 20 24  1  0  0  0
 28 30  1  0  0  0
M  END
> <minimizedAffinity>
-8.44847

$$$$
3TT4_E1S_A_1


 30 31  0  0  0  0  0  0  0  0999 V2000
   -5.2576    8.4440  -15.7417 N   0  0  0  0  0  0  0  0  0  0  0  0
   -6.0079    9.7016  -15.6508 C   0  0  0  0  0  0  0  0  0  0  0  0
   -5.7173   10.6224  -16.3753 O   0  0  0  0  0  0  0  0  0  0  0  0
   -5.4842    7.7187  -15.1159 H   0  0  0  0  0  0  0  0  0  0  0  0
   -7.0712    9.8637  -14.5859 C   0  0  0  0  0  0  0  0  0  0  0  0
   -6.3593   10.1753  -13.2514 C   0  0  0  0  0  0  0  0  0  0  0  0
   -6.5949   11.6035  -12.8148 C   0  0  0  0  0  0  0  0  0  0  0  0
   -5.8702   12.6227  -13.4088 C   0  0  0  0  0  0  0  0  0  0  0  0
   -6.1516   14.0417  -12.9930 C   0  0  0  0  0  0  0  0  0  0  0  0
   -7.6319   11.8989  -11.7863 C   0  0  0  0  0  0  0  0  0  0  0  0
   -7.0950   14.2886  -12.0045 C   0  0  0  0  0  0  0  0  0  0  0  0
   -7.8750   13.1982  -11.4244 C   0  0  0  0  0  0  0  0  0  0  0  0
   -7.3630   15.7172  -11.5785 C   0  0  0  0  0  0  0  0  0  0  0  0
   -6.8312   16.9171  -12.1423 C   0  0  0  0  0  0  0  0  0  0  0  0
   -7.3478   18.0924  -11.4693 C   0  0  0  0  0  0  0  0  0  0  0  0
   -8.4856   16.0510  -10.2746 S   0  0  0  0  0  0  0  0  0  0  0  0
   -8.9546   18.6993   -9.5164 C   0  0  0  0  0  0  0  0  0  0  0  0
   -8.2443   17.7499  -10.4621 C   0  0  0  0  0  0  0  0  0  0  0  0
   -4.1894    8.2126  -16.7152 C   0  0  0  0  0  0  0  0  0  0  0  0
   -6.0412    7.0529  -17.8771 N   0  0  0  0  0  0  0  0  0  0  0  0
   -4.0674    6.9713  -18.7382 O   0  0  0  0  0  0  0  0  0  0  0  0
   -4.7746    7.3752  -17.8435 C   0  0  0  0  0  0  0  0  0  0  0  0
   -6.3914    6.5100  -18.6200 H   0  0  0  0  0  0  0  0  0  0  0  0
   -6.6448    7.3531  -17.1597 H   0  0  0  0  0  0  0  0  0  0  0  0
   -3.0035    7.5253  -16.0235 C   0  0  0  0  0  0  0  0  0  0  0  0
   -2.5881    8.3814  -14.8451 C   0  0  0  0  0  0  0  0  0  0  0  0
   -2.3276    9.8177  -15.1378 C   0  0  0  0  0  0  0  0  0  0  0  0
   -3.0814   10.7150  -14.6430 O   0  0  0  0  0  0  0  0  0  0  0  0
   -1.3525   10.1732  -15.8738 O   0  0  0  0  0  0  0  0  0  0  0  0
   -3.8043   10.4718  -14.0987 H   0  0  0  0  0  0  0  0  0  0  0  0
  2  5  1  0  0  0
  6  5  1  0  0  0
 19  1  1  0  0  0
  1  2  1  0  0  0
  2  3  2  0  0  0
 25 26  1  0  0  0
 25 19  1  0  0  0
 22 20  1  0  0  0
 27 26  1  0  0  0
 29 27  2  0  0  0
 27 28  1  0  0  0
 21 22  2  0  0  0
 22 19  1  0  0  0
  6  7  1  0  0  0
 10  7  2  0  0  0
  7  8  1  0  0  0
  8  9  2  0  0  0
 11  9  1  0  0  0
 10 12  1  0  0  0
 14 13  2  0  0  0
 11 13  1  0  0  0
 13 16  1  0  0  0
 14 15  1  0  0  0
 15 18  2  0  0  0
 18 16  1  0  0  0
 18 17  1  0  0  0
 12 11  2  0  0  0
  1  4  1  0  0  0
 20 23  1  0  0  0
 20 24  1  0  0  0
 28 30  1  0  0  0
M  END
> <minimizedAffinity>
-8.28818

$$$$
3TT4_E1S_A_1


 30 31  0  0  0  0  0  0  0  0999 V2000
   -3.2587   10.3093  -14.2239 N   0  0  0  0  0  0  0  0  0  0  0  0
   -4.4818    9.4994  -14.1955 C   0  0  0  0  0  0  0  0  0  0  0  0
   -4.4106    8.3215  -13.9418 O   0  0  0  0  0  0  0  0  0  0  0  0
   -3.3333   11.2594  -14.4709 H   0  0  0  0  0  0  0  0  0  0  0  0
   -5.8046   10.1274  -14.5789 C   0  0  0  0  0  0  0  0  0  0  0  0
   -6.6734   10.2132  -13.3051 C   0  0  0  0  0  0  0  0  0  0  0  0
   -6.8351   11.6415  -12.8364 C   0  0  0  0  0  0  0  0  0  0  0  0
   -6.0225   12.6268  -13.3709 C   0  0  0  0  0  0  0  0  0  0  0  0
   -6.2297   14.0495  -12.9251 C   0  0  0  0  0  0  0  0  0  0  0  0
   -7.8930   11.9761  -11.8417 C   0  0  0  0  0  0  0  0  0  0  0  0
   -7.1956   14.3308  -11.9680 C   0  0  0  0  0  0  0  0  0  0  0  0
   -8.0673   13.2784  -11.4518 C   0  0  0  0  0  0  0  0  0  0  0  0
   -7.3891   15.7619  -11.5112 C   0  0  0  0  0  0  0  0  0  0  0  0
   -6.8442   16.9499  -12.0874 C   0  0  0  0  0  0  0  0  0  0  0  0
   -7.2821   18.1333  -11.3740 C   0  0  0  0  0  0  0  0  0  0  0  0
   -8.4297   16.1170  -10.1463 S   0  0  0  0  0  0  0  0  0  0  0  0
   -8.7624   18.7694   -9.3324 C   0  0  0  0  0  0  0  0  0  0  0  0
   -8.1370   17.8087  -10.3255 C   0  0  0  0  0  0  0  0  0  0  0  0
   -1.9333    9.7771  -13.9040 C   0  0  0  0  0  0  0  0  0  0  0  0
   -0.9564    9.6478  -11.6339 N   0  0  0  0  0  0  0  0  0  0  0  0
   -1.7017   11.5452  -12.3328 O   0  0  0  0  0  0  0  0  0  0  0  0
   -1.5131   10.3735  -12.5681 C   0  0  0  0  0  0  0  0  0  0  0  0
   -0.6950   10.0614  -10.7795 H   0  0  0  0  0  0  0  0  0  0  0  0
   -0.7985    8.6878  -11.7847 H   0  0  0  0  0  0  0  0  0  0  0  0
   -0.9550   10.1183  -15.0370 C   0  0  0  0  0  0  0  0  0  0  0  0
   -0.1271    8.8840  -15.3287 C   0  0  0  0  0  0  0  0  0  0  0  0
   -0.8509    7.5838  -15.2851 C   0  0  0  0  0  0  0  0  0  0  0  0
   -2.0292    7.4950  -15.7562 O   0  0  0  0  0  0  0  0  0  0  0  0
   -0.3090    6.5451  -14.7887 O   0  0  0  0  0  0  0  0  0  0  0  0
   -2.4440    8.2496  -16.1258 H   0  0  0  0  0  0  0  0  0  0  0  0
  2  5  1  0  0  0
  6  5  1  0  0  0
 19  1  1  0  0  0
  1  2  1  0  0  0
  2  3  2  0  0  0
 25 26  1  0  0  0
 25 19  1  0  0  0
 22 20  1  0  0  0
 27 26  1  0  0  0
 29 27  2  0  0  0
 27 28  1  0  0  0
 21 22  2  0  0  0
 22 19  1  0  0  0
  6  7  1  0  0  0
 10  7  2  0  0  0
  7  8  1  0  0  0
  8  9  2  0  0  0
 11  9  1  0  0  0
 10 12  1  0  0  0
 14 13  2  0  0  0
 11 13  1  0  0  0
 13 16  1  0  0  0
 14 15  1  0  0  0
 15 18  2  0  0  0
 18 16  1  0  0  0
 18 17  1  0  0  0
 12 11  2  0  0  0
  1  4  1  0  0  0
 20 23  1  0  0  0
 20 24  1  0  0  0
 28 30  1  0  0  0
M  END
> <minimizedAffinity>
-8.27743

$$$$
3TT4_E1S_A_1


 30 31  0  0  0  0  0  0  0  0999 V2000
   -7.0453   14.6995  -11.7910 N   0  0  0  0  0  0  0  0  0  0  0  0
   -7.7945   13.4645  -11.5333 C   0  0  0  0  0  0  0  0  0  0  0  0
   -8.8686   13.5227  -10.9855 O   0  0  0  0  0  0  0  0  0  0  0  0
   -6.1542   14.6277  -12.2034 H   0  0  0  0  0  0  0  0  0  0  0  0
   -7.1707   12.1267  -11.8682 C   0  0  0  0  0  0  0  0  0  0  0  0
   -5.9267   12.3918  -12.7439 C   0  0  0  0  0  0  0  0  0  0  0  0
   -5.7423   11.3155  -13.7896 C   0  0  0  0  0  0  0  0  0  0  0  0
   -5.3712   11.6744  -15.0743 C   0  0  0  0  0  0  0  0  0  0  0  0
   -5.1483   10.5851  -16.0889 C   0  0  0  0  0  0  0  0  0  0  0  0
   -5.9183    9.8842  -13.4140 C   0  0  0  0  0  0  0  0  0  0  0  0
   -5.3565    9.2612  -15.7255 C   0  0  0  0  0  0  0  0  0  0  0  0
   -5.7070    8.9077  -14.3522 C   0  0  0  0  0  0  0  0  0  0  0  0
   -5.1462    8.1701  -16.7548 C   0  0  0  0  0  0  0  0  0  0  0  0
   -4.2145    7.0882  -16.7111 C   0  0  0  0  0  0  0  0  0  0  0  0
   -4.3350    6.2384  -17.8792 C   0  0  0  0  0  0  0  0  0  0  0  0
   -6.1504    8.1086  -18.1900 S   0  0  0  0  0  0  0  0  0  0  0  0
   -5.7328    6.0809  -20.0668 C   0  0  0  0  0  0  0  0  0  0  0  0
   -5.3410    6.6832  -18.7311 C   0  0  0  0  0  0  0  0  0  0  0  0
   -7.5546   16.0326  -11.4663 C   0  0  0  0  0  0  0  0  0  0  0  0
   -6.2091   17.3050  -13.1079 N   0  0  0  0  0  0  0  0  0  0  0  0
   -5.8367   17.6094  -11.0073 O   0  0  0  0  0  0  0  0  0  0  0  0
   -6.4811   17.0383  -11.8572 C   0  0  0  0  0  0  0  0  0  0  0  0
   -5.5090   17.9605  -13.3304 H   0  0  0  0  0  0  0  0  0  0  0  0
   -6.7043   16.8504  -13.8271 H   0  0  0  0  0  0  0  0  0  0  0  0
   -7.9097   16.0979   -9.9740 C   0  0  0  0  0  0  0  0  0  0  0  0
   -9.1003   17.0207   -9.8157 C   0  0  0  0  0  0  0  0  0  0  0  0
   -8.7920   18.4347   -9.4665 C   0  0  0  0  0  0  0  0  0  0  0  0
   -8.3969   18.7291   -8.2938 O   0  0  0  0  0  0  0  0  0  0  0  0
   -8.9086   19.3655  -10.3262 O   0  0  0  0  0  0  0  0  0  0  0  0
   -8.3051   18.0567   -7.6477 H   0  0  0  0  0  0  0  0  0  0  0  0
  2  5  1  0  0  0
  6  5  1  0  0  0
 19  1  1  0  0  0
  1  2  1  0  0  0
  2  3  2  0  0  0
 25 26  1  0  0  0
 25 19  1  0  0  0
 22 20  1  0  0  0
 27 26  1  0  0  0
 29 27  2  0  0  0
 27 28  1  0  0  0
 21 22  2  0  0  0
 22 19  1  0  0  0
  6  7  1  0  0  0
 10  7  2  0  0  0
  7  8  1  0  0  0
  8  9  2  0  0  0
 11  9  1  0  0  0
 10 12  1  0  0  0
 14 13  2  0  0  0
 11 13  1  0  0  0
 13 16  1  0  0  0
 14 15  1  0  0  0
 15 18  2  0  0  0
 18 16  1  0  0  0
 18 17  1  0  0  0
 12 11  2  0  0  0
  1  4  1  0  0  0
 20 23  1  0  0  0
 20 24  1  0  0  0
 28 30  1  0  0  0
M  END
> <minimizedAffinity>
-8.19264

$$$$
3TT4_E1S_A_1


 30 31  0  0  0  0  0  0  0  0999 V2000
   -3.8677    9.7225  -16.0509 N   0  0  0  0  0  0  0  0  0  0  0  0
   -5.3026    9.9322  -16.2741 C   0  0  0  0  0  0  0  0  0  0  0  0
   -5.6698   10.5678  -17.2323 O   0  0  0  0  0  0  0  0  0  0  0  0
   -3.5871    9.2349  -15.2430 H   0  0  0  0  0  0  0  0  0  0  0  0
   -6.3002    9.4338  -15.2506 C   0  0  0  0  0  0  0  0  0  0  0  0
   -5.6949    9.6664  -13.8491 C   0  0  0  0  0  0  0  0  0  0  0  0
   -6.1540   10.9787  -13.2549 C   0  0  0  0  0  0  0  0  0  0  0  0
   -5.5236   12.1519  -13.6330 C   0  0  0  0  0  0  0  0  0  0  0  0
   -6.0251   13.4525  -13.0652 C   0  0  0  0  0  0  0  0  0  0  0  0
   -7.3040   10.9971  -12.3075 C   0  0  0  0  0  0  0  0  0  0  0  0
   -7.0728   13.4404  -12.1540 C   0  0  0  0  0  0  0  0  0  0  0  0
   -7.7472   12.1927  -11.8047 C   0  0  0  0  0  0  0  0  0  0  0  0
   -7.5631   14.7507  -11.5736 C   0  0  0  0  0  0  0  0  0  0  0  0
   -8.5520   14.9487  -10.5620 C   0  0  0  0  0  0  0  0  0  0  0  0
   -8.7261   16.3558  -10.2602 C   0  0  0  0  0  0  0  0  0  0  0  0
   -6.8615   16.2663  -12.1054 S   0  0  0  0  0  0  0  0  0  0  0  0
   -7.7918   18.6636  -11.0119 C   0  0  0  0  0  0  0  0  0  0  0  0
   -7.8705   17.1490  -11.0180 C   0  0  0  0  0  0  0  0  0  0  0  0
   -2.8321   10.2012  -16.9677 C   0  0  0  0  0  0  0  0  0  0  0  0
   -2.4330    7.8857  -17.7448 N   0  0  0  0  0  0  0  0  0  0  0  0
   -2.6875    9.4408  -19.2148 O   0  0  0  0  0  0  0  0  0  0  0  0
   -2.6500    9.1399  -18.0435 C   0  0  0  0  0  0  0  0  0  0  0  0
   -2.3191    7.2214  -18.4624 H   0  0  0  0  0  0  0  0  0  0  0  0
   -2.3836    7.6056  -16.8023 H   0  0  0  0  0  0  0  0  0  0  0  0
   -1.5402   10.4767  -16.1853 C   0  0  0  0  0  0  0  0  0  0  0  0
   -1.7181    9.9359  -14.7818 C   0  0  0  0  0  0  0  0  0  0  0  0
   -1.2531    8.5402  -14.5532 C   0  0  0  0  0  0  0  0  0  0  0  0
   -2.0921    7.5842  -14.5373 O   0  0  0  0  0  0  0  0  0  0  0  0
   -0.0204    8.2773  -14.3790 O   0  0  0  0  0  0  0  0  0  0  0  0
   -3.0039    7.7590  -14.6639 H   0  0  0  0  0  0  0  0  0  0  0  0
  2  5  1  0  0  0
  6  5  1  0  0  0
 19  1  1  0  0  0
  1  2  1  0  0  0
  2  3  2  0  0  0
 25 26  1  0  0  0
 25 19  1  0  0  0
 22 20  1  0  0  0
 27 26  1  0  0  0
 29 27  2  0  0  0
 27 28  1  0  0  0
 21 22  2  0  0  0
 22 19  1  0  0  0
  6  7  1  0  0  0
 10  7  2  0  0  0
  7  8  1  0  0  0
  8  9  2  0  0  0
 11  9  1  0  0  0
 10 12  1  0  0  0
 14 13  2  0  0  0
 11 13  1  0  0  0
 13 16  1  0  0  0
 14 15  1  0  0  0
 15 18  2  0  0  0
 18 16  1  0  0  0
 18 17  1  0  0  0
 12 11  2  0  0  0
  1  4  1  0  0  0
 20 23  1  0  0  0
 20 24  1  0  0  0
 28 30  1  0  0  0
M  END
> <minimizedAffinity>
-8.11582

$$$$
