5U0Z_7PM_A_301


 27 29  0  0  0  0  0  0  0  0999 V2000
    6.0589   -4.1287   27.2349 C   0  0  0  0  0  0  0  0  0  0  0  0
    6.3125   -5.1733   26.3967 C   0  0  0  0  0  0  0  0  0  0  0  0
    4.9455   -3.7446   25.4796 C   0  0  0  0  0  0  0  0  0  0  0  0
    6.6779   -4.1013   28.5348 C   0  0  0  0  0  0  0  0  0  0  0  0
    7.6559   -6.2272   27.7645 C   0  0  0  0  0  0  0  0  0  0  0  0
    5.2087   -3.2224   26.6698 N   0  0  0  0  0  0  0  0  0  0  0  0
    7.0842   -6.2380   26.5917 N   0  0  0  0  0  0  0  0  0  0  0  0
    5.6026   -4.9206   25.2707 N   0  0  0  0  0  0  0  0  0  0  0  0
    7.4832   -5.2142   28.7134 N   0  0  0  0  0  0  0  0  0  0  0  0
    8.4826   -7.2304   28.1798 N   0  0  0  0  0  0  0  0  0  0  0  0
    6.5205   -3.2266   29.3715 O   0  0  0  0  0  0  0  0  0  0  0  0
    5.5682   -5.4777   24.4597 H   0  0  0  0  0  0  0  0  0  0  0  0
    7.9670   -5.2979   29.5667 H   0  0  0  0  0  0  0  0  0  0  0  0
    8.8970   -7.1892   29.0719 H   0  0  0  0  0  0  0  0  0  0  0  0
    8.6646   -7.9953   27.5874 H   0  0  0  0  0  0  0  0  0  0  0  0
    3.9101   -3.1301   24.1984 S   0  0  0  0  0  0  0  0  0  0  0  0
    4.7820   -1.5974   23.7585 C   0  0  0  0  0  0  0  0  0  0  0  0
    3.2795    0.1332   20.1444 C   0  0  0  0  0  0  0  0  0  0  0  0
    3.3783   -1.2415   20.2839 C   0  0  0  0  0  0  0  0  0  0  0  0
    3.6671    0.9622   21.1775 C   0  0  0  0  0  0  0  0  0  0  0  0
    3.8639   -1.7938   21.4530 C   0  0  0  0  0  0  0  0  0  0  0  0
    4.1529    0.4035   22.3460 C   0  0  0  0  0  0  0  0  0  0  0  0
    4.2587   -0.9745   22.4941 C   0  0  0  0  0  0  0  0  0  0  0  0
    6.2630   -1.9309   23.5044 C   0  0  0  0  0  0  0  0  0  0  0  0
    7.0377   -1.0193   23.8874 O   0  0  0  0  0  0  0  0  0  0  0  0
    6.5823   -3.0167   22.9382 O   0  0  0  0  0  0  0  0  0  0  0  0
    5.9179   -3.6302   22.6930 H   0  0  0  0  0  0  0  0  0  0  0  0
 25 24  2  0  0  0
 11  4  2  0  0  0
 24 26  1  0  0  0
 24 17  1  0  0  0
 21 19  2  0  0  0
 21 23  1  0  0  0
 19 18  1  0  0  0
 17 23  1  0  0  0
 17 16  1  0  0  0
  4  1  1  0  0  0
  4  9  1  0  0  0
 23 22  2  0  0  0
 18 20  2  0  0  0
  6  1  1  0  0  0
  6  3  2  0  0  0
 22 20  1  0  0  0
  1  2  2  0  0  0
  9  5  1  0  0  0
  3 16  1  0  0  0
  3  8  1  0  0  0
  2  8  1  0  0  0
  2  7  1  0  0  0
  5 10  1  0  0  0
  5  7  2  0  0  0
  8 12  1  0  0  0
  9 13  1  0  0  0
 10 14  1  0  0  0
 10 15  1  0  0  0
 26 27  1  0  0  0
M  END
> <minimizedAffinity>
-7.73085

$$$$
5U0Z_7PM_A_301


 27 29  0  0  0  0  0  0  0  0999 V2000
    9.4409    0.0883   24.6390 C   0  0  0  0  0  0  0  0  0  0  0  0
    9.6636   -0.0475   25.9769 C   0  0  0  0  0  0  0  0  0  0  0  0
    7.7998   -1.0127   25.3892 C   0  0  0  0  0  0  0  0  0  0  0  0
   10.3949    0.8071   23.8347 C   0  0  0  0  0  0  0  0  0  0  0  0
   11.5545    1.0526   25.9945 C   0  0  0  0  0  0  0  0  0  0  0  0
    8.2792   -0.5179   24.2561 N   0  0  0  0  0  0  0  0  0  0  0  0
   10.6783    0.4013   26.7090 N   0  0  0  0  0  0  0  0  0  0  0  0
    8.6135   -0.7590   26.4531 N   0  0  0  0  0  0  0  0  0  0  0  0
   11.4469    1.2581   24.6152 N   0  0  0  0  0  0  0  0  0  0  0  0
   12.6718    1.6104   26.5449 N   0  0  0  0  0  0  0  0  0  0  0  0
   10.2995    1.0005   22.6334 O   0  0  0  0  0  0  0  0  0  0  0  0
    8.4667   -1.0384   27.3857 H   0  0  0  0  0  0  0  0  0  0  0  0
   12.1681    1.7575   24.1684 H   0  0  0  0  0  0  0  0  0  0  0  0
   13.3118    2.0951   25.9751 H   0  0  0  0  0  0  0  0  0  0  0  0
   12.8378    1.5281   27.5118 H   0  0  0  0  0  0  0  0  0  0  0  0
    6.3197   -1.9192   25.6700 S   0  0  0  0  0  0  0  0  0  0  0  0
    6.2617   -2.9525   24.1761 C   0  0  0  0  0  0  0  0  0  0  0  0
    3.6778   -1.3135   21.1843 C   0  0  0  0  0  0  0  0  0  0  0  0
    3.9092   -0.6348   22.3696 C   0  0  0  0  0  0  0  0  0  0  0  0
    4.2835   -2.5325   20.9565 C   0  0  0  0  0  0  0  0  0  0  0  0
    4.7444   -1.1691   23.3312 C   0  0  0  0  0  0  0  0  0  0  0  0
    5.1188   -3.0629   21.9231 C   0  0  0  0  0  0  0  0  0  0  0  0
    5.3545   -2.3909   23.1168 C   0  0  0  0  0  0  0  0  0  0  0  0
    5.6940   -4.3321   24.5553 C   0  0  0  0  0  0  0  0  0  0  0  0
    4.6193   -4.2531   25.2008 O   0  0  0  0  0  0  0  0  0  0  0  0
    6.3191   -5.3859   24.2386 O   0  0  0  0  0  0  0  0  0  0  0  0
    7.1178   -5.3285   23.7522 H   0  0  0  0  0  0  0  0  0  0  0  0
 25 24  2  0  0  0
 11  4  2  0  0  0
 24 26  1  0  0  0
 24 17  1  0  0  0
 21 19  2  0  0  0
 21 23  1  0  0  0
 19 18  1  0  0  0
 17 23  1  0  0  0
 17 16  1  0  0  0
  4  1  1  0  0  0
  4  9  1  0  0  0
 23 22  2  0  0  0
 18 20  2  0  0  0
  6  1  1  0  0  0
  6  3  2  0  0  0
 22 20  1  0  0  0
  1  2  2  0  0  0
  9  5  1  0  0  0
  3 16  1  0  0  0
  3  8  1  0  0  0
  2  8  1  0  0  0
  2  7  1  0  0  0
  5 10  1  0  0  0
  5  7  2  0  0  0
  8 12  1  0  0  0
  9 13  1  0  0  0
 10 14  1  0  0  0
 10 15  1  0  0  0
 26 27  1  0  0  0
M  END
> <minimizedAffinity>
-7.69883

$$$$
5U0Z_7PM_A_301


 27 29  0  0  0  0  0  0  0  0999 V2000
    9.2216   -0.1271   24.6829 C   0  0  0  0  0  0  0  0  0  0  0  0
    9.4503   -0.1722   26.0260 C   0  0  0  0  0  0  0  0  0  0  0  0
    7.5248   -1.0633   25.5270 C   0  0  0  0  0  0  0  0  0  0  0  0
   10.2089    0.4668   23.8190 C   0  0  0  0  0  0  0  0  0  0  0  0
   11.4050    0.8073   25.9458 C   0  0  0  0  0  0  0  0  0  0  0  0
    8.0210   -0.6884   24.3557 N   0  0  0  0  0  0  0  0  0  0  0  0
   10.4986    0.2687   26.7144 N   0  0  0  0  0  0  0  0  0  0  0  0
    8.3641   -0.7784   26.5628 N   0  0  0  0  0  0  0  0  0  0  0  0
   11.2949    0.9113   24.5553 N   0  0  0  0  0  0  0  0  0  0  0  0
   12.5602    1.3361   26.4440 N   0  0  0  0  0  0  0  0  0  0  0  0
   10.1122    0.5718   22.6069 O   0  0  0  0  0  0  0  0  0  0  0  0
    8.2108   -0.9749   27.5152 H   0  0  0  0  0  0  0  0  0  0  0  0
   12.0403    1.3290   24.0664 H   0  0  0  0  0  0  0  0  0  0  0  0
   13.2223    1.7346   25.8341 H   0  0  0  0  0  0  0  0  0  0  0  0
   12.7315    1.3190   27.4133 H   0  0  0  0  0  0  0  0  0  0  0  0
    5.9953   -1.8521   25.8870 S   0  0  0  0  0  0  0  0  0  0  0  0
    6.5770   -3.4008   26.6394 C   0  0  0  0  0  0  0  0  0  0  0  0
    5.4746   -6.8275   24.3251 C   0  0  0  0  0  0  0  0  0  0  0  0
    5.0743   -5.5571   23.9446 C   0  0  0  0  0  0  0  0  0  0  0  0
    6.2384   -7.0000   25.4616 C   0  0  0  0  0  0  0  0  0  0  0  0
    5.4335   -4.4551   24.6958 C   0  0  0  0  0  0  0  0  0  0  0  0
    6.5951   -5.8928   26.2102 C   0  0  0  0  0  0  0  0  0  0  0  0
    6.1954   -4.6145   25.8383 C   0  0  0  0  0  0  0  0  0  0  0  0
    5.9112   -3.5568   28.0185 C   0  0  0  0  0  0  0  0  0  0  0  0
    6.7420   -3.5557   28.9606 O   0  0  0  0  0  0  0  0  0  0  0  0
    4.6564   -3.6953   28.1068 O   0  0  0  0  0  0  0  0  0  0  0  0
    4.1278   -3.6803   27.3333 H   0  0  0  0  0  0  0  0  0  0  0  0
 25 24  2  0  0  0
 11  4  2  0  0  0
 24 26  1  0  0  0
 24 17  1  0  0  0
 21 19  2  0  0  0
 21 23  1  0  0  0
 19 18  1  0  0  0
 17 23  1  0  0  0
 17 16  1  0  0  0
  4  1  1  0  0  0
  4  9  1  0  0  0
 23 22  2  0  0  0
 18 20  2  0  0  0
  6  1  1  0  0  0
  6  3  2  0  0  0
 22 20  1  0  0  0
  1  2  2  0  0  0
  9  5  1  0  0  0
  3 16  1  0  0  0
  3  8  1  0  0  0
  2  8  1  0  0  0
  2  7  1  0  0  0
  5 10  1  0  0  0
  5  7  2  0  0  0
  8 12  1  0  0  0
  9 13  1  0  0  0
 10 14  1  0  0  0
 10 15  1  0  0  0
 26 27  1  0  0  0
M  END
> <minimizedAffinity>
-7.54389

$$$$
5U0Z_7PM_A_301


 27 29  0  0  0  0  0  0  0  0999 V2000
    6.4445   -5.3945   26.9482 C   0  0  0  0  0  0  0  0  0  0  0  0
    5.8019   -4.1940   26.8854 C   0  0  0  0  0  0  0  0  0  0  0  0
    5.6953   -5.2424   24.9774 C   0  0  0  0  0  0  0  0  0  0  0  0
    7.0755   -5.7931   28.1797 C   0  0  0  0  0  0  0  0  0  0  0  0
    6.2149   -3.6189   28.9554 C   0  0  0  0  0  0  0  0  0  0  0  0
    6.3796   -6.0650   25.7608 N   0  0  0  0  0  0  0  0  0  0  0  0
    5.6515   -3.2718   27.8309 N   0  0  0  0  0  0  0  0  0  0  0  0
    5.3176   -4.1028   25.6233 N   0  0  0  0  0  0  0  0  0  0  0  0
    6.8994   -4.8226   29.1524 N   0  0  0  0  0  0  0  0  0  0  0  0
    6.1928   -2.8154   30.0583 N   0  0  0  0  0  0  0  0  0  0  0  0
    7.6851   -6.8362   28.3533 O   0  0  0  0  0  0  0  0  0  0  0  0
    4.7948   -3.3587   25.2462 H   0  0  0  0  0  0  0  0  0  0  0  0
    7.2824   -4.9917   30.0435 H   0  0  0  0  0  0  0  0  0  0  0  0
    6.6287   -3.1098   30.8906 H   0  0  0  0  0  0  0  0  0  0  0  0
    5.7411   -1.9415   30.0217 H   0  0  0  0  0  0  0  0  0  0  0  0
    5.2314   -5.4378   23.2929 S   0  0  0  0  0  0  0  0  0  0  0  0
    5.1824   -3.7049   22.7475 C   0  0  0  0  0  0  0  0  0  0  0  0
    3.3277   -3.2759   18.9147 C   0  0  0  0  0  0  0  0  0  0  0  0
    3.8065   -4.5055   19.3365 C   0  0  0  0  0  0  0  0  0  0  0  0
    3.4452   -2.1709   19.7334 C   0  0  0  0  0  0  0  0  0  0  0  0
    4.4040   -4.6374   20.5747 C   0  0  0  0  0  0  0  0  0  0  0  0
    4.0446   -2.3089   20.9724 C   0  0  0  0  0  0  0  0  0  0  0  0
    4.5309   -3.5378   21.4029 C   0  0  0  0  0  0  0  0  0  0  0  0
    6.6275   -3.1949   22.6027 C   0  0  0  0  0  0  0  0  0  0  0  0
    6.9079   -2.2919   23.4297 O   0  0  0  0  0  0  0  0  0  0  0  0
    7.3809   -3.6662   21.7018 O   0  0  0  0  0  0  0  0  0  0  0  0
    7.0669   -4.3435   21.1355 H   0  0  0  0  0  0  0  0  0  0  0  0
 25 24  2  0  0  0
 11  4  2  0  0  0
 24 26  1  0  0  0
 24 17  1  0  0  0
 21 19  2  0  0  0
 21 23  1  0  0  0
 19 18  1  0  0  0
 17 23  1  0  0  0
 17 16  1  0  0  0
  4  1  1  0  0  0
  4  9  1  0  0  0
 23 22  2  0  0  0
 18 20  2  0  0  0
  6  1  1  0  0  0
  6  3  2  0  0  0
 22 20  1  0  0  0
  1  2  2  0  0  0
  9  5  1  0  0  0
  3 16  1  0  0  0
  3  8  1  0  0  0
  2  8  1  0  0  0
  2  7  1  0  0  0
  5 10  1  0  0  0
  5  7  2  0  0  0
  8 12  1  0  0  0
  9 13  1  0  0  0
 10 14  1  0  0  0
 10 15  1  0  0  0
 26 27  1  0  0  0
M  END
> <minimizedAffinity>
-7.19115

$$$$
5U0Z_7PM_A_301


 27 29  0  0  0  0  0  0  0  0999 V2000
    6.4059   -2.1825   26.2558 C   0  0  0  0  0  0  0  0  0  0  0  0
    6.9330   -1.6477   25.1182 C   0  0  0  0  0  0  0  0  0  0  0  0
    5.0993   -2.7464   24.6927 C   0  0  0  0  0  0  0  0  0  0  0  0
    7.0805   -1.9750   27.5110 C   0  0  0  0  0  0  0  0  0  0  0  0
    8.6578   -0.7206   26.0939 C   0  0  0  0  0  0  0  0  0  0  0  0
    5.2526   -2.8683   26.0043 N   0  0  0  0  0  0  0  0  0  0  0  0
    8.0356   -0.9210   24.9647 N   0  0  0  0  0  0  0  0  0  0  0  0
    6.0899   -2.0055   24.1198 N   0  0  0  0  0  0  0  0  0  0  0  0
    8.2207   -1.2094   27.3293 N   0  0  0  0  0  0  0  0  0  0  0  0
    9.8200   -0.0090   26.1676 N   0  0  0  0  0  0  0  0  0  0  0  0
    6.7106   -2.4101   28.5897 O   0  0  0  0  0  0  0  0  0  0  0  0
    6.1759   -1.7752   23.1665 H   0  0  0  0  0  0  0  0  0  0  0  0
    8.7602   -0.9946   28.1243 H   0  0  0  0  0  0  0  0  0  0  0  0
   10.2624    0.1225   27.0372 H   0  0  0  0  0  0  0  0  0  0  0  0
   10.2159    0.3730   25.3511 H   0  0  0  0  0  0  0  0  0  0  0  0
    3.8314   -3.3855   23.6558 S   0  0  0  0  0  0  0  0  0  0  0  0
    4.0368   -2.3435   22.1811 C   0  0  0  0  0  0  0  0  0  0  0  0
    2.7052    1.6827   22.7557 C   0  0  0  0  0  0  0  0  0  0  0  0
    3.7701    1.4019   21.9154 C   0  0  0  0  0  0  0  0  0  0  0  0
    2.0597    0.6589   23.4190 C   0  0  0  0  0  0  0  0  0  0  0  0
    4.1950    0.1002   21.7341 C   0  0  0  0  0  0  0  0  0  0  0  0
    2.4896   -0.6428   23.2337 C   0  0  0  0  0  0  0  0  0  0  0  0
    3.5592   -0.9341   22.3952 C   0  0  0  0  0  0  0  0  0  0  0  0
    3.1818   -2.9296   21.0431 C   0  0  0  0  0  0  0  0  0  0  0  0
    2.2822   -3.7006   21.4606 O   0  0  0  0  0  0  0  0  0  0  0  0
    3.4405   -2.6392   19.8389 O   0  0  0  0  0  0  0  0  0  0  0  0
    4.1396   -2.0481   19.6394 H   0  0  0  0  0  0  0  0  0  0  0  0
 25 24  2  0  0  0
 11  4  2  0  0  0
 24 26  1  0  0  0
 24 17  1  0  0  0
 21 19  2  0  0  0
 21 23  1  0  0  0
 19 18  1  0  0  0
 17 23  1  0  0  0
 17 16  1  0  0  0
  4  1  1  0  0  0
  4  9  1  0  0  0
 23 22  2  0  0  0
 18 20  2  0  0  0
  6  1  1  0  0  0
  6  3  2  0  0  0
 22 20  1  0  0  0
  1  2  2  0  0  0
  9  5  1  0  0  0
  3 16  1  0  0  0
  3  8  1  0  0  0
  2  8  1  0  0  0
  2  7  1  0  0  0
  5 10  1  0  0  0
  5  7  2  0  0  0
  8 12  1  0  0  0
  9 13  1  0  0  0
 10 14  1  0  0  0
 10 15  1  0  0  0
 26 27  1  0  0  0
M  END
> <minimizedAffinity>
-7.03413

$$$$
5U0Z_7PM_A_301


 27 29  0  0  0  0  0  0  0  0999 V2000
    5.4883   -3.4004   26.6472 C   0  0  0  0  0  0  0  0  0  0  0  0
    4.6076   -4.4118   26.8910 C   0  0  0  0  0  0  0  0  0  0  0  0
    4.0746   -3.3267   25.0774 C   0  0  0  0  0  0  0  0  0  0  0  0
    6.5836   -3.1844   27.5568 C   0  0  0  0  0  0  0  0  0  0  0  0
    5.5786   -5.1071   28.7241 C   0  0  0  0  0  0  0  0  0  0  0  0
    5.1696   -2.7163   25.5096 N   0  0  0  0  0  0  0  0  0  0  0  0
    4.5901   -5.2868   27.8917 N   0  0  0  0  0  0  0  0  0  0  0  0
    3.7070   -4.3657   25.8799 N   0  0  0  0  0  0  0  0  0  0  0  0
    6.5509   -4.1112   28.5859 N   0  0  0  0  0  0  0  0  0  0  0  0
    5.7477   -5.8866   29.8315 N   0  0  0  0  0  0  0  0  0  0  0  0
    7.4271   -2.3089   27.4481 O   0  0  0  0  0  0  0  0  0  0  0  0
    2.9373   -4.9656   25.7499 H   0  0  0  0  0  0  0  0  0  0  0  0
    7.2607   -4.0657   29.2666 H   0  0  0  0  0  0  0  0  0  0  0  0
    6.5056   -5.7222   30.4380 H   0  0  0  0  0  0  0  0  0  0  0  0
    5.1119   -6.6132   30.0238 H   0  0  0  0  0  0  0  0  0  0  0  0
    3.0931   -2.9812   23.6603 S   0  0  0  0  0  0  0  0  0  0  0  0
    4.3691   -2.4483   22.4810 C   0  0  0  0  0  0  0  0  0  0  0  0
    3.3033    1.1354   20.3990 C   0  0  0  0  0  0  0  0  0  0  0  0
    3.8529    1.1910   21.6694 C   0  0  0  0  0  0  0  0  0  0  0  0
    3.0938   -0.0850   19.7895 C   0  0  0  0  0  0  0  0  0  0  0  0
    4.1949    0.0307   22.3360 C   0  0  0  0  0  0  0  0  0  0  0  0
    3.4381   -1.2438   20.4619 C   0  0  0  0  0  0  0  0  0  0  0  0
    3.9871   -1.1983   21.7381 C   0  0  0  0  0  0  0  0  0  0  0  0
    4.5504   -3.5511   21.4226 C   0  0  0  0  0  0  0  0  0  0  0  0
    5.6935   -3.5398   20.9018 O   0  0  0  0  0  0  0  0  0  0  0  0
    3.5916   -4.3282   21.1432 O   0  0  0  0  0  0  0  0  0  0  0  0
    2.7759   -4.2479   21.5972 H   0  0  0  0  0  0  0  0  0  0  0  0
 25 24  2  0  0  0
 11  4  2  0  0  0
 24 26  1  0  0  0
 24 17  1  0  0  0
 21 19  2  0  0  0
 21 23  1  0  0  0
 19 18  1  0  0  0
 17 23  1  0  0  0
 17 16  1  0  0  0
  4  1  1  0  0  0
  4  9  1  0  0  0
 23 22  2  0  0  0
 18 20  2  0  0  0
  6  1  1  0  0  0
  6  3  2  0  0  0
 22 20  1  0  0  0
  1  2  2  0  0  0
  9  5  1  0  0  0
  3 16  1  0  0  0
  3  8  1  0  0  0
  2  8  1  0  0  0
  2  7  1  0  0  0
  5 10  1  0  0  0
  5  7  2  0  0  0
  8 12  1  0  0  0
  9 13  1  0  0  0
 10 14  1  0  0  0
 10 15  1  0  0  0
 26 27  1  0  0  0
M  END
> <minimizedAffinity>
-6.83059

$$$$
5U0Z_7PM_A_301


 27 29  0  0  0  0  0  0  0  0999 V2000
   10.0832   -0.0281   25.8595 C   0  0  0  0  0  0  0  0  0  0  0  0
    9.1160    0.2975   24.9559 C   0  0  0  0  0  0  0  0  0  0  0  0
    8.3103   -0.9456   26.5547 C   0  0  0  0  0  0  0  0  0  0  0  0
   11.4262    0.4513   25.6586 C   0  0  0  0  0  0  0  0  0  0  0  0
   10.4227    1.4752   23.6551 C   0  0  0  0  0  0  0  0  0  0  0  0
    9.5902   -0.8017   26.8705 N   0  0  0  0  0  0  0  0  0  0  0  0
    9.2120    1.0297   23.8505 N   0  0  0  0  0  0  0  0  0  0  0  0
    7.9801   -0.2865   25.4079 N   0  0  0  0  0  0  0  0  0  0  0  0
   11.5016    1.2178   24.5072 N   0  0  0  0  0  0  0  0  0  0  0  0
   10.7506    2.2397   22.5732 N   0  0  0  0  0  0  0  0  0  0  0  0
   12.3739    0.2190   26.3918 O   0  0  0  0  0  0  0  0  0  0  0  0
    7.0899   -0.2434   24.9898 H   0  0  0  0  0  0  0  0  0  0  0  0
   12.3744    1.6082   24.2726 H   0  0  0  0  0  0  0  0  0  0  0  0
   11.6748    2.5586   22.4578 H   0  0  0  0  0  0  0  0  0  0  0  0
   10.0629    2.4723   21.9082 H   0  0  0  0  0  0  0  0  0  0  0  0
    7.0483   -1.8322   27.3987 S   0  0  0  0  0  0  0  0  0  0  0  0
    6.7049   -3.1593   26.2056 C   0  0  0  0  0  0  0  0  0  0  0  0
    4.6020   -1.8062   22.7327 C   0  0  0  0  0  0  0  0  0  0  0  0
    5.6213   -2.7381   22.6254 C   0  0  0  0  0  0  0  0  0  0  0  0
    4.2532   -1.3031   23.9697 C   0  0  0  0  0  0  0  0  0  0  0  0
    6.2961   -3.1709   23.7501 C   0  0  0  0  0  0  0  0  0  0  0  0
    4.9325   -1.7400   25.0927 C   0  0  0  0  0  0  0  0  0  0  0  0
    5.9588   -2.6723   24.9945 C   0  0  0  0  0  0  0  0  0  0  0  0
    5.8057   -4.2085   26.8838 C   0  0  0  0  0  0  0  0  0  0  0  0
    5.1948   -3.7510   27.8816 O   0  0  0  0  0  0  0  0  0  0  0  0
    5.7640   -5.3928   26.4398 O   0  0  0  0  0  0  0  0  0  0  0  0
    6.2636   -5.6271   25.6826 H   0  0  0  0  0  0  0  0  0  0  0  0
 25 24  2  0  0  0
 11  4  2  0  0  0
 24 26  1  0  0  0
 24 17  1  0  0  0
 21 19  2  0  0  0
 21 23  1  0  0  0
 19 18  1  0  0  0
 17 23  1  0  0  0
 17 16  1  0  0  0
  4  1  1  0  0  0
  4  9  1  0  0  0
 23 22  2  0  0  0
 18 20  2  0  0  0
  6  1  1  0  0  0
  6  3  2  0  0  0
 22 20  1  0  0  0
  1  2  2  0  0  0
  9  5  1  0  0  0
  3 16  1  0  0  0
  3  8  1  0  0  0
  2  8  1  0  0  0
  2  7  1  0  0  0
  5 10  1  0  0  0
  5  7  2  0  0  0
  8 12  1  0  0  0
  9 13  1  0  0  0
 10 14  1  0  0  0
 10 15  1  0  0  0
 26 27  1  0  0  0
M  END
> <minimizedAffinity>
-6.79359

$$$$
5U0Z_7PM_A_301


 27 29  0  0  0  0  0  0  0  0999 V2000
    4.9102   -4.1637   23.9595 C   0  0  0  0  0  0  0  0  0  0  0  0
    3.7835   -3.8574   24.6629 C   0  0  0  0  0  0  0  0  0  0  0  0
    3.4115   -3.7906   22.5164 C   0  0  0  0  0  0  0  0  0  0  0  0
    6.1248   -4.4677   24.6709 C   0  0  0  0  0  0  0  0  0  0  0  0
    4.6992   -4.0640   26.6392 C   0  0  0  0  0  0  0  0  0  0  0  0
    4.6893   -4.1321   22.6128 N   0  0  0  0  0  0  0  0  0  0  0  0
    3.6082   -3.7878   25.9789 N   0  0  0  0  0  0  0  0  0  0  0  0
    2.8237   -3.6253   23.7353 N   0  0  0  0  0  0  0  0  0  0  0  0
    5.9176   -4.3977   26.0388 N   0  0  0  0  0  0  0  0  0  0  0  0
    4.7495   -4.0413   28.0027 N   0  0  0  0  0  0  0  0  0  0  0  0
    7.1938   -4.7467   24.1521 O   0  0  0  0  0  0  0  0  0  0  0  0
    1.8849   -3.3843   23.9078 H   0  0  0  0  0  0  0  0  0  0  0  0
    6.6802   -4.5964   26.6289 H   0  0  0  0  0  0  0  0  0  0  0  0
    5.5903   -4.2553   28.4679 H   0  0  0  0  0  0  0  0  0  0  0  0
    3.9449   -3.8109   28.5212 H   0  0  0  0  0  0  0  0  0  0  0  0
    2.4299   -3.5462   21.0783 S   0  0  0  0  0  0  0  0  0  0  0  0
    3.2337   -2.0835   20.3591 C   0  0  0  0  0  0  0  0  0  0  0  0
    2.4595    1.5133   22.5448 C   0  0  0  0  0  0  0  0  0  0  0  0
    3.7360    1.2190   22.0942 C   0  0  0  0  0  0  0  0  0  0  0  0
    1.4190    0.6430   22.2902 C   0  0  0  0  0  0  0  0  0  0  0  0
    3.9793    0.0565   21.3892 C   0  0  0  0  0  0  0  0  0  0  0  0
    1.6686   -0.5199   21.5838 C   0  0  0  0  0  0  0  0  0  0  0  0
    2.9466   -0.8253   21.1305 C   0  0  0  0  0  0  0  0  0  0  0  0
    2.6780   -1.8661   18.9402 C   0  0  0  0  0  0  0  0  0  0  0  0
    2.7917   -0.6768   18.5521 O   0  0  0  0  0  0  0  0  0  0  0  0
    2.1517   -2.8284   18.3090 O   0  0  0  0  0  0  0  0  0  0  0  0
    2.1202   -3.6811   18.6960 H   0  0  0  0  0  0  0  0  0  0  0  0
 25 24  2  0  0  0
 11  4  2  0  0  0
 24 26  1  0  0  0
 24 17  1  0  0  0
 21 19  2  0  0  0
 21 23  1  0  0  0
 19 18  1  0  0  0
 17 23  1  0  0  0
 17 16  1  0  0  0
  4  1  1  0  0  0
  4  9  1  0  0  0
 23 22  2  0  0  0
 18 20  2  0  0  0
  6  1  1  0  0  0
  6  3  2  0  0  0
 22 20  1  0  0  0
  1  2  2  0  0  0
  9  5  1  0  0  0
  3 16  1  0  0  0
  3  8  1  0  0  0
  2  8  1  0  0  0
  2  7  1  0  0  0
  5 10  1  0  0  0
  5  7  2  0  0  0
  8 12  1  0  0  0
  9 13  1  0  0  0
 10 14  1  0  0  0
 10 15  1  0  0  0
 26 27  1  0  0  0
M  END
> <minimizedAffinity>
-6.65575

$$$$
5U0Z_7PM_A_301


 27 29  0  0  0  0  0  0  0  0999 V2000
    6.7744   -1.8068   25.6357 C   0  0  0  0  0  0  0  0  0  0  0  0
    7.2214   -1.3489   24.4321 C   0  0  0  0  0  0  0  0  0  0  0  0
    5.4429   -2.5856   24.1903 C   0  0  0  0  0  0  0  0  0  0  0  0
    7.4851   -1.4469   26.8353 C   0  0  0  0  0  0  0  0  0  0  0  0
    8.9240   -0.2387   25.2416 C   0  0  0  0  0  0  0  0  0  0  0  0
    5.6562   -2.5779   25.4991 N   0  0  0  0  0  0  0  0  0  0  0  0
    8.2702   -0.5771   24.1644 N   0  0  0  0  0  0  0  0  0  0  0  0
    6.3623   -1.8444   23.5091 N   0  0  0  0  0  0  0  0  0  0  0  0
    8.5678   -0.6368   26.5343 N   0  0  0  0  0  0  0  0  0  0  0  0
   10.0422    0.5423   25.1985 N   0  0  0  0  0  0  0  0  0  0  0  0
    7.1864   -1.8020   27.9642 O   0  0  0  0  0  0  0  0  0  0  0  0
    6.3954   -1.6978   22.5361 H   0  0  0  0  0  0  0  0  0  0  0  0
    9.1247   -0.3195   27.2816 H   0  0  0  0  0  0  0  0  0  0  0  0
   10.5104    0.7780   26.0319 H   0  0  0  0  0  0  0  0  0  0  0  0
   10.3807    0.8700   24.3341 H   0  0  0  0  0  0  0  0  0  0  0  0
    4.1759   -3.3887   23.2734 S   0  0  0  0  0  0  0  0  0  0  0  0
    5.1190   -3.9941   21.8428 C   0  0  0  0  0  0  0  0  0  0  0  0
    2.6937   -6.3008   19.1762 C   0  0  0  0  0  0  0  0  0  0  0  0
    2.1744   -5.8149   20.3651 C   0  0  0  0  0  0  0  0  0  0  0  0
    4.0069   -6.0427   18.8391 C   0  0  0  0  0  0  0  0  0  0  0  0
    2.9624   -5.0709   21.2214 C   0  0  0  0  0  0  0  0  0  0  0  0
    4.7915   -5.2972   19.7006 C   0  0  0  0  0  0  0  0  0  0  0  0
    4.2803   -4.8082   20.8971 C   0  0  0  0  0  0  0  0  0  0  0  0
    6.2374   -4.9225   22.3496 C   0  0  0  0  0  0  0  0  0  0  0  0
    7.3848   -4.4491   22.1568 O   0  0  0  0  0  0  0  0  0  0  0  0
    5.9497   -6.0408   22.8673 O   0  0  0  0  0  0  0  0  0  0  0  0
    5.0532   -6.2956   22.9639 H   0  0  0  0  0  0  0  0  0  0  0  0
 25 24  2  0  0  0
 11  4  2  0  0  0
 24 26  1  0  0  0
 24 17  1  0  0  0
 21 19  2  0  0  0
 21 23  1  0  0  0
 19 18  1  0  0  0
 17 23  1  0  0  0
 17 16  1  0  0  0
  4  1  1  0  0  0
  4  9  1  0  0  0
 23 22  2  0  0  0
 18 20  2  0  0  0
  6  1  1  0  0  0
  6  3  2  0  0  0
 22 20  1  0  0  0
  1  2  2  0  0  0
  9  5  1  0  0  0
  3 16  1  0  0  0
  3  8  1  0  0  0
  2  8  1  0  0  0
  2  7  1  0  0  0
  5 10  1  0  0  0
  5  7  2  0  0  0
  8 12  1  0  0  0
  9 13  1  0  0  0
 10 14  1  0  0  0
 10 15  1  0  0  0
 26 27  1  0  0  0
M  END
> <minimizedAffinity>
-6.54142

$$$$
5U0Z_7PM_A_301


 27 29  0  0  0  0  0  0  0  0999 V2000
    4.8574   -3.9894   26.4256 C   0  0  0  0  0  0  0  0  0  0  0  0
    5.6394   -2.9658   26.8714 C   0  0  0  0  0  0  0  0  0  0  0  0
    4.9367   -2.5908   24.8426 C   0  0  0  0  0  0  0  0  0  0  0  0
    4.6125   -5.1168   27.2874 C   0  0  0  0  0  0  0  0  0  0  0  0
    6.0380   -3.8384   28.8377 C   0  0  0  0  0  0  0  0  0  0  0  0
    4.4047   -3.7641   25.1575 N   0  0  0  0  0  0  0  0  0  0  0  0
    6.2524   -2.8263   28.0427 N   0  0  0  0  0  0  0  0  0  0  0  0
    5.6827   -2.0687   25.8571 N   0  0  0  0  0  0  0  0  0  0  0  0
    5.2529   -4.9468   28.5040 N   0  0  0  0  0  0  0  0  0  0  0  0
    6.5812   -3.9094   30.0876 N   0  0  0  0  0  0  0  0  0  0  0  0
    3.9390   -6.0923   26.9966 O   0  0  0  0  0  0  0  0  0  0  0  0
    6.1598   -1.2075   25.8534 H   0  0  0  0  0  0  0  0  0  0  0  0
    5.1481   -5.6548   29.1801 H   0  0  0  0  0  0  0  0  0  0  0  0
    6.3978   -4.6887   30.6605 H   0  0  0  0  0  0  0  0  0  0  0  0
    7.1564   -3.1812   30.4164 H   0  0  0  0  0  0  0  0  0  0  0  0
    4.7960   -1.6688   23.3522 S   0  0  0  0  0  0  0  0  0  0  0  0
    3.0425   -1.9294   22.9520 C   0  0  0  0  0  0  0  0  0  0  0  0
    2.3105   -1.8086   18.7373 C   0  0  0  0  0  0  0  0  0  0  0  0
    3.1037   -0.8500   19.3463 C   0  0  0  0  0  0  0  0  0  0  0  0
    1.7461   -2.8184   19.4901 C   0  0  0  0  0  0  0  0  0  0  0  0
    3.3362   -0.8946   20.7071 C   0  0  0  0  0  0  0  0  0  0  0  0
    1.9823   -2.8581   20.8525 C   0  0  0  0  0  0  0  0  0  0  0  0
    2.7740   -1.8988   21.4730 C   0  0  0  0  0  0  0  0  0  0  0  0
    2.2221   -0.7839   23.5719 C   0  0  0  0  0  0  0  0  0  0  0  0
    2.9279    0.2117   23.8695 O   0  0  0  0  0  0  0  0  0  0  0  0
    0.9775   -0.9203   23.7559 O   0  0  0  0  0  0  0  0  0  0  0  0
    0.5491   -1.7112   23.4936 H   0  0  0  0  0  0  0  0  0  0  0  0
 25 24  2  0  0  0
 11  4  2  0  0  0
 24 26  1  0  0  0
 24 17  1  0  0  0
 21 19  2  0  0  0
 21 23  1  0  0  0
 19 18  1  0  0  0
 17 23  1  0  0  0
 17 16  1  0  0  0
  4  1  1  0  0  0
  4  9  1  0  0  0
 23 22  2  0  0  0
 18 20  2  0  0  0
  6  1  1  0  0  0
  6  3  2  0  0  0
 22 20  1  0  0  0
  1  2  2  0  0  0
  9  5  1  0  0  0
  3 16  1  0  0  0
  3  8  1  0  0  0
  2  8  1  0  0  0
  2  7  1  0  0  0
  5 10  1  0  0  0
  5  7  2  0  0  0
  8 12  1  0  0  0
  9 13  1  0  0  0
 10 14  1  0  0  0
 10 15  1  0  0  0
 26 27  1  0  0  0
M  END
> <minimizedAffinity>
-6.53038

$$$$
