1BJV_GP8_A_900


 31 33  0  0  0  0  0  0  0  0999 V2000
   -0.3012   16.5153   19.5509 N   0  0  0  0  0  0  0  0  0  0  0  0
   -0.9512   16.6728   20.7126 C   0  0  0  0  0  0  0  0  0  0  0  0
   -2.0071   16.0640   20.9712 O   0  0  0  0  0  0  0  0  0  0  0  0
   -0.4270   17.5296   21.5851 N   0  0  0  0  0  0  0  0  0  0  0  0
    0.5584   16.9846   19.4509 H   0  0  0  0  0  0  0  0  0  0  0  0
    0.3915   18.0015   21.3085 H   0  0  0  0  0  0  0  0  0  0  0  0
   -1.5916   14.1953   16.3170 C   0  0  0  0  0  0  0  0  0  0  0  0
   -0.8872   13.6245   17.3905 C   0  0  0  0  0  0  0  0  0  0  0  0
   -0.4542   14.3941   18.4723 C   0  0  0  0  0  0  0  0  0  0  0  0
   -0.7202   15.7707   18.5062 C   0  0  0  0  0  0  0  0  0  0  0  0
   -1.4238   16.3742   17.4563 C   0  0  0  0  0  0  0  0  0  0  0  0
   -1.8489   15.5843   16.3840 C   0  0  0  0  0  0  0  0  0  0  0  0
   -1.4150   12.2274   14.9633 N   0  0  0  0  0  0  0  0  0  0  0  0
   -3.0801   13.7831   14.5110 N   0  0  0  0  0  0  0  0  0  0  0  0
   -1.9771   13.4200   15.1936 C   0  0  0  0  0  0  0  0  0  0  0  0
   -1.6894   11.6968   14.1807 H   0  0  0  0  0  0  0  0  0  0  0  0
   -0.7272   11.8807   15.5764 H   0  0  0  0  0  0  0  0  0  0  0  0
   -3.3683   13.2611   13.7276 H   0  0  0  0  0  0  0  0  0  0  0  0
   -0.9036   17.8102   22.7972 C   0  0  0  0  0  0  0  0  0  0  0  0
   -1.9422   18.7380   22.8689 C   0  0  0  0  0  0  0  0  0  0  0  0
   -2.5242   18.9765   24.1143 C   0  0  0  0  0  0  0  0  0  0  0  0
   -2.0661   18.2964   25.2583 C   0  0  0  0  0  0  0  0  0  0  0  0
   -1.0255   17.3640   25.1434 C   0  0  0  0  0  0  0  0  0  0  0  0
   -0.4289   17.1133   23.9013 C   0  0  0  0  0  0  0  0  0  0  0  0
   -2.6124   18.5346   26.4866 O   0  0  0  0  0  0  0  0  0  0  0  0
   -3.8192   18.1597   27.0007 C   0  0  0  0  0  0  0  0  0  0  0  0
   -4.4315   17.0201   26.4711 C   0  0  0  0  0  0  0  0  0  0  0  0
   -5.6605   16.5871   26.9665 C   0  0  0  0  0  0  0  0  0  0  0  0
   -6.2877   17.2890   27.9946 C   0  0  0  0  0  0  0  0  0  0  0  0
   -5.6862   18.4316   28.5253 C   0  0  0  0  0  0  0  0  0  0  0  0
   -4.4539   18.8700   28.0336 C   0  0  0  0  0  0  0  0  0  0  0  0
 13 15  1  0  0  0
 14 15  2  0  0  0
 15  7  1  0  0  0
  7  8  2  0  0  0
  7 12  1  0  0  0
  8  9  1  0  0  0
  9 10  2  0  0  0
 10 11  1  0  0  0
 10  1  1  0  0  0
 11 12  2  0  0  0
  1  2  1  0  0  0
  2  3  2  0  0  0
  2  4  1  0  0  0
  4 19  1  0  0  0
 19 20  2  0  0  0
 19 24  1  0  0  0
 20 21  1  0  0  0
 21 22  2  0  0  0
 22 23  1  0  0  0
 22 25  1  0  0  0
 23 24  2  0  0  0
 25 26  1  0  0  0
 26 27  2  0  0  0
 26 31  1  0  0  0
 27 28  1  0  0  0
 28 29  2  0  0  0
 29 30  1  0  0  0
 30 31  2  0  0  0
 13 16  1  0  0  0
 13 17  1  0  0  0
 14 18  1  0  0  0
  1  5  1  0  0  0
  4  6  1  0  0  0
M  END
> <minimizedAffinity>
-9.10132

$$$$
1BJV_GP8_A_900


 31 33  0  0  0  0  0  0  0  0999 V2000
   -0.1671   16.7301   19.2770 N   0  0  0  0  0  0  0  0  0  0  0  0
    0.6562   17.7702   19.0846 C   0  0  0  0  0  0  0  0  0  0  0  0
    1.0195   18.1289   17.9480 O   0  0  0  0  0  0  0  0  0  0  0  0
    1.0907   18.4040   20.1708 N   0  0  0  0  0  0  0  0  0  0  0  0
   -0.4554   16.5515   20.2013 H   0  0  0  0  0  0  0  0  0  0  0  0
    0.7914   18.0528   21.0405 H   0  0  0  0  0  0  0  0  0  0  0  0
   -1.6121   14.1640   16.3051 C   0  0  0  0  0  0  0  0  0  0  0  0
   -0.8349   13.6819   17.3718 C   0  0  0  0  0  0  0  0  0  0  0  0
   -0.3500   14.5339   18.3663 C   0  0  0  0  0  0  0  0  0  0  0  0
   -0.6361   15.9059   18.3167 C   0  0  0  0  0  0  0  0  0  0  0  0
   -1.4117   16.4224   17.2711 C   0  0  0  0  0  0  0  0  0  0  0  0
   -1.8877   15.5509   16.2870 C   0  0  0  0  0  0  0  0  0  0  0  0
   -3.0001   13.7000   14.4092 N   0  0  0  0  0  0  0  0  0  0  0  0
   -1.3348   12.1938   15.0055 N   0  0  0  0  0  0  0  0  0  0  0  0
   -2.0519   13.3038   15.2666 C   0  0  0  0  0  0  0  0  0  0  0  0
   -3.2986   13.0955   13.6917 H   0  0  0  0  0  0  0  0  0  0  0  0
   -3.3991   14.5958   14.4959 H   0  0  0  0  0  0  0  0  0  0  0  0
   -1.6195   11.5809   14.2896 H   0  0  0  0  0  0  0  0  0  0  0  0
    1.8918   19.4682   20.1944 C   0  0  0  0  0  0  0  0  0  0  0  0
    1.2806   20.7174   20.2981 C   0  0  0  0  0  0  0  0  0  0  0  0
    2.0994   21.8401   20.4229 C   0  0  0  0  0  0  0  0  0  0  0  0
    3.5003   21.7038   20.4398 C   0  0  0  0  0  0  0  0  0  0  0  0
    4.0765   20.4295   20.3424 C   0  0  0  0  0  0  0  0  0  0  0  0
    3.2696   19.2918   20.2150 C   0  0  0  0  0  0  0  0  0  0  0  0
    4.3141   22.7952   20.5411 O   0  0  0  0  0  0  0  0  0  0  0  0
    5.0084   23.4675   19.5783 C   0  0  0  0  0  0  0  0  0  0  0  0
    5.6986   24.6234   19.9547 C   0  0  0  0  0  0  0  0  0  0  0  0
    6.4321   25.3432   19.0127 C   0  0  0  0  0  0  0  0  0  0  0  0
    6.4819   24.9142   17.6873 C   0  0  0  0  0  0  0  0  0  0  0  0
    5.7906   23.7643   17.3014 C   0  0  0  0  0  0  0  0  0  0  0  0
    5.0546   23.0380   18.2412 C   0  0  0  0  0  0  0  0  0  0  0  0
 13 15  1  0  0  0
 14 15  2  0  0  0
 15  7  1  0  0  0
  7  8  2  0  0  0
  7 12  1  0  0  0
  8  9  1  0  0  0
  9 10  2  0  0  0
 10 11  1  0  0  0
 10  1  1  0  0  0
 11 12  2  0  0  0
  1  2  1  0  0  0
  2  3  2  0  0  0
  2  4  1  0  0  0
  4 19  1  0  0  0
 19 20  2  0  0  0
 19 24  1  0  0  0
 20 21  1  0  0  0
 21 22  2  0  0  0
 22 23  1  0  0  0
 22 25  1  0  0  0
 23 24  2  0  0  0
 25 26  1  0  0  0
 26 27  2  0  0  0
 26 31  1  0  0  0
 27 28  1  0  0  0
 28 29  2  0  0  0
 29 30  1  0  0  0
 30 31  2  0  0  0
 13 16  1  0  0  0
 13 17  1  0  0  0
 14 18  1  0  0  0
  1  5  1  0  0  0
  4  6  1  0  0  0
M  END
> <minimizedAffinity>
-8.00216

$$$$
1BJV_GP8_A_900


 31 33  0  0  0  0  0  0  0  0999 V2000
   -0.2230   16.4222   19.4772 N   0  0  0  0  0  0  0  0  0  0  0  0
   -0.8754   16.6433   20.6271 C   0  0  0  0  0  0  0  0  0  0  0  0
   -1.9778   16.1192   20.8772 O   0  0  0  0  0  0  0  0  0  0  0  0
   -0.3002   17.4693   21.4971 N   0  0  0  0  0  0  0  0  0  0  0  0
    0.6709   16.8240   19.3844 H   0  0  0  0  0  0  0  0  0  0  0  0
    0.5555   17.8746   21.2271 H   0  0  0  0  0  0  0  0  0  0  0  0
   -1.6398   14.1644   16.2521 C   0  0  0  0  0  0  0  0  0  0  0  0
   -0.9849   13.5575   17.3370 C   0  0  0  0  0  0  0  0  0  0  0  0
   -0.5101   14.3062   18.4159 C   0  0  0  0  0  0  0  0  0  0  0  0
   -0.6825   15.6978   18.4352 C   0  0  0  0  0  0  0  0  0  0  0  0
   -1.3346   16.3376   17.3736 C   0  0  0  0  0  0  0  0  0  0  0  0
   -1.8029   15.5682   16.3045 C   0  0  0  0  0  0  0  0  0  0  0  0
   -1.6887   12.1309   14.9877 N   0  0  0  0  0  0  0  0  0  0  0  0
   -3.0493   13.9051   14.3564 N   0  0  0  0  0  0  0  0  0  0  0  0
   -2.0672   13.4065   15.1321 C   0  0  0  0  0  0  0  0  0  0  0  0
   -1.9907   11.6132   14.2067 H   0  0  0  0  0  0  0  0  0  0  0  0
   -1.1081   11.7104   15.6625 H   0  0  0  0  0  0  0  0  0  0  0  0
   -3.3635   13.3979   13.5733 H   0  0  0  0  0  0  0  0  0  0  0  0
   -0.7710   17.8007   22.6985 C   0  0  0  0  0  0  0  0  0  0  0  0
   -1.6886   18.8496   22.7506 C   0  0  0  0  0  0  0  0  0  0  0  0
   -2.2701   19.1521   23.9823 C   0  0  0  0  0  0  0  0  0  0  0  0
   -1.9306   18.4149   25.1323 C   0  0  0  0  0  0  0  0  0  0  0  0
   -1.0104   17.3615   25.0370 C   0  0  0  0  0  0  0  0  0  0  0  0
   -0.4161   17.0451   23.8089 C   0  0  0  0  0  0  0  0  0  0  0  0
   -2.4763   18.7127   26.3477 O   0  0  0  0  0  0  0  0  0  0  0  0
   -2.4488   19.8734   27.0641 C   0  0  0  0  0  0  0  0  0  0  0  0
   -1.2128   20.3205   27.5401 C   0  0  0  0  0  0  0  0  0  0  0  0
   -1.1264   21.5055   28.2693 C   0  0  0  0  0  0  0  0  0  0  0  0
   -2.2739   22.2532   28.5290 C   0  0  0  0  0  0  0  0  0  0  0  0
   -3.5133   21.8109   28.0626 C   0  0  0  0  0  0  0  0  0  0  0  0
   -3.6061   20.6245   27.3303 C   0  0  0  0  0  0  0  0  0  0  0  0
 13 15  1  0  0  0
 14 15  2  0  0  0
 15  7  1  0  0  0
  7  8  2  0  0  0
  7 12  1  0  0  0
  8  9  1  0  0  0
  9 10  2  0  0  0
 10 11  1  0  0  0
 10  1  1  0  0  0
 11 12  2  0  0  0
  1  2  1  0  0  0
  2  3  2  0  0  0
  2  4  1  0  0  0
  4 19  1  0  0  0
 19 20  2  0  0  0
 19 24  1  0  0  0
 20 21  1  0  0  0
 21 22  2  0  0  0
 22 23  1  0  0  0
 22 25  1  0  0  0
 23 24  2  0  0  0
 25 26  1  0  0  0
 26 27  2  0  0  0
 26 31  1  0  0  0
 27 28  1  0  0  0
 28 29  2  0  0  0
 29 30  1  0  0  0
 30 31  2  0  0  0
 13 16  1  0  0  0
 13 17  1  0  0  0
 14 18  1  0  0  0
  1  5  1  0  0  0
  4  6  1  0  0  0
M  END
> <minimizedAffinity>
-7.99951

$$$$
1BJV_GP8_A_900


 31 33  0  0  0  0  0  0  0  0999 V2000
   -0.2540   16.5911   19.3095 N   0  0  0  0  0  0  0  0  0  0  0  0
    0.5489   17.6563   19.1776 C   0  0  0  0  0  0  0  0  0  0  0  0
    0.8890   18.0982   18.0633 O   0  0  0  0  0  0  0  0  0  0  0  0
    0.9891   18.2217   20.2985 N   0  0  0  0  0  0  0  0  0  0  0  0
   -0.5253   16.3446   20.2233 H   0  0  0  0  0  0  0  0  0  0  0  0
    0.7089   17.8067   21.1461 H   0  0  0  0  0  0  0  0  0  0  0  0
   -1.7014   14.2090   16.1891 C   0  0  0  0  0  0  0  0  0  0  0  0
   -0.9417   13.6596   17.2357 C   0  0  0  0  0  0  0  0  0  0  0  0
   -0.4562   14.4499   18.2796 C   0  0  0  0  0  0  0  0  0  0  0  0
   -0.7237   15.8264   18.3015 C   0  0  0  0  0  0  0  0  0  0  0  0
   -1.4814   16.4091   17.2778 C   0  0  0  0  0  0  0  0  0  0  0  0
   -1.9585   15.5986   16.2434 C   0  0  0  0  0  0  0  0  0  0  0  0
   -1.7477   12.1384   14.9864 N   0  0  0  0  0  0  0  0  0  0  0  0
   -3.1470   13.8740   14.3330 N   0  0  0  0  0  0  0  0  0  0  0  0
   -2.1415   13.4123   15.1014 C   0  0  0  0  0  0  0  0  0  0  0  0
   -2.0587   11.5936   14.2277 H   0  0  0  0  0  0  0  0  0  0  0  0
   -1.1469   11.7461   15.6605 H   0  0  0  0  0  0  0  0  0  0  0  0
   -3.4704   13.3395   13.5721 H   0  0  0  0  0  0  0  0  0  0  0  0
    1.7727   19.2958   20.3840 C   0  0  0  0  0  0  0  0  0  0  0  0
    1.2543   20.4050   21.0517 C   0  0  0  0  0  0  0  0  0  0  0  0
    2.0893   21.5068   21.2400 C   0  0  0  0  0  0  0  0  0  0  0  0
    3.4135   21.4888   20.7633 C   0  0  0  0  0  0  0  0  0  0  0  0
    3.9005   20.3509   20.1048 C   0  0  0  0  0  0  0  0  0  0  0  0
    3.0757   19.2366   19.9059 C   0  0  0  0  0  0  0  0  0  0  0  0
    4.2354   22.5672   20.9226 O   0  0  0  0  0  0  0  0  0  0  0  0
    5.1097   22.8666   21.9261 C   0  0  0  0  0  0  0  0  0  0  0  0
    5.4626   24.2068   22.1096 C   0  0  0  0  0  0  0  0  0  0  0  0
    6.3445   24.5693   23.1264 C   0  0  0  0  0  0  0  0  0  0  0  0
    6.8811   23.5962   23.9680 C   0  0  0  0  0  0  0  0  0  0  0  0
    6.5389   22.2547   23.7881 C   0  0  0  0  0  0  0  0  0  0  0  0
    5.6546   21.8853   22.7713 C   0  0  0  0  0  0  0  0  0  0  0  0
 13 15  1  0  0  0
 14 15  2  0  0  0
 15  7  1  0  0  0
  7  8  2  0  0  0
  7 12  1  0  0  0
  8  9  1  0  0  0
  9 10  2  0  0  0
 10 11  1  0  0  0
 10  1  1  0  0  0
 11 12  2  0  0  0
  1  2  1  0  0  0
  2  3  2  0  0  0
  2  4  1  0  0  0
  4 19  1  0  0  0
 19 20  2  0  0  0
 19 24  1  0  0  0
 20 21  1  0  0  0
 21 22  2  0  0  0
 22 23  1  0  0  0
 22 25  1  0  0  0
 23 24  2  0  0  0
 25 26  1  0  0  0
 26 27  2  0  0  0
 26 31  1  0  0  0
 27 28  1  0  0  0
 28 29  2  0  0  0
 29 30  1  0  0  0
 30 31  2  0  0  0
 13 16  1  0  0  0
 13 17  1  0  0  0
 14 18  1  0  0  0
  1  5  1  0  0  0
  4  6  1  0  0  0
M  END
> <minimizedAffinity>
-7.96774

$$$$
1BJV_GP8_A_900


 31 33  0  0  0  0  0  0  0  0999 V2000
   -0.2376   16.5743   19.3322 N   0  0  0  0  0  0  0  0  0  0  0  0
    0.5448   17.6534   19.1904 C   0  0  0  0  0  0  0  0  0  0  0  0
    0.8931   18.0796   18.0725 O   0  0  0  0  0  0  0  0  0  0  0  0
    0.9553   18.2510   20.3059 N   0  0  0  0  0  0  0  0  0  0  0  0
   -0.5180   16.3408   20.2465 H   0  0  0  0  0  0  0  0  0  0  0  0
    0.6705   17.8475   21.1576 H   0  0  0  0  0  0  0  0  0  0  0  0
   -1.6033   14.1205   16.2306 C   0  0  0  0  0  0  0  0  0  0  0  0
   -1.9242   15.4878   16.2757 C   0  0  0  0  0  0  0  0  0  0  0  0
   -1.4711   16.3112   17.3084 C   0  0  0  0  0  0  0  0  0  0  0  0
   -0.6751   15.7792   18.3332 C   0  0  0  0  0  0  0  0  0  0  0  0
   -0.3309   14.4217   18.3196 C   0  0  0  0  0  0  0  0  0  0  0  0
   -0.7945   13.6162   17.2753 C   0  0  0  0  0  0  0  0  0  0  0  0
   -3.0762   13.7101   14.3871 N   0  0  0  0  0  0  0  0  0  0  0  0
   -1.4540   12.1378   14.9291 N   0  0  0  0  0  0  0  0  0  0  0  0
   -2.1150   13.2771   15.2116 C   0  0  0  0  0  0  0  0  0  0  0  0
   -3.4248   13.1170   13.6829 H   0  0  0  0  0  0  0  0  0  0  0  0
   -3.4346   14.6218   14.4848 H   0  0  0  0  0  0  0  0  0  0  0  0
   -1.7892   11.5357   14.2260 H   0  0  0  0  0  0  0  0  0  0  0  0
    1.7147   19.3431   20.3810 C   0  0  0  0  0  0  0  0  0  0  0  0
    1.1184   20.4934   20.8966 C   0  0  0  0  0  0  0  0  0  0  0  0
    1.9180   21.6226   21.0767 C   0  0  0  0  0  0  0  0  0  0  0  0
    3.2847   21.5904   20.7415 C   0  0  0  0  0  0  0  0  0  0  0  0
    3.8490   20.4116   20.2342 C   0  0  0  0  0  0  0  0  0  0  0  0
    3.0608   19.2693   20.0457 C   0  0  0  0  0  0  0  0  0  0  0  0
    4.0744   22.6935   20.8933 O   0  0  0  0  0  0  0  0  0  0  0  0
    3.7333   24.0001   21.0875 C   0  0  0  0  0  0  0  0  0  0  0  0
    3.4297   24.7722   19.9624 C   0  0  0  0  0  0  0  0  0  0  0  0
    3.0654   26.1103   20.1047 C   0  0  0  0  0  0  0  0  0  0  0  0
    3.0016   26.6877   21.3718 C   0  0  0  0  0  0  0  0  0  0  0  0
    3.3090   25.9256   22.5004 C   0  0  0  0  0  0  0  0  0  0  0  0
    3.6738   24.5837   22.3643 C   0  0  0  0  0  0  0  0  0  0  0  0
 13 15  1  0  0  0
 14 15  2  0  0  0
 15  7  1  0  0  0
  7  8  2  0  0  0
  7 12  1  0  0  0
  8  9  1  0  0  0
  9 10  2  0  0  0
 10 11  1  0  0  0
 10  1  1  0  0  0
 11 12  2  0  0  0
  1  2  1  0  0  0
  2  3  2  0  0  0
  2  4  1  0  0  0
  4 19  1  0  0  0
 19 20  2  0  0  0
 19 24  1  0  0  0
 20 21  1  0  0  0
 21 22  2  0  0  0
 22 23  1  0  0  0
 22 25  1  0  0  0
 23 24  2  0  0  0
 25 26  1  0  0  0
 26 27  2  0  0  0
 26 31  1  0  0  0
 27 28  1  0  0  0
 28 29  2  0  0  0
 29 30  1  0  0  0
 30 31  2  0  0  0
 13 16  1  0  0  0
 13 17  1  0  0  0
 14 18  1  0  0  0
  1  5  1  0  0  0
  4  6  1  0  0  0
M  END
> <minimizedAffinity>
-7.28172

$$$$
1BJV_GP8_A_900


 31 33  0  0  0  0  0  0  0  0999 V2000
   -0.6096   17.2199   22.2335 N   0  0  0  0  0  0  0  0  0  0  0  0
   -0.0714   18.1162   21.3946 C   0  0  0  0  0  0  0  0  0  0  0  0
   -0.0364   19.3340   21.6560 O   0  0  0  0  0  0  0  0  0  0  0  0
    0.4161   17.6510   20.2474 N   0  0  0  0  0  0  0  0  0  0  0  0
   -0.5407   16.2710   21.9803 H   0  0  0  0  0  0  0  0  0  0  0  0
    0.3306   16.6834   20.0873 H   0  0  0  0  0  0  0  0  0  0  0  0
   -2.5440   18.0908   25.8398 C   0  0  0  0  0  0  0  0  0  0  0  0
   -1.1724   17.7883   25.8010 C   0  0  0  0  0  0  0  0  0  0  0  0
   -0.5218   17.4969   24.6003 C   0  0  0  0  0  0  0  0  0  0  0  0
   -1.2375   17.5023   23.3943 C   0  0  0  0  0  0  0  0  0  0  0  0
   -2.6052   17.8037   23.3928 C   0  0  0  0  0  0  0  0  0  0  0  0
   -3.2359   18.0936   24.6063 C   0  0  0  0  0  0  0  0  0  0  0  0
   -4.1916   17.5144   27.4798 N   0  0  0  0  0  0  0  0  0  0  0  0
   -2.6836   19.2252   27.9233 N   0  0  0  0  0  0  0  0  0  0  0  0
   -3.2116   18.3279   27.0685 C   0  0  0  0  0  0  0  0  0  0  0  0
   -4.6489   17.6875   28.3343 H   0  0  0  0  0  0  0  0  0  0  0  0
   -4.4552   16.7430   26.9278 H   0  0  0  0  0  0  0  0  0  0  0  0
   -3.1283   19.4073   28.7825 H   0  0  0  0  0  0  0  0  0  0  0  0
    1.0089   18.3690   19.2944 C   0  0  0  0  0  0  0  0  0  0  0  0
    0.2552   18.6534   18.1561 C   0  0  0  0  0  0  0  0  0  0  0  0
    0.8181   19.4848   17.1873 C   0  0  0  0  0  0  0  0  0  0  0  0
    2.1109   20.0129   17.3635 C   0  0  0  0  0  0  0  0  0  0  0  0
    2.8333   19.7108   18.5264 C   0  0  0  0  0  0  0  0  0  0  0  0
    2.2841   18.8768   19.5085 C   0  0  0  0  0  0  0  0  0  0  0  0
    2.6822   20.8112   16.4148 O   0  0  0  0  0  0  0  0  0  0  0  0
    3.9434   20.7956   15.8948 C   0  0  0  0  0  0  0  0  0  0  0  0
    4.9056   21.6205   16.4845 C   0  0  0  0  0  0  0  0  0  0  0  0
    6.2122   21.6360   15.9989 C   0  0  0  0  0  0  0  0  0  0  0  0
    6.5681   20.8277   14.9203 C   0  0  0  0  0  0  0  0  0  0  0  0
    5.6120   20.0053   14.3215 C   0  0  0  0  0  0  0  0  0  0  0  0
    4.3010   19.9846   14.8045 C   0  0  0  0  0  0  0  0  0  0  0  0
 13 15  1  0  0  0
 14 15  2  0  0  0
 15  7  1  0  0  0
  7  8  2  0  0  0
  7 12  1  0  0  0
  8  9  1  0  0  0
  9 10  2  0  0  0
 10 11  1  0  0  0
 10  1  1  0  0  0
 11 12  2  0  0  0
  1  2  1  0  0  0
  2  3  2  0  0  0
  2  4  1  0  0  0
  4 19  1  0  0  0
 19 20  2  0  0  0
 19 24  1  0  0  0
 20 21  1  0  0  0
 21 22  2  0  0  0
 22 23  1  0  0  0
 22 25  1  0  0  0
 23 24  2  0  0  0
 25 26  1  0  0  0
 26 27  2  0  0  0
 26 31  1  0  0  0
 27 28  1  0  0  0
 28 29  2  0  0  0
 29 30  1  0  0  0
 30 31  2  0  0  0
 13 16  1  0  0  0
 13 17  1  0  0  0
 14 18  1  0  0  0
  1  5  1  0  0  0
  4  6  1  0  0  0
M  END
> <minimizedAffinity>
-7.27166

$$$$
1BJV_GP8_A_900


 31 33  0  0  0  0  0  0  0  0999 V2000
    1.8905   20.7704   17.7608 N   0  0  0  0  0  0  0  0  0  0  0  0
    1.6850   19.9299   18.7846 C   0  0  0  0  0  0  0  0  0  0  0  0
    2.5380   19.0938   19.1395 O   0  0  0  0  0  0  0  0  0  0  0  0
    0.5113   20.0122   19.4057 N   0  0  0  0  0  0  0  0  0  0  0  0
    1.1924   21.4420   17.5850 H   0  0  0  0  0  0  0  0  0  0  0  0
   -0.1309   20.6723   19.0578 H   0  0  0  0  0  0  0  0  0  0  0  0
    5.2283   20.7827   15.2380 C   0  0  0  0  0  0  0  0  0  0  0  0
    4.0834   20.0283   14.9310 C   0  0  0  0  0  0  0  0  0  0  0  0
    2.9667   20.0206   15.7694 C   0  0  0  0  0  0  0  0  0  0  0  0
    2.9690   20.7781   16.9496 C   0  0  0  0  0  0  0  0  0  0  0  0
    4.0906   21.5462   17.2866 C   0  0  0  0  0  0  0  0  0  0  0  0
    5.1970   21.5401   16.4319 C   0  0  0  0  0  0  0  0  0  0  0  0
    7.0405   21.8635   14.1048 N   0  0  0  0  0  0  0  0  0  0  0  0
    6.9414   19.5430   14.1538 N   0  0  0  0  0  0  0  0  0  0  0  0
    6.3814   20.7403   14.4133 C   0  0  0  0  0  0  0  0  0  0  0  0
    7.8398   21.8236   13.5315 H   0  0  0  0  0  0  0  0  0  0  0  0
    6.7259   22.7298   14.4511 H   0  0  0  0  0  0  0  0  0  0  0  0
    7.7423   19.4872   13.5841 H   0  0  0  0  0  0  0  0  0  0  0  0
    0.1218   19.2870   20.4533 C   0  0  0  0  0  0  0  0  0  0  0  0
    0.4122   19.7971   21.7183 C   0  0  0  0  0  0  0  0  0  0  0  0
   -0.0699   19.1067   22.8307 C   0  0  0  0  0  0  0  0  0  0  0  0
   -0.8240   17.9293   22.6685 C   0  0  0  0  0  0  0  0  0  0  0  0
   -1.1025   17.4535   21.3795 C   0  0  0  0  0  0  0  0  0  0  0  0
   -0.6252   18.1333   20.2518 C   0  0  0  0  0  0  0  0  0  0  0  0
   -1.2849   17.2323   23.7481 O   0  0  0  0  0  0  0  0  0  0  0  0
   -1.7488   17.6787   24.9510 C   0  0  0  0  0  0  0  0  0  0  0  0
   -3.1317   17.6975   25.1538 C   0  0  0  0  0  0  0  0  0  0  0  0
   -3.6589   18.1348   26.3680 C   0  0  0  0  0  0  0  0  0  0  0  0
   -2.8089   18.5570   27.3890 C   0  0  0  0  0  0  0  0  0  0  0  0
   -1.4268   18.5472   27.1928 C   0  0  0  0  0  0  0  0  0  0  0  0
   -0.8923   18.1090   25.9784 C   0  0  0  0  0  0  0  0  0  0  0  0
 13 15  1  0  0  0
 14 15  2  0  0  0
 15  7  1  0  0  0
  7  8  2  0  0  0
  7 12  1  0  0  0
  8  9  1  0  0  0
  9 10  2  0  0  0
 10 11  1  0  0  0
 10  1  1  0  0  0
 11 12  2  0  0  0
  1  2  1  0  0  0
  2  3  2  0  0  0
  2  4  1  0  0  0
  4 19  1  0  0  0
 19 20  2  0  0  0
 19 24  1  0  0  0
 20 21  1  0  0  0
 21 22  2  0  0  0
 22 23  1  0  0  0
 22 25  1  0  0  0
 23 24  2  0  0  0
 25 26  1  0  0  0
 26 27  2  0  0  0
 26 31  1  0  0  0
 27 28  1  0  0  0
 28 29  2  0  0  0
 29 30  1  0  0  0
 30 31  2  0  0  0
 13 16  1  0  0  0
 13 17  1  0  0  0
 14 18  1  0  0  0
  1  5  1  0  0  0
  4  6  1  0  0  0
M  END
> <minimizedAffinity>
-6.95352

$$$$
1BJV_GP8_A_900


 31 33  0  0  0  0  0  0  0  0999 V2000
    0.9225   20.3266   19.6382 N   0  0  0  0  0  0  0  0  0  0  0  0
    2.0935   20.2922   20.2897 C   0  0  0  0  0  0  0  0  0  0  0  0
    2.8294   19.2867   20.2813 O   0  0  0  0  0  0  0  0  0  0  0  0
    2.4372   21.3829   20.9696 N   0  0  0  0  0  0  0  0  0  0  0  0
    0.4315   21.1800   19.6432 H   0  0  0  0  0  0  0  0  0  0  0  0
    1.7985   22.1321   20.9615 H   0  0  0  0  0  0  0  0  0  0  0  0
   -0.8282   17.1371   17.5723 C   0  0  0  0  0  0  0  0  0  0  0  0
   -0.0142   18.0747   16.9145 C   0  0  0  0  0  0  0  0  0  0  0  0
    0.5725   19.1411   17.5991 C   0  0  0  0  0  0  0  0  0  0  0  0
    0.3565   19.2958   18.9761 C   0  0  0  0  0  0  0  0  0  0  0  0
   -0.4453   18.3783   19.6667 C   0  0  0  0  0  0  0  0  0  0  0  0
   -1.0216   17.3177   18.9615 C   0  0  0  0  0  0  0  0  0  0  0  0
   -2.3199   16.3647   15.8651 N   0  0  0  0  0  0  0  0  0  0  0  0
   -1.0241   14.8309   17.0337 N   0  0  0  0  0  0  0  0  0  0  0  0
   -1.4690   16.0906   16.8611 C   0  0  0  0  0  0  0  0  0  0  0  0
   -2.7597   15.6312   15.3775 H   0  0  0  0  0  0  0  0  0  0  0  0
   -2.5061   17.2999   15.6201 H   0  0  0  0  0  0  0  0  0  0  0  0
   -1.4523   14.0872   16.5512 H   0  0  0  0  0  0  0  0  0  0  0  0
    3.5628   21.5586   21.6604 C   0  0  0  0  0  0  0  0  0  0  0  0
    3.5091   21.3072   23.0310 C   0  0  0  0  0  0  0  0  0  0  0  0
    4.6958   21.3891   23.7601 C   0  0  0  0  0  0  0  0  0  0  0  0
    5.9053   21.7194   23.1204 C   0  0  0  0  0  0  0  0  0  0  0  0
    5.9195   21.9562   21.7387 C   0  0  0  0  0  0  0  0  0  0  0  0
    4.7373   21.8796   20.9916 C   0  0  0  0  0  0  0  0  0  0  0  0
    7.0704   21.8231   23.8245 O   0  0  0  0  0  0  0  0  0  0  0  0
    7.2862   21.8388   25.1715 C   0  0  0  0  0  0  0  0  0  0  0  0
    7.0395   23.0297   25.8607 C   0  0  0  0  0  0  0  0  0  0  0  0
    7.2342   23.0980   27.2394 C   0  0  0  0  0  0  0  0  0  0  0  0
    7.6769   21.9774   27.9405 C   0  0  0  0  0  0  0  0  0  0  0  0
    7.9315   20.7858   27.2592 C   0  0  0  0  0  0  0  0  0  0  0  0
    7.7372   20.7108   25.8775 C   0  0  0  0  0  0  0  0  0  0  0  0
 13 15  1  0  0  0
 14 15  2  0  0  0
 15  7  1  0  0  0
  7  8  2  0  0  0
  7 12  1  0  0  0
  8  9  1  0  0  0
  9 10  2  0  0  0
 10 11  1  0  0  0
 10  1  1  0  0  0
 11 12  2  0  0  0
  1  2  1  0  0  0
  2  3  2  0  0  0
  2  4  1  0  0  0
  4 19  1  0  0  0
 19 20  2  0  0  0
 19 24  1  0  0  0
 20 21  1  0  0  0
 21 22  2  0  0  0
 22 23  1  0  0  0
 22 25  1  0  0  0
 23 24  2  0  0  0
 25 26  1  0  0  0
 26 27  2  0  0  0
 26 31  1  0  0  0
 27 28  1  0  0  0
 28 29  2  0  0  0
 29 30  1  0  0  0
 30 31  2  0  0  0
 13 16  1  0  0  0
 13 17  1  0  0  0
 14 18  1  0  0  0
  1  5  1  0  0  0
  4  6  1  0  0  0
M  END
> <minimizedAffinity>
-6.73512

$$$$
1BJV_GP8_A_900


 31 33  0  0  0  0  0  0  0  0999 V2000
   -0.5068   17.1395   22.3413 N   0  0  0  0  0  0  0  0  0  0  0  0
   -0.0780   17.9955   21.4031 C   0  0  0  0  0  0  0  0  0  0  0  0
   -0.1663   19.2308   21.5403 O   0  0  0  0  0  0  0  0  0  0  0  0
    0.4378   17.4677   20.2961 N   0  0  0  0  0  0  0  0  0  0  0  0
   -0.3431   16.1817   22.1828 H   0  0  0  0  0  0  0  0  0  0  0  0
    0.4513   16.4851   20.2361 H   0  0  0  0  0  0  0  0  0  0  0  0
   -2.4663   18.1721   25.8909 C   0  0  0  0  0  0  0  0  0  0  0  0
   -1.0748   17.9803   25.8538 C   0  0  0  0  0  0  0  0  0  0  0  0
   -0.4158   17.6356   24.6719 C   0  0  0  0  0  0  0  0  0  0  0  0
   -1.1429   17.4735   23.4837 C   0  0  0  0  0  0  0  0  0  0  0  0
   -2.5309   17.6608   23.4809 C   0  0  0  0  0  0  0  0  0  0  0  0
   -3.1697   18.0069   24.6752 C   0  0  0  0  0  0  0  0  0  0  0  0
   -4.2468   17.7984   27.4486 N   0  0  0  0  0  0  0  0  0  0  0  0
   -2.5115   19.2352   28.0157 N   0  0  0  0  0  0  0  0  0  0  0  0
   -3.1374   18.4640   27.1058 C   0  0  0  0  0  0  0  0  0  0  0  0
   -4.7054   18.0084   28.2941 H   0  0  0  0  0  0  0  0  0  0  0  0
   -4.6042   17.0988   26.8553 H   0  0  0  0  0  0  0  0  0  0  0  0
   -2.9564   19.4520   28.8668 H   0  0  0  0  0  0  0  0  0  0  0  0
    0.9378   18.1412   19.2611 C   0  0  0  0  0  0  0  0  0  0  0  0
    0.1236   18.2667   18.1358 C   0  0  0  0  0  0  0  0  0  0  0  0
    0.5844   19.0492   17.0766 C   0  0  0  0  0  0  0  0  0  0  0  0
    1.8372   19.6863   17.1519 C   0  0  0  0  0  0  0  0  0  0  0  0
    2.6225   19.5431   18.3044 C   0  0  0  0  0  0  0  0  0  0  0  0
    2.1761   18.7602   19.3765 C   0  0  0  0  0  0  0  0  0  0  0  0
    2.3097   20.4384   16.1151 O   0  0  0  0  0  0  0  0  0  0  0  0
    1.7215   20.7718   14.9301 C   0  0  0  0  0  0  0  0  0  0  0  0
    0.8325   21.8505   14.9204 C   0  0  0  0  0  0  0  0  0  0  0  0
    0.2113   22.2398   13.7347 C   0  0  0  0  0  0  0  0  0  0  0  0
    0.4729   21.5545   12.5493 C   0  0  0  0  0  0  0  0  0  0  0  0
    1.3548   20.4722   12.5511 C   0  0  0  0  0  0  0  0  0  0  0  0
    1.9813   20.0779   13.7362 C   0  0  0  0  0  0  0  0  0  0  0  0
 13 15  1  0  0  0
 14 15  2  0  0  0
 15  7  1  0  0  0
  7  8  2  0  0  0
  7 12  1  0  0  0
  8  9  1  0  0  0
  9 10  2  0  0  0
 10 11  1  0  0  0
 10  1  1  0  0  0
 11 12  2  0  0  0
  1  2  1  0  0  0
  2  3  2  0  0  0
  2  4  1  0  0  0
  4 19  1  0  0  0
 19 20  2  0  0  0
 19 24  1  0  0  0
 20 21  1  0  0  0
 21 22  2  0  0  0
 22 23  1  0  0  0
 22 25  1  0  0  0
 23 24  2  0  0  0
 25 26  1  0  0  0
 26 27  2  0  0  0
 26 31  1  0  0  0
 27 28  1  0  0  0
 28 29  2  0  0  0
 29 30  1  0  0  0
 30 31  2  0  0  0
 13 16  1  0  0  0
 13 17  1  0  0  0
 14 18  1  0  0  0
  1  5  1  0  0  0
  4  6  1  0  0  0
M  END
> <minimizedAffinity>
-6.37149

$$$$
