1FKB_RAP_A_108


 68 71  0  0  0  0  0  0  0  0999 V2000
    4.7232    8.4156   12.9144 C   0  0  0  0  0  0  0  0  0  0  0  0
    4.3990    9.5028   13.7723 O   0  0  0  0  0  0  0  0  0  0  0  0
    5.4479    8.6387   11.9477 O   0  0  0  0  0  0  0  0  0  0  0  0
    4.2311    6.9939   13.1837 C   0  0  0  0  0  0  0  0  0  0  0  0
    3.7341    6.3352   11.9059 C   0  0  0  0  0  0  0  0  0  0  0  0
    2.3741    6.8409   11.4470 C   0  0  0  0  0  0  0  0  0  0  0  0
    1.3936    6.6688   12.5928 C   0  0  0  0  0  0  0  0  0  0  0  0
    1.8580    7.4107   13.8077 C   0  0  0  0  0  0  0  0  0  0  0  0
    3.1717    6.8697   14.1906 N   0  0  0  0  0  0  0  0  0  0  0  0
    3.4606    6.4534   15.4335 C   0  0  0  0  0  0  0  0  0  0  0  0
    4.6224    6.1034   15.6804 O   0  0  0  0  0  0  0  0  0  0  0  0
    2.4852    6.3227   16.4460 C   0  0  0  0  0  0  0  0  0  0  0  0
    1.8423    5.2689   16.5295 O   0  0  0  0  0  0  0  0  0  0  0  0
    2.1925    7.4451   17.4591 C   0  0  0  0  0  0  0  0  0  0  0  0
    1.4314    8.3964   16.7520 O   0  0  0  0  0  0  0  0  0  0  0  0
    1.4487    6.8971   18.5510 O   0  0  0  0  0  0  0  0  0  0  0  0
    3.4982    8.1388   18.0234 C   0  0  0  0  0  0  0  0  0  0  0  0
    3.1575    9.4445   18.7777 C   0  0  0  0  0  0  0  0  0  0  0  0
    2.2359   10.3187   17.9396 C   0  0  0  0  0  0  0  0  0  0  0  0
    1.0366    9.5681   17.3705 C   0  0  0  0  0  0  0  0  0  0  0  0
    0.3923   10.3922   16.2690 C   0  0  0  0  0  0  0  0  0  0  0  0
   -0.3401   11.6570   16.7006 C   0  0  0  0  0  0  0  0  0  0  0  0
   -0.9020   12.4023   15.5093 C   0  0  0  0  0  0  0  0  0  0  0  0
   -0.3999   13.5940   15.2146 C   0  0  0  0  0  0  0  0  0  0  0  0
   -0.8194   14.4234   14.0765 C   0  0  0  0  0  0  0  0  0  0  0  0
   -0.2778   15.6225   13.9174 C   0  0  0  0  0  0  0  0  0  0  0  0
   -0.5880   16.4525   12.7386 C   0  0  0  0  0  0  0  0  0  0  0  0
    0.0909   17.5498   12.4623 C   0  0  0  0  0  0  0  0  0  0  0  0
   -0.1084   18.3799   11.2127 C   0  0  0  0  0  0  0  0  0  0  0  0
    1.2444   18.4658   10.5274 C   0  0  0  0  0  0  0  0  0  0  0  0
    1.9663   17.1604   10.2502 C   0  0  0  0  0  0  0  0  0  0  0  0
    3.4532   17.4011   10.0269 C   0  0  0  0  0  0  0  0  0  0  0  0
    3.8972   17.6869    8.9168 O   0  0  0  0  0  0  0  0  0  0  0  0
    4.3608   17.2587   11.2440 C   0  0  0  0  0  0  0  0  0  0  0  0
    4.7891   15.7843   11.5335 C   0  0  0  0  0  0  0  0  0  0  0  0
    5.0616   15.1583   10.2720 O   0  0  0  0  0  0  0  0  0  0  0  0
    3.7272   14.9732   12.3005 C   0  0  0  0  0  0  0  0  0  0  0  0
    3.0355   13.9775   11.7477 C   0  0  0  0  0  0  0  0  0  0  0  0
    1.9840   13.0486   12.3733 C   0  0  0  0  0  0  0  0  0  0  0  0
    2.6104   11.6837   12.6577 C   0  0  0  0  0  0  0  0  0  0  0  0
    2.4016   10.7023   11.9383 O   0  0  0  0  0  0  0  0  0  0  0  0
    3.5540   11.6267   13.8538 C   0  0  0  0  0  0  0  0  0  0  0  0
    4.7989   10.8119   13.5665 C   0  0  0  0  0  0  0  0  0  0  0  0
    4.4132    7.2262   18.8919 C   0  0  0  0  0  0  0  0  0  0  0  0
   -2.0469   11.6984   14.7602 C   0  0  0  0  0  0  0  0  0  0  0  0
   -0.6277   19.7682   11.5562 C   0  0  0  0  0  0  0  0  0  0  0  0
    1.3502   16.4144    9.0637 C   0  0  0  0  0  0  0  0  0  0  0  0
    3.5233   15.4139   13.7375 C   0  0  0  0  0  0  0  0  0  0  0  0
    0.8145   12.8881   11.3887 C   0  0  0  0  0  0  0  0  0  0  0  0
    0.6461    6.4697   18.2133 H   0  0  0  0  0  0  0  0  0  0  0  0
    4.2571   15.1591    9.7302 H   0  0  0  0  0  0  0  0  0  0  0  0
   -1.3824   11.2791   17.5445 O   0  0  0  0  0  0  0  0  0  0  0  0
   -1.5332   12.0245   18.7101 C   0  0  0  0  0  0  0  0  0  0  0  0
    5.5401   17.9827   11.0117 O   0  0  0  0  0  0  0  0  0  0  0  0
    6.5330   17.8293   11.9645 C   0  0  0  0  0  0  0  0  0  0  0  0
    6.0363   11.0201   14.4629 C   0  0  0  0  0  0  0  0  0  0  0  0
    5.6776   11.0852   15.9202 C   0  0  0  0  0  0  0  0  0  0  0  0
    6.8421   12.2513   14.0552 C   0  0  0  0  0  0  0  0  0  0  0  0
    7.4720   12.2478   12.6606 C   0  0  0  0  0  0  0  0  0  0  0  0
    7.7803   13.6829   12.2189 C   0  0  0  0  0  0  0  0  0  0  0  0
    8.3042   13.7670   10.7831 C   0  0  0  0  0  0  0  0  0  0  0  0
    9.5291   12.8049   10.6036 C   0  0  0  0  0  0  0  0  0  0  0  0
    9.9040   12.7780    9.2272 O   0  0  0  0  0  0  0  0  0  0  0  0
    9.2453   11.3648   11.0768 C   0  0  0  0  0  0  0  0  0  0  0  0
    8.7034   11.3565   12.4992 C   0  0  0  0  0  0  0  0  0  0  0  0
    9.1695   12.4286    8.6988 H   0  0  0  0  0  0  0  0  0  0  0  0
    8.6948   15.1005   10.5789 O   0  0  0  0  0  0  0  0  0  0  0  0
    9.6720   15.6007   11.4254 C   0  0  0  0  0  0  0  0  0  0  0  0
  1  2  1  0  0  0
  1  3  2  0  0  0
  1  4  1  0  0  0
  2 43  1  0  0  0
  4  5  1  0  0  0
  4  9  1  0  0  0
  5  6  1  0  0  0
  6  7  1  0  0  0
  7  8  1  0  0  0
  8  9  1  0  0  0
  9 10  1  0  0  0
 10 11  2  0  0  0
 10 12  1  0  0  0
 12 13  2  0  0  0
 12 14  1  0  0  0
 14 15  1  0  0  0
 14 16  1  0  0  0
 14 17  1  0  0  0
 15 20  1  0  0  0
 17 18  1  0  0  0
 17 44  1  0  0  0
 18 19  1  0  0  0
 19 20  1  0  0  0
 20 21  1  0  0  0
 21 22  1  0  0  0
 22 52  1  0  0  0
 22 23  1  0  0  0
 52 53  1  0  0  0
 23 24  2  0  0  0
 23 45  1  0  0  0
 24 25  1  0  0  0
 25 26  2  0  0  0
 26 27  1  0  0  0
 27 28  2  0  0  0
 28 29  1  0  0  0
 29 30  1  0  0  0
 29 46  1  0  0  0
 30 31  1  0  0  0
 31 32  1  0  0  0
 31 47  1  0  0  0
 32 33  2  0  0  0
 32 34  1  0  0  0
 34 54  1  0  0  0
 34 35  1  0  0  0
 54 55  1  0  0  0
 35 36  1  0  0  0
 35 37  1  0  0  0
 37 38  2  0  0  0
 37 48  1  0  0  0
 38 39  1  0  0  0
 39 40  1  0  0  0
 39 49  1  0  0  0
 40 41  2  0  0  0
 40 42  1  0  0  0
 42 43  1  0  0  0
 43 56  1  0  0  0
 56 58  1  0  0  0
 56 57  1  0  0  0
 58 59  1  0  0  0
 59 60  1  0  0  0
 59 65  1  0  0  0
 60 61  1  0  0  0
 61 67  1  0  0  0
 61 62  1  0  0  0
 67 68  1  0  0  0
 62 63  1  0  0  0
 62 64  1  0  0  0
 64 65  1  0  0  0
 16 50  1  0  0  0
 36 51  1  0  0  0
 63 66  1  0  0  0
M  END
> <minimizedAffinity>
-11.50876

$$$$
1FKB_RAP_A_108


 68 71  0  0  0  0  0  0  0  0999 V2000
    4.6923    8.5728   13.0112 C   0  0  0  0  0  0  0  0  0  0  0  0
    4.2946    9.6748   13.8177 O   0  0  0  0  0  0  0  0  0  0  0  0
    5.4450    8.7914   12.0650 O   0  0  0  0  0  0  0  0  0  0  0  0
    4.2439    7.1430   13.3115 C   0  0  0  0  0  0  0  0  0  0  0  0
    3.8218    6.4229   12.0399 C   0  0  0  0  0  0  0  0  0  0  0  0
    2.4626    6.8596   11.5130 C   0  0  0  0  0  0  0  0  0  0  0  0
    1.4456    6.6882   12.6267 C   0  0  0  0  0  0  0  0  0  0  0  0
    1.8344    7.4879   13.8313 C   0  0  0  0  0  0  0  0  0  0  0  0
    3.1517    7.0116   14.2818 N   0  0  0  0  0  0  0  0  0  0  0  0
    3.4078    6.6488   15.5485 C   0  0  0  0  0  0  0  0  0  0  0  0
    4.5715    6.3527   15.8508 O   0  0  0  0  0  0  0  0  0  0  0  0
    2.3994    6.5144   16.5278 C   0  0  0  0  0  0  0  0  0  0  0  0
    1.7939    5.4398   16.6241 O   0  0  0  0  0  0  0  0  0  0  0  0
    2.0259    7.6580   17.4893 C   0  0  0  0  0  0  0  0  0  0  0  0
    1.2575    8.5547   16.7212 O   0  0  0  0  0  0  0  0  0  0  0  0
    1.2614    7.1184   18.5711 O   0  0  0  0  0  0  0  0  0  0  0  0
    3.2818    8.4204   18.0773 C   0  0  0  0  0  0  0  0  0  0  0  0
    2.8633    9.7365   18.7721 C   0  0  0  0  0  0  0  0  0  0  0  0
    1.9427   10.5456   17.8700 C   0  0  0  0  0  0  0  0  0  0  0  0
    0.7953    9.7302   17.2831 C   0  0  0  0  0  0  0  0  0  0  0  0
    0.1637   10.4912   16.1301 C   0  0  0  0  0  0  0  0  0  0  0  0
   -0.6319   11.7404   16.4894 C   0  0  0  0  0  0  0  0  0  0  0  0
   -1.1748   12.4229   15.2525 C   0  0  0  0  0  0  0  0  0  0  0  0
   -0.7068   13.6226   14.9352 C   0  0  0  0  0  0  0  0  0  0  0  0
   -1.1128   14.3964   13.7539 C   0  0  0  0  0  0  0  0  0  0  0  0
   -0.6108   15.6096   13.5732 C   0  0  0  0  0  0  0  0  0  0  0  0
   -0.9061   16.3868   12.3552 C   0  0  0  0  0  0  0  0  0  0  0  0
   -0.2587   17.4998   12.0662 C   0  0  0  0  0  0  0  0  0  0  0  0
   -0.4405   18.2790   10.7817 C   0  0  0  0  0  0  0  0  0  0  0  0
    0.9337   18.3944   10.1449 C   0  0  0  0  0  0  0  0  0  0  0  0
    1.7142   17.1095    9.9409 C   0  0  0  0  0  0  0  0  0  0  0  0
    3.1986   17.4001    9.7650 C   0  0  0  0  0  0  0  0  0  0  0  0
    3.6741   17.6655    8.6629 O   0  0  0  0  0  0  0  0  0  0  0  0
    4.0631   17.3341   11.0195 C   0  0  0  0  0  0  0  0  0  0  0  0
    4.5349   15.8880   11.3763 C   0  0  0  0  0  0  0  0  0  0  0  0
    4.8794   15.2310   10.1486 O   0  0  0  0  0  0  0  0  0  0  0  0
    3.4753   15.0624   12.1310 C   0  0  0  0  0  0  0  0  0  0  0  0
    2.8434   14.0226   11.5879 C   0  0  0  0  0  0  0  0  0  0  0  0
    1.8041   13.0751   12.2059 C   0  0  0  0  0  0  0  0  0  0  0  0
    2.4698   11.7459   12.5612 C   0  0  0  0  0  0  0  0  0  0  0  0
    2.3260   10.7335   11.8694 O   0  0  0  0  0  0  0  0  0  0  0  0
    3.3679   11.7658   13.7931 C   0  0  0  0  0  0  0  0  0  0  0  0
    4.6527   10.9908   13.5812 C   0  0  0  0  0  0  0  0  0  0  0  0
    4.1961    7.5737   19.0108 C   0  0  0  0  0  0  0  0  0  0  0  0
   -2.2627   11.6503   14.4862 C   0  0  0  0  0  0  0  0  0  0  0  0
   -1.0244   19.6569   11.0567 C   0  0  0  0  0  0  0  0  0  0  0  0
    1.1729   16.3006    8.7590 C   0  0  0  0  0  0  0  0  0  0  0  0
    3.1996   15.5429   13.5430 C   0  0  0  0  0  0  0  0  0  0  0  0
    0.6805   12.8362   11.1845 C   0  0  0  0  0  0  0  0  0  0  0  0
    0.4891    6.6491   18.2188 H   0  0  0  0  0  0  0  0  0  0  0  0
    4.0969   15.1823    9.5773 H   0  0  0  0  0  0  0  0  0  0  0  0
   -1.6911   11.3508   17.3064 O   0  0  0  0  0  0  0  0  0  0  0  0
   -1.9425   12.1540   18.4150 C   0  0  0  0  0  0  0  0  0  0  0  0
    5.2224   18.0951   10.8062 O   0  0  0  0  0  0  0  0  0  0  0  0
    5.3384   19.2374   11.5801 C   0  0  0  0  0  0  0  0  0  0  0  0
    5.8458   11.2770   14.5154 C   0  0  0  0  0  0  0  0  0  0  0  0
    5.6478   10.6924   15.8850 C   0  0  0  0  0  0  0  0  0  0  0  0
    6.1576   12.7686   14.6108 C   0  0  0  0  0  0  0  0  0  0  0  0
    7.3469   13.2902   13.8013 C   0  0  0  0  0  0  0  0  0  0  0  0
    8.5879   12.4341   14.0783 C   0  0  0  0  0  0  0  0  0  0  0  0
    9.8480   12.9685   13.3930 C   0  0  0  0  0  0  0  0  0  0  0  0
    9.5810   13.1649   11.8605 C   0  0  0  0  0  0  0  0  0  0  0  0
   10.7087   13.8080   11.2687 O   0  0  0  0  0  0  0  0  0  0  0  0
    8.3153   13.9950   11.5656 C   0  0  0  0  0  0  0  0  0  0  0  0
    7.1083   13.4252   12.2974 C   0  0  0  0  0  0  0  0  0  0  0  0
   10.8264   14.6849   11.6664 H   0  0  0  0  0  0  0  0  0  0  0  0
   10.8506   12.0064   13.5961 O   0  0  0  0  0  0  0  0  0  0  0  0
   10.5378   10.6987   13.2581 C   0  0  0  0  0  0  0  0  0  0  0  0
  1  2  1  0  0  0
  1  3  2  0  0  0
  1  4  1  0  0  0
  2 43  1  0  0  0
  4  5  1  0  0  0
  4  9  1  0  0  0
  5  6  1  0  0  0
  6  7  1  0  0  0
  7  8  1  0  0  0
  8  9  1  0  0  0
  9 10  1  0  0  0
 10 11  2  0  0  0
 10 12  1  0  0  0
 12 13  2  0  0  0
 12 14  1  0  0  0
 14 15  1  0  0  0
 14 16  1  0  0  0
 14 17  1  0  0  0
 15 20  1  0  0  0
 17 18  1  0  0  0
 17 44  1  0  0  0
 18 19  1  0  0  0
 19 20  1  0  0  0
 20 21  1  0  0  0
 21 22  1  0  0  0
 22 52  1  0  0  0
 22 23  1  0  0  0
 52 53  1  0  0  0
 23 24  2  0  0  0
 23 45  1  0  0  0
 24 25  1  0  0  0
 25 26  2  0  0  0
 26 27  1  0  0  0
 27 28  2  0  0  0
 28 29  1  0  0  0
 29 30  1  0  0  0
 29 46  1  0  0  0
 30 31  1  0  0  0
 31 32  1  0  0  0
 31 47  1  0  0  0
 32 33  2  0  0  0
 32 34  1  0  0  0
 34 54  1  0  0  0
 34 35  1  0  0  0
 54 55  1  0  0  0
 35 36  1  0  0  0
 35 37  1  0  0  0
 37 38  2  0  0  0
 37 48  1  0  0  0
 38 39  1  0  0  0
 39 40  1  0  0  0
 39 49  1  0  0  0
 40 41  2  0  0  0
 40 42  1  0  0  0
 42 43  1  0  0  0
 43 56  1  0  0  0
 56 58  1  0  0  0
 56 57  1  0  0  0
 58 59  1  0  0  0
 59 60  1  0  0  0
 59 65  1  0  0  0
 60 61  1  0  0  0
 61 67  1  0  0  0
 61 62  1  0  0  0
 67 68  1  0  0  0
 62 63  1  0  0  0
 62 64  1  0  0  0
 64 65  1  0  0  0
 16 50  1  0  0  0
 36 51  1  0  0  0
 63 66  1  0  0  0
M  END
> <minimizedAffinity>
-10.49348

$$$$
1FKB_RAP_A_108


 68 71  0  0  0  0  0  0  0  0999 V2000
    4.5112    8.7133   12.7674 C   0  0  0  0  0  0  0  0  0  0  0  0
    4.1178    9.8241   13.5638 O   0  0  0  0  0  0  0  0  0  0  0  0
    5.2299    8.9260   11.7938 O   0  0  0  0  0  0  0  0  0  0  0  0
    4.0997    7.2819   13.1102 C   0  0  0  0  0  0  0  0  0  0  0  0
    3.6521    6.5280   11.8672 C   0  0  0  0  0  0  0  0  0  0  0  0
    2.2690    6.9287   11.3747 C   0  0  0  0  0  0  0  0  0  0  0  0
    1.2906    6.7616   12.5230 C   0  0  0  0  0  0  0  0  0  0  0  0
    1.7013    7.5930   13.6985 C   0  0  0  0  0  0  0  0  0  0  0  0
    3.0408    7.1504   14.1169 N   0  0  0  0  0  0  0  0  0  0  0  0
    3.3429    6.8187   15.3819 C   0  0  0  0  0  0  0  0  0  0  0  0
    4.5209    6.5504   15.6533 O   0  0  0  0  0  0  0  0  0  0  0  0
    2.3682    6.6859   16.3948 C   0  0  0  0  0  0  0  0  0  0  0  0
    1.7865    5.6026   16.5316 O   0  0  0  0  0  0  0  0  0  0  0  0
    2.0030    7.8421   17.3445 C   0  0  0  0  0  0  0  0  0  0  0  0
    1.1941    8.7084   16.5831 O   0  0  0  0  0  0  0  0  0  0  0  0
    1.2829    7.3110   18.4605 O   0  0  0  0  0  0  0  0  0  0  0  0
    3.2618    8.6395   17.8774 C   0  0  0  0  0  0  0  0  0  0  0  0
    2.8401    9.9617   18.5584 C   0  0  0  0  0  0  0  0  0  0  0  0
    1.8766   10.7349   17.6697 C   0  0  0  0  0  0  0  0  0  0  0  0
    0.7273    9.8866   17.1356 C   0  0  0  0  0  0  0  0  0  0  0  0
    0.0459   10.6119   15.9879 C   0  0  0  0  0  0  0  0  0  0  0  0
   -0.7618   11.8533   16.3470 C   0  0  0  0  0  0  0  0  0  0  0  0
   -1.3558   12.5001   15.1143 C   0  0  0  0  0  0  0  0  0  0  0  0
   -0.9208   13.7014   14.7584 C   0  0  0  0  0  0  0  0  0  0  0  0
   -1.3779   14.4430   13.5752 C   0  0  0  0  0  0  0  0  0  0  0  0
   -0.9050   15.6613   13.3545 C   0  0  0  0  0  0  0  0  0  0  0  0
   -1.2527   16.4076   12.1311 C   0  0  0  0  0  0  0  0  0  0  0  0
   -0.6359   17.5261   11.7996 C   0  0  0  0  0  0  0  0  0  0  0  0
   -0.8723   18.2752   10.5061 C   0  0  0  0  0  0  0  0  0  0  0  0
    0.4790   18.4027    9.8243 C   0  0  0  0  0  0  0  0  0  0  0  0
    1.2771   17.1284    9.6216 C   0  0  0  0  0  0  0  0  0  0  0  0
    2.7495   17.4427    9.3933 C   0  0  0  0  0  0  0  0  0  0  0  0
    3.1855   17.6940    8.2718 O   0  0  0  0  0  0  0  0  0  0  0  0
    3.6536   17.4185   10.6211 C   0  0  0  0  0  0  0  0  0  0  0  0
    4.1638   15.9890   10.9919 C   0  0  0  0  0  0  0  0  0  0  0  0
    4.4824   15.3132    9.7673 O   0  0  0  0  0  0  0  0  0  0  0  0
    3.1441   15.1598   11.7959 C   0  0  0  0  0  0  0  0  0  0  0  0
    2.5155   14.0976   11.2939 C   0  0  0  0  0  0  0  0  0  0  0  0
    1.5141   13.1440   11.9631 C   0  0  0  0  0  0  0  0  0  0  0  0
    2.2157   11.8349   12.3239 C   0  0  0  0  0  0  0  0  0  0  0  0
    2.0698   10.8059   11.6574 O   0  0  0  0  0  0  0  0  0  0  0  0
    3.1512   11.8968   13.5263 C   0  0  0  0  0  0  0  0  0  0  0  0
    4.4432   11.1413   13.2898 C   0  0  0  0  0  0  0  0  0  0  0  0
    4.2206    7.8292   18.7985 C   0  0  0  0  0  0  0  0  0  0  0  0
   -2.4520   11.6919   14.3982 C   0  0  0  0  0  0  0  0  0  0  0  0
   -1.4736   19.6475   10.7716 C   0  0  0  0  0  0  0  0  0  0  0  0
    0.7150   16.2855    8.4738 C   0  0  0  0  0  0  0  0  0  0  0  0
    2.9032   15.6642   13.2060 C   0  0  0  0  0  0  0  0  0  0  0  0
    0.3641   12.8635   10.9825 C   0  0  0  0  0  0  0  0  0  0  0  0
    0.5091    6.8203   18.1421 H   0  0  0  0  0  0  0  0  0  0  0  0
    3.6837   15.2384    9.2220 H   0  0  0  0  0  0  0  0  0  0  0  0
   -1.7876   11.4613   17.2045 O   0  0  0  0  0  0  0  0  0  0  0  0
   -2.0348   12.2945   18.2916 C   0  0  0  0  0  0  0  0  0  0  0  0
    4.7911   18.1961   10.3563 O   0  0  0  0  0  0  0  0  0  0  0  0
    5.7305   18.2464   11.3723 C   0  0  0  0  0  0  0  0  0  0  0  0
    5.6591   11.4686   14.1801 C   0  0  0  0  0  0  0  0  0  0  0  0
    6.8633   10.6448   13.8223 C   0  0  0  0  0  0  0  0  0  0  0  0
    5.3385   11.3296   15.6664 C   0  0  0  0  0  0  0  0  0  0  0  0
    5.3295   12.6094   16.5053 C   0  0  0  0  0  0  0  0  0  0  0  0
    6.3372   13.6164   15.9394 C   0  0  0  0  0  0  0  0  0  0  0  0
    6.4691   14.8768   16.7979 C   0  0  0  0  0  0  0  0  0  0  0  0
    5.0551   15.5098   17.0393 C   0  0  0  0  0  0  0  0  0  0  0  0
    5.1781   16.5877   17.9660 O   0  0  0  0  0  0  0  0  0  0  0  0
    4.0205   14.4998   17.5756 C   0  0  0  0  0  0  0  0  0  0  0  0
    3.9599   13.2621   16.6916 C   0  0  0  0  0  0  0  0  0  0  0  0
    5.5028   16.2488   18.8149 H   0  0  0  0  0  0  0  0  0  0  0  0
    7.2869   15.7644   16.0797 O   0  0  0  0  0  0  0  0  0  0  0  0
    8.4971   16.1076   16.6626 C   0  0  0  0  0  0  0  0  0  0  0  0
  1  2  1  0  0  0
  1  3  2  0  0  0
  1  4  1  0  0  0
  2 43  1  0  0  0
  4  5  1  0  0  0
  4  9  1  0  0  0
  5  6  1  0  0  0
  6  7  1  0  0  0
  7  8  1  0  0  0
  8  9  1  0  0  0
  9 10  1  0  0  0
 10 11  2  0  0  0
 10 12  1  0  0  0
 12 13  2  0  0  0
 12 14  1  0  0  0
 14 15  1  0  0  0
 14 16  1  0  0  0
 14 17  1  0  0  0
 15 20  1  0  0  0
 17 18  1  0  0  0
 17 44  1  0  0  0
 18 19  1  0  0  0
 19 20  1  0  0  0
 20 21  1  0  0  0
 21 22  1  0  0  0
 22 52  1  0  0  0
 22 23  1  0  0  0
 52 53  1  0  0  0
 23 24  2  0  0  0
 23 45  1  0  0  0
 24 25  1  0  0  0
 25 26  2  0  0  0
 26 27  1  0  0  0
 27 28  2  0  0  0
 28 29  1  0  0  0
 29 30  1  0  0  0
 29 46  1  0  0  0
 30 31  1  0  0  0
 31 32  1  0  0  0
 31 47  1  0  0  0
 32 33  2  0  0  0
 32 34  1  0  0  0
 34 54  1  0  0  0
 34 35  1  0  0  0
 54 55  1  0  0  0
 35 36  1  0  0  0
 35 37  1  0  0  0
 37 38  2  0  0  0
 37 48  1  0  0  0
 38 39  1  0  0  0
 39 40  1  0  0  0
 39 49  1  0  0  0
 40 41  2  0  0  0
 40 42  1  0  0  0
 42 43  1  0  0  0
 43 56  1  0  0  0
 56 58  1  0  0  0
 56 57  1  0  0  0
 58 59  1  0  0  0
 59 60  1  0  0  0
 59 65  1  0  0  0
 60 61  1  0  0  0
 61 67  1  0  0  0
 61 62  1  0  0  0
 67 68  1  0  0  0
 62 63  1  0  0  0
 62 64  1  0  0  0
 64 65  1  0  0  0
 16 50  1  0  0  0
 36 51  1  0  0  0
 63 66  1  0  0  0
M  END
> <minimizedAffinity>
-9.32123

$$$$
