3F7I_G13_A_1


 38 41  0  0  0  0  0  0  0  0999 V2000
   77.2078   62.9920   14.1601 C   0  0  0  0  0  0  0  0  0  0  0  0
   78.5078   63.7947   14.2206 C   0  0  0  0  0  0  0  0  0  0  0  0
   78.3188   65.0440   13.3824 C   0  0  0  0  0  0  0  0  0  0  0  0
   77.0284   64.8735   12.5856 C   0  0  0  0  0  0  0  0  0  0  0  0
   76.3757   63.5663   13.0262 C   0  0  0  0  0  0  0  0  0  0  0  0
   79.5382   65.1534   12.4913 C   0  0  0  0  0  0  0  0  0  0  0  0
   80.0759   63.7384   12.3789 C   0  0  0  0  0  0  0  0  0  0  0  0
   79.6288   63.0722   13.6017 N   0  0  0  0  0  0  0  0  0  0  0  0
   80.1290   61.9808   14.1952 C   0  0  0  0  0  0  0  0  0  0  0  0
   79.7267   61.6214   15.2932 O   0  0  0  0  0  0  0  0  0  0  0  0
   75.5953   61.0783   15.4853 O   0  0  0  0  0  0  0  0  0  0  0  0
   75.8307   62.1438   16.0278 C   0  0  0  0  0  0  0  0  0  0  0  0
   76.4865   63.1307   15.4110 N   0  0  0  0  0  0  0  0  0  0  0  0
   76.4798   64.0182   15.8372 H   0  0  0  0  0  0  0  0  0  0  0  0
   75.3815   62.4040   17.4488 C   0  0  0  0  0  0  0  0  0  0  0  0
   76.3778   62.6017   18.3997 C   0  0  0  0  0  0  0  0  0  0  0  0
   76.0602   62.8638   19.7320 C   0  0  0  0  0  0  0  0  0  0  0  0
   74.7244   62.9327   20.1169 C   0  0  0  0  0  0  0  0  0  0  0  0
   73.7209   62.7429   19.1673 C   0  0  0  0  0  0  0  0  0  0  0  0
   72.3892   62.8170   19.5738 C   0  0  0  0  0  0  0  0  0  0  0  0
   74.0387   62.4819   17.8331 C   0  0  0  0  0  0  0  0  0  0  0  0
   72.9979   62.2978   16.9116 C   0  0  0  0  0  0  0  0  0  0  0  0
   71.6684   62.3735   17.3213 C   0  0  0  0  0  0  0  0  0  0  0  0
   71.3614   62.6323   18.6537 C   0  0  0  0  0  0  0  0  0  0  0  0
   81.2188   61.1806   13.5261 C   0  0  0  0  0  0  0  0  0  0  0  0
   80.6435   59.9762   12.7704 C   0  0  0  0  0  0  0  0  0  0  0  0
   81.4925   59.6814   11.5395 C   0  0  0  0  0  0  0  0  0  0  0  0
   79.2119   60.2355   12.3139 C   0  0  0  0  0  0  0  0  0  0  0  0
   80.6745   58.7274   13.6467 C   0  0  0  0  0  0  0  0  0  0  0  0
   82.1832   60.7524   14.5300 N   0  0  0  0  0  0  0  0  0  0  0  0
   83.5040   60.8630   14.4012 C   0  0  0  0  0  0  0  0  0  0  0  0
   84.0420   61.3776   13.4333 O   0  0  0  0  0  0  0  0  0  0  0  0
   81.8349   60.3541   15.3603 H   0  0  0  0  0  0  0  0  0  0  0  0
   84.3262   60.2826   15.5200 C   0  0  0  0  0  0  0  0  0  0  0  0
   84.4087   61.2510   16.6965 C   0  0  0  0  0  0  0  0  0  0  0  0
   85.6554   59.9251   15.0656 N   0  0  0  0  0  0  0  0  0  0  0  0
   85.8687   58.6555   14.3901 C   0  0  0  0  0  0  0  0  0  0  0  0
   86.2597   59.9281   15.8874 H   0  0  0  0  0  0  0  0  0  0  0  0
 11 12  2  0  0  0
 12 15  1  0  0  0
 12 13  1  0  0  0
 15 16  2  0  0  0
 15 21  1  0  0  0
 16 17  1  0  0  0
 17 18  2  0  0  0
 18 19  1  0  0  0
 19 20  2  0  0  0
 19 21  1  0  0  0
 20 24  1  0  0  0
 21 22  2  0  0  0
 22 23  1  0  0  0
 23 24  2  0  0  0
 13  1  1  0  0  0
  1  2  1  0  0  0
  1  5  1  0  0  0
  2  3  1  0  0  0
  2  8  1  0  0  0
  3  4  1  0  0  0
  3  6  1  0  0  0
  4  5  1  0  0  0
  6  7  1  0  0  0
  7  8  1  0  0  0
  8  9  1  0  0  0
  9 10  2  0  0  0
  9 25  1  0  0  0
 25 26  1  0  0  0
 25 30  1  0  0  0
 26 27  1  0  0  0
 26 28  1  0  0  0
 26 29  1  0  0  0
 30 31  1  0  0  0
 31 32  2  0  0  0
 31 34  1  0  0  0
 34 35  1  0  0  0
 34 36  1  0  0  0
 36 37  1  0  0  0
 13 14  1  0  0  0
 30 33  1  0  0  0
 36 38  1  0  0  0
M  END
> <minimizedAffinity>
-8.25071

$$$$
3F7I_G13_A_1


 38 41  0  0  0  0  0  0  0  0999 V2000
   79.4382   60.6556   13.1449 C   0  0  0  0  0  0  0  0  0  0  0  0
   78.4337   59.9820   14.0806 C   0  0  0  0  0  0  0  0  0  0  0  0
   77.9461   58.7171   13.4016 C   0  0  0  0  0  0  0  0  0  0  0  0
   78.4219   58.7594   11.9521 C   0  0  0  0  0  0  0  0  0  0  0  0
   79.2950   59.9993   11.7823 C   0  0  0  0  0  0  0  0  0  0  0  0
   76.4361   58.7221   13.5149 C   0  0  0  0  0  0  0  0  0  0  0  0
   76.0556   60.1819   13.6829 C   0  0  0  0  0  0  0  0  0  0  0  0
   77.2336   60.8067   14.2836 N   0  0  0  0  0  0  0  0  0  0  0  0
   77.3155   61.9435   14.9868 C   0  0  0  0  0  0  0  0  0  0  0  0
   78.3570   62.2669   15.5412 O   0  0  0  0  0  0  0  0  0  0  0  0
   81.5722   62.5135   13.2587 O   0  0  0  0  0  0  0  0  0  0  0  0
   81.7079   61.4118   13.7618 C   0  0  0  0  0  0  0  0  0  0  0  0
   80.7855   60.4530   13.6430 N   0  0  0  0  0  0  0  0  0  0  0  0
   81.0389   59.5410   13.9136 H   0  0  0  0  0  0  0  0  0  0  0  0
   82.9498   61.0722   14.5563 C   0  0  0  0  0  0  0  0  0  0  0  0
   83.1452   61.7628   15.7482 C   0  0  0  0  0  0  0  0  0  0  0  0
   84.2527   61.5064   16.5559 C   0  0  0  0  0  0  0  0  0  0  0  0
   85.1764   60.5412   16.1657 C   0  0  0  0  0  0  0  0  0  0  0  0
   84.9824   59.8402   14.9758 C   0  0  0  0  0  0  0  0  0  0  0  0
   85.9192   58.8768   14.6038 C   0  0  0  0  0  0  0  0  0  0  0  0
   83.8729   60.0957   14.1677 C   0  0  0  0  0  0  0  0  0  0  0  0
   83.7171   59.3672   12.9798 C   0  0  0  0  0  0  0  0  0  0  0  0
   84.6548   58.4046   12.6117 C   0  0  0  0  0  0  0  0  0  0  0  0
   85.7585   58.1582   13.4228 C   0  0  0  0  0  0  0  0  0  0  0  0
   76.1120   62.8424   15.1263 C   0  0  0  0  0  0  0  0  0  0  0  0
   76.1538   63.9929   14.1127 C   0  0  0  0  0  0  0  0  0  0  0  0
   75.6833   65.2837   14.7725 C   0  0  0  0  0  0  0  0  0  0  0  0
   75.2550   63.7130   12.9132 C   0  0  0  0  0  0  0  0  0  0  0  0
   77.5810   64.2306   13.6284 C   0  0  0  0  0  0  0  0  0  0  0  0
   76.0507   63.3520   16.4893 N   0  0  0  0  0  0  0  0  0  0  0  0
   75.3510   62.7897   17.4730 C   0  0  0  0  0  0  0  0  0  0  0  0
   74.7159   61.7557   17.3372 O   0  0  0  0  0  0  0  0  0  0  0  0
   76.5613   64.1676   16.6975 H   0  0  0  0  0  0  0  0  0  0  0  0
   75.3554   63.5227   18.7872 C   0  0  0  0  0  0  0  0  0  0  0  0
   76.3309   62.8791   19.7685 C   0  0  0  0  0  0  0  0  0  0  0  0
   74.0258   63.5812   19.3616 N   0  0  0  0  0  0  0  0  0  0  0  0
   73.7108   62.7786   20.5323 C   0  0  0  0  0  0  0  0  0  0  0  0
   73.3742   63.3026   18.6280 H   0  0  0  0  0  0  0  0  0  0  0  0
 11 12  2  0  0  0
 12 15  1  0  0  0
 12 13  1  0  0  0
 15 16  2  0  0  0
 15 21  1  0  0  0
 16 17  1  0  0  0
 17 18  2  0  0  0
 18 19  1  0  0  0
 19 20  2  0  0  0
 19 21  1  0  0  0
 20 24  1  0  0  0
 21 22  2  0  0  0
 22 23  1  0  0  0
 23 24  2  0  0  0
 13  1  1  0  0  0
  1  2  1  0  0  0
  1  5  1  0  0  0
  2  3  1  0  0  0
  2  8  1  0  0  0
  3  4  1  0  0  0
  3  6  1  0  0  0
  4  5  1  0  0  0
  6  7  1  0  0  0
  7  8  1  0  0  0
  8  9  1  0  0  0
  9 10  2  0  0  0
  9 25  1  0  0  0
 25 26  1  0  0  0
 25 30  1  0  0  0
 26 27  1  0  0  0
 26 28  1  0  0  0
 26 29  1  0  0  0
 30 31  1  0  0  0
 31 32  2  0  0  0
 31 34  1  0  0  0
 34 35  1  0  0  0
 34 36  1  0  0  0
 36 37  1  0  0  0
 13 14  1  0  0  0
 30 33  1  0  0  0
 36 38  1  0  0  0
M  END
> <minimizedAffinity>
-7.16993

$$$$
3F7I_G13_A_1


 38 41  0  0  0  0  0  0  0  0999 V2000
   79.6427   58.9727   12.4412 C   0  0  0  0  0  0  0  0  0  0  0  0
   78.6659   58.7969   13.6045 C   0  0  0  0  0  0  0  0  0  0  0  0
   77.9744   57.4590   13.4288 C   0  0  0  0  0  0  0  0  0  0  0  0
   78.3067   56.9487   12.0294 C   0  0  0  0  0  0  0  0  0  0  0  0
   79.2930   57.9264   11.3968 C   0  0  0  0  0  0  0  0  0  0  0  0
   76.4931   57.7120   13.6153 C   0  0  0  0  0  0  0  0  0  0  0  0
   76.2979   59.1822   13.2921 C   0  0  0  0  0  0  0  0  0  0  0  0
   77.5922   59.8008   13.5767 N   0  0  0  0  0  0  0  0  0  0  0  0
   77.8705   61.0839   13.8411 C   0  0  0  0  0  0  0  0  0  0  0  0
   78.9913   61.4250   14.1933 O   0  0  0  0  0  0  0  0  0  0  0  0
   82.0304   60.1701   11.5010 O   0  0  0  0  0  0  0  0  0  0  0  0
   82.0673   59.4458   12.4805 C   0  0  0  0  0  0  0  0  0  0  0  0
   81.0011   58.7621   12.9047 N   0  0  0  0  0  0  0  0  0  0  0  0
   81.1481   58.0631   13.5823 H   0  0  0  0  0  0  0  0  0  0  0  0
   83.3450   59.2828   13.2740 C   0  0  0  0  0  0  0  0  0  0  0  0
   84.2252   58.2894   12.8563 C   0  0  0  0  0  0  0  0  0  0  0  0
   85.4351   58.0753   13.5157 C   0  0  0  0  0  0  0  0  0  0  0  0
   85.7702   58.8707   14.6077 C   0  0  0  0  0  0  0  0  0  0  0  0
   84.8958   59.8730   15.0268 C   0  0  0  0  0  0  0  0  0  0  0  0
   85.2511   60.6591   16.1222 C   0  0  0  0  0  0  0  0  0  0  0  0
   83.6851   60.0884   14.3658 C   0  0  0  0  0  0  0  0  0  0  0  0
   82.8361   61.1075   14.8208 C   0  0  0  0  0  0  0  0  0  0  0  0
   83.1949   61.8916   15.9152 C   0  0  0  0  0  0  0  0  0  0  0  0
   84.4030   61.6682   16.5688 C   0  0  0  0  0  0  0  0  0  0  0  0
   76.7956   62.1363   13.7285 C   0  0  0  0  0  0  0  0  0  0  0  0
   77.2001   63.2453   12.7491 C   0  0  0  0  0  0  0  0  0  0  0  0
   75.9574   63.9594   12.2309 C   0  0  0  0  0  0  0  0  0  0  0  0
   77.9631   62.6838   11.5543 C   0  0  0  0  0  0  0  0  0  0  0  0
   78.0606   64.2928   13.4494 C   0  0  0  0  0  0  0  0  0  0  0  0
   76.5217   62.6840   15.0500 N   0  0  0  0  0  0  0  0  0  0  0  0
   75.4959   62.3215   15.8179 C   0  0  0  0  0  0  0  0  0  0  0  0
   74.6963   61.4542   15.5022 O   0  0  0  0  0  0  0  0  0  0  0  0
   77.1369   63.3687   15.3994 H   0  0  0  0  0  0  0  0  0  0  0  0
   75.3462   63.0705   17.1145 C   0  0  0  0  0  0  0  0  0  0  0  0
   75.0301   64.5419   16.8620 C   0  0  0  0  0  0  0  0  0  0  0  0
   76.5332   62.9424   17.9363 N   0  0  0  0  0  0  0  0  0  0  0  0
   76.4154   62.4563   19.3015 C   0  0  0  0  0  0  0  0  0  0  0  0
   76.9587   63.8680   17.9877 H   0  0  0  0  0  0  0  0  0  0  0  0
 11 12  2  0  0  0
 12 15  1  0  0  0
 12 13  1  0  0  0
 15 16  2  0  0  0
 15 21  1  0  0  0
 16 17  1  0  0  0
 17 18  2  0  0  0
 18 19  1  0  0  0
 19 20  2  0  0  0
 19 21  1  0  0  0
 20 24  1  0  0  0
 21 22  2  0  0  0
 22 23  1  0  0  0
 23 24  2  0  0  0
 13  1  1  0  0  0
  1  2  1  0  0  0
  1  5  1  0  0  0
  2  3  1  0  0  0
  2  8  1  0  0  0
  3  4  1  0  0  0
  3  6  1  0  0  0
  4  5  1  0  0  0
  6  7  1  0  0  0
  7  8  1  0  0  0
  8  9  1  0  0  0
  9 10  2  0  0  0
  9 25  1  0  0  0
 25 26  1  0  0  0
 25 30  1  0  0  0
 26 27  1  0  0  0
 26 28  1  0  0  0
 26 29  1  0  0  0
 30 31  1  0  0  0
 31 32  2  0  0  0
 31 34  1  0  0  0
 34 35  1  0  0  0
 34 36  1  0  0  0
 36 37  1  0  0  0
 13 14  1  0  0  0
 30 33  1  0  0  0
 36 38  1  0  0  0
M  END
> <minimizedAffinity>
-6.28285

$$$$
3F7I_G13_A_1


 38 41  0  0  0  0  0  0  0  0999 V2000
   79.0074   60.8681   11.8081 C   0  0  0  0  0  0  0  0  0  0  0  0
   78.0012   60.2824   12.7994 C   0  0  0  0  0  0  0  0  0  0  0  0
   77.2018   59.2189   12.0722 C   0  0  0  0  0  0  0  0  0  0  0  0
   77.5115   59.3471   10.5833 C   0  0  0  0  0  0  0  0  0  0  0  0
   78.5867   60.4176   10.4196 C   0  0  0  0  0  0  0  0  0  0  0  0
   75.7445   59.4865   12.3847 C   0  0  0  0  0  0  0  0  0  0  0  0
   75.6794   60.9605   12.7418 C   0  0  0  0  0  0  0  0  0  0  0  0
   77.0168   61.2824   13.2384 N   0  0  0  0  0  0  0  0  0  0  0  0
   77.3985   62.2922   14.0309 C   0  0  0  0  0  0  0  0  0  0  0  0
   78.5386   62.3506   14.4708 O   0  0  0  0  0  0  0  0  0  0  0  0
   81.2443   62.2805   12.8180 O   0  0  0  0  0  0  0  0  0  0  0  0
   81.3109   61.0718   12.6777 C   0  0  0  0  0  0  0  0  0  0  0  0
   80.3357   60.3641   12.1012 N   0  0  0  0  0  0  0  0  0  0  0  0
   80.5330   59.4310   11.8571 H   0  0  0  0  0  0  0  0  0  0  0  0
   82.5231   60.3034   13.1562 C   0  0  0  0  0  0  0  0  0  0  0  0
   82.9536   59.2451   12.3620 C   0  0  0  0  0  0  0  0  0  0  0  0
   84.0715   58.4891   12.7135 C   0  0  0  0  0  0  0  0  0  0  0  0
   84.7708   58.8001   13.8760 C   0  0  0  0  0  0  0  0  0  0  0  0
   84.3489   59.8643   14.6725 C   0  0  0  0  0  0  0  0  0  0  0  0
   85.0642   60.1596   15.8324 C   0  0  0  0  0  0  0  0  0  0  0  0
   83.2306   60.6222   14.3200 C   0  0  0  0  0  0  0  0  0  0  0  0
   82.8418   61.6835   15.1499 C   0  0  0  0  0  0  0  0  0  0  0  0
   83.5595   61.9763   16.3076 C   0  0  0  0  0  0  0  0  0  0  0  0
   84.6718   61.2140   16.6517 C   0  0  0  0  0  0  0  0  0  0  0  0
   76.4184   63.3728   14.4149 C   0  0  0  0  0  0  0  0  0  0  0  0
   76.7412   64.6960   13.7094 C   0  0  0  0  0  0  0  0  0  0  0  0
   78.2493   64.9140   13.6791 C   0  0  0  0  0  0  0  0  0  0  0  0
   76.1003   65.8806   14.4243 C   0  0  0  0  0  0  0  0  0  0  0  0
   76.2632   64.6630   12.2608 C   0  0  0  0  0  0  0  0  0  0  0  0
   76.4311   63.5383   15.8618 N   0  0  0  0  0  0  0  0  0  0  0  0
   75.5271   63.0149   16.6878 C   0  0  0  0  0  0  0  0  0  0  0  0
   74.6095   62.3023   16.3122 O   0  0  0  0  0  0  0  0  0  0  0  0
   77.1573   64.0734   16.2560 H   0  0  0  0  0  0  0  0  0  0  0  0
   75.6754   63.3757   18.1413 C   0  0  0  0  0  0  0  0  0  0  0  0
   76.3402   62.2442   18.9200 C   0  0  0  0  0  0  0  0  0  0  0  0
   74.3958   63.7127   18.7330 N   0  0  0  0  0  0  0  0  0  0  0  0
   73.8232   62.8479   19.7519 C   0  0  0  0  0  0  0  0  0  0  0  0
   73.7201   63.7586   17.9703 H   0  0  0  0  0  0  0  0  0  0  0  0
 11 12  2  0  0  0
 12 15  1  0  0  0
 12 13  1  0  0  0
 15 16  2  0  0  0
 15 21  1  0  0  0
 16 17  1  0  0  0
 17 18  2  0  0  0
 18 19  1  0  0  0
 19 20  2  0  0  0
 19 21  1  0  0  0
 20 24  1  0  0  0
 21 22  2  0  0  0
 22 23  1  0  0  0
 23 24  2  0  0  0
 13  1  1  0  0  0
  1  2  1  0  0  0
  1  5  1  0  0  0
  2  3  1  0  0  0
  2  8  1  0  0  0
  3  4  1  0  0  0
  3  6  1  0  0  0
  4  5  1  0  0  0
  6  7  1  0  0  0
  7  8  1  0  0  0
  8  9  1  0  0  0
  9 10  2  0  0  0
  9 25  1  0  0  0
 25 26  1  0  0  0
 25 30  1  0  0  0
 26 27  1  0  0  0
 26 28  1  0  0  0
 26 29  1  0  0  0
 30 31  1  0  0  0
 31 32  2  0  0  0
 31 34  1  0  0  0
 34 35  1  0  0  0
 34 36  1  0  0  0
 36 37  1  0  0  0
 13 14  1  0  0  0
 30 33  1  0  0  0
 36 38  1  0  0  0
M  END
> <minimizedAffinity>
-6.21035

$$$$
3F7I_G13_A_1


 38 41  0  0  0  0  0  0  0  0999 V2000
   79.0581   63.7559   13.3178 C   0  0  0  0  0  0  0  0  0  0  0  0
   78.2100   63.3156   12.1240 C   0  0  0  0  0  0  0  0  0  0  0  0
   78.2708   64.4164   11.0831 C   0  0  0  0  0  0  0  0  0  0  0  0
   78.9080   65.6375   11.7403 C   0  0  0  0  0  0  0  0  0  0  0  0
   79.3367   65.2398   13.1499 C   0  0  0  0  0  0  0  0  0  0  0  0
   76.8444   64.6741   10.6449 C   0  0  0  0  0  0  0  0  0  0  0  0
   75.9825   64.2037   11.8025 C   0  0  0  0  0  0  0  0  0  0  0  0
   76.7887   63.1872   12.4775 N   0  0  0  0  0  0  0  0  0  0  0  0
   76.3884   62.1974   13.2861 C   0  0  0  0  0  0  0  0  0  0  0  0
   77.1735   61.3407   13.6685 O   0  0  0  0  0  0  0  0  0  0  0  0
   79.9431   61.8017   15.1661 O   0  0  0  0  0  0  0  0  0  0  0  0
   80.6123   62.0374   14.1753 C   0  0  0  0  0  0  0  0  0  0  0  0
   80.3105   63.0241   13.3268 N   0  0  0  0  0  0  0  0  0  0  0  0
   80.9886   63.2730   12.6579 H   0  0  0  0  0  0  0  0  0  0  0  0
   81.8384   61.2109   13.8556 C   0  0  0  0  0  0  0  0  0  0  0  0
   81.8619   60.5672   12.6223 C   0  0  0  0  0  0  0  0  0  0  0  0
   82.9567   59.7961   12.2331 C   0  0  0  0  0  0  0  0  0  0  0  0
   84.0459   59.6708   13.0905 C   0  0  0  0  0  0  0  0  0  0  0  0
   84.0318   60.3195   14.3250 C   0  0  0  0  0  0  0  0  0  0  0  0
   85.1334   60.1817   15.1684 C   0  0  0  0  0  0  0  0  0  0  0  0
   82.9364   61.0928   14.7142 C   0  0  0  0  0  0  0  0  0  0  0  0
   82.9646   61.7277   15.9641 C   0  0  0  0  0  0  0  0  0  0  0  0
   84.0676   61.5885   16.8039 C   0  0  0  0  0  0  0  0  0  0  0  0
   85.1540   60.8141   16.4080 C   0  0  0  0  0  0  0  0  0  0  0  0
   74.9485   62.1082   13.7271 C   0  0  0  0  0  0  0  0  0  0  0  0
   74.6944   62.9565   14.9795 C   0  0  0  0  0  0  0  0  0  0  0  0
   73.6809   64.0514   14.6684 C   0  0  0  0  0  0  0  0  0  0  0  0
   75.9760   63.6171   15.4757 C   0  0  0  0  0  0  0  0  0  0  0  0
   74.1031   62.1016   16.0965 C   0  0  0  0  0  0  0  0  0  0  0  0
   74.6068   60.7127   13.9661 N   0  0  0  0  0  0  0  0  0  0  0  0
   74.0091   59.9207   13.0779 C   0  0  0  0  0  0  0  0  0  0  0  0
   73.7210   60.2800   11.9469 O   0  0  0  0  0  0  0  0  0  0  0  0
   74.8331   60.3288   14.8440 H   0  0  0  0  0  0  0  0  0  0  0  0
   73.6692   58.5344   13.5545 C   0  0  0  0  0  0  0  0  0  0  0  0
   72.5050   58.5659   14.5406 C   0  0  0  0  0  0  0  0  0  0  0  0
   74.8199   57.8864   14.1518 N   0  0  0  0  0  0  0  0  0  0  0  0
   75.8663   57.3467   13.2987 C   0  0  0  0  0  0  0  0  0  0  0  0
   74.4653   57.1109   14.7115 H   0  0  0  0  0  0  0  0  0  0  0  0
 11 12  2  0  0  0
 12 15  1  0  0  0
 12 13  1  0  0  0
 15 16  2  0  0  0
 15 21  1  0  0  0
 16 17  1  0  0  0
 17 18  2  0  0  0
 18 19  1  0  0  0
 19 20  2  0  0  0
 19 21  1  0  0  0
 20 24  1  0  0  0
 21 22  2  0  0  0
 22 23  1  0  0  0
 23 24  2  0  0  0
 13  1  1  0  0  0
  1  2  1  0  0  0
  1  5  1  0  0  0
  2  3  1  0  0  0
  2  8  1  0  0  0
  3  4  1  0  0  0
  3  6  1  0  0  0
  4  5  1  0  0  0
  6  7  1  0  0  0
  7  8  1  0  0  0
  8  9  1  0  0  0
  9 10  2  0  0  0
  9 25  1  0  0  0
 25 26  1  0  0  0
 25 30  1  0  0  0
 26 27  1  0  0  0
 26 28  1  0  0  0
 26 29  1  0  0  0
 30 31  1  0  0  0
 31 32  2  0  0  0
 31 34  1  0  0  0
 34 35  1  0  0  0
 34 36  1  0  0  0
 36 37  1  0  0  0
 13 14  1  0  0  0
 30 33  1  0  0  0
 36 38  1  0  0  0
M  END
> <minimizedAffinity>
-6.11280

$$$$
3F7I_G13_A_1


 38 41  0  0  0  0  0  0  0  0999 V2000
   79.8591   58.6220   12.0158 C   0  0  0  0  0  0  0  0  0  0  0  0
   78.9052   59.1778   13.0738 C   0  0  0  0  0  0  0  0  0  0  0  0
   78.0237   58.0379   13.5455 C   0  0  0  0  0  0  0  0  0  0  0  0
   78.2342   56.8667   12.5898 C   0  0  0  0  0  0  0  0  0  0  0  0
   79.3296   57.2595   11.6026 C   0  0  0  0  0  0  0  0  0  0  0  0
   76.6008   58.5553   13.5213 C   0  0  0  0  0  0  0  0  0  0  0  0
   76.6081   59.6896   12.5126 C   0  0  0  0  0  0  0  0  0  0  0  0
   77.9862   60.1791   12.5131 N   0  0  0  0  0  0  0  0  0  0  0  0
   78.4540   61.3735   12.1280 C   0  0  0  0  0  0  0  0  0  0  0  0
   79.6230   61.6818   12.3156 O   0  0  0  0  0  0  0  0  0  0  0  0
   82.2532   59.9227   11.2442 O   0  0  0  0  0  0  0  0  0  0  0  0
   82.2501   59.2063   12.2301 C   0  0  0  0  0  0  0  0  0  0  0  0
   81.1875   58.4766   12.5803 N   0  0  0  0  0  0  0  0  0  0  0  0
   81.3154   57.7889   13.2731 H   0  0  0  0  0  0  0  0  0  0  0  0
   83.4715   59.1066   13.1173 C   0  0  0  0  0  0  0  0  0  0  0  0
   84.4015   58.1207   12.8027 C   0  0  0  0  0  0  0  0  0  0  0  0
   85.5660   57.9631   13.5536 C   0  0  0  0  0  0  0  0  0  0  0  0
   85.8042   58.8081   14.6336 C   0  0  0  0  0  0  0  0  0  0  0  0
   84.8796   59.8030   14.9497 C   0  0  0  0  0  0  0  0  0  0  0  0
   85.1379   60.6394   16.0350 C   0  0  0  0  0  0  0  0  0  0  0  0
   83.7144   59.9619   14.1971 C   0  0  0  0  0  0  0  0  0  0  0  0
   82.8122   60.9756   14.5502 C   0  0  0  0  0  0  0  0  0  0  0  0
   83.0741   61.8101   15.6348 C   0  0  0  0  0  0  0  0  0  0  0  0
   84.2374   61.6429   16.3801 C   0  0  0  0  0  0  0  0  0  0  0  0
   77.5380   62.3751   11.4697 C   0  0  0  0  0  0  0  0  0  0  0  0
   77.6745   62.3372    9.9424 C   0  0  0  0  0  0  0  0  0  0  0  0
   78.7236   63.3457    9.4894 C   0  0  0  0  0  0  0  0  0  0  0  0
   76.3561   62.6764    9.2555 C   0  0  0  0  0  0  0  0  0  0  0  0
   78.1446   60.9615    9.4790 C   0  0  0  0  0  0  0  0  0  0  0  0
   77.8334   63.7048   11.9853 N   0  0  0  0  0  0  0  0  0  0  0  0
   77.0257   64.3994   12.7844 C   0  0  0  0  0  0  0  0  0  0  0  0
   75.9621   63.9678   13.2011 O   0  0  0  0  0  0  0  0  0  0  0  0
   78.6883   64.1182   11.7254 H   0  0  0  0  0  0  0  0  0  0  0  0
   77.4824   65.7895   13.1361 C   0  0  0  0  0  0  0  0  0  0  0  0
   78.9915   65.9301   12.9583 C   0  0  0  0  0  0  0  0  0  0  0  0
   77.0977   66.1436   14.4880 N   0  0  0  0  0  0  0  0  0  0  0  0
   76.2504   67.3030   14.7157 C   0  0  0  0  0  0  0  0  0  0  0  0
   77.9602   66.3006   15.0094 H   0  0  0  0  0  0  0  0  0  0  0  0
 11 12  2  0  0  0
 12 15  1  0  0  0
 12 13  1  0  0  0
 15 16  2  0  0  0
 15 21  1  0  0  0
 16 17  1  0  0  0
 17 18  2  0  0  0
 18 19  1  0  0  0
 19 20  2  0  0  0
 19 21  1  0  0  0
 20 24  1  0  0  0
 21 22  2  0  0  0
 22 23  1  0  0  0
 23 24  2  0  0  0
 13  1  1  0  0  0
  1  2  1  0  0  0
  1  5  1  0  0  0
  2  3  1  0  0  0
  2  8  1  0  0  0
  3  4  1  0  0  0
  3  6  1  0  0  0
  4  5  1  0  0  0
  6  7  1  0  0  0
  7  8  1  0  0  0
  8  9  1  0  0  0
  9 10  2  0  0  0
  9 25  1  0  0  0
 25 26  1  0  0  0
 25 30  1  0  0  0
 26 27  1  0  0  0
 26 28  1  0  0  0
 26 29  1  0  0  0
 30 31  1  0  0  0
 31 32  2  0  0  0
 31 34  1  0  0  0
 34 35  1  0  0  0
 34 36  1  0  0  0
 36 37  1  0  0  0
 13 14  1  0  0  0
 30 33  1  0  0  0
 36 38  1  0  0  0
M  END
> <minimizedAffinity>
-5.90862

$$$$
3F7I_G13_A_1


 38 41  0  0  0  0  0  0  0  0999 V2000
   75.0521   63.1361   17.3155 C   0  0  0  0  0  0  0  0  0  0  0  0
   74.5793   63.9007   18.5524 C   0  0  0  0  0  0  0  0  0  0  0  0
   75.5577   63.6140   19.6747 C   0  0  0  0  0  0  0  0  0  0  0  0
   76.4551   62.4657   19.2216 C   0  0  0  0  0  0  0  0  0  0  0  0
   76.0927   62.1304   17.7776 C   0  0  0  0  0  0  0  0  0  0  0  0
   74.7273   63.2543   20.8888 C   0  0  0  0  0  0  0  0  0  0  0  0
   73.4056   62.7569   20.3323 C   0  0  0  0  0  0  0  0  0  0  0  0
   73.2771   63.4163   19.0332 N   0  0  0  0  0  0  0  0  0  0  0  0
   72.1713   63.6479   18.3139 C   0  0  0  0  0  0  0  0  0  0  0  0
   72.2111   64.3346   17.3022 O   0  0  0  0  0  0  0  0  0  0  0  0
   74.7082   63.2481   14.5070 O   0  0  0  0  0  0  0  0  0  0  0  0
   75.3576   64.1138   15.0672 C   0  0  0  0  0  0  0  0  0  0  0  0
   75.6524   64.0568   16.3688 N   0  0  0  0  0  0  0  0  0  0  0  0
   76.3273   64.6865   16.7112 H   0  0  0  0  0  0  0  0  0  0  0  0
   75.8710   65.3131   14.3011 C   0  0  0  0  0  0  0  0  0  0  0  0
   75.0483   66.4344   14.2584 C   0  0  0  0  0  0  0  0  0  0  0  0
   75.4435   67.5926   13.5898 C   0  0  0  0  0  0  0  0  0  0  0  0
   76.6829   67.6295   12.9576 C   0  0  0  0  0  0  0  0  0  0  0  0
   77.5154   66.5116   13.0029 C   0  0  0  0  0  0  0  0  0  0  0  0
   78.7533   66.5699   12.3639 C   0  0  0  0  0  0  0  0  0  0  0  0
   77.1205   65.3525   13.6736 C   0  0  0  0  0  0  0  0  0  0  0  0
   77.9892   64.2519   13.6943 C   0  0  0  0  0  0  0  0  0  0  0  0
   79.2258   64.3141   13.0553 C   0  0  0  0  0  0  0  0  0  0  0  0
   79.6099   65.4732   12.3879 C   0  0  0  0  0  0  0  0  0  0  0  0
   70.8441   63.0797   18.7513 C   0  0  0  0  0  0  0  0  0  0  0  0
   70.3229   62.0425   17.7486 C   0  0  0  0  0  0  0  0  0  0  0  0
   69.3862   61.0664   18.4505 C   0  0  0  0  0  0  0  0  0  0  0  0
   71.4642   61.2466   17.1248 C   0  0  0  0  0  0  0  0  0  0  0  0
   69.5186   62.7207   16.6435 C   0  0  0  0  0  0  0  0  0  0  0  0
   69.8897   64.1670   18.9182 N   0  0  0  0  0  0  0  0  0  0  0  0
   69.7285   64.8619   20.0428 C   0  0  0  0  0  0  0  0  0  0  0  0
   70.4017   64.6798   21.0451 O   0  0  0  0  0  0  0  0  0  0  0  0
   69.3253   64.4045   18.1473 H   0  0  0  0  0  0  0  0  0  0  0  0
   68.6292   65.8895   20.0308 C   0  0  0  0  0  0  0  0  0  0  0  0
   67.4282   65.3954   19.2294 C   0  0  0  0  0  0  0  0  0  0  0  0
   69.0992   67.1568   19.5073 N   0  0  0  0  0  0  0  0  0  0  0  0
   69.8595   68.0526   20.3636 C   0  0  0  0  0  0  0  0  0  0  0  0
   68.2756   67.6724   19.1971 H   0  0  0  0  0  0  0  0  0  0  0  0
 11 12  2  0  0  0
 12 15  1  0  0  0
 12 13  1  0  0  0
 15 16  2  0  0  0
 15 21  1  0  0  0
 16 17  1  0  0  0
 17 18  2  0  0  0
 18 19  1  0  0  0
 19 20  2  0  0  0
 19 21  1  0  0  0
 20 24  1  0  0  0
 21 22  2  0  0  0
 22 23  1  0  0  0
 23 24  2  0  0  0
 13  1  1  0  0  0
  1  2  1  0  0  0
  1  5  1  0  0  0
  2  3  1  0  0  0
  2  8  1  0  0  0
  3  4  1  0  0  0
  3  6  1  0  0  0
  4  5  1  0  0  0
  6  7  1  0  0  0
  7  8  1  0  0  0
  8  9  1  0  0  0
  9 10  2  0  0  0
  9 25  1  0  0  0
 25 26  1  0  0  0
 25 30  1  0  0  0
 26 27  1  0  0  0
 26 28  1  0  0  0
 26 29  1  0  0  0
 30 31  1  0  0  0
 31 32  2  0  0  0
 31 34  1  0  0  0
 34 35  1  0  0  0
 34 36  1  0  0  0
 36 37  1  0  0  0
 13 14  1  0  0  0
 30 33  1  0  0  0
 36 38  1  0  0  0
M  END
> <minimizedAffinity>
-5.83305

$$$$
3F7I_G13_A_1


 38 41  0  0  0  0  0  0  0  0999 V2000
   79.2355   63.8527   13.4741 C   0  0  0  0  0  0  0  0  0  0  0  0
   78.1816   63.4441   12.4443 C   0  0  0  0  0  0  0  0  0  0  0  0
   78.0842   64.5552   11.4172 C   0  0  0  0  0  0  0  0  0  0  0  0
   78.8545   65.7550   11.9617 C   0  0  0  0  0  0  0  0  0  0  0  0
   79.5142   65.3322   13.2713 C   0  0  0  0  0  0  0  0  0  0  0  0
   76.6094   64.8480   11.2379 C   0  0  0  0  0  0  0  0  0  0  0  0
   75.9531   64.3827   12.5251 C   0  0  0  0  0  0  0  0  0  0  0  0
   76.8416   63.3417   13.0406 N   0  0  0  0  0  0  0  0  0  0  0  0
   76.5667   62.3514   13.8993 C   0  0  0  0  0  0  0  0  0  0  0  0
   77.3869   61.4740   14.1316 O   0  0  0  0  0  0  0  0  0  0  0  0
   80.2832   61.7241   15.0201 O   0  0  0  0  0  0  0  0  0  0  0  0
   80.8275   62.0305   13.9736 C   0  0  0  0  0  0  0  0  0  0  0  0
   80.4532   63.0944   13.2579 N   0  0  0  0  0  0  0  0  0  0  0  0
   81.0479   63.3856   12.5294 H   0  0  0  0  0  0  0  0  0  0  0  0
   81.9737   61.2075   13.4281 C   0  0  0  0  0  0  0  0  0  0  0  0
   83.1441   61.1788   14.1798 C   0  0  0  0  0  0  0  0  0  0  0  0
   84.2483   60.4348   13.7653 C   0  0  0  0  0  0  0  0  0  0  0  0
   84.1778   59.7055   12.5819 C   0  0  0  0  0  0  0  0  0  0  0  0
   83.0050   59.7241   11.8276 C   0  0  0  0  0  0  0  0  0  0  0  0
   82.9550   58.9858   10.6459 C   0  0  0  0  0  0  0  0  0  0  0  0
   81.8989   60.4678   12.2432 C   0  0  0  0  0  0  0  0  0  0  0  0
   80.7398   60.4577   11.4542 C   0  0  0  0  0  0  0  0  0  0  0  0
   80.6932   59.7180   10.2743 C   0  0  0  0  0  0  0  0  0  0  0  0
   81.8014   58.9813    9.8673 C   0  0  0  0  0  0  0  0  0  0  0  0
   75.2246   62.2876   14.5854 C   0  0  0  0  0  0  0  0  0  0  0  0
   75.3080   62.8099   16.0251 C   0  0  0  0  0  0  0  0  0  0  0  0
   75.1979   64.3300   16.0334 C   0  0  0  0  0  0  0  0  0  0  0  0
   76.6270   62.4217   16.6843 C   0  0  0  0  0  0  0  0  0  0  0  0
   74.1499   62.2714   16.8599 C   0  0  0  0  0  0  0  0  0  0  0  0
   74.7377   60.9152   14.5574 N   0  0  0  0  0  0  0  0  0  0  0  0
   74.0242   60.3892   13.5636 C   0  0  0  0  0  0  0  0  0  0  0  0
   73.7385   61.0018   12.5467 O   0  0  0  0  0  0  0  0  0  0  0  0
   74.9505   60.3372   15.3254 H   0  0  0  0  0  0  0  0  0  0  0  0
   73.5485   58.9765   13.7698 C   0  0  0  0  0  0  0  0  0  0  0  0
   72.4831   58.9125   14.8606 C   0  0  0  0  0  0  0  0  0  0  0  0
   74.6511   58.0910   14.0877 N   0  0  0  0  0  0  0  0  0  0  0  0
   75.6035   57.7257   13.0518 C   0  0  0  0  0  0  0  0  0  0  0  0
   74.2427   57.2226   14.4336 H   0  0  0  0  0  0  0  0  0  0  0  0
 11 12  2  0  0  0
 12 15  1  0  0  0
 12 13  1  0  0  0
 15 16  2  0  0  0
 15 21  1  0  0  0
 16 17  1  0  0  0
 17 18  2  0  0  0
 18 19  1  0  0  0
 19 20  2  0  0  0
 19 21  1  0  0  0
 20 24  1  0  0  0
 21 22  2  0  0  0
 22 23  1  0  0  0
 23 24  2  0  0  0
 13  1  1  0  0  0
  1  2  1  0  0  0
  1  5  1  0  0  0
  2  3  1  0  0  0
  2  8  1  0  0  0
  3  4  1  0  0  0
  3  6  1  0  0  0
  4  5  1  0  0  0
  6  7  1  0  0  0
  7  8  1  0  0  0
  8  9  1  0  0  0
  9 10  2  0  0  0
  9 25  1  0  0  0
 25 26  1  0  0  0
 25 30  1  0  0  0
 26 27  1  0  0  0
 26 28  1  0  0  0
 26 29  1  0  0  0
 30 31  1  0  0  0
 31 32  2  0  0  0
 31 34  1  0  0  0
 34 35  1  0  0  0
 34 36  1  0  0  0
 36 37  1  0  0  0
 13 14  1  0  0  0
 30 33  1  0  0  0
 36 38  1  0  0  0
M  END
> <minimizedAffinity>
-5.76928

$$$$
3F7I_G13_A_1


 38 41  0  0  0  0  0  0  0  0999 V2000
   78.1378   62.5477   13.1286 C   0  0  0  0  0  0  0  0  0  0  0  0
   78.9392   61.5394   13.9528 C   0  0  0  0  0  0  0  0  0  0  0  0
   80.3779   62.0161   13.9941 C   0  0  0  0  0  0  0  0  0  0  0  0
   80.5197   63.1424   12.9740 C   0  0  0  0  0  0  0  0  0  0  0  0
   79.1370   63.4244   12.3932 C   0  0  0  0  0  0  0  0  0  0  0  0
   81.2389   60.8174   13.6552 C   0  0  0  0  0  0  0  0  0  0  0  0
   80.3348   59.8910   12.8624 C   0  0  0  0  0  0  0  0  0  0  0  0
   78.9819   60.2167   13.3122 N   0  0  0  0  0  0  0  0  0  0  0  0
   77.8720   59.4699   13.2474 C   0  0  0  0  0  0  0  0  0  0  0  0
   76.8376   59.8315   13.7914 O   0  0  0  0  0  0  0  0  0  0  0  0
   75.3194   62.5861   13.4005 O   0  0  0  0  0  0  0  0  0  0  0  0
   76.0046   63.2526   14.1565 C   0  0  0  0  0  0  0  0  0  0  0  0
   77.3272   63.3676   14.0090 N   0  0  0  0  0  0  0  0  0  0  0  0
   77.7860   64.0603   14.5371 H   0  0  0  0  0  0  0  0  0  0  0  0
   75.3781   63.9954   15.3161 C   0  0  0  0  0  0  0  0  0  0  0  0
   74.6228   65.1230   15.0093 C   0  0  0  0  0  0  0  0  0  0  0  0
   73.9939   65.8628   16.0101 C   0  0  0  0  0  0  0  0  0  0  0  0
   74.1203   65.4651   17.3380 C   0  0  0  0  0  0  0  0  0  0  0  0
   74.8699   64.3316   17.6515 C   0  0  0  0  0  0  0  0  0  0  0  0
   74.9830   63.9501   18.9877 C   0  0  0  0  0  0  0  0  0  0  0  0
   75.4984   63.5900   16.6494 C   0  0  0  0  0  0  0  0  0  0  0  0
   76.2418   62.4570   17.0096 C   0  0  0  0  0  0  0  0  0  0  0  0
   76.3520   62.0782   18.3459 C   0  0  0  0  0  0  0  0  0  0  0  0
   75.7234   62.8248   19.3379 C   0  0  0  0  0  0  0  0  0  0  0  0
   77.8818   58.1512   12.5149 C   0  0  0  0  0  0  0  0  0  0  0  0
   77.2846   58.2889   11.1088 C   0  0  0  0  0  0  0  0  0  0  0  0
   77.4842   59.7104   10.5965 C   0  0  0  0  0  0  0  0  0  0  0  0
   75.7906   57.9837   11.1045 C   0  0  0  0  0  0  0  0  0  0  0  0
   77.9923   57.3557   10.1308 C   0  0  0  0  0  0  0  0  0  0  0  0
   77.1497   57.1642   13.2965 N   0  0  0  0  0  0  0  0  0  0  0  0
   77.6249   55.9665   13.6328 C   0  0  0  0  0  0  0  0  0  0  0  0
   78.7509   55.5887   13.3493 O   0  0  0  0  0  0  0  0  0  0  0  0
   76.2418   57.3983   13.5967 H   0  0  0  0  0  0  0  0  0  0  0  0
   76.6745   55.0643   14.3728 C   0  0  0  0  0  0  0  0  0  0  0  0
   75.2446   55.2494   13.8729 C   0  0  0  0  0  0  0  0  0  0  0  0
   76.7427   55.2881   15.8033 N   0  0  0  0  0  0  0  0  0  0  0  0
   75.7891   54.6300   16.6817 C   0  0  0  0  0  0  0  0  0  0  0  0
   76.6371   56.2918   15.9510 H   0  0  0  0  0  0  0  0  0  0  0  0
 11 12  2  0  0  0
 12 15  1  0  0  0
 12 13  1  0  0  0
 15 16  2  0  0  0
 15 21  1  0  0  0
 16 17  1  0  0  0
 17 18  2  0  0  0
 18 19  1  0  0  0
 19 20  2  0  0  0
 19 21  1  0  0  0
 20 24  1  0  0  0
 21 22  2  0  0  0
 22 23  1  0  0  0
 23 24  2  0  0  0
 13  1  1  0  0  0
  1  2  1  0  0  0
  1  5  1  0  0  0
  2  3  1  0  0  0
  2  8  1  0  0  0
  3  4  1  0  0  0
  3  6  1  0  0  0
  4  5  1  0  0  0
  6  7  1  0  0  0
  7  8  1  0  0  0
  8  9  1  0  0  0
  9 10  2  0  0  0
  9 25  1  0  0  0
 25 26  1  0  0  0
 25 30  1  0  0  0
 26 27  1  0  0  0
 26 28  1  0  0  0
 26 29  1  0  0  0
 30 31  1  0  0  0
 31 32  2  0  0  0
 31 34  1  0  0  0
 34 35  1  0  0  0
 34 36  1  0  0  0
 36 37  1  0  0  0
 13 14  1  0  0  0
 30 33  1  0  0  0
 36 38  1  0  0  0
M  END
> <minimizedAffinity>
-5.61901

$$$$
3F7I_G13_A_1


 38 41  0  0  0  0  0  0  0  0999 V2000
   78.2202   63.3936   13.9932 C   0  0  0  0  0  0  0  0  0  0  0  0
   76.8871   63.1929   13.2717 C   0  0  0  0  0  0  0  0  0  0  0  0
   76.7127   64.3402   12.2959 C   0  0  0  0  0  0  0  0  0  0  0  0
   77.7800   65.3832   12.6154 C   0  0  0  0  0  0  0  0  0  0  0  0
   78.6739   64.8163   13.7146 C   0  0  0  0  0  0  0  0  0  0  0  0
   75.3084   64.8690   12.4992 C   0  0  0  0  0  0  0  0  0  0  0  0
   74.9350   64.4693   13.9151 C   0  0  0  0  0  0  0  0  0  0  0  0
   75.7448   63.2835   14.1929 N   0  0  0  0  0  0  0  0  0  0  0  0
   75.5408   62.3203   15.1007 C   0  0  0  0  0  0  0  0  0  0  0  0
   76.2399   61.3165   15.1210 O   0  0  0  0  0  0  0  0  0  0  0  0
   79.4551   61.2208   15.3246 O   0  0  0  0  0  0  0  0  0  0  0  0
   79.6618   61.3922   14.1359 C   0  0  0  0  0  0  0  0  0  0  0  0
   79.2032   62.4599   13.4771 N   0  0  0  0  0  0  0  0  0  0  0  0
   79.5588   62.6255   12.5741 H   0  0  0  0  0  0  0  0  0  0  0  0
   80.4631   60.3875   13.3375 C   0  0  0  0  0  0  0  0  0  0  0  0
   79.7500   59.5250   12.5108 C   0  0  0  0  0  0  0  0  0  0  0  0
   80.4033   58.5762   11.7250 C   0  0  0  0  0  0  0  0  0  0  0  0
   81.7920   58.4924   11.7650 C   0  0  0  0  0  0  0  0  0  0  0  0
   82.5132   59.3590   12.5859 C   0  0  0  0  0  0  0  0  0  0  0  0
   83.9037   59.2590   12.6104 C   0  0  0  0  0  0  0  0  0  0  0  0
   81.8594   60.3100   13.3716 C   0  0  0  0  0  0  0  0  0  0  0  0
   82.6239   61.1613   14.1821 C   0  0  0  0  0  0  0  0  0  0  0  0
   84.0132   61.0591   14.2034 C   0  0  0  0  0  0  0  0  0  0  0  0
   84.6559   60.1068   13.4182 C   0  0  0  0  0  0  0  0  0  0  0  0
   74.4257   62.4462   16.1088 C   0  0  0  0  0  0  0  0  0  0  0  0
   74.9689   62.7822   17.5034 C   0  0  0  0  0  0  0  0  0  0  0  0
   76.4544   62.4495   17.5763 C   0  0  0  0  0  0  0  0  0  0  0  0
   74.2471   61.9912   18.5890 C   0  0  0  0  0  0  0  0  0  0  0  0
   74.8285   64.2743   17.7894 C   0  0  0  0  0  0  0  0  0  0  0  0
   73.6606   61.2071   16.1333 N   0  0  0  0  0  0  0  0  0  0  0  0
   72.5516   60.9925   15.4280 C   0  0  0  0  0  0  0  0  0  0  0  0
   72.0833   61.8096   14.6508 O   0  0  0  0  0  0  0  0  0  0  0  0
   73.9854   60.4787   16.7106 H   0  0  0  0  0  0  0  0  0  0  0  0
   71.8673   59.6727   15.6611 C   0  0  0  0  0  0  0  0  0  0  0  0
   70.3518   59.8443   15.7109 C   0  0  0  0  0  0  0  0  0  0  0  0
   72.3443   59.0397   16.8747 N   0  0  0  0  0  0  0  0  0  0  0  0
   71.6199   57.9077   17.4295 C   0  0  0  0  0  0  0  0  0  0  0  0
   72.3641   59.7605   17.5961 H   0  0  0  0  0  0  0  0  0  0  0  0
 11 12  2  0  0  0
 12 15  1  0  0  0
 12 13  1  0  0  0
 15 16  2  0  0  0
 15 21  1  0  0  0
 16 17  1  0  0  0
 17 18  2  0  0  0
 18 19  1  0  0  0
 19 20  2  0  0  0
 19 21  1  0  0  0
 20 24  1  0  0  0
 21 22  2  0  0  0
 22 23  1  0  0  0
 23 24  2  0  0  0
 13  1  1  0  0  0
  1  2  1  0  0  0
  1  5  1  0  0  0
  2  3  1  0  0  0
  2  8  1  0  0  0
  3  4  1  0  0  0
  3  6  1  0  0  0
  4  5  1  0  0  0
  6  7  1  0  0  0
  7  8  1  0  0  0
  8  9  1  0  0  0
  9 10  2  0  0  0
  9 25  1  0  0  0
 25 26  1  0  0  0
 25 30  1  0  0  0
 26 27  1  0  0  0
 26 28  1  0  0  0
 26 29  1  0  0  0
 30 31  1  0  0  0
 31 32  2  0  0  0
 31 34  1  0  0  0
 34 35  1  0  0  0
 34 36  1  0  0  0
 36 37  1  0  0  0
 13 14  1  0  0  0
 30 33  1  0  0  0
 36 38  1  0  0  0
M  END
> <minimizedAffinity>
-5.52965

$$$$
