3KWA_SPM_A_300


 20 19  0  0  0  0  0  0  0  0999 V2000
   -4.2480    5.3710   12.9865 C   0  0  0  0  0  0  0  0  0  0  0  0
   -3.1595    4.3560   12.7082 C   0  0  0  0  0  0  0  0  0  0  0  0
   -3.4422    3.0117   13.1800 N   0  0  0  0  0  0  0  0  0  0  0  0
   -2.5606    2.4986   13.1822 H   0  0  0  0  0  0  0  0  0  0  0  0
   -4.3974    2.2227   12.4375 C   0  0  0  0  0  0  0  0  0  0  0  0
   -4.1956    0.7075   12.5396 C   0  0  0  0  0  0  0  0  0  0  0  0
   -4.7412    1.0187   10.2348 N   0  0  0  0  0  0  0  0  0  0  0  0
   -4.5401    0.0078   11.2432 C   0  0  0  0  0  0  0  0  0  0  0  0
   -4.9754    0.5725    9.3480 H   0  0  0  0  0  0  0  0  0  0  0  0
   -3.8866    1.5646   10.1254 H   0  0  0  0  0  0  0  0  0  0  0  0
   -4.3561    5.3841   14.5007 C   0  0  0  0  0  0  0  0  0  0  0  0
   -5.7590    4.9621   14.8414 C   0  0  0  0  0  0  0  0  0  0  0  0
   -5.7689    3.5987   15.3147 N   0  0  0  0  0  0  0  0  0  0  0  0
   -4.8015    3.3811   15.5539 H   0  0  0  0  0  0  0  0  0  0  0  0
   -6.5553    3.1460   16.4226 C   0  0  0  0  0  0  0  0  0  0  0  0
   -5.9365    1.8980   17.0180 C   0  0  0  0  0  0  0  0  0  0  0  0
   -4.9975    1.1905   16.0435 C   0  0  0  0  0  0  0  0  0  0  0  0
   -3.6290    1.6284   16.2234 N   0  0  0  0  0  0  0  0  0  0  0  0
   -3.5669    2.6312   16.0474 H   0  0  0  0  0  0  0  0  0  0  0  0
   -3.0240    1.1304   15.5704 H   0  0  0  0  0  0  0  0  0  0  0  0
  7  8  1  0  0  0
  8  6  1  0  0  0
  6  5  1  0  0  0
  5  3  1  0  0  0
  3  2  1  0  0  0
  2  1  1  0  0  0
  1 11  1  0  0  0
 11 12  1  0  0  0
 12 13  1  0  0  0
 13 15  1  0  0  0
 15 16  1  0  0  0
 16 17  1  0  0  0
 17 18  1  0  0  0
  7  9  1  0  0  0
  7 10  1  0  0  0
  3  4  1  0  0  0
 13 14  1  0  0  0
 18 19  1  0  0  0
 18 20  1  0  0  0
M  END
> <minimizedAffinity>
-4.74880

$$$$
3KWA_SPM_A_300


 20 19  0  0  0  0  0  0  0  0999 V2000
   -2.7831    6.2131   14.2431 C   0  0  0  0  0  0  0  0  0  0  0  0
   -2.0771    4.9704   14.7429 C   0  0  0  0  0  0  0  0  0  0  0  0
   -1.5207    4.1232   13.7024 N   0  0  0  0  0  0  0  0  0  0  0  0
   -0.5106    4.2647   13.7030 H   0  0  0  0  0  0  0  0  0  0  0  0
   -1.9827    4.3250   12.3489 C   0  0  0  0  0  0  0  0  0  0  0  0
   -2.7090    3.1248   11.7330 C   0  0  0  0  0  0  0  0  0  0  0  0
   -4.9154    2.7162   10.9136 N   0  0  0  0  0  0  0  0  0  0  0  0
   -3.7585    3.5579   10.7332 C   0  0  0  0  0  0  0  0  0  0  0  0
   -5.6404    2.9879   10.2496 H   0  0  0  0  0  0  0  0  0  0  0  0
   -5.2682    2.8226   11.8647 H   0  0  0  0  0  0  0  0  0  0  0  0
   -4.1740    6.1084   14.8427 C   0  0  0  0  0  0  0  0  0  0  0  0
   -5.1289    5.9122   13.6974 C   0  0  0  0  0  0  0  0  0  0  0  0
   -5.5005    4.5217   13.5903 N   0  0  0  0  0  0  0  0  0  0  0  0
   -4.7411    4.0700   13.0807 H   0  0  0  0  0  0  0  0  0  0  0  0
   -5.7679    3.6798   14.7175 C   0  0  0  0  0  0  0  0  0  0  0  0
   -4.9230    2.4251   14.6355 C   0  0  0  0  0  0  0  0  0  0  0  0
   -5.0131    1.5772   15.9023 C   0  0  0  0  0  0  0  0  0  0  0  0
   -3.7225    1.0228   16.2544 N   0  0  0  0  0  0  0  0  0  0  0  0
   -3.3921    0.4234   15.4981 H   0  0  0  0  0  0  0  0  0  0  0  0
   -3.8101    0.4740   17.1097 H   0  0  0  0  0  0  0  0  0  0  0  0
  7  8  1  0  0  0
  8  6  1  0  0  0
  6  5  1  0  0  0
  5  3  1  0  0  0
  3  2  1  0  0  0
  2  1  1  0  0  0
  1 11  1  0  0  0
 11 12  1  0  0  0
 12 13  1  0  0  0
 13 15  1  0  0  0
 15 16  1  0  0  0
 16 17  1  0  0  0
 17 18  1  0  0  0
  7  9  1  0  0  0
  7 10  1  0  0  0
  3  4  1  0  0  0
 13 14  1  0  0  0
 18 19  1  0  0  0
 18 20  1  0  0  0
M  END
> <minimizedAffinity>
-4.68307

$$$$
3KWA_SPM_A_300


 20 19  0  0  0  0  0  0  0  0999 V2000
   -4.0871    5.9185   14.6257 C   0  0  0  0  0  0  0  0  0  0  0  0
   -3.0082    4.8575   14.6809 C   0  0  0  0  0  0  0  0  0  0  0  0
   -3.4972    3.4926   14.7692 N   0  0  0  0  0  0  0  0  0  0  0  0
   -3.1005    2.9763   13.9840 H   0  0  0  0  0  0  0  0  0  0  0  0
   -4.9263    3.2846   14.7430 C   0  0  0  0  0  0  0  0  0  0  0  0
   -5.5205    2.7471   16.0488 C   0  0  0  0  0  0  0  0  0  0  0  0
   -3.8637    1.0449   16.3021 N   0  0  0  0  0  0  0  0  0  0  0  0
   -5.2859    1.2603   16.2009 C   0  0  0  0  0  0  0  0  0  0  0  0
   -3.6774    0.0475   16.4057 H   0  0  0  0  0  0  0  0  0  0  0  0
   -3.5011    1.5447   17.1139 H   0  0  0  0  0  0  0  0  0  0  0  0
   -3.8355    6.6263   13.3064 C   0  0  0  0  0  0  0  0  0  0  0  0
   -5.1083    6.5309   12.5108 C   0  0  0  0  0  0  0  0  0  0  0  0
   -4.9827    5.5203   11.4880 N   0  0  0  0  0  0  0  0  0  0  0  0
   -5.8992    5.4591   11.0445 H   0  0  0  0  0  0  0  0  0  0  0  0
   -4.0349    5.5853   10.4164 C   0  0  0  0  0  0  0  0  0  0  0  0
   -3.5326    4.1944   10.0879 C   0  0  0  0  0  0  0  0  0  0  0  0
   -3.8490    3.1846   11.1888 C   0  0  0  0  0  0  0  0  0  0  0  0
   -5.0022    2.3791   10.8451 N   0  0  0  0  0  0  0  0  0  0  0  0
   -5.8162    2.9827   10.7291 H   0  0  0  0  0  0  0  0  0  0  0  0
   -5.1813    1.7062   11.5904 H   0  0  0  0  0  0  0  0  0  0  0  0
  7  8  1  0  0  0
  8  6  1  0  0  0
  6  5  1  0  0  0
  5  3  1  0  0  0
  3  2  1  0  0  0
  2  1  1  0  0  0
  1 11  1  0  0  0
 11 12  1  0  0  0
 12 13  1  0  0  0
 13 15  1  0  0  0
 15 16  1  0  0  0
 16 17  1  0  0  0
 17 18  1  0  0  0
  7  9  1  0  0  0
  7 10  1  0  0  0
  3  4  1  0  0  0
 13 14  1  0  0  0
 18 19  1  0  0  0
 18 20  1  0  0  0
M  END
> <minimizedAffinity>
-4.60686

$$$$
3KWA_SPM_A_300


 20 19  0  0  0  0  0  0  0  0999 V2000
   -4.2509    1.0612   12.5408 C   0  0  0  0  0  0  0  0  0  0  0  0
   -4.4733    2.3581   13.2899 C   0  0  0  0  0  0  0  0  0  0  0  0
   -4.1598    2.3068   14.7073 N   0  0  0  0  0  0  0  0  0  0  0  0
   -4.8869    1.7526   15.1595 H   0  0  0  0  0  0  0  0  0  0  0  0
   -4.0643    3.5577   15.4231 C   0  0  0  0  0  0  0  0  0  0  0  0
   -3.7886    4.7812   14.5432 C   0  0  0  0  0  0  0  0  0  0  0  0
   -1.5318    4.2149   15.0843 N   0  0  0  0  0  0  0  0  0  0  0  0
   -2.3936    5.3248   14.7609 C   0  0  0  0  0  0  0  0  0  0  0  0
   -0.5822    4.5549   15.2364 H   0  0  0  0  0  0  0  0  0  0  0  0
   -1.5343    3.5467   14.3136 H   0  0  0  0  0  0  0  0  0  0  0  0
   -4.5278    1.4242   11.0929 C   0  0  0  0  0  0  0  0  0  0  0  0
   -4.3724    2.9159   10.9800 C   0  0  0  0  0  0  0  0  0  0  0  0
   -3.5904    3.2492    9.8136 N   0  0  0  0  0  0  0  0  0  0  0  0
   -4.2634    3.4002    9.0622 H   0  0  0  0  0  0  0  0  0  0  0  0
   -2.6834    4.3558    9.7525 C   0  0  0  0  0  0  0  0  0  0  0  0
   -2.2655    4.7573   11.1521 C   0  0  0  0  0  0  0  0  0  0  0  0
   -0.8808    4.2300   11.5214 C   0  0  0  0  0  0  0  0  0  0  0  0
   -0.9618    2.9041   12.0980 N   0  0  0  0  0  0  0  0  0  0  0  0
   -1.5226    2.9373   12.9493 H   0  0  0  0  0  0  0  0  0  0  0  0
   -0.0235    2.5726   12.3216 H   0  0  0  0  0  0  0  0  0  0  0  0
  7  8  1  0  0  0
  8  6  1  0  0  0
  6  5  1  0  0  0
  5  3  1  0  0  0
  3  2  1  0  0  0
  2  1  1  0  0  0
  1 11  1  0  0  0
 11 12  1  0  0  0
 12 13  1  0  0  0
 13 15  1  0  0  0
 15 16  1  0  0  0
 16 17  1  0  0  0
 17 18  1  0  0  0
  7  9  1  0  0  0
  7 10  1  0  0  0
  3  4  1  0  0  0
 13 14  1  0  0  0
 18 19  1  0  0  0
 18 20  1  0  0  0
M  END
> <minimizedAffinity>
-4.56604

$$$$
3KWA_SPM_A_300


 20 19  0  0  0  0  0  0  0  0999 V2000
   -4.5782    2.2323   11.0544 C   0  0  0  0  0  0  0  0  0  0  0  0
   -4.2674    1.4968   12.3408 C   0  0  0  0  0  0  0  0  0  0  0  0
   -4.0372    2.3509   13.4929 N   0  0  0  0  0  0  0  0  0  0  0  0
   -3.4469    1.8319   14.1430 H   0  0  0  0  0  0  0  0  0  0  0  0
   -5.1892    2.8122   14.2321 C   0  0  0  0  0  0  0  0  0  0  0  0
   -5.0183    2.8088   15.7545 C   0  0  0  0  0  0  0  0  0  0  0  0
   -3.8500    0.7658   16.1643 N   0  0  0  0  0  0  0  0  0  0  0  0
   -5.1283    1.4129   16.3275 C   0  0  0  0  0  0  0  0  0  0  0  0
   -3.8969   -0.1799   16.5436 H   0  0  0  0  0  0  0  0  0  0  0  0
   -3.1345    1.2964   16.6612 H   0  0  0  0  0  0  0  0  0  0  0  0
   -3.4747    3.2699   10.9517 C   0  0  0  0  0  0  0  0  0  0  0  0
   -4.1453    4.6018   10.7555 C   0  0  0  0  0  0  0  0  0  0  0  0
   -4.2865    5.2805   12.0214 N   0  0  0  0  0  0  0  0  0  0  0  0
   -4.4976    4.5529   12.7043 H   0  0  0  0  0  0  0  0  0  0  0  0
   -3.2592    6.0838   12.6131 C   0  0  0  0  0  0  0  0  0  0  0  0
   -3.3557    6.0134   14.1233 C   0  0  0  0  0  0  0  0  0  0  0  0
   -2.2313    5.1858   14.7418 C   0  0  0  0  0  0  0  0  0  0  0  0
   -1.5737    4.3674   13.7445 N   0  0  0  0  0  0  0  0  0  0  0  0
   -2.2493    3.7226   13.3344 H   0  0  0  0  0  0  0  0  0  0  0  0
   -0.8203    3.8373   14.1825 H   0  0  0  0  0  0  0  0  0  0  0  0
  7  8  1  0  0  0
  8  6  1  0  0  0
  6  5  1  0  0  0
  5  3  1  0  0  0
  3  2  1  0  0  0
  2  1  1  0  0  0
  1 11  1  0  0  0
 11 12  1  0  0  0
 12 13  1  0  0  0
 13 15  1  0  0  0
 15 16  1  0  0  0
 16 17  1  0  0  0
 17 18  1  0  0  0
  7  9  1  0  0  0
  7 10  1  0  0  0
  3  4  1  0  0  0
 13 14  1  0  0  0
 18 19  1  0  0  0
 18 20  1  0  0  0
M  END
> <minimizedAffinity>
-4.56469

$$$$
3KWA_SPM_A_300


 20 19  0  0  0  0  0  0  0  0999 V2000
   -3.9289    6.0646   13.8662 C   0  0  0  0  0  0  0  0  0  0  0  0
   -5.0175    5.0624   14.1868 C   0  0  0  0  0  0  0  0  0  0  0  0
   -4.8706    3.7716   13.5372 N   0  0  0  0  0  0  0  0  0  0  0  0
   -5.6777    3.6451   12.9264 H   0  0  0  0  0  0  0  0  0  0  0  0
   -4.7785    2.6000   14.3769 C   0  0  0  0  0  0  0  0  0  0  0  0
   -5.5293    2.7040   15.7083 C   0  0  0  0  0  0  0  0  0  0  0  0
   -3.9123    0.9997   16.1410 N   0  0  0  0  0  0  0  0  0  0  0  0
   -5.0815    1.6421   16.6884 C   0  0  0  0  0  0  0  0  0  0  0  0
   -3.5889    0.2771   16.7842 H   0  0  0  0  0  0  0  0  0  0  0  0
   -3.1748    1.6917   16.0085 H   0  0  0  0  0  0  0  0  0  0  0  0
   -2.7246    5.5541   14.6369 C   0  0  0  0  0  0  0  0  0  0  0  0
   -1.6142    5.3704   13.6392 C   0  0  0  0  0  0  0  0  0  0  0  0
   -1.6149    4.0178   13.1355 N   0  0  0  0  0  0  0  0  0  0  0  0
   -2.5823    3.7000   13.1951 H   0  0  0  0  0  0  0  0  0  0  0  0
   -1.1660    3.6560   11.8247 C   0  0  0  0  0  0  0  0  0  0  0  0
   -1.7914    4.5737   10.7944 C   0  0  0  0  0  0  0  0  0  0  0  0
   -3.1473    4.0669   10.3081 C   0  0  0  0  0  0  0  0  0  0  0  0
   -3.4981    2.8152   10.9461 N   0  0  0  0  0  0  0  0  0  0  0  0
   -2.7984    2.1091   10.7174 H   0  0  0  0  0  0  0  0  0  0  0  0
   -4.4122    2.5083   10.6132 H   0  0  0  0  0  0  0  0  0  0  0  0
  7  8  1  0  0  0
  8  6  1  0  0  0
  6  5  1  0  0  0
  5  3  1  0  0  0
  3  2  1  0  0  0
  2  1  1  0  0  0
  1 11  1  0  0  0
 11 12  1  0  0  0
 12 13  1  0  0  0
 13 15  1  0  0  0
 15 16  1  0  0  0
 16 17  1  0  0  0
 17 18  1  0  0  0
  7  9  1  0  0  0
  7 10  1  0  0  0
  3  4  1  0  0  0
 13 14  1  0  0  0
 18 19  1  0  0  0
 18 20  1  0  0  0
M  END
> <minimizedAffinity>
-4.53828

$$$$
3KWA_SPM_A_300


 20 19  0  0  0  0  0  0  0  0999 V2000
   -3.7254    6.3177   13.4510 C   0  0  0  0  0  0  0  0  0  0  0  0
   -2.9984    6.4672   12.1313 C   0  0  0  0  0  0  0  0  0  0  0  0
   -3.1179    5.3301   11.2354 N   0  0  0  0  0  0  0  0  0  0  0  0
   -3.2553    4.5010   11.8133 H   0  0  0  0  0  0  0  0  0  0  0  0
   -2.0158    5.0551   10.3432 C   0  0  0  0  0  0  0  0  0  0  0  0
   -0.6273    5.2858   10.9483 C   0  0  0  0  0  0  0  0  0  0  0  0
   -0.8564    3.1781   12.0490 N   0  0  0  0  0  0  0  0  0  0  0  0
    0.0625    3.9811   11.2811 C   0  0  0  0  0  0  0  0  0  0  0  0
   -0.4148    2.2900   12.2872 H   0  0  0  0  0  0  0  0  0  0  0  0
   -1.6970    3.0029   11.4984 H   0  0  0  0  0  0  0  0  0  0  0  0
   -2.7507    5.5416   14.3186 C   0  0  0  0  0  0  0  0  0  0  0  0
   -3.4371    4.2608   14.7070 C   0  0  0  0  0  0  0  0  0  0  0  0
   -3.5692    3.3973   13.5581 N   0  0  0  0  0  0  0  0  0  0  0  0
   -2.7637    2.7721   13.5869 H   0  0  0  0  0  0  0  0  0  0  0  0
   -4.7049    2.5585   13.3188 C   0  0  0  0  0  0  0  0  0  0  0  0
   -4.2717    1.2974   12.5999 C   0  0  0  0  0  0  0  0  0  0  0  0
   -4.7335    1.2675   11.1447 C   0  0  0  0  0  0  0  0  0  0  0  0
   -4.6578    2.5830   10.5440 N   0  0  0  0  0  0  0  0  0  0  0  0
   -5.2655    3.2247   11.0532 H   0  0  0  0  0  0  0  0  0  0  0  0
   -4.9585    2.5301    9.5707 H   0  0  0  0  0  0  0  0  0  0  0  0
  7  8  1  0  0  0
  8  6  1  0  0  0
  6  5  1  0  0  0
  5  3  1  0  0  0
  3  2  1  0  0  0
  2  1  1  0  0  0
  1 11  1  0  0  0
 11 12  1  0  0  0
 12 13  1  0  0  0
 13 15  1  0  0  0
 15 16  1  0  0  0
 16 17  1  0  0  0
 17 18  1  0  0  0
  7  9  1  0  0  0
  7 10  1  0  0  0
  3  4  1  0  0  0
 13 14  1  0  0  0
 18 19  1  0  0  0
 18 20  1  0  0  0
M  END
> <minimizedAffinity>
-4.21660

$$$$
3KWA_SPM_A_300


 20 19  0  0  0  0  0  0  0  0999 V2000
   -4.4915    1.5104   13.5764 C   0  0  0  0  0  0  0  0  0  0  0  0
   -4.6028    2.9225   14.1111 C   0  0  0  0  0  0  0  0  0  0  0  0
   -4.8771    3.0173   15.5344 N   0  0  0  0  0  0  0  0  0  0  0  0
   -4.6643    2.1086   15.9461 H   0  0  0  0  0  0  0  0  0  0  0  0
   -6.2170    3.3711   15.9415 C   0  0  0  0  0  0  0  0  0  0  0  0
   -6.9186    2.3272   16.8162 C   0  0  0  0  0  0  0  0  0  0  0  0
   -5.5892    0.3471   16.9519 N   0  0  0  0  0  0  0  0  0  0  0  0
   -5.9332    1.5529   17.6637 C   0  0  0  0  0  0  0  0  0  0  0  0
   -4.9239   -0.1951   17.5031 H   0  0  0  0  0  0  0  0  0  0  0  0
   -5.1691    0.5900   16.0547 H   0  0  0  0  0  0  0  0  0  0  0  0
   -3.7049    1.6693   12.2876 C   0  0  0  0  0  0  0  0  0  0  0  0
   -4.7102    1.7972   11.1762 C   0  0  0  0  0  0  0  0  0  0  0  0
   -4.6774    3.1307   10.6249 N   0  0  0  0  0  0  0  0  0  0  0  0
   -5.0548    3.7402   11.3504 H   0  0  0  0  0  0  0  0  0  0  0  0
   -3.4838    3.7711   10.1601 C   0  0  0  0  0  0  0  0  0  0  0  0
   -3.2647    5.0645   10.9177 C   0  0  0  0  0  0  0  0  0  0  0  0
   -4.5765    5.7460   11.3004 C   0  0  0  0  0  0  0  0  0  0  0  0
   -5.4101    5.9682   10.1373 N   0  0  0  0  0  0  0  0  0  0  0  0
   -4.9210    6.5753    9.4795 H   0  0  0  0  0  0  0  0  0  0  0  0
   -6.2830    6.4111   10.4242 H   0  0  0  0  0  0  0  0  0  0  0  0
  7  8  1  0  0  0
  8  6  1  0  0  0
  6  5  1  0  0  0
  5  3  1  0  0  0
  3  2  1  0  0  0
  2  1  1  0  0  0
  1 11  1  0  0  0
 11 12  1  0  0  0
 12 13  1  0  0  0
 13 15  1  0  0  0
 15 16  1  0  0  0
 16 17  1  0  0  0
 17 18  1  0  0  0
  7  9  1  0  0  0
  7 10  1  0  0  0
  3  4  1  0  0  0
 13 14  1  0  0  0
 18 19  1  0  0  0
 18 20  1  0  0  0
M  END
> <minimizedAffinity>
-4.19780

$$$$
3KWA_SPM_A_300


 20 19  0  0  0  0  0  0  0  0999 V2000
   -6.5639    3.0816   16.0004 C   0  0  0  0  0  0  0  0  0  0  0  0
   -5.5024    3.9291   15.3315 C   0  0  0  0  0  0  0  0  0  0  0  0
   -6.0013    4.8565   14.3312 N   0  0  0  0  0  0  0  0  0  0  0  0
   -6.2973    4.3048   13.5260 H   0  0  0  0  0  0  0  0  0  0  0  0
   -5.1000    5.8758   13.8466 C   0  0  0  0  0  0  0  0  0  0  0  0
   -5.5491    6.5689   12.5562 C   0  0  0  0  0  0  0  0  0  0  0  0
   -4.5371    4.6842   11.4931 N   0  0  0  0  0  0  0  0  0  0  0  0
   -4.7446    6.1051   11.3619 C   0  0  0  0  0  0  0  0  0  0  0  0
   -3.9955    4.3448   10.6982 H   0  0  0  0  0  0  0  0  0  0  0  0
   -5.4397    4.2096   11.5170 H   0  0  0  0  0  0  0  0  0  0  0  0
   -5.7689    2.0808   16.8198 C   0  0  0  0  0  0  0  0  0  0  0  0
   -4.3630    2.0987   16.2855 C   0  0  0  0  0  0  0  0  0  0  0  0
   -3.9915    0.7859   15.8148 N   0  0  0  0  0  0  0  0  0  0  0  0
   -4.3702    0.1291   16.4971 H   0  0  0  0  0  0  0  0  0  0  0  0
   -4.3565    0.2675   14.5308 C   0  0  0  0  0  0  0  0  0  0  0  0
   -4.3111    1.3737   13.4967 C   0  0  0  0  0  0  0  0  0  0  0  0
   -4.3930    0.8405   12.0681 C   0  0  0  0  0  0  0  0  0  0  0  0
   -5.2222    1.6899   11.2388 N   0  0  0  0  0  0  0  0  0  0  0  0
   -6.1684    1.7168   11.6187 H   0  0  0  0  0  0  0  0  0  0  0  0
   -5.2475    1.3179   10.2894 H   0  0  0  0  0  0  0  0  0  0  0  0
  7  8  1  0  0  0
  8  6  1  0  0  0
  6  5  1  0  0  0
  5  3  1  0  0  0
  3  2  1  0  0  0
  2  1  1  0  0  0
  1 11  1  0  0  0
 11 12  1  0  0  0
 12 13  1  0  0  0
 13 15  1  0  0  0
 15 16  1  0  0  0
 16 17  1  0  0  0
 17 18  1  0  0  0
  7  9  1  0  0  0
  7 10  1  0  0  0
  3  4  1  0  0  0
 13 14  1  0  0  0
 18 19  1  0  0  0
 18 20  1  0  0  0
M  END
> <minimizedAffinity>
-4.15009

$$$$
3KWA_SPM_A_300


 20 19  0  0  0  0  0  0  0  0999 V2000
   -4.6217    5.7719   14.7507 C   0  0  0  0  0  0  0  0  0  0  0  0
   -4.9772    4.7974   13.6477 C   0  0  0  0  0  0  0  0  0  0  0  0
   -5.8013    3.6763   14.0648 N   0  0  0  0  0  0  0  0  0  0  0  0
   -6.6996    3.7662   13.5900 H   0  0  0  0  0  0  0  0  0  0  0  0
   -6.0732    3.5264   15.4754 C   0  0  0  0  0  0  0  0  0  0  0  0
   -5.4433    2.2887   16.1223 C   0  0  0  0  0  0  0  0  0  0  0  0
   -5.6276    0.6021   17.8040 N   0  0  0  0  0  0  0  0  0  0  0  0
   -6.3283    1.7107   17.2047 C   0  0  0  0  0  0  0  0  0  0  0  0
   -6.2040    0.1930   18.5393 H   0  0  0  0  0  0  0  0  0  0  0  0
   -4.7492    0.9316   18.2043 H   0  0  0  0  0  0  0  0  0  0  0  0
   -3.1400    6.0311   14.5448 C   0  0  0  0  0  0  0  0  0  0  0  0
   -2.4283    4.7348   14.8192 C   0  0  0  0  0  0  0  0  0  0  0  0
   -1.3531    4.5465   13.8750 N   0  0  0  0  0  0  0  0  0  0  0  0
   -1.1451    3.5480   13.8870 H   0  0  0  0  0  0  0  0  0  0  0  0
   -1.4343    4.9109   12.4925 C   0  0  0  0  0  0  0  0  0  0  0  0
   -0.8882    3.7905   11.6314 C   0  0  0  0  0  0  0  0  0  0  0  0
    0.5097    4.0939   11.0968 C   0  0  0  0  0  0  0  0  0  0  0  0
    1.1298    5.1743   11.8352 N   0  0  0  0  0  0  0  0  0  0  0  0
    0.5664    6.0192   11.7388 H   0  0  0  0  0  0  0  0  0  0  0  0
    2.0651    5.3454   11.4661 H   0  0  0  0  0  0  0  0  0  0  0  0
  7  8  1  0  0  0
  8  6  1  0  0  0
  6  5  1  0  0  0
  5  3  1  0  0  0
  3  2  1  0  0  0
  2  1  1  0  0  0
  1 11  1  0  0  0
 11 12  1  0  0  0
 12 13  1  0  0  0
 13 15  1  0  0  0
 15 16  1  0  0  0
 16 17  1  0  0  0
 17 18  1  0  0  0
  7  9  1  0  0  0
  7 10  1  0  0  0
  3  4  1  0  0  0
 13 14  1  0  0  0
 18 19  1  0  0  0
 18 20  1  0  0  0
M  END
> <minimizedAffinity>
-4.06510

$$$$
