1J36_LPR_A_801


 34 35  0  0  0  0  0  0  0  0999 V2000
   15.3411   -6.7142   18.0184 C   0  0  0  0  0  0  0  0  0  0  0  0
   15.9159   -7.5861   16.8541 C   0  0  0  0  0  0  0  0  0  0  0  0
   16.7948   -8.4662   17.1191 O   0  0  0  0  0  0  0  0  0  0  0  0
   15.5020   -7.4113   15.5824 N   0  0  0  0  0  0  0  0  0  0  0  0
   16.0776   -8.2461   14.4638 C   0  0  0  0  0  0  0  0  0  0  0  0
   15.3345   -7.7073   13.2302 C   0  0  0  0  0  0  0  0  0  0  0  0
   14.4698   -6.7228   13.6126 C   0  0  0  0  0  0  0  0  0  0  0  0
   14.4926   -6.4512   15.0660 C   0  0  0  0  0  0  0  0  0  0  0  0
   18.2222   -9.1406   14.4217 O   0  0  0  0  0  0  0  0  0  0  0  0
   18.0672   -6.9759   14.0609 O   0  0  0  0  0  0  0  0  0  0  0  0
   17.5866   -8.0397   14.2759 C   0  0  0  0  0  0  0  0  0  0  0  0
   17.7527   -9.9339   14.5896 H   0  0  0  0  0  0  0  0  0  0  0  0
   15.2123   -7.6518   19.1904 N   0  0  0  0  0  0  0  0  0  0  0  0
   15.5612   -8.5553   18.8704 H   0  0  0  0  0  0  0  0  0  0  0  0
   15.8922   -7.3850   20.5311 C   0  0  0  0  0  0  0  0  0  0  0  0
   16.9478   -9.4937   20.1153 O   0  0  0  0  0  0  0  0  0  0  0  0
   18.0494   -8.0578   21.3516 O   0  0  0  0  0  0  0  0  0  0  0  0
   17.0590   -8.3695   20.6781 C   0  0  0  0  0  0  0  0  0  0  0  0
   16.1821   -9.6927   19.6134 H   0  0  0  0  0  0  0  0  0  0  0  0
   14.8249   -7.5236   21.6674 C   0  0  0  0  0  0  0  0  0  0  0  0
   14.4886   -6.2201   22.3719 C   0  0  0  0  0  0  0  0  0  0  0  0
   14.2862   -5.0200   21.4885 C   0  0  0  0  0  0  0  0  0  0  0  0
   15.1785   -3.9021   21.5691 C   0  0  0  0  0  0  0  0  0  0  0  0
   14.9885   -2.7691   20.7266 C   0  0  0  0  0  0  0  0  0  0  0  0
   13.9027   -2.7438   19.7998 C   0  0  0  0  0  0  0  0  0  0  0  0
   13.0082   -3.8572   19.7197 C   0  0  0  0  0  0  0  0  0  0  0  0
   13.2043   -4.9841   20.5613 C   0  0  0  0  0  0  0  0  0  0  0  0
   16.2974   -5.5852   18.2793 C   0  0  0  0  0  0  0  0  0  0  0  0
   16.2769   -4.4047   17.4305 C   0  0  0  0  0  0  0  0  0  0  0  0
   17.4339   -4.3181   16.3149 C   0  0  0  0  0  0  0  0  0  0  0  0
   17.2636   -4.1877   13.8903 N   0  0  0  0  0  0  0  0  0  0  0  0
   17.0570   -3.4888   15.2039 C   0  0  0  0  0  0  0  0  0  0  0  0
   16.9857   -3.5689   13.1285 H   0  0  0  0  0  0  0  0  0  0  0  0
   16.6971   -5.0355   13.8634 H   0  0  0  0  0  0  0  0  0  0  0  0
  3  2  2  0  0  0
 16 18  1  0  0  0
 17 18  2  0  0  0
  9 11  1  0  0  0
 10 11  2  0  0  0
 13  1  1  0  0  0
 13 15  1  0  0  0
  4  2  1  0  0  0
  4  5  1  0  0  0
  4  8  1  0  0  0
 31 32  1  0  0  0
  2  1  1  0  0  0
  1 28  1  0  0  0
 18 15  1  0  0  0
 15 20  1  0  0  0
  5  6  1  0  0  0
  5 11  1  0  0  0
  6  7  1  0  0  0
  7  8  1  0  0  0
 28 29  1  0  0  0
 29 30  1  0  0  0
 30 32  1  0  0  0
 20 21  1  0  0  0
 21 22  1  0  0  0
 22 23  2  0  0  0
 22 27  1  0  0  0
 23 24  1  0  0  0
 24 25  2  0  0  0
 25 26  1  0  0  0
 26 27  2  0  0  0
 16 19  1  0  0  0
 13 14  1  0  0  0
 31 33  1  0  0  0
 31 34  1  0  0  0
  9 12  1  0  0  0
M  END
> <minimizedAffinity>
-7.72510

$$$$
1J36_LPR_A_801


 34 35  0  0  0  0  0  0  0  0999 V2000
   13.7520   -6.0945   16.6091 C   0  0  0  0  0  0  0  0  0  0  0  0
   14.2765   -6.6551   15.2465 C   0  0  0  0  0  0  0  0  0  0  0  0
   13.5807   -6.4757   14.1973 O   0  0  0  0  0  0  0  0  0  0  0  0
   15.4425   -7.3291   15.1724 N   0  0  0  0  0  0  0  0  0  0  0  0
   15.9298   -7.8820   13.8548 C   0  0  0  0  0  0  0  0  0  0  0  0
   17.2553   -8.5557   14.2464 C   0  0  0  0  0  0  0  0  0  0  0  0
   17.4717   -8.3930   15.5843 C   0  0  0  0  0  0  0  0  0  0  0  0
   16.3974   -7.6406   16.2672 C   0  0  0  0  0  0  0  0  0  0  0  0
   14.3820   -8.4766   12.2262 O   0  0  0  0  0  0  0  0  0  0  0  0
   14.8313  -10.0068   13.7417 O   0  0  0  0  0  0  0  0  0  0  0  0
   14.9844   -8.9335   13.2585 C   0  0  0  0  0  0  0  0  0  0  0  0
   14.5708   -7.6121   11.9181 H   0  0  0  0  0  0  0  0  0  0  0  0
   14.0838   -4.6252   16.5879 N   0  0  0  0  0  0  0  0  0  0  0  0
   13.3039   -4.1650   16.1185 H   0  0  0  0  0  0  0  0  0  0  0  0
   14.3432   -3.8259   17.8626 C   0  0  0  0  0  0  0  0  0  0  0  0
   16.1438   -2.8794   16.5995 O   0  0  0  0  0  0  0  0  0  0  0  0
   15.2525   -1.6198   18.1559 O   0  0  0  0  0  0  0  0  0  0  0  0
   15.3034   -2.6802   17.5198 C   0  0  0  0  0  0  0  0  0  0  0  0
   16.1510   -3.6962   16.1404 H   0  0  0  0  0  0  0  0  0  0  0  0
   14.9089   -4.7960   18.9527 C   0  0  0  0  0  0  0  0  0  0  0  0
   14.0445   -4.9109   20.1970 C   0  0  0  0  0  0  0  0  0  0  0  0
   14.2816   -6.1181   21.0620 C   0  0  0  0  0  0  0  0  0  0  0  0
   14.6240   -5.9630   22.4444 C   0  0  0  0  0  0  0  0  0  0  0  0
   14.8418   -7.1082   23.2633 C   0  0  0  0  0  0  0  0  0  0  0  0
   14.7224   -8.4170   22.7052 C   0  0  0  0  0  0  0  0  0  0  0  0
   14.3841   -8.5746   21.3243 C   0  0  0  0  0  0  0  0  0  0  0  0
   14.1667   -7.4287   20.5141 C   0  0  0  0  0  0  0  0  0  0  0  0
   12.2748   -6.3559   16.6900 C   0  0  0  0  0  0  0  0  0  0  0  0
   11.5784   -6.2042   17.9575 C   0  0  0  0  0  0  0  0  0  0  0  0
   10.8135   -4.8053   18.1787 C   0  0  0  0  0  0  0  0  0  0  0  0
   10.6844   -2.8502   16.7345 N   0  0  0  0  0  0  0  0  0  0  0  0
   10.2769   -4.2794   16.9542 C   0  0  0  0  0  0  0  0  0  0  0  0
   10.2853   -2.5137   15.8582 H   0  0  0  0  0  0  0  0  0  0  0  0
   11.7016   -2.7896   16.6903 H   0  0  0  0  0  0  0  0  0  0  0  0
  3  2  2  0  0  0
 16 18  1  0  0  0
 17 18  2  0  0  0
  9 11  1  0  0  0
 10 11  2  0  0  0
 13  1  1  0  0  0
 13 15  1  0  0  0
  4  2  1  0  0  0
  4  5  1  0  0  0
  4  8  1  0  0  0
 31 32  1  0  0  0
  2  1  1  0  0  0
  1 28  1  0  0  0
 18 15  1  0  0  0
 15 20  1  0  0  0
  5  6  1  0  0  0
  5 11  1  0  0  0
  6  7  1  0  0  0
  7  8  1  0  0  0
 28 29  1  0  0  0
 29 30  1  0  0  0
 30 32  1  0  0  0
 20 21  1  0  0  0
 21 22  1  0  0  0
 22 23  2  0  0  0
 22 27  1  0  0  0
 23 24  1  0  0  0
 24 25  2  0  0  0
 25 26  1  0  0  0
 26 27  2  0  0  0
 16 19  1  0  0  0
 13 14  1  0  0  0
 31 33  1  0  0  0
 31 34  1  0  0  0
  9 12  1  0  0  0
M  END
> <minimizedAffinity>
-7.64400

$$$$
1J36_LPR_A_801


 34 35  0  0  0  0  0  0  0  0999 V2000
   15.2426   -5.7951   16.0340 C   0  0  0  0  0  0  0  0  0  0  0  0
   14.9452   -6.3076   14.5866 C   0  0  0  0  0  0  0  0  0  0  0  0
   13.9639   -7.0950   14.4010 O   0  0  0  0  0  0  0  0  0  0  0  0
   15.7152   -5.9361   13.5434 N   0  0  0  0  0  0  0  0  0  0  0  0
   15.4299   -6.4520   12.1536 C   0  0  0  0  0  0  0  0  0  0  0  0
   16.5356   -5.7863   11.3179 C   0  0  0  0  0  0  0  0  0  0  0  0
   17.3143   -5.0104   12.1273 C   0  0  0  0  0  0  0  0  0  0  0  0
   16.8935   -5.0310   13.5447 C   0  0  0  0  0  0  0  0  0  0  0  0
   14.4194   -8.5204   11.8345 O   0  0  0  0  0  0  0  0  0  0  0  0
   16.5934   -8.5450   12.1708 O   0  0  0  0  0  0  0  0  0  0  0  0
   15.5592   -7.9770   12.0410 C   0  0  0  0  0  0  0  0  0  0  0  0
   13.6549   -7.9860   11.7447 H   0  0  0  0  0  0  0  0  0  0  0  0
   14.1762   -4.7699   16.3191 N   0  0  0  0  0  0  0  0  0  0  0  0
   13.6884   -4.6153   15.4368 H   0  0  0  0  0  0  0  0  0  0  0  0
   13.0916   -4.9877   17.3714 C   0  0  0  0  0  0  0  0  0  0  0  0
   11.7322   -6.6079   16.2487 O   0  0  0  0  0  0  0  0  0  0  0  0
   10.9032   -4.5900   16.4591 O   0  0  0  0  0  0  0  0  0  0  0  0
   11.8067   -5.4138   16.6504 C   0  0  0  0  0  0  0  0  0  0  0  0
   12.4376   -7.2024   16.4129 H   0  0  0  0  0  0  0  0  0  0  0  0
   12.9246   -3.6676   18.1953 C   0  0  0  0  0  0  0  0  0  0  0  0
   12.6480   -3.8838   19.6736 C   0  0  0  0  0  0  0  0  0  0  0  0
   13.8284   -4.2718   20.5209 C   0  0  0  0  0  0  0  0  0  0  0  0
   13.6924   -5.2701   21.5394 C   0  0  0  0  0  0  0  0  0  0  0  0
   14.8136   -5.6406   22.3364 C   0  0  0  0  0  0  0  0  0  0  0  0
   16.0784   -5.0132   22.1234 C   0  0  0  0  0  0  0  0  0  0  0  0
   16.2160   -4.0136   21.1094 C   0  0  0  0  0  0  0  0  0  0  0  0
   15.0947   -3.6502   20.3174 C   0  0  0  0  0  0  0  0  0  0  0  0
   15.1871   -6.9681   16.9710 C   0  0  0  0  0  0  0  0  0  0  0  0
   16.2671   -7.1930   17.9184 C   0  0  0  0  0  0  0  0  0  0  0  0
   15.8230   -7.6200   19.4055 C   0  0  0  0  0  0  0  0  0  0  0  0
   16.8168   -9.6199   20.3739 N   0  0  0  0  0  0  0  0  0  0  0  0
   16.9221   -8.1346   20.1745 C   0  0  0  0  0  0  0  0  0  0  0  0
   17.6123   -9.9465   20.9224 H   0  0  0  0  0  0  0  0  0  0  0  0
   16.8153  -10.0855   19.4664 H   0  0  0  0  0  0  0  0  0  0  0  0
  3  2  2  0  0  0
 16 18  1  0  0  0
 17 18  2  0  0  0
  9 11  1  0  0  0
 10 11  2  0  0  0
 13  1  1  0  0  0
 13 15  1  0  0  0
  4  2  1  0  0  0
  4  5  1  0  0  0
  4  8  1  0  0  0
 31 32  1  0  0  0
  2  1  1  0  0  0
  1 28  1  0  0  0
 18 15  1  0  0  0
 15 20  1  0  0  0
  5  6  1  0  0  0
  5 11  1  0  0  0
  6  7  1  0  0  0
  7  8  1  0  0  0
 28 29  1  0  0  0
 29 30  1  0  0  0
 30 32  1  0  0  0
 20 21  1  0  0  0
 21 22  1  0  0  0
 22 23  2  0  0  0
 22 27  1  0  0  0
 23 24  1  0  0  0
 24 25  2  0  0  0
 25 26  1  0  0  0
 26 27  2  0  0  0
 16 19  1  0  0  0
 13 14  1  0  0  0
 31 33  1  0  0  0
 31 34  1  0  0  0
  9 12  1  0  0  0
M  END
> <minimizedAffinity>
-7.48772

$$$$
1J36_LPR_A_801


 34 35  0  0  0  0  0  0  0  0999 V2000
   14.6217   -6.8371   17.6407 C   0  0  0  0  0  0  0  0  0  0  0  0
   13.5664   -5.8404   18.2231 C   0  0  0  0  0  0  0  0  0  0  0  0
   12.4457   -6.2916   18.6200 O   0  0  0  0  0  0  0  0  0  0  0  0
   13.8240   -4.5187   18.3001 N   0  0  0  0  0  0  0  0  0  0  0  0
   12.7906   -3.5634   18.8468 C   0  0  0  0  0  0  0  0  0  0  0  0
   13.5027   -2.2050   18.7385 C   0  0  0  0  0  0  0  0  0  0  0  0
   14.7502   -2.3846   18.2143 C   0  0  0  0  0  0  0  0  0  0  0  0
   15.0586   -3.7960   17.8988 C   0  0  0  0  0  0  0  0  0  0  0  0
   10.5185   -4.0169   18.6653 O   0  0  0  0  0  0  0  0  0  0  0  0
   11.4741   -3.1269   16.8948 O   0  0  0  0  0  0  0  0  0  0  0  0
   11.5038   -3.5284   18.0114 C   0  0  0  0  0  0  0  0  0  0  0  0
   10.6402   -4.3092   19.5472 H   0  0  0  0  0  0  0  0  0  0  0  0
   14.8307   -7.8686   18.7185 N   0  0  0  0  0  0  0  0  0  0  0  0
   15.2730   -8.6676   18.2643 H   0  0  0  0  0  0  0  0  0  0  0  0
   15.6518   -7.5861   19.9742 C   0  0  0  0  0  0  0  0  0  0  0  0
   17.0668   -9.5053   20.1930 O   0  0  0  0  0  0  0  0  0  0  0  0
   17.9838   -7.6804   19.3978 O   0  0  0  0  0  0  0  0  0  0  0  0
   17.0026   -8.2980   19.8306 C   0  0  0  0  0  0  0  0  0  0  0  0
   16.3014   -9.9390   20.5156 H   0  0  0  0  0  0  0  0  0  0  0  0
   14.8355   -8.0634   21.2213 C   0  0  0  0  0  0  0  0  0  0  0  0
   15.0189   -7.1988   22.4572 C   0  0  0  0  0  0  0  0  0  0  0  0
   14.9246   -5.7124   22.2486 C   0  0  0  0  0  0  0  0  0  0  0  0
   16.0584   -4.9733   21.7788 C   0  0  0  0  0  0  0  0  0  0  0  0
   15.9648   -3.5663   21.5759 C   0  0  0  0  0  0  0  0  0  0  0  0
   14.7378   -2.8872   21.8445 C   0  0  0  0  0  0  0  0  0  0  0  0
   13.6053   -3.6223   22.3170 C   0  0  0  0  0  0  0  0  0  0  0  0
   13.7051   -5.0250   22.5156 C   0  0  0  0  0  0  0  0  0  0  0  0
   14.0678   -7.4240   16.3735 C   0  0  0  0  0  0  0  0  0  0  0  0
   14.3081   -6.7630   15.1008 C   0  0  0  0  0  0  0  0  0  0  0  0
   15.2501   -7.5537   14.0624 C   0  0  0  0  0  0  0  0  0  0  0  0
   14.6969   -8.1145   11.7593 N   0  0  0  0  0  0  0  0  0  0  0  0
   15.1290   -7.0467   12.7236 C   0  0  0  0  0  0  0  0  0  0  0  0
   14.6225   -7.7171   10.8228 H   0  0  0  0  0  0  0  0  0  0  0  0
   13.7901   -8.4839   12.0449 H   0  0  0  0  0  0  0  0  0  0  0  0
  3  2  2  0  0  0
 16 18  1  0  0  0
 17 18  2  0  0  0
  9 11  1  0  0  0
 10 11  2  0  0  0
 13  1  1  0  0  0
 13 15  1  0  0  0
  4  2  1  0  0  0
  4  5  1  0  0  0
  4  8  1  0  0  0
 31 32  1  0  0  0
  2  1  1  0  0  0
  1 28  1  0  0  0
 18 15  1  0  0  0
 15 20  1  0  0  0
  5  6  1  0  0  0
  5 11  1  0  0  0
  6  7  1  0  0  0
  7  8  1  0  0  0
 28 29  1  0  0  0
 29 30  1  0  0  0
 30 32  1  0  0  0
 20 21  1  0  0  0
 21 22  1  0  0  0
 22 23  2  0  0  0
 22 27  1  0  0  0
 23 24  1  0  0  0
 24 25  2  0  0  0
 25 26  1  0  0  0
 26 27  2  0  0  0
 16 19  1  0  0  0
 13 14  1  0  0  0
 31 33  1  0  0  0
 31 34  1  0  0  0
  9 12  1  0  0  0
M  END
> <minimizedAffinity>
-7.40538

$$$$
1J36_LPR_A_801


 34 35  0  0  0  0  0  0  0  0999 V2000
   14.6247   -6.0254   17.3838 C   0  0  0  0  0  0  0  0  0  0  0  0
   15.2464   -6.6632   16.0982 C   0  0  0  0  0  0  0  0  0  0  0  0
   14.9560   -7.8660   15.8045 O   0  0  0  0  0  0  0  0  0  0  0  0
   16.0869   -5.9630   15.3092 N   0  0  0  0  0  0  0  0  0  0  0  0
   16.6958   -6.5951   14.0807 C   0  0  0  0  0  0  0  0  0  0  0  0
   17.5638   -5.4581   13.5169 C   0  0  0  0  0  0  0  0  0  0  0  0
   17.4464   -4.3564   14.3143 C   0  0  0  0  0  0  0  0  0  0  0  0
   16.5471   -4.5596   15.4704 C   0  0  0  0  0  0  0  0  0  0  0  0
   17.2013   -8.8424   13.7723 O   0  0  0  0  0  0  0  0  0  0  0  0
   18.4891   -7.7427   15.1767 O   0  0  0  0  0  0  0  0  0  0  0  0
   17.5886   -7.8002   14.4054 C   0  0  0  0  0  0  0  0  0  0  0  0
   16.4764   -8.7890   13.1810 H   0  0  0  0  0  0  0  0  0  0  0  0
   13.3195   -5.4210   16.9358 N   0  0  0  0  0  0  0  0  0  0  0  0
   12.6653   -6.1978   16.8402 H   0  0  0  0  0  0  0  0  0  0  0  0
   12.5920   -4.3507   17.7459 C   0  0  0  0  0  0  0  0  0  0  0  0
   10.8056   -4.9046   16.2507 O   0  0  0  0  0  0  0  0  0  0  0  0
   10.7127   -2.9444   17.2265 O   0  0  0  0  0  0  0  0  0  0  0  0
   11.2696   -4.0332   17.0370 C   0  0  0  0  0  0  0  0  0  0  0  0
   11.2565   -5.7176   16.1337 H   0  0  0  0  0  0  0  0  0  0  0  0
   13.5302   -3.1054   17.8821 C   0  0  0  0  0  0  0  0  0  0  0  0
   13.5684   -2.5006   19.2754 C   0  0  0  0  0  0  0  0  0  0  0  0
   14.1871   -3.3494   20.3518 C   0  0  0  0  0  0  0  0  0  0  0  0
   15.6102   -3.3958   20.5096 C   0  0  0  0  0  0  0  0  0  0  0  0
   16.1937   -4.1956   21.5340 C   0  0  0  0  0  0  0  0  0  0  0  0
   15.3587   -4.9578   22.4062 C   0  0  0  0  0  0  0  0  0  0  0  0
   13.9376   -4.9159   22.2485 C   0  0  0  0  0  0  0  0  0  0  0  0
   13.3625   -4.1153   21.2262 C   0  0  0  0  0  0  0  0  0  0  0  0
   14.4424   -7.1095   18.4078 C   0  0  0  0  0  0  0  0  0  0  0  0
   15.3427   -7.1921   19.5467 C   0  0  0  0  0  0  0  0  0  0  0  0
   14.9423   -8.2558   20.6865 C   0  0  0  0  0  0  0  0  0  0  0  0
   16.8247   -9.7766   20.4244 N   0  0  0  0  0  0  0  0  0  0  0  0
   16.0949   -8.8244   21.3286 C   0  0  0  0  0  0  0  0  0  0  0  0
   17.6338  -10.1581   20.9144 H   0  0  0  0  0  0  0  0  0  0  0  0
   17.1357   -9.2812   19.5888 H   0  0  0  0  0  0  0  0  0  0  0  0
  3  2  2  0  0  0
 16 18  1  0  0  0
 17 18  2  0  0  0
  9 11  1  0  0  0
 10 11  2  0  0  0
 13  1  1  0  0  0
 13 15  1  0  0  0
  4  2  1  0  0  0
  4  5  1  0  0  0
  4  8  1  0  0  0
 31 32  1  0  0  0
  2  1  1  0  0  0
  1 28  1  0  0  0
 18 15  1  0  0  0
 15 20  1  0  0  0
  5  6  1  0  0  0
  5 11  1  0  0  0
  6  7  1  0  0  0
  7  8  1  0  0  0
 28 29  1  0  0  0
 29 30  1  0  0  0
 30 32  1  0  0  0
 20 21  1  0  0  0
 21 22  1  0  0  0
 22 23  2  0  0  0
 22 27  1  0  0  0
 23 24  1  0  0  0
 24 25  2  0  0  0
 25 26  1  0  0  0
 26 27  2  0  0  0
 16 19  1  0  0  0
 13 14  1  0  0  0
 31 33  1  0  0  0
 31 34  1  0  0  0
  9 12  1  0  0  0
M  END
> <minimizedAffinity>
-7.34731

$$$$
1J36_LPR_A_801


 34 35  0  0  0  0  0  0  0  0999 V2000
   15.6655   -6.7736   18.7059 C   0  0  0  0  0  0  0  0  0  0  0  0
   17.1881   -6.9300   18.3845 C   0  0  0  0  0  0  0  0  0  0  0  0
   17.8506   -7.8451   18.9685 O   0  0  0  0  0  0  0  0  0  0  0  0
   17.8043   -6.1077   17.5109 N   0  0  0  0  0  0  0  0  0  0  0  0
   19.2788   -6.2560   17.2224 C   0  0  0  0  0  0  0  0  0  0  0  0
   19.5333   -5.1330   16.2035 C   0  0  0  0  0  0  0  0  0  0  0  0
   18.3677   -4.4656   15.9598 C   0  0  0  0  0  0  0  0  0  0  0  0
   17.2177   -4.9897   16.7275 C   0  0  0  0  0  0  0  0  0  0  0  0
   20.6265   -7.1324   18.9008 O   0  0  0  0  0  0  0  0  0  0  0  0
   20.3287   -4.9529   18.9353 O   0  0  0  0  0  0  0  0  0  0  0  0
   20.1584   -6.0267   18.4588 C   0  0  0  0  0  0  0  0  0  0  0  0
   20.4364   -7.9337   18.4538 H   0  0  0  0  0  0  0  0  0  0  0  0
   14.9469   -7.3320   17.5054 N   0  0  0  0  0  0  0  0  0  0  0  0
   14.6102   -8.2547   17.7802 H   0  0  0  0  0  0  0  0  0  0  0  0
   13.7600   -6.6224   16.8583 C   0  0  0  0  0  0  0  0  0  0  0  0
   12.9532   -6.3407   14.6215 O   0  0  0  0  0  0  0  0  0  0  0  0
   14.4772   -7.8830   14.9410 O   0  0  0  0  0  0  0  0  0  0  0  0
   13.7465   -6.9795   15.3668 C   0  0  0  0  0  0  0  0  0  0  0  0
   12.4156   -5.6628   14.9813 H   0  0  0  0  0  0  0  0  0  0  0  0
   13.8949   -5.0854   17.1206 C   0  0  0  0  0  0  0  0  0  0  0  0
   12.8570   -4.5205   18.0757 C   0  0  0  0  0  0  0  0  0  0  0  0
   13.3738   -4.0078   19.3917 C   0  0  0  0  0  0  0  0  0  0  0  0
   12.8404   -4.5075   20.6239 C   0  0  0  0  0  0  0  0  0  0  0  0
   13.3361   -4.0250   21.8692 C   0  0  0  0  0  0  0  0  0  0  0  0
   14.3663   -3.0367   21.8920 C   0  0  0  0  0  0  0  0  0  0  0  0
   14.8982   -2.5336   20.6631 C   0  0  0  0  0  0  0  0  0  0  0  0
   14.4006   -3.0201   19.4251 C   0  0  0  0  0  0  0  0  0  0  0  0
   15.3686   -7.5342   19.9670 C   0  0  0  0  0  0  0  0  0  0  0  0
   15.5289   -6.8883   21.2599 C   0  0  0  0  0  0  0  0  0  0  0  0
   14.5972   -7.4470   22.4476 C   0  0  0  0  0  0  0  0  0  0  0  0
   13.9533   -9.5874   23.4114 N   0  0  0  0  0  0  0  0  0  0  0  0
   15.0791   -8.6928   22.9766 C   0  0  0  0  0  0  0  0  0  0  0  0
   14.3345  -10.4589   23.7798 H   0  0  0  0  0  0  0  0  0  0  0  0
   13.3522   -9.7900   22.6127 H   0  0  0  0  0  0  0  0  0  0  0  0
  3  2  2  0  0  0
 16 18  1  0  0  0
 17 18  2  0  0  0
  9 11  1  0  0  0
 10 11  2  0  0  0
 13  1  1  0  0  0
 13 15  1  0  0  0
  4  2  1  0  0  0
  4  5  1  0  0  0
  4  8  1  0  0  0
 31 32  1  0  0  0
  2  1  1  0  0  0
  1 28  1  0  0  0
 18 15  1  0  0  0
 15 20  1  0  0  0
  5  6  1  0  0  0
  5 11  1  0  0  0
  6  7  1  0  0  0
  7  8  1  0  0  0
 28 29  1  0  0  0
 29 30  1  0  0  0
 30 32  1  0  0  0
 20 21  1  0  0  0
 21 22  1  0  0  0
 22 23  2  0  0  0
 22 27  1  0  0  0
 23 24  1  0  0  0
 24 25  2  0  0  0
 25 26  1  0  0  0
 26 27  2  0  0  0
 16 19  1  0  0  0
 13 14  1  0  0  0
 31 33  1  0  0  0
 31 34  1  0  0  0
  9 12  1  0  0  0
M  END
> <minimizedAffinity>
-7.18915

$$$$
1J36_LPR_A_801


 34 35  0  0  0  0  0  0  0  0999 V2000
   14.3839   -5.8517   16.2846 C   0  0  0  0  0  0  0  0  0  0  0  0
   14.5313   -6.1718   14.7608 C   0  0  0  0  0  0  0  0  0  0  0  0
   13.5927   -6.7918   14.1676 O   0  0  0  0  0  0  0  0  0  0  0  0
   15.6358   -5.8105   14.0762 N   0  0  0  0  0  0  0  0  0  0  0  0
   15.7753   -6.1413   12.6098 C   0  0  0  0  0  0  0  0  0  0  0  0
   17.1558   -5.5576   12.2668 C   0  0  0  0  0  0  0  0  0  0  0  0
   17.6972   -4.9824   13.3801 C   0  0  0  0  0  0  0  0  0  0  0  0
   16.8320   -5.0839   14.5750 C   0  0  0  0  0  0  0  0  0  0  0  0
   14.7228   -8.0066   11.7076 O   0  0  0  0  0  0  0  0  0  0  0  0
   16.6535   -8.3673   12.6988 O   0  0  0  0  0  0  0  0  0  0  0  0
   15.7809   -7.6506   12.3327 C   0  0  0  0  0  0  0  0  0  0  0  0
   14.0873   -7.3646   11.4588 H   0  0  0  0  0  0  0  0  0  0  0  0
   12.9536   -5.4130   16.4616 N   0  0  0  0  0  0  0  0  0  0  0  0
   12.3781   -6.1550   16.0633 H   0  0  0  0  0  0  0  0  0  0  0  0
   12.3562   -5.1015   17.8316 C   0  0  0  0  0  0  0  0  0  0  0  0
   11.4655   -3.2178   16.6518 O   0  0  0  0  0  0  0  0  0  0  0  0
   10.4587   -3.7916   18.5120 O   0  0  0  0  0  0  0  0  0  0  0  0
   11.3410   -3.9646   17.6616 C   0  0  0  0  0  0  0  0  0  0  0  0
   12.1467   -3.3811   16.0295 H   0  0  0  0  0  0  0  0  0  0  0  0
   13.5212   -4.7430   18.8133 C   0  0  0  0  0  0  0  0  0  0  0  0
   13.2490   -5.1019   20.2644 C   0  0  0  0  0  0  0  0  0  0  0  0
   14.1450   -6.1471   20.8700 C   0  0  0  0  0  0  0  0  0  0  0  0
   15.2417   -5.7638   21.7083 C   0  0  0  0  0  0  0  0  0  0  0  0
   16.0851   -6.7560   22.2860 C   0  0  0  0  0  0  0  0  0  0  0  0
   15.8406   -8.1386   22.0268 C   0  0  0  0  0  0  0  0  0  0  0  0
   14.7483   -8.5238   21.1873 C   0  0  0  0  0  0  0  0  0  0  0  0
   13.9104   -7.5297   20.6160 C   0  0  0  0  0  0  0  0  0  0  0  0
   14.7113   -7.0948   17.0621 C   0  0  0  0  0  0  0  0  0  0  0  0
   16.0940   -7.5237   17.1983 C   0  0  0  0  0  0  0  0  0  0  0  0
   16.8712   -6.9939   18.5045 C   0  0  0  0  0  0  0  0  0  0  0  0
   19.2332   -7.0646   19.0884 N   0  0  0  0  0  0  0  0  0  0  0  0
   18.1774   -6.4845   18.1908 C   0  0  0  0  0  0  0  0  0  0  0  0
   20.1434   -6.6800   18.8354 H   0  0  0  0  0  0  0  0  0  0  0  0
   19.2509   -8.0788   18.9812 H   0  0  0  0  0  0  0  0  0  0  0  0
  3  2  2  0  0  0
 16 18  1  0  0  0
 17 18  2  0  0  0
  9 11  1  0  0  0
 10 11  2  0  0  0
 13  1  1  0  0  0
 13 15  1  0  0  0
  4  2  1  0  0  0
  4  5  1  0  0  0
  4  8  1  0  0  0
 31 32  1  0  0  0
  2  1  1  0  0  0
  1 28  1  0  0  0
 18 15  1  0  0  0
 15 20  1  0  0  0
  5  6  1  0  0  0
  5 11  1  0  0  0
  6  7  1  0  0  0
  7  8  1  0  0  0
 28 29  1  0  0  0
 29 30  1  0  0  0
 30 32  1  0  0  0
 20 21  1  0  0  0
 21 22  1  0  0  0
 22 23  2  0  0  0
 22 27  1  0  0  0
 23 24  1  0  0  0
 24 25  2  0  0  0
 25 26  1  0  0  0
 26 27  2  0  0  0
 16 19  1  0  0  0
 13 14  1  0  0  0
 31 33  1  0  0  0
 31 34  1  0  0  0
  9 12  1  0  0  0
M  END
> <minimizedAffinity>
-7.04536

$$$$
1J36_LPR_A_801


 34 35  0  0  0  0  0  0  0  0999 V2000
   16.7781   -6.1941   16.9681 C   0  0  0  0  0  0  0  0  0  0  0  0
   16.0825   -6.9963   15.8198 C   0  0  0  0  0  0  0  0  0  0  0  0
   15.4022   -8.0296   16.1143 O   0  0  0  0  0  0  0  0  0  0  0  0
   16.2020   -6.6152   14.5316 N   0  0  0  0  0  0  0  0  0  0  0  0
   15.5416   -7.4081   13.4295 C   0  0  0  0  0  0  0  0  0  0  0  0
   15.9454   -6.6261   12.1688 C   0  0  0  0  0  0  0  0  0  0  0  0
   16.7120   -5.5537   12.5234 C   0  0  0  0  0  0  0  0  0  0  0  0
   16.9400   -5.4492   13.9807 C   0  0  0  0  0  0  0  0  0  0  0  0
   15.1764   -9.6895   13.6804 O   0  0  0  0  0  0  0  0  0  0  0  0
   17.1794   -9.0984   12.9885 O   0  0  0  0  0  0  0  0  0  0  0  0
   16.0695   -8.8452   13.3246 C   0  0  0  0  0  0  0  0  0  0  0  0
   14.3237   -9.3923   13.9303 H   0  0  0  0  0  0  0  0  0  0  0  0
   15.6589   -5.5093   17.7084 N   0  0  0  0  0  0  0  0  0  0  0  0
   16.0977   -4.9918   18.4700 H   0  0  0  0  0  0  0  0  0  0  0  0
   14.7034   -4.5328   17.0269 C   0  0  0  0  0  0  0  0  0  0  0  0
   16.2292   -2.7608   16.5110 O   0  0  0  0  0  0  0  0  0  0  0  0
   14.7493   -2.3723   18.0802 O   0  0  0  0  0  0  0  0  0  0  0  0
   15.2504   -3.1138   17.2254 C   0  0  0  0  0  0  0  0  0  0  0  0
   16.5811   -3.3509   15.8740 H   0  0  0  0  0  0  0  0  0  0  0  0
   13.2737   -4.7302   17.6322 C   0  0  0  0  0  0  0  0  0  0  0  0
   13.1521   -5.9149   18.5757 C   0  0  0  0  0  0  0  0  0  0  0  0
   13.4422   -5.6423   20.0260 C   0  0  0  0  0  0  0  0  0  0  0  0
   13.2077   -4.3421   20.5798 C   0  0  0  0  0  0  0  0  0  0  0  0
   13.4771   -4.0880   21.9554 C   0  0  0  0  0  0  0  0  0  0  0  0
   13.9865   -5.1311   22.7868 C   0  0  0  0  0  0  0  0  0  0  0  0
   14.2249   -6.4293   22.2354 C   0  0  0  0  0  0  0  0  0  0  0  0
   13.9525   -6.6762   20.8637 C   0  0  0  0  0  0  0  0  0  0  0  0
   17.5370   -7.1636   17.8290 C   0  0  0  0  0  0  0  0  0  0  0  0
   16.8868   -7.7832   18.9726 C   0  0  0  0  0  0  0  0  0  0  0  0
   17.5524   -7.4873   20.4079 C   0  0  0  0  0  0  0  0  0  0  0  0
   16.9217   -9.8196   20.7041 N   0  0  0  0  0  0  0  0  0  0  0  0
   17.2530   -8.5133   21.3680 C   0  0  0  0  0  0  0  0  0  0  0  0
   16.7157  -10.5203   21.4161 H   0  0  0  0  0  0  0  0  0  0  0  0
   17.7166  -10.1275   20.1440 H   0  0  0  0  0  0  0  0  0  0  0  0
  3  2  2  0  0  0
 16 18  1  0  0  0
 17 18  2  0  0  0
  9 11  1  0  0  0
 10 11  2  0  0  0
 13  1  1  0  0  0
 13 15  1  0  0  0
  4  2  1  0  0  0
  4  5  1  0  0  0
  4  8  1  0  0  0
 31 32  1  0  0  0
  2  1  1  0  0  0
  1 28  1  0  0  0
 18 15  1  0  0  0
 15 20  1  0  0  0
  5  6  1  0  0  0
  5 11  1  0  0  0
  6  7  1  0  0  0
  7  8  1  0  0  0
 28 29  1  0  0  0
 29 30  1  0  0  0
 30 32  1  0  0  0
 20 21  1  0  0  0
 21 22  1  0  0  0
 22 23  2  0  0  0
 22 27  1  0  0  0
 23 24  1  0  0  0
 24 25  2  0  0  0
 25 26  1  0  0  0
 26 27  2  0  0  0
 16 19  1  0  0  0
 13 14  1  0  0  0
 31 33  1  0  0  0
 31 34  1  0  0  0
  9 12  1  0  0  0
M  END
> <minimizedAffinity>
-6.96705

$$$$
1J36_LPR_A_801


 34 35  0  0  0  0  0  0  0  0999 V2000
   16.0734   -5.5458   17.7348 C   0  0  0  0  0  0  0  0  0  0  0  0
   16.1257   -6.9313   17.0112 C   0  0  0  0  0  0  0  0  0  0  0  0
   16.3098   -7.9819   17.7038 O   0  0  0  0  0  0  0  0  0  0  0  0
   15.9888   -7.0244   15.6726 N   0  0  0  0  0  0  0  0  0  0  0  0
   16.0596   -8.3654   14.9827 C   0  0  0  0  0  0  0  0  0  0  0  0
   15.8631   -7.9901   13.5047 C   0  0  0  0  0  0  0  0  0  0  0  0
   15.7009   -6.6392   13.3948 C   0  0  0  0  0  0  0  0  0  0  0  0
   15.7644   -5.9313   14.6915 C   0  0  0  0  0  0  0  0  0  0  0  0
   17.3274  -10.0616   15.9402 O   0  0  0  0  0  0  0  0  0  0  0  0
   18.4104   -8.6604   14.6348 O   0  0  0  0  0  0  0  0  0  0  0  0
   17.4188   -9.0571   15.1530 C   0  0  0  0  0  0  0  0  0  0  0  0
   16.4964  -10.2992   16.3020 H   0  0  0  0  0  0  0  0  0  0  0  0
   14.6157   -5.3068   18.0303 N   0  0  0  0  0  0  0  0  0  0  0  0
   14.3651   -4.4462   17.5436 H   0  0  0  0  0  0  0  0  0  0  0  0
   13.5318   -6.3235   17.6800 C   0  0  0  0  0  0  0  0  0  0  0  0
   11.6807   -6.3399   16.1612 O   0  0  0  0  0  0  0  0  0  0  0  0
   12.4359   -4.3796   16.7859 O   0  0  0  0  0  0  0  0  0  0  0  0
   12.4729   -5.6160   16.8255 C   0  0  0  0  0  0  0  0  0  0  0  0
   11.7400   -7.2733   16.2176 H   0  0  0  0  0  0  0  0  0  0  0  0
   12.9542   -6.9140   19.0093 C   0  0  0  0  0  0  0  0  0  0  0  0
   13.3497   -6.1454   20.2589 C   0  0  0  0  0  0  0  0  0  0  0  0
   14.1172   -6.9156   21.2979 C   0  0  0  0  0  0  0  0  0  0  0  0
   14.4833   -6.2951   22.5362 C   0  0  0  0  0  0  0  0  0  0  0  0
   15.2048   -7.0287   23.5215 C   0  0  0  0  0  0  0  0  0  0  0  0
   15.5688   -8.3871   23.2746 C   0  0  0  0  0  0  0  0  0  0  0  0
   15.2075   -9.0079   22.0376 C   0  0  0  0  0  0  0  0  0  0  0  0
   14.4868   -8.2714   21.0604 C   0  0  0  0  0  0  0  0  0  0  0  0
   16.9125   -5.6305   18.9781 C   0  0  0  0  0  0  0  0  0  0  0  0
   18.3351   -5.3360   18.9161 C   0  0  0  0  0  0  0  0  0  0  0  0
   19.3130   -6.6070   18.7780 C   0  0  0  0  0  0  0  0  0  0  0  0
   19.5425   -6.3310   16.3705 N   0  0  0  0  0  0  0  0  0  0  0  0
   20.2433   -6.4620   17.6929 C   0  0  0  0  0  0  0  0  0  0  0  0
   20.2342   -6.2303   15.6277 H   0  0  0  0  0  0  0  0  0  0  0  0
   18.9381   -5.5095   16.3860 H   0  0  0  0  0  0  0  0  0  0  0  0
  3  2  2  0  0  0
 16 18  1  0  0  0
 17 18  2  0  0  0
  9 11  1  0  0  0
 10 11  2  0  0  0
 13  1  1  0  0  0
 13 15  1  0  0  0
  4  2  1  0  0  0
  4  5  1  0  0  0
  4  8  1  0  0  0
 31 32  1  0  0  0
  2  1  1  0  0  0
  1 28  1  0  0  0
 18 15  1  0  0  0
 15 20  1  0  0  0
  5  6  1  0  0  0
  5 11  1  0  0  0
  6  7  1  0  0  0
  7  8  1  0  0  0
 28 29  1  0  0  0
 29 30  1  0  0  0
 30 32  1  0  0  0
 20 21  1  0  0  0
 21 22  1  0  0  0
 22 23  2  0  0  0
 22 27  1  0  0  0
 23 24  1  0  0  0
 24 25  2  0  0  0
 25 26  1  0  0  0
 26 27  2  0  0  0
 16 19  1  0  0  0
 13 14  1  0  0  0
 31 33  1  0  0  0
 31 34  1  0  0  0
  9 12  1  0  0  0
M  END
> <minimizedAffinity>
-6.89591

$$$$
1J36_LPR_A_801


 34 35  0  0  0  0  0  0  0  0999 V2000
   15.1049   -5.2836   15.9919 C   0  0  0  0  0  0  0  0  0  0  0  0
   15.2460   -6.8209   15.7413 C   0  0  0  0  0  0  0  0  0  0  0  0
   15.4089   -7.5953   16.7368 O   0  0  0  0  0  0  0  0  0  0  0  0
   15.2070   -7.3303   14.4930 N   0  0  0  0  0  0  0  0  0  0  0  0
   15.3630   -8.8140   14.2617 C   0  0  0  0  0  0  0  0  0  0  0  0
   15.2618   -8.9248   12.7315 C   0  0  0  0  0  0  0  0  0  0  0  0
   15.0712   -7.6837   12.1960 C   0  0  0  0  0  0  0  0  0  0  0  0
   15.0233   -6.6068   13.2084 C   0  0  0  0  0  0  0  0  0  0  0  0
   16.6003  -10.0991   15.7513 O   0  0  0  0  0  0  0  0  0  0  0  0
   17.7432   -9.0638   14.1822 O   0  0  0  0  0  0  0  0  0  0  0  0
   16.7250   -9.3531   14.7192 C   0  0  0  0  0  0  0  0  0  0  0  0
   15.7499  -10.2711   16.1051 H   0  0  0  0  0  0  0  0  0  0  0  0
   13.6520   -5.0674   16.3258 N   0  0  0  0  0  0  0  0  0  0  0  0
   13.1533   -5.8786   15.9603 H   0  0  0  0  0  0  0  0  0  0  0  0
   13.1606   -4.8773   17.7588 C   0  0  0  0  0  0  0  0  0  0  0  0
   12.3095   -7.1143   17.6872 O   0  0  0  0  0  0  0  0  0  0  0  0
   11.0022   -5.5811   18.5496 O   0  0  0  0  0  0  0  0  0  0  0  0
   12.0732   -5.9235   18.0325 C   0  0  0  0  0  0  0  0  0  0  0  0
   13.1331   -7.3347   17.2985 H   0  0  0  0  0  0  0  0  0  0  0  0
   12.6518   -3.4060   17.9201 C   0  0  0  0  0  0  0  0  0  0  0  0
   13.4475   -2.5743   18.9119 C   0  0  0  0  0  0  0  0  0  0  0  0
   14.0574   -3.3203   20.0666 C   0  0  0  0  0  0  0  0  0  0  0  0
   15.4783   -3.3380   20.2484 C   0  0  0  0  0  0  0  0  0  0  0  0
   16.0533   -4.0400   21.3466 C   0  0  0  0  0  0  0  0  0  0  0  0
   15.2121   -4.7327   22.2692 C   0  0  0  0  0  0  0  0  0  0  0  0
   13.7932   -4.7195   22.0880 C   0  0  0  0  0  0  0  0  0  0  0  0
   13.2265   -4.0164   20.9920 C   0  0  0  0  0  0  0  0  0  0  0  0
   16.0234   -4.9025   17.1181 C   0  0  0  0  0  0  0  0  0  0  0  0
   17.4298   -4.6447   16.8532 C   0  0  0  0  0  0  0  0  0  0  0  0
   18.4699   -5.7062   17.4714 C   0  0  0  0  0  0  0  0  0  0  0  0
   20.1237   -4.6195   18.8887 N   0  0  0  0  0  0  0  0  0  0  0  0
   18.8337   -5.3865   18.8240 C   0  0  0  0  0  0  0  0  0  0  0  0
   20.3475   -4.4119   19.8620 H   0  0  0  0  0  0  0  0  0  0  0  0
   20.0272   -3.7474   18.3686 H   0  0  0  0  0  0  0  0  0  0  0  0
  3  2  2  0  0  0
 16 18  1  0  0  0
 17 18  2  0  0  0
  9 11  1  0  0  0
 10 11  2  0  0  0
 13  1  1  0  0  0
 13 15  1  0  0  0
  4  2  1  0  0  0
  4  5  1  0  0  0
  4  8  1  0  0  0
 31 32  1  0  0  0
  2  1  1  0  0  0
  1 28  1  0  0  0
 18 15  1  0  0  0
 15 20  1  0  0  0
  5  6  1  0  0  0
  5 11  1  0  0  0
  6  7  1  0  0  0
  7  8  1  0  0  0
 28 29  1  0  0  0
 29 30  1  0  0  0
 30 32  1  0  0  0
 20 21  1  0  0  0
 21 22  1  0  0  0
 22 23  2  0  0  0
 22 27  1  0  0  0
 23 24  1  0  0  0
 24 25  2  0  0  0
 25 26  1  0  0  0
 26 27  2  0  0  0
 16 19  1  0  0  0
 13 14  1  0  0  0
 31 33  1  0  0  0
 31 34  1  0  0  0
  9 12  1  0  0  0
M  END
> <minimizedAffinity>
-6.89517

$$$$
