4ERF_0R3_A_201


 34 36  0  0  0  0  0  0  0  0999 V2000
  -15.2334    1.1333  -16.1572 C   0  0  0  0  0  0  0  0  0  0  0  0
  -15.8527   -0.2102  -15.9045 C   0  0  0  0  0  0  0  0  0  0  0  0
  -14.8658   -1.3700  -16.0488 C   0  0  0  0  0  0  0  0  0  0  0  0
  -15.6926   -2.6292  -16.2502 C   0  0  0  0  0  0  0  0  0  0  0  0
  -13.9736   -1.2107  -17.2961 C   0  0  0  0  0  0  0  0  0  0  0  0
  -13.2416   -2.1554  -17.5733 O   0  0  0  0  0  0  0  0  0  0  0  0
  -14.0172   -0.0512  -18.0520 N   0  0  0  0  0  0  0  0  0  0  0  0
  -14.6166    1.2306  -17.5668 C   0  0  0  0  0  0  0  0  0  0  0  0
  -17.5269    2.1868  -15.9960 C   0  0  0  0  0  0  0  0  0  0  0  0
  -18.3783    3.1890  -15.5717 C   0  0  0  0  0  0  0  0  0  0  0  0
  -20.0356    2.9128  -15.7906 Cl  0  0  0  0  0  0  0  0  0  0  0  0
  -17.9087    4.3227  -14.9359 C   0  0  0  0  0  0  0  0  0  0  0  0
  -16.5224    4.4684  -14.6996 C   0  0  0  0  0  0  0  0  0  0  0  0
  -15.6438    3.4515  -15.1163 C   0  0  0  0  0  0  0  0  0  0  0  0
  -16.1422    2.2958  -15.7669 C   0  0  0  0  0  0  0  0  0  0  0  0
  -13.7648    2.4748  -17.7169 C   0  0  0  0  0  0  0  0  0  0  0  0
  -12.6284    2.7138  -16.8937 C   0  0  0  0  0  0  0  0  0  0  0  0
  -11.9080    3.9035  -17.0587 C   0  0  0  0  0  0  0  0  0  0  0  0
  -12.3045    4.8527  -18.0226 C   0  0  0  0  0  0  0  0  0  0  0  0
  -11.4307    6.3246  -18.1446 Cl  0  0  0  0  0  0  0  0  0  0  0  0
  -13.4116    4.6438  -18.8465 C   0  0  0  0  0  0  0  0  0  0  0  0
  -14.1452    3.4421  -18.6924 C   0  0  0  0  0  0  0  0  0  0  0  0
  -13.9055   -1.5413  -14.8524 C   0  0  0  0  0  0  0  0  0  0  0  0
  -14.5342   -2.3412  -13.7099 C   0  0  0  0  0  0  0  0  0  0  0  0
  -15.3890   -1.9177  -12.9758 O   0  0  0  0  0  0  0  0  0  0  0  0
  -14.0221   -3.6205  -13.5985 O   0  0  0  0  0  0  0  0  0  0  0  0
  -13.3568   -3.9120  -14.1904 H   0  0  0  0  0  0  0  0  0  0  0  0
  -13.4428   -0.0765  -19.3916 C   0  0  0  0  0  0  0  0  0  0  0  0
  -14.3426   -0.8518  -20.3745 C   0  0  0  0  0  0  0  0  0  0  0  0
  -15.2332    0.0015  -21.0826 O   0  0  0  0  0  0  0  0  0  0  0  0
  -13.5026   -1.4931  -21.4636 C   0  0  0  0  0  0  0  0  0  0  0  0
  -14.7227    0.6298  -21.6169 H   0  0  0  0  0  0  0  0  0  0  0  0
  -11.9769   -0.5758  -19.3170 C   0  0  0  0  0  0  0  0  0  0  0  0
  -10.9321    0.5600  -19.2536 C   0  0  0  0  0  0  0  0  0  0  0  0
 31 29  1  0  0  0
 29 30  1  0  0  0
 29 28  1  0  0  0
 34 33  1  0  0  0
 21 22  2  0  0  0
 21 19  1  0  0  0
 28 33  1  0  0  0
 28  7  1  0  0  0
 22 16  1  0  0  0
 20 19  1  0  0  0
 19 18  2  0  0  0
 16  8  1  0  0  0
 16 17  2  0  0  0
  7  8  1  0  0  0
  7  5  1  0  0  0
  8  1  1  0  0  0
 18 17  1  0  0  0
  6  5  2  0  0  0
  5  3  1  0  0  0
 14 13  2  0  0  0
 14 15  1  0  0  0
 13 12  1  0  0  0
  1 15  1  0  0  0
  1  2  1  0  0  0
 15  9  2  0  0  0
 12 10  2  0  0  0
  2  3  1  0  0  0
  4  3  1  0  0  0
  3 23  1  0  0  0
  9 10  1  0  0  0
 10 11  1  0  0  0
 23 24  1  0  0  0
 24 25  2  0  0  0
 24 26  1  0  0  0
 26 27  1  0  0  0
 30 32  1  0  0  0
M  END
> <minimizedAffinity>
-8.73841

$$$$
4ERF_0R3_A_201


 34 36  0  0  0  0  0  0  0  0999 V2000
  -15.3860    0.5156  -16.0305 C   0  0  0  0  0  0  0  0  0  0  0  0
  -15.9060   -0.8643  -15.7519 C   0  0  0  0  0  0  0  0  0  0  0  0
  -14.8021   -1.9168  -15.6354 C   0  0  0  0  0  0  0  0  0  0  0  0
  -15.4605   -3.2706  -15.8431 C   0  0  0  0  0  0  0  0  0  0  0  0
  -13.7394   -1.7564  -16.7411 C   0  0  0  0  0  0  0  0  0  0  0  0
  -12.8850   -2.6336  -16.8142 O   0  0  0  0  0  0  0  0  0  0  0  0
  -13.7715   -0.6699  -17.5990 N   0  0  0  0  0  0  0  0  0  0  0  0
  -14.5618    0.5718  -17.3321 C   0  0  0  0  0  0  0  0  0  0  0  0
  -16.1454    2.7750  -15.1850 C   0  0  0  0  0  0  0  0  0  0  0  0
  -17.0652    3.8042  -15.1221 C   0  0  0  0  0  0  0  0  0  0  0  0
  -16.5579    5.2220  -14.3454 Cl  0  0  0  0  0  0  0  0  0  0  0  0
  -18.3055    3.7101  -15.7246 C   0  0  0  0  0  0  0  0  0  0  0  0
  -18.6507    2.5374  -16.4348 C   0  0  0  0  0  0  0  0  0  0  0  0
  -17.7205    1.4849  -16.5168 C   0  0  0  0  0  0  0  0  0  0  0  0
  -16.4535    1.5980  -15.8932 C   0  0  0  0  0  0  0  0  0  0  0  0
  -13.8206    1.8868  -17.4651 C   0  0  0  0  0  0  0  0  0  0  0  0
  -12.7943    2.2686  -16.5555 C   0  0  0  0  0  0  0  0  0  0  0  0
  -12.1768    3.5157  -16.7125 C   0  0  0  0  0  0  0  0  0  0  0  0
  -12.5682    4.3825  -17.7530 C   0  0  0  0  0  0  0  0  0  0  0  0
  -11.8291    5.9271  -17.8671 Cl  0  0  0  0  0  0  0  0  0  0  0  0
  -13.5680    4.0335  -18.6621 C   0  0  0  0  0  0  0  0  0  0  0  0
  -14.1965    2.7726  -18.5167 C   0  0  0  0  0  0  0  0  0  0  0  0
  -14.0357   -1.8898  -14.2957 C   0  0  0  0  0  0  0  0  0  0  0  0
  -14.7847   -2.6222  -13.1807 C   0  0  0  0  0  0  0  0  0  0  0  0
  -15.7005   -2.1522  -12.5568 O   0  0  0  0  0  0  0  0  0  0  0  0
  -14.3051   -3.8989  -12.9539 O   0  0  0  0  0  0  0  0  0  0  0  0
  -13.5897   -4.2277  -13.4619 H   0  0  0  0  0  0  0  0  0  0  0  0
  -12.9885   -0.7344  -18.8269 C   0  0  0  0  0  0  0  0  0  0  0  0
  -11.6798    0.0708  -18.7022 C   0  0  0  0  0  0  0  0  0  0  0  0
  -10.8152   -0.4516  -17.7011 O   0  0  0  0  0  0  0  0  0  0  0  0
  -10.8705   -0.0379  -19.9814 C   0  0  0  0  0  0  0  0  0  0  0  0
  -10.5578   -1.3567  -17.9363 H   0  0  0  0  0  0  0  0  0  0  0  0
  -13.8823   -0.3433  -20.0320 C   0  0  0  0  0  0  0  0  0  0  0  0
  -14.9511   -1.4005  -20.3866 C   0  0  0  0  0  0  0  0  0  0  0  0
 31 29  1  0  0  0
 29 30  1  0  0  0
 29 28  1  0  0  0
 34 33  1  0  0  0
 21 22  2  0  0  0
 21 19  1  0  0  0
 28 33  1  0  0  0
 28  7  1  0  0  0
 22 16  1  0  0  0
 20 19  1  0  0  0
 19 18  2  0  0  0
 16  8  1  0  0  0
 16 17  2  0  0  0
  7  8  1  0  0  0
  7  5  1  0  0  0
  8  1  1  0  0  0
 18 17  1  0  0  0
  6  5  2  0  0  0
  5  3  1  0  0  0
 14 13  2  0  0  0
 14 15  1  0  0  0
 13 12  1  0  0  0
  1 15  1  0  0  0
  1  2  1  0  0  0
 15  9  2  0  0  0
 12 10  2  0  0  0
  2  3  1  0  0  0
  4  3  1  0  0  0
  3 23  1  0  0  0
  9 10  1  0  0  0
 10 11  1  0  0  0
 23 24  1  0  0  0
 24 25  2  0  0  0
 24 26  1  0  0  0
 26 27  1  0  0  0
 30 32  1  0  0  0
M  END
> <minimizedAffinity>
-7.93758

$$$$
4ERF_0R3_A_201


 34 36  0  0  0  0  0  0  0  0999 V2000
  -16.0608    2.0148  -19.0558 C   0  0  0  0  0  0  0  0  0  0  0  0
  -15.5984    2.9150  -17.9476 C   0  0  0  0  0  0  0  0  0  0  0  0
  -14.0975    3.2077  -17.9898 C   0  0  0  0  0  0  0  0  0  0  0  0
  -13.7038    3.6904  -16.6036 C   0  0  0  0  0  0  0  0  0  0  0  0
  -13.2742    1.9360  -18.2765 C   0  0  0  0  0  0  0  0  0  0  0  0
  -12.0545    2.0409  -18.1977 O   0  0  0  0  0  0  0  0  0  0  0  0
  -13.9033    0.7457  -18.6008 N   0  0  0  0  0  0  0  0  0  0  0  0
  -15.3299    0.6575  -19.0422 C   0  0  0  0  0  0  0  0  0  0  0  0
  -18.3575    2.0538  -17.9975 C   0  0  0  0  0  0  0  0  0  0  0  0
  -19.7365    2.0678  -18.0833 C   0  0  0  0  0  0  0  0  0  0  0  0
  -20.5790    2.3358  -16.6379 Cl  0  0  0  0  0  0  0  0  0  0  0  0
  -20.3920    1.9439  -19.2938 C   0  0  0  0  0  0  0  0  0  0  0  0
  -19.6420    1.8076  -20.4844 C   0  0  0  0  0  0  0  0  0  0  0  0
  -18.2367    1.8023  -20.4144 C   0  0  0  0  0  0  0  0  0  0  0  0
  -17.5809    1.9302  -19.1652 C   0  0  0  0  0  0  0  0  0  0  0  0
  -15.5987   -0.1320  -20.3073 C   0  0  0  0  0  0  0  0  0  0  0  0
  -15.2253    0.3537  -21.5922 C   0  0  0  0  0  0  0  0  0  0  0  0
  -15.5391   -0.4087  -22.7243 C   0  0  0  0  0  0  0  0  0  0  0  0
  -16.2185   -1.6370  -22.5944 C   0  0  0  0  0  0  0  0  0  0  0  0
  -16.6396   -2.5053  -24.0135 Cl  0  0  0  0  0  0  0  0  0  0  0  0
  -16.5933   -2.1403  -21.3477 C   0  0  0  0  0  0  0  0  0  0  0  0
  -16.2770   -1.3807  -20.1950 C   0  0  0  0  0  0  0  0  0  0  0  0
  -13.6801    4.2401  -19.0589 C   0  0  0  0  0  0  0  0  0  0  0  0
  -12.9140    5.4215  -18.4608 C   0  0  0  0  0  0  0  0  0  0  0  0
  -13.3864    6.5134  -18.2782 O   0  0  0  0  0  0  0  0  0  0  0  0
  -11.6051    5.1121  -18.1408 O   0  0  0  0  0  0  0  0  0  0  0  0
  -11.2755    4.2493  -18.2989 H   0  0  0  0  0  0  0  0  0  0  0  0
  -13.1341   -0.4895  -18.5141 C   0  0  0  0  0  0  0  0  0  0  0  0
  -12.6274   -0.9348  -19.9004 C   0  0  0  0  0  0  0  0  0  0  0  0
  -11.3840   -0.3348  -20.2415 O   0  0  0  0  0  0  0  0  0  0  0  0
  -12.3306   -2.4231  -19.8996 C   0  0  0  0  0  0  0  0  0  0  0  0
  -10.7072   -0.6078  -19.6025 H   0  0  0  0  0  0  0  0  0  0  0  0
  -13.9546   -1.5575  -17.7459 C   0  0  0  0  0  0  0  0  0  0  0  0
  -13.9593   -1.3595  -16.2140 C   0  0  0  0  0  0  0  0  0  0  0  0
 31 29  1  0  0  0
 29 30  1  0  0  0
 29 28  1  0  0  0
 34 33  1  0  0  0
 21 22  2  0  0  0
 21 19  1  0  0  0
 28 33  1  0  0  0
 28  7  1  0  0  0
 22 16  1  0  0  0
 20 19  1  0  0  0
 19 18  2  0  0  0
 16  8  1  0  0  0
 16 17  2  0  0  0
  7  8  1  0  0  0
  7  5  1  0  0  0
  8  1  1  0  0  0
 18 17  1  0  0  0
  6  5  2  0  0  0
  5  3  1  0  0  0
 14 13  2  0  0  0
 14 15  1  0  0  0
 13 12  1  0  0  0
  1 15  1  0  0  0
  1  2  1  0  0  0
 15  9  2  0  0  0
 12 10  2  0  0  0
  2  3  1  0  0  0
  4  3  1  0  0  0
  3 23  1  0  0  0
  9 10  1  0  0  0
 10 11  1  0  0  0
 23 24  1  0  0  0
 24 25  2  0  0  0
 24 26  1  0  0  0
 26 27  1  0  0  0
 30 32  1  0  0  0
M  END
> <minimizedAffinity>
-7.57160

$$$$
4ERF_0R3_A_201


 34 36  0  0  0  0  0  0  0  0999 V2000
  -14.9522    2.6761  -17.3618 C   0  0  0  0  0  0  0  0  0  0  0  0
  -13.6852    3.1490  -16.7111 C   0  0  0  0  0  0  0  0  0  0  0  0
  -12.4464    2.9644  -17.5894 C   0  0  0  0  0  0  0  0  0  0  0  0
  -11.2404    3.0150  -16.6661 C   0  0  0  0  0  0  0  0  0  0  0  0
  -12.4323    1.5842  -18.2764 C   0  0  0  0  0  0  0  0  0  0  0  0
  -11.4153    1.2880  -18.8952 O   0  0  0  0  0  0  0  0  0  0  0  0
  -13.5238    0.7371  -18.1817 N   0  0  0  0  0  0  0  0  0  0  0  0
  -14.8834    1.1851  -17.7474 C   0  0  0  0  0  0  0  0  0  0  0  0
  -17.4642    2.6606  -17.0694 C   0  0  0  0  0  0  0  0  0  0  0  0
  -18.6070    2.9498  -16.3484 C   0  0  0  0  0  0  0  0  0  0  0  0
  -20.0544    2.2918  -16.9341 Cl  0  0  0  0  0  0  0  0  0  0  0  0
  -18.5620    3.6744  -15.1724 C   0  0  0  0  0  0  0  0  0  0  0  0
  -17.3180    4.1299  -14.6789 C   0  0  0  0  0  0  0  0  0  0  0  0
  -16.1443    3.8343  -15.3963 C   0  0  0  0  0  0  0  0  0  0  0  0
  -16.2084    3.0903  -16.6002 C   0  0  0  0  0  0  0  0  0  0  0  0
  -16.0430    0.7864  -18.6377 C   0  0  0  0  0  0  0  0  0  0  0  0
  -16.9834   -0.2092  -18.2493 C   0  0  0  0  0  0  0  0  0  0  0  0
  -18.0089   -0.5582  -19.1370 C   0  0  0  0  0  0  0  0  0  0  0  0
  -18.1064    0.0637  -20.3983 C   0  0  0  0  0  0  0  0  0  0  0  0
  -19.3401   -0.4423  -21.4787 Cl  0  0  0  0  0  0  0  0  0  0  0  0
  -17.2016    1.0458  -20.8045 C   0  0  0  0  0  0  0  0  0  0  0  0
  -16.1631    1.4108  -19.9134 C   0  0  0  0  0  0  0  0  0  0  0  0
  -12.3053    4.0078  -18.7182 C   0  0  0  0  0  0  0  0  0  0  0  0
  -12.4025    5.4440  -18.2002 C   0  0  0  0  0  0  0  0  0  0  0  0
  -11.5292    6.0058  -17.5913 O   0  0  0  0  0  0  0  0  0  0  0  0
  -13.6077    6.0492  -18.5043 O   0  0  0  0  0  0  0  0  0  0  0  0
  -14.2621    5.5769  -18.9805 H   0  0  0  0  0  0  0  0  0  0  0  0
  -13.3423   -0.6669  -18.5294 C   0  0  0  0  0  0  0  0  0  0  0  0
  -13.7275   -0.9368  -19.9975 C   0  0  0  0  0  0  0  0  0  0  0  0
  -12.5984   -0.9406  -20.8623 O   0  0  0  0  0  0  0  0  0  0  0  0
  -14.3071   -2.3319  -20.1420 C   0  0  0  0  0  0  0  0  0  0  0  0
  -11.9946   -1.6539  -20.6026 H   0  0  0  0  0  0  0  0  0  0  0  0
  -14.0720   -1.5562  -17.4898 C   0  0  0  0  0  0  0  0  0  0  0  0
  -13.2385   -1.8487  -16.2227 C   0  0  0  0  0  0  0  0  0  0  0  0
 31 29  1  0  0  0
 29 30  1  0  0  0
 29 28  1  0  0  0
 34 33  1  0  0  0
 21 22  2  0  0  0
 21 19  1  0  0  0
 28 33  1  0  0  0
 28  7  1  0  0  0
 22 16  1  0  0  0
 20 19  1  0  0  0
 19 18  2  0  0  0
 16  8  1  0  0  0
 16 17  2  0  0  0
  7  8  1  0  0  0
  7  5  1  0  0  0
  8  1  1  0  0  0
 18 17  1  0  0  0
  6  5  2  0  0  0
  5  3  1  0  0  0
 14 13  2  0  0  0
 14 15  1  0  0  0
 13 12  1  0  0  0
  1 15  1  0  0  0
  1  2  1  0  0  0
 15  9  2  0  0  0
 12 10  2  0  0  0
  2  3  1  0  0  0
  4  3  1  0  0  0
  3 23  1  0  0  0
  9 10  1  0  0  0
 10 11  1  0  0  0
 23 24  1  0  0  0
 24 25  2  0  0  0
 24 26  1  0  0  0
 26 27  1  0  0  0
 30 32  1  0  0  0
M  END
> <minimizedAffinity>
-7.53462

$$$$
4ERF_0R3_A_201


 34 36  0  0  0  0  0  0  0  0999 V2000
  -14.3414   -0.3931  -19.7302 C   0  0  0  0  0  0  0  0  0  0  0  0
  -12.8596   -0.5321  -19.9234 C   0  0  0  0  0  0  0  0  0  0  0  0
  -12.0492   -0.1794  -18.6748 C   0  0  0  0  0  0  0  0  0  0  0  0
  -10.6299    0.1059  -19.1370 C   0  0  0  0  0  0  0  0  0  0  0  0
  -12.5707    1.1037  -17.9974 C   0  0  0  0  0  0  0  0  0  0  0  0
  -11.9047    1.5437  -17.0658 O   0  0  0  0  0  0  0  0  0  0  0  0
  -13.7331    1.7130  -18.4393 N   0  0  0  0  0  0  0  0  0  0  0  0
  -14.7396    1.0374  -19.3158 C   0  0  0  0  0  0  0  0  0  0  0  0
  -15.9068   -2.1519  -20.6533 C   0  0  0  0  0  0  0  0  0  0  0  0
  -16.7180   -2.6551  -21.6525 C   0  0  0  0  0  0  0  0  0  0  0  0
  -17.6702   -3.9964  -21.2464 Cl  0  0  0  0  0  0  0  0  0  0  0  0
  -16.8038   -2.0523  -22.8933 C   0  0  0  0  0  0  0  0  0  0  0  0
  -16.0529   -0.8837  -23.1564 C   0  0  0  0  0  0  0  0  0  0  0  0
  -15.2304   -0.3533  -22.1455 C   0  0  0  0  0  0  0  0  0  0  0  0
  -15.1541   -0.9839  -20.8792 C   0  0  0  0  0  0  0  0  0  0  0  0
  -16.1840    1.1038  -18.8624 C   0  0  0  0  0  0  0  0  0  0  0  0
  -17.1597    1.8666  -19.5642 C   0  0  0  0  0  0  0  0  0  0  0  0
  -18.4684    1.9167  -19.0682 C   0  0  0  0  0  0  0  0  0  0  0  0
  -18.8141    1.2258  -17.8890 C   0  0  0  0  0  0  0  0  0  0  0  0
  -20.4133    1.3690  -17.2832 Cl  0  0  0  0  0  0  0  0  0  0  0  0
  -17.8800    0.4668  -17.1824 C   0  0  0  0  0  0  0  0  0  0  0  0
  -16.5543    0.4043  -17.6769 C   0  0  0  0  0  0  0  0  0  0  0  0
  -12.0517   -1.2724  -17.5846 C   0  0  0  0  0  0  0  0  0  0  0  0
  -12.4463   -2.6441  -18.1352 C   0  0  0  0  0  0  0  0  0  0  0  0
  -13.4777   -3.2078  -17.8757 O   0  0  0  0  0  0  0  0  0  0  0  0
  -11.4918   -3.1852  -18.9764 O   0  0  0  0  0  0  0  0  0  0  0  0
  -10.7015   -2.7137  -19.1528 H   0  0  0  0  0  0  0  0  0  0  0  0
  -13.9959    3.0855  -18.0242 C   0  0  0  0  0  0  0  0  0  0  0  0
  -13.0607    4.0789  -18.7421 C   0  0  0  0  0  0  0  0  0  0  0  0
  -13.7475    4.8740  -19.7005 O   0  0  0  0  0  0  0  0  0  0  0  0
  -12.5068    5.0889  -17.7541 C   0  0  0  0  0  0  0  0  0  0  0  0
  -14.4223    5.4084  -19.2534 H   0  0  0  0  0  0  0  0  0  0  0  0
  -13.9735    3.1714  -16.4762 C   0  0  0  0  0  0  0  0  0  0  0  0
  -15.3562    3.4476  -15.8455 C   0  0  0  0  0  0  0  0  0  0  0  0
 31 29  1  0  0  0
 29 30  1  0  0  0
 29 28  1  0  0  0
 34 33  1  0  0  0
 21 22  2  0  0  0
 21 19  1  0  0  0
 28 33  1  0  0  0
 28  7  1  0  0  0
 22 16  1  0  0  0
 20 19  1  0  0  0
 19 18  2  0  0  0
 16  8  1  0  0  0
 16 17  2  0  0  0
  7  8  1  0  0  0
  7  5  1  0  0  0
  8  1  1  0  0  0
 18 17  1  0  0  0
  6  5  2  0  0  0
  5  3  1  0  0  0
 14 13  2  0  0  0
 14 15  1  0  0  0
 13 12  1  0  0  0
  1 15  1  0  0  0
  1  2  1  0  0  0
 15  9  2  0  0  0
 12 10  2  0  0  0
  2  3  1  0  0  0
  4  3  1  0  0  0
  3 23  1  0  0  0
  9 10  1  0  0  0
 10 11  1  0  0  0
 23 24  1  0  0  0
 24 25  2  0  0  0
 24 26  1  0  0  0
 26 27  1  0  0  0
 30 32  1  0  0  0
M  END
> <minimizedAffinity>
-7.50911

$$$$
4ERF_0R3_A_201


 34 36  0  0  0  0  0  0  0  0999 V2000
  -15.9146    2.1013  -18.7659 C   0  0  0  0  0  0  0  0  0  0  0  0
  -15.2631    2.9607  -17.7222 C   0  0  0  0  0  0  0  0  0  0  0  0
  -13.7477    3.0795  -17.8934 C   0  0  0  0  0  0  0  0  0  0  0  0
  -13.1878    3.5365  -16.5565 C   0  0  0  0  0  0  0  0  0  0  0  0
  -13.0993    1.7177  -18.2134 C   0  0  0  0  0  0  0  0  0  0  0  0
  -11.8732    1.6840  -18.2364 O   0  0  0  0  0  0  0  0  0  0  0  0
  -13.8830    0.6019  -18.4550 N   0  0  0  0  0  0  0  0  0  0  0  0
  -15.3423    0.6699  -18.7769 C   0  0  0  0  0  0  0  0  0  0  0  0
  -18.1365    2.1717  -19.9717 C   0  0  0  0  0  0  0  0  0  0  0  0
  -19.5183    2.1620  -19.9780 C   0  0  0  0  0  0  0  0  0  0  0  0
  -20.2642    2.0251  -21.4931 Cl  0  0  0  0  0  0  0  0  0  0  0  0
  -20.2519    2.1879  -18.8069 C   0  0  0  0  0  0  0  0  0  0  0  0
  -19.5817    2.2162  -17.5624 C   0  0  0  0  0  0  0  0  0  0  0  0
  -18.1748    2.2156  -17.5395 C   0  0  0  0  0  0  0  0  0  0  0  0
  -17.4383    2.1890  -18.7494 C   0  0  0  0  0  0  0  0  0  0  0  0
  -15.8027   -0.1042  -19.9955 C   0  0  0  0  0  0  0  0  0  0  0  0
  -16.5646   -1.3015  -19.8840 C   0  0  0  0  0  0  0  0  0  0  0  0
  -16.9239   -1.9892  -21.0500 C   0  0  0  0  0  0  0  0  0  0  0  0
  -16.5334   -1.5058  -22.3153 C   0  0  0  0  0  0  0  0  0  0  0  0
  -16.9404   -2.4162  -23.7120 Cl  0  0  0  0  0  0  0  0  0  0  0  0
  -15.7899   -0.3329  -22.4557 C   0  0  0  0  0  0  0  0  0  0  0  0
  -15.4249    0.3741  -21.2840 C   0  0  0  0  0  0  0  0  0  0  0  0
  -13.3076    4.0401  -19.0189 C   0  0  0  0  0  0  0  0  0  0  0  0
  -12.7700    5.3658  -18.4768 C   0  0  0  0  0  0  0  0  0  0  0  0
  -11.6172    5.5650  -18.1935 O   0  0  0  0  0  0  0  0  0  0  0  0
  -13.7488    6.3330  -18.3428 O   0  0  0  0  0  0  0  0  0  0  0  0
  -14.6354    6.1375  -18.5746 H   0  0  0  0  0  0  0  0  0  0  0  0
  -13.2529   -0.7115  -18.3995 C   0  0  0  0  0  0  0  0  0  0  0  0
  -12.6833   -1.0030  -16.9968 C   0  0  0  0  0  0  0  0  0  0  0  0
  -13.6412   -0.7891  -15.9676 O   0  0  0  0  0  0  0  0  0  0  0  0
  -12.3260   -2.4723  -16.8683 C   0  0  0  0  0  0  0  0  0  0  0  0
  -14.3885   -1.3952  -16.0904 H   0  0  0  0  0  0  0  0  0  0  0  0
  -12.2318   -0.8453  -19.5585 C   0  0  0  0  0  0  0  0  0  0  0  0
  -12.6282   -1.8919  -20.6231 C   0  0  0  0  0  0  0  0  0  0  0  0
 31 29  1  0  0  0
 29 30  1  0  0  0
 29 28  1  0  0  0
 34 33  1  0  0  0
 21 22  2  0  0  0
 21 19  1  0  0  0
 28 33  1  0  0  0
 28  7  1  0  0  0
 22 16  1  0  0  0
 20 19  1  0  0  0
 19 18  2  0  0  0
 16  8  1  0  0  0
 16 17  2  0  0  0
  7  8  1  0  0  0
  7  5  1  0  0  0
  8  1  1  0  0  0
 18 17  1  0  0  0
  6  5  2  0  0  0
  5  3  1  0  0  0
 14 13  2  0  0  0
 14 15  1  0  0  0
 13 12  1  0  0  0
  1 15  1  0  0  0
  1  2  1  0  0  0
 15  9  2  0  0  0
 12 10  2  0  0  0
  2  3  1  0  0  0
  4  3  1  0  0  0
  3 23  1  0  0  0
  9 10  1  0  0  0
 10 11  1  0  0  0
 23 24  1  0  0  0
 24 25  2  0  0  0
 24 26  1  0  0  0
 26 27  1  0  0  0
 30 32  1  0  0  0
M  END
> <minimizedAffinity>
-7.18161

$$$$
4ERF_0R3_A_201


 34 36  0  0  0  0  0  0  0  0999 V2000
  -15.7115    1.1352  -19.1874 C   0  0  0  0  0  0  0  0  0  0  0  0
  -15.5543    2.3384  -18.3043 C   0  0  0  0  0  0  0  0  0  0  0  0
  -14.1478    2.4831  -17.7205 C   0  0  0  0  0  0  0  0  0  0  0  0
  -14.2630    3.4043  -16.5173 C   0  0  0  0  0  0  0  0  0  0  0  0
  -13.5995    1.1363  -17.2080 C   0  0  0  0  0  0  0  0  0  0  0  0
  -12.5341    1.1713  -16.6007 O   0  0  0  0  0  0  0  0  0  0  0  0
  -14.2952   -0.0401  -17.4309 N   0  0  0  0  0  0  0  0  0  0  0  0
  -15.3887   -0.1755  -18.4427 C   0  0  0  0  0  0  0  0  0  0  0  0
  -18.1527    1.7583  -19.4071 C   0  0  0  0  0  0  0  0  0  0  0  0
  -19.3265    1.8423  -20.1314 C   0  0  0  0  0  0  0  0  0  0  0  0
  -20.5910    2.7162  -19.4185 Cl  0  0  0  0  0  0  0  0  0  0  0  0
  -19.4390    1.3062  -21.4003 C   0  0  0  0  0  0  0  0  0  0  0  0
  -18.3273    0.6596  -21.9874 C   0  0  0  0  0  0  0  0  0  0  0  0
  -17.1219    0.5754  -21.2665 C   0  0  0  0  0  0  0  0  0  0  0  0
  -17.0238    1.1303  -19.9667 C   0  0  0  0  0  0  0  0  0  0  0  0
  -15.2847   -1.3473  -19.3979 C   0  0  0  0  0  0  0  0  0  0  0  0
  -16.1677   -2.4613  -19.3227 C   0  0  0  0  0  0  0  0  0  0  0  0
  -15.9912   -3.5293  -20.2113 C   0  0  0  0  0  0  0  0  0  0  0  0
  -14.9519   -3.5042  -21.1633 C   0  0  0  0  0  0  0  0  0  0  0  0
  -14.7334   -4.8635  -22.1878 Cl  0  0  0  0  0  0  0  0  0  0  0  0
  -14.0737   -2.4239  -21.2632 C   0  0  0  0  0  0  0  0  0  0  0  0
  -14.2453   -1.3355  -20.3733 C   0  0  0  0  0  0  0  0  0  0  0  0
  -13.0983    3.0240  -18.7150 C   0  0  0  0  0  0  0  0  0  0  0  0
  -13.1513    4.5472  -18.8475 C   0  0  0  0  0  0  0  0  0  0  0  0
  -12.4468    5.3061  -18.2339 O   0  0  0  0  0  0  0  0  0  0  0  0
  -14.0992    4.9791  -19.7565 O   0  0  0  0  0  0  0  0  0  0  0  0
  -14.6280    4.3554  -20.2140 H   0  0  0  0  0  0  0  0  0  0  0  0
  -13.9406   -1.2138  -16.6423 C   0  0  0  0  0  0  0  0  0  0  0  0
  -14.1808   -0.9743  -15.1385 C   0  0  0  0  0  0  0  0  0  0  0  0
  -15.5044   -0.5322  -14.8646 O   0  0  0  0  0  0  0  0  0  0  0  0
  -14.0619   -2.2786  -14.3718 C   0  0  0  0  0  0  0  0  0  0  0  0
  -16.1365   -1.2157  -15.1369 H   0  0  0  0  0  0  0  0  0  0  0  0
  -12.5044   -1.6691  -17.0088 C   0  0  0  0  0  0  0  0  0  0  0  0
  -12.4413   -3.0595  -17.6785 C   0  0  0  0  0  0  0  0  0  0  0  0
 31 29  1  0  0  0
 29 30  1  0  0  0
 29 28  1  0  0  0
 34 33  1  0  0  0
 21 22  2  0  0  0
 21 19  1  0  0  0
 28 33  1  0  0  0
 28  7  1  0  0  0
 22 16  1  0  0  0
 20 19  1  0  0  0
 19 18  2  0  0  0
 16  8  1  0  0  0
 16 17  2  0  0  0
  7  8  1  0  0  0
  7  5  1  0  0  0
  8  1  1  0  0  0
 18 17  1  0  0  0
  6  5  2  0  0  0
  5  3  1  0  0  0
 14 13  2  0  0  0
 14 15  1  0  0  0
 13 12  1  0  0  0
  1 15  1  0  0  0
  1  2  1  0  0  0
 15  9  2  0  0  0
 12 10  2  0  0  0
  2  3  1  0  0  0
  4  3  1  0  0  0
  3 23  1  0  0  0
  9 10  1  0  0  0
 10 11  1  0  0  0
 23 24  1  0  0  0
 24 25  2  0  0  0
 24 26  1  0  0  0
 26 27  1  0  0  0
 30 32  1  0  0  0
M  END
> <minimizedAffinity>
-6.97457

$$$$
4ERF_0R3_A_201


 34 36  0  0  0  0  0  0  0  0999 V2000
  -16.6000    1.2339  -18.7053 C   0  0  0  0  0  0  0  0  0  0  0  0
  -17.6515    1.9096  -19.5361 C   0  0  0  0  0  0  0  0  0  0  0  0
  -18.6793    0.9392  -20.1206 C   0  0  0  0  0  0  0  0  0  0  0  0
  -19.3495    1.6543  -21.2821 C   0  0  0  0  0  0  0  0  0  0  0  0
  -18.0105   -0.3262  -20.6940 C   0  0  0  0  0  0  0  0  0  0  0  0
  -18.7367   -1.1036  -21.3049 O   0  0  0  0  0  0  0  0  0  0  0  0
  -16.6551   -0.5496  -20.5187 N   0  0  0  0  0  0  0  0  0  0  0  0
  -15.8216    0.1725  -19.5079 C   0  0  0  0  0  0  0  0  0  0  0  0
  -14.7515    2.9569  -18.6028 C   0  0  0  0  0  0  0  0  0  0  0  0
  -14.0156    3.9132  -17.9295 C   0  0  0  0  0  0  0  0  0  0  0  0
  -12.9398    4.8314  -18.8625 Cl  0  0  0  0  0  0  0  0  0  0  0  0
  -14.2001    4.1584  -16.5819 C   0  0  0  0  0  0  0  0  0  0  0  0
  -15.1713    3.4236  -15.8640 C   0  0  0  0  0  0  0  0  0  0  0  0
  -15.9361    2.4538  -16.5381 C   0  0  0  0  0  0  0  0  0  0  0  0
  -15.7339    2.2151  -17.9198 C   0  0  0  0  0  0  0  0  0  0  0  0
  -14.9592   -0.6861  -18.6050 C   0  0  0  0  0  0  0  0  0  0  0  0
  -15.5146   -1.4659  -17.5515 C   0  0  0  0  0  0  0  0  0  0  0  0
  -14.6562   -2.2062  -16.7289 C   0  0  0  0  0  0  0  0  0  0  0  0
  -13.2624   -2.1765  -16.9379 C   0  0  0  0  0  0  0  0  0  0  0  0
  -12.2449   -3.0475  -15.8649 Cl  0  0  0  0  0  0  0  0  0  0  0  0
  -12.6899   -1.4248  -17.9650 C   0  0  0  0  0  0  0  0  0  0  0  0
  -13.5482   -0.6759  -18.8067 C   0  0  0  0  0  0  0  0  0  0  0  0
  -19.7361    0.4459  -19.1092 C   0  0  0  0  0  0  0  0  0  0  0  0
  -20.8658    1.4574  -18.9064 C   0  0  0  0  0  0  0  0  0  0  0  0
  -20.7738    2.4506  -18.2326 O   0  0  0  0  0  0  0  0  0  0  0  0
  -22.0229    1.1201  -19.5836 O   0  0  0  0  0  0  0  0  0  0  0  0
  -22.0535    0.3374  -20.0979 H   0  0  0  0  0  0  0  0  0  0  0  0
  -16.0037   -1.5466  -21.3593 C   0  0  0  0  0  0  0  0  0  0  0  0
  -16.0960   -1.1708  -22.8516 C   0  0  0  0  0  0  0  0  0  0  0  0
  -14.9030   -0.5644  -23.3327 O   0  0  0  0  0  0  0  0  0  0  0  0
  -16.2433   -2.4196  -23.7012 C   0  0  0  0  0  0  0  0  0  0  0  0
  -14.1671   -1.1914  -23.2539 H   0  0  0  0  0  0  0  0  0  0  0  0
  -16.5469   -2.9555  -21.0070 C   0  0  0  0  0  0  0  0  0  0  0  0
  -15.4956   -3.8885  -20.3665 C   0  0  0  0  0  0  0  0  0  0  0  0
 31 29  1  0  0  0
 29 30  1  0  0  0
 29 28  1  0  0  0
 34 33  1  0  0  0
 21 22  2  0  0  0
 21 19  1  0  0  0
 28 33  1  0  0  0
 28  7  1  0  0  0
 22 16  1  0  0  0
 20 19  1  0  0  0
 19 18  2  0  0  0
 16  8  1  0  0  0
 16 17  2  0  0  0
  7  8  1  0  0  0
  7  5  1  0  0  0
  8  1  1  0  0  0
 18 17  1  0  0  0
  6  5  2  0  0  0
  5  3  1  0  0  0
 14 13  2  0  0  0
 14 15  1  0  0  0
 13 12  1  0  0  0
  1 15  1  0  0  0
  1  2  1  0  0  0
 15  9  2  0  0  0
 12 10  2  0  0  0
  2  3  1  0  0  0
  4  3  1  0  0  0
  3 23  1  0  0  0
  9 10  1  0  0  0
 10 11  1  0  0  0
 23 24  1  0  0  0
 24 25  2  0  0  0
 24 26  1  0  0  0
 26 27  1  0  0  0
 30 32  1  0  0  0
M  END
> <minimizedAffinity>
-6.94119

$$$$
4ERF_0R3_A_201


 34 36  0  0  0  0  0  0  0  0999 V2000
  -13.5553    0.7594  -17.5054 C   0  0  0  0  0  0  0  0  0  0  0  0
  -12.5638   -0.3011  -17.8857 C   0  0  0  0  0  0  0  0  0  0  0  0
  -13.2029   -1.6689  -18.1320 C   0  0  0  0  0  0  0  0  0  0  0  0
  -12.0923   -2.7003  -18.0211 C   0  0  0  0  0  0  0  0  0  0  0  0
  -14.2498   -2.0140  -17.0540 C   0  0  0  0  0  0  0  0  0  0  0  0
  -14.7214   -3.1461  -17.0876 O   0  0  0  0  0  0  0  0  0  0  0  0
  -14.6199   -1.0774  -16.1036 N   0  0  0  0  0  0  0  0  0  0  0  0
  -14.3422    0.3868  -16.2331 C   0  0  0  0  0  0  0  0  0  0  0  0
  -13.5246    3.1418  -18.3536 C   0  0  0  0  0  0  0  0  0  0  0  0
  -13.0603    4.4426  -18.3111 C   0  0  0  0  0  0  0  0  0  0  0  0
  -13.8783    5.5670  -19.2792 Cl  0  0  0  0  0  0  0  0  0  0  0  0
  -12.0320    4.8214  -17.4688 C   0  0  0  0  0  0  0  0  0  0  0  0
  -11.4371    3.8630  -16.6166 C   0  0  0  0  0  0  0  0  0  0  0  0
  -11.9062    2.5368  -16.6407 C   0  0  0  0  0  0  0  0  0  0  0  0
  -12.9612    2.1655  -17.5104 C   0  0  0  0  0  0  0  0  0  0  0  0
  -15.5154    1.3198  -16.0111 C   0  0  0  0  0  0  0  0  0  0  0  0
  -15.3895    2.5237  -15.2620 C   0  0  0  0  0  0  0  0  0  0  0  0
  -16.5234    3.3208  -15.0614 C   0  0  0  0  0  0  0  0  0  0  0  0
  -17.7722    2.9349  -15.5894 C   0  0  0  0  0  0  0  0  0  0  0  0
  -19.1468    3.9093  -15.2630 Cl  0  0  0  0  0  0  0  0  0  0  0  0
  -17.9251    1.7625  -16.3311 C   0  0  0  0  0  0  0  0  0  0  0  0
  -16.7845    0.9507  -16.5451 C   0  0  0  0  0  0  0  0  0  0  0  0
  -13.9255   -1.7986  -19.4900 C   0  0  0  0  0  0  0  0  0  0  0  0
  -13.5950   -3.1110  -20.2032 C   0  0  0  0  0  0  0  0  0  0  0  0
  -12.7068   -3.2421  -21.0049 O   0  0  0  0  0  0  0  0  0  0  0  0
  -14.4249   -4.1528  -19.8327 O   0  0  0  0  0  0  0  0  0  0  0  0
  -15.1053   -4.0091  -19.2046 H   0  0  0  0  0  0  0  0  0  0  0  0
  -15.3240   -1.5397  -14.9138 C   0  0  0  0  0  0  0  0  0  0  0  0
  -14.3540   -2.1740  -13.8973 C   0  0  0  0  0  0  0  0  0  0  0  0
  -14.4982   -1.6234  -12.5940 O   0  0  0  0  0  0  0  0  0  0  0  0
  -14.6728   -3.6462  -13.7128 C   0  0  0  0  0  0  0  0  0  0  0  0
  -15.3933   -1.8011  -12.2651 H   0  0  0  0  0  0  0  0  0  0  0  0
  -16.5114   -2.4440  -15.3337 C   0  0  0  0  0  0  0  0  0  0  0  0
  -17.8712   -2.0012  -14.7501 C   0  0  0  0  0  0  0  0  0  0  0  0
 31 29  1  0  0  0
 29 30  1  0  0  0
 29 28  1  0  0  0
 34 33  1  0  0  0
 21 22  2  0  0  0
 21 19  1  0  0  0
 28 33  1  0  0  0
 28  7  1  0  0  0
 22 16  1  0  0  0
 20 19  1  0  0  0
 19 18  2  0  0  0
 16  8  1  0  0  0
 16 17  2  0  0  0
  7  8  1  0  0  0
  7  5  1  0  0  0
  8  1  1  0  0  0
 18 17  1  0  0  0
  6  5  2  0  0  0
  5  3  1  0  0  0
 14 13  2  0  0  0
 14 15  1  0  0  0
 13 12  1  0  0  0
  1 15  1  0  0  0
  1  2  1  0  0  0
 15  9  2  0  0  0
 12 10  2  0  0  0
  2  3  1  0  0  0
  4  3  1  0  0  0
  3 23  1  0  0  0
  9 10  1  0  0  0
 10 11  1  0  0  0
 23 24  1  0  0  0
 24 25  2  0  0  0
 24 26  1  0  0  0
 26 27  1  0  0  0
 30 32  1  0  0  0
M  END
> <minimizedAffinity>
-6.82370

$$$$
4ERF_0R3_A_201


 34 36  0  0  0  0  0  0  0  0999 V2000
  -13.7117   -1.3534  -16.9556 C   0  0  0  0  0  0  0  0  0  0  0  0
  -13.6092   -1.7542  -15.5130 C   0  0  0  0  0  0  0  0  0  0  0  0
  -14.5446   -2.9039  -15.1347 C   0  0  0  0  0  0  0  0  0  0  0  0
  -14.6939   -2.8709  -13.6226 C   0  0  0  0  0  0  0  0  0  0  0  0
  -15.9534   -2.7159  -15.7323 C   0  0  0  0  0  0  0  0  0  0  0  0
  -16.8132   -3.5154  -15.3763 O   0  0  0  0  0  0  0  0  0  0  0  0
  -16.2117   -1.6860  -16.6213 N   0  0  0  0  0  0  0  0  0  0  0  0
  -15.1422   -0.9230  -17.3367 C   0  0  0  0  0  0  0  0  0  0  0  0
  -12.6542    0.9439  -16.9490 C   0  0  0  0  0  0  0  0  0  0  0  0
  -11.6221    1.8091  -17.2582 C   0  0  0  0  0  0  0  0  0  0  0  0
  -11.7125    3.3614  -16.5850 Cl  0  0  0  0  0  0  0  0  0  0  0  0
  -10.5373    1.4075  -18.0146 C   0  0  0  0  0  0  0  0  0  0  0  0
  -10.4661    0.0755  -18.4830 C   0  0  0  0  0  0  0  0  0  0  0  0
  -11.5042   -0.8202  -18.1674 C   0  0  0  0  0  0  0  0  0  0  0  0
  -12.6091   -0.3919  -17.3909 C   0  0  0  0  0  0  0  0  0  0  0  0
  -15.3001   -0.7830  -18.8372 C   0  0  0  0  0  0  0  0  0  0  0  0
  -15.1640   -1.8944  -19.7162 C   0  0  0  0  0  0  0  0  0  0  0  0
  -15.2830   -1.6877  -21.0962 C   0  0  0  0  0  0  0  0  0  0  0  0
  -15.5296   -0.3976  -21.6082 C   0  0  0  0  0  0  0  0  0  0  0  0
  -15.6029   -0.1811  -23.3091 Cl  0  0  0  0  0  0  0  0  0  0  0  0
  -15.6718    0.7098  -20.7707 C   0  0  0  0  0  0  0  0  0  0  0  0
  -15.5585    0.5125  -19.3728 C   0  0  0  0  0  0  0  0  0  0  0  0
  -14.0631   -4.2953  -15.5987 C   0  0  0  0  0  0  0  0  0  0  0  0
  -12.5379   -4.3901  -15.6713 C   0  0  0  0  0  0  0  0  0  0  0  0
  -11.8137   -4.4179  -14.7102 O   0  0  0  0  0  0  0  0  0  0  0  0
  -12.0597   -4.4446  -16.9673 O   0  0  0  0  0  0  0  0  0  0  0  0
  -12.6573   -4.4203  -17.6886 H   0  0  0  0  0  0  0  0  0  0  0  0
  -17.6008   -1.3278  -16.8807 C   0  0  0  0  0  0  0  0  0  0  0  0
  -18.1590   -2.0880  -18.1002 C   0  0  0  0  0  0  0  0  0  0  0  0
  -18.9943   -3.1761  -17.7248 O   0  0  0  0  0  0  0  0  0  0  0  0
  -19.0711   -1.1858  -18.9109 C   0  0  0  0  0  0  0  0  0  0  0  0
  -19.7625   -2.8406  -17.2368 H   0  0  0  0  0  0  0  0  0  0  0  0
  -17.7316    0.2151  -16.9584 C   0  0  0  0  0  0  0  0  0  0  0  0
  -18.6386    0.8214  -15.8649 C   0  0  0  0  0  0  0  0  0  0  0  0
 31 29  1  0  0  0
 29 30  1  0  0  0
 29 28  1  0  0  0
 34 33  1  0  0  0
 21 22  2  0  0  0
 21 19  1  0  0  0
 28 33  1  0  0  0
 28  7  1  0  0  0
 22 16  1  0  0  0
 20 19  1  0  0  0
 19 18  2  0  0  0
 16  8  1  0  0  0
 16 17  2  0  0  0
  7  8  1  0  0  0
  7  5  1  0  0  0
  8  1  1  0  0  0
 18 17  1  0  0  0
  6  5  2  0  0  0
  5  3  1  0  0  0
 14 13  2  0  0  0
 14 15  1  0  0  0
 13 12  1  0  0  0
  1 15  1  0  0  0
  1  2  1  0  0  0
 15  9  2  0  0  0
 12 10  2  0  0  0
  2  3  1  0  0  0
  4  3  1  0  0  0
  3 23  1  0  0  0
  9 10  1  0  0  0
 10 11  1  0  0  0
 23 24  1  0  0  0
 24 25  2  0  0  0
 24 26  1  0  0  0
 26 27  1  0  0  0
 30 32  1  0  0  0
M  END
> <minimizedAffinity>
-6.54281

$$$$
