4DKQ_0LK_A_613


 33 35  0  0  0  0  0  0  0  0999 V2000
   -4.4499  -15.6791    7.3848 C   0  0  0  0  0  0  0  0  0  0  0  0
   -3.9540  -16.2562    8.5941 C   0  0  0  0  0  0  0  0  0  0  0  0
   -3.1091  -15.5422    9.3798 C   0  0  0  0  0  0  0  0  0  0  0  0
   -2.7462  -14.2639    8.9804 C   0  0  0  0  0  0  0  0  0  0  0  0
   -3.2314  -13.6873    7.7964 C   0  0  0  0  0  0  0  0  0  0  0  0
   -4.0857  -14.4158    7.0087 C   0  0  0  0  0  0  0  0  0  0  0  0
   -2.4714  -15.9260   10.6428 C   0  0  0  0  0  0  0  0  0  0  0  0
   -1.3653  -14.7436   10.8317 C   0  0  0  0  0  0  0  0  0  0  0  0
   -1.8145  -13.6437    9.9651 C   0  0  0  0  0  0  0  0  0  0  0  0
   -3.4360  -15.9742   11.8459 N   0  0  0  0  0  0  0  0  0  0  0  0
   -3.1351  -16.3683   13.0768 C   0  0  0  0  0  0  0  0  0  0  0  0
   -2.1338  -17.0757   13.3074 O   0  0  0  0  0  0  0  0  0  0  0  0
   -4.3633  -15.6850   11.6850 H   0  0  0  0  0  0  0  0  0  0  0  0
   -4.0352  -15.9394   14.1947 C   0  0  0  0  0  0  0  0  0  0  0  0
   -3.5836  -15.9844   15.4309 N   0  0  0  0  0  0  0  0  0  0  0  0
   -5.2545  -15.5413   13.8550 O   0  0  0  0  0  0  0  0  0  0  0  0
   -2.6671  -16.3260   15.5429 H   0  0  0  0  0  0  0  0  0  0  0  0
   -4.2295  -15.6156   16.5785 C   0  0  0  0  0  0  0  0  0  0  0  0
   -5.5514  -14.7756   18.9992 C   0  0  0  0  0  0  0  0  0  0  0  0
   -6.2930  -15.2395   17.9291 C   0  0  0  0  0  0  0  0  0  0  0  0
   -5.6625  -15.6583   16.7132 C   0  0  0  0  0  0  0  0  0  0  0  0
   -3.5062  -15.1356   17.6501 C   0  0  0  0  0  0  0  0  0  0  0  0
   -4.1834  -14.7099   18.8902 C   0  0  0  0  0  0  0  0  0  0  0  0
   -6.3727  -14.2711   20.4564 Cl  0  0  0  0  0  0  0  0  0  0  0  0
   -7.6018  -15.3067   18.0264 F   0  0  0  0  0  0  0  0  0  0  0  0
    0.0219  -15.2234   10.3826 N   0  0  0  0  0  0  0  0  0  0  0  0
    0.3577  -14.8822    9.5223 H   0  0  0  0  0  0  0  0  0  0  0  0
    0.7659  -16.0119   11.0148 C   0  0  0  0  0  0  0  0  0  0  0  0
    0.7435  -17.3858   10.8277 N   0  0  0  0  0  0  0  0  0  0  0  0
    1.6589  -15.5080   11.9697 N   0  0  0  0  0  0  0  0  0  0  0  0
    1.3473  -17.9634   11.3483 H   0  0  0  0  0  0  0  0  0  0  0  0
    0.1237  -17.7836   10.1743 H   0  0  0  0  0  0  0  0  0  0  0  0
    1.7078  -14.5387   12.1348 H   0  0  0  0  0  0  0  0  0  0  0  0
  6  1  2  0  0  0
  6  5  1  0  0  0
  1  2  1  0  0  0
  5  4  2  0  0  0
  2  3  2  0  0  0
  4  3  1  0  0  0
  4  9  1  0  0  0
  3  7  1  0  0  0
 30 28  2  0  0  0
  9  8  1  0  0  0
 26 28  1  0  0  0
 26  8  1  0  0  0
 28 29  1  0  0  0
  7  8  1  0  0  0
  7 10  1  0  0  0
 10 11  1  0  0  0
 11 12  2  0  0  0
 11 14  1  0  0  0
 16 14  2  0  0  0
 14 15  1  0  0  0
 15 18  1  0  0  0
 18 21  2  0  0  0
 18 22  1  0  0  0
 21 20  1  0  0  0
 22 23  2  0  0  0
 20 25  1  0  0  0
 20 19  2  0  0  0
 23 19  1  0  0  0
 19 24  1  0  0  0
 26 27  1  0  0  0
 10 13  1  0  0  0
 15 17  1  0  0  0
 29 31  1  0  0  0
 29 32  1  0  0  0
 30 33  1  0  0  0
M  END
> <minimizedAffinity>
-10.05399

$$$$
4DKQ_0LK_A_613


 33 35  0  0  0  0  0  0  0  0999 V2000
   -2.1357  -19.2496    8.9513 C   0  0  0  0  0  0  0  0  0  0  0  0
   -1.9919  -18.2570    9.9690 C   0  0  0  0  0  0  0  0  0  0  0  0
   -2.4208  -16.9912    9.7355 C   0  0  0  0  0  0  0  0  0  0  0  0
   -2.9876  -16.6950    8.5040 C   0  0  0  0  0  0  0  0  0  0  0  0
   -3.1368  -17.6642    7.5001 C   0  0  0  0  0  0  0  0  0  0  0  0
   -2.7013  -18.9415    7.7450 C   0  0  0  0  0  0  0  0  0  0  0  0
   -2.3679  -15.8183   10.6132 C   0  0  0  0  0  0  0  0  0  0  0  0
   -2.7382  -14.6116    9.5817 C   0  0  0  0  0  0  0  0  0  0  0  0
   -3.3910  -15.2615    8.4354 C   0  0  0  0  0  0  0  0  0  0  0  0
   -3.3680  -15.8649   11.7871 N   0  0  0  0  0  0  0  0  0  0  0  0
   -3.1272  -16.3359   13.0041 C   0  0  0  0  0  0  0  0  0  0  0  0
   -2.1776  -17.1142   13.2249 O   0  0  0  0  0  0  0  0  0  0  0  0
   -4.2710  -15.5115   11.6170 H   0  0  0  0  0  0  0  0  0  0  0  0
   -4.0315  -15.9067   14.1185 C   0  0  0  0  0  0  0  0  0  0  0  0
   -3.6057  -16.0064   15.3606 N   0  0  0  0  0  0  0  0  0  0  0  0
   -5.2282  -15.4519   13.7693 O   0  0  0  0  0  0  0  0  0  0  0  0
   -2.7051  -16.3862   15.4783 H   0  0  0  0  0  0  0  0  0  0  0  0
   -4.2590  -15.6478   16.5072 C   0  0  0  0  0  0  0  0  0  0  0  0
   -5.5926  -14.8324   18.9299 C   0  0  0  0  0  0  0  0  0  0  0  0
   -6.3317  -15.2001   17.8213 C   0  0  0  0  0  0  0  0  0  0  0  0
   -5.6951  -15.6044   16.6037 C   0  0  0  0  0  0  0  0  0  0  0  0
   -3.5373  -15.2630   17.6175 C   0  0  0  0  0  0  0  0  0  0  0  0
   -4.2208  -14.8498   18.8584 C   0  0  0  0  0  0  0  0  0  0  0  0
   -6.4211  -14.3410   20.3875 Cl  0  0  0  0  0  0  0  0  0  0  0  0
   -7.6444  -15.1874   17.8825 F   0  0  0  0  0  0  0  0  0  0  0  0
   -1.4665  -13.8907    9.1132 N   0  0  0  0  0  0  0  0  0  0  0  0
   -0.6237  -14.3980    9.1506 H   0  0  0  0  0  0  0  0  0  0  0  0
   -1.4061  -12.7120    8.6867 C   0  0  0  0  0  0  0  0  0  0  0  0
   -1.1785  -12.4011    7.3545 N   0  0  0  0  0  0  0  0  0  0  0  0
   -1.5575  -11.6425    9.5791 N   0  0  0  0  0  0  0  0  0  0  0  0
   -1.1397  -11.4599    7.0683 H   0  0  0  0  0  0  0  0  0  0  0  0
   -1.0557  -13.1216    6.6949 H   0  0  0  0  0  0  0  0  0  0  0  0
   -1.7207  -11.8175   10.5341 H   0  0  0  0  0  0  0  0  0  0  0  0
  6  1  2  0  0  0
  6  5  1  0  0  0
  1  2  1  0  0  0
  5  4  2  0  0  0
  2  3  2  0  0  0
  4  3  1  0  0  0
  4  9  1  0  0  0
  3  7  1  0  0  0
 30 28  2  0  0  0
  9  8  1  0  0  0
 26 28  1  0  0  0
 26  8  1  0  0  0
 28 29  1  0  0  0
  7  8  1  0  0  0
  7 10  1  0  0  0
 10 11  1  0  0  0
 11 12  2  0  0  0
 11 14  1  0  0  0
 16 14  2  0  0  0
 14 15  1  0  0  0
 15 18  1  0  0  0
 18 21  2  0  0  0
 18 22  1  0  0  0
 21 20  1  0  0  0
 22 23  2  0  0  0
 20 25  1  0  0  0
 20 19  2  0  0  0
 23 19  1  0  0  0
 19 24  1  0  0  0
 26 27  1  0  0  0
 10 13  1  0  0  0
 15 17  1  0  0  0
 29 31  1  0  0  0
 29 32  1  0  0  0
 30 33  1  0  0  0
M  END
> <minimizedAffinity>
-9.46492

$$$$
4DKQ_0LK_A_613


 33 35  0  0  0  0  0  0  0  0999 V2000
   -1.8099  -18.5471    8.2720 C   0  0  0  0  0  0  0  0  0  0  0  0
   -1.5890  -18.1225    9.6183 C   0  0  0  0  0  0  0  0  0  0  0  0
   -1.1840  -16.8507    9.8617 C   0  0  0  0  0  0  0  0  0  0  0  0
   -0.9914  -15.9943    8.7870 C   0  0  0  0  0  0  0  0  0  0  0  0
   -1.2099  -16.4012    7.4617 C   0  0  0  0  0  0  0  0  0  0  0  0
   -1.6201  -17.6883    7.2249 C   0  0  0  0  0  0  0  0  0  0  0  0
   -0.8870  -16.2019   11.1423 C   0  0  0  0  0  0  0  0  0  0  0  0
   -0.1577  -14.8265   10.6592 C   0  0  0  0  0  0  0  0  0  0  0  0
   -0.5455  -14.6499    9.2518 C   0  0  0  0  0  0  0  0  0  0  0  0
   -2.1347  -15.8926   11.9955 N   0  0  0  0  0  0  0  0  0  0  0  0
   -2.6804  -16.6907   12.9046 C   0  0  0  0  0  0  0  0  0  0  0  0
   -2.4533  -17.9173   12.9145 O   0  0  0  0  0  0  0  0  0  0  0  0
   -2.5671  -15.0199   11.8520 H   0  0  0  0  0  0  0  0  0  0  0  0
   -3.5850  -16.0780   13.9293 C   0  0  0  0  0  0  0  0  0  0  0  0
   -3.3019  -16.2343   15.2058 N   0  0  0  0  0  0  0  0  0  0  0  0
   -4.6360  -15.4110   13.4696 O   0  0  0  0  0  0  0  0  0  0  0  0
   -2.5048  -16.7758   15.4074 H   0  0  0  0  0  0  0  0  0  0  0  0
   -3.9776  -15.7380   16.2862 C   0  0  0  0  0  0  0  0  0  0  0  0
   -5.4395  -14.7553   18.5688 C   0  0  0  0  0  0  0  0  0  0  0  0
   -4.0642  -14.6264   18.5179 C   0  0  0  0  0  0  0  0  0  0  0  0
   -3.3129  -15.1102   17.3987 C   0  0  0  0  0  0  0  0  0  0  0  0
   -5.3481  -15.8722   16.3605 C   0  0  0  0  0  0  0  0  0  0  0  0
   -6.0959  -15.3652   17.5273 C   0  0  0  0  0  0  0  0  0  0  0  0
   -6.3055  -14.1534   19.9617 Cl  0  0  0  0  0  0  0  0  0  0  0  0
   -3.4295  -14.0429   19.5097 F   0  0  0  0  0  0  0  0  0  0  0  0
    1.3682  -14.9576   10.7634 N   0  0  0  0  0  0  0  0  0  0  0  0
    1.9092  -14.3725   10.1853 H   0  0  0  0  0  0  0  0  0  0  0  0
    1.9871  -15.7444   11.5201 C   0  0  0  0  0  0  0  0  0  0  0  0
    2.3703  -17.0200   11.1337 N   0  0  0  0  0  0  0  0  0  0  0  0
    2.3050  -15.3459   12.8253 N   0  0  0  0  0  0  0  0  0  0  0  0
    2.8547  -17.6007   11.7641 H   0  0  0  0  0  0  0  0  0  0  0  0
    2.1579  -17.3449   10.2289 H   0  0  0  0  0  0  0  0  0  0  0  0
    2.0518  -14.4486   13.1414 H   0  0  0  0  0  0  0  0  0  0  0  0
  6  1  2  0  0  0
  6  5  1  0  0  0
  1  2  1  0  0  0
  5  4  2  0  0  0
  2  3  2  0  0  0
  4  3  1  0  0  0
  4  9  1  0  0  0
  3  7  1  0  0  0
 30 28  2  0  0  0
  9  8  1  0  0  0
 26 28  1  0  0  0
 26  8  1  0  0  0
 28 29  1  0  0  0
  7  8  1  0  0  0
  7 10  1  0  0  0
 10 11  1  0  0  0
 11 12  2  0  0  0
 11 14  1  0  0  0
 16 14  2  0  0  0
 14 15  1  0  0  0
 15 18  1  0  0  0
 18 21  2  0  0  0
 18 22  1  0  0  0
 21 20  1  0  0  0
 22 23  2  0  0  0
 20 25  1  0  0  0
 20 19  2  0  0  0
 23 19  1  0  0  0
 19 24  1  0  0  0
 26 27  1  0  0  0
 10 13  1  0  0  0
 15 17  1  0  0  0
 29 31  1  0  0  0
 29 32  1  0  0  0
 30 33  1  0  0  0
M  END
> <minimizedAffinity>
-8.67661

$$$$
4DKQ_0LK_A_613


 33 35  0  0  0  0  0  0  0  0999 V2000
    0.7385  -15.2148   11.0048 C   0  0  0  0  0  0  0  0  0  0  0  0
   -0.6680  -15.0000   10.8736 C   0  0  0  0  0  0  0  0  0  0  0  0
   -1.4594  -16.0040   10.4195 C   0  0  0  0  0  0  0  0  0  0  0  0
   -0.8742  -17.2182   10.0898 C   0  0  0  0  0  0  0  0  0  0  0  0
    0.5056  -17.4397   10.2193 C   0  0  0  0  0  0  0  0  0  0  0  0
    1.2981  -16.4195   10.6800 C   0  0  0  0  0  0  0  0  0  0  0  0
   -2.9080  -16.0124   10.1946 C   0  0  0  0  0  0  0  0  0  0  0  0
   -3.1076  -17.3929    9.3511 C   0  0  0  0  0  0  0  0  0  0  0  0
   -1.8984  -18.1890    9.6093 C   0  0  0  0  0  0  0  0  0  0  0  0
   -3.7461  -16.0330   11.4898 N   0  0  0  0  0  0  0  0  0  0  0  0
   -3.3013  -16.3192   12.7069 C   0  0  0  0  0  0  0  0  0  0  0  0
   -2.2369  -16.9462   12.8804 O   0  0  0  0  0  0  0  0  0  0  0  0
   -4.7019  -15.8130   11.4052 H   0  0  0  0  0  0  0  0  0  0  0  0
   -4.1157  -15.8670   13.8800 C   0  0  0  0  0  0  0  0  0  0  0  0
   -3.6386  -16.0438   15.0945 N   0  0  0  0  0  0  0  0  0  0  0  0
   -5.2906  -15.3132   13.6082 O   0  0  0  0  0  0  0  0  0  0  0  0
   -2.7643  -16.4926   15.1531 H   0  0  0  0  0  0  0  0  0  0  0  0
   -4.2067  -15.6816   16.2846 C   0  0  0  0  0  0  0  0  0  0  0  0
   -5.3625  -14.8567   18.7939 C   0  0  0  0  0  0  0  0  0  0  0  0
   -6.1775  -15.2760   17.7593 C   0  0  0  0  0  0  0  0  0  0  0  0
   -5.6303  -15.6862   16.5009 C   0  0  0  0  0  0  0  0  0  0  0  0
   -3.4094  -15.2458   17.3221 C   0  0  0  0  0  0  0  0  0  0  0  0
   -4.0017  -14.8278   18.6074 C   0  0  0  0  0  0  0  0  0  0  0  0
   -6.0840  -14.3607   20.3058 Cl  0  0  0  0  0  0  0  0  0  0  0  0
   -7.4801  -15.3078   17.9306 F   0  0  0  0  0  0  0  0  0  0  0  0
   -3.2223  -17.0977    7.8491 N   0  0  0  0  0  0  0  0  0  0  0  0
   -2.4118  -16.7760    7.3920 H   0  0  0  0  0  0  0  0  0  0  0  0
   -4.2575  -17.2302    7.1522 C   0  0  0  0  0  0  0  0  0  0  0  0
   -4.3155  -16.8813    5.8112 N   0  0  0  0  0  0  0  0  0  0  0  0
   -5.4262  -17.7377    7.7351 N   0  0  0  0  0  0  0  0  0  0  0  0
   -5.1518  -17.0042    5.3064 H   0  0  0  0  0  0  0  0  0  0  0  0
   -3.5205  -16.5108    5.3641 H   0  0  0  0  0  0  0  0  0  0  0  0
   -5.4298  -17.9980    8.6845 H   0  0  0  0  0  0  0  0  0  0  0  0
  6  1  2  0  0  0
  6  5  1  0  0  0
  1  2  1  0  0  0
  5  4  2  0  0  0
  2  3  2  0  0  0
  4  3  1  0  0  0
  4  9  1  0  0  0
  3  7  1  0  0  0
 30 28  2  0  0  0
  9  8  1  0  0  0
 26 28  1  0  0  0
 26  8  1  0  0  0
 28 29  1  0  0  0
  7  8  1  0  0  0
  7 10  1  0  0  0
 10 11  1  0  0  0
 11 12  2  0  0  0
 11 14  1  0  0  0
 16 14  2  0  0  0
 14 15  1  0  0  0
 15 18  1  0  0  0
 18 21  2  0  0  0
 18 22  1  0  0  0
 21 20  1  0  0  0
 22 23  2  0  0  0
 20 25  1  0  0  0
 20 19  2  0  0  0
 23 19  1  0  0  0
 19 24  1  0  0  0
 26 27  1  0  0  0
 10 13  1  0  0  0
 15 17  1  0  0  0
 29 31  1  0  0  0
 29 32  1  0  0  0
 30 33  1  0  0  0
M  END
> <minimizedAffinity>
-8.31663

$$$$
4DKQ_0LK_A_613


 33 35  0  0  0  0  0  0  0  0999 V2000
   -4.2945  -19.9013    7.2718 C   0  0  0  0  0  0  0  0  0  0  0  0
   -3.5761  -18.8967    7.9902 C   0  0  0  0  0  0  0  0  0  0  0  0
   -3.9879  -17.6055    7.9285 C   0  0  0  0  0  0  0  0  0  0  0  0
   -5.1014  -17.2960    7.1605 C   0  0  0  0  0  0  0  0  0  0  0  0
   -5.8157  -18.2766    6.4549 C   0  0  0  0  0  0  0  0  0  0  0  0
   -5.3929  -19.5795    6.5236 C   0  0  0  0  0  0  0  0  0  0  0  0
   -3.4099  -16.4172    8.5634 C   0  0  0  0  0  0  0  0  0  0  0  0
   -4.1975  -15.2125    7.7981 C   0  0  0  0  0  0  0  0  0  0  0  0
   -5.3946  -15.8353    7.2136 C   0  0  0  0  0  0  0  0  0  0  0  0
   -3.6391  -16.3433   10.0873 N   0  0  0  0  0  0  0  0  0  0  0  0
   -2.8625  -16.8738   11.0236 C   0  0  0  0  0  0  0  0  0  0  0  0
   -2.0571  -17.7892   10.7598 O   0  0  0  0  0  0  0  0  0  0  0  0
   -4.4376  -15.8562   10.3944 H   0  0  0  0  0  0  0  0  0  0  0  0
   -2.9767  -16.3422   12.4194 C   0  0  0  0  0  0  0  0  0  0  0  0
   -4.1621  -16.3001   12.9914 N   0  0  0  0  0  0  0  0  0  0  0  0
   -1.8515  -15.9354   12.9930 O   0  0  0  0  0  0  0  0  0  0  0  0
   -4.9175  -16.6095   12.4412 H   0  0  0  0  0  0  0  0  0  0  0  0
   -4.4741  -15.8799   14.2549 C   0  0  0  0  0  0  0  0  0  0  0  0
   -5.1960  -15.0311   16.9141 C   0  0  0  0  0  0  0  0  0  0  0  0
   -3.9399  -15.5535   16.6697 C   0  0  0  0  0  0  0  0  0  0  0  0
   -3.5569  -15.9875   15.3597 C   0  0  0  0  0  0  0  0  0  0  0  0
   -5.7281  -15.3708   14.5196 C   0  0  0  0  0  0  0  0  0  0  0  0
   -6.0952  -14.9327   15.8801 C   0  0  0  0  0  0  0  0  0  0  0  0
   -5.6127  -14.5234   18.5330 Cl  0  0  0  0  0  0  0  0  0  0  0  0
   -3.0737  -15.6494   17.6535 F   0  0  0  0  0  0  0  0  0  0  0  0
   -3.3257  -14.6187    6.6829 N   0  0  0  0  0  0  0  0  0  0  0  0
   -2.6122  -15.1909    6.3185 H   0  0  0  0  0  0  0  0  0  0  0  0
   -3.4419  -13.4686    6.1945 C   0  0  0  0  0  0  0  0  0  0  0  0
   -2.9667  -13.1303    4.9363 N   0  0  0  0  0  0  0  0  0  0  0  0
   -4.0632  -12.4577    6.9397 N   0  0  0  0  0  0  0  0  0  0  0  0
   -3.0821  -12.2134    4.5967 H   0  0  0  0  0  0  0  0  0  0  0  0
   -2.5140  -13.8069    4.3827 H   0  0  0  0  0  0  0  0  0  0  0  0
   -4.4152  -12.6539    7.8380 H   0  0  0  0  0  0  0  0  0  0  0  0
  6  1  2  0  0  0
  6  5  1  0  0  0
  1  2  1  0  0  0
  5  4  2  0  0  0
  2  3  2  0  0  0
  4  3  1  0  0  0
  4  9  1  0  0  0
  3  7  1  0  0  0
 30 28  2  0  0  0
  9  8  1  0  0  0
 26 28  1  0  0  0
 26  8  1  0  0  0
 28 29  1  0  0  0
  7  8  1  0  0  0
  7 10  1  0  0  0
 10 11  1  0  0  0
 11 12  2  0  0  0
 11 14  1  0  0  0
 16 14  2  0  0  0
 14 15  1  0  0  0
 15 18  1  0  0  0
 18 21  2  0  0  0
 18 22  1  0  0  0
 21 20  1  0  0  0
 22 23  2  0  0  0
 20 25  1  0  0  0
 20 19  2  0  0  0
 23 19  1  0  0  0
 19 24  1  0  0  0
 26 27  1  0  0  0
 10 13  1  0  0  0
 15 17  1  0  0  0
 29 31  1  0  0  0
 29 32  1  0  0  0
 30 33  1  0  0  0
M  END
> <minimizedAffinity>
-7.38762

$$$$
4DKQ_0LK_A_613


 33 35  0  0  0  0  0  0  0  0999 V2000
   -7.3529  -15.1381   17.2392 C   0  0  0  0  0  0  0  0  0  0  0  0
   -6.1353  -14.8471   16.5505 C   0  0  0  0  0  0  0  0  0  0  0  0
   -4.9473  -15.0765   17.1644 C   0  0  0  0  0  0  0  0  0  0  0  0
   -4.9502  -15.5876   18.4544 C   0  0  0  0  0  0  0  0  0  0  0  0
   -6.1410  -15.8804   19.1370 C   0  0  0  0  0  0  0  0  0  0  0  0
   -7.3374  -15.6463   18.5086 C   0  0  0  0  0  0  0  0  0  0  0  0
   -3.5877  -14.8474   16.6664 C   0  0  0  0  0  0  0  0  0  0  0  0
   -2.7004  -15.0255   18.0223 C   0  0  0  0  0  0  0  0  0  0  0  0
   -3.5588  -15.7667   18.9585 C   0  0  0  0  0  0  0  0  0  0  0  0
   -3.1385  -15.8464   15.5799 N   0  0  0  0  0  0  0  0  0  0  0  0
   -3.5546  -15.8740   14.3200 C   0  0  0  0  0  0  0  0  0  0  0  0
   -4.6161  -15.3184   13.9726 O   0  0  0  0  0  0  0  0  0  0  0  0
   -2.4805  -16.5283   15.8466 H   0  0  0  0  0  0  0  0  0  0  0  0
   -2.7110  -16.5955   13.3142 C   0  0  0  0  0  0  0  0  0  0  0  0
   -1.7605  -15.9345   12.6866 N   0  0  0  0  0  0  0  0  0  0  0  0
   -2.9904  -17.8774   13.1161 O   0  0  0  0  0  0  0  0  0  0  0  0
   -1.6793  -14.9794   12.9110 H   0  0  0  0  0  0  0  0  0  0  0  0
   -0.8723  -16.4100   11.7619 C   0  0  0  0  0  0  0  0  0  0  0  0
    0.9750  -17.3627    9.7637 C   0  0  0  0  0  0  0  0  0  0  0  0
    1.4179  -17.0912   11.0446 C   0  0  0  0  0  0  0  0  0  0  0  0
    0.5229  -16.6122   12.0550 C   0  0  0  0  0  0  0  0  0  0  0  0
   -1.2939  -16.6711   10.4750 C   0  0  0  0  0  0  0  0  0  0  0  0
   -0.3485  -17.1626    9.4541 C   0  0  0  0  0  0  0  0  0  0  0  0
    2.1115  -17.9385    8.5682 Cl  0  0  0  0  0  0  0  0  0  0  0  0
    2.6822  -17.2815   11.3486 F   0  0  0  0  0  0  0  0  0  0  0  0
   -2.3436  -13.6571   18.6193 N   0  0  0  0  0  0  0  0  0  0  0  0
   -3.0670  -12.9922   18.6811 H   0  0  0  0  0  0  0  0  0  0  0  0
   -1.2114  -13.3108   19.0355 C   0  0  0  0  0  0  0  0  0  0  0  0
   -0.3210  -14.1942   19.6272 N   0  0  0  0  0  0  0  0  0  0  0  0
   -0.8098  -11.9732   18.9225 N   0  0  0  0  0  0  0  0  0  0  0  0
    0.5566  -13.8741   19.9381 H   0  0  0  0  0  0  0  0  0  0  0  0
   -0.5665  -15.1413   19.7365 H   0  0  0  0  0  0  0  0  0  0  0  0
   -1.4108  -11.3121   18.5089 H   0  0  0  0  0  0  0  0  0  0  0  0
  6  1  2  0  0  0
  6  5  1  0  0  0
  1  2  1  0  0  0
  5  4  2  0  0  0
  2  3  2  0  0  0
  4  3  1  0  0  0
  4  9  1  0  0  0
  3  7  1  0  0  0
 30 28  2  0  0  0
  9  8  1  0  0  0
 26 28  1  0  0  0
 26  8  1  0  0  0
 28 29  1  0  0  0
  7  8  1  0  0  0
  7 10  1  0  0  0
 10 11  1  0  0  0
 11 12  2  0  0  0
 11 14  1  0  0  0
 16 14  2  0  0  0
 14 15  1  0  0  0
 15 18  1  0  0  0
 18 21  2  0  0  0
 18 22  1  0  0  0
 21 20  1  0  0  0
 22 23  2  0  0  0
 20 25  1  0  0  0
 20 19  2  0  0  0
 23 19  1  0  0  0
 19 24  1  0  0  0
 26 27  1  0  0  0
 10 13  1  0  0  0
 15 17  1  0  0  0
 29 31  1  0  0  0
 29 32  1  0  0  0
 30 33  1  0  0  0
M  END
> <minimizedAffinity>
-7.25740

$$$$
