4KOW_CFX_A_204


 32 34  0  0  0  0  0  0  0  0999 V2000
  -12.8562    3.6917   -9.5750 C   0  0  0  0  0  0  0  0  0  0  0  0
  -11.7406    4.1484   -9.3579 O   0  0  0  0  0  0  0  0  0  0  0  0
  -14.0843    4.1511   -9.3241 N   0  0  0  0  0  0  0  0  0  0  0  0
  -14.7648    3.0408  -10.0258 C   0  0  0  0  0  0  0  0  0  0  0  0
  -16.0722    2.4121   -8.9680 S   0  0  0  0  0  0  0  0  0  0  0  0
  -16.8818    4.0259   -8.8860 C   0  0  0  0  0  0  0  0  0  0  0  0
  -15.9849    5.2092   -8.4712 C   0  0  0  0  0  0  0  0  0  0  0  0
  -14.6882    5.2363   -8.6356 C   0  0  0  0  0  0  0  0  0  0  0  0
  -13.4003    2.3543  -10.0861 C   0  0  0  0  0  0  0  0  0  0  0  0
  -13.7477    6.2065   -8.0364 C   0  0  0  0  0  0  0  0  0  0  0  0
  -13.7080    7.3382   -8.5282 O   0  0  0  0  0  0  0  0  0  0  0  0
  -13.0401    5.8586   -7.0602 O   0  0  0  0  0  0  0  0  0  0  0  0
  -13.1052    4.9875   -6.7213 H   0  0  0  0  0  0  0  0  0  0  0  0
  -13.0373    1.2962   -9.1990 N   0  0  0  0  0  0  0  0  0  0  0  0
  -13.4013    0.0332   -9.3431 C   0  0  0  0  0  0  0  0  0  0  0  0
  -14.2380   -0.2886  -10.1586 O   0  0  0  0  0  0  0  0  0  0  0  0
  -12.4749    1.5235   -8.4236 H   0  0  0  0  0  0  0  0  0  0  0  0
  -12.7522   -0.9733   -8.4529 C   0  0  0  0  0  0  0  0  0  0  0  0
  -13.5386   -1.2984   -7.2432 C   0  0  0  0  0  0  0  0  0  0  0  0
  -12.8730   -2.2077   -5.9463 S   0  0  0  0  0  0  0  0  0  0  0  0
  -14.2892   -2.1848   -5.0484 C   0  0  0  0  0  0  0  0  0  0  0  0
  -15.2243   -1.5527   -5.6736 C   0  0  0  0  0  0  0  0  0  0  0  0
  -14.8206   -1.0281   -6.9272 C   0  0  0  0  0  0  0  0  0  0  0  0
  -13.0953    2.0319  -11.4381 O   0  0  0  0  0  0  0  0  0  0  0  0
  -11.7525    1.6782  -11.6751 C   0  0  0  0  0  0  0  0  0  0  0  0
  -16.6875    6.3463   -7.7650 C   0  0  0  0  0  0  0  0  0  0  0  0
  -17.4764    7.1324   -8.7724 O   0  0  0  0  0  0  0  0  0  0  0  0
  -18.1708    8.2518   -8.3902 C   0  0  0  0  0  0  0  0  0  0  0  0
  -17.8161    9.2320   -7.6898 O   0  0  0  0  0  0  0  0  0  0  0  0
  -19.3735    8.1345   -8.9602 N   0  0  0  0  0  0  0  0  0  0  0  0
  -19.5878    7.3383   -9.4981 H   0  0  0  0  0  0  0  0  0  0  0  0
  -20.0455    8.8443   -8.8422 H   0  0  0  0  0  0  0  0  0  0  0  0
  1  2  2  0  0  0
  1  3  1  0  0  0
  1  9  1  0  0  0
  3  4  1  0  0  0
  3  8  1  0  0  0
  4  5  1  0  0  0
  4  9  1  0  0  0
  5  6  1  0  0  0
  6  7  1  0  0  0
  7  8  2  0  0  0
  7 26  1  0  0  0
  8 10  1  0  0  0
 26 27  1  0  0  0
 10 11  2  0  0  0
 10 12  1  0  0  0
  9 24  1  0  0  0
  9 14  1  0  0  0
 24 25  1  0  0  0
 14 15  1  0  0  0
 15 16  2  0  0  0
 15 18  1  0  0  0
 18 19  1  0  0  0
 19 20  1  0  0  0
 19 23  2  0  0  0
 20 21  1  0  0  0
 21 22  2  0  0  0
 22 23  1  0  0  0
 27 28  1  0  0  0
 28 29  2  0  0  0
 28 30  1  0  0  0
 12 13  1  0  0  0
 14 17  1  0  0  0
 30 31  1  0  0  0
 30 32  1  0  0  0
M  END
> <minimizedAffinity>
-8.71627

$$$$
4KOW_CFX_A_204


 32 34  0  0  0  0  0  0  0  0999 V2000
  -13.0699    3.8090   -9.3885 C   0  0  0  0  0  0  0  0  0  0  0  0
  -11.9478    4.2251   -9.1276 O   0  0  0  0  0  0  0  0  0  0  0  0
  -14.2857    4.3422   -9.2487 N   0  0  0  0  0  0  0  0  0  0  0  0
  -14.9777    3.2217   -9.9225 C   0  0  0  0  0  0  0  0  0  0  0  0
  -16.3799    2.7278   -8.9157 S   0  0  0  0  0  0  0  0  0  0  0  0
  -17.1079    4.3804   -8.9892 C   0  0  0  0  0  0  0  0  0  0  0  0
  -16.1784    5.5442   -8.5915 C   0  0  0  0  0  0  0  0  0  0  0  0
  -14.8743    5.4984   -8.6714 C   0  0  0  0  0  0  0  0  0  0  0  0
  -13.6497    2.4683   -9.8492 C   0  0  0  0  0  0  0  0  0  0  0  0
  -13.9241    6.4599   -8.0737 C   0  0  0  0  0  0  0  0  0  0  0  0
  -13.7532    7.5314   -8.6628 O   0  0  0  0  0  0  0  0  0  0  0  0
  -13.3397    6.1663   -7.0027 O   0  0  0  0  0  0  0  0  0  0  0  0
  -13.5018    5.3398   -6.5920 H   0  0  0  0  0  0  0  0  0  0  0  0
  -13.3986    1.4550   -8.8751 N   0  0  0  0  0  0  0  0  0  0  0  0
  -13.7896    0.1962   -8.9787 C   0  0  0  0  0  0  0  0  0  0  0  0
  -14.5633   -0.1504   -9.8447 O   0  0  0  0  0  0  0  0  0  0  0  0
  -12.8977    1.7124   -8.0676 H   0  0  0  0  0  0  0  0  0  0  0  0
  -13.2523   -0.7732   -7.9795 C   0  0  0  0  0  0  0  0  0  0  0  0
  -11.8048   -0.6215   -7.7163 C   0  0  0  0  0  0  0  0  0  0  0  0
  -10.6202   -1.0736   -8.8756 S   0  0  0  0  0  0  0  0  0  0  0  0
   -9.3280   -0.6642   -7.8883 C   0  0  0  0  0  0  0  0  0  0  0  0
   -9.7379   -0.2285   -6.7450 C   0  0  0  0  0  0  0  0  0  0  0  0
  -11.1496   -0.1854   -6.6223 C   0  0  0  0  0  0  0  0  0  0  0  0
  -13.2776    2.0428  -11.1550 O   0  0  0  0  0  0  0  0  0  0  0  0
  -11.9328    1.6452  -11.2886 C   0  0  0  0  0  0  0  0  0  0  0  0
  -16.8638    6.7579   -8.0063 C   0  0  0  0  0  0  0  0  0  0  0  0
  -17.5850    7.4867   -9.1035 O   0  0  0  0  0  0  0  0  0  0  0  0
  -18.8139    8.0502   -8.8719 C   0  0  0  0  0  0  0  0  0  0  0  0
  -19.3286    9.1008   -9.3288 O   0  0  0  0  0  0  0  0  0  0  0  0
  -19.4371    7.2117   -8.0391 N   0  0  0  0  0  0  0  0  0  0  0  0
  -18.9755    6.4037   -7.7175 H   0  0  0  0  0  0  0  0  0  0  0  0
  -20.3578    7.4017   -7.7469 H   0  0  0  0  0  0  0  0  0  0  0  0
  1  2  2  0  0  0
  1  3  1  0  0  0
  1  9  1  0  0  0
  3  4  1  0  0  0
  3  8  1  0  0  0
  4  5  1  0  0  0
  4  9  1  0  0  0
  5  6  1  0  0  0
  6  7  1  0  0  0
  7  8  2  0  0  0
  7 26  1  0  0  0
  8 10  1  0  0  0
 26 27  1  0  0  0
 10 11  2  0  0  0
 10 12  1  0  0  0
  9 24  1  0  0  0
  9 14  1  0  0  0
 24 25  1  0  0  0
 14 15  1  0  0  0
 15 16  2  0  0  0
 15 18  1  0  0  0
 18 19  1  0  0  0
 19 20  1  0  0  0
 19 23  2  0  0  0
 20 21  1  0  0  0
 21 22  2  0  0  0
 22 23  1  0  0  0
 27 28  1  0  0  0
 28 29  2  0  0  0
 28 30  1  0  0  0
 12 13  1  0  0  0
 14 17  1  0  0  0
 30 31  1  0  0  0
 30 32  1  0  0  0
M  END
> <minimizedAffinity>
-7.99554

$$$$
4KOW_CFX_A_204


 32 34  0  0  0  0  0  0  0  0999 V2000
  -14.9913    1.8803   -9.3550 C   0  0  0  0  0  0  0  0  0  0  0  0
  -16.0094    1.2969   -9.7063 O   0  0  0  0  0  0  0  0  0  0  0  0
  -14.7493    3.1479   -9.0131 N   0  0  0  0  0  0  0  0  0  0  0  0
  -13.3420    2.8950   -8.6336 C   0  0  0  0  0  0  0  0  0  0  0  0
  -12.3102    4.1516   -9.3951 S   0  0  0  0  0  0  0  0  0  0  0  0
  -13.2120    5.4895   -8.5807 C   0  0  0  0  0  0  0  0  0  0  0  0
  -14.7442    5.4694   -8.7495 C   0  0  0  0  0  0  0  0  0  0  0  0
  -15.4385    4.3893   -8.9956 C   0  0  0  0  0  0  0  0  0  0  0  0
  -13.5060    1.5157   -9.2721 C   0  0  0  0  0  0  0  0  0  0  0  0
  -16.8527    4.3331   -9.4215 C   0  0  0  0  0  0  0  0  0  0  0  0
  -17.0904    4.4733  -10.6248 O   0  0  0  0  0  0  0  0  0  0  0  0
  -17.7486    4.1393   -8.5644 O   0  0  0  0  0  0  0  0  0  0  0  0
  -17.5193    4.0386   -7.6615 H   0  0  0  0  0  0  0  0  0  0  0  0
  -12.9945    1.2083  -10.5691 N   0  0  0  0  0  0  0  0  0  0  0  0
  -13.2549    0.0981  -11.2385 C   0  0  0  0  0  0  0  0  0  0  0  0
  -13.8139   -0.8371  -10.7078 O   0  0  0  0  0  0  0  0  0  0  0  0
  -12.4051    1.8711  -10.9962 H   0  0  0  0  0  0  0  0  0  0  0  0
  -12.8201    0.0394  -12.6648 C   0  0  0  0  0  0  0  0  0  0  0  0
  -13.8538    0.4836  -13.6248 C   0  0  0  0  0  0  0  0  0  0  0  0
  -14.0815   -0.2976  -15.1380 S   0  0  0  0  0  0  0  0  0  0  0  0
  -15.3103    0.7369  -15.6199 C   0  0  0  0  0  0  0  0  0  0  0  0
  -15.5404    1.6337  -14.7213 C   0  0  0  0  0  0  0  0  0  0  0  0
  -14.7280    1.5077  -13.5664 C   0  0  0  0  0  0  0  0  0  0  0  0
  -13.1610    0.5139   -8.3223 O   0  0  0  0  0  0  0  0  0  0  0  0
  -11.7793    0.3670   -8.0905 C   0  0  0  0  0  0  0  0  0  0  0  0
  -15.4257    6.8178   -8.6966 C   0  0  0  0  0  0  0  0  0  0  0  0
  -16.5906    6.7382   -7.7521 O   0  0  0  0  0  0  0  0  0  0  0  0
  -17.5808    7.6867   -7.7894 C   0  0  0  0  0  0  0  0  0  0  0  0
  -17.5354    8.9223   -7.5693 O   0  0  0  0  0  0  0  0  0  0  0  0
  -18.6845    7.0323   -8.1620 N   0  0  0  0  0  0  0  0  0  0  0  0
  -18.6515    6.0609   -8.3188 H   0  0  0  0  0  0  0  0  0  0  0  0
  -19.5307    7.5215   -8.2798 H   0  0  0  0  0  0  0  0  0  0  0  0
  1  2  2  0  0  0
  1  3  1  0  0  0
  1  9  1  0  0  0
  3  4  1  0  0  0
  3  8  1  0  0  0
  4  5  1  0  0  0
  4  9  1  0  0  0
  5  6  1  0  0  0
  6  7  1  0  0  0
  7  8  2  0  0  0
  7 26  1  0  0  0
  8 10  1  0  0  0
 26 27  1  0  0  0
 10 11  2  0  0  0
 10 12  1  0  0  0
  9 24  1  0  0  0
  9 14  1  0  0  0
 24 25  1  0  0  0
 14 15  1  0  0  0
 15 16  2  0  0  0
 15 18  1  0  0  0
 18 19  1  0  0  0
 19 20  1  0  0  0
 19 23  2  0  0  0
 20 21  1  0  0  0
 21 22  2  0  0  0
 22 23  1  0  0  0
 27 28  1  0  0  0
 28 29  2  0  0  0
 28 30  1  0  0  0
 12 13  1  0  0  0
 14 17  1  0  0  0
 30 31  1  0  0  0
 30 32  1  0  0  0
M  END
> <minimizedAffinity>
-7.19636

$$$$
4KOW_CFX_A_204


 32 34  0  0  0  0  0  0  0  0999 V2000
  -11.7581    1.9117   -9.4793 C   0  0  0  0  0  0  0  0  0  0  0  0
  -10.6696    2.3839   -9.1752 O   0  0  0  0  0  0  0  0  0  0  0  0
  -12.9919    2.4214   -9.4910 N   0  0  0  0  0  0  0  0  0  0  0  0
  -13.6040    1.2192  -10.0982 C   0  0  0  0  0  0  0  0  0  0  0  0
  -15.0728    0.7896   -9.1592 S   0  0  0  0  0  0  0  0  0  0  0  0
  -15.8260    2.4049   -9.4594 C   0  0  0  0  0  0  0  0  0  0  0  0
  -14.9558    3.6290   -9.1118 C   0  0  0  0  0  0  0  0  0  0  0  0
  -13.6488    3.6126   -9.0837 C   0  0  0  0  0  0  0  0  0  0  0  0
  -12.2712    0.5153   -9.8437 C   0  0  0  0  0  0  0  0  0  0  0  0
  -12.7700    4.6563   -8.5155 C   0  0  0  0  0  0  0  0  0  0  0  0
  -12.6447    5.7046   -9.1554 O   0  0  0  0  0  0  0  0  0  0  0  0
  -12.1978    4.4514   -7.4176 O   0  0  0  0  0  0  0  0  0  0  0  0
  -12.3236    3.6389   -6.9682 H   0  0  0  0  0  0  0  0  0  0  0  0
  -12.0793   -0.3868   -8.7538 N   0  0  0  0  0  0  0  0  0  0  0  0
  -12.3896   -1.6720   -8.7753 C   0  0  0  0  0  0  0  0  0  0  0  0
  -13.0410   -2.1443   -9.6815 O   0  0  0  0  0  0  0  0  0  0  0  0
  -11.6873   -0.0257   -7.9261 H   0  0  0  0  0  0  0  0  0  0  0  0
  -11.9188   -2.5102   -7.6340 C   0  0  0  0  0  0  0  0  0  0  0  0
  -12.6394   -2.2566   -6.3675 C   0  0  0  0  0  0  0  0  0  0  0  0
  -11.8107   -2.0765   -4.8733 S   0  0  0  0  0  0  0  0  0  0  0  0
  -13.2173   -1.8732   -3.9832 C   0  0  0  0  0  0  0  0  0  0  0  0
  -14.2598   -1.9499   -4.7396 C   0  0  0  0  0  0  0  0  0  0  0  0
  -13.9585   -2.1603   -6.1088 C   0  0  0  0  0  0  0  0  0  0  0  0
  -11.7859   -0.0290  -11.0655 O   0  0  0  0  0  0  0  0  0  0  0  0
  -10.4111   -0.3364  -11.0733 C   0  0  0  0  0  0  0  0  0  0  0  0
  -15.7110    4.8755   -8.7102 C   0  0  0  0  0  0  0  0  0  0  0  0
  -16.5304    5.3461   -9.8774 O   0  0  0  0  0  0  0  0  0  0  0  0
  -17.2143    6.5333   -9.8120 C   0  0  0  0  0  0  0  0  0  0  0  0
  -17.4182    7.3047   -8.8421 O   0  0  0  0  0  0  0  0  0  0  0  0
  -17.6330    6.7703  -11.0584 N   0  0  0  0  0  0  0  0  0  0  0  0
  -17.4392    6.1228  -11.7743 H   0  0  0  0  0  0  0  0  0  0  0  0
  -18.1352    7.5924  -11.2611 H   0  0  0  0  0  0  0  0  0  0  0  0
  1  2  2  0  0  0
  1  3  1  0  0  0
  1  9  1  0  0  0
  3  4  1  0  0  0
  3  8  1  0  0  0
  4  5  1  0  0  0
  4  9  1  0  0  0
  5  6  1  0  0  0
  6  7  1  0  0  0
  7  8  2  0  0  0
  7 26  1  0  0  0
  8 10  1  0  0  0
 26 27  1  0  0  0
 10 11  2  0  0  0
 10 12  1  0  0  0
  9 24  1  0  0  0
  9 14  1  0  0  0
 24 25  1  0  0  0
 14 15  1  0  0  0
 15 16  2  0  0  0
 15 18  1  0  0  0
 18 19  1  0  0  0
 19 20  1  0  0  0
 19 23  2  0  0  0
 20 21  1  0  0  0
 21 22  2  0  0  0
 22 23  1  0  0  0
 27 28  1  0  0  0
 28 29  2  0  0  0
 28 30  1  0  0  0
 12 13  1  0  0  0
 14 17  1  0  0  0
 30 31  1  0  0  0
 30 32  1  0  0  0
M  END
> <minimizedAffinity>
-6.94882

$$$$
4KOW_CFX_A_204


 32 34  0  0  0  0  0  0  0  0999 V2000
  -14.6833    1.6209   -9.2520 C   0  0  0  0  0  0  0  0  0  0  0  0
  -15.6440    0.9376   -9.5845 O   0  0  0  0  0  0  0  0  0  0  0  0
  -14.5455    2.9257   -9.0054 N   0  0  0  0  0  0  0  0  0  0  0  0
  -13.1374    2.8088   -8.5674 C   0  0  0  0  0  0  0  0  0  0  0  0
  -12.1738    4.0765   -9.3970 S   0  0  0  0  0  0  0  0  0  0  0  0
  -13.1973    5.4021   -8.7174 C   0  0  0  0  0  0  0  0  0  0  0  0
  -14.7174    5.2545   -8.9274 C   0  0  0  0  0  0  0  0  0  0  0  0
  -15.3229    4.1097   -9.1063 C   0  0  0  0  0  0  0  0  0  0  0  0
  -13.1792    1.3760   -9.0984 C   0  0  0  0  0  0  0  0  0  0  0  0
  -16.7141    3.9151   -9.5661 C   0  0  0  0  0  0  0  0  0  0  0  0
  -16.8931    3.7271  -10.7731 O   0  0  0  0  0  0  0  0  0  0  0  0
  -17.6497    3.9376   -8.7302 O   0  0  0  0  0  0  0  0  0  0  0  0
  -17.4644    4.0840   -7.8234 H   0  0  0  0  0  0  0  0  0  0  0  0
  -12.6030    1.0083  -10.3520 N   0  0  0  0  0  0  0  0  0  0  0  0
  -11.3311    0.6962  -10.5346 C   0  0  0  0  0  0  0  0  0  0  0  0
  -10.5094    0.8804   -9.6630 O   0  0  0  0  0  0  0  0  0  0  0  0
  -13.1959    0.9856  -11.1376 H   0  0  0  0  0  0  0  0  0  0  0  0
  -10.9488    0.1238  -11.8585 C   0  0  0  0  0  0  0  0  0  0  0  0
  -10.1997    1.0617  -12.7226 C   0  0  0  0  0  0  0  0  0  0  0  0
   -9.0299    0.5136  -13.8553 S   0  0  0  0  0  0  0  0  0  0  0  0
   -8.6333    2.0593  -14.3711 C   0  0  0  0  0  0  0  0  0  0  0  0
   -9.3136    2.9501  -13.7320 C   0  0  0  0  0  0  0  0  0  0  0  0
  -10.2229    2.4076  -12.7894 C   0  0  0  0  0  0  0  0  0  0  0  0
  -12.7952    0.4791   -8.0626 O   0  0  0  0  0  0  0  0  0  0  0  0
  -13.2509   -0.8440   -8.2246 C   0  0  0  0  0  0  0  0  0  0  0  0
  -15.4961    6.5481   -9.0012 C   0  0  0  0  0  0  0  0  0  0  0  0
  -16.4553    6.6060   -7.8472 O   0  0  0  0  0  0  0  0  0  0  0  0
  -17.4574    7.5423   -7.8234 C   0  0  0  0  0  0  0  0  0  0  0  0
  -17.4174    8.7736   -7.5789 O   0  0  0  0  0  0  0  0  0  0  0  0
  -18.5677    6.8820   -8.1641 N   0  0  0  0  0  0  0  0  0  0  0  0
  -18.5299    5.9146   -8.3429 H   0  0  0  0  0  0  0  0  0  0  0  0
  -19.4238    7.3628   -8.2365 H   0  0  0  0  0  0  0  0  0  0  0  0
  1  2  2  0  0  0
  1  3  1  0  0  0
  1  9  1  0  0  0
  3  4  1  0  0  0
  3  8  1  0  0  0
  4  5  1  0  0  0
  4  9  1  0  0  0
  5  6  1  0  0  0
  6  7  1  0  0  0
  7  8  2  0  0  0
  7 26  1  0  0  0
  8 10  1  0  0  0
 26 27  1  0  0  0
 10 11  2  0  0  0
 10 12  1  0  0  0
  9 24  1  0  0  0
  9 14  1  0  0  0
 24 25  1  0  0  0
 14 15  1  0  0  0
 15 16  2  0  0  0
 15 18  1  0  0  0
 18 19  1  0  0  0
 19 20  1  0  0  0
 19 23  2  0  0  0
 20 21  1  0  0  0
 21 22  2  0  0  0
 22 23  1  0  0  0
 27 28  1  0  0  0
 28 29  2  0  0  0
 28 30  1  0  0  0
 12 13  1  0  0  0
 14 17  1  0  0  0
 30 31  1  0  0  0
 30 32  1  0  0  0
M  END
> <minimizedAffinity>
-6.67833

$$$$
4KOW_CFX_A_204


 32 34  0  0  0  0  0  0  0  0999 V2000
  -14.9109    1.8012   -9.2734 C   0  0  0  0  0  0  0  0  0  0  0  0
  -15.9049    1.1642   -9.5996 O   0  0  0  0  0  0  0  0  0  0  0  0
  -14.7162    3.0933   -9.0000 N   0  0  0  0  0  0  0  0  0  0  0  0
  -13.3046    2.9110   -8.5969 C   0  0  0  0  0  0  0  0  0  0  0  0
  -12.3099    4.1596   -9.4186 S   0  0  0  0  0  0  0  0  0  0  0  0
  -13.2650    5.5075   -8.6856 C   0  0  0  0  0  0  0  0  0  0  0  0
  -14.7939    5.4245   -8.8642 C   0  0  0  0  0  0  0  0  0  0  0  0
  -15.4481    4.3089   -9.0557 C   0  0  0  0  0  0  0  0  0  0  0  0
  -13.4147    1.4941   -9.1598 C   0  0  0  0  0  0  0  0  0  0  0  0
  -16.8556    4.1799   -9.4882 C   0  0  0  0  0  0  0  0  0  0  0  0
  -17.0761    4.1393  -10.7022 O   0  0  0  0  0  0  0  0  0  0  0  0
  -17.7630    4.1080   -8.6244 O   0  0  0  0  0  0  0  0  0  0  0  0
  -17.5465    4.1433   -7.7134 H   0  0  0  0  0  0  0  0  0  0  0  0
  -12.8810    1.1343  -10.4342 N   0  0  0  0  0  0  0  0  0  0  0  0
  -11.6187    0.8114  -10.6591 C   0  0  0  0  0  0  0  0  0  0  0  0
  -10.7688    0.9778   -9.8113 O   0  0  0  0  0  0  0  0  0  0  0  0
  -13.4979    1.1261  -11.2015 H   0  0  0  0  0  0  0  0  0  0  0  0
  -11.2830    0.2497  -12.0002 C   0  0  0  0  0  0  0  0  0  0  0  0
  -11.5471   -1.2002  -12.1253 C   0  0  0  0  0  0  0  0  0  0  0  0
  -11.9831   -1.9162  -13.6250 S   0  0  0  0  0  0  0  0  0  0  0  0
  -12.1377   -3.4560  -12.9789 C   0  0  0  0  0  0  0  0  0  0  0  0
  -11.8981   -3.4530  -11.7111 C   0  0  0  0  0  0  0  0  0  0  0  0
  -11.5497   -2.1782  -11.1981 C   0  0  0  0  0  0  0  0  0  0  0  0
  -13.0441    0.5583   -8.1540 O   0  0  0  0  0  0  0  0  0  0  0  0
  -13.5069   -0.7552   -8.3663 C   0  0  0  0  0  0  0  0  0  0  0  0
  -15.5222    6.7490   -8.8904 C   0  0  0  0  0  0  0  0  0  0  0  0
  -16.5422    6.7661   -7.7884 O   0  0  0  0  0  0  0  0  0  0  0  0
  -17.5444    7.7026   -7.7843 C   0  0  0  0  0  0  0  0  0  0  0  0
  -17.5111    8.9317   -7.5284 O   0  0  0  0  0  0  0  0  0  0  0  0
  -18.6451    7.0456   -8.1611 N   0  0  0  0  0  0  0  0  0  0  0  0
  -18.6024    6.0797   -8.3470 H   0  0  0  0  0  0  0  0  0  0  0  0
  -19.4987    7.5273   -8.2529 H   0  0  0  0  0  0  0  0  0  0  0  0
  1  2  2  0  0  0
  1  3  1  0  0  0
  1  9  1  0  0  0
  3  4  1  0  0  0
  3  8  1  0  0  0
  4  5  1  0  0  0
  4  9  1  0  0  0
  5  6  1  0  0  0
  6  7  1  0  0  0
  7  8  2  0  0  0
  7 26  1  0  0  0
  8 10  1  0  0  0
 26 27  1  0  0  0
 10 11  2  0  0  0
 10 12  1  0  0  0
  9 24  1  0  0  0
  9 14  1  0  0  0
 24 25  1  0  0  0
 14 15  1  0  0  0
 15 16  2  0  0  0
 15 18  1  0  0  0
 18 19  1  0  0  0
 19 20  1  0  0  0
 19 23  2  0  0  0
 20 21  1  0  0  0
 21 22  2  0  0  0
 22 23  1  0  0  0
 27 28  1  0  0  0
 28 29  2  0  0  0
 28 30  1  0  0  0
 12 13  1  0  0  0
 14 17  1  0  0  0
 30 31  1  0  0  0
 30 32  1  0  0  0
M  END
> <minimizedAffinity>
-6.38323

$$$$
4KOW_CFX_A_204


 32 34  0  0  0  0  0  0  0  0999 V2000
  -12.8809    2.0824   -9.3953 C   0  0  0  0  0  0  0  0  0  0  0  0
  -13.0652    1.0067   -9.9514 O   0  0  0  0  0  0  0  0  0  0  0  0
  -13.7102    3.0598   -9.0223 N   0  0  0  0  0  0  0  0  0  0  0  0
  -12.6570    3.8486   -8.3465 C   0  0  0  0  0  0  0  0  0  0  0  0
  -12.7914    5.5574   -8.8809 S   0  0  0  0  0  0  0  0  0  0  0  0
  -14.4958    5.6836   -8.2931 C   0  0  0  0  0  0  0  0  0  0  0  0
  -15.4616    4.5883   -8.7873 C   0  0  0  0  0  0  0  0  0  0  0  0
  -15.0824    3.3958   -9.1660 C   0  0  0  0  0  0  0  0  0  0  0  0
  -11.6488    2.8975   -8.9912 C   0  0  0  0  0  0  0  0  0  0  0  0
  -15.9049    2.4006   -9.8854 C   0  0  0  0  0  0  0  0  0  0  0  0
  -16.4235    1.5014   -9.2171 O   0  0  0  0  0  0  0  0  0  0  0  0
  -16.0546    2.5046  -11.1270 O   0  0  0  0  0  0  0  0  0  0  0  0
  -15.6406    3.2050  -11.5918 H   0  0  0  0  0  0  0  0  0  0  0  0
  -10.8883    3.2573  -10.1448 N   0  0  0  0  0  0  0  0  0  0  0  0
   -9.7703    3.9629  -10.1209 C   0  0  0  0  0  0  0  0  0  0  0  0
   -9.4025    4.5199   -9.1094 O   0  0  0  0  0  0  0  0  0  0  0  0
  -11.2205    2.9581  -11.0219 H   0  0  0  0  0  0  0  0  0  0  0  0
   -8.9913    4.0567  -11.3902 C   0  0  0  0  0  0  0  0  0  0  0  0
   -9.0131    2.8187  -12.1991 C   0  0  0  0  0  0  0  0  0  0  0  0
   -8.1807    1.3989  -11.7064 S   0  0  0  0  0  0  0  0  0  0  0  0
   -8.6254    0.5245  -13.0665 C   0  0  0  0  0  0  0  0  0  0  0  0
   -9.3416    1.2417  -13.8649 C   0  0  0  0  0  0  0  0  0  0  0  0
   -9.5860    2.5549  -13.3901 C   0  0  0  0  0  0  0  0  0  0  0  0
  -10.8269    2.3269   -7.9795 O   0  0  0  0  0  0  0  0  0  0  0  0
  -10.1447    1.1548   -8.3605 C   0  0  0  0  0  0  0  0  0  0  0  0
  -16.9131    4.9967   -8.8958 C   0  0  0  0  0  0  0  0  0  0  0  0
  -16.9968    6.3112   -9.6171 O   0  0  0  0  0  0  0  0  0  0  0  0
  -17.5478    7.4067   -9.0023 C   0  0  0  0  0  0  0  0  0  0  0  0
  -17.2584    7.9627   -7.9140 O   0  0  0  0  0  0  0  0  0  0  0  0
  -18.4977    7.8404   -9.8358 N   0  0  0  0  0  0  0  0  0  0  0  0
  -18.6745    7.3569  -10.6750 H   0  0  0  0  0  0  0  0  0  0  0  0
  -19.0208    8.6435   -9.6107 H   0  0  0  0  0  0  0  0  0  0  0  0
  1  2  2  0  0  0
  1  3  1  0  0  0
  1  9  1  0  0  0
  3  4  1  0  0  0
  3  8  1  0  0  0
  4  5  1  0  0  0
  4  9  1  0  0  0
  5  6  1  0  0  0
  6  7  1  0  0  0
  7  8  2  0  0  0
  7 26  1  0  0  0
  8 10  1  0  0  0
 26 27  1  0  0  0
 10 11  2  0  0  0
 10 12  1  0  0  0
  9 24  1  0  0  0
  9 14  1  0  0  0
 24 25  1  0  0  0
 14 15  1  0  0  0
 15 16  2  0  0  0
 15 18  1  0  0  0
 18 19  1  0  0  0
 19 20  1  0  0  0
 19 23  2  0  0  0
 20 21  1  0  0  0
 21 22  2  0  0  0
 22 23  1  0  0  0
 27 28  1  0  0  0
 28 29  2  0  0  0
 28 30  1  0  0  0
 12 13  1  0  0  0
 14 17  1  0  0  0
 30 31  1  0  0  0
 30 32  1  0  0  0
M  END
> <minimizedAffinity>
-6.30920

$$$$
4KOW_CFX_A_204


 32 34  0  0  0  0  0  0  0  0999 V2000
  -11.5026    3.5330  -10.1046 C   0  0  0  0  0  0  0  0  0  0  0  0
  -10.6581    4.3203   -9.6958 O   0  0  0  0  0  0  0  0  0  0  0  0
  -12.8245    3.4574   -9.9335 N   0  0  0  0  0  0  0  0  0  0  0  0
  -12.9929    2.3192  -10.8632 C   0  0  0  0  0  0  0  0  0  0  0  0
  -14.0158    1.0771  -10.0666 S   0  0  0  0  0  0  0  0  0  0  0  0
  -15.3821    2.2392   -9.8451 C   0  0  0  0  0  0  0  0  0  0  0  0
  -15.0267    3.5745   -9.1616 C   0  0  0  0  0  0  0  0  0  0  0  0
  -13.8314    4.1041   -9.1691 C   0  0  0  0  0  0  0  0  0  0  0  0
  -11.4687    2.2035  -10.8643 C   0  0  0  0  0  0  0  0  0  0  0  0
  -13.3642    5.2280   -8.3304 C   0  0  0  0  0  0  0  0  0  0  0  0
  -12.7888    4.9487   -7.2744 O   0  0  0  0  0  0  0  0  0  0  0  0
  -13.5553    6.4070   -8.7154 O   0  0  0  0  0  0  0  0  0  0  0  0
  -13.9975    6.5695   -9.5253 H   0  0  0  0  0  0  0  0  0  0  0  0
  -10.7769    1.2122  -10.1045 N   0  0  0  0  0  0  0  0  0  0  0  0
  -10.6067   -0.0438  -10.4813 C   0  0  0  0  0  0  0  0  0  0  0  0
  -11.1966   -0.4963  -11.4383 O   0  0  0  0  0  0  0  0  0  0  0  0
  -10.3991    1.4836   -9.2368 H   0  0  0  0  0  0  0  0  0  0  0  0
   -9.6729   -0.8815   -9.6733 C   0  0  0  0  0  0  0  0  0  0  0  0
  -10.2352   -1.3276   -8.3801 C   0  0  0  0  0  0  0  0  0  0  0  0
  -11.8119   -1.9994   -8.2604 S   0  0  0  0  0  0  0  0  0  0  0  0
  -11.7286   -2.1979   -6.5973 C   0  0  0  0  0  0  0  0  0  0  0  0
  -10.6001   -1.7754   -6.1359 C   0  0  0  0  0  0  0  0  0  0  0  0
   -9.7236   -1.2803   -7.1341 C   0  0  0  0  0  0  0  0  0  0  0  0
  -10.9935    2.2620  -12.2043 O   0  0  0  0  0  0  0  0  0  0  0  0
   -9.6268    2.5773  -12.3357 C   0  0  0  0  0  0  0  0  0  0  0  0
  -16.1454    4.2292   -8.3837 C   0  0  0  0  0  0  0  0  0  0  0  0
  -16.5924    5.4614   -9.1166 O   0  0  0  0  0  0  0  0  0  0  0  0
  -16.9356    6.5948   -8.4245 C   0  0  0  0  0  0  0  0  0  0  0  0
  -16.2315    7.5628   -8.0442 O   0  0  0  0  0  0  0  0  0  0  0  0
  -18.2555    6.5089   -8.2358 N   0  0  0  0  0  0  0  0  0  0  0  0
  -18.7487    5.7207   -8.5595 H   0  0  0  0  0  0  0  0  0  0  0  0
  -18.7348    7.2336   -7.7730 H   0  0  0  0  0  0  0  0  0  0  0  0
  1  2  2  0  0  0
  1  3  1  0  0  0
  1  9  1  0  0  0
  3  4  1  0  0  0
  3  8  1  0  0  0
  4  5  1  0  0  0
  4  9  1  0  0  0
  5  6  1  0  0  0
  6  7  1  0  0  0
  7  8  2  0  0  0
  7 26  1  0  0  0
  8 10  1  0  0  0
 26 27  1  0  0  0
 10 11  2  0  0  0
 10 12  1  0  0  0
  9 24  1  0  0  0
  9 14  1  0  0  0
 24 25  1  0  0  0
 14 15  1  0  0  0
 15 16  2  0  0  0
 15 18  1  0  0  0
 18 19  1  0  0  0
 19 20  1  0  0  0
 19 23  2  0  0  0
 20 21  1  0  0  0
 21 22  2  0  0  0
 22 23  1  0  0  0
 27 28  1  0  0  0
 28 29  2  0  0  0
 28 30  1  0  0  0
 12 13  1  0  0  0
 14 17  1  0  0  0
 30 31  1  0  0  0
 30 32  1  0  0  0
M  END
> <minimizedAffinity>
-6.24696

$$$$
4KOW_CFX_A_204


 32 34  0  0  0  0  0  0  0  0999 V2000
  -13.5004    0.0171   -8.7293 C   0  0  0  0  0  0  0  0  0  0  0  0
  -14.6583   -0.3788   -8.6772 O   0  0  0  0  0  0  0  0  0  0  0  0
  -12.3924   -0.3446   -8.0783 N   0  0  0  0  0  0  0  0  0  0  0  0
  -11.5075    0.5476   -8.8589 C   0  0  0  0  0  0  0  0  0  0  0  0
  -10.4554    1.4500   -7.7176 S   0  0  0  0  0  0  0  0  0  0  0  0
   -9.7749   -0.0744   -7.0252 C   0  0  0  0  0  0  0  0  0  0  0  0
  -10.8059   -1.1157   -6.5462 C   0  0  0  0  0  0  0  0  0  0  0  0
  -12.0267   -1.2009   -7.0062 C   0  0  0  0  0  0  0  0  0  0  0  0
  -12.7808    1.1772   -9.4237 C   0  0  0  0  0  0  0  0  0  0  0  0
  -13.1321   -1.9883   -6.4209 C   0  0  0  0  0  0  0  0  0  0  0  0
  -13.3152   -3.1268   -6.8620 O   0  0  0  0  0  0  0  0  0  0  0  0
  -13.8299   -1.4879   -5.5058 O   0  0  0  0  0  0  0  0  0  0  0  0
  -13.6528   -0.6188   -5.2037 H   0  0  0  0  0  0  0  0  0  0  0  0
  -13.2864    2.4285   -8.9578 N   0  0  0  0  0  0  0  0  0  0  0  0
  -12.8593    3.6123   -9.3633 C   0  0  0  0  0  0  0  0  0  0  0  0
  -11.8607    3.7196  -10.0415 O   0  0  0  0  0  0  0  0  0  0  0  0
  -14.0054    2.4084   -8.2855 H   0  0  0  0  0  0  0  0  0  0  0  0
  -13.6467    4.8072   -8.9402 C   0  0  0  0  0  0  0  0  0  0  0  0
  -15.1079    4.5806   -8.9076 C   0  0  0  0  0  0  0  0  0  0  0  0
  -16.1466    5.5056   -7.8990 S   0  0  0  0  0  0  0  0  0  0  0  0
  -17.5298    4.6821   -8.3689 C   0  0  0  0  0  0  0  0  0  0  0  0
  -17.2497    3.7523   -9.2185 C   0  0  0  0  0  0  0  0  0  0  0  0
  -15.8736    3.6773   -9.5510 C   0  0  0  0  0  0  0  0  0  0  0  0
  -12.7404    1.1256  -10.8452 O   0  0  0  0  0  0  0  0  0  0  0  0
  -13.9866    1.2928  -11.4804 C   0  0  0  0  0  0  0  0  0  0  0  0
  -10.3513   -2.0161   -5.4202 C   0  0  0  0  0  0  0  0  0  0  0  0
  -10.5608   -1.3060   -4.1136 O   0  0  0  0  0  0  0  0  0  0  0  0
  -11.2889   -1.8957   -3.1118 C   0  0  0  0  0  0  0  0  0  0  0  0
  -12.2403   -2.7136   -3.1679 O   0  0  0  0  0  0  0  0  0  0  0  0
  -10.7535   -1.4465   -1.9730 N   0  0  0  0  0  0  0  0  0  0  0  0
  -10.0076   -0.8045   -1.9994 H   0  0  0  0  0  0  0  0  0  0  0  0
  -11.1050   -1.7574   -1.1076 H   0  0  0  0  0  0  0  0  0  0  0  0
  1  2  2  0  0  0
  1  3  1  0  0  0
  1  9  1  0  0  0
  3  4  1  0  0  0
  3  8  1  0  0  0
  4  5  1  0  0  0
  4  9  1  0  0  0
  5  6  1  0  0  0
  6  7  1  0  0  0
  7  8  2  0  0  0
  7 26  1  0  0  0
  8 10  1  0  0  0
 26 27  1  0  0  0
 10 11  2  0  0  0
 10 12  1  0  0  0
  9 24  1  0  0  0
  9 14  1  0  0  0
 24 25  1  0  0  0
 14 15  1  0  0  0
 15 16  2  0  0  0
 15 18  1  0  0  0
 18 19  1  0  0  0
 19 20  1  0  0  0
 19 23  2  0  0  0
 20 21  1  0  0  0
 21 22  2  0  0  0
 22 23  1  0  0  0
 27 28  1  0  0  0
 28 29  2  0  0  0
 28 30  1  0  0  0
 12 13  1  0  0  0
 14 17  1  0  0  0
 30 31  1  0  0  0
 30 32  1  0  0  0
M  END
> <minimizedAffinity>
-5.93230

$$$$
4KOW_CFX_A_204


 32 34  0  0  0  0  0  0  0  0999 V2000
  -12.0003    0.0566   -8.1295 C   0  0  0  0  0  0  0  0  0  0  0  0
  -10.9194   -0.0675   -7.5668 O   0  0  0  0  0  0  0  0  0  0  0  0
  -12.6243    1.1087   -8.6642 N   0  0  0  0  0  0  0  0  0  0  0  0
  -13.7496    0.3114   -9.1995 C   0  0  0  0  0  0  0  0  0  0  0  0
  -15.2877    1.1266   -8.7596 S   0  0  0  0  0  0  0  0  0  0  0  0
  -14.8085    2.6487   -9.6082 C   0  0  0  0  0  0  0  0  0  0  0  0
  -13.4317    3.2278   -9.2267 C   0  0  0  0  0  0  0  0  0  0  0  0
  -12.4460    2.5150   -8.7475 C   0  0  0  0  0  0  0  0  0  0  0  0
  -13.2088   -0.8531   -8.3699 C   0  0  0  0  0  0  0  0  0  0  0  0
  -11.2095    3.0333   -8.1254 C   0  0  0  0  0  0  0  0  0  0  0  0
  -10.2058    3.1173   -8.8392 O   0  0  0  0  0  0  0  0  0  0  0  0
  -11.2216    3.3735   -6.9176 O   0  0  0  0  0  0  0  0  0  0  0  0
  -12.0085    3.2913   -6.4155 H   0  0  0  0  0  0  0  0  0  0  0  0
  -13.7944   -1.2434   -7.1277 N   0  0  0  0  0  0  0  0  0  0  0  0
  -13.4568   -2.3216   -6.4407 C   0  0  0  0  0  0  0  0  0  0  0  0
  -12.7354   -3.1694   -6.9198 O   0  0  0  0  0  0  0  0  0  0  0  0
  -14.5012   -0.6679   -6.7555 H   0  0  0  0  0  0  0  0  0  0  0  0
  -14.0107   -2.4574   -5.0618 C   0  0  0  0  0  0  0  0  0  0  0  0
  -13.0023   -2.2927   -3.9924 C   0  0  0  0  0  0  0  0  0  0  0  0
  -11.4682   -1.5808   -4.2947 S   0  0  0  0  0  0  0  0  0  0  0  0
  -10.9348   -1.7780   -2.7171 C   0  0  0  0  0  0  0  0  0  0  0  0
  -11.8321   -2.3576   -1.9933 C   0  0  0  0  0  0  0  0  0  0  0  0
  -13.0275   -2.6556   -2.6947 C   0  0  0  0  0  0  0  0  0  0  0  0
  -12.9880   -1.9731   -9.2194 O   0  0  0  0  0  0  0  0  0  0  0  0
  -11.8546   -1.8732  -10.0501 C   0  0  0  0  0  0  0  0  0  0  0  0
  -13.2932    4.7273   -9.3598 C   0  0  0  0  0  0  0  0  0  0  0  0
  -14.5771    5.3755   -8.9276 O   0  0  0  0  0  0  0  0  0  0  0  0
  -14.5619    6.5917   -8.2936 C   0  0  0  0  0  0  0  0  0  0  0  0
  -13.6123    7.3824   -8.0688 O   0  0  0  0  0  0  0  0  0  0  0  0
  -15.8324    6.8321   -7.9573 N   0  0  0  0  0  0  0  0  0  0  0  0
  -16.5300    6.1686   -8.1630 H   0  0  0  0  0  0  0  0  0  0  0  0
  -16.0709    7.6727   -7.5038 H   0  0  0  0  0  0  0  0  0  0  0  0
  1  2  2  0  0  0
  1  3  1  0  0  0
  1  9  1  0  0  0
  3  4  1  0  0  0
  3  8  1  0  0  0
  4  5  1  0  0  0
  4  9  1  0  0  0
  5  6  1  0  0  0
  6  7  1  0  0  0
  7  8  2  0  0  0
  7 26  1  0  0  0
  8 10  1  0  0  0
 26 27  1  0  0  0
 10 11  2  0  0  0
 10 12  1  0  0  0
  9 24  1  0  0  0
  9 14  1  0  0  0
 24 25  1  0  0  0
 14 15  1  0  0  0
 15 16  2  0  0  0
 15 18  1  0  0  0
 18 19  1  0  0  0
 19 20  1  0  0  0
 19 23  2  0  0  0
 20 21  1  0  0  0
 21 22  2  0  0  0
 22 23  1  0  0  0
 27 28  1  0  0  0
 28 29  2  0  0  0
 28 30  1  0  0  0
 12 13  1  0  0  0
 14 17  1  0  0  0
 30 31  1  0  0  0
 30 32  1  0  0  0
M  END
> <minimizedAffinity>
-5.80997

$$$$
