4LM3_9ZE_A_801


 13 14  0  0  0  0  0  0  0  0999 V2000
    4.2297   15.2379   45.0168 C   0  0  0  0  0  0  0  0  0  0  0  0
    4.1713   14.0362   44.1350 C   0  0  0  0  0  0  0  0  0  0  0  0
    4.7615   15.1545   46.2302 C   0  0  0  0  0  0  0  0  0  0  0  0
    4.6562   12.8826   44.5770 C   0  0  0  0  0  0  0  0  0  0  0  0
    5.3110   13.8524   46.7261 C   0  0  0  0  0  0  0  0  0  0  0  0
    5.2583   12.7869   45.9463 C   0  0  0  0  0  0  0  0  0  0  0  0
    4.8674   11.8806   43.7262 O   0  0  0  0  0  0  0  0  0  0  0  0
    5.2560   10.5645   44.1957 C   0  0  0  0  0  0  0  0  0  0  0  0
    5.7823   11.6248   46.3508 O   0  0  0  0  0  0  0  0  0  0  0  0
    6.2448   10.6582   45.3657 C   0  0  0  0  0  0  0  0  0  0  0  0
    4.4134   16.2326   47.1953 C   0  0  0  0  0  0  0  0  0  0  0  0
    3.0814   16.9359   47.0643 C   0  0  0  0  0  0  0  0  0  0  0  0
    5.2065   16.5501   48.0793 O   0  0  0  0  0  0  0  0  0  0  0  0
  8 10  1  0  0  0
  8  7  1  0  0  0
 10  9  1  0  0  0
  7  4  1  0  0  0
  9  6  1  0  0  0
  4  6  2  0  0  0
  4  2  1  0  0  0
  6  5  1  0  0  0
  2  1  2  0  0  0
  5  3  2  0  0  0
  1  3  1  0  0  0
  3 11  1  0  0  0
 11 12  1  0  0  0
 11 13  2  0  0  0
M  END
> <minimizedAffinity>
-6.70643

$$$$
4LM3_9ZE_A_801


 13 14  0  0  0  0  0  0  0  0999 V2000
    4.2346   13.8409   46.4776 C   0  0  0  0  0  0  0  0  0  0  0  0
    4.4829   12.7582   45.4820 C   0  0  0  0  0  0  0  0  0  0  0  0
    4.1126   15.1019   46.0810 C   0  0  0  0  0  0  0  0  0  0  0  0
    4.5810   13.0692   44.1956 C   0  0  0  0  0  0  0  0  0  0  0  0
    4.2207   15.4506   44.6285 C   0  0  0  0  0  0  0  0  0  0  0  0
    4.4420   14.4922   43.7459 C   0  0  0  0  0  0  0  0  0  0  0  0
    4.5247   12.1104   43.2736 O   0  0  0  0  0  0  0  0  0  0  0  0
    4.7746   12.3972   41.8740 C   0  0  0  0  0  0  0  0  0  0  0  0
    4.4983   14.7741   42.4397 O   0  0  0  0  0  0  0  0  0  0  0  0
    4.1687   13.7461   41.4633 C   0  0  0  0  0  0  0  0  0  0  0  0
    4.2946   16.1555   47.1161 C   0  0  0  0  0  0  0  0  0  0  0  0
    3.1557   17.1069   47.4062 C   0  0  0  0  0  0  0  0  0  0  0  0
    5.3624   16.2531   47.7172 O   0  0  0  0  0  0  0  0  0  0  0  0
  8 10  1  0  0  0
  8  7  1  0  0  0
 10  9  1  0  0  0
  7  4  1  0  0  0
  9  6  1  0  0  0
  4  6  2  0  0  0
  4  2  1  0  0  0
  6  5  1  0  0  0
  2  1  2  0  0  0
  5  3  2  0  0  0
  1  3  1  0  0  0
  3 11  1  0  0  0
 11 12  1  0  0  0
 11 13  2  0  0  0
M  END
> <minimizedAffinity>
-6.65362

$$$$
4LM3_9ZE_A_801


 13 14  0  0  0  0  0  0  0  0999 V2000
    4.9054   11.8353   44.1373 C   0  0  0  0  0  0  0  0  0  0  0  0
    4.5059   13.2259   43.7748 C   0  0  0  0  0  0  0  0  0  0  0  0
    5.3877   11.5690   45.3451 C   0  0  0  0  0  0  0  0  0  0  0  0
    4.6384   14.1943   44.6726 C   0  0  0  0  0  0  0  0  0  0  0  0
    5.5337   12.6626   46.3579 C   0  0  0  0  0  0  0  0  0  0  0  0
    5.1814   13.8952   46.0373 C   0  0  0  0  0  0  0  0  0  0  0  0
    4.0419   15.3684   44.4770 O   0  0  0  0  0  0  0  0  0  0  0  0
    4.2847   16.4919   45.3615 C   0  0  0  0  0  0  0  0  0  0  0  0
    5.2617   14.8791   46.9396 O   0  0  0  0  0  0  0  0  0  0  0  0
    4.3899   16.0390   46.8241 C   0  0  0  0  0  0  0  0  0  0  0  0
    6.1490   10.3001   45.5032 C   0  0  0  0  0  0  0  0  0  0  0  0
    6.3842    9.4269   44.2914 C   0  0  0  0  0  0  0  0  0  0  0  0
    6.5701    9.9659   46.6087 O   0  0  0  0  0  0  0  0  0  0  0  0
  8 10  1  0  0  0
  8  7  1  0  0  0
 10  9  1  0  0  0
  7  4  1  0  0  0
  9  6  1  0  0  0
  4  6  2  0  0  0
  4  2  1  0  0  0
  6  5  1  0  0  0
  2  1  2  0  0  0
  5  3  2  0  0  0
  1  3  1  0  0  0
  3 11  1  0  0  0
 11 12  1  0  0  0
 11 13  2  0  0  0
M  END
> <minimizedAffinity>
-6.57713

$$$$
4LM3_9ZE_A_801


 13 14  0  0  0  0  0  0  0  0999 V2000
    4.6605   12.9888   45.2308 C   0  0  0  0  0  0  0  0  0  0  0  0
    5.4638   12.1662   46.1811 C   0  0  0  0  0  0  0  0  0  0  0  0
    4.4635   12.5741   43.9853 C   0  0  0  0  0  0  0  0  0  0  0  0
    5.9800   11.0156   45.7677 C   0  0  0  0  0  0  0  0  0  0  0  0
    5.0443   11.2738   43.5214 C   0  0  0  0  0  0  0  0  0  0  0  0
    5.7573   10.5451   44.3621 C   0  0  0  0  0  0  0  0  0  0  0  0
    6.4561   10.1439   46.6543 O   0  0  0  0  0  0  0  0  0  0  0  0
    7.1571    8.9470   46.2304 C   0  0  0  0  0  0  0  0  0  0  0  0
    6.2484    9.3602   43.9833 O   0  0  0  0  0  0  0  0  0  0  0  0
    6.5101    8.3334   44.9813 C   0  0  0  0  0  0  0  0  0  0  0  0
    4.0409   13.5984   42.9918 C   0  0  0  0  0  0  0  0  0  0  0  0
    4.1224   13.2717   41.5177 C   0  0  0  0  0  0  0  0  0  0  0  0
    3.6412   14.6977   43.3698 O   0  0  0  0  0  0  0  0  0  0  0  0
  8 10  1  0  0  0
  8  7  1  0  0  0
 10  9  1  0  0  0
  7  4  1  0  0  0
  9  6  1  0  0  0
  4  6  2  0  0  0
  4  2  1  0  0  0
  6  5  1  0  0  0
  2  1  2  0  0  0
  5  3  2  0  0  0
  1  3  1  0  0  0
  3 11  1  0  0  0
 11 12  1  0  0  0
 11 13  2  0  0  0
M  END
> <minimizedAffinity>
-6.51527

$$$$
4LM3_9ZE_A_801


 13 14  0  0  0  0  0  0  0  0999 V2000
    4.9178   11.5386   43.9669 C   0  0  0  0  0  0  0  0  0  0  0  0
    4.6166   12.1844   45.2773 C   0  0  0  0  0  0  0  0  0  0  0  0
    4.9446   12.2609   42.8534 C   0  0  0  0  0  0  0  0  0  0  0  0
    4.3751   13.4887   45.3179 C   0  0  0  0  0  0  0  0  0  0  0  0
    4.6747   13.7333   42.9016 C   0  0  0  0  0  0  0  0  0  0  0  0
    4.4063   14.3061   44.0619 C   0  0  0  0  0  0  0  0  0  0  0  0
    4.3787   14.1295   46.4849 O   0  0  0  0  0  0  0  0  0  0  0  0
    3.9759   15.5195   46.5810 C   0  0  0  0  0  0  0  0  0  0  0  0
    4.2057   15.6263   44.1353 O   0  0  0  0  0  0  0  0  0  0  0  0
    4.4784   16.3311   45.3793 C   0  0  0  0  0  0  0  0  0  0  0  0
    4.8235   11.5226   41.5669 C   0  0  0  0  0  0  0  0  0  0  0  0
    4.2472   12.2321   40.3625 C   0  0  0  0  0  0  0  0  0  0  0  0
    5.1795   10.3483   41.4927 O   0  0  0  0  0  0  0  0  0  0  0  0
  8 10  1  0  0  0
  8  7  1  0  0  0
 10  9  1  0  0  0
  7  4  1  0  0  0
  9  6  1  0  0  0
  4  6  2  0  0  0
  4  2  1  0  0  0
  6  5  1  0  0  0
  2  1  2  0  0  0
  5  3  2  0  0  0
  1  3  1  0  0  0
  3 11  1  0  0  0
 11 12  1  0  0  0
 11 13  2  0  0  0
M  END
> <minimizedAffinity>
-6.38965

$$$$
4LM3_9ZE_A_801


 13 14  0  0  0  0  0  0  0  0999 V2000
    5.0138   12.4393   45.2198 C   0  0  0  0  0  0  0  0  0  0  0  0
    4.9407   11.7568   43.8955 C   0  0  0  0  0  0  0  0  0  0  0  0
    4.8313   13.7512   45.3095 C   0  0  0  0  0  0  0  0  0  0  0  0
    4.6917   12.4753   42.8078 C   0  0  0  0  0  0  0  0  0  0  0  0
    4.5476   14.5599   44.0812 C   0  0  0  0  0  0  0  0  0  0  0  0
    4.4840   13.9563   42.9073 C   0  0  0  0  0  0  0  0  0  0  0  0
    4.3505   11.8676   41.6734 O   0  0  0  0  0  0  0  0  0  0  0  0
    4.2153   12.6091   40.4342 C   0  0  0  0  0  0  0  0  0  0  0  0
    4.1884   14.6512   41.8035 O   0  0  0  0  0  0  0  0  0  0  0  0
    3.5672   13.9799   40.6712 C   0  0  0  0  0  0  0  0  0  0  0  0
    5.3277   14.4189   46.5434 C   0  0  0  0  0  0  0  0  0  0  0  0
    4.9994   15.8766   46.7744 C   0  0  0  0  0  0  0  0  0  0  0  0
    6.0040   13.7914   47.3559 O   0  0  0  0  0  0  0  0  0  0  0  0
  8 10  1  0  0  0
  8  7  1  0  0  0
 10  9  1  0  0  0
  7  4  1  0  0  0
  9  6  1  0  0  0
  4  6  2  0  0  0
  4  2  1  0  0  0
  6  5  1  0  0  0
  2  1  2  0  0  0
  5  3  2  0  0  0
  1  3  1  0  0  0
  3 11  1  0  0  0
 11 12  1  0  0  0
 11 13  2  0  0  0
M  END
> <minimizedAffinity>
-6.38621

$$$$
4LM3_9ZE_A_801


 13 14  0  0  0  0  0  0  0  0999 V2000
    4.7609   12.5549   42.3890 C   0  0  0  0  0  0  0  0  0  0  0  0
    4.6380   14.0167   42.6588 C   0  0  0  0  0  0  0  0  0  0  0  0
    4.8687   11.6938   43.3936 C   0  0  0  0  0  0  0  0  0  0  0  0
    4.6381   14.4473   43.9142 C   0  0  0  0  0  0  0  0  0  0  0  0
    4.8656   12.1814   44.8097 C   0  0  0  0  0  0  0  0  0  0  0  0
    4.7582   13.4765   45.0498 C   0  0  0  0  0  0  0  0  0  0  0  0
    4.2570   15.6928   44.1897 O   0  0  0  0  0  0  0  0  0  0  0  0
    4.3843   16.2398   45.5270 C   0  0  0  0  0  0  0  0  0  0  0  0
    4.7090   13.9306   46.3068 O   0  0  0  0  0  0  0  0  0  0  0  0
    4.0414   15.1917   46.5943 C   0  0  0  0  0  0  0  0  0  0  0  0
    5.4065   10.3442   43.0711 C   0  0  0  0  0  0  0  0  0  0  0  0
    5.7494   10.0120   41.6365 C   0  0  0  0  0  0  0  0  0  0  0  0
    5.5584    9.5107   43.9618 O   0  0  0  0  0  0  0  0  0  0  0  0
  8 10  1  0  0  0
  8  7  1  0  0  0
 10  9  1  0  0  0
  7  4  1  0  0  0
  9  6  1  0  0  0
  4  6  2  0  0  0
  4  2  1  0  0  0
  6  5  1  0  0  0
  2  1  2  0  0  0
  5  3  2  0  0  0
  1  3  1  0  0  0
  3 11  1  0  0  0
 11 12  1  0  0  0
 11 13  2  0  0  0
M  END
> <minimizedAffinity>
-6.37897

$$$$
4LM3_9ZE_A_801


 13 14  0  0  0  0  0  0  0  0999 V2000
    4.6786   12.3982   43.2383 C   0  0  0  0  0  0  0  0  0  0  0  0
    5.1219   10.9809   43.0978 C   0  0  0  0  0  0  0  0  0  0  0  0
    4.7377   13.0060   44.4170 C   0  0  0  0  0  0  0  0  0  0  0  0
    5.5756   10.3339   44.1641 C   0  0  0  0  0  0  0  0  0  0  0  0
    5.2527   12.2751   45.6186 C   0  0  0  0  0  0  0  0  0  0  0  0
    5.6443   11.0190   45.4955 C   0  0  0  0  0  0  0  0  0  0  0  0
    6.2264    9.1820   44.0157 O   0  0  0  0  0  0  0  0  0  0  0  0
    6.6052    8.3790   45.1626 C   0  0  0  0  0  0  0  0  0  0  0  0
    6.1487   10.3608   46.5447 O   0  0  0  0  0  0  0  0  0  0  0  0
    7.0744    9.2583   46.3297 C   0  0  0  0  0  0  0  0  0  0  0  0
    3.9082   14.2297   44.5878 C   0  0  0  0  0  0  0  0  0  0  0  0
    3.7852   14.8499   45.9612 C   0  0  0  0  0  0  0  0  0  0  0  0
    3.3245   14.7199   43.6233 O   0  0  0  0  0  0  0  0  0  0  0  0
  8 10  1  0  0  0
  8  7  1  0  0  0
 10  9  1  0  0  0
  7  4  1  0  0  0
  9  6  1  0  0  0
  4  6  2  0  0  0
  4  2  1  0  0  0
  6  5  1  0  0  0
  2  1  2  0  0  0
  5  3  2  0  0  0
  1  3  1  0  0  0
  3 11  1  0  0  0
 11 12  1  0  0  0
 11 13  2  0  0  0
M  END
> <minimizedAffinity>
-6.37471

$$$$
4LM3_9ZE_A_801


 13 14  0  0  0  0  0  0  0  0999 V2000
    4.3958   12.3811   41.2012 C   0  0  0  0  0  0  0  0  0  0  0  0
    3.8772   13.6147   41.8600 C   0  0  0  0  0  0  0  0  0  0  0  0
    4.9459   11.4142   41.9257 C   0  0  0  0  0  0  0  0  0  0  0  0
    3.9721   13.7355   43.1783 C   0  0  0  0  0  0  0  0  0  0  0  0
    5.0495   11.5510   43.4135 C   0  0  0  0  0  0  0  0  0  0  0  0
    4.5916   12.6442   43.9980 C   0  0  0  0  0  0  0  0  0  0  0  0
    3.2806   14.6812   43.8107 O   0  0  0  0  0  0  0  0  0  0  0  0
    3.4731   14.9344   45.2258 C   0  0  0  0  0  0  0  0  0  0  0  0
    4.6335   12.7691   45.3289 O   0  0  0  0  0  0  0  0  0  0  0  0
    3.6720   13.6274   46.0052 C   0  0  0  0  0  0  0  0  0  0  0  0
    5.8074   10.4377   41.2051 C   0  0  0  0  0  0  0  0  0  0  0  0
    7.1959   10.1526   41.7312 C   0  0  0  0  0  0  0  0  0  0  0  0
    5.3942    9.8807   40.1902 O   0  0  0  0  0  0  0  0  0  0  0  0
  8 10  1  0  0  0
  8  7  1  0  0  0
 10  9  1  0  0  0
  7  4  1  0  0  0
  9  6  1  0  0  0
  4  6  2  0  0  0
  4  2  1  0  0  0
  6  5  1  0  0  0
  2  1  2  0  0  0
  5  3  2  0  0  0
  1  3  1  0  0  0
  3 11  1  0  0  0
 11 12  1  0  0  0
 11 13  2  0  0  0
M  END
> <minimizedAffinity>
-6.12036

$$$$
4LM3_9ZE_A_801


 13 14  0  0  0  0  0  0  0  0999 V2000
    4.4829   12.8733   44.7397 C   0  0  0  0  0  0  0  0  0  0  0  0
    4.8865   11.6110   44.0551 C   0  0  0  0  0  0  0  0  0  0  0  0
    4.1322   13.9390   44.0300 C   0  0  0  0  0  0  0  0  0  0  0  0
    4.8918   11.5650   42.7287 C   0  0  0  0  0  0  0  0  0  0  0  0
    4.1360   13.8843   42.5333 C   0  0  0  0  0  0  0  0  0  0  0  0
    4.4948   12.7669   41.9258 C   0  0  0  0  0  0  0  0  0  0  0  0
    4.9761   10.3921   42.1045 O   0  0  0  0  0  0  0  0  0  0  0  0
    5.1317   10.3160   40.6645 C   0  0  0  0  0  0  0  0  0  0  0  0
    4.4633   12.6811   40.5915 O   0  0  0  0  0  0  0  0  0  0  0  0
    4.2891   11.3841   39.9543 C   0  0  0  0  0  0  0  0  0  0  0  0
    4.1583   15.2531   44.7280 C   0  0  0  0  0  0  0  0  0  0  0  0
    3.6506   15.3419   46.1494 C   0  0  0  0  0  0  0  0  0  0  0  0
    4.5788   16.2523   44.1482 O   0  0  0  0  0  0  0  0  0  0  0  0
  8 10  1  0  0  0
  8  7  1  0  0  0
 10  9  1  0  0  0
  7  4  1  0  0  0
  9  6  1  0  0  0
  4  6  2  0  0  0
  4  2  1  0  0  0
  6  5  1  0  0  0
  2  1  2  0  0  0
  5  3  2  0  0  0
  1  3  1  0  0  0
  3 11  1  0  0  0
 11 12  1  0  0  0
 11 13  2  0  0  0
M  END
> <minimizedAffinity>
-6.09245

$$$$
