2IZL_IMI_B_300


 20 21  0  0  0  0  0  0  0  0999 V2000
   32.8827   11.6548   -6.4011 C   0  0  0  0  0  0  0  0  0  0  0  0
   32.0697   11.9919   -4.8255 S   0  0  0  0  0  0  0  0  0  0  0  0
   32.7806   10.4682   -4.1470 C   0  0  0  0  0  0  0  0  0  0  0  0
   34.1272   10.1198   -4.8248 C   0  0  0  0  0  0  0  0  0  0  0  0
   35.2239   10.7216   -4.0149 N   0  0  0  0  0  0  0  0  0  0  0  0
   35.7788   11.7244   -4.6208 C   0  0  0  0  0  0  0  0  0  0  0  0
   36.7327   12.4197   -4.0845 N   0  0  0  0  0  0  0  0  0  0  0  0
   35.2737   11.9470   -5.8060 N   0  0  0  0  0  0  0  0  0  0  0  0
   34.2435   10.9491   -6.1661 C   0  0  0  0  0  0  0  0  0  0  0  0
   35.4947   10.3965   -3.1260 H   0  0  0  0  0  0  0  0  0  0  0  0
   37.0623   12.1918   -3.1852 H   0  0  0  0  0  0  0  0  0  0  0  0
   35.5469   12.6912   -6.3898 H   0  0  0  0  0  0  0  0  0  0  0  0
   33.0058   12.8255   -7.4160 C   0  0  0  0  0  0  0  0  0  0  0  0
   31.6669   13.5714   -7.4830 C   0  0  0  0  0  0  0  0  0  0  0  0
   31.8691   14.9244   -8.1967 C   0  0  0  0  0  0  0  0  0  0  0  0
   30.5355   15.4475   -8.7989 C   0  0  0  0  0  0  0  0  0  0  0  0
   29.6898   14.3682   -9.5249 C   0  0  0  0  0  0  0  0  0  0  0  0
   28.6499   13.9696   -9.0019 O   0  0  0  0  0  0  0  0  0  0  0  0
   30.0972   13.9777  -10.6107 O   0  0  0  0  0  0  0  0  0  0  0  0
   30.8975   14.3171  -10.9605 H   0  0  0  0  0  0  0  0  0  0  0  0
 17 18  2  0  0  0
 17 19  1  0  0  0
 17 16  1  0  0  0
 16 15  1  0  0  0
 15 14  1  0  0  0
 14 13  1  0  0  0
 13  1  1  0  0  0
  1  2  1  0  0  0
  1  9  1  0  0  0
  2  3  1  0  0  0
  3  4  1  0  0  0
  4  5  1  0  0  0
  4  9  1  0  0  0
  5  6  1  0  0  0
  6  7  2  0  0  0
  6  8  1  0  0  0
  8  9  1  0  0  0
 19 20  1  0  0  0
  5 10  1  0  0  0
  7 11  1  0  0  0
  8 12  1  0  0  0
M  END
> <minimizedAffinity>
-8.28019

$$$$
2IZL_IMI_B_300


 20 21  0  0  0  0  0  0  0  0999 V2000
   32.6015   12.2095   -4.9859 C   0  0  0  0  0  0  0  0  0  0  0  0
   34.1807   13.0648   -4.8086 S   0  0  0  0  0  0  0  0  0  0  0  0
   34.5978   11.9800   -3.4170 C   0  0  0  0  0  0  0  0  0  0  0  0
   33.9188   10.5964   -3.5532 C   0  0  0  0  0  0  0  0  0  0  0  0
   34.8646    9.6819   -4.2533 N   0  0  0  0  0  0  0  0  0  0  0  0
   34.4716    9.4091   -5.4582 C   0  0  0  0  0  0  0  0  0  0  0  0
   35.1602    8.6596   -6.2613 N   0  0  0  0  0  0  0  0  0  0  0  0
   33.3283    9.9670   -5.7603 N   0  0  0  0  0  0  0  0  0  0  0  0
   32.7552   10.7108   -4.6179 C   0  0  0  0  0  0  0  0  0  0  0  0
   35.6893    9.3274   -3.8492 H   0  0  0  0  0  0  0  0  0  0  0  0
   36.0149    8.2731   -5.9625 H   0  0  0  0  0  0  0  0  0  0  0  0
   32.8997    9.8999   -6.6440 H   0  0  0  0  0  0  0  0  0  0  0  0
   31.8209   12.4013   -6.3162 C   0  0  0  0  0  0  0  0  0  0  0  0
   32.5415   13.4516   -7.1712 C   0  0  0  0  0  0  0  0  0  0  0  0
   31.7911   13.6269   -8.5080 C   0  0  0  0  0  0  0  0  0  0  0  0
   30.9409   14.9276   -8.5094 C   0  0  0  0  0  0  0  0  0  0  0  0
   29.5953   14.8164   -9.2737 C   0  0  0  0  0  0  0  0  0  0  0  0
   28.6477   14.2426   -8.7385 O   0  0  0  0  0  0  0  0  0  0  0  0
   29.5386   15.3339  -10.3812 O   0  0  0  0  0  0  0  0  0  0  0  0
   30.2935   15.7580  -10.7394 H   0  0  0  0  0  0  0  0  0  0  0  0
 17 18  2  0  0  0
 17 19  1  0  0  0
 17 16  1  0  0  0
 16 15  1  0  0  0
 15 14  1  0  0  0
 14 13  1  0  0  0
 13  1  1  0  0  0
  1  2  1  0  0  0
  1  9  1  0  0  0
  2  3  1  0  0  0
  3  4  1  0  0  0
  4  5  1  0  0  0
  4  9  1  0  0  0
  5  6  1  0  0  0
  6  7  2  0  0  0
  6  8  1  0  0  0
  8  9  1  0  0  0
 19 20  1  0  0  0
  5 10  1  0  0  0
  7 11  1  0  0  0
  8 12  1  0  0  0
M  END
> <minimizedAffinity>
-6.48932

$$$$
2IZL_IMI_B_300


 20 21  0  0  0  0  0  0  0  0999 V2000
   29.2104   13.2783  -10.1708 C   0  0  0  0  0  0  0  0  0  0  0  0
   29.8300   12.5907  -11.7201 S   0  0  0  0  0  0  0  0  0  0  0  0
   28.6294   11.2387  -11.5858 C   0  0  0  0  0  0  0  0  0  0  0  0
   27.3612   11.6807  -10.8175 C   0  0  0  0  0  0  0  0  0  0  0  0
   26.3615   12.1648  -11.8112 N   0  0  0  0  0  0  0  0  0  0  0  0
   26.2064   13.4506  -11.7548 C   0  0  0  0  0  0  0  0  0  0  0  0
   25.4106   14.0908  -12.5533 N   0  0  0  0  0  0  0  0  0  0  0  0
   26.9310   14.0112  -10.8219 N   0  0  0  0  0  0  0  0  0  0  0  0
   27.6882   13.0148  -10.0341 C   0  0  0  0  0  0  0  0  0  0  0  0
   25.8769   11.5782  -12.4359 H   0  0  0  0  0  0  0  0  0  0  0  0
   24.8955   13.5993  -13.2333 H   0  0  0  0  0  0  0  0  0  0  0  0
   26.9682   14.9820  -10.6628 H   0  0  0  0  0  0  0  0  0  0  0  0
   29.5746   14.7519   -9.8372 C   0  0  0  0  0  0  0  0  0  0  0  0
   30.7876   14.7663   -8.8980 C   0  0  0  0  0  0  0  0  0  0  0  0
   30.6387   13.6425   -7.8512 C   0  0  0  0  0  0  0  0  0  0  0  0
   32.0031   12.9556   -7.5654 C   0  0  0  0  0  0  0  0  0  0  0  0
   32.2295   12.5664   -6.0807 C   0  0  0  0  0  0  0  0  0  0  0  0
   31.2848   12.1294   -5.4249 O   0  0  0  0  0  0  0  0  0  0  0  0
   33.3624   12.6965   -5.6367 O   0  0  0  0  0  0  0  0  0  0  0  0
   34.0438   13.0353   -6.1834 H   0  0  0  0  0  0  0  0  0  0  0  0
 17 18  2  0  0  0
 17 19  1  0  0  0
 17 16  1  0  0  0
 16 15  1  0  0  0
 15 14  1  0  0  0
 14 13  1  0  0  0
 13  1  1  0  0  0
  1  2  1  0  0  0
  1  9  1  0  0  0
  2  3  1  0  0  0
  3  4  1  0  0  0
  4  5  1  0  0  0
  4  9  1  0  0  0
  5  6  1  0  0  0
  6  7  2  0  0  0
  6  8  1  0  0  0
  8  9  1  0  0  0
 19 20  1  0  0  0
  5 10  1  0  0  0
  7 11  1  0  0  0
  8 12  1  0  0  0
M  END
> <minimizedAffinity>
-6.30090

$$$$
2IZL_IMI_B_300


 20 21  0  0  0  0  0  0  0  0999 V2000
   27.5264   11.7818  -11.5659 C   0  0  0  0  0  0  0  0  0  0  0  0
   26.1774   12.1389  -12.7103 S   0  0  0  0  0  0  0  0  0  0  0  0
   26.4476   10.5343  -13.5100 C   0  0  0  0  0  0  0  0  0  0  0  0
   27.0202    9.4951  -12.5169 C   0  0  0  0  0  0  0  0  0  0  0  0
   25.8787    8.7474  -11.9178 N   0  0  0  0  0  0  0  0  0  0  0  0
   25.6963    9.0588  -10.6728 C   0  0  0  0  0  0  0  0  0  0  0  0
   24.7355    8.5542   -9.9632 N   0  0  0  0  0  0  0  0  0  0  0  0
   26.5727    9.9217  -10.2292 N   0  0  0  0  0  0  0  0  0  0  0  0
   27.5821   10.2636  -11.2544 C   0  0  0  0  0  0  0  0  0  0  0  0
   25.3288    8.0950  -12.4090 H   0  0  0  0  0  0  0  0  0  0  0  0
   24.1123    7.9079  -10.3672 H   0  0  0  0  0  0  0  0  0  0  0  0
   26.5619   10.2992   -9.3200 H   0  0  0  0  0  0  0  0  0  0  0  0
   27.6256   12.6413  -10.2748 C   0  0  0  0  0  0  0  0  0  0  0  0
   29.0954   13.0058  -10.0290 C   0  0  0  0  0  0  0  0  0  0  0  0
   29.1907   13.9684   -8.8269 C   0  0  0  0  0  0  0  0  0  0  0  0
   30.5165   13.7604   -8.0434 C   0  0  0  0  0  0  0  0  0  0  0  0
   31.6466   14.7566   -8.4142 C   0  0  0  0  0  0  0  0  0  0  0  0
   31.4688   15.5472   -9.3399 O   0  0  0  0  0  0  0  0  0  0  0  0
   32.6672   14.7183   -7.7400 O   0  0  0  0  0  0  0  0  0  0  0  0
   32.7472   14.0936   -7.0462 H   0  0  0  0  0  0  0  0  0  0  0  0
 17 18  2  0  0  0
 17 19  1  0  0  0
 17 16  1  0  0  0
 16 15  1  0  0  0
 15 14  1  0  0  0
 14 13  1  0  0  0
 13  1  1  0  0  0
  1  2  1  0  0  0
  1  9  1  0  0  0
  2  3  1  0  0  0
  3  4  1  0  0  0
  4  5  1  0  0  0
  4  9  1  0  0  0
  5  6  1  0  0  0
  6  7  2  0  0  0
  6  8  1  0  0  0
  8  9  1  0  0  0
 19 20  1  0  0  0
  5 10  1  0  0  0
  7 11  1  0  0  0
  8 12  1  0  0  0
M  END
> <minimizedAffinity>
-5.79021

$$$$
2IZL_IMI_B_300


 20 21  0  0  0  0  0  0  0  0999 V2000
   33.3053   12.9099   -6.3535 C   0  0  0  0  0  0  0  0  0  0  0  0
   34.3159   11.6147   -7.1006 S   0  0  0  0  0  0  0  0  0  0  0  0
   35.6346   11.9737   -5.9090 C   0  0  0  0  0  0  0  0  0  0  0  0
   35.0637   12.5217   -4.5794 C   0  0  0  0  0  0  0  0  0  0  0  0
   34.8541   11.3716   -3.6551 N   0  0  0  0  0  0  0  0  0  0  0  0
   33.5957   11.1136   -3.4810 C   0  0  0  0  0  0  0  0  0  0  0  0
   33.1829   10.1310   -2.7428 N   0  0  0  0  0  0  0  0  0  0  0  0
   32.8121   11.9396   -4.1238 N   0  0  0  0  0  0  0  0  0  0  0  0
   33.5748   12.9925   -4.8285 C   0  0  0  0  0  0  0  0  0  0  0  0
   35.5842   10.8679   -3.2278 H   0  0  0  0  0  0  0  0  0  0  0  0
   33.8343    9.5493   -2.2883 H   0  0  0  0  0  0  0  0  0  0  0  0
   31.8302   11.8691   -4.1370 H   0  0  0  0  0  0  0  0  0  0  0  0
   31.7843   12.9147   -6.6733 C   0  0  0  0  0  0  0  0  0  0  0  0
   31.5799   13.3758   -8.1221 C   0  0  0  0  0  0  0  0  0  0  0  0
   31.8588   14.8901   -8.2223 C   0  0  0  0  0  0  0  0  0  0  0  0
   30.6567   15.6425   -8.8577 C   0  0  0  0  0  0  0  0  0  0  0  0
   29.5962   14.7215   -9.5166 C   0  0  0  0  0  0  0  0  0  0  0  0
   28.6263   14.3549   -8.8545 O   0  0  0  0  0  0  0  0  0  0  0  0
   29.7716   14.4194  -10.6895 O   0  0  0  0  0  0  0  0  0  0  0  0
   30.5303   14.7282  -11.1444 H   0  0  0  0  0  0  0  0  0  0  0  0
 17 18  2  0  0  0
 17 19  1  0  0  0
 17 16  1  0  0  0
 16 15  1  0  0  0
 15 14  1  0  0  0
 14 13  1  0  0  0
 13  1  1  0  0  0
  1  2  1  0  0  0
  1  9  1  0  0  0
  2  3  1  0  0  0
  3  4  1  0  0  0
  4  5  1  0  0  0
  4  9  1  0  0  0
  5  6  1  0  0  0
  6  7  2  0  0  0
  6  8  1  0  0  0
  8  9  1  0  0  0
 19 20  1  0  0  0
  5 10  1  0  0  0
  7 11  1  0  0  0
  8 12  1  0  0  0
M  END
> <minimizedAffinity>
-5.74348

$$$$
2IZL_IMI_B_300


 20 21  0  0  0  0  0  0  0  0999 V2000
   28.9973   13.0276  -11.4203 C   0  0  0  0  0  0  0  0  0  0  0  0
   27.5168   14.0483  -11.2675 S   0  0  0  0  0  0  0  0  0  0  0  0
   26.8173   13.2302  -12.7265 C   0  0  0  0  0  0  0  0  0  0  0  0
   27.3444   11.7828  -12.8723 C   0  0  0  0  0  0  0  0  0  0  0  0
   26.3888   10.8692  -12.1844 N   0  0  0  0  0  0  0  0  0  0  0  0
   26.8868   10.3819  -11.0912 C   0  0  0  0  0  0  0  0  0  0  0  0
   26.2160    9.5903  -10.3138 N   0  0  0  0  0  0  0  0  0  0  0  0
   28.1141   10.7751  -10.8702 N   0  0  0  0  0  0  0  0  0  0  0  0
   28.6304   11.6231  -11.9661 C   0  0  0  0  0  0  0  0  0  0  0  0
   25.4871   10.6607  -12.5200 H   0  0  0  0  0  0  0  0  0  0  0  0
   25.2934    9.3374  -10.5464 H   0  0  0  0  0  0  0  0  0  0  0  0
   28.6331   10.5350  -10.0689 H   0  0  0  0  0  0  0  0  0  0  0  0
   29.9456   12.9413  -10.1920 C   0  0  0  0  0  0  0  0  0  0  0  0
   29.4974   13.9658   -9.1418 C   0  0  0  0  0  0  0  0  0  0  0  0
   30.6679   14.2599   -8.1803 C   0  0  0  0  0  0  0  0  0  0  0  0
   31.5590   13.0030   -7.9781 C   0  0  0  0  0  0  0  0  0  0  0  0
   32.1408   12.8495   -6.5480 C   0  0  0  0  0  0  0  0  0  0  0  0
   31.4508   12.3280   -5.6730 O   0  0  0  0  0  0  0  0  0  0  0  0
   33.2853   13.2429   -6.3664 O   0  0  0  0  0  0  0  0  0  0  0  0
   33.7640   13.6330   -7.0711 H   0  0  0  0  0  0  0  0  0  0  0  0
 17 18  2  0  0  0
 17 19  1  0  0  0
 17 16  1  0  0  0
 16 15  1  0  0  0
 15 14  1  0  0  0
 14 13  1  0  0  0
 13  1  1  0  0  0
  1  2  1  0  0  0
  1  9  1  0  0  0
  2  3  1  0  0  0
  3  4  1  0  0  0
  4  5  1  0  0  0
  4  9  1  0  0  0
  5  6  1  0  0  0
  6  7  2  0  0  0
  6  8  1  0  0  0
  8  9  1  0  0  0
 19 20  1  0  0  0
  5 10  1  0  0  0
  7 11  1  0  0  0
  8 12  1  0  0  0
M  END
> <minimizedAffinity>
-5.68045

$$$$
