3CF8_QUE_A_164


 27 29  0  0  0  0  0  0  0  0999 V2000
   12.8439   16.8455  -10.8345 C   0  0  0  0  0  0  0  0  0  0  0  0
   13.4090   15.8942   -9.9902 C   0  0  0  0  0  0  0  0  0  0  0  0
   14.4575   15.0743  -10.4441 C   0  0  0  0  0  0  0  0  0  0  0  0
   14.9468   15.2130  -11.7519 C   0  0  0  0  0  0  0  0  0  0  0  0
   14.3738   16.1766  -12.5855 C   0  0  0  0  0  0  0  0  0  0  0  0
   13.3281   16.9884  -12.1304 C   0  0  0  0  0  0  0  0  0  0  0  0
   15.0359   14.1241   -9.6015 C   0  0  0  0  0  0  0  0  0  0  0  0
   16.0796   13.3381  -10.0726 C   0  0  0  0  0  0  0  0  0  0  0  0
   16.5304   13.4909  -11.3911 C   0  0  0  0  0  0  0  0  0  0  0  0
   15.9780   14.4306  -12.2479 O   0  0  0  0  0  0  0  0  0  0  0  0
   14.6570   13.9819   -8.4378 O   0  0  0  0  0  0  0  0  0  0  0  0
   16.6531   12.4077   -9.2408 O   0  0  0  0  0  0  0  0  0  0  0  0
   12.7720   17.9328  -12.9468 O   0  0  0  0  0  0  0  0  0  0  0  0
   12.9191   15.7887   -8.7214 O   0  0  0  0  0  0  0  0  0  0  0  0
   16.3450   12.3129   -8.3609 H   0  0  0  0  0  0  0  0  0  0  0  0
   12.0724   18.4709  -12.6321 H   0  0  0  0  0  0  0  0  0  0  0  0
   12.2198   16.3459   -8.4413 H   0  0  0  0  0  0  0  0  0  0  0  0
   17.5942   12.6889  -11.7995 C   0  0  0  0  0  0  0  0  0  0  0  0
   17.4065   11.3534  -12.1677 C   0  0  0  0  0  0  0  0  0  0  0  0
   18.5086   10.5810  -12.5446 C   0  0  0  0  0  0  0  0  0  0  0  0
   19.7937   11.1384  -12.5485 C   0  0  0  0  0  0  0  0  0  0  0  0
   19.9865   12.4662  -12.1725 C   0  0  0  0  0  0  0  0  0  0  0  0
   18.8821   13.2399  -11.7929 C   0  0  0  0  0  0  0  0  0  0  0  0
   21.2410   12.9980  -12.1805 O   0  0  0  0  0  0  0  0  0  0  0  0
   20.8654   10.3925  -12.9176 O   0  0  0  0  0  0  0  0  0  0  0  0
   21.9719   12.4704  -12.4364 H   0  0  0  0  0  0  0  0  0  0  0  0
   20.7485    9.4984  -13.1725 H   0  0  0  0  0  0  0  0  0  0  0  0
  1  2  2  0  0  0
  1  6  1  0  0  0
  2  3  1  0  0  0
  2 14  1  0  0  0
  3  4  2  0  0  0
  3  7  1  0  0  0
  4  5  1  0  0  0
  4 10  1  0  0  0
  5  6  2  0  0  0
  6 13  1  0  0  0
  7  8  1  0  0  0
  7 11  2  0  0  0
  8  9  2  0  0  0
  8 12  1  0  0  0
  9 18  1  0  0  0
  9 10  1  0  0  0
 18 19  2  0  0  0
 18 23  1  0  0  0
 19 20  1  0  0  0
 20 21  2  0  0  0
 21 22  1  0  0  0
 21 25  1  0  0  0
 22 23  2  0  0  0
 22 24  1  0  0  0
 24 26  1  0  0  0
 25 27  1  0  0  0
 12 15  1  0  0  0
 13 16  1  0  0  0
 14 17  1  0  0  0
M  END
> <minimizedAffinity>
-9.71132

$$$$
3CF8_QUE_A_164


 27 29  0  0  0  0  0  0  0  0999 V2000
   20.1129   12.6088  -12.0690 C   0  0  0  0  0  0  0  0  0  0  0  0
   18.8679   12.0718  -11.7546 C   0  0  0  0  0  0  0  0  0  0  0  0
   17.7593   12.9144  -11.5586 C   0  0  0  0  0  0  0  0  0  0  0  0
   17.8985   14.3050  -11.6845 C   0  0  0  0  0  0  0  0  0  0  0  0
   19.1529   14.8288  -12.0067 C   0  0  0  0  0  0  0  0  0  0  0  0
   20.2544   13.9863  -12.1979 C   0  0  0  0  0  0  0  0  0  0  0  0
   16.5055   12.3840  -11.2520 C   0  0  0  0  0  0  0  0  0  0  0  0
   15.4254   13.2397  -11.0780 C   0  0  0  0  0  0  0  0  0  0  0  0
   15.6052   14.6253  -11.1926 C   0  0  0  0  0  0  0  0  0  0  0  0
   16.8381   15.1790  -11.5019 O   0  0  0  0  0  0  0  0  0  0  0  0
   16.3284   11.1687  -11.1550 O   0  0  0  0  0  0  0  0  0  0  0  0
   14.1902   12.7168  -10.7828 O   0  0  0  0  0  0  0  0  0  0  0  0
   21.4795   14.5011  -12.5167 O   0  0  0  0  0  0  0  0  0  0  0  0
   18.7609   10.7159  -11.6482 O   0  0  0  0  0  0  0  0  0  0  0  0
   14.0798   11.7893  -10.7083 H   0  0  0  0  0  0  0  0  0  0  0  0
   22.2102   13.9282  -12.6424 H   0  0  0  0  0  0  0  0  0  0  0  0
   19.5136   10.1745  -11.7831 H   0  0  0  0  0  0  0  0  0  0  0  0
   14.4804   15.4311  -11.0283 C   0  0  0  0  0  0  0  0  0  0  0  0
   13.9139   16.1269  -12.1003 C   0  0  0  0  0  0  0  0  0  0  0  0
   12.8015   16.9441  -11.8808 C   0  0  0  0  0  0  0  0  0  0  0  0
   12.2605   17.0703  -10.5949 C   0  0  0  0  0  0  0  0  0  0  0  0
   12.8282   16.3865   -9.5218 C   0  0  0  0  0  0  0  0  0  0  0  0
   13.9443   15.5688   -9.7415 C   0  0  0  0  0  0  0  0  0  0  0  0
   12.2931   16.5164   -8.2754 O   0  0  0  0  0  0  0  0  0  0  0  0
   11.1782   17.8599  -10.3789 O   0  0  0  0  0  0  0  0  0  0  0  0
   11.5465   17.0663   -8.1411 H   0  0  0  0  0  0  0  0  0  0  0  0
   10.7876   18.3248  -11.0925 H   0  0  0  0  0  0  0  0  0  0  0  0
  1  2  2  0  0  0
  1  6  1  0  0  0
  2  3  1  0  0  0
  2 14  1  0  0  0
  3  4  2  0  0  0
  3  7  1  0  0  0
  4  5  1  0  0  0
  4 10  1  0  0  0
  5  6  2  0  0  0
  6 13  1  0  0  0
  7  8  1  0  0  0
  7 11  2  0  0  0
  8  9  2  0  0  0
  8 12  1  0  0  0
  9 18  1  0  0  0
  9 10  1  0  0  0
 18 19  2  0  0  0
 18 23  1  0  0  0
 19 20  1  0  0  0
 20 21  2  0  0  0
 21 22  1  0  0  0
 21 25  1  0  0  0
 22 23  2  0  0  0
 22 24  1  0  0  0
 24 26  1  0  0  0
 25 27  1  0  0  0
 12 15  1  0  0  0
 13 16  1  0  0  0
 14 17  1  0  0  0
M  END
> <minimizedAffinity>
-9.42956

$$$$
3CF8_QUE_A_164


 27 29  0  0  0  0  0  0  0  0999 V2000
   18.6764   12.0476  -10.3941 C   0  0  0  0  0  0  0  0  0  0  0  0
   17.6219   12.3694   -9.5445 C   0  0  0  0  0  0  0  0  0  0  0  0
   16.6382   13.2892   -9.9493 C   0  0  0  0  0  0  0  0  0  0  0  0
   16.7092   13.8865  -11.2171 C   0  0  0  0  0  0  0  0  0  0  0  0
   17.7700   13.5488  -12.0611 C   0  0  0  0  0  0  0  0  0  0  0  0
   18.7486   12.6349  -11.6527 C   0  0  0  0  0  0  0  0  0  0  0  0
   15.5727   13.6107   -9.1076 C   0  0  0  0  0  0  0  0  0  0  0  0
   14.6082   14.5118   -9.5397 C   0  0  0  0  0  0  0  0  0  0  0  0
   14.7211   15.1038  -10.8055 C   0  0  0  0  0  0  0  0  0  0  0  0
   15.7658   14.7985  -11.6643 O   0  0  0  0  0  0  0  0  0  0  0  0
   15.4542   13.0942   -7.9953 O   0  0  0  0  0  0  0  0  0  0  0  0
   13.5561   14.8228   -8.7135 O   0  0  0  0  0  0  0  0  0  0  0  0
   19.7832   12.3036  -12.4818 O   0  0  0  0  0  0  0  0  0  0  0  0
   17.5741   11.7658   -8.3220 O   0  0  0  0  0  0  0  0  0  0  0  0
   13.4891   14.4220   -7.8692 H   0  0  0  0  0  0  0  0  0  0  0  0
   20.4328   11.6907  -12.1985 H   0  0  0  0  0  0  0  0  0  0  0  0
   18.2410   11.1561   -8.0742 H   0  0  0  0  0  0  0  0  0  0  0  0
   13.7118   15.9835  -11.1915 C   0  0  0  0  0  0  0  0  0  0  0  0
   13.5417   16.3643  -12.5258 C   0  0  0  0  0  0  0  0  0  0  0  0
   12.5316   17.2704  -12.8606 C   0  0  0  0  0  0  0  0  0  0  0  0
   11.6983   17.7984  -11.8660 C   0  0  0  0  0  0  0  0  0  0  0  0
   11.8709   17.4292  -10.5335 C   0  0  0  0  0  0  0  0  0  0  0  0
   12.8846   16.5224  -10.1978 C   0  0  0  0  0  0  0  0  0  0  0  0
   11.0541   17.9488   -9.5747 O   0  0  0  0  0  0  0  0  0  0  0  0
   10.7142   18.6753  -12.1880 O   0  0  0  0  0  0  0  0  0  0  0  0
   10.3796   18.5545   -9.8117 H   0  0  0  0  0  0  0  0  0  0  0  0
   10.5882   18.9312  -13.0805 H   0  0  0  0  0  0  0  0  0  0  0  0
  1  2  2  0  0  0
  1  6  1  0  0  0
  2  3  1  0  0  0
  2 14  1  0  0  0
  3  4  2  0  0  0
  3  7  1  0  0  0
  4  5  1  0  0  0
  4 10  1  0  0  0
  5  6  2  0  0  0
  6 13  1  0  0  0
  7  8  1  0  0  0
  7 11  2  0  0  0
  8  9  2  0  0  0
  8 12  1  0  0  0
  9 18  1  0  0  0
  9 10  1  0  0  0
 18 19  2  0  0  0
 18 23  1  0  0  0
 19 20  1  0  0  0
 20 21  2  0  0  0
 21 22  1  0  0  0
 21 25  1  0  0  0
 22 23  2  0  0  0
 22 24  1  0  0  0
 24 26  1  0  0  0
 25 27  1  0  0  0
 12 15  1  0  0  0
 13 16  1  0  0  0
 14 17  1  0  0  0
M  END
> <minimizedAffinity>
-9.28112

$$$$
3CF8_QUE_A_164


 27 29  0  0  0  0  0  0  0  0999 V2000
   19.5989   11.6423  -12.2629 C   0  0  0  0  0  0  0  0  0  0  0  0
   19.5517   13.0321  -12.2023 C   0  0  0  0  0  0  0  0  0  0  0  0
   18.3261   13.6938  -12.0083 C   0  0  0  0  0  0  0  0  0  0  0  0
   17.1403   12.9569  -11.8683 C   0  0  0  0  0  0  0  0  0  0  0  0
   17.2044   11.5625  -11.9250 C   0  0  0  0  0  0  0  0  0  0  0  0
   18.4263   10.9081  -12.1214 C   0  0  0  0  0  0  0  0  0  0  0  0
   18.2708   15.0864  -11.9373 C   0  0  0  0  0  0  0  0  0  0  0  0
   17.0482   15.7121  -11.7306 C   0  0  0  0  0  0  0  0  0  0  0  0
   15.8807   14.9450  -11.6141 C   0  0  0  0  0  0  0  0  0  0  0  0
   15.9072   13.5601  -11.6751 O   0  0  0  0  0  0  0  0  0  0  0  0
   19.2880   15.7752  -12.0302 O   0  0  0  0  0  0  0  0  0  0  0  0
   16.9953   17.0824  -11.6541 O   0  0  0  0  0  0  0  0  0  0  0  0
   18.4867    9.5438  -12.1727 O   0  0  0  0  0  0  0  0  0  0  0  0
   20.7218   13.7213  -12.3321 O   0  0  0  0  0  0  0  0  0  0  0  0
   17.7810   17.5867  -11.7331 H   0  0  0  0  0  0  0  0  0  0  0  0
   19.3097    9.1159  -12.3046 H   0  0  0  0  0  0  0  0  0  0  0  0
   21.5263   13.2586  -12.4606 H   0  0  0  0  0  0  0  0  0  0  0  0
   14.6876   15.6280  -11.3867 C   0  0  0  0  0  0  0  0  0  0  0  0
   14.0326   16.3202  -12.4094 C   0  0  0  0  0  0  0  0  0  0  0  0
   12.8521   17.0130  -12.1266 C   0  0  0  0  0  0  0  0  0  0  0  0
   12.3310   17.0191  -10.8263 C   0  0  0  0  0  0  0  0  0  0  0  0
   12.9862   16.3388   -9.8018 C   0  0  0  0  0  0  0  0  0  0  0  0
   14.1704   15.6460  -10.0850 C   0  0  0  0  0  0  0  0  0  0  0  0
   12.4697   16.3512   -8.5410 O   0  0  0  0  0  0  0  0  0  0  0  0
   11.1831   17.6874  -10.5490 O   0  0  0  0  0  0  0  0  0  0  0  0
   11.6769   16.8183   -8.3640 H   0  0  0  0  0  0  0  0  0  0  0  0
   10.7334   18.1486  -11.2295 H   0  0  0  0  0  0  0  0  0  0  0  0
  1  2  2  0  0  0
  1  6  1  0  0  0
  2  3  1  0  0  0
  2 14  1  0  0  0
  3  4  2  0  0  0
  3  7  1  0  0  0
  4  5  1  0  0  0
  4 10  1  0  0  0
  5  6  2  0  0  0
  6 13  1  0  0  0
  7  8  1  0  0  0
  7 11  2  0  0  0
  8  9  2  0  0  0
  8 12  1  0  0  0
  9 18  1  0  0  0
  9 10  1  0  0  0
 18 19  2  0  0  0
 18 23  1  0  0  0
 19 20  1  0  0  0
 20 21  2  0  0  0
 21 22  1  0  0  0
 21 25  1  0  0  0
 22 23  2  0  0  0
 22 24  1  0  0  0
 24 26  1  0  0  0
 25 27  1  0  0  0
 12 15  1  0  0  0
 13 16  1  0  0  0
 14 17  1  0  0  0
M  END
> <minimizedAffinity>
-9.14664

$$$$
3CF8_QUE_A_164


 27 29  0  0  0  0  0  0  0  0999 V2000
   17.8720   10.5147  -10.0281 C   0  0  0  0  0  0  0  0  0  0  0  0
   17.0617   11.3764   -9.2946 C   0  0  0  0  0  0  0  0  0  0  0  0
   16.5106   12.5205   -9.8987 C   0  0  0  0  0  0  0  0  0  0  0  0
   16.7690   12.7995  -11.2494 C   0  0  0  0  0  0  0  0  0  0  0  0
   17.5790   11.9220  -11.9743 C   0  0  0  0  0  0  0  0  0  0  0  0
   18.1280   10.7860  -11.3679 C   0  0  0  0  0  0  0  0  0  0  0  0
   15.6898   13.3850   -9.1733 C   0  0  0  0  0  0  0  0  0  0  0  0
   15.1478   14.4996   -9.8001 C   0  0  0  0  0  0  0  0  0  0  0  0
   15.4428   14.7576  -11.1461 C   0  0  0  0  0  0  0  0  0  0  0  0
   16.2503   13.9129  -11.8921 O   0  0  0  0  0  0  0  0  0  0  0  0
   15.4144   13.1691   -7.9920 O   0  0  0  0  0  0  0  0  0  0  0  0
   14.3346   15.3464   -9.0875 O   0  0  0  0  0  0  0  0  0  0  0  0
   18.9169    9.9272  -12.0805 O   0  0  0  0  0  0  0  0  0  0  0  0
   16.8204   11.0743   -7.9863 O   0  0  0  0  0  0  0  0  0  0  0  0
   14.1432   15.1657   -8.1882 H   0  0  0  0  0  0  0  0  0  0  0  0
   19.2794    9.1697  -11.6648 H   0  0  0  0  0  0  0  0  0  0  0  0
   17.1987   10.3063   -7.6054 H   0  0  0  0  0  0  0  0  0  0  0  0
   14.8528   15.8791  -11.7256 C   0  0  0  0  0  0  0  0  0  0  0  0
   13.5227   15.8682  -12.1557 C   0  0  0  0  0  0  0  0  0  0  0  0
   12.9830   17.0093  -12.7557 C   0  0  0  0  0  0  0  0  0  0  0  0
   13.7701   18.1548  -12.9305 C   0  0  0  0  0  0  0  0  0  0  0  0
   15.0993   18.1665  -12.5124 C   0  0  0  0  0  0  0  0  0  0  0  0
   15.6408   17.0221  -11.9127 C   0  0  0  0  0  0  0  0  0  0  0  0
   15.8553   19.2865  -12.6871 O   0  0  0  0  0  0  0  0  0  0  0  0
   13.2482   19.2657  -13.5091 O   0  0  0  0  0  0  0  0  0  0  0  0
   15.4818   20.0458  -13.0896 H   0  0  0  0  0  0  0  0  0  0  0  0
   12.3557   19.2701  -13.7944 H   0  0  0  0  0  0  0  0  0  0  0  0
  1  2  2  0  0  0
  1  6  1  0  0  0
  2  3  1  0  0  0
  2 14  1  0  0  0
  3  4  2  0  0  0
  3  7  1  0  0  0
  4  5  1  0  0  0
  4 10  1  0  0  0
  5  6  2  0  0  0
  6 13  1  0  0  0
  7  8  1  0  0  0
  7 11  2  0  0  0
  8  9  2  0  0  0
  8 12  1  0  0  0
  9 18  1  0  0  0
  9 10  1  0  0  0
 18 19  2  0  0  0
 18 23  1  0  0  0
 19 20  1  0  0  0
 20 21  2  0  0  0
 21 22  1  0  0  0
 21 25  1  0  0  0
 22 23  2  0  0  0
 22 24  1  0  0  0
 24 26  1  0  0  0
 25 27  1  0  0  0
 12 15  1  0  0  0
 13 16  1  0  0  0
 14 17  1  0  0  0
M  END
> <minimizedAffinity>
-8.95237

$$$$
3CF8_QUE_A_164


 27 29  0  0  0  0  0  0  0  0999 V2000
   13.7154   10.9555   -7.8503 C   0  0  0  0  0  0  0  0  0  0  0  0
   14.6178   10.7371   -8.8872 C   0  0  0  0  0  0  0  0  0  0  0  0
   15.0662   11.8106   -9.6772 C   0  0  0  0  0  0  0  0  0  0  0  0
   14.6111   13.1132   -9.4221 C   0  0  0  0  0  0  0  0  0  0  0  0
   13.7105   13.3176   -8.3739 C   0  0  0  0  0  0  0  0  0  0  0  0
   13.2645   12.2455   -7.5921 C   0  0  0  0  0  0  0  0  0  0  0  0
   15.9777   11.6020  -10.7130 C   0  0  0  0  0  0  0  0  0  0  0  0
   16.4139   12.6834  -11.4675 C   0  0  0  0  0  0  0  0  0  0  0  0
   15.9236   13.9685  -11.1968 C   0  0  0  0  0  0  0  0  0  0  0  0
   15.0221   14.2053  -10.1704 O   0  0  0  0  0  0  0  0  0  0  0  0
   16.4243   10.4806  -10.9597 O   0  0  0  0  0  0  0  0  0  0  0  0
   17.3162   12.4785  -12.4826 O   0  0  0  0  0  0  0  0  0  0  0  0
   12.3863   12.4489   -6.5649 O   0  0  0  0  0  0  0  0  0  0  0  0
   15.0498    9.4616   -9.1055 O   0  0  0  0  0  0  0  0  0  0  0  0
   17.6383   11.6159  -12.6561 H   0  0  0  0  0  0  0  0  0  0  0  0
   12.0941   11.7242   -6.0478 H   0  0  0  0  0  0  0  0  0  0  0  0
   14.7370    8.7622   -8.5661 H   0  0  0  0  0  0  0  0  0  0  0  0
   16.4142   15.0161  -11.9735 C   0  0  0  0  0  0  0  0  0  0  0  0
   15.7012   15.5137  -13.0682 C   0  0  0  0  0  0  0  0  0  0  0  0
   16.2468   16.5480  -13.8336 C   0  0  0  0  0  0  0  0  0  0  0  0
   17.5020   17.0795  -13.5105 C   0  0  0  0  0  0  0  0  0  0  0  0
   18.2205   16.5795  -12.4264 C   0  0  0  0  0  0  0  0  0  0  0  0
   17.6744   15.5416  -11.6603 C   0  0  0  0  0  0  0  0  0  0  0  0
   19.4402   17.1046  -12.1211 O   0  0  0  0  0  0  0  0  0  0  0  0
   18.0329   18.0863  -14.2492 O   0  0  0  0  0  0  0  0  0  0  0  0
   19.7949   17.7987  -12.6411 H   0  0  0  0  0  0  0  0  0  0  0  0
   17.5593   18.4309  -14.9806 H   0  0  0  0  0  0  0  0  0  0  0  0
  1  2  2  0  0  0
  1  6  1  0  0  0
  2  3  1  0  0  0
  2 14  1  0  0  0
  3  4  2  0  0  0
  3  7  1  0  0  0
  4  5  1  0  0  0
  4 10  1  0  0  0
  5  6  2  0  0  0
  6 13  1  0  0  0
  7  8  1  0  0  0
  7 11  2  0  0  0
  8  9  2  0  0  0
  8 12  1  0  0  0
  9 18  1  0  0  0
  9 10  1  0  0  0
 18 19  2  0  0  0
 18 23  1  0  0  0
 19 20  1  0  0  0
 20 21  2  0  0  0
 21 22  1  0  0  0
 21 25  1  0  0  0
 22 23  2  0  0  0
 22 24  1  0  0  0
 24 26  1  0  0  0
 25 27  1  0  0  0
 12 15  1  0  0  0
 13 16  1  0  0  0
 14 17  1  0  0  0
M  END
> <minimizedAffinity>
-8.93516

$$$$
3CF8_QUE_A_164


 27 29  0  0  0  0  0  0  0  0999 V2000
   14.1076   10.6516   -7.6712 C   0  0  0  0  0  0  0  0  0  0  0  0
   14.9666   10.8793   -8.7424 C   0  0  0  0  0  0  0  0  0  0  0  0
   14.9036   12.0873   -9.4597 C   0  0  0  0  0  0  0  0  0  0  0  0
   13.9767   13.0763   -9.0968 C   0  0  0  0  0  0  0  0  0  0  0  0
   13.1256   12.8359   -8.0154 C   0  0  0  0  0  0  0  0  0  0  0  0
   13.1898   11.6307   -7.3062 C   0  0  0  0  0  0  0  0  0  0  0  0
   15.7670   12.3276  -10.5293 C   0  0  0  0  0  0  0  0  0  0  0  0
   15.6915   13.5357  -11.2103 C   0  0  0  0  0  0  0  0  0  0  0  0
   14.7403   14.4936  -10.8323 C   0  0  0  0  0  0  0  0  0  0  0  0
   13.8741   14.2836   -9.7703 O   0  0  0  0  0  0  0  0  0  0  0  0
   16.6136   11.5000  -10.8700 O   0  0  0  0  0  0  0  0  0  0  0  0
   16.5460   13.7745  -12.2587 O   0  0  0  0  0  0  0  0  0  0  0  0
   12.3584   11.3996   -6.2464 O   0  0  0  0  0  0  0  0  0  0  0  0
   15.8634    9.9036   -9.0661 O   0  0  0  0  0  0  0  0  0  0  0  0
   17.1785   13.1282  -12.5041 H   0  0  0  0  0  0  0  0  0  0  0  0
   12.4098   10.5894   -5.7786 H   0  0  0  0  0  0  0  0  0  0  0  0
   15.8868    9.1068   -8.5736 H   0  0  0  0  0  0  0  0  0  0  0  0
   14.7269   15.6942  -11.5394 C   0  0  0  0  0  0  0  0  0  0  0  0
   13.7466   15.9704  -12.4969 C   0  0  0  0  0  0  0  0  0  0  0  0
   13.7904   17.1777  -13.1997 C   0  0  0  0  0  0  0  0  0  0  0  0
   14.8124   18.1030  -12.9513 C   0  0  0  0  0  0  0  0  0  0  0  0
   15.7972   17.8272  -12.0049 C   0  0  0  0  0  0  0  0  0  0  0  0
   15.7543   16.6163  -11.3018 C   0  0  0  0  0  0  0  0  0  0  0  0
   16.7862   18.7349  -11.7711 O   0  0  0  0  0  0  0  0  0  0  0  0
   14.8557   19.2777  -13.6290 O   0  0  0  0  0  0  0  0  0  0  0  0
   16.8041   19.5414  -12.2479 H   0  0  0  0  0  0  0  0  0  0  0  0
   14.1991   19.4745  -14.2678 H   0  0  0  0  0  0  0  0  0  0  0  0
  1  2  2  0  0  0
  1  6  1  0  0  0
  2  3  1  0  0  0
  2 14  1  0  0  0
  3  4  2  0  0  0
  3  7  1  0  0  0
  4  5  1  0  0  0
  4 10  1  0  0  0
  5  6  2  0  0  0
  6 13  1  0  0  0
  7  8  1  0  0  0
  7 11  2  0  0  0
  8  9  2  0  0  0
  8 12  1  0  0  0
  9 18  1  0  0  0
  9 10  1  0  0  0
 18 19  2  0  0  0
 18 23  1  0  0  0
 19 20  1  0  0  0
 20 21  2  0  0  0
 21 22  1  0  0  0
 21 25  1  0  0  0
 22 23  2  0  0  0
 22 24  1  0  0  0
 24 26  1  0  0  0
 25 27  1  0  0  0
 12 15  1  0  0  0
 13 16  1  0  0  0
 14 17  1  0  0  0
M  END
> <minimizedAffinity>
-8.85943

$$$$
3CF8_QUE_A_164


 27 29  0  0  0  0  0  0  0  0999 V2000
   19.4591   13.9241  -12.1439 C   0  0  0  0  0  0  0  0  0  0  0  0
   19.1203   15.2737  -12.1757 C   0  0  0  0  0  0  0  0  0  0  0  0
   17.7704   15.6674  -12.1959 C   0  0  0  0  0  0  0  0  0  0  0  0
   16.7529   14.7013  -12.1783 C   0  0  0  0  0  0  0  0  0  0  0  0
   17.1085   13.3508  -12.1399 C   0  0  0  0  0  0  0  0  0  0  0  0
   18.4536   12.9635  -12.1231 C   0  0  0  0  0  0  0  0  0  0  0  0
   17.4217   17.0184  -12.2187 C   0  0  0  0  0  0  0  0  0  0  0  0
   16.0801   17.3778  -12.2238 C   0  0  0  0  0  0  0  0  0  0  0  0
   15.0900   16.3854  -12.2249 C   0  0  0  0  0  0  0  0  0  0  0  0
   15.4079   15.0362  -12.1967 O   0  0  0  0  0  0  0  0  0  0  0  0
   18.2788   17.9033  -12.2105 O   0  0  0  0  0  0  0  0  0  0  0  0
   15.7374   18.7077  -12.2395 O   0  0  0  0  0  0  0  0  0  0  0  0
   18.7986   11.6418  -12.0818 O   0  0  0  0  0  0  0  0  0  0  0  0
   20.1307   16.1902  -12.1826 O   0  0  0  0  0  0  0  0  0  0  0  0
   16.4062   19.3640  -12.2386 H   0  0  0  0  0  0  0  0  0  0  0  0
   19.7020   11.3935  -12.0708 H   0  0  0  0  0  0  0  0  0  0  0  0
   21.0229   15.9041  -12.1688 H   0  0  0  0  0  0  0  0  0  0  0  0
   13.7622   16.8077  -12.2089 C   0  0  0  0  0  0  0  0  0  0  0  0
   13.0726   17.1037  -13.3883 C   0  0  0  0  0  0  0  0  0  0  0  0
   11.7498   17.5496  -13.3199 C   0  0  0  0  0  0  0  0  0  0  0  0
   11.1201   17.7048  -12.0782 C   0  0  0  0  0  0  0  0  0  0  0  0
   11.8072   17.4207  -10.8998 C   0  0  0  0  0  0  0  0  0  0  0  0
   13.1336   16.9754  -10.9683 C   0  0  0  0  0  0  0  0  0  0  0  0
   11.1843   17.5748   -9.6977 O   0  0  0  0  0  0  0  0  0  0  0  0
    9.8347   18.1339  -12.0083 O   0  0  0  0  0  0  0  0  0  0  0  0
   10.2968   17.8733   -9.6648 H   0  0  0  0  0  0  0  0  0  0  0  0
    9.3622   18.3282  -12.7938 H   0  0  0  0  0  0  0  0  0  0  0  0
  1  2  2  0  0  0
  1  6  1  0  0  0
  2  3  1  0  0  0
  2 14  1  0  0  0
  3  4  2  0  0  0
  3  7  1  0  0  0
  4  5  1  0  0  0
  4 10  1  0  0  0
  5  6  2  0  0  0
  6 13  1  0  0  0
  7  8  1  0  0  0
  7 11  2  0  0  0
  8  9  2  0  0  0
  8 12  1  0  0  0
  9 18  1  0  0  0
  9 10  1  0  0  0
 18 19  2  0  0  0
 18 23  1  0  0  0
 19 20  1  0  0  0
 20 21  2  0  0  0
 21 22  1  0  0  0
 21 25  1  0  0  0
 22 23  2  0  0  0
 22 24  1  0  0  0
 24 26  1  0  0  0
 25 27  1  0  0  0
 12 15  1  0  0  0
 13 16  1  0  0  0
 14 17  1  0  0  0
M  END
> <minimizedAffinity>
-8.72124

$$$$
3CF8_QUE_A_164


 27 29  0  0  0  0  0  0  0  0999 V2000
   14.7010   17.6730  -13.5121 C   0  0  0  0  0  0  0  0  0  0  0  0
   15.7235   16.7799  -13.2053 C   0  0  0  0  0  0  0  0  0  0  0  0
   15.5413   15.8065  -12.2069 C   0  0  0  0  0  0  0  0  0  0  0  0
   14.3232   15.7241  -11.5152 C   0  0  0  0  0  0  0  0  0  0  0  0
   13.3041   16.6233  -11.8386 C   0  0  0  0  0  0  0  0  0  0  0  0
   13.4911   17.5926  -12.8311 C   0  0  0  0  0  0  0  0  0  0  0  0
   16.5578   14.9013  -11.8991 C   0  0  0  0  0  0  0  0  0  0  0  0
   16.3442   13.9415  -10.9182 C   0  0  0  0  0  0  0  0  0  0  0  0
   15.1214   13.9006  -10.2340 C   0  0  0  0  0  0  0  0  0  0  0  0
   14.0924   14.7837  -10.5233 O   0  0  0  0  0  0  0  0  0  0  0  0
   17.6356   14.9185  -12.4957 O   0  0  0  0  0  0  0  0  0  0  0  0
   17.3426   13.0466  -10.6204 O   0  0  0  0  0  0  0  0  0  0  0  0
   12.4911   18.4685  -13.1481 O   0  0  0  0  0  0  0  0  0  0  0  0
   16.8930   16.8779  -13.9009 O   0  0  0  0  0  0  0  0  0  0  0  0
   18.1567   13.0818  -11.0831 H   0  0  0  0  0  0  0  0  0  0  0  0
   12.6269   19.1135  -13.8141 H   0  0  0  0  0  0  0  0  0  0  0  0
   16.9913   17.5347  -14.5619 H   0  0  0  0  0  0  0  0  0  0  0  0
   14.9587   12.9021   -9.2758 C   0  0  0  0  0  0  0  0  0  0  0  0
   15.0318   13.1799   -7.9077 C   0  0  0  0  0  0  0  0  0  0  0  0
   14.8887   12.1401   -6.9847 C   0  0  0  0  0  0  0  0  0  0  0  0
   14.6791   10.8274   -7.4264 C   0  0  0  0  0  0  0  0  0  0  0  0
   14.6157   10.5447   -8.7894 C   0  0  0  0  0  0  0  0  0  0  0  0
   14.7609   11.5866   -9.7145 C   0  0  0  0  0  0  0  0  0  0  0  0
   14.4108    9.2641   -9.2074 O   0  0  0  0  0  0  0  0  0  0  0  0
   14.5359    9.8162   -6.5330 O   0  0  0  0  0  0  0  0  0  0  0  0
   14.3151    8.5757   -8.5790 H   0  0  0  0  0  0  0  0  0  0  0  0
   14.5767    9.9938   -5.6139 H   0  0  0  0  0  0  0  0  0  0  0  0
  1  2  2  0  0  0
  1  6  1  0  0  0
  2  3  1  0  0  0
  2 14  1  0  0  0
  3  4  2  0  0  0
  3  7  1  0  0  0
  4  5  1  0  0  0
  4 10  1  0  0  0
  5  6  2  0  0  0
  6 13  1  0  0  0
  7  8  1  0  0  0
  7 11  2  0  0  0
  8  9  2  0  0  0
  8 12  1  0  0  0
  9 18  1  0  0  0
  9 10  1  0  0  0
 18 19  2  0  0  0
 18 23  1  0  0  0
 19 20  1  0  0  0
 20 21  2  0  0  0
 21 22  1  0  0  0
 21 25  1  0  0  0
 22 23  2  0  0  0
 22 24  1  0  0  0
 24 26  1  0  0  0
 25 27  1  0  0  0
 12 15  1  0  0  0
 13 16  1  0  0  0
 14 17  1  0  0  0
M  END
> <minimizedAffinity>
-8.69845

$$$$
3CF8_QUE_A_164


 27 29  0  0  0  0  0  0  0  0999 V2000
   15.6467   10.8212   -7.0673 C   0  0  0  0  0  0  0  0  0  0  0  0
   16.3706   11.5144   -8.0330 C   0  0  0  0  0  0  0  0  0  0  0  0
   15.7562   12.5271   -8.7911 C   0  0  0  0  0  0  0  0  0  0  0  0
   14.4081   12.8511   -8.5753 C   0  0  0  0  0  0  0  0  0  0  0  0
   13.6963   12.1509   -7.5981 C   0  0  0  0  0  0  0  0  0  0  0  0
   14.3112   11.1415   -6.8481 C   0  0  0  0  0  0  0  0  0  0  0  0
   16.4769   13.2332   -9.7551 C   0  0  0  0  0  0  0  0  0  0  0  0
   15.8477   14.2380  -10.4786 C   0  0  0  0  0  0  0  0  0  0  0  0
   14.4941   14.5220  -10.2499 C   0  0  0  0  0  0  0  0  0  0  0  0
   13.7557   13.8403   -9.2947 O   0  0  0  0  0  0  0  0  0  0  0  0
   17.6688   13.0016   -9.9636 O   0  0  0  0  0  0  0  0  0  0  0  0
   16.5592   14.9372  -11.4226 O   0  0  0  0  0  0  0  0  0  0  0  0
   13.6135   10.4607   -5.8902 O   0  0  0  0  0  0  0  0  0  0  0  0
   17.6818   11.1840   -8.2139 O   0  0  0  0  0  0  0  0  0  0  0  0
   17.4636   14.7403  -11.5685 H   0  0  0  0  0  0  0  0  0  0  0  0
   14.0348    9.7868   -5.3939 H   0  0  0  0  0  0  0  0  0  0  0  0
   18.0695   10.5056   -7.6969 H   0  0  0  0  0  0  0  0  0  0  0  0
   13.9239   15.5548  -10.9915 C   0  0  0  0  0  0  0  0  0  0  0  0
   14.3555   15.8517  -12.2875 C   0  0  0  0  0  0  0  0  0  0  0  0
   13.7712   16.9146  -12.9820 C   0  0  0  0  0  0  0  0  0  0  0  0
   12.7638   17.6813  -12.3824 C   0  0  0  0  0  0  0  0  0  0  0  0
   12.3377   17.3951  -11.0870 C   0  0  0  0  0  0  0  0  0  0  0  0
   12.9247   16.3309  -10.3903 C   0  0  0  0  0  0  0  0  0  0  0  0
   11.3566   18.1473  -10.5141 O   0  0  0  0  0  0  0  0  0  0  0  0
   12.1916   18.7115  -13.0552 O   0  0  0  0  0  0  0  0  0  0  0  0
   10.9717   18.8566  -10.9903 H   0  0  0  0  0  0  0  0  0  0  0  0
   12.4697   18.9137  -13.9269 H   0  0  0  0  0  0  0  0  0  0  0  0
  1  2  2  0  0  0
  1  6  1  0  0  0
  2  3  1  0  0  0
  2 14  1  0  0  0
  3  4  2  0  0  0
  3  7  1  0  0  0
  4  5  1  0  0  0
  4 10  1  0  0  0
  5  6  2  0  0  0
  6 13  1  0  0  0
  7  8  1  0  0  0
  7 11  2  0  0  0
  8  9  2  0  0  0
  8 12  1  0  0  0
  9 18  1  0  0  0
  9 10  1  0  0  0
 18 19  2  0  0  0
 18 23  1  0  0  0
 19 20  1  0  0  0
 20 21  2  0  0  0
 21 22  1  0  0  0
 21 25  1  0  0  0
 22 23  2  0  0  0
 22 24  1  0  0  0
 24 26  1  0  0  0
 25 27  1  0  0  0
 12 15  1  0  0  0
 13 16  1  0  0  0
 14 17  1  0  0  0
M  END
> <minimizedAffinity>
-8.62631

$$$$
