3K97_4CD_A_901


 25 27  0  0  0  0  0  0  0  0999 V2000
   67.4673   79.0727   22.9709 N   0  0  0  0  0  0  0  0  0  0  0  0
   67.9273   80.0177   24.0334 C   0  0  0  0  0  0  0  0  0  0  0  0
   67.5872   81.4005   23.4466 C   0  0  0  0  0  0  0  0  0  0  0  0
   67.6641   81.2247   21.9313 C   0  0  0  0  0  0  0  0  0  0  0  0
   67.2453   79.7793   21.7008 C   0  0  0  0  0  0  0  0  0  0  0  0
   67.1625   77.6910   23.0556 C   0  0  0  0  0  0  0  0  0  0  0  0
   66.7079   77.0392   22.1140 O   0  0  0  0  0  0  0  0  0  0  0  0
   68.6840   76.5800   24.7620 C   0  0  0  0  0  0  0  0  0  0  0  0
   67.7576   75.5307   26.7874 C   0  0  0  0  0  0  0  0  0  0  0  0
   66.2537   76.5776   25.1492 C   0  0  0  0  0  0  0  0  0  0  0  0
   67.3649   76.9394   24.3401 C   0  0  0  0  0  0  0  0  0  0  0  0
   68.8796   75.8772   25.9843 C   0  0  0  0  0  0  0  0  0  0  0  0
   66.4460   75.8775   26.3707 C   0  0  0  0  0  0  0  0  0  0  0  0
   64.9763   76.8745   24.8153 O   0  0  0  0  0  0  0  0  0  0  0  0
   67.9345   74.8638   27.9666 O   0  0  0  0  0  0  0  0  0  0  0  0
   70.4874   75.4667   26.4522 Cl  0  0  0  0  0  0  0  0  0  0  0  0
   64.7950   77.3353   24.0198 H   0  0  0  0  0  0  0  0  0  0  0  0
   68.7973   74.6314   28.2485 H   0  0  0  0  0  0  0  0  0  0  0  0
   69.4421   79.9315   24.3966 C   0  0  0  0  0  0  0  0  0  0  0  0
   70.4209   79.4606   23.4382 C   0  0  0  0  0  0  0  0  0  0  0  0
   71.7960   79.3763   23.7679 C   0  0  0  0  0  0  0  0  0  0  0  0
   72.2414   79.7555   25.0523 C   0  0  0  0  0  0  0  0  0  0  0  0
   69.9193   80.3170   25.7139 C   0  0  0  0  0  0  0  0  0  0  0  0
   71.3148   80.2200   26.0151 C   0  0  0  0  0  0  0  0  0  0  0  0
   69.0067   80.8232   26.8076 C   0  0  0  0  0  0  0  0  0  0  0  0
  1  2  1  0  0  0
  1  5  1  0  0  0
  1  6  1  0  0  0
  2 19  1  0  0  0
  2  3  1  0  0  0
 19 20  2  0  0  0
 19 23  1  0  0  0
 20 21  1  0  0  0
 21 22  2  0  0  0
 22 24  1  0  0  0
 23 24  2  0  0  0
 23 25  1  0  0  0
  8 11  2  0  0  0
  8 12  1  0  0  0
  9 12  2  0  0  0
  9 13  1  0  0  0
  9 15  1  0  0  0
 10 11  1  0  0  0
 10 13  2  0  0  0
 10 14  1  0  0  0
  3  4  1  0  0  0
  4  5  1  0  0  0
 11  6  1  0  0  0
 12 16  1  0  0  0
  6  7  2  0  0  0
 14 17  1  0  0  0
 15 18  1  0  0  0
M  END
> <minimizedAffinity>
-9.19945

$$$$
3K97_4CD_A_901


 25 27  0  0  0  0  0  0  0  0999 V2000
   68.2690   76.4017   25.4328 N   0  0  0  0  0  0  0  0  0  0  0  0
   69.6081   76.3058   24.7762 C   0  0  0  0  0  0  0  0  0  0  0  0
   70.0503   74.8635   25.0863 C   0  0  0  0  0  0  0  0  0  0  0  0
   69.3742   74.5110   26.4097 C   0  0  0  0  0  0  0  0  0  0  0  0
   68.0723   75.3000   26.3862 C   0  0  0  0  0  0  0  0  0  0  0  0
   67.2092   77.3147   25.2033 C   0  0  0  0  0  0  0  0  0  0  0  0
   66.1130   77.2328   25.7595 O   0  0  0  0  0  0  0  0  0  0  0  0
   67.7436   79.7462   24.6900 C   0  0  0  0  0  0  0  0  0  0  0  0
   67.6965   80.5895   22.3775 C   0  0  0  0  0  0  0  0  0  0  0  0
   67.1541   78.2368   22.8378 C   0  0  0  0  0  0  0  0  0  0  0  0
   67.3700   78.4449   24.2273 C   0  0  0  0  0  0  0  0  0  0  0  0
   67.9071   80.8165   23.7660 C   0  0  0  0  0  0  0  0  0  0  0  0
   67.3182   79.3030   21.9129 C   0  0  0  0  0  0  0  0  0  0  0  0
   66.7919   77.0386   22.3237 O   0  0  0  0  0  0  0  0  0  0  0  0
   67.8591   81.6075   21.4809 O   0  0  0  0  0  0  0  0  0  0  0  0
   68.3596   82.3667   24.3701 Cl  0  0  0  0  0  0  0  0  0  0  0  0
   66.6705   76.3028   22.8909 H   0  0  0  0  0  0  0  0  0  0  0  0
   68.1088   82.4597   21.7798 H   0  0  0  0  0  0  0  0  0  0  0  0
   70.6747   77.3282   25.2771 C   0  0  0  0  0  0  0  0  0  0  0  0
   71.1783   77.2870   26.6347 C   0  0  0  0  0  0  0  0  0  0  0  0
   72.1426   78.2179   27.0932 C   0  0  0  0  0  0  0  0  0  0  0  0
   72.6360   79.2138   26.2232 C   0  0  0  0  0  0  0  0  0  0  0  0
   71.1940   78.3607   24.3963 C   0  0  0  0  0  0  0  0  0  0  0  0
   72.1676   79.2857   24.8903 C   0  0  0  0  0  0  0  0  0  0  0  0
   70.7540   78.5179   22.9585 C   0  0  0  0  0  0  0  0  0  0  0  0
  1  2  1  0  0  0
  1  5  1  0  0  0
  1  6  1  0  0  0
  2 19  1  0  0  0
  2  3  1  0  0  0
 19 20  2  0  0  0
 19 23  1  0  0  0
 20 21  1  0  0  0
 21 22  2  0  0  0
 22 24  1  0  0  0
 23 24  2  0  0  0
 23 25  1  0  0  0
  8 11  2  0  0  0
  8 12  1  0  0  0
  9 12  2  0  0  0
  9 13  1  0  0  0
  9 15  1  0  0  0
 10 11  1  0  0  0
 10 13  2  0  0  0
 10 14  1  0  0  0
  3  4  1  0  0  0
  4  5  1  0  0  0
 11  6  1  0  0  0
 12 16  1  0  0  0
  6  7  2  0  0  0
 14 17  1  0  0  0
 15 18  1  0  0  0
M  END
> <minimizedAffinity>
-7.89129

$$$$
3K97_4CD_A_901


 25 27  0  0  0  0  0  0  0  0999 V2000
   68.6934   76.9046   24.9641 N   0  0  0  0  0  0  0  0  0  0  0  0
   67.8989   78.1383   25.2474 C   0  0  0  0  0  0  0  0  0  0  0  0
   66.5358   77.5832   25.7013 C   0  0  0  0  0  0  0  0  0  0  0  0
   66.3888   76.2420   24.9855 C   0  0  0  0  0  0  0  0  0  0  0  0
   67.8165   75.7296   24.8546 C   0  0  0  0  0  0  0  0  0  0  0  0
   70.0974   76.7299   24.8760 C   0  0  0  0  0  0  0  0  0  0  0  0
   70.6342   75.6323   24.7181 O   0  0  0  0  0  0  0  0  0  0  0  0
   71.1188   78.8575   23.9317 C   0  0  0  0  0  0  0  0  0  0  0  0
   72.7668   80.1504   25.2254 C   0  0  0  0  0  0  0  0  0  0  0  0
   71.8157   78.0867   26.1625 C   0  0  0  0  0  0  0  0  0  0  0  0
   71.0244   77.9056   24.9957 C   0  0  0  0  0  0  0  0  0  0  0  0
   71.9885   79.9783   24.0470 C   0  0  0  0  0  0  0  0  0  0  0  0
   72.6835   79.2057   26.2812 C   0  0  0  0  0  0  0  0  0  0  0  0
   71.7882   77.2274   27.2075 O   0  0  0  0  0  0  0  0  0  0  0  0
   73.5983   81.2272   25.3503 O   0  0  0  0  0  0  0  0  0  0  0  0
   72.0678   81.0996   22.7396 Cl  0  0  0  0  0  0  0  0  0  0  0  0
   71.2327   76.4734   27.1795 H   0  0  0  0  0  0  0  0  0  0  0  0
   73.6588   81.8553   24.6576 H   0  0  0  0  0  0  0  0  0  0  0  0
   67.7223   79.1130   24.0422 C   0  0  0  0  0  0  0  0  0  0  0  0
   67.4288   78.6206   22.7119 C   0  0  0  0  0  0  0  0  0  0  0  0
   67.2736   79.5036   21.6151 C   0  0  0  0  0  0  0  0  0  0  0  0
   67.4035   80.8964   21.8028 C   0  0  0  0  0  0  0  0  0  0  0  0
   67.8528   80.5498   24.2158 C   0  0  0  0  0  0  0  0  0  0  0  0
   67.6902   81.4146   23.0875 C   0  0  0  0  0  0  0  0  0  0  0  0
   68.1587   81.1965   25.5476 C   0  0  0  0  0  0  0  0  0  0  0  0
  1  2  1  0  0  0
  1  5  1  0  0  0
  1  6  1  0  0  0
  2 19  1  0  0  0
  2  3  1  0  0  0
 19 20  2  0  0  0
 19 23  1  0  0  0
 20 21  1  0  0  0
 21 22  2  0  0  0
 22 24  1  0  0  0
 23 24  2  0  0  0
 23 25  1  0  0  0
  8 11  2  0  0  0
  8 12  1  0  0  0
  9 12  2  0  0  0
  9 13  1  0  0  0
  9 15  1  0  0  0
 10 11  1  0  0  0
 10 13  2  0  0  0
 10 14  1  0  0  0
  3  4  1  0  0  0
  4  5  1  0  0  0
 11  6  1  0  0  0
 12 16  1  0  0  0
  6  7  2  0  0  0
 14 17  1  0  0  0
 15 18  1  0  0  0
M  END
> <minimizedAffinity>
-7.33959

$$$$
3K97_4CD_A_901


 25 27  0  0  0  0  0  0  0  0999 V2000
   68.7636   76.9529   24.9847 N   0  0  0  0  0  0  0  0  0  0  0  0
   68.0052   78.1115   25.5468 C   0  0  0  0  0  0  0  0  0  0  0  0
   66.5770   77.5563   25.7017 C   0  0  0  0  0  0  0  0  0  0  0  0
   66.4395   76.4907   24.6161 C   0  0  0  0  0  0  0  0  0  0  0  0
   67.8463   75.9290   24.4633 C   0  0  0  0  0  0  0  0  0  0  0  0
   70.1589   76.7034   24.9691 C   0  0  0  0  0  0  0  0  0  0  0  0
   70.6548   75.6587   24.5443 O   0  0  0  0  0  0  0  0  0  0  0  0
   71.5791   77.6377   26.8589 C   0  0  0  0  0  0  0  0  0  0  0  0
   72.9741   79.6380   26.5214 C   0  0  0  0  0  0  0  0  0  0  0  0
   71.5980   78.7751   24.6766 C   0  0  0  0  0  0  0  0  0  0  0  0
   71.1249   77.7212   25.5047 C   0  0  0  0  0  0  0  0  0  0  0  0
   72.5028   78.5947   27.3659 C   0  0  0  0  0  0  0  0  0  0  0  0
   72.5215   79.7309   25.1794 C   0  0  0  0  0  0  0  0  0  0  0  0
   71.2101   78.9262   23.3890 O   0  0  0  0  0  0  0  0  0  0  0  0
   73.8675   80.5568   26.9950 O   0  0  0  0  0  0  0  0  0  0  0  0
   73.0228   78.4528   29.0036 Cl  0  0  0  0  0  0  0  0  0  0  0  0
   70.6025   78.3226   23.0089 H   0  0  0  0  0  0  0  0  0  0  0  0
   74.1710   80.5022   27.8798 H   0  0  0  0  0  0  0  0  0  0  0  0
   68.0023   79.4003   24.6677 C   0  0  0  0  0  0  0  0  0  0  0  0
   67.6566   79.3523   23.2618 C   0  0  0  0  0  0  0  0  0  0  0  0
   67.6588   80.5205   22.4605 C   0  0  0  0  0  0  0  0  0  0  0  0
   68.0016   81.7673   23.0262 C   0  0  0  0  0  0  0  0  0  0  0  0
   68.3528   80.6926   25.2322 C   0  0  0  0  0  0  0  0  0  0  0  0
   68.3453   81.8536   24.3957 C   0  0  0  0  0  0  0  0  0  0  0  0
   68.7348   80.8844   26.6823 C   0  0  0  0  0  0  0  0  0  0  0  0
  1  2  1  0  0  0
  1  5  1  0  0  0
  1  6  1  0  0  0
  2 19  1  0  0  0
  2  3  1  0  0  0
 19 20  2  0  0  0
 19 23  1  0  0  0
 20 21  1  0  0  0
 21 22  2  0  0  0
 22 24  1  0  0  0
 23 24  2  0  0  0
 23 25  1  0  0  0
  8 11  2  0  0  0
  8 12  1  0  0  0
  9 12  2  0  0  0
  9 13  1  0  0  0
  9 15  1  0  0  0
 10 11  1  0  0  0
 10 13  2  0  0  0
 10 14  1  0  0  0
  3  4  1  0  0  0
  4  5  1  0  0  0
 11  6  1  0  0  0
 12 16  1  0  0  0
  6  7  2  0  0  0
 14 17  1  0  0  0
 15 18  1  0  0  0
M  END
> <minimizedAffinity>
-7.09223

$$$$
3K97_4CD_A_901


 25 27  0  0  0  0  0  0  0  0999 V2000
   69.6569   81.0010   24.3657 N   0  0  0  0  0  0  0  0  0  0  0  0
   69.7076   79.7128   23.6097 C   0  0  0  0  0  0  0  0  0  0  0  0
   68.6898   79.9300   22.4744 C   0  0  0  0  0  0  0  0  0  0  0  0
   67.6628   80.9107   23.0367 C   0  0  0  0  0  0  0  0  0  0  0  0
   68.4613   81.7756   24.0022 C   0  0  0  0  0  0  0  0  0  0  0  0
   70.5972   81.5626   25.2655 C   0  0  0  0  0  0  0  0  0  0  0  0
   70.4726   82.6830   25.7625 O   0  0  0  0  0  0  0  0  0  0  0  0
   71.8558   80.0196   26.8455 C   0  0  0  0  0  0  0  0  0  0  0  0
   74.1775   79.3493   26.3746 C   0  0  0  0  0  0  0  0  0  0  0  0
   72.9989   80.8594   24.8344 C   0  0  0  0  0  0  0  0  0  0  0  0
   71.8360   80.8053   25.6499 C   0  0  0  0  0  0  0  0  0  0  0  0
   73.0249   79.2923   27.2066 C   0  0  0  0  0  0  0  0  0  0  0  0
   74.1669   80.1331   25.1914 C   0  0  0  0  0  0  0  0  0  0  0  0
   73.0613   81.5850   23.6939 O   0  0  0  0  0  0  0  0  0  0  0  0
   75.3021   78.6484   26.7071 O   0  0  0  0  0  0  0  0  0  0  0  0
   73.0013   78.3582   28.6556 Cl  0  0  0  0  0  0  0  0  0  0  0  0
   72.3182   82.0821   23.4137 H   0  0  0  0  0  0  0  0  0  0  0  0
   75.3169   78.1287   27.4866 H   0  0  0  0  0  0  0  0  0  0  0  0
   69.3489   78.4377   24.4338 C   0  0  0  0  0  0  0  0  0  0  0  0
   68.0262   78.2501   24.9938 C   0  0  0  0  0  0  0  0  0  0  0  0
   67.7000   77.0956   25.7471 C   0  0  0  0  0  0  0  0  0  0  0  0
   68.6710   76.0953   25.9670 C   0  0  0  0  0  0  0  0  0  0  0  0
   70.3353   77.3973   24.6711 C   0  0  0  0  0  0  0  0  0  0  0  0
   69.9739   76.2435   25.4363 C   0  0  0  0  0  0  0  0  0  0  0  0
   71.7515   77.4667   24.1466 C   0  0  0  0  0  0  0  0  0  0  0  0
  1  2  1  0  0  0
  1  5  1  0  0  0
  1  6  1  0  0  0
  2 19  1  0  0  0
  2  3  1  0  0  0
 19 20  2  0  0  0
 19 23  1  0  0  0
 20 21  1  0  0  0
 21 22  2  0  0  0
 22 24  1  0  0  0
 23 24  2  0  0  0
 23 25  1  0  0  0
  8 11  2  0  0  0
  8 12  1  0  0  0
  9 12  2  0  0  0
  9 13  1  0  0  0
  9 15  1  0  0  0
 10 11  1  0  0  0
 10 13  2  0  0  0
 10 14  1  0  0  0
  3  4  1  0  0  0
  4  5  1  0  0  0
 11  6  1  0  0  0
 12 16  1  0  0  0
  6  7  2  0  0  0
 14 17  1  0  0  0
 15 18  1  0  0  0
M  END
> <minimizedAffinity>
-6.99730

$$$$
3K97_4CD_A_901


 25 27  0  0  0  0  0  0  0  0999 V2000
   72.0510   80.8337   23.5966 N   0  0  0  0  0  0  0  0  0  0  0  0
   71.4413   79.4873   23.3750 C   0  0  0  0  0  0  0  0  0  0  0  0
   71.4273   79.3549   21.8406 C   0  0  0  0  0  0  0  0  0  0  0  0
   71.3168   80.7844   21.3142 C   0  0  0  0  0  0  0  0  0  0  0  0
   72.0422   81.6239   22.3568 C   0  0  0  0  0  0  0  0  0  0  0  0
   72.6667   81.3714   24.7546 C   0  0  0  0  0  0  0  0  0  0  0  0
   73.2102   82.4768   24.7808 O   0  0  0  0  0  0  0  0  0  0  0  0
   73.6078   79.4863   26.1766 C   0  0  0  0  0  0  0  0  0  0  0  0
   72.7984   79.1088   28.4709 C   0  0  0  0  0  0  0  0  0  0  0  0
   71.8504   80.9290   27.1183 C   0  0  0  0  0  0  0  0  0  0  0  0
   72.7055   80.5877   26.0353 C   0  0  0  0  0  0  0  0  0  0  0  0
   73.6542   78.7485   27.3930 C   0  0  0  0  0  0  0  0  0  0  0  0
   71.8958   80.1955   28.3344 C   0  0  0  0  0  0  0  0  0  0  0  0
   70.9656   81.9512   27.0595 O   0  0  0  0  0  0  0  0  0  0  0  0
   72.8408   78.4131   29.6460 O   0  0  0  0  0  0  0  0  0  0  0  0
   74.7584   77.4303   27.5173 Cl  0  0  0  0  0  0  0  0  0  0  0  0
   70.8961   82.4665   26.2800 H   0  0  0  0  0  0  0  0  0  0  0  0
   73.4341   77.6945   29.7438 H   0  0  0  0  0  0  0  0  0  0  0  0
   70.0062   79.2977   23.9568 C   0  0  0  0  0  0  0  0  0  0  0  0
   68.9189   80.1782   23.5816 C   0  0  0  0  0  0  0  0  0  0  0  0
   67.6164   80.0111   24.1130 C   0  0  0  0  0  0  0  0  0  0  0  0
   67.3527   78.9698   25.0284 C   0  0  0  0  0  0  0  0  0  0  0  0
   69.7157   78.2317   24.9007 C   0  0  0  0  0  0  0  0  0  0  0  0
   68.3894   78.0901   25.4189 C   0  0  0  0  0  0  0  0  0  0  0  0
   70.7565   77.2445   25.3779 C   0  0  0  0  0  0  0  0  0  0  0  0
  1  2  1  0  0  0
  1  5  1  0  0  0
  1  6  1  0  0  0
  2 19  1  0  0  0
  2  3  1  0  0  0
 19 20  2  0  0  0
 19 23  1  0  0  0
 20 21  1  0  0  0
 21 22  2  0  0  0
 22 24  1  0  0  0
 23 24  2  0  0  0
 23 25  1  0  0  0
  8 11  2  0  0  0
  8 12  1  0  0  0
  9 12  2  0  0  0
  9 13  1  0  0  0
  9 15  1  0  0  0
 10 11  1  0  0  0
 10 13  2  0  0  0
 10 14  1  0  0  0
  3  4  1  0  0  0
  4  5  1  0  0  0
 11  6  1  0  0  0
 12 16  1  0  0  0
  6  7  2  0  0  0
 14 17  1  0  0  0
 15 18  1  0  0  0
M  END
> <minimizedAffinity>
-6.84600

$$$$
3K97_4CD_A_901


 25 27  0  0  0  0  0  0  0  0999 V2000
   69.4088   77.6587   25.3310 N   0  0  0  0  0  0  0  0  0  0  0  0
   68.1434   78.4529   25.3708 C   0  0  0  0  0  0  0  0  0  0  0  0
   67.0561   77.3755   25.5408 C   0  0  0  0  0  0  0  0  0  0  0  0
   67.6243   76.1222   24.8779 C   0  0  0  0  0  0  0  0  0  0  0  0
   69.1276   76.2359   25.0899 C   0  0  0  0  0  0  0  0  0  0  0  0
   70.7455   78.0695   25.5627 C   0  0  0  0  0  0  0  0  0  0  0  0
   71.6995   77.2900   25.5816 O   0  0  0  0  0  0  0  0  0  0  0  0
   71.0485   80.0223   27.1615 C   0  0  0  0  0  0  0  0  0  0  0  0
   71.7009   82.2462   26.3308 C   0  0  0  0  0  0  0  0  0  0  0  0
   71.3973   80.3864   24.7527 C   0  0  0  0  0  0  0  0  0  0  0  0
   71.0687   79.5127   25.8247 C   0  0  0  0  0  0  0  0  0  0  0  0
   71.3648   81.3870   27.4138 C   0  0  0  0  0  0  0  0  0  0  0  0
   71.7152   81.7488   25.0017 C   0  0  0  0  0  0  0  0  0  0  0  0
   71.4306   79.9823   23.4616 O   0  0  0  0  0  0  0  0  0  0  0  0
   72.0147   83.5556   26.5624 O   0  0  0  0  0  0  0  0  0  0  0  0
   71.3287   81.9555   29.0411 Cl  0  0  0  0  0  0  0  0  0  0  0  0
   71.2291   79.0936   23.2435 H   0  0  0  0  0  0  0  0  0  0  0  0
   72.0075   83.8914   27.4371 H   0  0  0  0  0  0  0  0  0  0  0  0
   67.8604   79.3260   24.1092 C   0  0  0  0  0  0  0  0  0  0  0  0
   67.6706   78.7255   22.8047 C   0  0  0  0  0  0  0  0  0  0  0  0
   67.4191   79.5168   21.6570 C   0  0  0  0  0  0  0  0  0  0  0  0
   67.3476   80.9221   21.7669 C   0  0  0  0  0  0  0  0  0  0  0  0
   67.7837   80.7741   24.2026 C   0  0  0  0  0  0  0  0  0  0  0  0
   67.5281   81.5446   23.0242 C   0  0  0  0  0  0  0  0  0  0  0  0
   67.9640   81.5289   25.4999 C   0  0  0  0  0  0  0  0  0  0  0  0
  1  2  1  0  0  0
  1  5  1  0  0  0
  1  6  1  0  0  0
  2 19  1  0  0  0
  2  3  1  0  0  0
 19 20  2  0  0  0
 19 23  1  0  0  0
 20 21  1  0  0  0
 21 22  2  0  0  0
 22 24  1  0  0  0
 23 24  2  0  0  0
 23 25  1  0  0  0
  8 11  2  0  0  0
  8 12  1  0  0  0
  9 12  2  0  0  0
  9 13  1  0  0  0
  9 15  1  0  0  0
 10 11  1  0  0  0
 10 13  2  0  0  0
 10 14  1  0  0  0
  3  4  1  0  0  0
  4  5  1  0  0  0
 11  6  1  0  0  0
 12 16  1  0  0  0
  6  7  2  0  0  0
 14 17  1  0  0  0
 15 18  1  0  0  0
M  END
> <minimizedAffinity>
-6.83254

$$$$
3K97_4CD_A_901


 25 27  0  0  0  0  0  0  0  0999 V2000
   68.1313   78.5762   23.0858 N   0  0  0  0  0  0  0  0  0  0  0  0
   69.2375   78.1240   23.9833 C   0  0  0  0  0  0  0  0  0  0  0  0
   68.7137   76.7881   24.5427 C   0  0  0  0  0  0  0  0  0  0  0  0
   67.1922   76.9219   24.5459 C   0  0  0  0  0  0  0  0  0  0  0  0
   66.8943   77.8310   23.3615 C   0  0  0  0  0  0  0  0  0  0  0  0
   68.1515   79.5124   22.0216 C   0  0  0  0  0  0  0  0  0  0  0  0
   67.1796   79.7358   21.2981 O   0  0  0  0  0  0  0  0  0  0  0  0
   70.1623   80.8837   22.7550 C   0  0  0  0  0  0  0  0  0  0  0  0
   71.7842   81.7293   21.1071 C   0  0  0  0  0  0  0  0  0  0  0  0
   69.8406   80.4239   20.3588 C   0  0  0  0  0  0  0  0  0  0  0  0
   69.4009   80.2829   21.7031 C   0  0  0  0  0  0  0  0  0  0  0  0
   71.3525   81.6053   22.4570 C   0  0  0  0  0  0  0  0  0  0  0  0
   71.0293   81.1422   20.0584 C   0  0  0  0  0  0  0  0  0  0  0  0
   69.1722   79.8921   19.3093 O   0  0  0  0  0  0  0  0  0  0  0  0
   72.9297   82.4123   20.8104 O   0  0  0  0  0  0  0  0  0  0  0  0
   72.2377   82.3107   23.7575 Cl  0  0  0  0  0  0  0  0  0  0  0  0
   68.3823   79.4089   19.4531 H   0  0  0  0  0  0  0  0  0  0  0  0
   73.4336   82.8027   21.4972 H   0  0  0  0  0  0  0  0  0  0  0  0
   69.6011   79.1016   25.1434 C   0  0  0  0  0  0  0  0  0  0  0  0
   68.6041   79.9669   25.7397 C   0  0  0  0  0  0  0  0  0  0  0  0
   68.9334   80.8593   26.7894 C   0  0  0  0  0  0  0  0  0  0  0  0
   70.2558   80.9206   27.2787 C   0  0  0  0  0  0  0  0  0  0  0  0
   70.9571   79.1792   25.6600 C   0  0  0  0  0  0  0  0  0  0  0  0
   71.2569   80.0912   26.7210 C   0  0  0  0  0  0  0  0  0  0  0  0
   72.0931   78.3353   25.1282 C   0  0  0  0  0  0  0  0  0  0  0  0
  1  2  1  0  0  0
  1  5  1  0  0  0
  1  6  1  0  0  0
  2 19  1  0  0  0
  2  3  1  0  0  0
 19 20  2  0  0  0
 19 23  1  0  0  0
 20 21  1  0  0  0
 21 22  2  0  0  0
 22 24  1  0  0  0
 23 24  2  0  0  0
 23 25  1  0  0  0
  8 11  2  0  0  0
  8 12  1  0  0  0
  9 12  2  0  0  0
  9 13  1  0  0  0
  9 15  1  0  0  0
 10 11  1  0  0  0
 10 13  2  0  0  0
 10 14  1  0  0  0
  3  4  1  0  0  0
  4  5  1  0  0  0
 11  6  1  0  0  0
 12 16  1  0  0  0
  6  7  2  0  0  0
 14 17  1  0  0  0
 15 18  1  0  0  0
M  END
> <minimizedAffinity>
-6.67336

$$$$
3K97_4CD_A_901


 25 27  0  0  0  0  0  0  0  0999 V2000
   69.4800   77.9869   25.2579 N   0  0  0  0  0  0  0  0  0  0  0  0
   68.7608   79.2156   24.8033 C   0  0  0  0  0  0  0  0  0  0  0  0
   67.3384   78.7030   24.5096 C   0  0  0  0  0  0  0  0  0  0  0  0
   67.5127   77.2398   24.1079 C   0  0  0  0  0  0  0  0  0  0  0  0
   68.7258   76.7760   24.9024 C   0  0  0  0  0  0  0  0  0  0  0  0
   70.6757   77.8610   26.0088 C   0  0  0  0  0  0  0  0  0  0  0  0
   71.1225   76.7792   26.3935 O   0  0  0  0  0  0  0  0  0  0  0  0
   70.8628   80.0983   27.2008 C   0  0  0  0  0  0  0  0  0  0  0  0
   72.9659   81.3777   27.1643 C   0  0  0  0  0  0  0  0  0  0  0  0
   72.8160   79.2274   25.9830 C   0  0  0  0  0  0  0  0  0  0  0  0
   71.4656   79.0769   26.4004 C   0  0  0  0  0  0  0  0  0  0  0  0
   71.6124   81.2465   27.5824 C   0  0  0  0  0  0  0  0  0  0  0  0
   73.5674   80.3718   26.3638 C   0  0  0  0  0  0  0  0  0  0  0  0
   73.4537   78.3102   25.2194 O   0  0  0  0  0  0  0  0  0  0  0  0
   73.6974   82.4714   27.5321 O   0  0  0  0  0  0  0  0  0  0  0  0
   70.8441   82.4503   28.5485 Cl  0  0  0  0  0  0  0  0  0  0  0  0
   73.0030   77.5372   24.9412 H   0  0  0  0  0  0  0  0  0  0  0  0
   73.3074   83.1398   28.0604 H   0  0  0  0  0  0  0  0  0  0  0  0
   69.3627   79.9183   23.5473 C   0  0  0  0  0  0  0  0  0  0  0  0
   70.4015   79.2892   22.7576 C   0  0  0  0  0  0  0  0  0  0  0  0
   70.9533   79.9280   21.6200 C   0  0  0  0  0  0  0  0  0  0  0  0
   70.4937   81.2046   21.2314 C   0  0  0  0  0  0  0  0  0  0  0  0
   68.9026   81.2326   23.1320 C   0  0  0  0  0  0  0  0  0  0  0  0
   69.4807   81.8506   21.9781 C   0  0  0  0  0  0  0  0  0  0  0  0
   67.8273   82.0012   23.8657 C   0  0  0  0  0  0  0  0  0  0  0  0
  1  2  1  0  0  0
  1  5  1  0  0  0
  1  6  1  0  0  0
  2 19  1  0  0  0
  2  3  1  0  0  0
 19 20  2  0  0  0
 19 23  1  0  0  0
 20 21  1  0  0  0
 21 22  2  0  0  0
 22 24  1  0  0  0
 23 24  2  0  0  0
 23 25  1  0  0  0
  8 11  2  0  0  0
  8 12  1  0  0  0
  9 12  2  0  0  0
  9 13  1  0  0  0
  9 15  1  0  0  0
 10 11  1  0  0  0
 10 13  2  0  0  0
 10 14  1  0  0  0
  3  4  1  0  0  0
  4  5  1  0  0  0
 11  6  1  0  0  0
 12 16  1  0  0  0
  6  7  2  0  0  0
 14 17  1  0  0  0
 15 18  1  0  0  0
M  END
> <minimizedAffinity>
-6.63812

$$$$
3K97_4CD_A_901


 25 27  0  0  0  0  0  0  0  0999 V2000
   70.2809   81.5991   22.0902 N   0  0  0  0  0  0  0  0  0  0  0  0
   70.5437   80.1501   22.3446 C   0  0  0  0  0  0  0  0  0  0  0  0
   71.2143   79.6792   21.0405 C   0  0  0  0  0  0  0  0  0  0  0  0
   70.6518   80.5867   19.9483 C   0  0  0  0  0  0  0  0  0  0  0  0
   70.3926   81.9087   20.6573 C   0  0  0  0  0  0  0  0  0  0  0  0
   70.0351   82.6514   23.0076 C   0  0  0  0  0  0  0  0  0  0  0  0
   69.9154   83.8300   22.6694 O   0  0  0  0  0  0  0  0  0  0  0  0
   71.0710   82.5274   25.3256 C   0  0  0  0  0  0  0  0  0  0  0  0
   69.7237   81.8693   27.2783 C   0  0  0  0  0  0  0  0  0  0  0  0
   68.6927   81.9584   25.0489 C   0  0  0  0  0  0  0  0  0  0  0  0
   69.9271   82.3742   24.4799 C   0  0  0  0  0  0  0  0  0  0  0  0
   70.9688   82.2757   26.7228 C   0  0  0  0  0  0  0  0  0  0  0  0
   68.5872   81.7082   26.4436 C   0  0  0  0  0  0  0  0  0  0  0  0
   67.5692   81.7838   24.3150 O   0  0  0  0  0  0  0  0  0  0  0  0
   69.6121   81.6336   28.6195 O   0  0  0  0  0  0  0  0  0  0  0  0
   72.3736   82.4749   27.7024 Cl  0  0  0  0  0  0  0  0  0  0  0  0
   67.5851   81.9357   23.3906 H   0  0  0  0  0  0  0  0  0  0  0  0
   70.3579   81.7378   29.1771 H   0  0  0  0  0  0  0  0  0  0  0  0
   69.2836   79.2856   22.6586 C   0  0  0  0  0  0  0  0  0  0  0  0
   68.1094   79.3301   21.8116 C   0  0  0  0  0  0  0  0  0  0  0  0
   66.9621   78.5501   22.0981 C   0  0  0  0  0  0  0  0  0  0  0  0
   66.9440   77.7049   23.2282 C   0  0  0  0  0  0  0  0  0  0  0  0
   69.2462   78.4099   23.8177 C   0  0  0  0  0  0  0  0  0  0  0  0
   68.0719   77.6351   24.0791 C   0  0  0  0  0  0  0  0  0  0  0  0
   70.4001   78.2691   24.7842 C   0  0  0  0  0  0  0  0  0  0  0  0
  1  2  1  0  0  0
  1  5  1  0  0  0
  1  6  1  0  0  0
  2 19  1  0  0  0
  2  3  1  0  0  0
 19 20  2  0  0  0
 19 23  1  0  0  0
 20 21  1  0  0  0
 21 22  2  0  0  0
 22 24  1  0  0  0
 23 24  2  0  0  0
 23 25  1  0  0  0
  8 11  2  0  0  0
  8 12  1  0  0  0
  9 12  2  0  0  0
  9 13  1  0  0  0
  9 15  1  0  0  0
 10 11  1  0  0  0
 10 13  2  0  0  0
 10 14  1  0  0  0
  3  4  1  0  0  0
  4  5  1  0  0  0
 11  6  1  0  0  0
 12 16  1  0  0  0
  6  7  2  0  0  0
 14 17  1  0  0  0
 15 18  1  0  0  0
M  END
> <minimizedAffinity>
-6.62868

$$$$
