4PQA_X8Z_A_401


 16 16  0  0  0  0  0  0  0  0999 V2000
   17.9900   18.3542   -4.8026 O   0  0  0  0  0  0  0  0  0  0  0  0
   17.8469   19.4126   -5.3919 C   0  0  0  0  0  0  0  0  0  0  0  0
   18.3741   19.6511   -6.5901 N   0  0  0  0  0  0  0  0  0  0  0  0
   19.1151   18.6072   -7.2921 C   0  0  0  0  0  0  0  0  0  0  0  0
   18.2990   20.9044   -7.3354 C   0  0  0  0  0  0  0  0  0  0  0  0
   19.3109   20.7540   -8.4619 C   0  0  0  0  0  0  0  0  0  0  0  0
   19.8197   19.3247   -8.4343 C   0  0  0  0  0  0  0  0  0  0  0  0
   20.1341   17.9587   -6.4024 C   0  0  0  0  0  0  0  0  0  0  0  0
   21.0449   18.6116   -5.9218 O   0  0  0  0  0  0  0  0  0  0  0  0
   20.0516   16.6605   -6.1281 O   0  0  0  0  0  0  0  0  0  0  0  0
   19.3563   16.1481   -6.4914 H   0  0  0  0  0  0  0  0  0  0  0  0
   17.0497   20.5249   -4.7788 C   0  0  0  0  0  0  0  0  0  0  0  0
   17.3851   20.6322   -3.2960 C   0  0  0  0  0  0  0  0  0  0  0  0
   15.5635   20.2579   -4.9838 C   0  0  0  0  0  0  0  0  0  0  0  0
   14.7158   21.6395   -5.7886 S   0  0  0  0  0  0  0  0  0  0  0  0
   14.8106   22.7476   -5.0057 H   0  0  0  0  0  0  0  0  0  0  0  0
  1  2  2  0  0  0
  2 12  1  0  0  0
  2  3  1  0  0  0
 12 14  1  0  0  0
 12 13  1  0  0  0
 14 15  1  0  0  0
  3  4  1  0  0  0
  3  5  1  0  0  0
  4  8  1  0  0  0
  4  7  1  0  0  0
  8  9  2  0  0  0
  8 10  1  0  0  0
  5  6  1  0  0  0
  6  7  1  0  0  0
 15 16  1  0  0  0
 10 11  1  0  0  0
M  END
> <minimizedAffinity>
-6.06526

$$$$
4PQA_X8Z_A_401


 16 16  0  0  0  0  0  0  0  0999 V2000
   19.4126   17.2340   -3.5684 O   0  0  0  0  0  0  0  0  0  0  0  0
   18.9336   18.3485   -3.4393 C   0  0  0  0  0  0  0  0  0  0  0  0
   18.6099   19.1214   -4.4729 N   0  0  0  0  0  0  0  0  0  0  0  0
   18.7639   18.6304   -5.8392 C   0  0  0  0  0  0  0  0  0  0  0  0
   18.0878   20.4833   -4.4058 C   0  0  0  0  0  0  0  0  0  0  0  0
   18.1912   21.0153   -5.8278 C   0  0  0  0  0  0  0  0  0  0  0  0
   18.6131   19.8624   -6.7197 C   0  0  0  0  0  0  0  0  0  0  0  0
   20.1167   18.0199   -6.0582 C   0  0  0  0  0  0  0  0  0  0  0  0
   21.1257   18.6998   -5.9789 O   0  0  0  0  0  0  0  0  0  0  0  0
   20.2273   16.7255   -6.3409 O   0  0  0  0  0  0  0  0  0  0  0  0
   19.4593   16.1926   -6.4045 H   0  0  0  0  0  0  0  0  0  0  0  0
   18.6803   18.9161   -2.0747 C   0  0  0  0  0  0  0  0  0  0  0  0
   20.0061   19.0927   -1.3443 C   0  0  0  0  0  0  0  0  0  0  0  0
   17.7516   17.9872   -1.3022 C   0  0  0  0  0  0  0  0  0  0  0  0
   16.1129   17.8589   -2.0594 S   0  0  0  0  0  0  0  0  0  0  0  0
   15.5216   19.0836   -2.0707 H   0  0  0  0  0  0  0  0  0  0  0  0
  1  2  2  0  0  0
  2 12  1  0  0  0
  2  3  1  0  0  0
 12 14  1  0  0  0
 12 13  1  0  0  0
 14 15  1  0  0  0
  3  4  1  0  0  0
  3  5  1  0  0  0
  4  8  1  0  0  0
  4  7  1  0  0  0
  8  9  2  0  0  0
  8 10  1  0  0  0
  5  6  1  0  0  0
  6  7  1  0  0  0
 15 16  1  0  0  0
 10 11  1  0  0  0
M  END
> <minimizedAffinity>
-5.80046

$$$$
4PQA_X8Z_A_401


 16 16  0  0  0  0  0  0  0  0999 V2000
   17.5384   22.5135   -6.3805 O   0  0  0  0  0  0  0  0  0  0  0  0
   17.5419   21.3179   -6.1386 C   0  0  0  0  0  0  0  0  0  0  0  0
   18.3920   20.4667   -6.7072 N   0  0  0  0  0  0  0  0  0  0  0  0
   19.4207   20.9513   -7.6231 C   0  0  0  0  0  0  0  0  0  0  0  0
   18.4255   19.0195   -6.5172 C   0  0  0  0  0  0  0  0  0  0  0  0
   19.3462   18.4997   -7.6117 C   0  0  0  0  0  0  0  0  0  0  0  0
   19.9647   19.7020   -8.3007 C   0  0  0  0  0  0  0  0  0  0  0  0
   18.8491   21.8748   -8.6580 C   0  0  0  0  0  0  0  0  0  0  0  0
   18.1261   21.4468   -9.5416 O   0  0  0  0  0  0  0  0  0  0  0  0
   19.1266   23.1744   -8.6195 O   0  0  0  0  0  0  0  0  0  0  0  0
   19.6810   23.5153   -7.9454 H   0  0  0  0  0  0  0  0  0  0  0  0
   16.5630   20.7343   -5.1640 C   0  0  0  0  0  0  0  0  0  0  0  0
   15.2201   21.4400   -5.3093 C   0  0  0  0  0  0  0  0  0  0  0  0
   17.1062   20.8821   -3.7480 C   0  0  0  0  0  0  0  0  0  0  0  0
   17.2159   19.2984   -2.8790 S   0  0  0  0  0  0  0  0  0  0  0  0
   15.9739   18.7555   -2.7677 H   0  0  0  0  0  0  0  0  0  0  0  0
  1  2  2  0  0  0
  2 12  1  0  0  0
  2  3  1  0  0  0
 12 14  1  0  0  0
 12 13  1  0  0  0
 14 15  1  0  0  0
  3  4  1  0  0  0
  3  5  1  0  0  0
  4  8  1  0  0  0
  4  7  1  0  0  0
  8  9  2  0  0  0
  8 10  1  0  0  0
  5  6  1  0  0  0
  6  7  1  0  0  0
 15 16  1  0  0  0
 10 11  1  0  0  0
M  END
> <minimizedAffinity>
-5.79483

$$$$
4PQA_X8Z_A_401


 16 16  0  0  0  0  0  0  0  0999 V2000
   15.9985   23.0102   -8.6769 O   0  0  0  0  0  0  0  0  0  0  0  0
   15.9323   22.0410   -7.9391 C   0  0  0  0  0  0  0  0  0  0  0  0
   16.9733   21.5858   -7.2466 N   0  0  0  0  0  0  0  0  0  0  0  0
   18.2557   22.2819   -7.2977 C   0  0  0  0  0  0  0  0  0  0  0  0
   16.9934   20.4038   -6.3897 C   0  0  0  0  0  0  0  0  0  0  0  0
   18.4662   20.1504   -6.1026 C   0  0  0  0  0  0  0  0  0  0  0  0
   19.2519   21.3187   -6.6686 C   0  0  0  0  0  0  0  0  0  0  0  0
   18.6679   22.5789   -8.7092 C   0  0  0  0  0  0  0  0  0  0  0  0
   19.0244   23.7000   -9.0297 O   0  0  0  0  0  0  0  0  0  0  0  0
   18.6490   21.6171   -9.6269 O   0  0  0  0  0  0  0  0  0  0  0  0
   18.3769   20.7516   -9.3928 H   0  0  0  0  0  0  0  0  0  0  0  0
   14.6415   21.2962   -7.7728 C   0  0  0  0  0  0  0  0  0  0  0  0
   13.7982   21.4544   -9.0324 C   0  0  0  0  0  0  0  0  0  0  0  0
   13.9018   21.8278   -6.5511 C   0  0  0  0  0  0  0  0  0  0  0  0
   12.1209   21.5152   -6.6289 S   0  0  0  0  0  0  0  0  0  0  0  0
   11.5962   22.1494   -7.7115 H   0  0  0  0  0  0  0  0  0  0  0  0
  1  2  2  0  0  0
  2 12  1  0  0  0
  2  3  1  0  0  0
 12 14  1  0  0  0
 12 13  1  0  0  0
 14 15  1  0  0  0
  3  4  1  0  0  0
  3  5  1  0  0  0
  4  8  1  0  0  0
  4  7  1  0  0  0
  8  9  2  0  0  0
  8 10  1  0  0  0
  5  6  1  0  0  0
  6  7  1  0  0  0
 15 16  1  0  0  0
 10 11  1  0  0  0
M  END
> <minimizedAffinity>
-5.75893

$$$$
4PQA_X8Z_A_401


 16 16  0  0  0  0  0  0  0  0999 V2000
   17.1724   21.8759   -5.4612 O   0  0  0  0  0  0  0  0  0  0  0  0
   17.6453   20.8080   -5.8135 C   0  0  0  0  0  0  0  0  0  0  0  0
   18.4639   20.6872   -6.8556 N   0  0  0  0  0  0  0  0  0  0  0  0
   18.8870   21.8678   -7.6031 C   0  0  0  0  0  0  0  0  0  0  0  0
   19.0256   19.4441   -7.3761 C   0  0  0  0  0  0  0  0  0  0  0  0
   19.6132   19.8140   -8.7301 C   0  0  0  0  0  0  0  0  0  0  0  0
   19.5260   21.3222   -8.8720 C   0  0  0  0  0  0  0  0  0  0  0  0
   17.7217   22.7410   -7.9638 C   0  0  0  0  0  0  0  0  0  0  0  0
   16.8458   22.3328   -8.7073 O   0  0  0  0  0  0  0  0  0  0  0  0
   17.6332   23.9731   -7.4723 O   0  0  0  0  0  0  0  0  0  0  0  0
   18.3000   24.2982   -6.8999 H   0  0  0  0  0  0  0  0  0  0  0  0
   17.3185   19.5472   -5.0704 C   0  0  0  0  0  0  0  0  0  0  0  0
   15.8293   19.5197   -4.7477 C   0  0  0  0  0  0  0  0  0  0  0  0
   18.1536   19.4764   -3.7977 C   0  0  0  0  0  0  0  0  0  0  0  0
   18.8585   17.8325   -3.5218 S   0  0  0  0  0  0  0  0  0  0  0  0
   17.8541   16.9262   -3.3826 H   0  0  0  0  0  0  0  0  0  0  0  0
  1  2  2  0  0  0
  2 12  1  0  0  0
  2  3  1  0  0  0
 12 14  1  0  0  0
 12 13  1  0  0  0
 14 15  1  0  0  0
  3  4  1  0  0  0
  3  5  1  0  0  0
  4  8  1  0  0  0
  4  7  1  0  0  0
  8  9  2  0  0  0
  8 10  1  0  0  0
  5  6  1  0  0  0
  6  7  1  0  0  0
 15 16  1  0  0  0
 10 11  1  0  0  0
M  END
> <minimizedAffinity>
-5.74192

$$$$
4PQA_X8Z_A_401


 16 16  0  0  0  0  0  0  0  0999 V2000
   19.1110   20.9376   -6.5955 O   0  0  0  0  0  0  0  0  0  0  0  0
   17.9952   20.6164   -6.2211 C   0  0  0  0  0  0  0  0  0  0  0  0
   16.8842   20.9971   -6.8467 N   0  0  0  0  0  0  0  0  0  0  0  0
   16.9603   21.7861   -8.0728 C   0  0  0  0  0  0  0  0  0  0  0  0
   15.5145   20.7056   -6.4335 C   0  0  0  0  0  0  0  0  0  0  0  0
   14.6437   21.6179   -7.2850 C   0  0  0  0  0  0  0  0  0  0  0  0
   15.5436   22.2912   -8.3045 C   0  0  0  0  0  0  0  0  0  0  0  0
   17.8907   22.9534   -7.9224 C   0  0  0  0  0  0  0  0  0  0  0  0
   17.5763   23.9152   -7.2422 O   0  0  0  0  0  0  0  0  0  0  0  0
   19.0724   22.9482   -8.5316 O   0  0  0  0  0  0  0  0  0  0  0  0
   19.3254   22.2148   -9.0570 H   0  0  0  0  0  0  0  0  0  0  0  0
   17.8170   19.7554   -5.0064 C   0  0  0  0  0  0  0  0  0  0  0  0
   18.0483   20.5914   -3.7533 C   0  0  0  0  0  0  0  0  0  0  0  0
   18.7891   18.5835   -5.0672 C   0  0  0  0  0  0  0  0  0  0  0  0
   18.7710   17.5890   -3.5552 S   0  0  0  0  0  0  0  0  0  0  0  0
   19.1514   18.3596   -2.5012 H   0  0  0  0  0  0  0  0  0  0  0  0
  1  2  2  0  0  0
  2 12  1  0  0  0
  2  3  1  0  0  0
 12 14  1  0  0  0
 12 13  1  0  0  0
 14 15  1  0  0  0
  3  4  1  0  0  0
  3  5  1  0  0  0
  4  8  1  0  0  0
  4  7  1  0  0  0
  8  9  2  0  0  0
  8 10  1  0  0  0
  5  6  1  0  0  0
  6  7  1  0  0  0
 15 16  1  0  0  0
 10 11  1  0  0  0
M  END
> <minimizedAffinity>
-5.63053

$$$$
4PQA_X8Z_A_401


 16 16  0  0  0  0  0  0  0  0999 V2000
   18.3383   21.0471   -8.5200 O   0  0  0  0  0  0  0  0  0  0  0  0
   18.4079   20.6996   -7.3527 C   0  0  0  0  0  0  0  0  0  0  0  0
   17.4386   20.9285   -6.4702 N   0  0  0  0  0  0  0  0  0  0  0  0
   16.1951   21.5691   -6.8885 C   0  0  0  0  0  0  0  0  0  0  0  0
   17.4663   20.5983   -5.0483 C   0  0  0  0  0  0  0  0  0  0  0  0
   16.2828   21.3428   -4.4479 C   0  0  0  0  0  0  0  0  0  0  0  0
   15.4922   21.9479   -5.5930 C   0  0  0  0  0  0  0  0  0  0  0  0
   16.4548   22.8050   -7.6983 C   0  0  0  0  0  0  0  0  0  0  0  0
   15.8822   22.9843   -8.7598 O   0  0  0  0  0  0  0  0  0  0  0  0
   17.3150   23.7203   -7.2626 O   0  0  0  0  0  0  0  0  0  0  0  0
   17.7612   23.5939   -6.4484 H   0  0  0  0  0  0  0  0  0  0  0  0
   19.6202   19.9797   -6.8424 C   0  0  0  0  0  0  0  0  0  0  0  0
   20.8693   20.5690   -7.4869 C   0  0  0  0  0  0  0  0  0  0  0  0
   19.4964   18.4929   -7.1526 C   0  0  0  0  0  0  0  0  0  0  0  0
   19.4951   17.4711   -5.6588 S   0  0  0  0  0  0  0  0  0  0  0  0
   20.6707   17.6365   -4.9954 H   0  0  0  0  0  0  0  0  0  0  0  0
  1  2  2  0  0  0
  2 12  1  0  0  0
  2  3  1  0  0  0
 12 14  1  0  0  0
 12 13  1  0  0  0
 14 15  1  0  0  0
  3  4  1  0  0  0
  3  5  1  0  0  0
  4  8  1  0  0  0
  4  7  1  0  0  0
  8  9  2  0  0  0
  8 10  1  0  0  0
  5  6  1  0  0  0
  6  7  1  0  0  0
 15 16  1  0  0  0
 10 11  1  0  0  0
M  END
> <minimizedAffinity>
-5.32718

$$$$
4PQA_X8Z_A_401


 16 16  0  0  0  0  0  0  0  0999 V2000
   18.2986   18.9574   -5.7618 O   0  0  0  0  0  0  0  0  0  0  0  0
   17.7286   20.0357   -5.7810 C   0  0  0  0  0  0  0  0  0  0  0  0
   17.8722   20.9129   -6.7713 N   0  0  0  0  0  0  0  0  0  0  0  0
   18.6930   20.5866   -7.9338 C   0  0  0  0  0  0  0  0  0  0  0  0
   17.2740   22.2428   -6.8437 C   0  0  0  0  0  0  0  0  0  0  0  0
   17.9953   22.9373   -7.9896 C   0  0  0  0  0  0  0  0  0  0  0  0
   18.8792   21.9068   -8.6674 C   0  0  0  0  0  0  0  0  0  0  0  0
   20.0321   20.0435   -7.5305 C   0  0  0  0  0  0  0  0  0  0  0  0
   20.9106   20.7891   -7.1318 O   0  0  0  0  0  0  0  0  0  0  0  0
   20.2728   18.7381   -7.6037 O   0  0  0  0  0  0  0  0  0  0  0  0
   19.6057   18.1550   -7.9086 H   0  0  0  0  0  0  0  0  0  0  0  0
   16.8155   20.4356   -4.6609 C   0  0  0  0  0  0  0  0  0  0  0  0
   17.6221   20.5822   -3.3761 C   0  0  0  0  0  0  0  0  0  0  0  0
   15.7197   19.3889   -4.5003 C   0  0  0  0  0  0  0  0  0  0  0  0
   14.4384   19.5264   -5.7710 S   0  0  0  0  0  0  0  0  0  0  0  0
   13.8360   20.7421   -5.6777 H   0  0  0  0  0  0  0  0  0  0  0  0
  1  2  2  0  0  0
  2 12  1  0  0  0
  2  3  1  0  0  0
 12 14  1  0  0  0
 12 13  1  0  0  0
 14 15  1  0  0  0
  3  4  1  0  0  0
  3  5  1  0  0  0
  4  8  1  0  0  0
  4  7  1  0  0  0
  8  9  2  0  0  0
  8 10  1  0  0  0
  5  6  1  0  0  0
  6  7  1  0  0  0
 15 16  1  0  0  0
 10 11  1  0  0  0
M  END
> <minimizedAffinity>
-5.18903

$$$$
4PQA_X8Z_A_401


 16 16  0  0  0  0  0  0  0  0999 V2000
   19.3253   19.4604   -5.1732 O   0  0  0  0  0  0  0  0  0  0  0  0
   18.2512   19.7717   -4.6858 C   0  0  0  0  0  0  0  0  0  0  0  0
   17.3966   20.5972   -5.2847 N   0  0  0  0  0  0  0  0  0  0  0  0
   17.6917   21.1312   -6.6111 C   0  0  0  0  0  0  0  0  0  0  0  0
   16.1221   21.0640   -4.7465 C   0  0  0  0  0  0  0  0  0  0  0  0
   15.7051   22.2087   -5.6583 C   0  0  0  0  0  0  0  0  0  0  0  0
   16.6826   22.2512   -6.8182 C   0  0  0  0  0  0  0  0  0  0  0  0
   19.0825   21.6888   -6.6859 C   0  0  0  0  0  0  0  0  0  0  0  0
   19.3967   22.6655   -6.0272 O   0  0  0  0  0  0  0  0  0  0  0  0
   19.9889   21.1191   -7.4741 O   0  0  0  0  0  0  0  0  0  0  0  0
   19.7595   20.3680   -7.9852 H   0  0  0  0  0  0  0  0  0  0  0  0
   17.8314   19.2255   -3.3540 C   0  0  0  0  0  0  0  0  0  0  0  0
   18.6539   19.8843   -2.2530 C   0  0  0  0  0  0  0  0  0  0  0  0
   18.0180   17.7132   -3.3432 C   0  0  0  0  0  0  0  0  0  0  0  0
   19.2061   17.1704   -2.0906 S   0  0  0  0  0  0  0  0  0  0  0  0
   20.4244   17.7137   -2.3557 H   0  0  0  0  0  0  0  0  0  0  0  0
  1  2  2  0  0  0
  2 12  1  0  0  0
  2  3  1  0  0  0
 12 14  1  0  0  0
 12 13  1  0  0  0
 14 15  1  0  0  0
  3  4  1  0  0  0
  3  5  1  0  0  0
  4  8  1  0  0  0
  4  7  1  0  0  0
  8  9  2  0  0  0
  8 10  1  0  0  0
  5  6  1  0  0  0
  6  7  1  0  0  0
 15 16  1  0  0  0
 10 11  1  0  0  0
M  END
> <minimizedAffinity>
-5.10281

$$$$
4PQA_X8Z_A_401


 16 16  0  0  0  0  0  0  0  0999 V2000
   19.4323   17.4484   -4.8914 O   0  0  0  0  0  0  0  0  0  0  0  0
   18.9693   18.5434   -4.6181 C   0  0  0  0  0  0  0  0  0  0  0  0
   18.9109   19.0150   -3.3753 N   0  0  0  0  0  0  0  0  0  0  0  0
   19.4672   18.2455   -2.2663 C   0  0  0  0  0  0  0  0  0  0  0  0
   18.3231   20.2846   -2.9576 C   0  0  0  0  0  0  0  0  0  0  0  0
   18.2280   20.1947   -1.4415 C   0  0  0  0  0  0  0  0  0  0  0  0
   18.9390   18.9251   -1.0113 C   0  0  0  0  0  0  0  0  0  0  0  0
   19.0049   16.8185   -2.2965 C   0  0  0  0  0  0  0  0  0  0  0  0
   17.8367   16.5392   -2.0870 O   0  0  0  0  0  0  0  0  0  0  0  0
   19.8693   15.8419   -2.5543 O   0  0  0  0  0  0  0  0  0  0  0  0
   20.7697   16.0439   -2.7170 H   0  0  0  0  0  0  0  0  0  0  0  0
   18.4292   19.4336   -5.6972 C   0  0  0  0  0  0  0  0  0  0  0  0
   16.9311   19.1975   -5.8476 C   0  0  0  0  0  0  0  0  0  0  0  0
   19.1600   19.1492   -7.0038 C   0  0  0  0  0  0  0  0  0  0  0  0
   20.5701   20.2535   -7.2637 S   0  0  0  0  0  0  0  0  0  0  0  0
   20.1325   21.5394   -7.3312 H   0  0  0  0  0  0  0  0  0  0  0  0
  1  2  2  0  0  0
  2 12  1  0  0  0
  2  3  1  0  0  0
 12 14  1  0  0  0
 12 13  1  0  0  0
 14 15  1  0  0  0
  3  4  1  0  0  0
  3  5  1  0  0  0
  4  8  1  0  0  0
  4  7  1  0  0  0
  8  9  2  0  0  0
  8 10  1  0  0  0
  5  6  1  0  0  0
  6  7  1  0  0  0
 15 16  1  0  0  0
 10 11  1  0  0  0
M  END
> <minimizedAffinity>
-5.07402

$$$$
