1PGP_6PG_A_502


 24 23  0  0  0  0  0  0  0  0999 V2000
   23.2264   27.9671   40.2002 C   0  0  0  0  0  0  0  0  0  0  0  0
   23.1569   28.4209   41.5522 O   0  0  0  0  0  0  0  0  0  0  0  0
   23.1982   29.3899   41.5706 H   0  0  0  0  0  0  0  0  0  0  0  0
   21.9743   28.3342   39.2712 C   0  0  0  0  0  0  0  0  0  0  0  0
   22.2176   27.9614   37.9324 O   0  0  0  0  0  0  0  0  0  0  0  0
   22.9109   28.5283   37.5598 H   0  0  0  0  0  0  0  0  0  0  0  0
   21.4305   29.8372   39.1297 C   0  0  0  0  0  0  0  0  0  0  0  0
   22.3388   30.5968   38.3340 O   0  0  0  0  0  0  0  0  0  0  0  0
   22.3879   30.2134   37.4443 H   0  0  0  0  0  0  0  0  0  0  0  0
   20.0082   29.9056   38.5321 C   0  0  0  0  0  0  0  0  0  0  0  0
   18.9460   30.0450   39.2901 O   0  0  0  0  0  0  0  0  0  0  0  0
   19.8510   29.8813   37.3064 O   0  0  0  0  0  0  0  0  0  0  0  0
   20.5917   29.7829   36.7409 H   0  0  0  0  0  0  0  0  0  0  0  0
   24.6370   28.5265   39.6225 C   0  0  0  0  0  0  0  0  0  0  0  0
   24.9954   27.8398   38.4296 O   0  0  0  0  0  0  0  0  0  0  0  0
   25.2056   26.9163   38.6389 H   0  0  0  0  0  0  0  0  0  0  0  0
   25.9417   28.4961   40.5115 C   0  0  0  0  0  0  0  0  0  0  0  0
   26.7556   29.7634   40.6810 O   0  0  0  0  0  0  0  0  0  0  0  0
   27.2513   30.6481   39.4024 P   0  0  0  0  0  0  0  0  0  0  0  0
   27.6899   29.6173   38.3712 O   0  0  0  0  0  0  0  0  0  0  0  0
   28.5113   31.4281   39.6378 O   0  0  0  0  0  0  0  0  0  0  0  0
   26.1053   31.5585   38.7859 O   0  0  0  0  0  0  0  0  0  0  0  0
   29.1880   30.8435   40.0135 H   0  0  0  0  0  0  0  0  0  0  0  0
   25.3076   31.0244   38.6469 H   0  0  0  0  0  0  0  0  0  0  0  0
 10  7  1  0  0  0
 10 11  2  0  0  0
 10 12  1  0  0  0
  7  4  1  0  0  0
  7  8  1  0  0  0
  4  1  1  0  0  0
  4  5  1  0  0  0
  1 14  1  0  0  0
  1  2  1  0  0  0
 14 17  1  0  0  0
 14 15  1  0  0  0
 17 18  1  0  0  0
 18 19  1  0  0  0
 19 20  2  0  0  0
 19 21  1  0  0  0
 19 22  1  0  0  0
 12 13  1  0  0  0
  8  9  1  0  0  0
  5  6  1  0  0  0
  2  3  1  0  0  0
 15 16  1  0  0  0
 21 23  1  0  0  0
 22 24  1  0  0  0
M  END
> <minimizedAffinity>
-8.00903

$$$$
1PGP_6PG_A_502


 24 23  0  0  0  0  0  0  0  0999 V2000
   24.5867   28.9960   40.0342 C   0  0  0  0  0  0  0  0  0  0  0  0
   23.9897   28.3291   38.9218 O   0  0  0  0  0  0  0  0  0  0  0  0
   24.1116   28.8631   38.1212 H   0  0  0  0  0  0  0  0  0  0  0  0
   26.1832   29.1222   40.0029 C   0  0  0  0  0  0  0  0  0  0  0  0
   26.6671   29.6590   41.2146 O   0  0  0  0  0  0  0  0  0  0  0  0
   26.3985   30.5883   41.2866 H   0  0  0  0  0  0  0  0  0  0  0  0
   26.9469   29.9966   38.8952 C   0  0  0  0  0  0  0  0  0  0  0  0
   26.0198   30.4015   37.8893 O   0  0  0  0  0  0  0  0  0  0  0  0
   25.3337   30.9597   38.2878 H   0  0  0  0  0  0  0  0  0  0  0  0
   27.6612   31.2285   39.4926 C   0  0  0  0  0  0  0  0  0  0  0  0
   28.9542   31.2362   39.7173 O   0  0  0  0  0  0  0  0  0  0  0  0
   27.0228   32.2612   39.7240 O   0  0  0  0  0  0  0  0  0  0  0  0
   26.0983   32.2843   39.5728 H   0  0  0  0  0  0  0  0  0  0  0  0
   23.8340   30.4308   40.1401 C   0  0  0  0  0  0  0  0  0  0  0  0
   24.5371   31.2997   41.0196 O   0  0  0  0  0  0  0  0  0  0  0  0
   24.4739   30.9620   41.9267 H   0  0  0  0  0  0  0  0  0  0  0  0
   22.3279   30.5190   40.6065 C   0  0  0  0  0  0  0  0  0  0  0  0
   21.2573   30.8839   39.5976 O   0  0  0  0  0  0  0  0  0  0  0  0
   20.4843   29.7518   38.7121 P   0  0  0  0  0  0  0  0  0  0  0  0
   19.6900   30.5468   37.6847 O   0  0  0  0  0  0  0  0  0  0  0  0
   19.4090   29.0119   39.4520 O   0  0  0  0  0  0  0  0  0  0  0  0
   21.4711   28.7575   37.9638 O   0  0  0  0  0  0  0  0  0  0  0  0
   18.8261   29.6475   39.8960 H   0  0  0  0  0  0  0  0  0  0  0  0
   22.1516   29.2675   37.4973 H   0  0  0  0  0  0  0  0  0  0  0  0
 10  7  1  0  0  0
 10 11  2  0  0  0
 10 12  1  0  0  0
  7  4  1  0  0  0
  7  8  1  0  0  0
  4  1  1  0  0  0
  4  5  1  0  0  0
  1 14  1  0  0  0
  1  2  1  0  0  0
 14 17  1  0  0  0
 14 15  1  0  0  0
 17 18  1  0  0  0
 18 19  1  0  0  0
 19 20  2  0  0  0
 19 21  1  0  0  0
 19 22  1  0  0  0
 12 13  1  0  0  0
  8  9  1  0  0  0
  5  6  1  0  0  0
  2  3  1  0  0  0
 15 16  1  0  0  0
 21 23  1  0  0  0
 22 24  1  0  0  0
M  END
> <minimizedAffinity>
-7.98147

$$$$
1PGP_6PG_A_502


 24 23  0  0  0  0  0  0  0  0999 V2000
   24.5390   28.3395   39.9359 C   0  0  0  0  0  0  0  0  0  0  0  0
   24.2266   28.0260   38.5783 O   0  0  0  0  0  0  0  0  0  0  0  0
   23.6669   28.7251   38.2056 H   0  0  0  0  0  0  0  0  0  0  0  0
   25.4740   29.6199   40.1635 C   0  0  0  0  0  0  0  0  0  0  0  0
   24.7171   30.7170   40.6261 O   0  0  0  0  0  0  0  0  0  0  0  0
   24.1302   31.0263   39.9185 H   0  0  0  0  0  0  0  0  0  0  0  0
   26.3434   30.2613   38.9771 C   0  0  0  0  0  0  0  0  0  0  0  0
   25.4705   30.8550   38.0175 O   0  0  0  0  0  0  0  0  0  0  0  0
   24.9668   31.5699   38.4372 H   0  0  0  0  0  0  0  0  0  0  0  0
   27.3707   31.2985   39.4808 C   0  0  0  0  0  0  0  0  0  0  0  0
   27.0056   32.4915   39.8880 O   0  0  0  0  0  0  0  0  0  0  0  0
   28.5669   30.9968   39.5573 O   0  0  0  0  0  0  0  0  0  0  0  0
   28.8560   30.1518   39.2737 H   0  0  0  0  0  0  0  0  0  0  0  0
   23.1105   28.4469   40.7004 C   0  0  0  0  0  0  0  0  0  0  0  0
   23.2007   27.8923   42.0070 O   0  0  0  0  0  0  0  0  0  0  0  0
   23.3329   26.9335   41.9429 H   0  0  0  0  0  0  0  0  0  0  0  0
   21.8117   27.8000   40.0776 C   0  0  0  0  0  0  0  0  0  0  0  0
   21.1832   28.4287   38.8500 O   0  0  0  0  0  0  0  0  0  0  0  0
   21.1309   30.0462   38.6397 P   0  0  0  0  0  0  0  0  0  0  0  0
   20.5757   30.5844   39.9514 O   0  0  0  0  0  0  0  0  0  0  0  0
   20.1114   30.5101   37.6413 O   0  0  0  0  0  0  0  0  0  0  0  0
   22.5560   30.6906   38.3643 O   0  0  0  0  0  0  0  0  0  0  0  0
   19.2554   30.0986   37.8382 H   0  0  0  0  0  0  0  0  0  0  0  0
   23.1890   30.3704   39.0259 H   0  0  0  0  0  0  0  0  0  0  0  0
 10  7  1  0  0  0
 10 11  2  0  0  0
 10 12  1  0  0  0
  7  4  1  0  0  0
  7  8  1  0  0  0
  4  1  1  0  0  0
  4  5  1  0  0  0
  1 14  1  0  0  0
  1  2  1  0  0  0
 14 17  1  0  0  0
 14 15  1  0  0  0
 17 18  1  0  0  0
 18 19  1  0  0  0
 19 20  2  0  0  0
 19 21  1  0  0  0
 19 22  1  0  0  0
 12 13  1  0  0  0
  8  9  1  0  0  0
  5  6  1  0  0  0
  2  3  1  0  0  0
 15 16  1  0  0  0
 21 23  1  0  0  0
 22 24  1  0  0  0
M  END
> <minimizedAffinity>
-7.91910

$$$$
1PGP_6PG_A_502


 24 23  0  0  0  0  0  0  0  0999 V2000
   24.4966   27.9853   39.3576 C   0  0  0  0  0  0  0  0  0  0  0  0
   24.9947   27.3912   38.1586 O   0  0  0  0  0  0  0  0  0  0  0  0
   24.4736   27.7034   37.4024 H   0  0  0  0  0  0  0  0  0  0  0  0
   24.6982   29.5686   39.4929 C   0  0  0  0  0  0  0  0  0  0  0  0
   23.7456   30.2629   38.7176 O   0  0  0  0  0  0  0  0  0  0  0  0
   23.9302   30.1216   37.7758 H   0  0  0  0  0  0  0  0  0  0  0  0
   26.0756   30.2889   39.0946 C   0  0  0  0  0  0  0  0  0  0  0  0
   26.1690   30.3801   37.6739 O   0  0  0  0  0  0  0  0  0  0  0  0
   25.4404   30.9242   37.3363 H   0  0  0  0  0  0  0  0  0  0  0  0
   26.2265   31.6871   39.7324 C   0  0  0  0  0  0  0  0  0  0  0  0
   27.3956   32.2721   39.8469 O   0  0  0  0  0  0  0  0  0  0  0  0
   25.2246   32.3082   40.1041 O   0  0  0  0  0  0  0  0  0  0  0  0
   24.3769   31.9151   40.0340 H   0  0  0  0  0  0  0  0  0  0  0  0
   22.9420   27.5277   39.4601 C   0  0  0  0  0  0  0  0  0  0  0  0
   22.3280   27.5550   38.1774 O   0  0  0  0  0  0  0  0  0  0  0  0
   22.2570   28.4730   37.8723 H   0  0  0  0  0  0  0  0  0  0  0  0
   21.9357   28.2956   40.4041 C   0  0  0  0  0  0  0  0  0  0  0  0
   21.2057   29.5151   39.8776 O   0  0  0  0  0  0  0  0  0  0  0  0
   19.7456   29.4027   39.1575 P   0  0  0  0  0  0  0  0  0  0  0  0
   18.7560   29.8383   40.2296 O   0  0  0  0  0  0  0  0  0  0  0  0
   19.3058   27.9992   38.8609 O   0  0  0  0  0  0  0  0  0  0  0  0
   19.5973   30.3440   37.8870 O   0  0  0  0  0  0  0  0  0  0  0  0
   19.4092   27.4531   39.6558 H   0  0  0  0  0  0  0  0  0  0  0  0
   19.8894   31.2409   38.1132 H   0  0  0  0  0  0  0  0  0  0  0  0
 10  7  1  0  0  0
 10 11  2  0  0  0
 10 12  1  0  0  0
  7  4  1  0  0  0
  7  8  1  0  0  0
  4  1  1  0  0  0
  4  5  1  0  0  0
  1 14  1  0  0  0
  1  2  1  0  0  0
 14 17  1  0  0  0
 14 15  1  0  0  0
 17 18  1  0  0  0
 18 19  1  0  0  0
 19 20  2  0  0  0
 19 21  1  0  0  0
 19 22  1  0  0  0
 12 13  1  0  0  0
  8  9  1  0  0  0
  5  6  1  0  0  0
  2  3  1  0  0  0
 15 16  1  0  0  0
 21 23  1  0  0  0
 22 24  1  0  0  0
M  END
> <minimizedAffinity>
-7.89925

$$$$
1PGP_6PG_A_502


 24 23  0  0  0  0  0  0  0  0999 V2000
   22.4720   30.5190   39.5673 C   0  0  0  0  0  0  0  0  0  0  0  0
   22.7607   30.6017   38.1714 O   0  0  0  0  0  0  0  0  0  0  0  0
   22.3428   29.8577   37.7101 H   0  0  0  0  0  0  0  0  0  0  0  0
   20.9401   30.7369   39.9815 C   0  0  0  0  0  0  0  0  0  0  0  0
   20.6949   30.2336   41.2765 O   0  0  0  0  0  0  0  0  0  0  0  0
   20.7588   29.2658   41.2647 H   0  0  0  0  0  0  0  0  0  0  0  0
   19.7305   30.1222   39.1249 C   0  0  0  0  0  0  0  0  0  0  0  0
   20.0637   30.1622   37.7383 O   0  0  0  0  0  0  0  0  0  0  0  0
   20.8490   29.6157   37.5785 H   0  0  0  0  0  0  0  0  0  0  0  0
   19.3687   28.6817   39.5477 C   0  0  0  0  0  0  0  0  0  0  0  0
   18.4755   28.4381   40.4779 O   0  0  0  0  0  0  0  0  0  0  0  0
   19.8868   27.7196   38.9702 O   0  0  0  0  0  0  0  0  0  0  0  0
   20.5275   27.8638   38.3019 H   0  0  0  0  0  0  0  0  0  0  0  0
   23.0687   29.0894   40.0540 C   0  0  0  0  0  0  0  0  0  0  0  0
   23.3959   29.1300   41.4375 O   0  0  0  0  0  0  0  0  0  0  0  0
   24.1468   29.7286   41.5747 H   0  0  0  0  0  0  0  0  0  0  0  0
   24.3421   28.4676   39.3574 C   0  0  0  0  0  0  0  0  0  0  0  0
   25.2993   29.3757   38.6113 O   0  0  0  0  0  0  0  0  0  0  0  0
   26.4051   30.2896   39.3891 P   0  0  0  0  0  0  0  0  0  0  0  0
   26.0737   31.7191   38.9828 O   0  0  0  0  0  0  0  0  0  0  0  0
   27.8096   30.1267   38.8868 O   0  0  0  0  0  0  0  0  0  0  0  0
   26.3294   30.1579   40.9700 O   0  0  0  0  0  0  0  0  0  0  0  0
   27.8194   30.2126   37.9207 H   0  0  0  0  0  0  0  0  0  0  0  0
   25.4103   30.2680   41.2600 H   0  0  0  0  0  0  0  0  0  0  0  0
 10  7  1  0  0  0
 10 11  2  0  0  0
 10 12  1  0  0  0
  7  4  1  0  0  0
  7  8  1  0  0  0
  4  1  1  0  0  0
  4  5  1  0  0  0
  1 14  1  0  0  0
  1  2  1  0  0  0
 14 17  1  0  0  0
 14 15  1  0  0  0
 17 18  1  0  0  0
 18 19  1  0  0  0
 19 20  2  0  0  0
 19 21  1  0  0  0
 19 22  1  0  0  0
 12 13  1  0  0  0
  8  9  1  0  0  0
  5  6  1  0  0  0
  2  3  1  0  0  0
 15 16  1  0  0  0
 21 23  1  0  0  0
 22 24  1  0  0  0
M  END
> <minimizedAffinity>
-7.81083

$$$$
1PGP_6PG_A_502


 24 23  0  0  0  0  0  0  0  0999 V2000
   23.6309   30.2888   40.2516 C   0  0  0  0  0  0  0  0  0  0  0  0
   23.5841   29.3161   41.2958 O   0  0  0  0  0  0  0  0  0  0  0  0
   24.0144   28.4998   40.9967 H   0  0  0  0  0  0  0  0  0  0  0  0
   25.0853   30.8427   39.8728 C   0  0  0  0  0  0  0  0  0  0  0  0
   25.2225   30.9748   38.4748 O   0  0  0  0  0  0  0  0  0  0  0  0
   25.2356   30.0949   38.0667 H   0  0  0  0  0  0  0  0  0  0  0  0
   26.4271   30.0687   40.2914 C   0  0  0  0  0  0  0  0  0  0  0  0
   26.1815   28.6633   40.2961 O   0  0  0  0  0  0  0  0  0  0  0  0
   25.9381   28.3746   39.4027 H   0  0  0  0  0  0  0  0  0  0  0  0
   27.6219   30.4007   39.3711 C   0  0  0  0  0  0  0  0  0  0  0  0
   27.9364   29.6434   38.3465 O   0  0  0  0  0  0  0  0  0  0  0  0
   28.2793   31.4304   39.5589 O   0  0  0  0  0  0  0  0  0  0  0  0
   28.0768   31.9899   40.2827 H   0  0  0  0  0  0  0  0  0  0  0  0
   22.8544   29.6181   38.9932 C   0  0  0  0  0  0  0  0  0  0  0  0
   22.1097   30.6012   38.2847 O   0  0  0  0  0  0  0  0  0  0  0  0
   21.3786   30.9150   38.8395 H   0  0  0  0  0  0  0  0  0  0  0  0
   21.8415   28.4268   39.2124 C   0  0  0  0  0  0  0  0  0  0  0  0
   20.8566   28.4904   40.3628 O   0  0  0  0  0  0  0  0  0  0  0  0
   19.3168   28.9888   40.1540 P   0  0  0  0  0  0  0  0  0  0  0  0
   19.2798   29.5304   38.7314 O   0  0  0  0  0  0  0  0  0  0  0  0
   18.9371   30.1903   40.9686 O   0  0  0  0  0  0  0  0  0  0  0  0
   18.2522   27.8198   40.3029 O   0  0  0  0  0  0  0  0  0  0  0  0
   19.6067   30.8829   40.8549 H   0  0  0  0  0  0  0  0  0  0  0  0
   18.5277   27.0611   39.7650 H   0  0  0  0  0  0  0  0  0  0  0  0
 10  7  1  0  0  0
 10 11  2  0  0  0
 10 12  1  0  0  0
  7  4  1  0  0  0
  7  8  1  0  0  0
  4  1  1  0  0  0
  4  5  1  0  0  0
  1 14  1  0  0  0
  1  2  1  0  0  0
 14 17  1  0  0  0
 14 15  1  0  0  0
 17 18  1  0  0  0
 18 19  1  0  0  0
 19 20  2  0  0  0
 19 21  1  0  0  0
 19 22  1  0  0  0
 12 13  1  0  0  0
  8  9  1  0  0  0
  5  6  1  0  0  0
  2  3  1  0  0  0
 15 16  1  0  0  0
 21 23  1  0  0  0
 22 24  1  0  0  0
M  END
> <minimizedAffinity>
-7.80370

$$$$
1PGP_6PG_A_502


 24 23  0  0  0  0  0  0  0  0999 V2000
   23.7001   29.0659   39.8779 C   0  0  0  0  0  0  0  0  0  0  0  0
   23.2643   29.3735   41.2023 O   0  0  0  0  0  0  0  0  0  0  0  0
   23.5050   28.6473   41.7988 H   0  0  0  0  0  0  0  0  0  0  0  0
   25.2854   29.0130   39.6550 C   0  0  0  0  0  0  0  0  0  0  0  0
   25.9679   29.1117   40.8858 O   0  0  0  0  0  0  0  0  0  0  0  0
   25.8508   30.0032   41.2499 H   0  0  0  0  0  0  0  0  0  0  0  0
   26.0522   30.0812   38.7353 C   0  0  0  0  0  0  0  0  0  0  0  0
   25.0993   30.9432   38.1154 O   0  0  0  0  0  0  0  0  0  0  0  0
   24.6139   31.4325   38.7979 H   0  0  0  0  0  0  0  0  0  0  0  0
   27.0930   30.9093   39.5200 C   0  0  0  0  0  0  0  0  0  0  0  0
   26.7468   31.9488   40.2424 O   0  0  0  0  0  0  0  0  0  0  0  0
   28.2810   30.5683   39.5203 O   0  0  0  0  0  0  0  0  0  0  0  0
   28.5566   29.8299   39.0137 H   0  0  0  0  0  0  0  0  0  0  0  0
   22.9522   27.6802   39.4815 C   0  0  0  0  0  0  0  0  0  0  0  0
   22.4524   27.7455   38.1515 O   0  0  0  0  0  0  0  0  0  0  0  0
   21.7315   28.3930   38.1084 H   0  0  0  0  0  0  0  0  0  0  0  0
   21.7410   27.1431   40.3404 C   0  0  0  0  0  0  0  0  0  0  0  0
   20.7210   28.1244   40.8827 O   0  0  0  0  0  0  0  0  0  0  0  0
   19.3301   28.4479   40.0931 P   0  0  0  0  0  0  0  0  0  0  0  0
   18.9002   29.8109   40.6185 O   0  0  0  0  0  0  0  0  0  0  0  0
   18.1763   27.5713   40.4827 O   0  0  0  0  0  0  0  0  0  0  0  0
   19.5047   28.5199   38.5162 O   0  0  0  0  0  0  0  0  0  0  0  0
   18.0985   27.5499   41.4493 H   0  0  0  0  0  0  0  0  0  0  0  0
   20.2569   29.0929   38.3000 H   0  0  0  0  0  0  0  0  0  0  0  0
 10  7  1  0  0  0
 10 11  2  0  0  0
 10 12  1  0  0  0
  7  4  1  0  0  0
  7  8  1  0  0  0
  4  1  1  0  0  0
  4  5  1  0  0  0
  1 14  1  0  0  0
  1  2  1  0  0  0
 14 17  1  0  0  0
 14 15  1  0  0  0
 17 18  1  0  0  0
 18 19  1  0  0  0
 19 20  2  0  0  0
 19 21  1  0  0  0
 19 22  1  0  0  0
 12 13  1  0  0  0
  8  9  1  0  0  0
  5  6  1  0  0  0
  2  3  1  0  0  0
 15 16  1  0  0  0
 21 23  1  0  0  0
 22 24  1  0  0  0
M  END
> <minimizedAffinity>
-7.50374

$$$$
1PGP_6PG_A_502


 24 23  0  0  0  0  0  0  0  0999 V2000
   24.2661   28.0129   40.7144 C   0  0  0  0  0  0  0  0  0  0  0  0
   25.3011   27.1128   41.1110 O   0  0  0  0  0  0  0  0  0  0  0  0
   25.8176   26.8509   40.3329 H   0  0  0  0  0  0  0  0  0  0  0  0
   24.7469   29.4452   40.1826 C   0  0  0  0  0  0  0  0  0  0  0  0
   24.3060   29.6624   38.8601 O   0  0  0  0  0  0  0  0  0  0  0  0
   24.7761   29.0627   38.2599 H   0  0  0  0  0  0  0  0  0  0  0  0
   26.2978   29.8511   40.1127 C   0  0  0  0  0  0  0  0  0  0  0  0
   26.9275   29.5314   41.3523 O   0  0  0  0  0  0  0  0  0  0  0  0
   26.8770   28.5746   41.5033 H   0  0  0  0  0  0  0  0  0  0  0  0
   27.0424   29.1719   38.9426 C   0  0  0  0  0  0  0  0  0  0  0  0
   26.7253   27.9680   38.5275 O   0  0  0  0  0  0  0  0  0  0  0  0
   27.9290   29.7833   38.3363 O   0  0  0  0  0  0  0  0  0  0  0  0
   28.1759   30.6446   38.6107 H   0  0  0  0  0  0  0  0  0  0  0  0
   23.3677   27.1985   39.6344 C   0  0  0  0  0  0  0  0  0  0  0  0
   24.0113   27.1750   38.3662 O   0  0  0  0  0  0  0  0  0  0  0  0
   24.0258   28.0708   37.9944 H   0  0  0  0  0  0  0  0  0  0  0  0
   21.8834   27.6392   39.3241 C   0  0  0  0  0  0  0  0  0  0  0  0
   21.6293   28.7244   38.2970 O   0  0  0  0  0  0  0  0  0  0  0  0
   20.8329   30.0984   38.6725 P   0  0  0  0  0  0  0  0  0  0  0  0
   19.7736   29.6642   39.6764 O   0  0  0  0  0  0  0  0  0  0  0  0
   20.0076   30.6634   37.5539 O   0  0  0  0  0  0  0  0  0  0  0  0
   21.7635   31.2045   39.3304 O   0  0  0  0  0  0  0  0  0  0  0  0
   19.4529   29.9632   37.1758 H   0  0  0  0  0  0  0  0  0  0  0  0
   22.2814   30.8064   40.0475 H   0  0  0  0  0  0  0  0  0  0  0  0
 10  7  1  0  0  0
 10 11  2  0  0  0
 10 12  1  0  0  0
  7  4  1  0  0  0
  7  8  1  0  0  0
  4  1  1  0  0  0
  4  5  1  0  0  0
  1 14  1  0  0  0
  1  2  1  0  0  0
 14 17  1  0  0  0
 14 15  1  0  0  0
 17 18  1  0  0  0
 18 19  1  0  0  0
 19 20  2  0  0  0
 19 21  1  0  0  0
 19 22  1  0  0  0
 12 13  1  0  0  0
  8  9  1  0  0  0
  5  6  1  0  0  0
  2  3  1  0  0  0
 15 16  1  0  0  0
 21 23  1  0  0  0
 22 24  1  0  0  0
M  END
> <minimizedAffinity>
-7.36681

$$$$
1PGP_6PG_A_502


 24 23  0  0  0  0  0  0  0  0999 V2000
   23.2302   30.1101   39.5954 C   0  0  0  0  0  0  0  0  0  0  0  0
   22.6897   30.6357   38.3828 O   0  0  0  0  0  0  0  0  0  0  0  0
   22.5359   31.5881   38.4835 H   0  0  0  0  0  0  0  0  0  0  0  0
   24.7027   30.6083   39.9816 C   0  0  0  0  0  0  0  0  0  0  0  0
   24.6995   31.9835   40.2969 O   0  0  0  0  0  0  0  0  0  0  0  0
   24.5227   32.4988   39.4943 H   0  0  0  0  0  0  0  0  0  0  0  0
   25.9394   30.4776   38.9676 C   0  0  0  0  0  0  0  0  0  0  0  0
   25.6070   31.1073   37.7314 O   0  0  0  0  0  0  0  0  0  0  0  0
   25.4451   32.0517   37.8828 H   0  0  0  0  0  0  0  0  0  0  0  0
   27.2461   31.0715   39.5371 C   0  0  0  0  0  0  0  0  0  0  0  0
   28.2822   30.3175   39.8203 O   0  0  0  0  0  0  0  0  0  0  0  0
   27.3550   32.2934   39.6889 O   0  0  0  0  0  0  0  0  0  0  0  0
   26.6314   32.8559   39.4944 H   0  0  0  0  0  0  0  0  0  0  0  0
   22.1258   30.4297   40.7419 C   0  0  0  0  0  0  0  0  0  0  0  0
   22.5206   29.8655   41.9864 O   0  0  0  0  0  0  0  0  0  0  0  0
   22.4881   28.8978   41.9275 H   0  0  0  0  0  0  0  0  0  0  0  0
   20.6213   29.9866   40.5586 C   0  0  0  0  0  0  0  0  0  0  0  0
   20.2889   28.8642   39.5958 O   0  0  0  0  0  0  0  0  0  0  0  0
   20.7626   27.3262   39.8667 P   0  0  0  0  0  0  0  0  0  0  0  0
   21.9105   27.1024   38.8918 O   0  0  0  0  0  0  0  0  0  0  0  0
   19.7682   26.2861   39.4416 O   0  0  0  0  0  0  0  0  0  0  0  0
   21.2723   27.0777   41.3502 O   0  0  0  0  0  0  0  0  0  0  0  0
   19.4787   26.4675   38.5338 H   0  0  0  0  0  0  0  0  0  0  0  0
   21.9116   27.7660   41.5919 H   0  0  0  0  0  0  0  0  0  0  0  0
 10  7  1  0  0  0
 10 11  2  0  0  0
 10 12  1  0  0  0
  7  4  1  0  0  0
  7  8  1  0  0  0
  4  1  1  0  0  0
  4  5  1  0  0  0
  1 14  1  0  0  0
  1  2  1  0  0  0
 14 17  1  0  0  0
 14 15  1  0  0  0
 17 18  1  0  0  0
 18 19  1  0  0  0
 19 20  2  0  0  0
 19 21  1  0  0  0
 19 22  1  0  0  0
 12 13  1  0  0  0
  8  9  1  0  0  0
  5  6  1  0  0  0
  2  3  1  0  0  0
 15 16  1  0  0  0
 21 23  1  0  0  0
 22 24  1  0  0  0
M  END
> <minimizedAffinity>
-7.31984

$$$$
1PGP_6PG_A_502


 24 23  0  0  0  0  0  0  0  0999 V2000
   24.5236   29.4503   39.7258 C   0  0  0  0  0  0  0  0  0  0  0  0
   25.0040   28.7573   38.5736 O   0  0  0  0  0  0  0  0  0  0  0  0
   24.8264   29.2867   37.7804 H   0  0  0  0  0  0  0  0  0  0  0  0
   25.2886   30.8073   40.0985 C   0  0  0  0  0  0  0  0  0  0  0  0
   24.3753   31.8720   40.2497 O   0  0  0  0  0  0  0  0  0  0  0  0
   23.9918   32.0939   39.3868 H   0  0  0  0  0  0  0  0  0  0  0  0
   26.4170   31.4377   39.1476 C   0  0  0  0  0  0  0  0  0  0  0  0
   26.6746   32.7832   39.5457 O   0  0  0  0  0  0  0  0  0  0  0  0
   27.0128   32.7923   40.4548 H   0  0  0  0  0  0  0  0  0  0  0  0
   27.7263   30.6188   39.1479 C   0  0  0  0  0  0  0  0  0  0  0  0
   27.8751   29.5531   38.3967 O   0  0  0  0  0  0  0  0  0  0  0  0
   28.6881   30.9914   39.8289 O   0  0  0  0  0  0  0  0  0  0  0  0
   28.6102   31.7491   40.3746 H   0  0  0  0  0  0  0  0  0  0  0  0
   22.9326   29.6605   39.4789 C   0  0  0  0  0  0  0  0  0  0  0  0
   22.7090   30.6236   38.4564 O   0  0  0  0  0  0  0  0  0  0  0  0
   22.9903   31.4978   38.7686 H   0  0  0  0  0  0  0  0  0  0  0  0
   21.9842   30.1019   40.6617 C   0  0  0  0  0  0  0  0  0  0  0  0
   20.7073   29.3271   40.9196 O   0  0  0  0  0  0  0  0  0  0  0  0
   19.6987   28.8985   39.7104 P   0  0  0  0  0  0  0  0  0  0  0  0
   18.3680   28.6294   40.3997 O   0  0  0  0  0  0  0  0  0  0  0  0
   20.0119   27.5731   39.0807 O   0  0  0  0  0  0  0  0  0  0  0  0
   19.5082   30.0356   38.6181 O   0  0  0  0  0  0  0  0  0  0  0  0
   20.1217   26.9036   39.7739 H   0  0  0  0  0  0  0  0  0  0  0  0
   19.3076   30.8764   39.0583 H   0  0  0  0  0  0  0  0  0  0  0  0
 10  7  1  0  0  0
 10 11  2  0  0  0
 10 12  1  0  0  0
  7  4  1  0  0  0
  7  8  1  0  0  0
  4  1  1  0  0  0
  4  5  1  0  0  0
  1 14  1  0  0  0
  1  2  1  0  0  0
 14 17  1  0  0  0
 14 15  1  0  0  0
 17 18  1  0  0  0
 18 19  1  0  0  0
 19 20  2  0  0  0
 19 21  1  0  0  0
 19 22  1  0  0  0
 12 13  1  0  0  0
  8  9  1  0  0  0
  5  6  1  0  0  0
  2  3  1  0  0  0
 15 16  1  0  0  0
 21 23  1  0  0  0
 22 24  1  0  0  0
M  END
> <minimizedAffinity>
-7.28381

$$$$
