4XU1_44O_A_301


 43 47  0  0  0  0  0  0  0  0999 V2000
   -4.6609   -5.6254    6.6391 S   0  0  0  0  0  0  0  0  0  0  0  0
   -5.9669   -5.7450    6.0591 O   0  0  0  0  0  0  0  0  0  0  0  0
   -3.6803   -5.6236    5.5946 O   0  0  0  0  0  0  0  0  0  0  0  0
   -5.2614   -7.1692    8.5955 C   0  0  0  0  0  0  0  0  0  0  0  0
   -6.2965   -6.5736    8.8322 O   0  0  0  0  0  0  0  0  0  0  0  0
   -4.4058   -6.8604    7.6348 N   0  0  0  0  0  0  0  0  0  0  0  0
   -3.5907   -7.4019    7.5271 H   0  0  0  0  0  0  0  0  0  0  0  0
   -4.8788   -8.3763    9.4244 C   0  0  0  0  0  0  0  0  0  0  0  0
   -4.5735   -7.9553   10.8633 C   0  0  0  0  0  0  0  0  0  0  0  0
   -4.3192   -9.1775   11.7483 C   0  0  0  0  0  0  0  0  0  0  0  0
   -4.0278   -8.7854   13.2011 C   0  0  0  0  0  0  0  0  0  0  0  0
   -2.6899  -10.8686   13.9151 C   0  0  0  0  0  0  0  0  0  0  0  0
   -1.4665  -10.0965   13.6717 N   0  0  0  0  0  0  0  0  0  0  0  0
   -0.5662  -10.3098   14.6307 C   0  0  0  0  0  0  0  0  0  0  0  0
    0.5091   -9.7261   14.7069 O   0  0  0  0  0  0  0  0  0  0  0  0
   -1.0076  -11.2195   15.5137 N   0  0  0  0  0  0  0  0  0  0  0  0
   -2.3696  -11.6070   15.2166 C   0  0  0  0  0  0  0  0  0  0  0  0
   -3.2864  -11.1307   16.3455 C   0  0  0  0  0  0  0  0  0  0  0  0
   -3.8845   -9.5440   15.8372 S   0  0  0  0  0  0  0  0  0  0  0  0
   -3.9388   -9.9998   14.1241 C   0  0  0  0  0  0  0  0  0  0  0  0
   -1.3288   -9.4993   12.9013 H   0  0  0  0  0  0  0  0  0  0  0  0
   -0.4763  -11.5750   16.2624 H   0  0  0  0  0  0  0  0  0  0  0  0
   -4.7200   -4.3306    7.4186 O   0  0  0  0  0  0  0  0  0  0  0  0
   -3.5748   -3.7085    7.9704 C   0  0  0  0  0  0  0  0  0  0  0  0
   -4.0375   -2.2622    8.0649 C   0  0  0  0  0  0  0  0  0  0  0  0
   -4.6024   -2.0562    9.3590 O   0  0  0  0  0  0  0  0  0  0  0  0
   -2.8481   -1.3509    7.8238 C   0  0  0  0  0  0  0  0  0  0  0  0
   -3.2497   -0.0045    8.1603 N   0  0  0  0  0  0  0  0  0  0  0  0
   -3.8010    0.2624    9.4732 C   0  0  0  0  0  0  0  0  0  0  0  0
   -4.9398   -0.7120    9.7577 C   0  0  0  0  0  0  0  0  0  0  0  0
   -3.9551    0.2751    7.4786 H   0  0  0  0  0  0  0  0  0  0  0  0
   -6.3648   -1.1084   11.7736 C   0  0  0  0  0  0  0  0  0  0  0  0
   -6.1344   -1.3328   13.1262 C   0  0  0  0  0  0  0  0  0  0  0  0
   -7.2133   -1.5531   13.9699 C   0  0  0  0  0  0  0  0  0  0  0  0
   -4.2175   -1.0378   12.1202 C   0  0  0  0  0  0  0  0  0  0  0  0
   -8.4495   -1.5496   13.4405 N   0  0  0  0  0  0  0  0  0  0  0  0
   -7.6338   -1.1129   11.2911 N   0  0  0  0  0  0  0  0  0  0  0  0
   -5.1782   -0.9152   11.1976 N   0  0  0  0  0  0  0  0  0  0  0  0
   -4.7925   -1.2721   13.3085 N   0  0  0  0  0  0  0  0  0  0  0  0
   -8.6507   -1.3371   12.1314 C   0  0  0  0  0  0  0  0  0  0  0  0
   -7.0542   -1.7966   15.3029 N   0  0  0  0  0  0  0  0  0  0  0  0
   -6.1527   -1.8009   15.6984 H   0  0  0  0  0  0  0  0  0  0  0  0
   -7.8410   -1.9680   15.8694 H   0  0  0  0  0  0  0  0  0  0  0  0
  3  1  2  0  0  0
  2  1  2  0  0  0
  1 23  1  0  0  0
  1  6  1  0  0  0
 23 24  1  0  0  0
  6  4  1  0  0  0
 27 25  1  0  0  0
 27 28  1  0  0  0
 24 25  1  0  0  0
 25 26  1  0  0  0
 28 29  1  0  0  0
  4  5  2  0  0  0
  4  8  1  0  0  0
  8  9  1  0  0  0
 26 30  1  0  0  0
 29 30  1  0  0  0
 30 38  1  0  0  0
  9 10  1  0  0  0
 38 32  1  0  0  0
 38 35  1  0  0  0
 37 32  2  0  0  0
 37 40  1  0  0  0
 10 11  1  0  0  0
 32 33  1  0  0  0
 35 39  2  0  0  0
 40 36  2  0  0  0
 11 20  1  0  0  0
 33 39  1  0  0  0
 33 34  2  0  0  0
 13 12  1  0  0  0
 13 14  1  0  0  0
 36 34  1  0  0  0
 12 20  1  0  0  0
 12 17  1  0  0  0
 20 19  1  0  0  0
 34 41  1  0  0  0
 14 15  2  0  0  0
 14 16  1  0  0  0
 17 16  1  0  0  0
 17 18  1  0  0  0
 19 18  1  0  0  0
 13 21  1  0  0  0
 16 22  1  0  0  0
  6  7  1  0  0  0
 28 31  1  0  0  0
 41 42  1  0  0  0
 41 43  1  0  0  0
M  END
> <minimizedAffinity>
-13.12222

$$$$
4XU1_44O_A_301


 43 47  0  0  0  0  0  0  0  0999 V2000
   -4.5138   -5.5969    6.2082 S   0  0  0  0  0  0  0  0  0  0  0  0
   -4.8473   -6.0605    4.8928 O   0  0  0  0  0  0  0  0  0  0  0  0
   -3.0990   -5.3858    6.2883 O   0  0  0  0  0  0  0  0  0  0  0  0
   -4.7337   -6.5373    8.5828 C   0  0  0  0  0  0  0  0  0  0  0  0
   -4.1575   -5.5878    9.0817 O   0  0  0  0  0  0  0  0  0  0  0  0
   -4.9714   -6.6926    7.2906 N   0  0  0  0  0  0  0  0  0  0  0  0
   -5.4415   -7.5014    6.9839 H   0  0  0  0  0  0  0  0  0  0  0  0
   -5.2551   -7.6517    9.4641 C   0  0  0  0  0  0  0  0  0  0  0  0
   -4.1297   -8.2029   10.3419 C   0  0  0  0  0  0  0  0  0  0  0  0
   -4.6958   -8.9669   11.5409 C   0  0  0  0  0  0  0  0  0  0  0  0
   -3.9332   -8.6560   12.8336 C   0  0  0  0  0  0  0  0  0  0  0  0
   -2.7653  -10.7824   13.7018 C   0  0  0  0  0  0  0  0  0  0  0  0
   -1.4847  -10.1062   13.4678 N   0  0  0  0  0  0  0  0  0  0  0  0
   -0.6352  -10.3277   14.4704 C   0  0  0  0  0  0  0  0  0  0  0  0
    0.4736   -9.8127   14.5590 O   0  0  0  0  0  0  0  0  0  0  0  0
   -1.1681  -11.1590   15.3798 N   0  0  0  0  0  0  0  0  0  0  0  0
   -2.5418  -11.4711   15.0499 C   0  0  0  0  0  0  0  0  0  0  0  0
   -3.4636  -10.8773   16.1173 C   0  0  0  0  0  0  0  0  0  0  0  0
   -3.9347   -9.2835   15.5078 S   0  0  0  0  0  0  0  0  0  0  0  0
   -3.9592   -9.8237   13.8187 C   0  0  0  0  0  0  0  0  0  0  0  0
   -1.2798   -9.5604   12.6744 H   0  0  0  0  0  0  0  0  0  0  0  0
   -0.6888  -11.5090   16.1653 H   0  0  0  0  0  0  0  0  0  0  0  0
   -5.3265   -4.3317    6.3710 O   0  0  0  0  0  0  0  0  0  0  0  0
   -5.3492   -3.2985    5.4041 C   0  0  0  0  0  0  0  0  0  0  0  0
   -6.4989   -2.4408    5.9111 C   0  0  0  0  0  0  0  0  0  0  0  0
   -6.2858   -2.1799    7.2977 O   0  0  0  0  0  0  0  0  0  0  0  0
   -6.5457   -1.1573    5.1026 C   0  0  0  0  0  0  0  0  0  0  0  0
   -7.4723   -0.2602    5.7539 N   0  0  0  0  0  0  0  0  0  0  0  0
   -7.2813    0.0605    7.1537 C   0  0  0  0  0  0  0  0  0  0  0  0
   -7.1429   -1.2274    7.9595 C   0  0  0  0  0  0  0  0  0  0  0  0
   -8.3998   -0.6756    5.6674 H   0  0  0  0  0  0  0  0  0  0  0  0
   -6.9251   -1.1129   10.4477 C   0  0  0  0  0  0  0  0  0  0  0  0
   -5.8780   -0.9540   11.3483 C   0  0  0  0  0  0  0  0  0  0  0  0
   -6.1457   -0.9754   12.7093 C   0  0  0  0  0  0  0  0  0  0  0  0
   -5.0820   -0.8748    9.3151 C   0  0  0  0  0  0  0  0  0  0  0  0
   -7.4169   -1.1595   13.1076 N   0  0  0  0  0  0  0  0  0  0  0  0
   -8.1912   -1.2930   10.9033 N   0  0  0  0  0  0  0  0  0  0  0  0
   -6.4060   -1.0410    9.2219 N   0  0  0  0  0  0  0  0  0  0  0  0
   -4.7505   -0.7985   10.6120 N   0  0  0  0  0  0  0  0  0  0  0  0
   -8.4127   -1.3170   12.2227 C   0  0  0  0  0  0  0  0  0  0  0  0
   -5.1613   -0.8427   13.6447 N   0  0  0  0  0  0  0  0  0  0  0  0
   -4.2282   -0.7077   13.3616 H   0  0  0  0  0  0  0  0  0  0  0  0
   -5.3842   -0.8820   14.6029 H   0  0  0  0  0  0  0  0  0  0  0  0
  3  1  2  0  0  0
  2  1  2  0  0  0
  1 23  1  0  0  0
  1  6  1  0  0  0
 23 24  1  0  0  0
  6  4  1  0  0  0
 27 25  1  0  0  0
 27 28  1  0  0  0
 24 25  1  0  0  0
 25 26  1  0  0  0
 28 29  1  0  0  0
  4  5  2  0  0  0
  4  8  1  0  0  0
  8  9  1  0  0  0
 26 30  1  0  0  0
 29 30  1  0  0  0
 30 38  1  0  0  0
  9 10  1  0  0  0
 38 32  1  0  0  0
 38 35  1  0  0  0
 37 32  2  0  0  0
 37 40  1  0  0  0
 10 11  1  0  0  0
 32 33  1  0  0  0
 35 39  2  0  0  0
 40 36  2  0  0  0
 11 20  1  0  0  0
 33 39  1  0  0  0
 33 34  2  0  0  0
 13 12  1  0  0  0
 13 14  1  0  0  0
 36 34  1  0  0  0
 12 20  1  0  0  0
 12 17  1  0  0  0
 20 19  1  0  0  0
 34 41  1  0  0  0
 14 15  2  0  0  0
 14 16  1  0  0  0
 17 16  1  0  0  0
 17 18  1  0  0  0
 19 18  1  0  0  0
 13 21  1  0  0  0
 16 22  1  0  0  0
  6  7  1  0  0  0
 28 31  1  0  0  0
 41 42  1  0  0  0
 41 43  1  0  0  0
M  END
> <minimizedAffinity>
-12.28203

$$$$
4XU1_44O_A_301


 43 47  0  0  0  0  0  0  0  0999 V2000
   -4.5448   -5.0262    7.1790 S   0  0  0  0  0  0  0  0  0  0  0  0
   -5.5277   -5.2911    6.1690 O   0  0  0  0  0  0  0  0  0  0  0  0
   -3.2597   -5.4490    6.7076 O   0  0  0  0  0  0  0  0  0  0  0  0
   -4.9533   -7.1449    8.5630 C   0  0  0  0  0  0  0  0  0  0  0  0
   -4.7001   -7.8825    7.6280 O   0  0  0  0  0  0  0  0  0  0  0  0
   -4.9315   -5.8228    8.5197 N   0  0  0  0  0  0  0  0  0  0  0  0
   -5.1583   -5.3132    9.3310 H   0  0  0  0  0  0  0  0  0  0  0  0
   -5.3136   -7.7315    9.9109 C   0  0  0  0  0  0  0  0  0  0  0  0
   -4.0466   -8.0185   10.7190 C   0  0  0  0  0  0  0  0  0  0  0  0
   -4.2695   -9.1789   11.6914 C   0  0  0  0  0  0  0  0  0  0  0  0
   -4.0989   -8.7466   13.1520 C   0  0  0  0  0  0  0  0  0  0  0  0
   -2.7785  -10.8326   13.8901 C   0  0  0  0  0  0  0  0  0  0  0  0
   -1.5488  -10.0872   13.5999 N   0  0  0  0  0  0  0  0  0  0  0  0
   -0.6306  -10.2908   14.5440 C   0  0  0  0  0  0  0  0  0  0  0  0
    0.4552   -9.7230   14.5813 O   0  0  0  0  0  0  0  0  0  0  0  0
   -1.0665  -11.1702   15.4597 N   0  0  0  0  0  0  0  0  0  0  0  0
   -2.4408  -11.5427   15.2029 C   0  0  0  0  0  0  0  0  0  0  0  0
   -3.3243  -11.0227   16.3390 C   0  0  0  0  0  0  0  0  0  0  0  0
   -3.9085   -9.4399   15.8031 S   0  0  0  0  0  0  0  0  0  0  0  0
   -4.0084   -9.9384   14.1040 C   0  0  0  0  0  0  0  0  0  0  0  0
   -1.4190   -9.5122   12.8114 H   0  0  0  0  0  0  0  0  0  0  0  0
   -0.5243  -11.5151   16.2055 H   0  0  0  0  0  0  0  0  0  0  0  0
   -4.6459   -3.5350    7.4108 O   0  0  0  0  0  0  0  0  0  0  0  0
   -5.2161   -2.6442    6.4705 C   0  0  0  0  0  0  0  0  0  0  0  0
   -5.7491   -1.5491    7.3822 C   0  0  0  0  0  0  0  0  0  0  0  0
   -6.8449   -0.9133    6.7256 O   0  0  0  0  0  0  0  0  0  0  0  0
   -6.1735   -2.1721    8.6993 C   0  0  0  0  0  0  0  0  0  0  0  0
   -6.8980   -1.1704    9.4472 N   0  0  0  0  0  0  0  0  0  0  0  0
   -8.0373   -0.5172    8.8356 C   0  0  0  0  0  0  0  0  0  0  0  0
   -7.6393    0.0329    7.4694 C   0  0  0  0  0  0  0  0  0  0  0  0
   -6.2299   -0.4388    9.6897 H   0  0  0  0  0  0  0  0  0  0  0  0
   -8.7910    0.8994    5.4263 C   0  0  0  0  0  0  0  0  0  0  0  0
  -10.0372    0.7219    4.8361 C   0  0  0  0  0  0  0  0  0  0  0  0
  -10.3182    1.3654    3.6398 C   0  0  0  0  0  0  0  0  0  0  0  0
   -9.9561   -0.4411    6.6840 C   0  0  0  0  0  0  0  0  0  0  0  0
   -9.3631    2.1351    3.0886 N   0  0  0  0  0  0  0  0  0  0  0  0
   -7.8631    1.6899    4.8287 N   0  0  0  0  0  0  0  0  0  0  0  0
   -8.7849    0.1922    6.5563 N   0  0  0  0  0  0  0  0  0  0  0  0
  -10.7385   -0.1071    5.6477 N   0  0  0  0  0  0  0  0  0  0  0  0
   -8.1644    2.2889    3.6708 C   0  0  0  0  0  0  0  0  0  0  0  0
  -11.5148    1.2192    3.0007 N   0  0  0  0  0  0  0  0  0  0  0  0
  -12.2193    0.6575    3.3974 H   0  0  0  0  0  0  0  0  0  0  0  0
  -11.6737    1.6754    2.1429 H   0  0  0  0  0  0  0  0  0  0  0  0
  3  1  2  0  0  0
  2  1  2  0  0  0
  1 23  1  0  0  0
  1  6  1  0  0  0
 23 24  1  0  0  0
  6  4  1  0  0  0
 27 25  1  0  0  0
 27 28  1  0  0  0
 24 25  1  0  0  0
 25 26  1  0  0  0
 28 29  1  0  0  0
  4  5  2  0  0  0
  4  8  1  0  0  0
  8  9  1  0  0  0
 26 30  1  0  0  0
 29 30  1  0  0  0
 30 38  1  0  0  0
  9 10  1  0  0  0
 38 32  1  0  0  0
 38 35  1  0  0  0
 37 32  2  0  0  0
 37 40  1  0  0  0
 10 11  1  0  0  0
 32 33  1  0  0  0
 35 39  2  0  0  0
 40 36  2  0  0  0
 11 20  1  0  0  0
 33 39  1  0  0  0
 33 34  2  0  0  0
 13 12  1  0  0  0
 13 14  1  0  0  0
 36 34  1  0  0  0
 12 20  1  0  0  0
 12 17  1  0  0  0
 20 19  1  0  0  0
 34 41  1  0  0  0
 14 15  2  0  0  0
 14 16  1  0  0  0
 17 16  1  0  0  0
 17 18  1  0  0  0
 19 18  1  0  0  0
 13 21  1  0  0  0
 16 22  1  0  0  0
  6  7  1  0  0  0
 28 31  1  0  0  0
 41 42  1  0  0  0
 41 43  1  0  0  0
M  END
> <minimizedAffinity>
-10.72742

$$$$
4XU1_44O_A_301


 43 47  0  0  0  0  0  0  0  0999 V2000
   -4.5697   -5.3064    6.6687 S   0  0  0  0  0  0  0  0  0  0  0  0
   -5.8808   -5.4402    6.1036 O   0  0  0  0  0  0  0  0  0  0  0  0
   -3.5937   -5.4244    5.6266 O   0  0  0  0  0  0  0  0  0  0  0  0
   -5.3450   -7.1967    8.2170 C   0  0  0  0  0  0  0  0  0  0  0  0
   -6.5065   -7.0949    7.8664 O   0  0  0  0  0  0  0  0  0  0  0  0
   -4.3449   -6.4551    7.7694 N   0  0  0  0  0  0  0  0  0  0  0  0
   -3.4384   -6.6112    8.1204 H   0  0  0  0  0  0  0  0  0  0  0  0
   -4.9525   -8.2484    9.2320 C   0  0  0  0  0  0  0  0  0  0  0  0
   -4.7861   -7.6140   10.6143 C   0  0  0  0  0  0  0  0  0  0  0  0
   -4.9170   -8.6658   11.7180 C   0  0  0  0  0  0  0  0  0  0  0  0
   -3.5616   -9.0185   12.3406 C   0  0  0  0  0  0  0  0  0  0  0  0
   -2.4524  -10.9529   13.6319 C   0  0  0  0  0  0  0  0  0  0  0  0
   -1.1783  -10.2389   13.4942 N   0  0  0  0  0  0  0  0  0  0  0  0
   -0.4767  -10.2875   14.6262 C   0  0  0  0  0  0  0  0  0  0  0  0
    0.5866   -9.7035   14.8020 O   0  0  0  0  0  0  0  0  0  0  0  0
   -1.1045  -11.0299   15.5518 N   0  0  0  0  0  0  0  0  0  0  0  0
   -2.4022  -11.4574   15.0758 C   0  0  0  0  0  0  0  0  0  0  0  0
   -3.4923  -10.7903   15.9174 C   0  0  0  0  0  0  0  0  0  0  0  0
   -3.9301   -9.3126   15.0467 S   0  0  0  0  0  0  0  0  0  0  0  0
   -3.6865  -10.0563   13.4552 C   0  0  0  0  0  0  0  0  0  0  0  0
   -0.8807   -9.7838   12.6736 H   0  0  0  0  0  0  0  0  0  0  0  0
   -0.7322  -11.2533   16.4354 H   0  0  0  0  0  0  0  0  0  0  0  0
   -4.5897   -3.9466    7.3306 O   0  0  0  0  0  0  0  0  0  0  0  0
   -4.9967   -3.7461    8.6711 C   0  0  0  0  0  0  0  0  0  0  0  0
   -5.1535   -2.2334    8.7122 C   0  0  0  0  0  0  0  0  0  0  0  0
   -3.8996   -1.6629    9.0842 O   0  0  0  0  0  0  0  0  0  0  0  0
   -5.6025   -1.7504    7.3454 C   0  0  0  0  0  0  0  0  0  0  0  0
   -5.5055   -0.3089    7.3339 N   0  0  0  0  0  0  0  0  0  0  0  0
   -4.2448    0.3183    7.6747 C   0  0  0  0  0  0  0  0  0  0  0  0
   -3.7433   -0.2314    9.0065 C   0  0  0  0  0  0  0  0  0  0  0  0
   -6.2004    0.0416    7.9932 H   0  0  0  0  0  0  0  0  0  0  0  0
   -1.6451    0.2840   10.2648 C   0  0  0  0  0  0  0  0  0  0  0  0
   -0.2821    0.1735   10.0139 C   0  0  0  0  0  0  0  0  0  0  0  0
    0.6205    0.5411   11.0011 C   0  0  0  0  0  0  0  0  0  0  0  0
   -1.3839   -0.4980    8.2507 C   0  0  0  0  0  0  0  0  0  0  0  0
    0.1378    0.9852   12.1749 N   0  0  0  0  0  0  0  0  0  0  0  0
   -2.0793    0.7412   11.4671 N   0  0  0  0  0  0  0  0  0  0  0  0
   -2.2829   -0.1156    9.1645 N   0  0  0  0  0  0  0  0  0  0  0  0
   -0.1555   -0.3050    8.7519 N   0  0  0  0  0  0  0  0  0  0  0  0
   -1.1813    1.0789   12.3998 C   0  0  0  0  0  0  0  0  0  0  0  0
    1.9698    0.4404   10.8246 N   0  0  0  0  0  0  0  0  0  0  0  0
    2.3314    0.1161    9.9683 H   0  0  0  0  0  0  0  0  0  0  0  0
    2.5817    0.6919   11.5537 H   0  0  0  0  0  0  0  0  0  0  0  0
  3  1  2  0  0  0
  2  1  2  0  0  0
  1 23  1  0  0  0
  1  6  1  0  0  0
 23 24  1  0  0  0
  6  4  1  0  0  0
 27 25  1  0  0  0
 27 28  1  0  0  0
 24 25  1  0  0  0
 25 26  1  0  0  0
 28 29  1  0  0  0
  4  5  2  0  0  0
  4  8  1  0  0  0
  8  9  1  0  0  0
 26 30  1  0  0  0
 29 30  1  0  0  0
 30 38  1  0  0  0
  9 10  1  0  0  0
 38 32  1  0  0  0
 38 35  1  0  0  0
 37 32  2  0  0  0
 37 40  1  0  0  0
 10 11  1  0  0  0
 32 33  1  0  0  0
 35 39  2  0  0  0
 40 36  2  0  0  0
 11 20  1  0  0  0
 33 39  1  0  0  0
 33 34  2  0  0  0
 13 12  1  0  0  0
 13 14  1  0  0  0
 36 34  1  0  0  0
 12 20  1  0  0  0
 12 17  1  0  0  0
 20 19  1  0  0  0
 34 41  1  0  0  0
 14 15  2  0  0  0
 14 16  1  0  0  0
 17 16  1  0  0  0
 17 18  1  0  0  0
 19 18  1  0  0  0
 13 21  1  0  0  0
 16 22  1  0  0  0
  6  7  1  0  0  0
 28 31  1  0  0  0
 41 42  1  0  0  0
 41 43  1  0  0  0
M  END
> <minimizedAffinity>
-10.20146

$$$$
4XU1_44O_A_301


 43 47  0  0  0  0  0  0  0  0999 V2000
   -4.6084   -4.6776    7.3868 S   0  0  0  0  0  0  0  0  0  0  0  0
   -5.5467   -3.8636    8.1033 O   0  0  0  0  0  0  0  0  0  0  0  0
   -5.1747   -5.0483    6.1241 O   0  0  0  0  0  0  0  0  0  0  0  0
   -5.1710   -6.9465    8.4392 C   0  0  0  0  0  0  0  0  0  0  0  0
   -6.3082   -6.9390    8.0044 O   0  0  0  0  0  0  0  0  0  0  0  0
   -4.2754   -5.9911    8.2503 N   0  0  0  0  0  0  0  0  0  0  0  0
   -3.3807   -6.0876    8.6496 H   0  0  0  0  0  0  0  0  0  0  0  0
   -4.6827   -8.1239    9.2551 C   0  0  0  0  0  0  0  0  0  0  0  0
   -4.8519   -7.8395   10.7489 C   0  0  0  0  0  0  0  0  0  0  0  0
   -4.5716   -9.0938   11.5795 C   0  0  0  0  0  0  0  0  0  0  0  0
   -3.8720   -8.7634   12.9025 C   0  0  0  0  0  0  0  0  0  0  0  0
   -2.5815  -10.8263   13.7501 C   0  0  0  0  0  0  0  0  0  0  0  0
   -1.3455  -10.0573   13.5682 N   0  0  0  0  0  0  0  0  0  0  0  0
   -0.5088  -10.2462   14.5881 C   0  0  0  0  0  0  0  0  0  0  0  0
    0.5588   -9.6584   14.7199 O   0  0  0  0  0  0  0  0  0  0  0  0
   -1.0058  -11.1360   15.4618 N   0  0  0  0  0  0  0  0  0  0  0  0
   -2.3454  -11.5334   15.0865 C   0  0  0  0  0  0  0  0  0  0  0  0
   -3.3336  -11.0330   16.1424 C   0  0  0  0  0  0  0  0  0  0  0  0
   -3.8988   -9.4600   15.5595 S   0  0  0  0  0  0  0  0  0  0  0  0
   -3.8419   -9.9558   13.8576 C   0  0  0  0  0  0  0  0  0  0  0  0
   -1.1588   -9.4779   12.7945 H   0  0  0  0  0  0  0  0  0  0  0  0
   -0.5237  -11.4728   16.2513 H   0  0  0  0  0  0  0  0  0  0  0  0
   -3.3782   -3.8059    7.2680 O   0  0  0  0  0  0  0  0  0  0  0  0
   -3.0587   -2.7898    8.1999 C   0  0  0  0  0  0  0  0  0  0  0  0
   -2.9036   -1.5841    7.2851 C   0  0  0  0  0  0  0  0  0  0  0  0
   -4.1828   -1.2711    6.7355 O   0  0  0  0  0  0  0  0  0  0  0  0
   -2.3445   -0.4264    8.0914 C   0  0  0  0  0  0  0  0  0  0  0  0
   -2.4381    0.7633    7.2770 N   0  0  0  0  0  0  0  0  0  0  0  0
   -3.7214    1.1409    6.7207 C   0  0  0  0  0  0  0  0  0  0  0  0
   -4.3301   -0.0487    5.9847 C   0  0  0  0  0  0  0  0  0  0  0  0
   -1.7985    0.6383    6.4923 H   0  0  0  0  0  0  0  0  0  0  0  0
   -6.6591   -0.1386    6.8897 C   0  0  0  0  0  0  0  0  0  0  0  0
   -7.9332    0.0884    6.3816 C   0  0  0  0  0  0  0  0  0  0  0  0
   -9.0294   -0.0300    7.2235 C   0  0  0  0  0  0  0  0  0  0  0  0
   -6.4717    0.3724    4.7825 C   0  0  0  0  0  0  0  0  0  0  0  0
   -8.8142   -0.3538    8.5108 N   0  0  0  0  0  0  0  0  0  0  0  0
   -6.4979   -0.4656    8.1974 N   0  0  0  0  0  0  0  0  0  0  0  0
   -5.7984    0.0252    5.8850 N   0  0  0  0  0  0  0  0  0  0  0  0
   -7.7812    0.3931    5.0695 N   0  0  0  0  0  0  0  0  0  0  0  0
   -7.5764   -0.5630    8.9835 C   0  0  0  0  0  0  0  0  0  0  0  0
  -10.3038    0.1964    6.7918 N   0  0  0  0  0  0  0  0  0  0  0  0
  -10.4699    0.4339    5.8510 H   0  0  0  0  0  0  0  0  0  0  0  0
  -11.0572    0.1223    7.4212 H   0  0  0  0  0  0  0  0  0  0  0  0
  3  1  2  0  0  0
  2  1  2  0  0  0
  1 23  1  0  0  0
  1  6  1  0  0  0
 23 24  1  0  0  0
  6  4  1  0  0  0
 27 25  1  0  0  0
 27 28  1  0  0  0
 24 25  1  0  0  0
 25 26  1  0  0  0
 28 29  1  0  0  0
  4  5  2  0  0  0
  4  8  1  0  0  0
  8  9  1  0  0  0
 26 30  1  0  0  0
 29 30  1  0  0  0
 30 38  1  0  0  0
  9 10  1  0  0  0
 38 32  1  0  0  0
 38 35  1  0  0  0
 37 32  2  0  0  0
 37 40  1  0  0  0
 10 11  1  0  0  0
 32 33  1  0  0  0
 35 39  2  0  0  0
 40 36  2  0  0  0
 11 20  1  0  0  0
 33 39  1  0  0  0
 33 34  2  0  0  0
 13 12  1  0  0  0
 13 14  1  0  0  0
 36 34  1  0  0  0
 12 20  1  0  0  0
 12 17  1  0  0  0
 20 19  1  0  0  0
 34 41  1  0  0  0
 14 15  2  0  0  0
 14 16  1  0  0  0
 17 16  1  0  0  0
 17 18  1  0  0  0
 19 18  1  0  0  0
 13 21  1  0  0  0
 16 22  1  0  0  0
  6  7  1  0  0  0
 28 31  1  0  0  0
 41 42  1  0  0  0
 41 43  1  0  0  0
M  END
> <minimizedAffinity>
-10.18632

$$$$
