4IUO_QIC_A_301


 18 18  0  0  0  0  0  0  0  0999 V2000
    2.2201   -0.4771    0.3811 C   0  0  0  0  0  0  0  0  0  0  0  0
    1.1417    0.4627    0.5502 O   0  0  0  0  0  0  0  0  0  0  0  0
    3.4642    0.0390    1.0827 C   0  0  0  0  0  0  0  0  0  0  0  0
    2.2354    1.0785    2.8857 O   0  0  0  0  0  0  0  0  0  0  0  0
    3.2614    0.1235    2.5893 C   0  0  0  0  0  0  0  0  0  0  0  0
    2.6747   -1.0755    4.5812 O   0  0  0  0  0  0  0  0  0  0  0  0
    2.8868   -1.2281    3.1756 C   0  0  0  0  0  0  0  0  0  0  0  0
    1.3382   -3.0681    3.0390 O   0  0  0  0  0  0  0  0  0  0  0  0
    1.6440   -1.7792    2.4888 C   0  0  0  0  0  0  0  0  0  0  0  0
    1.8487   -1.8443    0.9636 C   0  0  0  0  0  0  0  0  0  0  0  0
    1.3979    1.3197    0.1751 H   0  0  0  0  0  0  0  0  0  0  0  0
    2.4771    1.9397    2.5105 H   0  0  0  0  0  0  0  0  0  0  0  0
    3.4793   -0.7240    4.9934 H   0  0  0  0  0  0  0  0  0  0  0  0
    1.2161   -2.9896    3.9981 H   0  0  0  0  0  0  0  0  0  0  0  0
    2.9870   -1.6636   -1.5226 O   0  0  0  0  0  0  0  0  0  0  0  0
    2.2829    0.4016   -1.8634 O   0  0  0  0  0  0  0  0  0  0  0  0
    2.5173   -0.5825   -1.1024 C   0  0  0  0  0  0  0  0  0  0  0  0
    1.9307    1.1944   -1.5092 H   0  0  0  0  0  0  0  0  0  0  0  0
 17  1  1  0  0  0
  2  1  1  0  0  0
  1  3  1  0  0  0
  1 10  1  0  0  0
  3  5  1  0  0  0
  4  5  1  0  0  0
  5  7  1  0  0  0
  7  6  1  0  0  0
  9  7  1  0  0  0
  9  8  1  0  0  0
 10  9  1  0  0  0
 15 17  2  0  0  0
 17 16  1  0  0  0
  2 11  1  0  0  0
  4 12  1  0  0  0
  6 13  1  0  0  0
  8 14  1  0  0  0
 16 18  1  0  0  0
M  END
> <minimizedAffinity>
-8.58122

$$$$
4IUO_QIC_A_301


 18 18  0  0  0  0  0  0  0  0999 V2000
    2.4565   -0.0337    0.4653 C   0  0  0  0  0  0  0  0  0  0  0  0
    3.5475    0.8512    0.7837 O   0  0  0  0  0  0  0  0  0  0  0  0
    2.6850   -1.3848    1.1201 C   0  0  0  0  0  0  0  0  0  0  0  0
    3.7491   -0.4562    3.0815 O   0  0  0  0  0  0  0  0  0  0  0  0
    2.6638   -1.2802    2.6390 C   0  0  0  0  0  0  0  0  0  0  0  0
    1.4047   -0.5973    4.5619 O   0  0  0  0  0  0  0  0  0  0  0  0
    1.3482   -0.7044    3.1374 C   0  0  0  0  0  0  0  0  0  0  0  0
   -0.1788    1.1498    2.9573 O   0  0  0  0  0  0  0  0  0  0  0  0
    1.0838    0.6508    2.4944 C   0  0  0  0  0  0  0  0  0  0  0  0
    1.1254    0.5419    0.9585 C   0  0  0  0  0  0  0  0  0  0  0  0
    4.3789    0.4679    0.4630 H   0  0  0  0  0  0  0  0  0  0  0  0
    4.5870   -0.8261    2.7621 H   0  0  0  0  0  0  0  0  0  0  0  0
    1.5737   -1.4721    4.9455 H   0  0  0  0  0  0  0  0  0  0  0  0
   -0.1692    1.2052    3.9256 H   0  0  0  0  0  0  0  0  0  0  0  0
    2.6873   -1.3745   -1.4761 O   0  0  0  0  0  0  0  0  0  0  0  0
    2.1739    0.7492   -1.7977 O   0  0  0  0  0  0  0  0  0  0  0  0
    2.4390   -0.2286   -1.0386 C   0  0  0  0  0  0  0  0  0  0  0  0
    1.9934    1.5920   -1.4303 H   0  0  0  0  0  0  0  0  0  0  0  0
 17  1  1  0  0  0
  2  1  1  0  0  0
  1  3  1  0  0  0
  1 10  1  0  0  0
  3  5  1  0  0  0
  4  5  1  0  0  0
  5  7  1  0  0  0
  7  6  1  0  0  0
  9  7  1  0  0  0
  9  8  1  0  0  0
 10  9  1  0  0  0
 15 17  2  0  0  0
 17 16  1  0  0  0
  2 11  1  0  0  0
  4 12  1  0  0  0
  6 13  1  0  0  0
  8 14  1  0  0  0
 16 18  1  0  0  0
M  END
> <minimizedAffinity>
-7.92702

$$$$
4IUO_QIC_A_301


 18 18  0  0  0  0  0  0  0  0999 V2000
    2.4872   -0.7754    2.2699 C   0  0  0  0  0  0  0  0  0  0  0  0
    3.8361   -0.3329    2.5135 O   0  0  0  0  0  0  0  0  0  0  0  0
    1.5839    0.4270    2.0582 C   0  0  0  0  0  0  0  0  0  0  0  0
    3.2863    1.7380    0.9516 O   0  0  0  0  0  0  0  0  0  0  0  0
    1.9670    1.1995    0.8033 C   0  0  0  0  0  0  0  0  0  0  0  0
    2.3159    1.0850   -1.5662 O   0  0  0  0  0  0  0  0  0  0  0  0
    1.9116    0.3147   -0.4316 C   0  0  0  0  0  0  0  0  0  0  0  0
    2.7014   -1.7370   -1.4158 O   0  0  0  0  0  0  0  0  0  0  0  0
    2.8031   -0.9068   -0.2505 C   0  0  0  0  0  0  0  0  0  0  0  0
    2.4229   -1.6731    1.0304 C   0  0  0  0  0  0  0  0  0  0  0  0
    3.8535    0.2330    3.3011 H   0  0  0  0  0  0  0  0  0  0  0  0
    3.3186    2.3019    1.7402 H   0  0  0  0  0  0  0  0  0  0  0  0
    1.7332    1.8550   -1.6585 H   0  0  0  0  0  0  0  0  0  0  0  0
    2.9473   -1.2236   -2.2011 H   0  0  0  0  0  0  0  0  0  0  0  0
    2.0620   -0.9149    4.5980 O   0  0  0  0  0  0  0  0  0  0  0  0
    1.5792   -2.7041    3.3968 O   0  0  0  0  0  0  0  0  0  0  0  0
    2.0115   -1.5190    3.5031 C   0  0  0  0  0  0  0  0  0  0  0  0
    1.5577   -3.1214    2.5581 H   0  0  0  0  0  0  0  0  0  0  0  0
 17  1  1  0  0  0
  2  1  1  0  0  0
  1  3  1  0  0  0
  1 10  1  0  0  0
  3  5  1  0  0  0
  4  5  1  0  0  0
  5  7  1  0  0  0
  7  6  1  0  0  0
  9  7  1  0  0  0
  9  8  1  0  0  0
 10  9  1  0  0  0
 15 17  2  0  0  0
 17 16  1  0  0  0
  2 11  1  0  0  0
  4 12  1  0  0  0
  6 13  1  0  0  0
  8 14  1  0  0  0
 16 18  1  0  0  0
M  END
> <minimizedAffinity>
-7.85211

$$$$
4IUO_QIC_A_301


 18 18  0  0  0  0  0  0  0  0999 V2000
    2.2620   -0.6377    0.5745 C   0  0  0  0  0  0  0  0  0  0  0  0
    2.0888   -2.0559    0.3916 O   0  0  0  0  0  0  0  0  0  0  0  0
    0.9794   -0.0305    1.1156 C   0  0  0  0  0  0  0  0  0  0  0  0
    0.4075   -1.9697    2.4400 O   0  0  0  0  0  0  0  0  0  0  0  0
    0.6538   -0.5599    2.5056 C   0  0  0  0  0  0  0  0  0  0  0  0
    1.4351   -0.8346    4.7558 O   0  0  0  0  0  0  0  0  0  0  0  0
    1.7840   -0.2832    3.4837 C   0  0  0  0  0  0  0  0  0  0  0  0
    4.1407   -0.5658    3.8942 O   0  0  0  0  0  0  0  0  0  0  0  0
    3.0897   -0.8740    2.9680 C   0  0  0  0  0  0  0  0  0  0  0  0
    3.4037   -0.3493    1.5542 C   0  0  0  0  0  0  0  0  0  0  0  0
    1.3624   -2.2153   -0.2311 H   0  0  0  0  0  0  0  0  0  0  0  0
   -0.3140   -2.1432    1.8152 H   0  0  0  0  0  0  0  0  0  0  0  0
    0.6020   -0.4425    5.0607 H   0  0  0  0  0  0  0  0  0  0  0  0
    3.9100   -0.9100    4.7712 H   0  0  0  0  0  0  0  0  0  0  0  0
    2.4686    1.2207   -0.8828 O   0  0  0  0  0  0  0  0  0  0  0  0
    2.8503   -0.7697   -1.7601 O   0  0  0  0  0  0  0  0  0  0  0  0
    2.5450   -0.0244   -0.7834 C   0  0  0  0  0  0  0  0  0  0  0  0
    2.8968   -1.6983   -1.6443 H   0  0  0  0  0  0  0  0  0  0  0  0
 17  1  1  0  0  0
  2  1  1  0  0  0
  1  3  1  0  0  0
  1 10  1  0  0  0
  3  5  1  0  0  0
  4  5  1  0  0  0
  5  7  1  0  0  0
  7  6  1  0  0  0
  9  7  1  0  0  0
  9  8  1  0  0  0
 10  9  1  0  0  0
 15 17  2  0  0  0
 17 16  1  0  0  0
  2 11  1  0  0  0
  4 12  1  0  0  0
  6 13  1  0  0  0
  8 14  1  0  0  0
 16 18  1  0  0  0
M  END
> <minimizedAffinity>
-7.60772

$$$$
4IUO_QIC_A_301


 18 18  0  0  0  0  0  0  0  0999 V2000
    0.7809    0.4426    2.1893 C   0  0  0  0  0  0  0  0  0  0  0  0
    1.8785    0.8857    3.0101 O   0  0  0  0  0  0  0  0  0  0  0  0
    0.8545    1.1146    0.8293 C   0  0  0  0  0  0  0  0  0  0  0  0
    3.2705    1.1295    0.7668 O   0  0  0  0  0  0  0  0  0  0  0  0
    2.1011    0.6920    0.0641 C   0  0  0  0  0  0  0  0  0  0  0  0
    3.3587   -1.1509   -0.8143 O   0  0  0  0  0  0  0  0  0  0  0  0
    2.1520   -0.8155   -0.1248 C   0  0  0  0  0  0  0  0  0  0  0  0
    2.0884   -2.9408    1.0071 O   0  0  0  0  0  0  0  0  0  0  0  0
    2.0737   -1.5227    1.2219 C   0  0  0  0  0  0  0  0  0  0  0  0
    0.8207   -1.0768    1.9988 C   0  0  0  0  0  0  0  0  0  0  0  0
    1.8338    1.8487    3.1174 H   0  0  0  0  0  0  0  0  0  0  0  0
    3.2352    2.0915    0.8858 H   0  0  0  0  0  0  0  0  0  0  0  0
    3.3834   -0.6884   -1.6666 H   0  0  0  0  0  0  0  0  0  0  0  0
    2.8888   -3.1853    0.5167 H   0  0  0  0  0  0  0  0  0  0  0  0
   -1.3283   -0.0250    3.1654 O   0  0  0  0  0  0  0  0  0  0  0  0
   -0.7151    2.0958    3.1074 O   0  0  0  0  0  0  0  0  0  0  0  0
   -0.5078    0.8708    2.8646 C   0  0  0  0  0  0  0  0  0  0  0  0
   -0.0750    2.7361    2.8660 H   0  0  0  0  0  0  0  0  0  0  0  0
 17  1  1  0  0  0
  2  1  1  0  0  0
  1  3  1  0  0  0
  1 10  1  0  0  0
  3  5  1  0  0  0
  4  5  1  0  0  0
  5  7  1  0  0  0
  7  6  1  0  0  0
  9  7  1  0  0  0
  9  8  1  0  0  0
 10  9  1  0  0  0
 15 17  2  0  0  0
 17 16  1  0  0  0
  2 11  1  0  0  0
  4 12  1  0  0  0
  6 13  1  0  0  0
  8 14  1  0  0  0
 16 18  1  0  0  0
M  END
> <minimizedAffinity>
-7.26990

$$$$
4IUO_QIC_A_301


 18 18  0  0  0  0  0  0  0  0999 V2000
    1.6930   -0.7173    2.4164 C   0  0  0  0  0  0  0  0  0  0  0  0
    0.8359   -1.8010    2.0095 O   0  0  0  0  0  0  0  0  0  0  0  0
    3.0680   -0.8905    1.7950 C   0  0  0  0  0  0  0  0  0  0  0  0
    2.2196   -1.8570   -0.2514 O   0  0  0  0  0  0  0  0  0  0  0  0
    3.0120   -0.7867    0.2770 C   0  0  0  0  0  0  0  0  0  0  0  0
    2.3719    0.5676   -1.5954 O   0  0  0  0  0  0  0  0  0  0  0  0
    2.4321    0.5465   -0.1671 C   0  0  0  0  0  0  0  0  0  0  0  0
    0.5495    2.0355    0.0353 O   0  0  0  0  0  0  0  0  0  0  0  0
    1.0529    0.7562    0.4443 C   0  0  0  0  0  0  0  0  0  0  0  0
    1.1130    0.6311    1.9784 C   0  0  0  0  0  0  0  0  0  0  0  0
    1.2216   -2.6435    2.2965 H   0  0  0  0  0  0  0  0  0  0  0  0
    2.5920   -2.7061    0.0335 H   0  0  0  0  0  0  0  0  0  0  0  0
    3.2611    0.4321   -1.9585 H   0  0  0  0  0  0  0  0  0  0  0  0
    0.5255    2.0788   -0.9334 H   0  0  0  0  0  0  0  0  0  0  0  0
    0.7980   -0.6764    4.6112 O   0  0  0  0  0  0  0  0  0  0  0  0
    2.9841   -0.9389    4.4407 O   0  0  0  0  0  0  0  0  0  0  0  0
    1.8391   -0.7804    3.9246 C   0  0  0  0  0  0  0  0  0  0  0  0
    3.7395   -1.0126    3.8913 H   0  0  0  0  0  0  0  0  0  0  0  0
 17  1  1  0  0  0
  2  1  1  0  0  0
  1  3  1  0  0  0
  1 10  1  0  0  0
  3  5  1  0  0  0
  4  5  1  0  0  0
  5  7  1  0  0  0
  7  6  1  0  0  0
  9  7  1  0  0  0
  9  8  1  0  0  0
 10  9  1  0  0  0
 15 17  2  0  0  0
 17 16  1  0  0  0
  2 11  1  0  0  0
  4 12  1  0  0  0
  6 13  1  0  0  0
  8 14  1  0  0  0
 16 18  1  0  0  0
M  END
> <minimizedAffinity>
-7.18701

$$$$
4IUO_QIC_A_301


 18 18  0  0  0  0  0  0  0  0999 V2000
    2.6884    0.5840    1.6328 C   0  0  0  0  0  0  0  0  0  0  0  0
    3.0342    1.0544    2.9495 O   0  0  0  0  0  0  0  0  0  0  0  0
    3.3948   -0.7319    1.3569 C   0  0  0  0  0  0  0  0  0  0  0  0
    3.2545   -1.4944    3.6461 O   0  0  0  0  0  0  0  0  0  0  0  0
    2.9153   -1.8308    2.2954 C   0  0  0  0  0  0  0  0  0  0  0  0
    1.0218   -3.0553    3.1108 O   0  0  0  0  0  0  0  0  0  0  0  0
    1.4141   -2.0413    2.1823 C   0  0  0  0  0  0  0  0  0  0  0  0
   -0.7358   -0.9610    2.2985 O   0  0  0  0  0  0  0  0  0  0  0  0
    0.6732   -0.7371    2.4473 C   0  0  0  0  0  0  0  0  0  0  0  0
    1.1760    0.3751    1.5078 C   0  0  0  0  0  0  0  0  0  0  0  0
    3.9944    1.1796    3.0063 H   0  0  0  0  0  0  0  0  0  0  0  0
    4.2128   -1.3607    3.7151 H   0  0  0  0  0  0  0  0  0  0  0  0
    1.5072   -3.8732    2.9204 H   0  0  0  0  0  0  0  0  0  0  0  0
   -1.0169   -1.6654    2.9032 H   0  0  0  0  0  0  0  0  0  0  0  0
    2.7044    1.5584   -0.5283 O   0  0  0  0  0  0  0  0  0  0  0  0
    4.0330    2.4756    0.9785 O   0  0  0  0  0  0  0  0  0  0  0  0
    3.1789    1.6092    0.6285 C   0  0  0  0  0  0  0  0  0  0  0  0
    4.3639    2.4798    1.8551 H   0  0  0  0  0  0  0  0  0  0  0  0
 17  1  1  0  0  0
  2  1  1  0  0  0
  1  3  1  0  0  0
  1 10  1  0  0  0
  3  5  1  0  0  0
  4  5  1  0  0  0
  5  7  1  0  0  0
  7  6  1  0  0  0
  9  7  1  0  0  0
  9  8  1  0  0  0
 10  9  1  0  0  0
 15 17  2  0  0  0
 17 16  1  0  0  0
  2 11  1  0  0  0
  4 12  1  0  0  0
  6 13  1  0  0  0
  8 14  1  0  0  0
 16 18  1  0  0  0
M  END
> <minimizedAffinity>
-6.90442

$$$$
4IUO_QIC_A_301


 18 18  0  0  0  0  0  0  0  0999 V2000
    0.1153   -0.1880    2.4034 C   0  0  0  0  0  0  0  0  0  0  0  0
    0.0206   -1.5506    1.9462 O   0  0  0  0  0  0  0  0  0  0  0  0
    1.0219   -0.1176    3.6198 C   0  0  0  0  0  0  0  0  0  0  0  0
    2.4920   -1.8748    2.8500 O   0  0  0  0  0  0  0  0  0  0  0  0
    2.4526   -0.5067    3.2735 C   0  0  0  0  0  0  0  0  0  0  0  0
    4.3473   -0.0538    1.8754 O   0  0  0  0  0  0  0  0  0  0  0  0
    3.0207    0.3837    2.1802 C   0  0  0  0  0  0  0  0  0  0  0  0
    2.6739    1.2176   -0.0529 O   0  0  0  0  0  0  0  0  0  0  0  0
    2.1307    0.3419    0.9448 C   0  0  0  0  0  0  0  0  0  0  0  0
    0.6811    0.7179    1.3054 C   0  0  0  0  0  0  0  0  0  0  0  0
   -0.3392   -2.1055    2.6557 H   0  0  0  0  0  0  0  0  0  0  0  0
    2.1290   -2.4403    3.5495 H   0  0  0  0  0  0  0  0  0  0  0  0
    4.8919   -0.0175    2.6772 H   0  0  0  0  0  0  0  0  0  0  0  0
    3.5848    0.9522   -0.2548 H   0  0  0  0  0  0  0  0  0  0  0  0
   -1.4320    1.4742    3.0839 O   0  0  0  0  0  0  0  0  0  0  0  0
   -2.2175   -0.5789    2.8717 O   0  0  0  0  0  0  0  0  0  0  0  0
   -1.2731    0.2622    2.8157 C   0  0  0  0  0  0  0  0  0  0  0  0
   -2.0570   -1.4781    2.6629 H   0  0  0  0  0  0  0  0  0  0  0  0
 17  1  1  0  0  0
  2  1  1  0  0  0
  1  3  1  0  0  0
  1 10  1  0  0  0
  3  5  1  0  0  0
  4  5  1  0  0  0
  5  7  1  0  0  0
  7  6  1  0  0  0
  9  7  1  0  0  0
  9  8  1  0  0  0
 10  9  1  0  0  0
 15 17  2  0  0  0
 17 16  1  0  0  0
  2 11  1  0  0  0
  4 12  1  0  0  0
  6 13  1  0  0  0
  8 14  1  0  0  0
 16 18  1  0  0  0
M  END
> <minimizedAffinity>
-6.73573

$$$$
4IUO_QIC_A_301


 18 18  0  0  0  0  0  0  0  0999 V2000
    2.4191    0.5203    1.6437 C   0  0  0  0  0  0  0  0  0  0  0  0
    1.3355    1.2321    2.2714 O   0  0  0  0  0  0  0  0  0  0  0  0
    3.3010   -0.1112    2.7066 C   0  0  0  0  0  0  0  0  0  0  0  0
    1.4671   -0.5686    4.2130 O   0  0  0  0  0  0  0  0  0  0  0  0
    2.5498   -1.1743    3.4964 C   0  0  0  0  0  0  0  0  0  0  0  0
    1.2890   -3.2105    3.3785 O   0  0  0  0  0  0  0  0  0  0  0  0
    2.0126   -2.2664    2.5855 C   0  0  0  0  0  0  0  0  0  0  0  0
    0.6661   -2.7160    0.6395 O   0  0  0  0  0  0  0  0  0  0  0  0
    1.1272   -1.6661    1.5012 C   0  0  0  0  0  0  0  0  0  0  0  0
    1.8867   -0.5784    0.7186 C   0  0  0  0  0  0  0  0  0  0  0  0
    1.6947    1.9216    2.8514 H   0  0  0  0  0  0  0  0  0  0  0  0
    1.8128    0.1276    4.7932 H   0  0  0  0  0  0  0  0  0  0  0  0
    1.8745   -3.5768    4.0596 H   0  0  0  0  0  0  0  0  0  0  0  0
    0.1938   -3.3811    1.1643 H   0  0  0  0  0  0  0  0  0  0  0  0
    3.0794    1.5848   -0.3690 O   0  0  0  0  0  0  0  0  0  0  0  0
    4.0724    2.2680    1.4815 O   0  0  0  0  0  0  0  0  0  0  0  0
    3.2497    1.5257    0.8694 C   0  0  0  0  0  0  0  0  0  0  0  0
    4.1703    2.1925    2.4103 H   0  0  0  0  0  0  0  0  0  0  0  0
 17  1  1  0  0  0
  2  1  1  0  0  0
  1  3  1  0  0  0
  1 10  1  0  0  0
  3  5  1  0  0  0
  4  5  1  0  0  0
  5  7  1  0  0  0
  7  6  1  0  0  0
  9  7  1  0  0  0
  9  8  1  0  0  0
 10  9  1  0  0  0
 15 17  2  0  0  0
 17 16  1  0  0  0
  2 11  1  0  0  0
  4 12  1  0  0  0
  6 13  1  0  0  0
  8 14  1  0  0  0
 16 18  1  0  0  0
M  END
> <minimizedAffinity>
-6.65499

$$$$
4IUO_QIC_A_301


 18 18  0  0  0  0  0  0  0  0999 V2000
    1.7932   -0.2307    2.7866 C   0  0  0  0  0  0  0  0  0  0  0  0
    0.9568    0.8599    3.2177 O   0  0  0  0  0  0  0  0  0  0  0  0
    1.1849   -0.8891    1.5606 C   0  0  0  0  0  0  0  0  0  0  0  0
    0.2999    1.1754    0.6685 O   0  0  0  0  0  0  0  0  0  0  0  0
    1.1531    0.0631    0.3730 C   0  0  0  0  0  0  0  0  0  0  0  0
    2.4446    1.4791   -1.0681 O   0  0  0  0  0  0  0  0  0  0  0  0
    2.5456    0.5647    0.0263 C   0  0  0  0  0  0  0  0  0  0  0  0
    4.5121    1.6563    0.8887 O   0  0  0  0  0  0  0  0  0  0  0  0
    3.1889    1.2265    1.2380 C   0  0  0  0  0  0  0  0  0  0  0  0
    3.2008    0.2648    2.4411 C   0  0  0  0  0  0  0  0  0  0  0  0
    0.0721    0.5242    3.4309 H   0  0  0  0  0  0  0  0  0  0  0  0
   -0.5877    0.8523    0.8892 H   0  0  0  0  0  0  0  0  0  0  0  0
    2.0326    1.0335   -1.8248 H   0  0  0  0  0  0  0  0  0  0  0  0
    4.4667    2.2586    0.1298 H   0  0  0  0  0  0  0  0  0  0  0  0
    2.1515   -0.8483    5.0472 O   0  0  0  0  0  0  0  0  0  0  0  0
    1.5575   -2.4642    3.6641 O   0  0  0  0  0  0  0  0  0  0  0  0
    1.8378   -1.2535    3.9055 C   0  0  0  0  0  0  0  0  0  0  0  0
    1.3273   -2.7274    2.7948 H   0  0  0  0  0  0  0  0  0  0  0  0
 17  1  1  0  0  0
  2  1  1  0  0  0
  1  3  1  0  0  0
  1 10  1  0  0  0
  3  5  1  0  0  0
  4  5  1  0  0  0
  5  7  1  0  0  0
  7  6  1  0  0  0
  9  7  1  0  0  0
  9  8  1  0  0  0
 10  9  1  0  0  0
 15 17  2  0  0  0
 17 16  1  0  0  0
  2 11  1  0  0  0
  4 12  1  0  0  0
  6 13  1  0  0  0
  8 14  1  0  0  0
 16 18  1  0  0  0
M  END
> <minimizedAffinity>
-6.37271

$$$$
