3QTV_06P_H_1001


 30 32  0  0  0  0  0  0  0  0999 V2000
   17.5523  -13.4865   22.4544 C   0  0  0  0  0  0  0  0  0  0  0  0
   16.5771  -12.8149   22.7866 O   0  0  0  0  0  0  0  0  0  0  0  0
   18.3531  -13.0955   21.4684 N   0  0  0  0  0  0  0  0  0  0  0  0
   18.0674  -11.8477   20.7586 C   0  0  0  0  0  0  0  0  0  0  0  0
   19.0987  -11.8160   19.6350 C   0  0  0  0  0  0  0  0  0  0  0  0
   20.2190  -12.7437   20.0839 C   0  0  0  0  0  0  0  0  0  0  0  0
   19.5403  -13.7892   20.9566 C   0  0  0  0  0  0  0  0  0  0  0  0
   16.6712  -15.6084   23.1734 N   0  0  0  0  0  0  0  0  0  0  0  0
   17.8704  -14.7901   23.1443 C   0  0  0  0  0  0  0  0  0  0  0  0
   16.8746  -16.4933   23.6381 H   0  0  0  0  0  0  0  0  0  0  0  0
   16.3597  -15.7893   22.2191 H   0  0  0  0  0  0  0  0  0  0  0  0
   18.3344  -14.5979   24.5944 C   0  0  0  0  0  0  0  0  0  0  0  0
   19.7258  -14.0101   24.6555 C   0  0  0  0  0  0  0  0  0  0  0  0
   19.9207  -12.8010   25.3045 C   0  0  0  0  0  0  0  0  0  0  0  0
   20.8125  -14.6599   24.0713 C   0  0  0  0  0  0  0  0  0  0  0  0
   21.1804  -12.2236   25.3672 C   0  0  0  0  0  0  0  0  0  0  0  0
   22.0784  -14.0857   24.1463 C   0  0  0  0  0  0  0  0  0  0  0  0
   22.2671  -12.8711   24.7899 C   0  0  0  0  0  0  0  0  0  0  0  0
   16.6763  -11.8525   20.1816 C   0  0  0  0  0  0  0  0  0  0  0  0
   16.3028  -12.7755   19.4617 O   0  0  0  0  0  0  0  0  0  0  0  0
   15.8777  -10.8321   20.4978 N   0  0  0  0  0  0  0  0  0  0  0  0
   16.2298  -10.1267   21.0874 H   0  0  0  0  0  0  0  0  0  0  0  0
   14.4952  -10.7103   20.0074 C   0  0  0  0  0  0  0  0  0  0  0  0
   13.5437  -10.5412   21.1749 C   0  0  0  0  0  0  0  0  0  0  0  0
   13.4002   -9.3121   21.8136 C   0  0  0  0  0  0  0  0  0  0  0  0
   12.5201   -9.2013   22.8860 C   0  0  0  0  0  0  0  0  0  0  0  0
   11.8227  -10.2631   23.3213 N   0  0  0  0  0  0  0  0  0  0  0  0
   10.9019  -10.1114   24.4548 C   0  0  0  0  0  0  0  0  0  0  0  0
   11.9549  -11.4605   22.7253 C   0  0  0  0  0  0  0  0  0  0  0  0
   12.8145  -11.6230   21.6469 C   0  0  0  0  0  0  0  0  0  0  0  0
 13 12  1  0  0  0
 13 14  2  0  0  0
 13 15  1  0  0  0
 12  9  1  0  0  0
  9  8  1  0  0  0
  9  1  1  0  0  0
  1  3  1  0  0  0
  1  2  2  0  0  0
  3  4  1  0  0  0
  3  7  1  0  0  0
 14 16  1  0  0  0
 16 18  2  0  0  0
 18 17  1  0  0  0
 17 15  2  0  0  0
  4 19  1  0  0  0
  4  5  1  0  0  0
 19 20  2  0  0  0
 19 21  1  0  0  0
 21 23  1  0  0  0
 23 24  1  0  0  0
 24 25  2  0  0  0
 24 30  1  0  0  0
  5  6  1  0  0  0
  6  7  1  0  0  0
 25 26  1  0  0  0
 26 27  2  0  0  0
 27 28  1  0  0  0
 27 29  1  0  0  0
 29 30  2  0  0  0
  8 10  1  0  0  0
  8 11  1  0  0  0
 21 22  1  0  0  0
M  CHG 1  27   1
M  END
> <minimizedAffinity>
-9.50692

$$$$
3QTV_06P_H_1001


 30 32  0  0  0  0  0  0  0  0999 V2000
   17.6480  -13.3873   22.1889 C   0  0  0  0  0  0  0  0  0  0  0  0
   16.6509  -12.7778   22.5719 O   0  0  0  0  0  0  0  0  0  0  0  0
   18.4023  -12.9194   21.1997 N   0  0  0  0  0  0  0  0  0  0  0  0
   18.0379  -11.6605   20.5478 C   0  0  0  0  0  0  0  0  0  0  0  0
   19.0360  -11.5346   19.4011 C   0  0  0  0  0  0  0  0  0  0  0  0
   20.2114  -12.4227   19.7843 C   0  0  0  0  0  0  0  0  0  0  0  0
   19.6075  -13.5335   20.6311 C   0  0  0  0  0  0  0  0  0  0  0  0
   17.2190  -15.7551   22.2622 N   0  0  0  0  0  0  0  0  0  0  0  0
   18.0470  -14.6994   22.8179 C   0  0  0  0  0  0  0  0  0  0  0  0
   17.4802  -16.6479   22.6807 H   0  0  0  0  0  0  0  0  0  0  0  0
   17.3569  -15.7995   21.2526 H   0  0  0  0  0  0  0  0  0  0  0  0
   17.8533  -14.7126   24.3401 C   0  0  0  0  0  0  0  0  0  0  0  0
   18.6809  -15.7963   24.9926 C   0  0  0  0  0  0  0  0  0  0  0  0
   20.0636  -15.7076   24.9517 C   0  0  0  0  0  0  0  0  0  0  0  0
   18.0802  -16.8806   25.6313 C   0  0  0  0  0  0  0  0  0  0  0  0
   20.8556  -16.6911   25.5259 C   0  0  0  0  0  0  0  0  0  0  0  0
   18.8762  -17.8602   26.2183 C   0  0  0  0  0  0  0  0  0  0  0  0
   20.2599  -17.7711   26.1676 C   0  0  0  0  0  0  0  0  0  0  0  0
   16.6337  -11.7114   20.0059 C   0  0  0  0  0  0  0  0  0  0  0  0
   16.2792  -12.6354   19.2779 O   0  0  0  0  0  0  0  0  0  0  0  0
   15.8032  -10.7303   20.3617 N   0  0  0  0  0  0  0  0  0  0  0  0
   16.1417  -10.0221   20.9559 H   0  0  0  0  0  0  0  0  0  0  0  0
   14.4046  -10.6559   19.9086 C   0  0  0  0  0  0  0  0  0  0  0  0
   13.4807  -10.5032   21.1003 C   0  0  0  0  0  0  0  0  0  0  0  0
   13.4054   -9.3033   21.8029 C   0  0  0  0  0  0  0  0  0  0  0  0
   12.5486   -9.2073   22.8954 C   0  0  0  0  0  0  0  0  0  0  0  0
   11.8088  -10.2566   23.2889 N   0  0  0  0  0  0  0  0  0  0  0  0
   10.9143  -10.1210   24.4452 C   0  0  0  0  0  0  0  0  0  0  0  0
   11.8750  -11.4267   22.6308 C   0  0  0  0  0  0  0  0  0  0  0  0
   12.7089  -11.5731   21.5301 C   0  0  0  0  0  0  0  0  0  0  0  0
 13 12  1  0  0  0
 13 14  2  0  0  0
 13 15  1  0  0  0
 12  9  1  0  0  0
  9  8  1  0  0  0
  9  1  1  0  0  0
  1  3  1  0  0  0
  1  2  2  0  0  0
  3  4  1  0  0  0
  3  7  1  0  0  0
 14 16  1  0  0  0
 16 18  2  0  0  0
 18 17  1  0  0  0
 17 15  2  0  0  0
  4 19  1  0  0  0
  4  5  1  0  0  0
 19 20  2  0  0  0
 19 21  1  0  0  0
 21 23  1  0  0  0
 23 24  1  0  0  0
 24 25  2  0  0  0
 24 30  1  0  0  0
  5  6  1  0  0  0
  6  7  1  0  0  0
 25 26  1  0  0  0
 26 27  2  0  0  0
 27 28  1  0  0  0
 27 29  1  0  0  0
 29 30  2  0  0  0
  8 10  1  0  0  0
  8 11  1  0  0  0
 21 22  1  0  0  0
M  CHG 1  27   1
M  END
> <minimizedAffinity>
-8.00585

$$$$
3QTV_06P_H_1001


 30 32  0  0  0  0  0  0  0  0999 V2000
   17.7762  -13.3580   22.4158 C   0  0  0  0  0  0  0  0  0  0  0  0
   16.7562  -12.7701   22.7714 O   0  0  0  0  0  0  0  0  0  0  0  0
   18.4855  -12.9360   21.3741 N   0  0  0  0  0  0  0  0  0  0  0  0
   18.0432  -11.7553   20.6306 C   0  0  0  0  0  0  0  0  0  0  0  0
   19.0107  -11.6744   19.4540 C   0  0  0  0  0  0  0  0  0  0  0  0
   20.2381  -12.4673   19.8804 C   0  0  0  0  0  0  0  0  0  0  0  0
   19.7098  -13.5333   20.8291 C   0  0  0  0  0  0  0  0  0  0  0  0
   19.5805  -14.3346   23.6754 N   0  0  0  0  0  0  0  0  0  0  0  0
   18.2554  -14.5918   23.1400 C   0  0  0  0  0  0  0  0  0  0  0  0
   19.9149  -15.1629   24.1677 H   0  0  0  0  0  0  0  0  0  0  0  0
   19.5386  -13.5478   24.3232 H   0  0  0  0  0  0  0  0  0  0  0  0
   18.3572  -15.8180   22.2229 C   0  0  0  0  0  0  0  0  0  0  0  0
   16.9907  -16.3667   21.8809 C   0  0  0  0  0  0  0  0  0  0  0  0
   16.6411  -16.5278   20.5494 C   0  0  0  0  0  0  0  0  0  0  0  0
   16.0785  -16.7108   22.8778 C   0  0  0  0  0  0  0  0  0  0  0  0
   15.3904  -17.0138   20.1974 C   0  0  0  0  0  0  0  0  0  0  0  0
   14.8285  -17.2105   22.5233 C   0  0  0  0  0  0  0  0  0  0  0  0
   14.4801  -17.3624   21.1889 C   0  0  0  0  0  0  0  0  0  0  0  0
   16.6332  -11.9216   20.1282 C   0  0  0  0  0  0  0  0  0  0  0  0
   16.3024  -12.9387   19.5236 O   0  0  0  0  0  0  0  0  0  0  0  0
   15.7717  -10.9354   20.3814 N   0  0  0  0  0  0  0  0  0  0  0  0
   16.0926  -10.1490   20.8793 H   0  0  0  0  0  0  0  0  0  0  0  0
   14.3641  -10.9665   19.9520 C   0  0  0  0  0  0  0  0  0  0  0  0
   13.4555  -10.6839   21.1317 C   0  0  0  0  0  0  0  0  0  0  0  0
   13.4115   -9.4224   21.7197 C   0  0  0  0  0  0  0  0  0  0  0  0
   12.5679   -9.2068   22.8054 C   0  0  0  0  0  0  0  0  0  0  0  0
   11.8112  -10.1991   23.3013 N   0  0  0  0  0  0  0  0  0  0  0  0
   10.9313   -9.9374   24.4472 C   0  0  0  0  0  0  0  0  0  0  0  0
   11.8471  -11.4266   22.7550 C   0  0  0  0  0  0  0  0  0  0  0  0
   12.6667  -11.6925   21.6660 C   0  0  0  0  0  0  0  0  0  0  0  0
 13 12  1  0  0  0
 13 14  2  0  0  0
 13 15  1  0  0  0
 12  9  1  0  0  0
  9  8  1  0  0  0
  9  1  1  0  0  0
  1  3  1  0  0  0
  1  2  2  0  0  0
  3  4  1  0  0  0
  3  7  1  0  0  0
 14 16  1  0  0  0
 16 18  2  0  0  0
 18 17  1  0  0  0
 17 15  2  0  0  0
  4 19  1  0  0  0
  4  5  1  0  0  0
 19 20  2  0  0  0
 19 21  1  0  0  0
 21 23  1  0  0  0
 23 24  1  0  0  0
 24 25  2  0  0  0
 24 30  1  0  0  0
  5  6  1  0  0  0
  6  7  1  0  0  0
 25 26  1  0  0  0
 26 27  2  0  0  0
 27 28  1  0  0  0
 27 29  1  0  0  0
 29 30  2  0  0  0
  8 10  1  0  0  0
  8 11  1  0  0  0
 21 22  1  0  0  0
M  CHG 1  27   1
M  END
> <minimizedAffinity>
-7.24795

$$$$
3QTV_06P_H_1001


 30 32  0  0  0  0  0  0  0  0999 V2000
   16.4767  -12.8469   20.1170 C   0  0  0  0  0  0  0  0  0  0  0  0
   15.9251  -13.9224   20.3440 O   0  0  0  0  0  0  0  0  0  0  0  0
   17.7754  -12.6786   20.3438 N   0  0  0  0  0  0  0  0  0  0  0  0
   18.5640  -13.7889   20.8803 C   0  0  0  0  0  0  0  0  0  0  0  0
   19.9398  -13.1793   21.1303 C   0  0  0  0  0  0  0  0  0  0  0  0
   20.0052  -11.9433   20.2442 C   0  0  0  0  0  0  0  0  0  0  0  0
   18.5663  -11.4610   20.1323 C   0  0  0  0  0  0  0  0  0  0  0  0
   16.4053  -11.1170   18.4441 N   0  0  0  0  0  0  0  0  0  0  0  0
   15.6970  -11.6698   19.5849 C   0  0  0  0  0  0  0  0  0  0  0  0
   15.8867  -10.3197   18.0758 H   0  0  0  0  0  0  0  0  0  0  0  0
   16.4923  -11.8300   17.7199 H   0  0  0  0  0  0  0  0  0  0  0  0
   15.5365  -10.5466   20.6182 C   0  0  0  0  0  0  0  0  0  0  0  0
   14.1881  -10.6108   21.2985 C   0  0  0  0  0  0  0  0  0  0  0  0
   13.5100   -9.4322   21.5672 C   0  0  0  0  0  0  0  0  0  0  0  0
   13.6171  -11.8304   21.6606 C   0  0  0  0  0  0  0  0  0  0  0  0
   12.2778   -9.4512   22.2040 C   0  0  0  0  0  0  0  0  0  0  0  0
   12.3746  -11.8486   22.2879 C   0  0  0  0  0  0  0  0  0  0  0  0
   11.7034  -10.6657   22.5621 C   0  0  0  0  0  0  0  0  0  0  0  0
   17.9831  -14.2983   22.1730 C   0  0  0  0  0  0  0  0  0  0  0  0
   17.8727  -13.5531   23.1436 O   0  0  0  0  0  0  0  0  0  0  0  0
   17.5860  -15.5710   22.2074 N   0  0  0  0  0  0  0  0  0  0  0  0
   17.6906  -16.1168   21.3948 H   0  0  0  0  0  0  0  0  0  0  0  0
   16.9989  -16.1988   23.4024 C   0  0  0  0  0  0  0  0  0  0  0  0
   15.8224  -17.0683   23.0066 C   0  0  0  0  0  0  0  0  0  0  0  0
   15.4343  -18.1530   23.7888 C   0  0  0  0  0  0  0  0  0  0  0  0
   14.3520  -18.9297   23.3859 C   0  0  0  0  0  0  0  0  0  0  0  0
   13.6902  -18.6579   22.2496 N   0  0  0  0  0  0  0  0  0  0  0  0
   12.5520  -19.4969   21.8542 C   0  0  0  0  0  0  0  0  0  0  0  0
   14.0556  -17.6220   21.4751 C   0  0  0  0  0  0  0  0  0  0  0  0
   15.1242  -16.8117   21.8353 C   0  0  0  0  0  0  0  0  0  0  0  0
 13 12  1  0  0  0
 13 14  2  0  0  0
 13 15  1  0  0  0
 12  9  1  0  0  0
  9  8  1  0  0  0
  9  1  1  0  0  0
  1  3  1  0  0  0
  1  2  2  0  0  0
  3  4  1  0  0  0
  3  7  1  0  0  0
 14 16  1  0  0  0
 16 18  2  0  0  0
 18 17  1  0  0  0
 17 15  2  0  0  0
  4 19  1  0  0  0
  4  5  1  0  0  0
 19 20  2  0  0  0
 19 21  1  0  0  0
 21 23  1  0  0  0
 23 24  1  0  0  0
 24 25  2  0  0  0
 24 30  1  0  0  0
  5  6  1  0  0  0
  6  7  1  0  0  0
 25 26  1  0  0  0
 26 27  2  0  0  0
 27 28  1  0  0  0
 27 29  1  0  0  0
 29 30  2  0  0  0
  8 10  1  0  0  0
  8 11  1  0  0  0
 21 22  1  0  0  0
M  CHG 1  27   1
M  END
> <minimizedAffinity>
-7.15310

$$$$
3QTV_06P_H_1001


 30 32  0  0  0  0  0  0  0  0999 V2000
   16.6015  -13.1545   20.4038 C   0  0  0  0  0  0  0  0  0  0  0  0
   16.2467  -14.1894   20.9657 O   0  0  0  0  0  0  0  0  0  0  0  0
   17.8839  -12.8110   20.3411 N   0  0  0  0  0  0  0  0  0  0  0  0
   18.8931  -13.6737   20.9574 C   0  0  0  0  0  0  0  0  0  0  0  0
   20.1935  -12.8914   20.8032 C   0  0  0  0  0  0  0  0  0  0  0  0
   19.9468  -11.9108   19.6654 C   0  0  0  0  0  0  0  0  0  0  0  0
   18.4556  -11.6122   19.7176 C   0  0  0  0  0  0  0  0  0  0  0  0
   15.9908  -11.9618   18.4038 N   0  0  0  0  0  0  0  0  0  0  0  0
   15.5926  -12.2254   19.7751 C   0  0  0  0  0  0  0  0  0  0  0  0
   15.3151  -11.3339   17.9683 H   0  0  0  0  0  0  0  0  0  0  0  0
   16.0235  -12.8391   17.8846 H   0  0  0  0  0  0  0  0  0  0  0  0
   15.4974  -10.8745   20.4969 C   0  0  0  0  0  0  0  0  0  0  0  0
   14.1901  -10.7385   21.2437 C   0  0  0  0  0  0  0  0  0  0  0  0
   13.5349  -11.8820   21.6728 C   0  0  0  0  0  0  0  0  0  0  0  0
   13.6330   -9.4874   21.5062 C   0  0  0  0  0  0  0  0  0  0  0  0
   12.3258  -11.7969   22.3473 C   0  0  0  0  0  0  0  0  0  0  0  0
   12.4260   -9.4030   22.1946 C   0  0  0  0  0  0  0  0  0  0  0  0
   11.7698  -10.5509   22.6149 C   0  0  0  0  0  0  0  0  0  0  0  0
   18.5994  -13.9034   22.4165 C   0  0  0  0  0  0  0  0  0  0  0  0
   18.4344  -12.9524   23.1767 O   0  0  0  0  0  0  0  0  0  0  0  0
   18.5123  -15.1674   22.8330 N   0  0  0  0  0  0  0  0  0  0  0  0
   18.6441  -15.8878   22.1750 H   0  0  0  0  0  0  0  0  0  0  0  0
   18.2284  -15.5369   24.2293 C   0  0  0  0  0  0  0  0  0  0  0  0
   19.5066  -15.9639   24.9229 C   0  0  0  0  0  0  0  0  0  0  0  0
   19.6140  -17.2140   25.5269 C   0  0  0  0  0  0  0  0  0  0  0  0
   20.8036  -17.5643   26.1587 C   0  0  0  0  0  0  0  0  0  0  0  0
   21.8388  -16.7104   26.2073 N   0  0  0  0  0  0  0  0  0  0  0  0
   23.0798  -17.1121   26.8812 C   0  0  0  0  0  0  0  0  0  0  0  0
   21.7515  -15.4951   25.6398 C   0  0  0  0  0  0  0  0  0  0  0  0
   20.5894  -15.0991   24.9910 C   0  0  0  0  0  0  0  0  0  0  0  0
 13 12  1  0  0  0
 13 14  2  0  0  0
 13 15  1  0  0  0
 12  9  1  0  0  0
  9  8  1  0  0  0
  9  1  1  0  0  0
  1  3  1  0  0  0
  1  2  2  0  0  0
  3  4  1  0  0  0
  3  7  1  0  0  0
 14 16  1  0  0  0
 16 18  2  0  0  0
 18 17  1  0  0  0
 17 15  2  0  0  0
  4 19  1  0  0  0
  4  5  1  0  0  0
 19 20  2  0  0  0
 19 21  1  0  0  0
 21 23  1  0  0  0
 23 24  1  0  0  0
 24 25  2  0  0  0
 24 30  1  0  0  0
  5  6  1  0  0  0
  6  7  1  0  0  0
 25 26  1  0  0  0
 26 27  2  0  0  0
 27 28  1  0  0  0
 27 29  1  0  0  0
 29 30  2  0  0  0
  8 10  1  0  0  0
  8 11  1  0  0  0
 21 22  1  0  0  0
M  CHG 1  27   1
M  END
> <minimizedAffinity>
-6.87831

$$$$
3QTV_06P_H_1001


 30 32  0  0  0  0  0  0  0  0999 V2000
   18.1381  -13.8064   22.6843 C   0  0  0  0  0  0  0  0  0  0  0  0
   18.7585  -12.9172   22.1038 O   0  0  0  0  0  0  0  0  0  0  0  0
   17.3233  -14.6214   22.0221 N   0  0  0  0  0  0  0  0  0  0  0  0
   17.1538  -14.4552   20.5778 C   0  0  0  0  0  0  0  0  0  0  0  0
   16.0625  -15.4573   20.2151 C   0  0  0  0  0  0  0  0  0  0  0  0
   16.0589  -16.4815   21.3412 C   0  0  0  0  0  0  0  0  0  0  0  0
   16.5154  -15.7148   22.5738 C   0  0  0  0  0  0  0  0  0  0  0  0
   17.0258  -13.5867   24.8080 N   0  0  0  0  0  0  0  0  0  0  0  0
   18.2663  -13.9984   24.1753 C   0  0  0  0  0  0  0  0  0  0  0  0
   17.1010  -13.7123   25.8174 H   0  0  0  0  0  0  0  0  0  0  0  0
   16.2573  -14.1545   24.4510 H   0  0  0  0  0  0  0  0  0  0  0  0
   19.3976  -13.1617   24.7877 C   0  0  0  0  0  0  0  0  0  0  0  0
   20.7427  -13.8223   24.5888 C   0  0  0  0  0  0  0  0  0  0  0  0
   20.8713  -15.1805   24.8340 C   0  0  0  0  0  0  0  0  0  0  0  0
   21.8527  -13.0919   24.1660 C   0  0  0  0  0  0  0  0  0  0  0  0
   22.0934  -15.8178   24.6772 C   0  0  0  0  0  0  0  0  0  0  0  0
   23.0754  -13.7353   23.9966 C   0  0  0  0  0  0  0  0  0  0  0  0
   23.2011  -15.0935   24.2512 C   0  0  0  0  0  0  0  0  0  0  0  0
   16.7054  -13.0586   20.2366 C   0  0  0  0  0  0  0  0  0  0  0  0
   17.5068  -12.2349   19.8020 O   0  0  0  0  0  0  0  0  0  0  0  0
   15.4151  -12.7691   20.4106 N   0  0  0  0  0  0  0  0  0  0  0  0
   14.8187  -13.4737   20.7527 H   0  0  0  0  0  0  0  0  0  0  0  0
   14.8403  -11.4464   20.1158 C   0  0  0  0  0  0  0  0  0  0  0  0
   13.8405  -11.0644   21.1889 C   0  0  0  0  0  0  0  0  0  0  0  0
   13.0289  -12.0231   21.7899 C   0  0  0  0  0  0  0  0  0  0  0  0
   12.1195  -11.6290   22.7669 C   0  0  0  0  0  0  0  0  0  0  0  0
   12.0036  -10.3399   23.1246 N   0  0  0  0  0  0  0  0  0  0  0  0
   11.0347   -9.9583   24.1596 C   0  0  0  0  0  0  0  0  0  0  0  0
   12.7701   -9.3977   22.5491 C   0  0  0  0  0  0  0  0  0  0  0  0
   13.6980   -9.7391   21.5739 C   0  0  0  0  0  0  0  0  0  0  0  0
 13 12  1  0  0  0
 13 14  2  0  0  0
 13 15  1  0  0  0
 12  9  1  0  0  0
  9  8  1  0  0  0
  9  1  1  0  0  0
  1  3  1  0  0  0
  1  2  2  0  0  0
  3  4  1  0  0  0
  3  7  1  0  0  0
 14 16  1  0  0  0
 16 18  2  0  0  0
 18 17  1  0  0  0
 17 15  2  0  0  0
  4 19  1  0  0  0
  4  5  1  0  0  0
 19 20  2  0  0  0
 19 21  1  0  0  0
 21 23  1  0  0  0
 23 24  1  0  0  0
 24 25  2  0  0  0
 24 30  1  0  0  0
  5  6  1  0  0  0
  6  7  1  0  0  0
 25 26  1  0  0  0
 26 27  2  0  0  0
 27 28  1  0  0  0
 27 29  1  0  0  0
 29 30  2  0  0  0
  8 10  1  0  0  0
  8 11  1  0  0  0
 21 22  1  0  0  0
M  CHG 1  27   1
M  END
> <minimizedAffinity>
-6.84974

$$$$
3QTV_06P_H_1001


 30 32  0  0  0  0  0  0  0  0999 V2000
   21.6415  -15.6218   23.8885 C   0  0  0  0  0  0  0  0  0  0  0  0
   20.8689  -16.1015   23.0606 O   0  0  0  0  0  0  0  0  0  0  0  0
   21.3435  -14.5021   24.5395 N   0  0  0  0  0  0  0  0  0  0  0  0
   20.0775  -13.8215   24.2627 C   0  0  0  0  0  0  0  0  0  0  0  0
   20.1621  -12.5354   25.0785 C   0  0  0  0  0  0  0  0  0  0  0  0
   21.1991  -12.8058   26.1595 C   0  0  0  0  0  0  0  0  0  0  0  0
   22.1616  -13.8094   25.5413 C   0  0  0  0  0  0  0  0  0  0  0  0
   23.5205  -16.7990   22.9507 N   0  0  0  0  0  0  0  0  0  0  0  0
   22.9664  -16.2785   24.1880 C   0  0  0  0  0  0  0  0  0  0  0  0
   24.4174  -17.2457   23.1412 H   0  0  0  0  0  0  0  0  0  0  0  0
   23.6554  -16.0335   22.2901 H   0  0  0  0  0  0  0  0  0  0  0  0
   22.8403  -17.4527   25.1681 C   0  0  0  0  0  0  0  0  0  0  0  0
   23.5973  -17.1861   26.4492 C   0  0  0  0  0  0  0  0  0  0  0  0
   24.9674  -17.3932   26.4801 C   0  0  0  0  0  0  0  0  0  0  0  0
   22.9436  -16.7385   27.5967 C   0  0  0  0  0  0  0  0  0  0  0  0
   25.6928  -17.1741   27.6420 C   0  0  0  0  0  0  0  0  0  0  0  0
   23.6747  -16.5066   28.7583 C   0  0  0  0  0  0  0  0  0  0  0  0
   25.0449  -16.7232   28.7866 C   0  0  0  0  0  0  0  0  0  0  0  0
   19.9402  -13.4955   22.7988 C   0  0  0  0  0  0  0  0  0  0  0  0
   20.8636  -12.9608   22.1897 O   0  0  0  0  0  0  0  0  0  0  0  0
   18.7937  -13.8246   22.2022 N   0  0  0  0  0  0  0  0  0  0  0  0
   18.0937  -14.2605   22.7400 H   0  0  0  0  0  0  0  0  0  0  0  0
   18.5249  -13.5673   20.7780 C   0  0  0  0  0  0  0  0  0  0  0  0
   17.1958  -12.8560   20.6212 C   0  0  0  0  0  0  0  0  0  0  0  0
   16.8774  -12.1770   19.4479 C   0  0  0  0  0  0  0  0  0  0  0  0
   15.6485  -11.5316   19.3475 C   0  0  0  0  0  0  0  0  0  0  0  0
   14.7763  -11.5413   20.3685 N   0  0  0  0  0  0  0  0  0  0  0  0
   13.4880  -10.8511   20.2291 C   0  0  0  0  0  0  0  0  0  0  0  0
   15.0690  -12.1818   21.5133 C   0  0  0  0  0  0  0  0  0  0  0  0
   16.2787  -12.8473   21.6623 C   0  0  0  0  0  0  0  0  0  0  0  0
 13 12  1  0  0  0
 13 14  2  0  0  0
 13 15  1  0  0  0
 12  9  1  0  0  0
  9  8  1  0  0  0
  9  1  1  0  0  0
  1  3  1  0  0  0
  1  2  2  0  0  0
  3  4  1  0  0  0
  3  7  1  0  0  0
 14 16  1  0  0  0
 16 18  2  0  0  0
 18 17  1  0  0  0
 17 15  2  0  0  0
  4 19  1  0  0  0
  4  5  1  0  0  0
 19 20  2  0  0  0
 19 21  1  0  0  0
 21 23  1  0  0  0
 23 24  1  0  0  0
 24 25  2  0  0  0
 24 30  1  0  0  0
  5  6  1  0  0  0
  6  7  1  0  0  0
 25 26  1  0  0  0
 26 27  2  0  0  0
 27 28  1  0  0  0
 27 29  1  0  0  0
 29 30  2  0  0  0
  8 10  1  0  0  0
  8 11  1  0  0  0
 21 22  1  0  0  0
M  CHG 1  27   1
M  END
> <minimizedAffinity>
-6.82847

$$$$
3QTV_06P_H_1001


 30 32  0  0  0  0  0  0  0  0999 V2000
   18.4979  -12.6192   20.2197 C   0  0  0  0  0  0  0  0  0  0  0  0
   18.4382  -12.0870   19.1126 O   0  0  0  0  0  0  0  0  0  0  0  0
   17.6245  -13.5532   20.5818 N   0  0  0  0  0  0  0  0  0  0  0  0
   16.5672  -13.9521   19.6514 C   0  0  0  0  0  0  0  0  0  0  0  0
   15.7054  -14.9158   20.4610 C   0  0  0  0  0  0  0  0  0  0  0  0
   16.5986  -15.4121   21.5892 C   0  0  0  0  0  0  0  0  0  0  0  0
   17.5631  -14.2671   21.8622 C   0  0  0  0  0  0  0  0  0  0  0  0
   20.5287  -11.3702   20.5541 N   0  0  0  0  0  0  0  0  0  0  0  0
   19.5576  -12.2220   21.2175 C   0  0  0  0  0  0  0  0  0  0  0  0
   21.2508  -11.0952   21.2199 H   0  0  0  0  0  0  0  0  0  0  0  0
   20.0616  -10.5372   20.1958 H   0  0  0  0  0  0  0  0  0  0  0  0
   20.3153  -13.4267   21.7918 C   0  0  0  0  0  0  0  0  0  0  0  0
   20.6744  -13.2117   23.2444 C   0  0  0  0  0  0  0  0  0  0  0  0
   22.0103  -13.1761   23.6121 C   0  0  0  0  0  0  0  0  0  0  0  0
   19.6888  -13.0505   24.2177 C   0  0  0  0  0  0  0  0  0  0  0  0
   22.3774  -12.9963   24.9377 C   0  0  0  0  0  0  0  0  0  0  0  0
   20.0590  -12.8572   25.5456 C   0  0  0  0  0  0  0  0  0  0  0  0
   21.3975  -12.8306   25.9100 C   0  0  0  0  0  0  0  0  0  0  0  0
   15.7459  -12.7672   19.2160 C   0  0  0  0  0  0  0  0  0  0  0  0
   15.7870  -12.3735   18.0529 O   0  0  0  0  0  0  0  0  0  0  0  0
   14.9726  -12.1863   20.1343 N   0  0  0  0  0  0  0  0  0  0  0  0
   14.9739  -12.5529   21.0480 H   0  0  0  0  0  0  0  0  0  0  0  0
   14.1174  -11.0231   19.8471 C   0  0  0  0  0  0  0  0  0  0  0  0
   13.3022  -10.6634   21.0731 C   0  0  0  0  0  0  0  0  0  0  0  0
   12.3789  -11.5566   21.6105 C   0  0  0  0  0  0  0  0  0  0  0  0
   11.6463  -11.1842   22.7336 C   0  0  0  0  0  0  0  0  0  0  0  0
   11.8056   -9.9742   23.2938 N   0  0  0  0  0  0  0  0  0  0  0  0
   11.0173   -9.6136   24.4787 C   0  0  0  0  0  0  0  0  0  0  0  0
   12.6838   -9.0936   22.7839 C   0  0  0  0  0  0  0  0  0  0  0  0
   13.4446   -9.4183   21.6685 C   0  0  0  0  0  0  0  0  0  0  0  0
 13 12  1  0  0  0
 13 14  2  0  0  0
 13 15  1  0  0  0
 12  9  1  0  0  0
  9  8  1  0  0  0
  9  1  1  0  0  0
  1  3  1  0  0  0
  1  2  2  0  0  0
  3  4  1  0  0  0
  3  7  1  0  0  0
 14 16  1  0  0  0
 16 18  2  0  0  0
 18 17  1  0  0  0
 17 15  2  0  0  0
  4 19  1  0  0  0
  4  5  1  0  0  0
 19 20  2  0  0  0
 19 21  1  0  0  0
 21 23  1  0  0  0
 23 24  1  0  0  0
 24 25  2  0  0  0
 24 30  1  0  0  0
  5  6  1  0  0  0
  6  7  1  0  0  0
 25 26  1  0  0  0
 26 27  2  0  0  0
 27 28  1  0  0  0
 27 29  1  0  0  0
 29 30  2  0  0  0
  8 10  1  0  0  0
  8 11  1  0  0  0
 21 22  1  0  0  0
M  CHG 1  27   1
M  END
> <minimizedAffinity>
-6.79201

$$$$
3QTV_06P_H_1001


 30 32  0  0  0  0  0  0  0  0999 V2000
   18.2620  -16.7903   22.7038 C   0  0  0  0  0  0  0  0  0  0  0  0
   18.5035  -16.4805   21.5384 O   0  0  0  0  0  0  0  0  0  0  0  0
   17.0509  -17.1967   23.0706 N   0  0  0  0  0  0  0  0  0  0  0  0
   15.9818  -17.2707   22.0736 C   0  0  0  0  0  0  0  0  0  0  0  0
   14.7421  -17.6317   22.8857 C   0  0  0  0  0  0  0  0  0  0  0  0
   15.2649  -18.2541   24.1727 C   0  0  0  0  0  0  0  0  0  0  0  0
   16.6117  -17.5885   24.4147 C   0  0  0  0  0  0  0  0  0  0  0  0
   19.4331  -17.9973   24.4265 N   0  0  0  0  0  0  0  0  0  0  0  0
   19.3286  -16.7074   23.7677 C   0  0  0  0  0  0  0  0  0  0  0  0
   20.1521  -17.9530   25.1486 H   0  0  0  0  0  0  0  0  0  0  0  0
   19.6831  -18.7099   23.7409 H   0  0  0  0  0  0  0  0  0  0  0  0
   19.0134  -15.6617   24.8458 C   0  0  0  0  0  0  0  0  0  0  0  0
   20.0057  -14.5217   24.8159 C   0  0  0  0  0  0  0  0  0  0  0  0
   21.2125  -14.6933   24.1561 C   0  0  0  0  0  0  0  0  0  0  0  0
   19.7300  -13.3052   25.4395 C   0  0  0  0  0  0  0  0  0  0  0  0
   22.1538  -13.6750   24.1210 C   0  0  0  0  0  0  0  0  0  0  0  0
   20.6702  -12.2798   25.3924 C   0  0  0  0  0  0  0  0  0  0  0  0
   21.8802  -12.4592   24.7376 C   0  0  0  0  0  0  0  0  0  0  0  0
   15.7809  -15.9451   21.3875 C   0  0  0  0  0  0  0  0  0  0  0  0
   15.5929  -15.8928   20.1745 O   0  0  0  0  0  0  0  0  0  0  0  0
   15.8002  -14.8509   22.1499 N   0  0  0  0  0  0  0  0  0  0  0  0
   15.9452  -14.9566   23.1179 H   0  0  0  0  0  0  0  0  0  0  0  0
   15.6151  -13.4928   21.6131 C   0  0  0  0  0  0  0  0  0  0  0  0
   16.9410  -12.9415   21.1283 C   0  0  0  0  0  0  0  0  0  0  0  0
   17.0397  -12.2720   19.9113 C   0  0  0  0  0  0  0  0  0  0  0  0
   18.2776  -11.7867   19.5002 C   0  0  0  0  0  0  0  0  0  0  0  0
   19.3762  -11.9691   20.2506 N   0  0  0  0  0  0  0  0  0  0  0  0
   20.6666  -11.4435   19.7879 C   0  0  0  0  0  0  0  0  0  0  0  0
   19.3041  -12.6220   21.4232 C   0  0  0  0  0  0  0  0  0  0  0  0
   18.0919  -13.1199   21.8824 C   0  0  0  0  0  0  0  0  0  0  0  0
 13 12  1  0  0  0
 13 14  2  0  0  0
 13 15  1  0  0  0
 12  9  1  0  0  0
  9  8  1  0  0  0
  9  1  1  0  0  0
  1  3  1  0  0  0
  1  2  2  0  0  0
  3  4  1  0  0  0
  3  7  1  0  0  0
 14 16  1  0  0  0
 16 18  2  0  0  0
 18 17  1  0  0  0
 17 15  2  0  0  0
  4 19  1  0  0  0
  4  5  1  0  0  0
 19 20  2  0  0  0
 19 21  1  0  0  0
 21 23  1  0  0  0
 23 24  1  0  0  0
 24 25  2  0  0  0
 24 30  1  0  0  0
  5  6  1  0  0  0
  6  7  1  0  0  0
 25 26  1  0  0  0
 26 27  2  0  0  0
 27 28  1  0  0  0
 27 29  1  0  0  0
 29 30  2  0  0  0
  8 10  1  0  0  0
  8 11  1  0  0  0
 21 22  1  0  0  0
M  CHG 1  27   1
M  END
> <minimizedAffinity>
-6.53511

$$$$
