4Z2B_4LC_A_705


 39 44  0  0  0  0  0  0  0  0999 V2000
   -9.9286  -10.6221   30.5965 C   0  0  0  0  0  0  0  0  0  0  0  0
  -10.5352  -13.8681   27.4855 C   0  0  0  0  0  0  0  0  0  0  0  0
  -10.5808  -13.9241   28.9522 N   0  0  0  0  0  0  0  0  0  0  0  0
  -10.8891  -14.9729   29.7786 C   0  0  0  0  0  0  0  0  0  0  0  0
  -10.7297  -14.6868   31.0586 N   0  0  0  0  0  0  0  0  0  0  0  0
  -10.4318  -13.3234   31.0789 C   0  0  0  0  0  0  0  0  0  0  0  0
  -10.2472  -12.4547   32.1562 C   0  0  0  0  0  0  0  0  0  0  0  0
   -9.9638  -11.1202   31.9035 C   0  0  0  0  0  0  0  0  0  0  0  0
  -10.1199  -11.4885   29.5168 C   0  0  0  0  0  0  0  0  0  0  0  0
  -10.3593  -12.8296   29.7822 C   0  0  0  0  0  0  0  0  0  0  0  0
  -11.0517  -16.3619   29.3348 C   0  0  0  0  0  0  0  0  0  0  0  0
  -10.4944  -17.4772   29.9131 C   0  0  0  0  0  0  0  0  0  0  0  0
  -10.8802  -18.6024   29.2344 N   0  0  0  0  0  0  0  0  0  0  0  0
  -11.5956  -18.2346   28.1192 C   0  0  0  0  0  0  0  0  0  0  0  0
  -12.1360  -19.0112   27.0972 C   0  0  0  0  0  0  0  0  0  0  0  0
  -12.8855  -18.3786   26.1063 C   0  0  0  0  0  0  0  0  0  0  0  0
  -13.0931  -16.9977   26.1412 C   0  0  0  0  0  0  0  0  0  0  0  0
  -12.5590  -16.2325   27.1779 C   0  0  0  0  0  0  0  0  0  0  0  0
  -11.7963  -16.8358   28.1795 C   0  0  0  0  0  0  0  0  0  0  0  0
  -10.6774  -19.5277   29.5025 H   0  0  0  0  0  0  0  0  0  0  0  0
  -13.3857  -19.1482   24.9987 C   0  0  0  0  0  0  0  0  0  0  0  0
  -13.7890  -19.7284   24.1114 N   0  0  0  0  0  0  0  0  0  0  0  0
   -9.6358   -9.1834   30.2960 C   0  0  0  0  0  0  0  0  0  0  0  0
  -12.0720   -8.7840   30.2719 C   0  0  0  0  0  0  0  0  0  0  0  0
   -8.4840   -8.8163   30.1627 O   0  0  0  0  0  0  0  0  0  0  0  0
  -10.6797   -8.3233   30.1627 N   0  0  0  0  0  0  0  0  0  0  0  0
  -12.8386   -7.8756   31.2034 C   0  0  0  0  0  0  0  0  0  0  0  0
  -12.7807   -6.5102   30.7419 O   0  0  0  0  0  0  0  0  0  0  0  0
  -11.4387   -6.0117   30.6468 C   0  0  0  0  0  0  0  0  0  0  0  0
  -10.5588   -6.9039   29.7600 C   0  0  0  0  0  0  0  0  0  0  0  0
  -10.8995   -5.6960   32.0381 C   0  0  0  0  0  0  0  0  0  0  0  0
  -11.6905   -4.9981   32.9437 C   0  0  0  0  0  0  0  0  0  0  0  0
  -11.2030   -4.6551   34.1988 C   0  0  0  0  0  0  0  0  0  0  0  0
   -9.9233   -5.0157   34.5713 C   0  0  0  0  0  0  0  0  0  0  0  0
   -9.1139   -5.6914   33.6764 C   0  0  0  0  0  0  0  0  0  0  0  0
   -9.6016   -6.0424   32.4199 C   0  0  0  0  0  0  0  0  0  0  0  0
  -10.8549   -6.7119   28.2718 C   0  0  0  0  0  0  0  0  0  0  0  0
  -12.1073   -6.0701   28.0663 O   0  0  0  0  0  0  0  0  0  0  0  0
  -12.0921   -5.1919   28.4780 H   0  0  0  0  0  0  0  0  0  0  0  0
 22 21  3  0  0  0
 21 16  1  0  0  0
 16 17  2  0  0  0
 16 15  1  0  0  0
 17 18  1  0  0  0
 15 14  2  0  0  0
 18 19  2  0  0  0
  2  3  1  0  0  0
 38 37  1  0  0  0
 14 19  1  0  0  0
 14 13  1  0  0  0
 19 11  1  0  0  0
 37 30  1  0  0  0
  3  4  1  0  0  0
  3 10  1  0  0  0
 13 12  1  0  0  0
 11  4  1  0  0  0
 11 12  2  0  0  0
  9 10  2  0  0  0
  9  1  1  0  0  0
  4  5  2  0  0  0
 10  6  1  0  0  0
 30 26  1  0  0  0
 30 29  1  0  0  0
 25 23  2  0  0  0
 23 26  1  0  0  0
 23  1  1  0  0  0
 26 24  1  0  0  0
 24 27  1  0  0  0
  1  8  2  0  0  0
 29 28  1  0  0  0
 29 31  1  0  0  0
  5  6  1  0  0  0
  6  7  2  0  0  0
 28 27  1  0  0  0
  8  7  1  0  0  0
 31 36  2  0  0  0
 31 32  1  0  0  0
 36 35  1  0  0  0
 32 33  2  0  0  0
 35 34  2  0  0  0
 33 34  1  0  0  0
 38 39  1  0  0  0
 13 20  1  0  0  0
M  END
> <minimizedAffinity>
-11.48632

$$$$
4Z2B_4LC_A_705


 39 44  0  0  0  0  0  0  0  0999 V2000
  -10.0195  -10.7561   29.2415 C   0  0  0  0  0  0  0  0  0  0  0  0
  -11.1077  -14.6499   31.3001 C   0  0  0  0  0  0  0  0  0  0  0  0
  -10.7203  -14.3746   29.9106 N   0  0  0  0  0  0  0  0  0  0  0  0
  -10.5175  -15.2434   28.8703 C   0  0  0  0  0  0  0  0  0  0  0  0
  -10.2731  -14.6309   27.7254 N   0  0  0  0  0  0  0  0  0  0  0  0
  -10.1721  -13.2808   28.0643 C   0  0  0  0  0  0  0  0  0  0  0  0
   -9.8414  -12.1744   27.2796 C   0  0  0  0  0  0  0  0  0  0  0  0
   -9.8020  -10.9189   27.8690 C   0  0  0  0  0  0  0  0  0  0  0  0
  -10.3438  -11.8631   30.0303 C   0  0  0  0  0  0  0  0  0  0  0  0
  -10.4229  -13.1071   29.4199 C   0  0  0  0  0  0  0  0  0  0  0  0
  -10.8553  -16.6708   28.9005 C   0  0  0  0  0  0  0  0  0  0  0  0
  -10.5623  -17.5609   29.9058 C   0  0  0  0  0  0  0  0  0  0  0  0
  -11.0474  -18.8025   29.5920 N   0  0  0  0  0  0  0  0  0  0  0  0
  -11.5568  -18.7793   28.3150 C   0  0  0  0  0  0  0  0  0  0  0  0
  -12.0955  -19.8031   27.5396 C   0  0  0  0  0  0  0  0  0  0  0  0
  -12.6087  -19.4861   26.2827 C   0  0  0  0  0  0  0  0  0  0  0  0
  -12.5869  -18.1703   25.8144 C   0  0  0  0  0  0  0  0  0  0  0  0
  -12.0580  -17.1510   26.6061 C   0  0  0  0  0  0  0  0  0  0  0  0
  -11.5282  -17.4386   27.8654 C   0  0  0  0  0  0  0  0  0  0  0  0
  -11.0337  -19.5872   30.1864 H   0  0  0  0  0  0  0  0  0  0  0  0
  -13.0969  -20.5387   25.4324 C   0  0  0  0  0  0  0  0  0  0  0  0
  -13.4549  -21.3842   24.7664 N   0  0  0  0  0  0  0  0  0  0  0  0
   -9.9720   -9.4135   29.9056 C   0  0  0  0  0  0  0  0  0  0  0  0
  -10.9632   -8.4617   27.8545 C   0  0  0  0  0  0  0  0  0  0  0  0
   -9.5022   -9.3081   31.0224 O   0  0  0  0  0  0  0  0  0  0  0  0
  -10.4457   -8.3364   29.2254 N   0  0  0  0  0  0  0  0  0  0  0  0
  -12.2979   -7.7636   27.7470 C   0  0  0  0  0  0  0  0  0  0  0  0
  -12.1779   -6.3780   28.1294 O   0  0  0  0  0  0  0  0  0  0  0  0
  -11.7008   -6.2109   29.4722 C   0  0  0  0  0  0  0  0  0  0  0  0
  -10.3671   -6.9363   29.6995 C   0  0  0  0  0  0  0  0  0  0  0  0
  -12.8175   -6.5179   30.4647 C   0  0  0  0  0  0  0  0  0  0  0  0
  -14.0031   -5.7934   30.4165 C   0  0  0  0  0  0  0  0  0  0  0  0
  -15.0147   -6.0204   31.3415 C   0  0  0  0  0  0  0  0  0  0  0  0
  -14.8611   -6.9830   32.3194 C   0  0  0  0  0  0  0  0  0  0  0  0
  -13.6803   -7.6989   32.3967 C   0  0  0  0  0  0  0  0  0  0  0  0
  -12.6669   -7.4784   31.4671 C   0  0  0  0  0  0  0  0  0  0  0  0
   -9.1890   -6.1918   29.0691 C   0  0  0  0  0  0  0  0  0  0  0  0
   -7.9432   -6.7451   29.4750 O   0  0  0  0  0  0  0  0  0  0  0  0
   -7.8921   -7.6706   29.1893 H   0  0  0  0  0  0  0  0  0  0  0  0
 22 21  3  0  0  0
 21 16  1  0  0  0
 16 17  2  0  0  0
 16 15  1  0  0  0
 17 18  1  0  0  0
 15 14  2  0  0  0
 18 19  2  0  0  0
  2  3  1  0  0  0
 38 37  1  0  0  0
 14 19  1  0  0  0
 14 13  1  0  0  0
 19 11  1  0  0  0
 37 30  1  0  0  0
  3  4  1  0  0  0
  3 10  1  0  0  0
 13 12  1  0  0  0
 11  4  1  0  0  0
 11 12  2  0  0  0
  9 10  2  0  0  0
  9  1  1  0  0  0
  4  5  2  0  0  0
 10  6  1  0  0  0
 30 26  1  0  0  0
 30 29  1  0  0  0
 25 23  2  0  0  0
 23 26  1  0  0  0
 23  1  1  0  0  0
 26 24  1  0  0  0
 24 27  1  0  0  0
  1  8  2  0  0  0
 29 28  1  0  0  0
 29 31  1  0  0  0
  5  6  1  0  0  0
  6  7  2  0  0  0
 28 27  1  0  0  0
  8  7  1  0  0  0
 31 36  2  0  0  0
 31 32  1  0  0  0
 36 35  1  0  0  0
 32 33  2  0  0  0
 35 34  2  0  0  0
 33 34  1  0  0  0
 38 39  1  0  0  0
 13 20  1  0  0  0
M  END
> <minimizedAffinity>
-10.87989

$$$$
4Z2B_4LC_A_705


 39 44  0  0  0  0  0  0  0  0999 V2000
   -9.7176  -10.7659   28.8070 C   0  0  0  0  0  0  0  0  0  0  0  0
  -11.7216  -14.6075   30.1521 C   0  0  0  0  0  0  0  0  0  0  0  0
  -11.0536  -14.2645   28.8901 N   0  0  0  0  0  0  0  0  0  0  0  0
  -10.7969  -15.0475   27.7951 C   0  0  0  0  0  0  0  0  0  0  0  0
  -10.2624  -14.3741   26.7919 N   0  0  0  0  0  0  0  0  0  0  0  0
  -10.0261  -13.1002   27.3107 C   0  0  0  0  0  0  0  0  0  0  0  0
   -9.3998  -11.9924   26.7365 C   0  0  0  0  0  0  0  0  0  0  0  0
   -9.2825  -10.8260   27.4786 C   0  0  0  0  0  0  0  0  0  0  0  0
  -10.3386  -11.8758   29.3862 C   0  0  0  0  0  0  0  0  0  0  0  0
  -10.4889  -13.0223   28.6185 C   0  0  0  0  0  0  0  0  0  0  0  0
  -11.3415  -16.3942   27.5891 C   0  0  0  0  0  0  0  0  0  0  0  0
  -12.1536  -16.8005   26.5575 C   0  0  0  0  0  0  0  0  0  0  0  0
  -12.4500  -18.1312   26.6872 N   0  0  0  0  0  0  0  0  0  0  0  0
  -11.9417  -18.5935   27.8783 C   0  0  0  0  0  0  0  0  0  0  0  0
  -12.0409  -19.8477   28.4757 C   0  0  0  0  0  0  0  0  0  0  0  0
  -11.3622  -20.0699   29.6730 C   0  0  0  0  0  0  0  0  0  0  0  0
  -10.5964  -19.0582   30.2573 C   0  0  0  0  0  0  0  0  0  0  0  0
  -10.4928  -17.8107   29.6420 C   0  0  0  0  0  0  0  0  0  0  0  0
  -11.1683  -17.5549   28.4473 C   0  0  0  0  0  0  0  0  0  0  0  0
  -12.9480  -18.6712   26.0318 H   0  0  0  0  0  0  0  0  0  0  0  0
  -11.5146  -21.3306   30.3487 C   0  0  0  0  0  0  0  0  0  0  0  0
  -11.6575  -22.3121   30.8990 N   0  0  0  0  0  0  0  0  0  0  0  0
   -9.5931   -9.5227   29.6345 C   0  0  0  0  0  0  0  0  0  0  0  0
  -10.9797   -8.3679   27.9496 C   0  0  0  0  0  0  0  0  0  0  0  0
   -8.9279   -9.5386   30.6526 O   0  0  0  0  0  0  0  0  0  0  0  0
  -10.2212   -8.3949   29.2092 N   0  0  0  0  0  0  0  0  0  0  0  0
  -12.3341   -7.7419   28.1827 C   0  0  0  0  0  0  0  0  0  0  0  0
  -12.1921   -6.4146   28.7291 O   0  0  0  0  0  0  0  0  0  0  0  0
  -11.4798   -6.3989   29.9745 C   0  0  0  0  0  0  0  0  0  0  0  0
  -10.1033   -7.0678   29.8543 C   0  0  0  0  0  0  0  0  0  0  0  0
  -12.3817   -6.9003   31.0976 C   0  0  0  0  0  0  0  0  0  0  0  0
  -11.9563   -7.9441   31.9115 C   0  0  0  0  0  0  0  0  0  0  0  0
  -12.7803   -8.4513   32.9086 C   0  0  0  0  0  0  0  0  0  0  0  0
  -14.0356   -7.9145   33.1148 C   0  0  0  0  0  0  0  0  0  0  0  0
  -14.4848   -6.8902   32.3013 C   0  0  0  0  0  0  0  0  0  0  0  0
  -13.6589   -6.3751   31.3052 C   0  0  0  0  0  0  0  0  0  0  0  0
   -9.0888   -6.1779   29.1344 C   0  0  0  0  0  0  0  0  0  0  0  0
   -7.7677   -6.6921   29.2495 O   0  0  0  0  0  0  0  0  0  0  0  0
   -7.7266   -7.5719   28.8432 H   0  0  0  0  0  0  0  0  0  0  0  0
 22 21  3  0  0  0
 21 16  1  0  0  0
 16 17  2  0  0  0
 16 15  1  0  0  0
 17 18  1  0  0  0
 15 14  2  0  0  0
 18 19  2  0  0  0
  2  3  1  0  0  0
 38 37  1  0  0  0
 14 19  1  0  0  0
 14 13  1  0  0  0
 19 11  1  0  0  0
 37 30  1  0  0  0
  3  4  1  0  0  0
  3 10  1  0  0  0
 13 12  1  0  0  0
 11  4  1  0  0  0
 11 12  2  0  0  0
  9 10  2  0  0  0
  9  1  1  0  0  0
  4  5  2  0  0  0
 10  6  1  0  0  0
 30 26  1  0  0  0
 30 29  1  0  0  0
 25 23  2  0  0  0
 23 26  1  0  0  0
 23  1  1  0  0  0
 26 24  1  0  0  0
 24 27  1  0  0  0
  1  8  2  0  0  0
 29 28  1  0  0  0
 29 31  1  0  0  0
  5  6  1  0  0  0
  6  7  2  0  0  0
 28 27  1  0  0  0
  8  7  1  0  0  0
 31 36  2  0  0  0
 31 32  1  0  0  0
 36 35  1  0  0  0
 32 33  2  0  0  0
 35 34  2  0  0  0
 33 34  1  0  0  0
 38 39  1  0  0  0
 13 20  1  0  0  0
M  END
> <minimizedAffinity>
-10.49083

$$$$
4Z2B_4LC_A_705


 39 44  0  0  0  0  0  0  0  0999 V2000
  -10.2548  -10.4997   32.0516 C   0  0  0  0  0  0  0  0  0  0  0  0
  -10.6444  -13.3525   28.5456 C   0  0  0  0  0  0  0  0  0  0  0  0
  -10.6543  -13.6033   29.9925 N   0  0  0  0  0  0  0  0  0  0  0  0
  -10.8538  -14.7741   30.6762 C   0  0  0  0  0  0  0  0  0  0  0  0
  -10.6929  -14.6445   31.9812 N   0  0  0  0  0  0  0  0  0  0  0  0
  -10.5132  -13.2746   32.1783 C   0  0  0  0  0  0  0  0  0  0  0  0
  -10.3816  -12.5411   33.3589 C   0  0  0  0  0  0  0  0  0  0  0  0
  -10.2196  -11.1652   33.2818 C   0  0  0  0  0  0  0  0  0  0  0  0
  -10.3933  -11.2311   30.8690 C   0  0  0  0  0  0  0  0  0  0  0  0
  -10.5107  -12.6113   30.9574 C   0  0  0  0  0  0  0  0  0  0  0  0
  -10.9053  -16.1021   30.0547 C   0  0  0  0  0  0  0  0  0  0  0  0
  -10.2849  -17.2424   30.5060 C   0  0  0  0  0  0  0  0  0  0  0  0
  -10.5717  -18.2943   29.6773 N   0  0  0  0  0  0  0  0  0  0  0  0
  -11.2827  -17.8351   28.5936 C   0  0  0  0  0  0  0  0  0  0  0  0
  -11.7399  -18.5083   27.4633 C   0  0  0  0  0  0  0  0  0  0  0  0
  -12.5070  -17.8055   26.5352 C   0  0  0  0  0  0  0  0  0  0  0  0
  -12.8134  -16.4577   26.7375 C   0  0  0  0  0  0  0  0  0  0  0  0
  -12.3621  -15.7981   27.8806 C   0  0  0  0  0  0  0  0  0  0  0  0
  -11.5842  -16.4725   28.8236 C   0  0  0  0  0  0  0  0  0  0  0  0
  -10.3103  -19.2306   29.8328 H   0  0  0  0  0  0  0  0  0  0  0  0
  -12.9223  -18.4580   25.3224 C   0  0  0  0  0  0  0  0  0  0  0  0
  -13.2209  -18.9842   24.3630 N   0  0  0  0  0  0  0  0  0  0  0  0
  -10.0934   -9.0139   31.9407 C   0  0  0  0  0  0  0  0  0  0  0  0
   -9.7563   -9.3201   29.5142 C   0  0  0  0  0  0  0  0  0  0  0  0
  -10.1465   -8.3240   32.9409 O   0  0  0  0  0  0  0  0  0  0  0  0
   -9.8729   -8.4754   30.7124 N   0  0  0  0  0  0  0  0  0  0  0  0
  -10.6296   -8.7673   28.4131 C   0  0  0  0  0  0  0  0  0  0  0  0
  -10.2717   -7.4013   28.1193 O   0  0  0  0  0  0  0  0  0  0  0  0
  -10.3976   -6.5363   29.2570 C   0  0  0  0  0  0  0  0  0  0  0  0
   -9.5854   -7.0461   30.4557 C   0  0  0  0  0  0  0  0  0  0  0  0
  -11.8683   -6.2267   29.5168 C   0  0  0  0  0  0  0  0  0  0  0  0
  -12.7641   -6.1865   28.4543 C   0  0  0  0  0  0  0  0  0  0  0  0
  -14.0983   -5.8575   28.6595 C   0  0  0  0  0  0  0  0  0  0  0  0
  -14.5589   -5.5765   29.9305 C   0  0  0  0  0  0  0  0  0  0  0  0
  -13.6784   -5.5902   30.9969 C   0  0  0  0  0  0  0  0  0  0  0  0
  -12.3418   -5.9260   30.7957 C   0  0  0  0  0  0  0  0  0  0  0  0
   -8.0863   -6.7928   30.2883 C   0  0  0  0  0  0  0  0  0  0  0  0
   -7.7547   -6.4887   28.9391 O   0  0  0  0  0  0  0  0  0  0  0  0
   -8.2207   -5.6832   28.6653 H   0  0  0  0  0  0  0  0  0  0  0  0
 22 21  3  0  0  0
 21 16  1  0  0  0
 16 17  2  0  0  0
 16 15  1  0  0  0
 17 18  1  0  0  0
 15 14  2  0  0  0
 18 19  2  0  0  0
  2  3  1  0  0  0
 38 37  1  0  0  0
 14 19  1  0  0  0
 14 13  1  0  0  0
 19 11  1  0  0  0
 37 30  1  0  0  0
  3  4  1  0  0  0
  3 10  1  0  0  0
 13 12  1  0  0  0
 11  4  1  0  0  0
 11 12  2  0  0  0
  9 10  2  0  0  0
  9  1  1  0  0  0
  4  5  2  0  0  0
 10  6  1  0  0  0
 30 26  1  0  0  0
 30 29  1  0  0  0
 25 23  2  0  0  0
 23 26  1  0  0  0
 23  1  1  0  0  0
 26 24  1  0  0  0
 24 27  1  0  0  0
  1  8  2  0  0  0
 29 28  1  0  0  0
 29 31  1  0  0  0
  5  6  1  0  0  0
  6  7  2  0  0  0
 28 27  1  0  0  0
  8  7  1  0  0  0
 31 36  2  0  0  0
 31 32  1  0  0  0
 36 35  1  0  0  0
 32 33  2  0  0  0
 35 34  2  0  0  0
 33 34  1  0  0  0
 38 39  1  0  0  0
 13 20  1  0  0  0
M  END
> <minimizedAffinity>
-10.37683

$$$$
4Z2B_4LC_A_705


 39 44  0  0  0  0  0  0  0  0999 V2000
  -10.1746  -10.0503   30.9121 C   0  0  0  0  0  0  0  0  0  0  0  0
  -10.9289  -13.3378   27.8779 C   0  0  0  0  0  0  0  0  0  0  0  0
  -10.7145  -13.4022   29.3293 N   0  0  0  0  0  0  0  0  0  0  0  0
  -10.7527  -14.4819   30.1723 C   0  0  0  0  0  0  0  0  0  0  0  0
  -10.4094  -14.1820   31.4123 N   0  0  0  0  0  0  0  0  0  0  0  0
  -10.2719  -12.7932   31.4123 C   0  0  0  0  0  0  0  0  0  0  0  0
  -10.0062  -11.9113   32.4615 C   0  0  0  0  0  0  0  0  0  0  0  0
   -9.9265  -10.5521   32.1944 C   0  0  0  0  0  0  0  0  0  0  0  0
  -10.4476  -10.9305   29.8617 C   0  0  0  0  0  0  0  0  0  0  0  0
  -10.4813  -12.2912   30.1337 C   0  0  0  0  0  0  0  0  0  0  0  0
  -10.8277  -15.8793   29.7315 C   0  0  0  0  0  0  0  0  0  0  0  0
  -11.3660  -16.3390   28.5535 C   0  0  0  0  0  0  0  0  0  0  0  0
  -11.2449  -17.7011   28.4800 N   0  0  0  0  0  0  0  0  0  0  0  0
  -10.7393  -18.1747   29.6678 C   0  0  0  0  0  0  0  0  0  0  0  0
  -10.5022  -19.4802   30.0909 C   0  0  0  0  0  0  0  0  0  0  0  0
   -9.9108  -19.6783   31.3378 C   0  0  0  0  0  0  0  0  0  0  0  0
   -9.5601  -18.5912   32.1419 C   0  0  0  0  0  0  0  0  0  0  0  0
   -9.7892  -17.2879   31.7009 C   0  0  0  0  0  0  0  0  0  0  0  0
  -10.3882  -17.0576   30.4611 C   0  0  0  0  0  0  0  0  0  0  0  0
  -11.4823  -18.2536   27.7005 H   0  0  0  0  0  0  0  0  0  0  0  0
   -9.7297  -21.0180   31.8295 C   0  0  0  0  0  0  0  0  0  0  0  0
   -9.5933  -22.0641   32.2462 N   0  0  0  0  0  0  0  0  0  0  0  0
  -10.1061   -8.5864   30.5985 C   0  0  0  0  0  0  0  0  0  0  0  0
  -12.5364   -8.4725   31.0181 C   0  0  0  0  0  0  0  0  0  0  0  0
   -9.0463   -8.0876   30.2711 O   0  0  0  0  0  0  0  0  0  0  0  0
  -11.2478   -7.8529   30.6737 N   0  0  0  0  0  0  0  0  0  0  0  0
  -13.2215   -7.6620   32.0924 C   0  0  0  0  0  0  0  0  0  0  0  0
  -13.4030   -6.2978   31.6606 O   0  0  0  0  0  0  0  0  0  0  0  0
  -12.1654   -5.6466   31.3399 C   0  0  0  0  0  0  0  0  0  0  0  0
  -11.3634   -6.4279   30.2898 C   0  0  0  0  0  0  0  0  0  0  0  0
  -11.4246   -5.2746   32.6202 C   0  0  0  0  0  0  0  0  0  0  0  0
  -10.0766   -5.5875   32.7542 C   0  0  0  0  0  0  0  0  0  0  0  0
   -9.3930   -5.3040   33.9302 C   0  0  0  0  0  0  0  0  0  0  0  0
  -10.0432   -4.6925   34.9837 C   0  0  0  0  0  0  0  0  0  0  0  0
  -11.3892   -4.3931   34.8772 C   0  0  0  0  0  0  0  0  0  0  0  0
  -12.0758   -4.6700   33.6975 C   0  0  0  0  0  0  0  0  0  0  0  0
  -11.9418   -6.2671   28.8830 C   0  0  0  0  0  0  0  0  0  0  0  0
  -13.2619   -5.7388   28.9175 O   0  0  0  0  0  0  0  0  0  0  0  0
  -13.2483   -4.8615   29.3311 H   0  0  0  0  0  0  0  0  0  0  0  0
 22 21  3  0  0  0
 21 16  1  0  0  0
 16 17  2  0  0  0
 16 15  1  0  0  0
 17 18  1  0  0  0
 15 14  2  0  0  0
 18 19  2  0  0  0
  2  3  1  0  0  0
 38 37  1  0  0  0
 14 19  1  0  0  0
 14 13  1  0  0  0
 19 11  1  0  0  0
 37 30  1  0  0  0
  3  4  1  0  0  0
  3 10  1  0  0  0
 13 12  1  0  0  0
 11  4  1  0  0  0
 11 12  2  0  0  0
  9 10  2  0  0  0
  9  1  1  0  0  0
  4  5  2  0  0  0
 10  6  1  0  0  0
 30 26  1  0  0  0
 30 29  1  0  0  0
 25 23  2  0  0  0
 23 26  1  0  0  0
 23  1  1  0  0  0
 26 24  1  0  0  0
 24 27  1  0  0  0
  1  8  2  0  0  0
 29 28  1  0  0  0
 29 31  1  0  0  0
  5  6  1  0  0  0
  6  7  2  0  0  0
 28 27  1  0  0  0
  8  7  1  0  0  0
 31 36  2  0  0  0
 31 32  1  0  0  0
 36 35  1  0  0  0
 32 33  2  0  0  0
 35 34  2  0  0  0
 33 34  1  0  0  0
 38 39  1  0  0  0
 13 20  1  0  0  0
M  END
> <minimizedAffinity>
-10.14618

$$$$
4Z2B_4LC_A_705


 39 44  0  0  0  0  0  0  0  0999 V2000
  -10.7246   -9.2248   28.6569 C   0  0  0  0  0  0  0  0  0  0  0  0
  -10.2268  -12.3325   31.9245 C   0  0  0  0  0  0  0  0  0  0  0  0
  -10.2567  -12.4731   30.4630 N   0  0  0  0  0  0  0  0  0  0  0  0
  -10.0726  -13.5876   29.6873 C   0  0  0  0  0  0  0  0  0  0  0  0
  -10.2706  -13.3607   28.4009 N   0  0  0  0  0  0  0  0  0  0  0  0
  -10.4604  -11.9808   28.3132 C   0  0  0  0  0  0  0  0  0  0  0  0
  -10.6276  -11.1607   27.1957 C   0  0  0  0  0  0  0  0  0  0  0  0
  -10.7921   -9.7956   27.3813 C   0  0  0  0  0  0  0  0  0  0  0  0
  -10.5504  -10.0429   29.7764 C   0  0  0  0  0  0  0  0  0  0  0  0
  -10.4308  -11.4117   29.5805 C   0  0  0  0  0  0  0  0  0  0  0  0
   -9.9990  -14.9586   30.2047 C   0  0  0  0  0  0  0  0  0  0  0  0
   -9.3358  -15.3732   31.3348 C   0  0  0  0  0  0  0  0  0  0  0  0
   -9.5015  -16.7212   31.5104 N   0  0  0  0  0  0  0  0  0  0  0  0
  -10.1712  -17.2393   30.4269 C   0  0  0  0  0  0  0  0  0  0  0  0
  -10.5120  -18.5546   30.1213 C   0  0  0  0  0  0  0  0  0  0  0  0
  -11.2631  -18.7974   28.9721 C   0  0  0  0  0  0  0  0  0  0  0  0
  -11.6680  -17.7440   28.1488 C   0  0  0  0  0  0  0  0  0  0  0  0
  -11.3330  -16.4295   28.4732 C   0  0  0  0  0  0  0  0  0  0  0  0
  -10.5739  -16.1554   29.6124 C   0  0  0  0  0  0  0  0  0  0  0  0
   -9.1904  -17.2375   32.2888 H   0  0  0  0  0  0  0  0  0  0  0  0
  -11.5583  -20.1535   28.5939 C   0  0  0  0  0  0  0  0  0  0  0  0
  -11.7607  -21.2274   28.2899 N   0  0  0  0  0  0  0  0  0  0  0  0
  -10.8878   -7.7526   28.8846 C   0  0  0  0  0  0  0  0  0  0  0  0
  -12.9364   -8.2666   30.1630 C   0  0  0  0  0  0  0  0  0  0  0  0
  -10.0900   -6.9739   28.3984 O   0  0  0  0  0  0  0  0  0  0  0  0
  -11.9453   -7.3239   29.6229 N   0  0  0  0  0  0  0  0  0  0  0  0
  -13.1752   -7.9741   31.6251 C   0  0  0  0  0  0  0  0  0  0  0  0
  -13.6077   -6.6100   31.8054 O   0  0  0  0  0  0  0  0  0  0  0  0
  -12.6555   -5.6551   31.3155 C   0  0  0  0  0  0  0  0  0  0  0  0
  -12.3023   -5.9041   29.8424 C   0  0  0  0  0  0  0  0  0  0  0  0
  -11.4829   -5.5433   32.2844 C   0  0  0  0  0  0  0  0  0  0  0  0
  -11.6050   -4.7650   33.4299 C   0  0  0  0  0  0  0  0  0  0  0  0
  -10.5345   -4.6073   34.3015 C   0  0  0  0  0  0  0  0  0  0  0  0
   -9.3313   -5.2353   34.0475 C   0  0  0  0  0  0  0  0  0  0  0  0
   -9.1839   -5.9962   32.9021 C   0  0  0  0  0  0  0  0  0  0  0  0
  -10.2569   -6.1615   32.0297 C   0  0  0  0  0  0  0  0  0  0  0  0
  -13.4142   -5.4484   28.8961 C   0  0  0  0  0  0  0  0  0  0  0  0
  -14.6277   -5.2014   29.5955 O   0  0  0  0  0  0  0  0  0  0  0  0
  -14.4881   -4.4952   30.2457 H   0  0  0  0  0  0  0  0  0  0  0  0
 22 21  3  0  0  0
 21 16  1  0  0  0
 16 17  2  0  0  0
 16 15  1  0  0  0
 17 18  1  0  0  0
 15 14  2  0  0  0
 18 19  2  0  0  0
  2  3  1  0  0  0
 38 37  1  0  0  0
 14 19  1  0  0  0
 14 13  1  0  0  0
 19 11  1  0  0  0
 37 30  1  0  0  0
  3  4  1  0  0  0
  3 10  1  0  0  0
 13 12  1  0  0  0
 11  4  1  0  0  0
 11 12  2  0  0  0
  9 10  2  0  0  0
  9  1  1  0  0  0
  4  5  2  0  0  0
 10  6  1  0  0  0
 30 26  1  0  0  0
 30 29  1  0  0  0
 25 23  2  0  0  0
 23 26  1  0  0  0
 23  1  1  0  0  0
 26 24  1  0  0  0
 24 27  1  0  0  0
  1  8  2  0  0  0
 29 28  1  0  0  0
 29 31  1  0  0  0
  5  6  1  0  0  0
  6  7  2  0  0  0
 28 27  1  0  0  0
  8  7  1  0  0  0
 31 36  2  0  0  0
 31 32  1  0  0  0
 36 35  1  0  0  0
 32 33  2  0  0  0
 35 34  2  0  0  0
 33 34  1  0  0  0
 38 39  1  0  0  0
 13 20  1  0  0  0
M  END
> <minimizedAffinity>
-9.98152

$$$$
4Z2B_4LC_A_705


 39 44  0  0  0  0  0  0  0  0999 V2000
  -10.2282  -11.1188   31.4963 C   0  0  0  0  0  0  0  0  0  0  0  0
  -12.4658   -7.8156   29.3364 C   0  0  0  0  0  0  0  0  0  0  0  0
  -12.3790   -8.1400   30.7660 N   0  0  0  0  0  0  0  0  0  0  0  0
  -12.9047   -7.4808   31.8463 C   0  0  0  0  0  0  0  0  0  0  0  0
  -12.7098   -8.1191   32.9865 N   0  0  0  0  0  0  0  0  0  0  0  0
  -11.8849   -9.1936   32.6505 C   0  0  0  0  0  0  0  0  0  0  0  0
  -11.2843  -10.1595   33.4602 C   0  0  0  0  0  0  0  0  0  0  0  0
  -10.4897  -11.1323   32.8707 C   0  0  0  0  0  0  0  0  0  0  0  0
  -10.8227  -10.1488   30.6848 C   0  0  0  0  0  0  0  0  0  0  0  0
  -11.6504   -9.2076   31.2811 C   0  0  0  0  0  0  0  0  0  0  0  0
  -13.8665   -6.3763   31.7596 C   0  0  0  0  0  0  0  0  0  0  0  0
  -14.9267   -6.2795   30.8904 C   0  0  0  0  0  0  0  0  0  0  0  0
  -15.6127   -5.1151   31.1117 N   0  0  0  0  0  0  0  0  0  0  0  0
  -14.9389   -4.3642   32.0460 C   0  0  0  0  0  0  0  0  0  0  0  0
  -15.2064   -3.0913   32.5440 C   0  0  0  0  0  0  0  0  0  0  0  0
  -14.3865   -2.5853   33.5517 C   0  0  0  0  0  0  0  0  0  0  0  0
  -13.3237   -3.3405   34.0531 C   0  0  0  0  0  0  0  0  0  0  0  0
  -13.0746   -4.6199   33.5565 C   0  0  0  0  0  0  0  0  0  0  0  0
  -13.8724   -5.1503   32.5410 C   0  0  0  0  0  0  0  0  0  0  0  0
  -16.4546   -4.8567   30.6717 H   0  0  0  0  0  0  0  0  0  0  0  0
  -14.5945   -1.2429   34.0249 C   0  0  0  0  0  0  0  0  0  0  0  0
  -14.7888   -0.1911   34.4024 N   0  0  0  0  0  0  0  0  0  0  0  0
   -9.3651  -12.1505   30.8357 C   0  0  0  0  0  0  0  0  0  0  0  0
  -10.2500  -13.7965   32.4490 C   0  0  0  0  0  0  0  0  0  0  0  0
   -8.6376  -11.8302   29.9152 O   0  0  0  0  0  0  0  0  0  0  0  0
   -9.4084  -13.4267   31.3011 N   0  0  0  0  0  0  0  0  0  0  0  0
  -11.0518  -15.0324   32.1170 C   0  0  0  0  0  0  0  0  0  0  0  0
  -10.1787  -16.1187   31.7451 O   0  0  0  0  0  0  0  0  0  0  0  0
   -9.3576  -15.8087   30.6101 C   0  0  0  0  0  0  0  0  0  0  0  0
   -8.5395  -14.5283   30.8288 C   0  0  0  0  0  0  0  0  0  0  0  0
  -10.1879  -15.8730   29.3323 C   0  0  0  0  0  0  0  0  0  0  0  0
  -10.9176  -17.0196   29.0395 C   0  0  0  0  0  0  0  0  0  0  0  0
  -11.6411  -17.1211   27.8576 C   0  0  0  0  0  0  0  0  0  0  0  0
  -11.6560  -16.0737   26.9580 C   0  0  0  0  0  0  0  0  0  0  0  0
  -10.9191  -14.9335   27.2217 C   0  0  0  0  0  0  0  0  0  0  0  0
  -10.1980  -14.8259   28.4083 C   0  0  0  0  0  0  0  0  0  0  0  0
   -7.3527  -14.7534   31.7669 C   0  0  0  0  0  0  0  0  0  0  0  0
   -7.4767  -15.9759   32.4831 O   0  0  0  0  0  0  0  0  0  0  0  0
   -7.5003  -16.7164   31.8571 H   0  0  0  0  0  0  0  0  0  0  0  0
 22 21  3  0  0  0
 21 16  1  0  0  0
 16 17  2  0  0  0
 16 15  1  0  0  0
 17 18  1  0  0  0
 15 14  2  0  0  0
 18 19  2  0  0  0
  2  3  1  0  0  0
 38 37  1  0  0  0
 14 19  1  0  0  0
 14 13  1  0  0  0
 19 11  1  0  0  0
 37 30  1  0  0  0
  3  4  1  0  0  0
  3 10  1  0  0  0
 13 12  1  0  0  0
 11  4  1  0  0  0
 11 12  2  0  0  0
  9 10  2  0  0  0
  9  1  1  0  0  0
  4  5  2  0  0  0
 10  6  1  0  0  0
 30 26  1  0  0  0
 30 29  1  0  0  0
 25 23  2  0  0  0
 23 26  1  0  0  0
 23  1  1  0  0  0
 26 24  1  0  0  0
 24 27  1  0  0  0
  1  8  2  0  0  0
 29 28  1  0  0  0
 29 31  1  0  0  0
  5  6  1  0  0  0
  6  7  2  0  0  0
 28 27  1  0  0  0
  8  7  1  0  0  0
 31 36  2  0  0  0
 31 32  1  0  0  0
 36 35  1  0  0  0
 32 33  2  0  0  0
 35 34  2  0  0  0
 33 34  1  0  0  0
 38 39  1  0  0  0
 13 20  1  0  0  0
M  END
> <minimizedAffinity>
-9.64674

$$$$
4Z2B_4LC_A_705


 39 44  0  0  0  0  0  0  0  0999 V2000
  -12.3218  -18.0287   26.4528 C   0  0  0  0  0  0  0  0  0  0  0  0
  -10.2308  -17.6351   30.4598 C   0  0  0  0  0  0  0  0  0  0  0  0
  -10.7156  -16.6109   29.5256 N   0  0  0  0  0  0  0  0  0  0  0  0
  -10.7243  -15.2463   29.6507 C   0  0  0  0  0  0  0  0  0  0  0  0
  -11.1482  -14.6299   28.5617 N   0  0  0  0  0  0  0  0  0  0  0  0
  -11.5749  -15.6583   27.7201 C   0  0  0  0  0  0  0  0  0  0  0  0
  -12.1957  -15.6047   26.4707 C   0  0  0  0  0  0  0  0  0  0  0  0
  -12.5318  -16.7912   25.8348 C   0  0  0  0  0  0  0  0  0  0  0  0
  -11.7069  -18.0846   27.7064 C   0  0  0  0  0  0  0  0  0  0  0  0
  -11.3360  -16.8922   28.3124 C   0  0  0  0  0  0  0  0  0  0  0  0
  -10.0381  -14.5039   30.7141 C   0  0  0  0  0  0  0  0  0  0  0  0
   -8.9089  -13.7326   30.5773 C   0  0  0  0  0  0  0  0  0  0  0  0
   -8.5659  -13.1814   31.7830 N   0  0  0  0  0  0  0  0  0  0  0  0
   -9.3911  -13.6845   32.7611 C   0  0  0  0  0  0  0  0  0  0  0  0
   -9.3901  -13.4755   34.1381 C   0  0  0  0  0  0  0  0  0  0  0  0
  -10.3971  -14.0648   34.9012 C   0  0  0  0  0  0  0  0  0  0  0  0
  -11.3869  -14.8436   34.2969 C   0  0  0  0  0  0  0  0  0  0  0  0
  -11.3858  -15.0337   32.9151 C   0  0  0  0  0  0  0  0  0  0  0  0
  -10.3853  -14.4641   32.1253 C   0  0  0  0  0  0  0  0  0  0  0  0
   -7.8432  -12.5285   31.9268 H   0  0  0  0  0  0  0  0  0  0  0  0
  -10.3705  -13.9288   36.3330 C   0  0  0  0  0  0  0  0  0  0  0  0
  -10.3271  -13.7998   37.4591 N   0  0  0  0  0  0  0  0  0  0  0  0
  -12.6853  -19.3245   25.7934 C   0  0  0  0  0  0  0  0  0  0  0  0
  -12.2658  -20.4409   27.9550 C   0  0  0  0  0  0  0  0  0  0  0  0
  -12.9731  -19.3413   24.6118 O   0  0  0  0  0  0  0  0  0  0  0  0
  -12.6665  -20.4599   26.5401 N   0  0  0  0  0  0  0  0  0  0  0  0
  -13.2777  -21.1974   28.7822 C   0  0  0  0  0  0  0  0  0  0  0  0
  -13.4156  -22.5505   28.3022 O   0  0  0  0  0  0  0  0  0  0  0  0
  -13.8322  -22.6145   26.9307 C   0  0  0  0  0  0  0  0  0  0  0  0
  -12.8922  -21.8236   26.0101 C   0  0  0  0  0  0  0  0  0  0  0  0
  -15.3188  -22.2913   26.8214 C   0  0  0  0  0  0  0  0  0  0  0  0
  -16.2227  -22.8954   27.6879 C   0  0  0  0  0  0  0  0  0  0  0  0
  -17.5866  -22.6556   27.5752 C   0  0  0  0  0  0  0  0  0  0  0  0
  -18.0652  -21.7991   26.6037 C   0  0  0  0  0  0  0  0  0  0  0  0
  -17.1836  -21.2056   25.7188 C   0  0  0  0  0  0  0  0  0  0  0  0
  -15.8152  -21.4387   25.8330 C   0  0  0  0  0  0  0  0  0  0  0  0
  -11.5740  -22.5580   25.7607 C   0  0  0  0  0  0  0  0  0  0  0  0
  -11.6924  -23.5000   24.7016 O   0  0  0  0  0  0  0  0  0  0  0  0
  -11.9301  -23.0376   23.8827 H   0  0  0  0  0  0  0  0  0  0  0  0
 22 21  3  0  0  0
 21 16  1  0  0  0
 16 17  2  0  0  0
 16 15  1  0  0  0
 17 18  1  0  0  0
 15 14  2  0  0  0
 18 19  2  0  0  0
  2  3  1  0  0  0
 38 37  1  0  0  0
 14 19  1  0  0  0
 14 13  1  0  0  0
 19 11  1  0  0  0
 37 30  1  0  0  0
  3  4  1  0  0  0
  3 10  1  0  0  0
 13 12  1  0  0  0
 11  4  1  0  0  0
 11 12  2  0  0  0
  9 10  2  0  0  0
  9  1  1  0  0  0
  4  5  2  0  0  0
 10  6  1  0  0  0
 30 26  1  0  0  0
 30 29  1  0  0  0
 25 23  2  0  0  0
 23 26  1  0  0  0
 23  1  1  0  0  0
 26 24  1  0  0  0
 24 27  1  0  0  0
  1  8  2  0  0  0
 29 28  1  0  0  0
 29 31  1  0  0  0
  5  6  1  0  0  0
  6  7  2  0  0  0
 28 27  1  0  0  0
  8  7  1  0  0  0
 31 36  2  0  0  0
 31 32  1  0  0  0
 36 35  1  0  0  0
 32 33  2  0  0  0
 35 34  2  0  0  0
 33 34  1  0  0  0
 38 39  1  0  0  0
 13 20  1  0  0  0
M  END
> <minimizedAffinity>
-9.27044

$$$$
4Z2B_4LC_A_705


 39 44  0  0  0  0  0  0  0  0999 V2000
  -11.4411   -6.1938   31.4660 C   0  0  0  0  0  0  0  0  0  0  0  0
   -9.3147  -10.1845   31.0981 C   0  0  0  0  0  0  0  0  0  0  0  0
  -10.0333   -9.3843   30.0982 N   0  0  0  0  0  0  0  0  0  0  0  0
  -10.1961   -9.6030   28.7552 C   0  0  0  0  0  0  0  0  0  0  0  0
  -10.9938   -8.7203   28.1806 N   0  0  0  0  0  0  0  0  0  0  0  0
  -11.2594   -7.7839   29.1809 C   0  0  0  0  0  0  0  0  0  0  0  0
  -11.9739   -6.5855   29.1303 C   0  0  0  0  0  0  0  0  0  0  0  0
  -12.0861   -5.8198   30.2820 C   0  0  0  0  0  0  0  0  0  0  0  0
  -10.7196   -7.3894   31.5171 C   0  0  0  0  0  0  0  0  0  0  0  0
  -10.6516   -8.1679   30.3700 C   0  0  0  0  0  0  0  0  0  0  0  0
   -9.8277  -10.8433   28.0636 C   0  0  0  0  0  0  0  0  0  0  0  0
   -9.0445  -10.9529   26.9396 C   0  0  0  0  0  0  0  0  0  0  0  0
   -8.9053  -12.2694   26.5888 N   0  0  0  0  0  0  0  0  0  0  0  0
   -9.7012  -13.0406   27.4028 C   0  0  0  0  0  0  0  0  0  0  0  0
   -9.9436  -14.4120   27.3907 C   0  0  0  0  0  0  0  0  0  0  0  0
  -10.7538  -14.9531   28.3880 C   0  0  0  0  0  0  0  0  0  0  0  0
  -11.3059  -14.1381   29.3790 C   0  0  0  0  0  0  0  0  0  0  0  0
  -11.0440  -12.7681   29.3891 C   0  0  0  0  0  0  0  0  0  0  0  0
  -10.2440  -12.1954   28.3985 C   0  0  0  0  0  0  0  0  0  0  0  0
   -8.3272  -12.6096   25.8682 H   0  0  0  0  0  0  0  0  0  0  0  0
  -11.0828  -16.3530   28.3494 C   0  0  0  0  0  0  0  0  0  0  0  0
  -11.3200  -17.4622   28.3406 N   0  0  0  0  0  0  0  0  0  0  0  0
  -11.5366   -5.3799   32.7207 C   0  0  0  0  0  0  0  0  0  0  0  0
  -13.9932   -5.4939   32.5032 C   0  0  0  0  0  0  0  0  0  0  0  0
  -10.5219   -4.9977   33.2717 O   0  0  0  0  0  0  0  0  0  0  0  0
  -12.7698   -5.0744   33.2034 N   0  0  0  0  0  0  0  0  0  0  0  0
  -14.9492   -6.1310   33.4833 C   0  0  0  0  0  0  0  0  0  0  0  0
  -15.2558   -5.2195   34.5583 O   0  0  0  0  0  0  0  0  0  0  0  0
  -14.0906   -4.8055   35.2859 C   0  0  0  0  0  0  0  0  0  0  0  0
  -13.0284   -4.1916   34.3632 C   0  0  0  0  0  0  0  0  0  0  0  0
  -13.6228   -5.9293   36.2049 C   0  0  0  0  0  0  0  0  0  0  0  0
  -12.2704   -6.2431   36.2796 C   0  0  0  0  0  0  0  0  0  0  0  0
  -11.8258   -7.2950   37.0709 C   0  0  0  0  0  0  0  0  0  0  0  0
  -12.7244   -8.0399   37.8085 C   0  0  0  0  0  0  0  0  0  0  0  0
  -14.0759   -7.7567   37.7305 C   0  0  0  0  0  0  0  0  0  0  0  0
  -14.5243   -6.6989   36.9433 C   0  0  0  0  0  0  0  0  0  0  0  0
  -13.3947   -2.7734   33.9230 C   0  0  0  0  0  0  0  0  0  0  0  0
  -14.7051   -2.4166   34.3454 O   0  0  0  0  0  0  0  0  0  0  0  0
  -14.7513   -2.4443   35.3139 H   0  0  0  0  0  0  0  0  0  0  0  0
 22 21  3  0  0  0
 21 16  1  0  0  0
 16 17  2  0  0  0
 16 15  1  0  0  0
 17 18  1  0  0  0
 15 14  2  0  0  0
 18 19  2  0  0  0
  2  3  1  0  0  0
 38 37  1  0  0  0
 14 19  1  0  0  0
 14 13  1  0  0  0
 19 11  1  0  0  0
 37 30  1  0  0  0
  3  4  1  0  0  0
  3 10  1  0  0  0
 13 12  1  0  0  0
 11  4  1  0  0  0
 11 12  2  0  0  0
  9 10  2  0  0  0
  9  1  1  0  0  0
  4  5  2  0  0  0
 10  6  1  0  0  0
 30 26  1  0  0  0
 30 29  1  0  0  0
 25 23  2  0  0  0
 23 26  1  0  0  0
 23  1  1  0  0  0
 26 24  1  0  0  0
 24 27  1  0  0  0
  1  8  2  0  0  0
 29 28  1  0  0  0
 29 31  1  0  0  0
  5  6  1  0  0  0
  6  7  2  0  0  0
 28 27  1  0  0  0
  8  7  1  0  0  0
 31 36  2  0  0  0
 31 32  1  0  0  0
 36 35  1  0  0  0
 32 33  2  0  0  0
 35 34  2  0  0  0
 33 34  1  0  0  0
 38 39  1  0  0  0
 13 20  1  0  0  0
M  END
> <minimizedAffinity>
-9.17954

$$$$
4Z2B_4LC_A_705


 39 44  0  0  0  0  0  0  0  0999 V2000
   -9.9486   -8.5635   30.5941 C   0  0  0  0  0  0  0  0  0  0  0  0
  -12.1611   -7.4794   34.4036 C   0  0  0  0  0  0  0  0  0  0  0  0
  -11.1154   -6.7613   33.6637 N   0  0  0  0  0  0  0  0  0  0  0  0
  -10.5714   -5.5251   33.8958 C   0  0  0  0  0  0  0  0  0  0  0  0
   -9.5728   -5.2382   33.0796 N   0  0  0  0  0  0  0  0  0  0  0  0
   -9.5516   -6.2935   32.1666 C   0  0  0  0  0  0  0  0  0  0  0  0
   -8.7664   -6.4885   31.0287 C   0  0  0  0  0  0  0  0  0  0  0  0
   -8.9496   -7.6379   30.2735 C   0  0  0  0  0  0  0  0  0  0  0  0
  -10.7405   -8.3670   31.7286 C   0  0  0  0  0  0  0  0  0  0  0  0
  -10.5175   -7.2350   32.5001 C   0  0  0  0  0  0  0  0  0  0  0  0
  -10.8067   -4.7259   35.1035 C   0  0  0  0  0  0  0  0  0  0  0  0
  -10.1229   -4.8169   36.2921 C   0  0  0  0  0  0  0  0  0  0  0  0
  -10.6101   -3.9022   37.1872 N   0  0  0  0  0  0  0  0  0  0  0  0
  -11.7099   -3.2803   36.6446 C   0  0  0  0  0  0  0  0  0  0  0  0
  -12.5730   -2.3340   37.1916 C   0  0  0  0  0  0  0  0  0  0  0  0
  -13.5839   -1.8113   36.3863 C   0  0  0  0  0  0  0  0  0  0  0  0
  -13.7243   -2.2246   35.0594 C   0  0  0  0  0  0  0  0  0  0  0  0
  -12.8447   -3.1622   34.5183 C   0  0  0  0  0  0  0  0  0  0  0  0
  -11.8281   -3.7106   35.3024 C   0  0  0  0  0  0  0  0  0  0  0  0
  -10.2329   -3.7190   38.0780 H   0  0  0  0  0  0  0  0  0  0  0  0
  -14.5354   -0.8932   36.9528 C   0  0  0  0  0  0  0  0  0  0  0  0
  -15.2942   -0.1913   37.4201 N   0  0  0  0  0  0  0  0  0  0  0  0
  -10.1753   -9.8072   29.7893 C   0  0  0  0  0  0  0  0  0  0  0  0
   -7.7312   -9.9374   29.4652 C   0  0  0  0  0  0  0  0  0  0  0  0
  -11.3086  -10.2051   29.5983 O   0  0  0  0  0  0  0  0  0  0  0  0
   -9.0954  -10.4532   29.2758 N   0  0  0  0  0  0  0  0  0  0  0  0
   -6.8249  -11.0508   29.9336 C   0  0  0  0  0  0  0  0  0  0  0  0
   -6.8379  -12.1447   28.9936 O   0  0  0  0  0  0  0  0  0  0  0  0
   -8.1483  -12.6960   28.7997 C   0  0  0  0  0  0  0  0  0  0  0  0
   -9.1619  -11.6249   28.3735 C   0  0  0  0  0  0  0  0  0  0  0  0
   -8.5347  -13.5568   29.9980 C   0  0  0  0  0  0  0  0  0  0  0  0
   -9.8475  -13.5545   30.4557 C   0  0  0  0  0  0  0  0  0  0  0  0
  -10.2127  -14.2911   31.5758 C   0  0  0  0  0  0  0  0  0  0  0  0
   -9.2744  -15.0501   32.2465 C   0  0  0  0  0  0  0  0  0  0  0  0
   -7.9591  -15.0482   31.8192 C   0  0  0  0  0  0  0  0  0  0  0  0
   -7.5909  -14.3161   30.6930 C   0  0  0  0  0  0  0  0  0  0  0  0
   -8.9935  -11.2196   26.9083 C   0  0  0  0  0  0  0  0  0  0  0  0
   -7.6521  -11.3930   26.4686 O   0  0  0  0  0  0  0  0  0  0  0  0
   -7.4052  -12.3279   26.5446 H   0  0  0  0  0  0  0  0  0  0  0  0
 22 21  3  0  0  0
 21 16  1  0  0  0
 16 17  2  0  0  0
 16 15  1  0  0  0
 17 18  1  0  0  0
 15 14  2  0  0  0
 18 19  2  0  0  0
  2  3  1  0  0  0
 38 37  1  0  0  0
 14 19  1  0  0  0
 14 13  1  0  0  0
 19 11  1  0  0  0
 37 30  1  0  0  0
  3  4  1  0  0  0
  3 10  1  0  0  0
 13 12  1  0  0  0
 11  4  1  0  0  0
 11 12  2  0  0  0
  9 10  2  0  0  0
  9  1  1  0  0  0
  4  5  2  0  0  0
 10  6  1  0  0  0
 30 26  1  0  0  0
 30 29  1  0  0  0
 25 23  2  0  0  0
 23 26  1  0  0  0
 23  1  1  0  0  0
 26 24  1  0  0  0
 24 27  1  0  0  0
  1  8  2  0  0  0
 29 28  1  0  0  0
 29 31  1  0  0  0
  5  6  1  0  0  0
  6  7  2  0  0  0
 28 27  1  0  0  0
  8  7  1  0  0  0
 31 36  2  0  0  0
 31 32  1  0  0  0
 36 35  1  0  0  0
 32 33  2  0  0  0
 35 34  2  0  0  0
 33 34  1  0  0  0
 38 39  1  0  0  0
 13 20  1  0  0  0
M  END
> <minimizedAffinity>
-9.16885

$$$$
