5CJF_520_A_302


 29 31  0  0  0  0  0  0  0  0999 V2000
   66.4833   37.0019   -4.0443 C   0  0  0  0  0  0  0  0  0  0  0  0
   67.7291   37.2321   -3.4724 C   0  0  0  0  0  0  0  0  0  0  0  0
   67.8770   37.2024   -2.0897 C   0  0  0  0  0  0  0  0  0  0  0  0
   65.3854   36.7392   -3.2313 C   0  0  0  0  0  0  0  0  0  0  0  0
   65.5334   36.7096   -1.8496 C   0  0  0  0  0  0  0  0  0  0  0  0
   66.7801   36.9438   -1.2768 C   0  0  0  0  0  0  0  0  0  0  0  0
   66.9162   36.9479    0.1064 C   0  0  0  0  0  0  0  0  0  0  0  0
   68.0215   37.5572    0.6922 C   0  0  0  0  0  0  0  0  0  0  0  0
   68.1297   37.6215    2.0771 C   0  0  0  0  0  0  0  0  0  0  0  0
   67.1333   37.0746    2.8773 C   0  0  0  0  0  0  0  0  0  0  0  0
   66.0333   36.4560    2.2939 C   0  0  0  0  0  0  0  0  0  0  0  0
   65.9262   36.3925    0.9080 C   0  0  0  0  0  0  0  0  0  0  0  0
   66.7509   38.5391    4.9276 O   0  0  0  0  0  0  0  0  0  0  0  0
   66.5262   36.1083    5.1936 O   0  0  0  0  0  0  0  0  0  0  0  0
   67.2355   37.2210    4.6273 S   0  0  0  0  0  0  0  0  0  0  0  0
   68.7697   37.1263    5.0273 N   0  0  0  0  0  0  0  0  0  0  0  0
   69.2752   37.9160    4.6259 H   0  0  0  0  0  0  0  0  0  0  0  0
   69.1612   36.2549    4.6697 H   0  0  0  0  0  0  0  0  0  0  0  0
   66.3187   37.0407   -5.5287 C   0  0  0  0  0  0  0  0  0  0  0  0
   66.0737   36.0202   -6.1527 O   0  0  0  0  0  0  0  0  0  0  0  0
   65.4170   39.2708   -6.2054 C   0  0  0  0  0  0  0  0  0  0  0  0
   65.5459   40.4884   -6.8646 C   0  0  0  0  0  0  0  0  0  0  0  0
   66.7158   40.7835   -7.5565 C   0  0  0  0  0  0  0  0  0  0  0  0
   66.8433   41.9784   -8.2027 N   0  0  0  0  0  0  0  0  0  0  0  0
   67.7559   39.8617   -7.5891 C   0  0  0  0  0  0  0  0  0  0  0  0
   67.6265   38.6432   -6.9300 C   0  0  0  0  0  0  0  0  0  0  0  0
   66.4571   38.3490   -6.2390 C   0  0  0  0  0  0  0  0  0  0  0  0
   67.6714   42.1873   -8.6925 H   0  0  0  0  0  0  0  0  0  0  0  0
   66.1071   42.6317   -8.1792 H   0  0  0  0  0  0  0  0  0  0  0  0
 24 23  1  0  0  0
 23 25  2  0  0  0
 23 22  1  0  0  0
 25 26  1  0  0  0
 22 21  2  0  0  0
 26 27  2  0  0  0
 21 27  1  0  0  0
 27 19  1  0  0  0
 20 19  2  0  0  0
 19  1  1  0  0  0
  1  2  2  0  0  0
  1  4  1  0  0  0
  2  3  1  0  0  0
  4  5  2  0  0  0
  3  6  2  0  0  0
  5  6  1  0  0  0
  6  7  1  0  0  0
  7  8  2  0  0  0
  7 12  1  0  0  0
  8  9  1  0  0  0
 12 11  2  0  0  0
  9 10  2  0  0  0
 11 10  1  0  0  0
 10 15  1  0  0  0
 15 13  2  0  0  0
 15 16  1  0  0  0
 15 14  2  0  0  0
 24 28  1  0  0  0
 24 29  1  0  0  0
 16 17  1  0  0  0
 16 18  1  0  0  0
M  END
> <minimizedAffinity>
-9.14407

$$$$
5CJF_520_A_302


 29 31  0  0  0  0  0  0  0  0999 V2000
   66.5882   36.6469   -0.7658 C   0  0  0  0  0  0  0  0  0  0  0  0
   67.9000   36.9962   -1.0646 C   0  0  0  0  0  0  0  0  0  0  0  0
   68.1776   37.7602   -2.1934 C   0  0  0  0  0  0  0  0  0  0  0  0
   65.5534   37.0652   -1.5961 C   0  0  0  0  0  0  0  0  0  0  0  0
   65.8308   37.8287   -2.7240 C   0  0  0  0  0  0  0  0  0  0  0  0
   67.1448   38.1752   -3.0252 C   0  0  0  0  0  0  0  0  0  0  0  0
   67.4209   38.9089   -4.1729 C   0  0  0  0  0  0  0  0  0  0  0  0
   68.6529   38.7696   -4.8048 C   0  0  0  0  0  0  0  0  0  0  0  0
   68.9099   39.4514   -5.9892 C   0  0  0  0  0  0  0  0  0  0  0  0
   67.9356   40.2748   -6.5416 C   0  0  0  0  0  0  0  0  0  0  0  0
   66.7079   40.4235   -5.9063 C   0  0  0  0  0  0  0  0  0  0  0  0
   66.4520   39.7405   -4.7212 C   0  0  0  0  0  0  0  0  0  0  0  0
   69.5421   41.6612   -7.9529 O   0  0  0  0  0  0  0  0  0  0  0  0
   68.0376   40.1078   -9.1163 O   0  0  0  0  0  0  0  0  0  0  0  0
   68.2353   41.0789   -8.0772 S   0  0  0  0  0  0  0  0  0  0  0  0
   67.1604   42.2386   -8.2286 N   0  0  0  0  0  0  0  0  0  0  0  0
   67.2994   42.9294   -7.4912 H   0  0  0  0  0  0  0  0  0  0  0  0
   66.2225   41.8448   -8.1533 H   0  0  0  0  0  0  0  0  0  0  0  0
   66.2868   35.8198    0.4413 C   0  0  0  0  0  0  0  0  0  0  0  0
   65.7057   34.7515    0.3321 O   0  0  0  0  0  0  0  0  0  0  0  0
   65.7499   36.6762    2.7266 C   0  0  0  0  0  0  0  0  0  0  0  0
   66.1422   37.1394    3.9777 C   0  0  0  0  0  0  0  0  0  0  0  0
   67.4940   37.2448    4.2871 C   0  0  0  0  0  0  0  0  0  0  0  0
   67.8796   37.6984    5.5148 N   0  0  0  0  0  0  0  0  0  0  0  0
   68.4528   36.8871    3.3460 C   0  0  0  0  0  0  0  0  0  0  0  0
   68.0600   36.4242    2.0942 C   0  0  0  0  0  0  0  0  0  0  0  0
   66.7090   36.3195    1.7857 C   0  0  0  0  0  0  0  0  0  0  0  0
   68.8365   37.7729    5.7338 H   0  0  0  0  0  0  0  0  0  0  0  0
   67.2009   37.9511    6.1816 H   0  0  0  0  0  0  0  0  0  0  0  0
 24 23  1  0  0  0
 23 25  2  0  0  0
 23 22  1  0  0  0
 25 26  1  0  0  0
 22 21  2  0  0  0
 26 27  2  0  0  0
 21 27  1  0  0  0
 27 19  1  0  0  0
 20 19  2  0  0  0
 19  1  1  0  0  0
  1  2  2  0  0  0
  1  4  1  0  0  0
  2  3  1  0  0  0
  4  5  2  0  0  0
  3  6  2  0  0  0
  5  6  1  0  0  0
  6  7  1  0  0  0
  7  8  2  0  0  0
  7 12  1  0  0  0
  8  9  1  0  0  0
 12 11  2  0  0  0
  9 10  2  0  0  0
 11 10  1  0  0  0
 10 15  1  0  0  0
 15 13  2  0  0  0
 15 16  1  0  0  0
 15 14  2  0  0  0
 24 28  1  0  0  0
 24 29  1  0  0  0
 16 17  1  0  0  0
 16 18  1  0  0  0
M  END
> <minimizedAffinity>
-8.44509

$$$$
5CJF_520_A_302


 29 31  0  0  0  0  0  0  0  0999 V2000
   67.0783   36.6718   -0.1830 C   0  0  0  0  0  0  0  0  0  0  0  0
   68.1082   37.3674   -0.8054 C   0  0  0  0  0  0  0  0  0  0  0  0
   67.9028   37.9471   -2.0531 C   0  0  0  0  0  0  0  0  0  0  0  0
   65.8411   36.5588   -0.8089 C   0  0  0  0  0  0  0  0  0  0  0  0
   65.6359   37.1382   -2.0556 C   0  0  0  0  0  0  0  0  0  0  0  0
   66.6684   37.8315   -2.6805 C   0  0  0  0  0  0  0  0  0  0  0  0
   66.4695   38.3791   -3.9424 C   0  0  0  0  0  0  0  0  0  0  0  0
   66.7880   39.7132   -4.1771 C   0  0  0  0  0  0  0  0  0  0  0  0
   66.6527   40.2481   -5.4535 C   0  0  0  0  0  0  0  0  0  0  0  0
   66.1966   39.4496   -6.4960 C   0  0  0  0  0  0  0  0  0  0  0  0
   65.8678   38.1193   -6.2613 C   0  0  0  0  0  0  0  0  0  0  0  0
   66.0039   37.5852   -4.9836 C   0  0  0  0  0  0  0  0  0  0  0  0
   66.4855   41.4842   -8.0032 O   0  0  0  0  0  0  0  0  0  0  0  0
   66.8868   39.2660   -8.9774 O   0  0  0  0  0  0  0  0  0  0  0  0
   66.0954   40.1074   -8.1243 S   0  0  0  0  0  0  0  0  0  0  0  0
   64.5745   40.0347   -8.5768 N   0  0  0  0  0  0  0  0  0  0  0  0
   64.0108   40.6318   -7.9718 H   0  0  0  0  0  0  0  0  0  0  0  0
   64.2447   39.0720   -8.5071 H   0  0  0  0  0  0  0  0  0  0  0  0
   67.2974   36.0410    1.1535 C   0  0  0  0  0  0  0  0  0  0  0  0
   66.3550   35.8228    1.8985 O   0  0  0  0  0  0  0  0  0  0  0  0
   69.3475   34.6288    0.9362 C   0  0  0  0  0  0  0  0  0  0  0  0
   70.6420   34.2932    1.3172 C   0  0  0  0  0  0  0  0  0  0  0  0
   71.2772   35.0094    2.3262 C   0  0  0  0  0  0  0  0  0  0  0  0
   72.5477   34.6811    2.6998 N   0  0  0  0  0  0  0  0  0  0  0  0
   70.6181   36.0604    2.9537 C   0  0  0  0  0  0  0  0  0  0  0  0
   69.3227   36.3957    2.5727 C   0  0  0  0  0  0  0  0  0  0  0  0
   68.6886   35.6794    1.5646 C   0  0  0  0  0  0  0  0  0  0  0  0
   72.9972   35.1881    3.4140 H   0  0  0  0  0  0  0  0  0  0  0  0
   73.0149   33.9373    2.2552 H   0  0  0  0  0  0  0  0  0  0  0  0
 24 23  1  0  0  0
 23 25  2  0  0  0
 23 22  1  0  0  0
 25 26  1  0  0  0
 22 21  2  0  0  0
 26 27  2  0  0  0
 21 27  1  0  0  0
 27 19  1  0  0  0
 20 19  2  0  0  0
 19  1  1  0  0  0
  1  2  2  0  0  0
  1  4  1  0  0  0
  2  3  1  0  0  0
  4  5  2  0  0  0
  3  6  2  0  0  0
  5  6  1  0  0  0
  6  7  1  0  0  0
  7  8  2  0  0  0
  7 12  1  0  0  0
  8  9  1  0  0  0
 12 11  2  0  0  0
  9 10  2  0  0  0
 11 10  1  0  0  0
 10 15  1  0  0  0
 15 13  2  0  0  0
 15 16  1  0  0  0
 15 14  2  0  0  0
 24 28  1  0  0  0
 24 29  1  0  0  0
 16 17  1  0  0  0
 16 18  1  0  0  0
M  END
> <minimizedAffinity>
-8.41260

$$$$
5CJF_520_A_302


 29 31  0  0  0  0  0  0  0  0999 V2000
   67.7202   36.8379   -1.2989 C   0  0  0  0  0  0  0  0  0  0  0  0
   68.8730   37.3904   -1.8448 C   0  0  0  0  0  0  0  0  0  0  0  0
   68.7956   38.1659   -2.9969 C   0  0  0  0  0  0  0  0  0  0  0  0
   66.4889   37.0642   -1.9054 C   0  0  0  0  0  0  0  0  0  0  0  0
   66.4117   37.8393   -3.0567 C   0  0  0  0  0  0  0  0  0  0  0  0
   67.5665   38.3894   -3.6054 C   0  0  0  0  0  0  0  0  0  0  0  0
   67.4891   39.1343   -4.7762 C   0  0  0  0  0  0  0  0  0  0  0  0
   68.6153   39.2807   -5.5802 C   0  0  0  0  0  0  0  0  0  0  0  0
   68.5270   39.9697   -6.7849 C   0  0  0  0  0  0  0  0  0  0  0  0
   67.3125   40.5146   -7.1855 C   0  0  0  0  0  0  0  0  0  0  0  0
   66.1886   40.3786   -6.3785 C   0  0  0  0  0  0  0  0  0  0  0  0
   66.2783   39.6888   -5.1734 C   0  0  0  0  0  0  0  0  0  0  0  0
   67.0450   42.7184   -8.4371 O   0  0  0  0  0  0  0  0  0  0  0  0
   68.3216   40.9257   -9.5264 O   0  0  0  0  0  0  0  0  0  0  0  0
   67.1854   41.3223   -8.7430 S   0  0  0  0  0  0  0  0  0  0  0  0
   65.8566   40.8061   -9.4435 N   0  0  0  0  0  0  0  0  0  0  0  0
   65.0484   41.0870   -8.8883 H   0  0  0  0  0  0  0  0  0  0  0  0
   65.8830   39.7890   -9.5151 H   0  0  0  0  0  0  0  0  0  0  0  0
   67.8002   35.9978   -0.0660 C   0  0  0  0  0  0  0  0  0  0  0  0
   68.2885   34.8795   -0.1079 O   0  0  0  0  0  0  0  0  0  0  0  0
   68.0867   37.3470    2.0177 C   0  0  0  0  0  0  0  0  0  0  0  0
   67.5977   37.8603    3.2140 C   0  0  0  0  0  0  0  0  0  0  0  0
   66.2961   37.5748    3.6121 C   0  0  0  0  0  0  0  0  0  0  0  0
   65.8154   38.0789    4.7853 N   0  0  0  0  0  0  0  0  0  0  0  0
   65.4841   36.7765    2.8145 C   0  0  0  0  0  0  0  0  0  0  0  0
   65.9738   36.2625    1.6180 C   0  0  0  0  0  0  0  0  0  0  0  0
   67.2746   36.5482    1.2209 C   0  0  0  0  0  0  0  0  0  0  0  0
   64.8940   37.8768    5.0671 H   0  0  0  0  0  0  0  0  0  0  0  0
   66.3899   38.6448    5.3500 H   0  0  0  0  0  0  0  0  0  0  0  0
 24 23  1  0  0  0
 23 25  2  0  0  0
 23 22  1  0  0  0
 25 26  1  0  0  0
 22 21  2  0  0  0
 26 27  2  0  0  0
 21 27  1  0  0  0
 27 19  1  0  0  0
 20 19  2  0  0  0
 19  1  1  0  0  0
  1  2  2  0  0  0
  1  4  1  0  0  0
  2  3  1  0  0  0
  4  5  2  0  0  0
  3  6  2  0  0  0
  5  6  1  0  0  0
  6  7  1  0  0  0
  7  8  2  0  0  0
  7 12  1  0  0  0
  8  9  1  0  0  0
 12 11  2  0  0  0
  9 10  2  0  0  0
 11 10  1  0  0  0
 10 15  1  0  0  0
 15 13  2  0  0  0
 15 16  1  0  0  0
 15 14  2  0  0  0
 24 28  1  0  0  0
 24 29  1  0  0  0
 16 17  1  0  0  0
 16 18  1  0  0  0
M  END
> <minimizedAffinity>
-8.03756

$$$$
5CJF_520_A_302


 29 31  0  0  0  0  0  0  0  0999 V2000
   67.8124   36.7391   -1.2626 C   0  0  0  0  0  0  0  0  0  0  0  0
   66.6281   36.7751   -1.9895 C   0  0  0  0  0  0  0  0  0  0  0  0
   66.5513   37.5238   -3.1593 C   0  0  0  0  0  0  0  0  0  0  0  0
   68.9212   37.4510   -1.7087 C   0  0  0  0  0  0  0  0  0  0  0  0
   68.8443   38.1990   -2.8777 C   0  0  0  0  0  0  0  0  0  0  0  0
   67.6574   38.2380   -3.6035 C   0  0  0  0  0  0  0  0  0  0  0  0
   67.5745   39.0154   -4.7527 C   0  0  0  0  0  0  0  0  0  0  0  0
   68.6852   39.1497   -5.5801 C   0  0  0  0  0  0  0  0  0  0  0  0
   68.5889   39.8722   -6.7644 C   0  0  0  0  0  0  0  0  0  0  0  0
   67.3822   40.4628   -7.1210 C   0  0  0  0  0  0  0  0  0  0  0  0
   66.2741   40.3387   -6.2905 C   0  0  0  0  0  0  0  0  0  0  0  0
   66.3717   39.6152   -5.1059 C   0  0  0  0  0  0  0  0  0  0  0  0
   67.0932   42.6999   -8.3070 O   0  0  0  0  0  0  0  0  0  0  0  0
   68.3779   40.9490   -9.4533 O   0  0  0  0  0  0  0  0  0  0  0  0
   67.2424   41.3143   -8.6539 S   0  0  0  0  0  0  0  0  0  0  0  0
   65.9142   40.8090   -9.3635 N   0  0  0  0  0  0  0  0  0  0  0  0
   65.1064   41.0677   -8.7969 H   0  0  0  0  0  0  0  0  0  0  0  0
   65.9476   39.7945   -9.4647 H   0  0  0  0  0  0  0  0  0  0  0  0
   67.8965   35.9425   -0.0015 C   0  0  0  0  0  0  0  0  0  0  0  0
   68.4216   34.8402    0.0022 O   0  0  0  0  0  0  0  0  0  0  0  0
   66.0094   36.2543    1.6066 C   0  0  0  0  0  0  0  0  0  0  0  0
   65.4818   36.7865    2.7779 C   0  0  0  0  0  0  0  0  0  0  0  0
   66.2752   37.5803    3.5995 C   0  0  0  0  0  0  0  0  0  0  0  0
   65.7584   38.1021    4.7494 N   0  0  0  0  0  0  0  0  0  0  0  0
   67.5952   37.8414    3.2499 C   0  0  0  0  0  0  0  0  0  0  0  0
   68.1226   37.3092    2.0776 C   0  0  0  0  0  0  0  0  0  0  0  0
   67.3291   36.5164    1.2571 C   0  0  0  0  0  0  0  0  0  0  0  0
   66.3200   38.6639    5.3309 H   0  0  0  0  0  0  0  0  0  0  0  0
   64.8239   37.9168    4.9976 H   0  0  0  0  0  0  0  0  0  0  0  0
 24 23  1  0  0  0
 23 25  2  0  0  0
 23 22  1  0  0  0
 25 26  1  0  0  0
 22 21  2  0  0  0
 26 27  2  0  0  0
 21 27  1  0  0  0
 27 19  1  0  0  0
 20 19  2  0  0  0
 19  1  1  0  0  0
  1  2  2  0  0  0
  1  4  1  0  0  0
  2  3  1  0  0  0
  4  5  2  0  0  0
  3  6  2  0  0  0
  5  6  1  0  0  0
  6  7  1  0  0  0
  7  8  2  0  0  0
  7 12  1  0  0  0
  8  9  1  0  0  0
 12 11  2  0  0  0
  9 10  2  0  0  0
 11 10  1  0  0  0
 10 15  1  0  0  0
 15 13  2  0  0  0
 15 16  1  0  0  0
 15 14  2  0  0  0
 24 28  1  0  0  0
 24 29  1  0  0  0
 16 17  1  0  0  0
 16 18  1  0  0  0
M  END
> <minimizedAffinity>
-7.89017

$$$$
5CJF_520_A_302


 29 31  0  0  0  0  0  0  0  0999 V2000
   69.3118   35.9273   -1.0233 C   0  0  0  0  0  0  0  0  0  0  0  0
   69.1938   35.4439   -2.3212 C   0  0  0  0  0  0  0  0  0  0  0  0
   68.9304   36.3195   -3.3694 C   0  0  0  0  0  0  0  0  0  0  0  0
   69.1688   37.2886   -0.7752 C   0  0  0  0  0  0  0  0  0  0  0  0
   68.9057   38.1635   -1.8228 C   0  0  0  0  0  0  0  0  0  0  0  0
   68.7838   37.6789   -3.1218 C   0  0  0  0  0  0  0  0  0  0  0  0
   68.4858   38.5525   -4.1609 C   0  0  0  0  0  0  0  0  0  0  0  0
   69.3909   38.7229   -5.2041 C   0  0  0  0  0  0  0  0  0  0  0  0
   69.0696   39.5453   -6.2784 C   0  0  0  0  0  0  0  0  0  0  0  0
   67.8435   40.1996   -6.3093 C   0  0  0  0  0  0  0  0  0  0  0  0
   66.9422   40.0391   -5.2630 C   0  0  0  0  0  0  0  0  0  0  0  0
   67.2650   39.2156   -4.1886 C   0  0  0  0  0  0  0  0  0  0  0  0
   65.9735   41.2307   -7.7003 O   0  0  0  0  0  0  0  0  0  0  0  0
   68.1158   42.4259   -7.5888 O   0  0  0  0  0  0  0  0  0  0  0  0
   67.4088   41.1813   -7.7028 S   0  0  0  0  0  0  0  0  0  0  0  0
   67.9014   40.4128   -9.0027 N   0  0  0  0  0  0  0  0  0  0  0  0
   67.4001   39.5284   -9.0853 H   0  0  0  0  0  0  0  0  0  0  0  0
   68.9025   40.2309   -8.9313 H   0  0  0  0  0  0  0  0  0  0  0  0
   69.5868   34.9891    0.1063 C   0  0  0  0  0  0  0  0  0  0  0  0
   68.7428   34.1813    0.4615 O   0  0  0  0  0  0  0  0  0  0  0  0
   72.0529   35.3912    0.0754 C   0  0  0  0  0  0  0  0  0  0  0  0
   73.2858   35.4522    0.7157 C   0  0  0  0  0  0  0  0  0  0  0  0
   73.3770   35.1755    2.0756 C   0  0  0  0  0  0  0  0  0  0  0  0
   74.5862   35.2360    2.7046 N   0  0  0  0  0  0  0  0  0  0  0  0
   72.2360   34.8379    2.7947 C   0  0  0  0  0  0  0  0  0  0  0  0
   71.0027   34.7764    2.1537 C   0  0  0  0  0  0  0  0  0  0  0  0
   70.9125   35.0529    0.7948 C   0  0  0  0  0  0  0  0  0  0  0  0
   74.6507   35.0401    3.6672 H   0  0  0  0  0  0  0  0  0  0  0  0
   75.3943   35.4756    2.1958 H   0  0  0  0  0  0  0  0  0  0  0  0
 24 23  1  0  0  0
 23 25  2  0  0  0
 23 22  1  0  0  0
 25 26  1  0  0  0
 22 21  2  0  0  0
 26 27  2  0  0  0
 21 27  1  0  0  0
 27 19  1  0  0  0
 20 19  2  0  0  0
 19  1  1  0  0  0
  1  2  2  0  0  0
  1  4  1  0  0  0
  2  3  1  0  0  0
  4  5  2  0  0  0
  3  6  2  0  0  0
  5  6  1  0  0  0
  6  7  1  0  0  0
  7  8  2  0  0  0
  7 12  1  0  0  0
  8  9  1  0  0  0
 12 11  2  0  0  0
  9 10  2  0  0  0
 11 10  1  0  0  0
 10 15  1  0  0  0
 15 13  2  0  0  0
 15 16  1  0  0  0
 15 14  2  0  0  0
 24 28  1  0  0  0
 24 29  1  0  0  0
 16 17  1  0  0  0
 16 18  1  0  0  0
M  END
> <minimizedAffinity>
-7.77056

$$$$
5CJF_520_A_302


 29 31  0  0  0  0  0  0  0  0999 V2000
   69.3385   35.9393   -1.0491 C   0  0  0  0  0  0  0  0  0  0  0  0
   69.3837   35.4720   -2.3575 C   0  0  0  0  0  0  0  0  0  0  0  0
   69.1419   36.3410   -3.4163 C   0  0  0  0  0  0  0  0  0  0  0  0
   69.0536   37.2782   -0.8010 C   0  0  0  0  0  0  0  0  0  0  0  0
   68.8120   38.1465   -1.8592 C   0  0  0  0  0  0  0  0  0  0  0  0
   68.8536   37.6776   -3.1690 C   0  0  0  0  0  0  0  0  0  0  0  0
   68.5769   38.5415   -4.2221 C   0  0  0  0  0  0  0  0  0  0  0  0
   69.5005   38.6982   -5.2510 C   0  0  0  0  0  0  0  0  0  0  0  0
   69.2008   39.5105   -6.3391 C   0  0  0  0  0  0  0  0  0  0  0  0
   67.9778   40.1685   -6.3981 C   0  0  0  0  0  0  0  0  0  0  0  0
   67.0578   40.0216   -5.3661 C   0  0  0  0  0  0  0  0  0  0  0  0
   67.3589   39.2083   -4.2779 C   0  0  0  0  0  0  0  0  0  0  0  0
   68.0433   40.3839   -8.9366 O   0  0  0  0  0  0  0  0  0  0  0  0
   66.1648   41.4220   -7.7433 O   0  0  0  0  0  0  0  0  0  0  0  0
   67.5707   41.1371   -7.8089 S   0  0  0  0  0  0  0  0  0  0  0  0
   68.3884   42.4953   -7.7099 N   0  0  0  0  0  0  0  0  0  0  0  0
   69.3875   42.2948   -7.7564 H   0  0  0  0  0  0  0  0  0  0  0  0
   68.1751   42.9569   -6.8257 H   0  0  0  0  0  0  0  0  0  0  0  0
   69.5899   35.0074    0.0912 C   0  0  0  0  0  0  0  0  0  0  0  0
   68.7338   34.2103    0.4413 O   0  0  0  0  0  0  0  0  0  0  0  0
   70.9794   34.7817    2.1557 C   0  0  0  0  0  0  0  0  0  0  0  0
   72.2044   34.8331    2.8118 C   0  0  0  0  0  0  0  0  0  0  0  0
   73.3564   35.1665    2.1075 C   0  0  0  0  0  0  0  0  0  0  0  0
   74.5588   35.2162    2.7505 N   0  0  0  0  0  0  0  0  0  0  0  0
   73.2834   35.4484    0.7481 C   0  0  0  0  0  0  0  0  0  0  0  0
   72.0576   35.3975    0.0920 C   0  0  0  0  0  0  0  0  0  0  0  0
   70.9069   35.0644    0.7966 C   0  0  0  0  0  0  0  0  0  0  0  0
   75.3742   35.4523    2.2519 H   0  0  0  0  0  0  0  0  0  0  0  0
   74.6109   35.0161    3.7130 H   0  0  0  0  0  0  0  0  0  0  0  0
 24 23  1  0  0  0
 23 25  2  0  0  0
 23 22  1  0  0  0
 25 26  1  0  0  0
 22 21  2  0  0  0
 26 27  2  0  0  0
 21 27  1  0  0  0
 27 19  1  0  0  0
 20 19  2  0  0  0
 19  1  1  0  0  0
  1  2  2  0  0  0
  1  4  1  0  0  0
  2  3  1  0  0  0
  4  5  2  0  0  0
  3  6  2  0  0  0
  5  6  1  0  0  0
  6  7  1  0  0  0
  7  8  2  0  0  0
  7 12  1  0  0  0
  8  9  1  0  0  0
 12 11  2  0  0  0
  9 10  2  0  0  0
 11 10  1  0  0  0
 10 15  1  0  0  0
 15 13  2  0  0  0
 15 16  1  0  0  0
 15 14  2  0  0  0
 24 28  1  0  0  0
 24 29  1  0  0  0
 16 17  1  0  0  0
 16 18  1  0  0  0
M  END
> <minimizedAffinity>
-7.73358

$$$$
5CJF_520_A_302


 29 31  0  0  0  0  0  0  0  0999 V2000
   72.0235   34.8401   -2.1638 C   0  0  0  0  0  0  0  0  0  0  0  0
   72.5925   35.2960   -0.9804 C   0  0  0  0  0  0  0  0  0  0  0  0
   71.7818   35.6229    0.1016 C   0  0  0  0  0  0  0  0  0  0  0  0
   70.6422   34.7088   -2.2631 C   0  0  0  0  0  0  0  0  0  0  0  0
   69.8322   35.0354   -1.1818 C   0  0  0  0  0  0  0  0  0  0  0  0
   70.4017   35.4956    0.0019 C   0  0  0  0  0  0  0  0  0  0  0  0
   69.5858   35.8543    1.0684 C   0  0  0  0  0  0  0  0  0  0  0  0
   70.1548   36.2074    2.2882 C   0  0  0  0  0  0  0  0  0  0  0  0
   69.3468   36.6300    3.3381 C   0  0  0  0  0  0  0  0  0  0  0  0
   67.9687   36.6978    3.1695 C   0  0  0  0  0  0  0  0  0  0  0  0
   67.3973   36.3354    1.9550 C   0  0  0  0  0  0  0  0  0  0  0  0
   68.2070   35.9129    0.9052 C   0  0  0  0  0  0  0  0  0  0  0  0
   67.8439   38.0149    5.3477 O   0  0  0  0  0  0  0  0  0  0  0  0
   65.8790   38.0404    3.8750 O   0  0  0  0  0  0  0  0  0  0  0  0
   66.9548   37.3017    4.4740 S   0  0  0  0  0  0  0  0  0  0  0  0
   66.3653   36.0439    5.2443 N   0  0  0  0  0  0  0  0  0  0  0  0
   67.1282   35.5180    5.6705 H   0  0  0  0  0  0  0  0  0  0  0  0
   65.8658   35.4456    4.5863 H   0  0  0  0  0  0  0  0  0  0  0  0
   72.8904   34.4954   -3.3308 C   0  0  0  0  0  0  0  0  0  0  0  0
   73.3146   33.3595   -3.4745 O   0  0  0  0  0  0  0  0  0  0  0  0
   74.5158   36.0882   -4.3630 C   0  0  0  0  0  0  0  0  0  0  0  0
   74.8320   37.0795   -5.2854 C   0  0  0  0  0  0  0  0  0  0  0  0
   73.8613   37.5440   -6.1665 C   0  0  0  0  0  0  0  0  0  0  0  0
   74.1712   38.5161   -7.0723 N   0  0  0  0  0  0  0  0  0  0  0  0
   72.5753   37.0174   -6.1251 C   0  0  0  0  0  0  0  0  0  0  0  0
   72.2590   36.0259   -5.2017 C   0  0  0  0  0  0  0  0  0  0  0  0
   73.2295   35.5625   -4.3215 C   0  0  0  0  0  0  0  0  0  0  0  0
   73.4840   38.8449   -7.6960 H   0  0  0  0  0  0  0  0  0  0  0  0
   75.0819   38.8888   -7.1023 H   0  0  0  0  0  0  0  0  0  0  0  0
 24 23  1  0  0  0
 23 25  2  0  0  0
 23 22  1  0  0  0
 25 26  1  0  0  0
 22 21  2  0  0  0
 26 27  2  0  0  0
 21 27  1  0  0  0
 27 19  1  0  0  0
 20 19  2  0  0  0
 19  1  1  0  0  0
  1  2  2  0  0  0
  1  4  1  0  0  0
  2  3  1  0  0  0
  4  5  2  0  0  0
  3  6  2  0  0  0
  5  6  1  0  0  0
  6  7  1  0  0  0
  7  8  2  0  0  0
  7 12  1  0  0  0
  8  9  1  0  0  0
 12 11  2  0  0  0
  9 10  2  0  0  0
 11 10  1  0  0  0
 10 15  1  0  0  0
 15 13  2  0  0  0
 15 16  1  0  0  0
 15 14  2  0  0  0
 24 28  1  0  0  0
 24 29  1  0  0  0
 16 17  1  0  0  0
 16 18  1  0  0  0
M  END
> <minimizedAffinity>
-7.60677

$$$$
5CJF_520_A_302


 29 31  0  0  0  0  0  0  0  0999 V2000
   69.3713   36.0303   -0.3933 C   0  0  0  0  0  0  0  0  0  0  0  0
   70.6530   35.7189   -0.8319 C   0  0  0  0  0  0  0  0  0  0  0  0
   71.1950   36.3829   -1.9274 C   0  0  0  0  0  0  0  0  0  0  0  0
   68.6328   37.0091   -1.0504 C   0  0  0  0  0  0  0  0  0  0  0  0
   69.1744   37.6727   -2.1451 C   0  0  0  0  0  0  0  0  0  0  0  0
   70.4564   37.3581   -2.5865 C   0  0  0  0  0  0  0  0  0  0  0  0
   70.9804   37.9992   -3.7028 C   0  0  0  0  0  0  0  0  0  0  0  0
   70.1243   38.5706   -4.6393 C   0  0  0  0  0  0  0  0  0  0  0  0
   70.6438   39.2696   -5.7235 C   0  0  0  0  0  0  0  0  0  0  0  0
   72.0200   39.3959   -5.8730 C   0  0  0  0  0  0  0  0  0  0  0  0
   72.8772   38.8168   -4.9441 C   0  0  0  0  0  0  0  0  0  0  0  0
   72.3560   38.1178   -3.8596 C   0  0  0  0  0  0  0  0  0  0  0  0
   73.5329   41.3165   -6.5922 O   0  0  0  0  0  0  0  0  0  0  0  0
   73.2691   39.4224   -8.1327 O   0  0  0  0  0  0  0  0  0  0  0  0
   72.6738   40.3419   -7.2042 S   0  0  0  0  0  0  0  0  0  0  0  0
   71.4584   41.0859   -7.9057 N   0  0  0  0  0  0  0  0  0  0  0  0
   71.0343   41.7396   -7.2475 H   0  0  0  0  0  0  0  0  0  0  0  0
   70.7632   40.3996   -8.1989 H   0  0  0  0  0  0  0  0  0  0  0  0
   68.7827   35.3138    0.7781 C   0  0  0  0  0  0  0  0  0  0  0  0
   68.9835   34.1204    0.9403 O   0  0  0  0  0  0  0  0  0  0  0  0
   68.5477   36.9540    2.6487 C   0  0  0  0  0  0  0  0  0  0  0  0
   67.7688   37.6687    3.5520 C   0  0  0  0  0  0  0  0  0  0  0  0
   66.3870   37.5102    3.5556 C   0  0  0  0  0  0  0  0  0  0  0  0
   65.6221   38.2120    4.4411 N   0  0  0  0  0  0  0  0  0  0  0  0
   65.7847   36.6376    2.6565 C   0  0  0  0  0  0  0  0  0  0  0  0
   66.5644   35.9221    1.7531 C   0  0  0  0  0  0  0  0  0  0  0  0
   67.9450   36.0809    1.7503 C   0  0  0  0  0  0  0  0  0  0  0  0
   64.6441   38.0998    4.4436 H   0  0  0  0  0  0  0  0  0  0  0  0
   66.0483   38.8305    5.0775 H   0  0  0  0  0  0  0  0  0  0  0  0
 24 23  1  0  0  0
 23 25  2  0  0  0
 23 22  1  0  0  0
 25 26  1  0  0  0
 22 21  2  0  0  0
 26 27  2  0  0  0
 21 27  1  0  0  0
 27 19  1  0  0  0
 20 19  2  0  0  0
 19  1  1  0  0  0
  1  2  2  0  0  0
  1  4  1  0  0  0
  2  3  1  0  0  0
  4  5  2  0  0  0
  3  6  2  0  0  0
  5  6  1  0  0  0
  6  7  1  0  0  0
  7  8  2  0  0  0
  7 12  1  0  0  0
  8  9  1  0  0  0
 12 11  2  0  0  0
  9 10  2  0  0  0
 11 10  1  0  0  0
 10 15  1  0  0  0
 15 13  2  0  0  0
 15 16  1  0  0  0
 15 14  2  0  0  0
 24 28  1  0  0  0
 24 29  1  0  0  0
 16 17  1  0  0  0
 16 18  1  0  0  0
M  END
> <minimizedAffinity>
-7.31256

$$$$
5CJF_520_A_302


 29 31  0  0  0  0  0  0  0  0999 V2000
   67.8627   36.1045   -0.7196 C   0  0  0  0  0  0  0  0  0  0  0  0
   68.6463   35.0989   -1.2734 C   0  0  0  0  0  0  0  0  0  0  0  0
   69.5570   35.4004   -2.2807 C   0  0  0  0  0  0  0  0  0  0  0  0
   67.9928   37.4133   -1.1727 C   0  0  0  0  0  0  0  0  0  0  0  0
   68.9029   37.7145   -2.1792 C   0  0  0  0  0  0  0  0  0  0  0  0
   69.6849   36.7068   -2.7363 C   0  0  0  0  0  0  0  0  0  0  0  0
   70.5682   37.0065   -3.7667 C   0  0  0  0  0  0  0  0  0  0  0  0
   70.9054   36.0282   -4.6970 C   0  0  0  0  0  0  0  0  0  0  0  0
   71.7369   36.3406   -5.7669 C   0  0  0  0  0  0  0  0  0  0  0  0
   72.2337   37.6314   -5.9061 C   0  0  0  0  0  0  0  0  0  0  0  0
   71.9066   38.6077   -4.9718 C   0  0  0  0  0  0  0  0  0  0  0  0
   71.0742   38.2937   -3.9018 C   0  0  0  0  0  0  0  0  0  0  0  0
   74.4786   37.3750   -7.0848 O   0  0  0  0  0  0  0  0  0  0  0  0
   72.4802   37.6942   -8.4756 O   0  0  0  0  0  0  0  0  0  0  0  0
   73.2257   38.0433   -7.2991 S   0  0  0  0  0  0  0  0  0  0  0  0
   73.4616   39.6139   -7.2719 N   0  0  0  0  0  0  0  0  0  0  0  0
   73.9911   39.8637   -6.4367 H   0  0  0  0  0  0  0  0  0  0  0  0
   72.5611   40.0928   -7.2594 H   0  0  0  0  0  0  0  0  0  0  0  0
   66.8779   35.7834    0.3570 C   0  0  0  0  0  0  0  0  0  0  0  0
   65.8814   35.1226    0.1093 O   0  0  0  0  0  0  0  0  0  0  0  0
   68.4363   36.4638    2.1880 C   0  0  0  0  0  0  0  0  0  0  0  0
   68.6729   36.9292    3.4768 C   0  0  0  0  0  0  0  0  0  0  0  0
   67.6040   37.2133    4.3201 C   0  0  0  0  0  0  0  0  0  0  0  0
   67.8354   37.6707    5.5845 N   0  0  0  0  0  0  0  0  0  0  0  0
   66.2995   37.0321    3.8747 C   0  0  0  0  0  0  0  0  0  0  0  0
   66.0631   36.5659    2.5853 C   0  0  0  0  0  0  0  0  0  0  0  0
   67.1318   36.2821    1.7434 C   0  0  0  0  0  0  0  0  0  0  0  0
   67.0787   37.8718    6.1814 H   0  0  0  0  0  0  0  0  0  0  0  0
   68.7590   37.7998    5.9000 H   0  0  0  0  0  0  0  0  0  0  0  0
 24 23  1  0  0  0
 23 25  2  0  0  0
 23 22  1  0  0  0
 25 26  1  0  0  0
 22 21  2  0  0  0
 26 27  2  0  0  0
 21 27  1  0  0  0
 27 19  1  0  0  0
 20 19  2  0  0  0
 19  1  1  0  0  0
  1  2  2  0  0  0
  1  4  1  0  0  0
  2  3  1  0  0  0
  4  5  2  0  0  0
  3  6  2  0  0  0
  5  6  1  0  0  0
  6  7  1  0  0  0
  7  8  2  0  0  0
  7 12  1  0  0  0
  8  9  1  0  0  0
 12 11  2  0  0  0
  9 10  2  0  0  0
 11 10  1  0  0  0
 10 15  1  0  0  0
 15 13  2  0  0  0
 15 16  1  0  0  0
 15 14  2  0  0  0
 24 28  1  0  0  0
 24 29  1  0  0  0
 16 17  1  0  0  0
 16 18  1  0  0  0
M  END
> <minimizedAffinity>
-6.82995

$$$$
