3SUU_OGN_A_2000


 30 31  0  0  0  0  0  0  0  0999 V2000
   36.2088   18.6284  -16.1620 C   0  0  0  0  0  0  0  0  0  0  0  0
   35.2742   18.0464  -17.2544 C   0  0  0  0  0  0  0  0  0  0  0  0
   34.4473   16.8626  -16.7130 C   0  0  0  0  0  0  0  0  0  0  0  0
   34.9927   16.3320  -15.3792 C   0  0  0  0  0  0  0  0  0  0  0  0
   34.9434   17.4698  -14.3478 C   0  0  0  0  0  0  0  0  0  0  0  0
   34.4605   15.8289  -17.6899 O   0  0  0  0  0  0  0  0  0  0  0  0
   36.3419   15.8732  -15.5660 O   0  0  0  0  0  0  0  0  0  0  0  0
   35.7523   18.6119  -14.7718 O   0  0  0  0  0  0  0  0  0  0  0  0
   36.9240   19.8575  -16.4482 N   0  0  0  0  0  0  0  0  0  0  0  0
   35.3738   15.5400  -17.8426 H   0  0  0  0  0  0  0  0  0  0  0  0
   36.8916   16.6064  -15.8840 H   0  0  0  0  0  0  0  0  0  0  0  0
   33.4190   19.6911  -17.2719 C   0  0  0  0  0  0  0  0  0  0  0  0
   32.5132   20.5271  -18.1659 C   0  0  0  0  0  0  0  0  0  0  0  0
   34.3413   18.9823  -17.9182 N   0  0  0  0  0  0  0  0  0  0  0  0
   33.2842   19.6846  -16.0551 O   0  0  0  0  0  0  0  0  0  0  0  0
   34.4064   19.0870  -18.8950 H   0  0  0  0  0  0  0  0  0  0  0  0
   35.4225   17.0006  -12.9795 C   0  0  0  0  0  0  0  0  0  0  0  0
   35.2761   18.0739  -12.0490 O   0  0  0  0  0  0  0  0  0  0  0  0
   35.8034   18.8324  -12.3447 H   0  0  0  0  0  0  0  0  0  0  0  0
   37.8232   19.9304  -15.3069 O   0  0  0  0  0  0  0  0  0  0  0  0
   38.6710   18.1999  -14.1900 N   0  0  0  0  0  0  0  0  0  0  0  0
   38.7738   18.9764  -15.2707 C   0  0  0  0  0  0  0  0  0  0  0  0
   39.6316   18.8729  -16.1471 O   0  0  0  0  0  0  0  0  0  0  0  0
   37.9139   18.4036  -13.5946 H   0  0  0  0  0  0  0  0  0  0  0  0
   39.4494   17.1847  -13.8007 C   0  0  0  0  0  0  0  0  0  0  0  0
   39.0622   15.8924  -14.1584 C   0  0  0  0  0  0  0  0  0  0  0  0
   39.8177   14.7952  -13.7492 C   0  0  0  0  0  0  0  0  0  0  0  0
   40.9588   15.0066  -12.9766 C   0  0  0  0  0  0  0  0  0  0  0  0
   41.3473   16.2914  -12.6046 C   0  0  0  0  0  0  0  0  0  0  0  0
   40.5835   17.3860  -13.0119 C   0  0  0  0  0  0  0  0  0  0  0  0
  1  2  1  0  0  0
  1  8  1  0  0  0
  1  9  2  0  0  0
  2  3  1  0  0  0
  2 14  1  0  0  0
  3  4  1  0  0  0
  3  6  1  0  0  0
  4  5  1  0  0  0
  4  7  1  0  0  0
  5 17  1  0  0  0
  5  8  1  0  0  0
 17 18  1  0  0  0
 12 13  1  0  0  0
 12 14  1  0  0  0
 12 15  2  0  0  0
 21 22  1  0  0  0
 21 25  1  0  0  0
 22 20  1  0  0  0
 22 23  2  0  0  0
 20  9  1  0  0  0
 25 26  2  0  0  0
 25 30  1  0  0  0
 26 27  1  0  0  0
 27 28  2  0  0  0
 28 29  1  0  0  0
 29 30  2  0  0  0
 14 16  1  0  0  0
  6 10  1  0  0  0
  7 11  1  0  0  0
 18 19  1  0  0  0
 21 24  1  0  0  0
M  END
> <minimizedAffinity>
-9.52183

$$$$
3SUU_OGN_A_2000


 30 31  0  0  0  0  0  0  0  0999 V2000
   36.2833   18.6545  -16.0887 C   0  0  0  0  0  0  0  0  0  0  0  0
   35.3570   18.0864  -17.1954 C   0  0  0  0  0  0  0  0  0  0  0  0
   34.5410   16.8831  -16.6811 C   0  0  0  0  0  0  0  0  0  0  0  0
   35.0889   16.3299  -15.3575 C   0  0  0  0  0  0  0  0  0  0  0  0
   35.0258   17.4451  -14.3024 C   0  0  0  0  0  0  0  0  0  0  0  0
   34.5668   15.8704  -17.6796 O   0  0  0  0  0  0  0  0  0  0  0  0
   36.4431   15.8888  -15.5508 O   0  0  0  0  0  0  0  0  0  0  0  0
   35.8240   18.6040  -14.7003 O   0  0  0  0  0  0  0  0  0  0  0  0
   36.9866   19.8965  -16.3471 N   0  0  0  0  0  0  0  0  0  0  0  0
   35.4833   15.5940  -17.8362 H   0  0  0  0  0  0  0  0  0  0  0  0
   36.9860   16.6340  -15.8519 H   0  0  0  0  0  0  0  0  0  0  0  0
   33.4348   19.6523  -17.1962 C   0  0  0  0  0  0  0  0  0  0  0  0
   32.5360   20.5096  -18.0770 C   0  0  0  0  0  0  0  0  0  0  0  0
   34.4161   19.0266  -17.8415 N   0  0  0  0  0  0  0  0  0  0  0  0
   33.2440   19.5581  -15.9906 O   0  0  0  0  0  0  0  0  0  0  0  0
   34.5218   19.1996  -18.8049 H   0  0  0  0  0  0  0  0  0  0  0  0
   35.5068   16.9519  -12.9432 C   0  0  0  0  0  0  0  0  0  0  0  0
   35.3452   18.0028  -11.9900 O   0  0  0  0  0  0  0  0  0  0  0  0
   35.8643   18.7738  -12.2677 H   0  0  0  0  0  0  0  0  0  0  0  0
   37.8825   19.9543  -15.2025 O   0  0  0  0  0  0  0  0  0  0  0  0
   39.0583   21.5955  -16.1432 N   0  0  0  0  0  0  0  0  0  0  0  0
   39.1086   20.4472  -15.4648 C   0  0  0  0  0  0  0  0  0  0  0  0
   40.1362   19.8681  -15.1138 O   0  0  0  0  0  0  0  0  0  0  0  0
   38.1536   21.9362  -16.3295 H   0  0  0  0  0  0  0  0  0  0  0  0
   40.0612   22.3492  -16.6061 C   0  0  0  0  0  0  0  0  0  0  0  0
   40.4901   23.4183  -15.8181 C   0  0  0  0  0  0  0  0  0  0  0  0
   41.5080   24.2571  -16.2679 C   0  0  0  0  0  0  0  0  0  0  0  0
   42.0858   24.0161  -17.5136 C   0  0  0  0  0  0  0  0  0  0  0  0
   41.6570   22.9589  -18.3126 C   0  0  0  0  0  0  0  0  0  0  0  0
   40.6331   22.1258  -17.8599 C   0  0  0  0  0  0  0  0  0  0  0  0
  1  2  1  0  0  0
  1  8  1  0  0  0
  1  9  2  0  0  0
  2  3  1  0  0  0
  2 14  1  0  0  0
  3  4  1  0  0  0
  3  6  1  0  0  0
  4  5  1  0  0  0
  4  7  1  0  0  0
  5 17  1  0  0  0
  5  8  1  0  0  0
 17 18  1  0  0  0
 12 13  1  0  0  0
 12 14  1  0  0  0
 12 15  2  0  0  0
 21 22  1  0  0  0
 21 25  1  0  0  0
 22 20  1  0  0  0
 22 23  2  0  0  0
 20  9  1  0  0  0
 25 26  2  0  0  0
 25 30  1  0  0  0
 26 27  1  0  0  0
 27 28  2  0  0  0
 28 29  1  0  0  0
 29 30  2  0  0  0
 14 16  1  0  0  0
  6 10  1  0  0  0
  7 11  1  0  0  0
 18 19  1  0  0  0
 21 24  1  0  0  0
M  END
> <minimizedAffinity>
-8.85303

$$$$
3SUU_OGN_A_2000


 30 31  0  0  0  0  0  0  0  0999 V2000
   41.1351   16.8032  -13.9476 C   0  0  0  0  0  0  0  0  0  0  0  0
   41.9925   15.6311  -13.4029 C   0  0  0  0  0  0  0  0  0  0  0  0
   43.2395   15.3937  -14.2787 C   0  0  0  0  0  0  0  0  0  0  0  0
   43.1449   16.1092  -15.6341 C   0  0  0  0  0  0  0  0  0  0  0  0
   43.0124   17.6184  -15.3780 C   0  0  0  0  0  0  0  0  0  0  0  0
   43.3819   13.9924  -14.4770 O   0  0  0  0  0  0  0  0  0  0  0  0
   42.0042   15.6137  -16.3547 O   0  0  0  0  0  0  0  0  0  0  0  0
   41.8169   17.9252  -14.5937 O   0  0  0  0  0  0  0  0  0  0  0  0
   40.0237   17.2771  -13.1450 N   0  0  0  0  0  0  0  0  0  0  0  0
   42.5981   13.6492  -14.9337 H   0  0  0  0  0  0  0  0  0  0  0  0
   41.2001   15.7726  -15.8360 H   0  0  0  0  0  0  0  0  0  0  0  0
   42.5634   14.6578  -11.1952 C   0  0  0  0  0  0  0  0  0  0  0  0
   42.9571   14.9859   -9.7613 C   0  0  0  0  0  0  0  0  0  0  0  0
   42.4387   15.7137  -11.9955 N   0  0  0  0  0  0  0  0  0  0  0  0
   42.3759   13.5033  -11.5569 O   0  0  0  0  0  0  0  0  0  0  0  0
   42.6561   16.6014  -11.6293 H   0  0  0  0  0  0  0  0  0  0  0  0
   42.9660   18.4017  -16.6842 C   0  0  0  0  0  0  0  0  0  0  0  0
   43.6739   17.6686  -17.6845 O   0  0  0  0  0  0  0  0  0  0  0  0
   44.5938   17.5436  -17.4034 H   0  0  0  0  0  0  0  0  0  0  0  0
   39.3716   18.1836  -14.0772 O   0  0  0  0  0  0  0  0  0  0  0  0
   37.7095   18.3207  -15.5535 N   0  0  0  0  0  0  0  0  0  0  0  0
   38.0839   17.8927  -14.3460 C   0  0  0  0  0  0  0  0  0  0  0  0
   37.3620   17.3086  -13.5383 O   0  0  0  0  0  0  0  0  0  0  0  0
   38.4158   18.7535  -16.0855 H   0  0  0  0  0  0  0  0  0  0  0  0
   36.5119   18.2456  -16.1438 C   0  0  0  0  0  0  0  0  0  0  0  0
   35.6778   19.3621  -16.0696 C   0  0  0  0  0  0  0  0  0  0  0  0
   34.4055   19.3261  -16.6371 C   0  0  0  0  0  0  0  0  0  0  0  0
   33.9785   18.1614  -17.2734 C   0  0  0  0  0  0  0  0  0  0  0  0
   34.7989   17.0379  -17.3428 C   0  0  0  0  0  0  0  0  0  0  0  0
   36.0696   17.0775  -16.7673 C   0  0  0  0  0  0  0  0  0  0  0  0
  1  2  1  0  0  0
  1  8  1  0  0  0
  1  9  2  0  0  0
  2  3  1  0  0  0
  2 14  1  0  0  0
  3  4  1  0  0  0
  3  6  1  0  0  0
  4  5  1  0  0  0
  4  7  1  0  0  0
  5 17  1  0  0  0
  5  8  1  0  0  0
 17 18  1  0  0  0
 12 13  1  0  0  0
 12 14  1  0  0  0
 12 15  2  0  0  0
 21 22  1  0  0  0
 21 25  1  0  0  0
 22 20  1  0  0  0
 22 23  2  0  0  0
 20  9  1  0  0  0
 25 26  2  0  0  0
 25 30  1  0  0  0
 26 27  1  0  0  0
 27 28  2  0  0  0
 28 29  1  0  0  0
 29 30  2  0  0  0
 14 16  1  0  0  0
  6 10  1  0  0  0
  7 11  1  0  0  0
 18 19  1  0  0  0
 21 24  1  0  0  0
M  END
> <minimizedAffinity>
-8.17331

$$$$
3SUU_OGN_A_2000


 30 31  0  0  0  0  0  0  0  0999 V2000
   41.2947   16.7411  -13.1062 C   0  0  0  0  0  0  0  0  0  0  0  0
   42.0616   16.3890  -11.8049 C   0  0  0  0  0  0  0  0  0  0  0  0
   43.3811   15.6526  -12.1130 C   0  0  0  0  0  0  0  0  0  0  0  0
   43.4395   15.1414  -13.5598 C   0  0  0  0  0  0  0  0  0  0  0  0
   43.3250   16.3471  -14.5053 C   0  0  0  0  0  0  0  0  0  0  0  0
   43.5030   14.5631  -11.2066 O   0  0  0  0  0  0  0  0  0  0  0  0
   42.3614   14.2172  -13.7815 O   0  0  0  0  0  0  0  0  0  0  0  0
   42.0676   17.0664  -14.3054 O   0  0  0  0  0  0  0  0  0  0  0  0
   40.1239   17.5919  -13.0091 N   0  0  0  0  0  0  0  0  0  0  0  0
   42.7582   13.9542  -11.3310 H   0  0  0  0  0  0  0  0  0  0  0  0
   41.5152   14.6623  -13.6181 H   0  0  0  0  0  0  0  0  0  0  0  0
   42.4975   17.3502   -9.5614 C   0  0  0  0  0  0  0  0  0  0  0  0
   42.7337   18.6430   -8.7924 C   0  0  0  0  0  0  0  0  0  0  0  0
   42.3702   17.4989  -10.8777 N   0  0  0  0  0  0  0  0  0  0  0  0
   42.4281   16.2707   -8.9882 O   0  0  0  0  0  0  0  0  0  0  0  0
   42.4882   18.4000  -11.2561 H   0  0  0  0  0  0  0  0  0  0  0  0
   43.4284   15.9207  -15.9646 C   0  0  0  0  0  0  0  0  0  0  0  0
   42.1158   15.6511  -16.4582 O   0  0  0  0  0  0  0  0  0  0  0  0
   41.7115   14.9436  -15.9320 H   0  0  0  0  0  0  0  0  0  0  0  0
   39.5917   17.4909  -14.3592 O   0  0  0  0  0  0  0  0  0  0  0  0
   37.8276   17.8643  -15.6666 N   0  0  0  0  0  0  0  0  0  0  0  0
   38.2477   17.5304  -14.4446 C   0  0  0  0  0  0  0  0  0  0  0  0
   37.5228   17.2922  -13.4791 O   0  0  0  0  0  0  0  0  0  0  0  0
   38.5381   18.0033  -16.3338 H   0  0  0  0  0  0  0  0  0  0  0  0
   36.5794   18.0371  -16.1142 C   0  0  0  0  0  0  0  0  0  0  0  0
   35.9588   16.9586  -16.7464 C   0  0  0  0  0  0  0  0  0  0  0  0
   34.6716   17.0944  -17.2629 C   0  0  0  0  0  0  0  0  0  0  0  0
   34.0176   18.3198  -17.1431 C   0  0  0  0  0  0  0  0  0  0  0  0
   34.6326   19.4055  -16.5242 C   0  0  0  0  0  0  0  0  0  0  0  0
   35.9241   19.2658  -16.0144 C   0  0  0  0  0  0  0  0  0  0  0  0
  1  2  1  0  0  0
  1  8  1  0  0  0
  1  9  2  0  0  0
  2  3  1  0  0  0
  2 14  1  0  0  0
  3  4  1  0  0  0
  3  6  1  0  0  0
  4  5  1  0  0  0
  4  7  1  0  0  0
  5 17  1  0  0  0
  5  8  1  0  0  0
 17 18  1  0  0  0
 12 13  1  0  0  0
 12 14  1  0  0  0
 12 15  2  0  0  0
 21 22  1  0  0  0
 21 25  1  0  0  0
 22 20  1  0  0  0
 22 23  2  0  0  0
 20  9  1  0  0  0
 25 26  2  0  0  0
 25 30  1  0  0  0
 26 27  1  0  0  0
 27 28  2  0  0  0
 28 29  1  0  0  0
 29 30  2  0  0  0
 14 16  1  0  0  0
  6 10  1  0  0  0
  7 11  1  0  0  0
 18 19  1  0  0  0
 21 24  1  0  0  0
M  END
> <minimizedAffinity>
-8.05413

$$$$
3SUU_OGN_A_2000


 30 31  0  0  0  0  0  0  0  0999 V2000
   37.2656   18.6719  -15.1758 C   0  0  0  0  0  0  0  0  0  0  0  0
   37.2622   17.3811  -14.3159 C   0  0  0  0  0  0  0  0  0  0  0  0
   35.9148   16.6385  -14.4238 C   0  0  0  0  0  0  0  0  0  0  0  0
   34.8153   17.5127  -15.0441 C   0  0  0  0  0  0  0  0  0  0  0  0
   35.2590   17.9201  -16.4577 C   0  0  0  0  0  0  0  0  0  0  0  0
   35.5300   16.2261  -13.1181 O   0  0  0  0  0  0  0  0  0  0  0  0
   34.6097   18.6732  -14.2215 O   0  0  0  0  0  0  0  0  0  0  0  0
   36.5093   18.6780  -16.4285 O   0  0  0  0  0  0  0  0  0  0  0  0
   38.5135   19.3948  -15.3313 N   0  0  0  0  0  0  0  0  0  0  0  0
   35.4228   17.0058  -12.5511 H   0  0  0  0  0  0  0  0  0  0  0  0
   35.4379   19.1740  -14.1562 H   0  0  0  0  0  0  0  0  0  0  0  0
   39.5137   16.4152  -13.9357 C   0  0  0  0  0  0  0  0  0  0  0  0
   40.5041   15.3589  -14.4070 C   0  0  0  0  0  0  0  0  0  0  0  0
   38.3397   16.3989  -14.5622 N   0  0  0  0  0  0  0  0  0  0  0  0
   39.8023   17.2104  -13.0507 O   0  0  0  0  0  0  0  0  0  0  0  0
   38.1794   15.6919  -15.2283 H   0  0  0  0  0  0  0  0  0  0  0  0
   34.1898   18.7496  -17.1582 C   0  0  0  0  0  0  0  0  0  0  0  0
   34.8184   19.5727  -18.1414 O   0  0  0  0  0  0  0  0  0  0  0  0
   35.4634   20.1554  -17.7108 H   0  0  0  0  0  0  0  0  0  0  0  0
   38.0535   20.6099  -15.9856 O   0  0  0  0  0  0  0  0  0  0  0  0
   38.6206   22.5562  -16.9082 N   0  0  0  0  0  0  0  0  0  0  0  0
   38.9577   21.6075  -16.0320 C   0  0  0  0  0  0  0  0  0  0  0  0
   39.9747   21.6025  -15.3389 O   0  0  0  0  0  0  0  0  0  0  0  0
   37.7617   22.4187  -17.3693 H   0  0  0  0  0  0  0  0  0  0  0  0
   39.2828   23.6668  -17.2491 C   0  0  0  0  0  0  0  0  0  0  0  0
   38.8409   24.8785  -16.7157 C   0  0  0  0  0  0  0  0  0  0  0  0
   39.4726   26.0705  -17.0651 C   0  0  0  0  0  0  0  0  0  0  0  0
   40.5451   26.0353  -17.9551 C   0  0  0  0  0  0  0  0  0  0  0  0
   40.9863   24.8326  -18.5019 C   0  0  0  0  0  0  0  0  0  0  0  0
   40.3461   23.6426  -18.1534 C   0  0  0  0  0  0  0  0  0  0  0  0
  1  2  1  0  0  0
  1  8  1  0  0  0
  1  9  2  0  0  0
  2  3  1  0  0  0
  2 14  1  0  0  0
  3  4  1  0  0  0
  3  6  1  0  0  0
  4  5  1  0  0  0
  4  7  1  0  0  0
  5 17  1  0  0  0
  5  8  1  0  0  0
 17 18  1  0  0  0
 12 13  1  0  0  0
 12 14  1  0  0  0
 12 15  2  0  0  0
 21 22  1  0  0  0
 21 25  1  0  0  0
 22 20  1  0  0  0
 22 23  2  0  0  0
 20  9  1  0  0  0
 25 26  2  0  0  0
 25 30  1  0  0  0
 26 27  1  0  0  0
 27 28  2  0  0  0
 28 29  1  0  0  0
 29 30  2  0  0  0
 14 16  1  0  0  0
  6 10  1  0  0  0
  7 11  1  0  0  0
 18 19  1  0  0  0
 21 24  1  0  0  0
M  END
> <minimizedAffinity>
-7.76972

$$$$
3SUU_OGN_A_2000


 30 31  0  0  0  0  0  0  0  0999 V2000
   37.2282   18.5857  -15.1559 C   0  0  0  0  0  0  0  0  0  0  0  0
   37.2047   17.3049  -14.2812 C   0  0  0  0  0  0  0  0  0  0  0  0
   35.8527   16.5719  -14.3960 C   0  0  0  0  0  0  0  0  0  0  0  0
   34.7673   17.4475  -15.0389 C   0  0  0  0  0  0  0  0  0  0  0  0
   35.2303   17.8350  -16.4518 C   0  0  0  0  0  0  0  0  0  0  0  0
   35.4497   16.1777  -13.0901 O   0  0  0  0  0  0  0  0  0  0  0  0
   34.5619   18.6191  -14.2320 O   0  0  0  0  0  0  0  0  0  0  0  0
   36.4862   18.5832  -16.4171 O   0  0  0  0  0  0  0  0  0  0  0  0
   38.4836   19.2967  -15.3054 N   0  0  0  0  0  0  0  0  0  0  0  0
   35.3425   16.9648  -12.5334 H   0  0  0  0  0  0  0  0  0  0  0  0
   35.3932   19.1141  -14.1630 H   0  0  0  0  0  0  0  0  0  0  0  0
   39.4601   16.3502  -13.8958 C   0  0  0  0  0  0  0  0  0  0  0  0
   40.4417   15.2738  -14.3391 C   0  0  0  0  0  0  0  0  0  0  0  0
   38.2769   16.3114  -14.5039 N   0  0  0  0  0  0  0  0  0  0  0  0
   39.7629   17.1795  -13.0477 O   0  0  0  0  0  0  0  0  0  0  0  0
   38.1057   15.5787  -15.1388 H   0  0  0  0  0  0  0  0  0  0  0  0
   34.1759   18.6648  -17.1740 C   0  0  0  0  0  0  0  0  0  0  0  0
   34.8327   19.5668  -18.0652 O   0  0  0  0  0  0  0  0  0  0  0  0
   35.4248   20.1462  -17.5605 H   0  0  0  0  0  0  0  0  0  0  0  0
   38.0409   20.5078  -15.9788 O   0  0  0  0  0  0  0  0  0  0  0  0
   40.1537   21.0939  -15.5874 N   0  0  0  0  0  0  0  0  0  0  0  0
   38.9732   21.4751  -16.0796 C   0  0  0  0  0  0  0  0  0  0  0  0
   38.7227   22.5781  -16.5647 O   0  0  0  0  0  0  0  0  0  0  0  0
   40.1926   20.1687  -15.2532 H   0  0  0  0  0  0  0  0  0  0  0  0
   41.2913   21.7891  -15.4835 C   0  0  0  0  0  0  0  0  0  0  0  0
   41.5652   22.4119  -14.2648 C   0  0  0  0  0  0  0  0  0  0  0  0
   42.7193   23.1780  -14.1125 C   0  0  0  0  0  0  0  0  0  0  0  0
   43.5902   23.3161  -15.1923 C   0  0  0  0  0  0  0  0  0  0  0  0
   43.3201   22.7082  -16.4160 C   0  0  0  0  0  0  0  0  0  0  0  0
   42.1598   21.9473  -16.5650 C   0  0  0  0  0  0  0  0  0  0  0  0
  1  2  1  0  0  0
  1  8  1  0  0  0
  1  9  2  0  0  0
  2  3  1  0  0  0
  2 14  1  0  0  0
  3  4  1  0  0  0
  3  6  1  0  0  0
  4  5  1  0  0  0
  4  7  1  0  0  0
  5 17  1  0  0  0
  5  8  1  0  0  0
 17 18  1  0  0  0
 12 13  1  0  0  0
 12 14  1  0  0  0
 12 15  2  0  0  0
 21 22  1  0  0  0
 21 25  1  0  0  0
 22 20  1  0  0  0
 22 23  2  0  0  0
 20  9  1  0  0  0
 25 26  2  0  0  0
 25 30  1  0  0  0
 26 27  1  0  0  0
 27 28  2  0  0  0
 28 29  1  0  0  0
 29 30  2  0  0  0
 14 16  1  0  0  0
  6 10  1  0  0  0
  7 11  1  0  0  0
 18 19  1  0  0  0
 21 24  1  0  0  0
M  END
> <minimizedAffinity>
-7.57021

$$$$
3SUU_OGN_A_2000


 30 31  0  0  0  0  0  0  0  0999 V2000
   39.5902   18.8442  -15.3635 C   0  0  0  0  0  0  0  0  0  0  0  0
   38.4939   17.7609  -15.1896 C   0  0  0  0  0  0  0  0  0  0  0  0
   38.9216   16.6887  -14.1670 C   0  0  0  0  0  0  0  0  0  0  0  0
   40.4229   16.7506  -13.8507 C   0  0  0  0  0  0  0  0  0  0  0  0
   40.7383   18.1347  -13.2627 C   0  0  0  0  0  0  0  0  0  0  0  0
   38.5882   15.4118  -14.6976 O   0  0  0  0  0  0  0  0  0  0  0  0
   41.1725   16.5277  -15.0566 O   0  0  0  0  0  0  0  0  0  0  0  0
   40.4059   19.2040  -14.2031 O   0  0  0  0  0  0  0  0  0  0  0  0
   39.2790   20.0215  -16.1515 N   0  0  0  0  0  0  0  0  0  0  0  0
   39.0674   15.2721  -15.5293 H   0  0  0  0  0  0  0  0  0  0  0  0
   40.9406   17.2048  -15.7113 H   0  0  0  0  0  0  0  0  0  0  0  0
   36.0182   17.6346  -15.2372 C   0  0  0  0  0  0  0  0  0  0  0  0
   34.7341   18.3273  -14.8017 C   0  0  0  0  0  0  0  0  0  0  0  0
   37.1379   18.2210  -14.8206 N   0  0  0  0  0  0  0  0  0  0  0  0
   35.9950   16.6206  -15.9229 O   0  0  0  0  0  0  0  0  0  0  0  0
   37.0588   19.0066  -14.2327 H   0  0  0  0  0  0  0  0  0  0  0  0
   42.2071   18.2517  -12.8741 C   0  0  0  0  0  0  0  0  0  0  0  0
   42.9577   18.6356  -14.0266 O   0  0  0  0  0  0  0  0  0  0  0  0
   42.8489   17.9669  -14.7208 H   0  0  0  0  0  0  0  0  0  0  0  0
   40.5895   20.6446  -16.2535 O   0  0  0  0  0  0  0  0  0  0  0  0
   39.3612   22.3156  -17.0660 N   0  0  0  0  0  0  0  0  0  0  0  0
   40.5935   21.8716  -16.8098 C   0  0  0  0  0  0  0  0  0  0  0  0
   41.6370   22.4777  -17.0516 O   0  0  0  0  0  0  0  0  0  0  0  0
   38.6309   21.7147  -16.7923 H   0  0  0  0  0  0  0  0  0  0  0  0
   38.9768   23.4599  -17.6413 C   0  0  0  0  0  0  0  0  0  0  0  0
   38.5098   24.4811  -16.8125 C   0  0  0  0  0  0  0  0  0  0  0  0
   38.0637   25.6816  -17.3619 C   0  0  0  0  0  0  0  0  0  0  0  0
   38.0866   25.8448  -18.7463 C   0  0  0  0  0  0  0  0  0  0  0  0
   38.5400   24.8276  -19.5827 C   0  0  0  0  0  0  0  0  0  0  0  0
   38.9797   23.6251  -19.0275 C   0  0  0  0  0  0  0  0  0  0  0  0
  1  2  1  0  0  0
  1  8  1  0  0  0
  1  9  2  0  0  0
  2  3  1  0  0  0
  2 14  1  0  0  0
  3  4  1  0  0  0
  3  6  1  0  0  0
  4  5  1  0  0  0
  4  7  1  0  0  0
  5 17  1  0  0  0
  5  8  1  0  0  0
 17 18  1  0  0  0
 12 13  1  0  0  0
 12 14  1  0  0  0
 12 15  2  0  0  0
 21 22  1  0  0  0
 21 25  1  0  0  0
 22 20  1  0  0  0
 22 23  2  0  0  0
 20  9  1  0  0  0
 25 26  2  0  0  0
 25 30  1  0  0  0
 26 27  1  0  0  0
 27 28  2  0  0  0
 28 29  1  0  0  0
 29 30  2  0  0  0
 14 16  1  0  0  0
  6 10  1  0  0  0
  7 11  1  0  0  0
 18 19  1  0  0  0
 21 24  1  0  0  0
M  END
> <minimizedAffinity>
-7.44842

$$$$
3SUU_OGN_A_2000


 30 31  0  0  0  0  0  0  0  0999 V2000
   40.3889   17.9319  -13.4834 C   0  0  0  0  0  0  0  0  0  0  0  0
   41.5781   18.9081  -13.6793 C   0  0  0  0  0  0  0  0  0  0  0  0
   42.8714   18.3503  -13.0510 C   0  0  0  0  0  0  0  0  0  0  0  0
   42.5984   17.1751  -12.1011 C   0  0  0  0  0  0  0  0  0  0  0  0
   41.9241   16.0504  -12.9020 C   0  0  0  0  0  0  0  0  0  0  0  0
   43.5135   19.4062  -12.3467 O   0  0  0  0  0  0  0  0  0  0  0  0
   41.7477   17.6170  -11.0302 O   0  0  0  0  0  0  0  0  0  0  0  0
   40.6589   16.4937  -13.4861 O   0  0  0  0  0  0  0  0  0  0  0  0
   39.1418   18.2167  -14.1672 N   0  0  0  0  0  0  0  0  0  0  0  0
   42.9280   19.7292  -11.6441 H   0  0  0  0  0  0  0  0  0  0  0  0
   40.9141   17.9515  -11.3964 H   0  0  0  0  0  0  0  0  0  0  0  0
   41.4803   20.4707  -15.6018 C   0  0  0  0  0  0  0  0  0  0  0  0
   41.8507   20.6564  -17.0670 C   0  0  0  0  0  0  0  0  0  0  0  0
   41.8923   19.3259  -15.0625 N   0  0  0  0  0  0  0  0  0  0  0  0
   40.8462   21.3216  -14.9913 O   0  0  0  0  0  0  0  0  0  0  0  0
   42.4379   18.7222  -15.6167 H   0  0  0  0  0  0  0  0  0  0  0  0
   41.6693   14.8250  -12.0328 C   0  0  0  0  0  0  0  0  0  0  0  0
   42.5725   14.8508  -10.9270 O   0  0  0  0  0  0  0  0  0  0  0  0
   43.4854   14.8430  -11.2548 H   0  0  0  0  0  0  0  0  0  0  0  0
   38.2587   17.2329  -13.5602 O   0  0  0  0  0  0  0  0  0  0  0  0
   36.8961   17.9054  -15.1886 N   0  0  0  0  0  0  0  0  0  0  0  0
   37.0041   17.2161  -14.0509 C   0  0  0  0  0  0  0  0  0  0  0  0
   36.0848   16.6311  -13.4788 O   0  0  0  0  0  0  0  0  0  0  0  0
   37.7338   18.2983  -15.5251 H   0  0  0  0  0  0  0  0  0  0  0  0
   35.8125   18.1386  -15.9368 C   0  0  0  0  0  0  0  0  0  0  0  0
   35.4306   17.1582  -16.8538 C   0  0  0  0  0  0  0  0  0  0  0  0
   34.3299   17.3643  -17.6832 C   0  0  0  0  0  0  0  0  0  0  0  0
   33.6217   18.5613  -17.5869 C   0  0  0  0  0  0  0  0  0  0  0  0
   34.0017   19.5507  -16.6832 C   0  0  0  0  0  0  0  0  0  0  0  0
   35.1085   19.3416  -15.8594 C   0  0  0  0  0  0  0  0  0  0  0  0
  1  2  1  0  0  0
  1  8  1  0  0  0
  1  9  2  0  0  0
  2  3  1  0  0  0
  2 14  1  0  0  0
  3  4  1  0  0  0
  3  6  1  0  0  0
  4  5  1  0  0  0
  4  7  1  0  0  0
  5 17  1  0  0  0
  5  8  1  0  0  0
 17 18  1  0  0  0
 12 13  1  0  0  0
 12 14  1  0  0  0
 12 15  2  0  0  0
 21 22  1  0  0  0
 21 25  1  0  0  0
 22 20  1  0  0  0
 22 23  2  0  0  0
 20  9  1  0  0  0
 25 26  2  0  0  0
 25 30  1  0  0  0
 26 27  1  0  0  0
 27 28  2  0  0  0
 28 29  1  0  0  0
 29 30  2  0  0  0
 14 16  1  0  0  0
  6 10  1  0  0  0
  7 11  1  0  0  0
 18 19  1  0  0  0
 21 24  1  0  0  0
M  END
> <minimizedAffinity>
-7.38638

$$$$
3SUU_OGN_A_2000


 30 31  0  0  0  0  0  0  0  0999 V2000
   40.6708   21.2074  -17.3731 C   0  0  0  0  0  0  0  0  0  0  0  0
   41.3257   21.1742  -18.7787 C   0  0  0  0  0  0  0  0  0  0  0  0
   41.2747   22.5595  -19.4545 C   0  0  0  0  0  0  0  0  0  0  0  0
   40.3002   23.5156  -18.7516 C   0  0  0  0  0  0  0  0  0  0  0  0
   40.7656   23.7015  -17.2991 C   0  0  0  0  0  0  0  0  0  0  0  0
   40.8850   22.3775  -20.8103 O   0  0  0  0  0  0  0  0  0  0  0  0
   38.9753   22.9600  -18.7937 O   0  0  0  0  0  0  0  0  0  0  0  0
   40.7880   22.4299  -16.5774 O   0  0  0  0  0  0  0  0  0  0  0  0
   40.7922   20.0357  -16.5268 N   0  0  0  0  0  0  0  0  0  0  0  0
   40.0045   21.9716  -20.8419 H   0  0  0  0  0  0  0  0  0  0  0  0
   38.9728   22.0962  -18.3525 H   0  0  0  0  0  0  0  0  0  0  0  0
   43.1666   19.9099  -19.8556 C   0  0  0  0  0  0  0  0  0  0  0  0
   44.6100   19.4502  -19.7001 C   0  0  0  0  0  0  0  0  0  0  0  0
   42.7164   20.6796  -18.8677 N   0  0  0  0  0  0  0  0  0  0  0  0
   42.4919   19.5777  -20.8216 O   0  0  0  0  0  0  0  0  0  0  0  0
   43.3458   20.9346  -18.1549 H   0  0  0  0  0  0  0  0  0  0  0  0
   39.8725   24.6834  -16.5507 C   0  0  0  0  0  0  0  0  0  0  0  0
   39.2409   25.5441  -17.4991 O   0  0  0  0  0  0  0  0  0  0  0  0
   39.9179   26.0248  -18.0006 H   0  0  0  0  0  0  0  0  0  0  0  0
   39.8846   20.3781  -15.4427 O   0  0  0  0  0  0  0  0  0  0  0  0
   37.9596   19.3557  -15.9006 N   0  0  0  0  0  0  0  0  0  0  0  0
   39.0222   19.4035  -15.0944 C   0  0  0  0  0  0  0  0  0  0  0  0
   39.2199   18.6688  -14.1271 O   0  0  0  0  0  0  0  0  0  0  0  0
   37.9633   20.0029  -16.6425 H   0  0  0  0  0  0  0  0  0  0  0  0
   36.8906   18.5542  -15.8447 C   0  0  0  0  0  0  0  0  0  0  0  0
   35.8088   18.9646  -15.0641 C   0  0  0  0  0  0  0  0  0  0  0  0
   34.6834   18.1517  -14.9424 C   0  0  0  0  0  0  0  0  0  0  0  0
   34.6564   16.9256  -15.6054 C   0  0  0  0  0  0  0  0  0  0  0  0
   35.7355   16.5018  -16.3774 C   0  0  0  0  0  0  0  0  0  0  0  0
   36.8624   17.3171  -16.4908 C   0  0  0  0  0  0  0  0  0  0  0  0
  1  2  1  0  0  0
  1  8  1  0  0  0
  1  9  2  0  0  0
  2  3  1  0  0  0
  2 14  1  0  0  0
  3  4  1  0  0  0
  3  6  1  0  0  0
  4  5  1  0  0  0
  4  7  1  0  0  0
  5 17  1  0  0  0
  5  8  1  0  0  0
 17 18  1  0  0  0
 12 13  1  0  0  0
 12 14  1  0  0  0
 12 15  2  0  0  0
 21 22  1  0  0  0
 21 25  1  0  0  0
 22 20  1  0  0  0
 22 23  2  0  0  0
 20  9  1  0  0  0
 25 26  2  0  0  0
 25 30  1  0  0  0
 26 27  1  0  0  0
 27 28  2  0  0  0
 28 29  1  0  0  0
 29 30  2  0  0  0
 14 16  1  0  0  0
  6 10  1  0  0  0
  7 11  1  0  0  0
 18 19  1  0  0  0
 21 24  1  0  0  0
M  END
> <minimizedAffinity>
-7.31839

$$$$
3SUU_OGN_A_2000


 30 31  0  0  0  0  0  0  0  0999 V2000
   39.1547   18.7066  -15.0546 C   0  0  0  0  0  0  0  0  0  0  0  0
   39.7206   17.2998  -14.7284 C   0  0  0  0  0  0  0  0  0  0  0  0
   38.6206   16.2214  -14.8028 C   0  0  0  0  0  0  0  0  0  0  0  0
   37.2100   16.8278  -14.8236 C   0  0  0  0  0  0  0  0  0  0  0  0
   37.0881   17.7309  -16.0607 C   0  0  0  0  0  0  0  0  0  0  0  0
   38.7647   15.3626  -13.6781 O   0  0  0  0  0  0  0  0  0  0  0  0
   36.9997   17.5839  -13.6194 O   0  0  0  0  0  0  0  0  0  0  0  0
   38.0708   18.8134  -16.0319 O   0  0  0  0  0  0  0  0  0  0  0  0
   40.0866   19.8078  -15.2058 N   0  0  0  0  0  0  0  0  0  0  0  0
   38.6563   15.8767  -12.8628 H   0  0  0  0  0  0  0  0  0  0  0  0
   37.6650   18.2871  -13.5589 H   0  0  0  0  0  0  0  0  0  0  0  0
   41.8844   16.1275  -15.0294 C   0  0  0  0  0  0  0  0  0  0  0  0
   42.9992   15.8199  -16.0200 C   0  0  0  0  0  0  0  0  0  0  0  0
   40.8699   16.8281  -15.5303 N   0  0  0  0  0  0  0  0  0  0  0  0
   41.9441   15.7528  -13.8654 O   0  0  0  0  0  0  0  0  0  0  0  0
   40.8855   17.0449  -16.4905 H   0  0  0  0  0  0  0  0  0  0  0  0
   35.6914   18.3289  -16.1767 C   0  0  0  0  0  0  0  0  0  0  0  0
   35.3694   18.4781  -17.5599 O   0  0  0  0  0  0  0  0  0  0  0  0
   36.0184   19.0627  -17.9817 H   0  0  0  0  0  0  0  0  0  0  0  0
   39.1746   20.9391  -15.2728 O   0  0  0  0  0  0  0  0  0  0  0  0
   38.7139   22.5973  -16.6867 N   0  0  0  0  0  0  0  0  0  0  0  0
   39.6487   22.0127  -15.9345 C   0  0  0  0  0  0  0  0  0  0  0  0
   40.8212   22.3746  -15.8408 O   0  0  0  0  0  0  0  0  0  0  0  0
   37.8172   22.1942  -16.6344 H   0  0  0  0  0  0  0  0  0  0  0  0
   38.8214   23.6525  -17.5012 C   0  0  0  0  0  0  0  0  0  0  0  0
   39.2507   23.4245  -18.8095 C   0  0  0  0  0  0  0  0  0  0  0  0
   39.4137   24.4921  -19.6902 C   0  0  0  0  0  0  0  0  0  0  0  0
   39.1472   25.7862  -19.2454 C   0  0  0  0  0  0  0  0  0  0  0  0
   38.7295   26.0254  -17.9384 C   0  0  0  0  0  0  0  0  0  0  0  0
   38.5738   24.9532  -17.0588 C   0  0  0  0  0  0  0  0  0  0  0  0
  1  2  1  0  0  0
  1  8  1  0  0  0
  1  9  2  0  0  0
  2  3  1  0  0  0
  2 14  1  0  0  0
  3  4  1  0  0  0
  3  6  1  0  0  0
  4  5  1  0  0  0
  4  7  1  0  0  0
  5 17  1  0  0  0
  5  8  1  0  0  0
 17 18  1  0  0  0
 12 13  1  0  0  0
 12 14  1  0  0  0
 12 15  2  0  0  0
 21 22  1  0  0  0
 21 25  1  0  0  0
 22 20  1  0  0  0
 22 23  2  0  0  0
 20  9  1  0  0  0
 25 26  2  0  0  0
 25 30  1  0  0  0
 26 27  1  0  0  0
 27 28  2  0  0  0
 28 29  1  0  0  0
 29 30  2  0  0  0
 14 16  1  0  0  0
  6 10  1  0  0  0
  7 11  1  0  0  0
 18 19  1  0  0  0
 21 24  1  0  0  0
M  END
> <minimizedAffinity>
-7.18873

$$$$
