4LZR_LOC_A_201


 30 32  0  0  0  0  0  0  0  0999 V2000
  -13.3668    7.1807   -2.6149 C   0  0  0  0  0  0  0  0  0  0  0  0
  -13.1211    6.3460   -1.3724 C   0  0  0  0  0  0  0  0  0  0  0  0
  -14.0249    5.4034   -1.0415 C   0  0  0  0  0  0  0  0  0  0  0  0
  -14.0088    8.5328   -2.2835 C   0  0  0  0  0  0  0  0  0  0  0  0
  -13.2775    9.3017   -1.1789 C   0  0  0  0  0  0  0  0  0  0  0  0
  -11.7790    9.1266   -1.2758 C   0  0  0  0  0  0  0  0  0  0  0  0
  -11.0466   10.2409   -1.6626 C   0  0  0  0  0  0  0  0  0  0  0  0
   -9.6660   10.1712   -1.7758 C   0  0  0  0  0  0  0  0  0  0  0  0
   -9.0149    8.9654   -1.5064 C   0  0  0  0  0  0  0  0  0  0  0  0
   -9.7408    7.8378   -1.1276 C   0  0  0  0  0  0  0  0  0  0  0  0
  -11.1326    7.9116   -1.0198 C   0  0  0  0  0  0  0  0  0  0  0  0
  -11.9253    6.7090   -0.5919 C   0  0  0  0  0  0  0  0  0  0  0  0
  -11.4721    6.1702    0.5482 C   0  0  0  0  0  0  0  0  0  0  0  0
  -11.9285    5.0116    1.2947 C   0  0  0  0  0  0  0  0  0  0  0  0
  -13.0180    4.2674    1.1061 C   0  0  0  0  0  0  0  0  0  0  0  0
  -14.0453    4.4572    0.0828 C   0  0  0  0  0  0  0  0  0  0  0  0
  -15.0200    3.7316    0.1551 O   0  0  0  0  0  0  0  0  0  0  0  0
  -14.3916    5.8361   -5.7865 O   0  0  0  0  0  0  0  0  0  0  0  0
  -13.6707    6.2536   -4.8733 C   0  0  0  0  0  0  0  0  0  0  0  0
  -12.2273    6.5489   -5.0691 C   0  0  0  0  0  0  0  0  0  0  0  0
  -14.1411    6.5021   -3.6412 N   0  0  0  0  0  0  0  0  0  0  0  0
  -15.0554    6.2105   -3.4216 H   0  0  0  0  0  0  0  0  0  0  0  0
   -9.0583    6.6695   -0.8954 O   0  0  0  0  0  0  0  0  0  0  0  0
   -8.8503    5.8271   -2.0380 C   0  0  0  0  0  0  0  0  0  0  0  0
   -7.6357    8.9002   -1.5935 O   0  0  0  0  0  0  0  0  0  0  0  0
   -6.9127    9.2280   -0.4164 C   0  0  0  0  0  0  0  0  0  0  0  0
   -8.9266   11.2757   -2.1385 O   0  0  0  0  0  0  0  0  0  0  0  0
   -9.4620   12.5886   -2.3697 C   0  0  0  0  0  0  0  0  0  0  0  0
  -13.2063    3.1536    2.0147 O   0  0  0  0  0  0  0  0  0  0  0  0
  -12.5242    3.0925    3.2696 C   0  0  0  0  0  0  0  0  0  0  0  0
 18 19  2  0  0  0
 19 20  1  0  0  0
 19 21  1  0  0  0
 21  1  1  0  0  0
  1  2  1  0  0  0
  1  4  1  0  0  0
  2  3  2  0  0  0
  2 12  1  0  0  0
  3 16  1  0  0  0
  4  5  1  0  0  0
  5  6  1  0  0  0
  6  7  2  0  0  0
  6 11  1  0  0  0
  7  8  1  0  0  0
  8  9  2  0  0  0
  8 27  1  0  0  0
  9 10  1  0  0  0
  9 25  1  0  0  0
 10 23  1  0  0  0
 10 11  2  0  0  0
 23 24  1  0  0  0
 25 26  1  0  0  0
 27 28  1  0  0  0
 11 12  1  0  0  0
 12 13  2  0  0  0
 13 14  1  0  0  0
 14 15  2  0  0  0
 15 16  1  0  0  0
 15 29  1  0  0  0
 16 17  2  0  0  0
 29 30  1  0  0  0
 21 22  1  0  0  0
M  END
> <minimizedAffinity>
-7.46810

$$$$
4LZR_LOC_A_201


 30 32  0  0  0  0  0  0  0  0999 V2000
  -11.5055    5.6128    1.1208 C   0  0  0  0  0  0  0  0  0  0  0  0
  -10.2633    6.4808    1.0527 C   0  0  0  0  0  0  0  0  0  0  0  0
   -9.5729    6.7058    2.1873 C   0  0  0  0  0  0  0  0  0  0  0  0
  -12.7875    6.4477    1.2201 C   0  0  0  0  0  0  0  0  0  0  0  0
  -12.8825    7.5493    0.1601 C   0  0  0  0  0  0  0  0  0  0  0  0
  -12.3208    7.0952   -1.1680 C   0  0  0  0  0  0  0  0  0  0  0  0
  -13.2339    6.9033   -2.1962 C   0  0  0  0  0  0  0  0  0  0  0  0
  -12.8065    6.4892   -3.4489 C   0  0  0  0  0  0  0  0  0  0  0  0
  -11.4471    6.2560   -3.6684 C   0  0  0  0  0  0  0  0  0  0  0  0
  -10.5230    6.4352   -2.6408 C   0  0  0  0  0  0  0  0  0  0  0  0
  -10.9592    6.8478   -1.3785 C   0  0  0  0  0  0  0  0  0  0  0  0
   -9.9708    7.0651   -0.2678 C   0  0  0  0  0  0  0  0  0  0  0  0
   -8.9672    7.8797   -0.6210 C   0  0  0  0  0  0  0  0  0  0  0  0
   -7.8108    8.3372    0.1281 C   0  0  0  0  0  0  0  0  0  0  0  0
   -7.5294    8.1732    1.4206 C   0  0  0  0  0  0  0  0  0  0  0  0
   -8.3493    7.4866    2.4180 C   0  0  0  0  0  0  0  0  0  0  0  0
   -7.9619    7.5478    3.5703 O   0  0  0  0  0  0  0  0  0  0  0  0
  -12.3988    2.8367    3.2214 O   0  0  0  0  0  0  0  0  0  0  0  0
  -12.3155    3.5728    2.2319 C   0  0  0  0  0  0  0  0  0  0  0  0
  -13.1608    3.3831    1.0242 C   0  0  0  0  0  0  0  0  0  0  0  0
  -11.4770    4.6194    2.1818 N   0  0  0  0  0  0  0  0  0  0  0  0
  -10.8098    4.7194    2.8988 H   0  0  0  0  0  0  0  0  0  0  0  0
   -9.2006    6.1716   -2.8987 O   0  0  0  0  0  0  0  0  0  0  0  0
   -8.8370    4.7848   -2.9545 C   0  0  0  0  0  0  0  0  0  0  0  0
  -11.0152    5.8677   -4.9240 O   0  0  0  0  0  0  0  0  0  0  0  0
  -10.6667    6.9107   -5.8221 C   0  0  0  0  0  0  0  0  0  0  0  0
  -13.7006    6.3154   -4.4827 O   0  0  0  0  0  0  0  0  0  0  0  0
  -14.4424    7.3684   -5.1190 C   0  0  0  0  0  0  0  0  0  0  0  0
   -6.2791    8.7390    1.8877 O   0  0  0  0  0  0  0  0  0  0  0  0
   -5.4613    9.5439    1.0350 C   0  0  0  0  0  0  0  0  0  0  0  0
 18 19  2  0  0  0
 19 20  1  0  0  0
 19 21  1  0  0  0
 21  1  1  0  0  0
  1  2  1  0  0  0
  1  4  1  0  0  0
  2  3  2  0  0  0
  2 12  1  0  0  0
  3 16  1  0  0  0
  4  5  1  0  0  0
  5  6  1  0  0  0
  6  7  2  0  0  0
  6 11  1  0  0  0
  7  8  1  0  0  0
  8  9  2  0  0  0
  8 27  1  0  0  0
  9 10  1  0  0  0
  9 25  1  0  0  0
 10 23  1  0  0  0
 10 11  2  0  0  0
 23 24  1  0  0  0
 25 26  1  0  0  0
 27 28  1  0  0  0
 11 12  1  0  0  0
 12 13  2  0  0  0
 13 14  1  0  0  0
 14 15  2  0  0  0
 15 16  1  0  0  0
 15 29  1  0  0  0
 16 17  2  0  0  0
 29 30  1  0  0  0
 21 22  1  0  0  0
M  END
> <minimizedAffinity>
-7.46414

$$$$
4LZR_LOC_A_201


 30 32  0  0  0  0  0  0  0  0999 V2000
   -9.6548    6.8247   -1.5384 C   0  0  0  0  0  0  0  0  0  0  0  0
  -10.9795    6.2850   -1.0333 C   0  0  0  0  0  0  0  0  0  0  0  0
  -11.0239    5.7367    0.1964 C   0  0  0  0  0  0  0  0  0  0  0  0
   -8.9269    5.8178   -2.4364 C   0  0  0  0  0  0  0  0  0  0  0  0
   -9.8070    5.2469   -3.5525 C   0  0  0  0  0  0  0  0  0  0  0  0
  -10.7442    6.2922   -4.1134 C   0  0  0  0  0  0  0  0  0  0  0  0
  -10.4860    6.7295   -5.4056 C   0  0  0  0  0  0  0  0  0  0  0  0
  -11.2960    7.6854   -6.0003 C   0  0  0  0  0  0  0  0  0  0  0  0
  -12.3722    8.2149   -5.2849 C   0  0  0  0  0  0  0  0  0  0  0  0
  -12.6346    7.7912   -3.9835 C   0  0  0  0  0  0  0  0  0  0  0  0
  -11.8123    6.8312   -3.3866 C   0  0  0  0  0  0  0  0  0  0  0  0
  -12.0966    6.3502   -1.9918 C   0  0  0  0  0  0  0  0  0  0  0  0
  -13.3609    5.9345   -1.8360 C   0  0  0  0  0  0  0  0  0  0  0  0
  -14.0495    5.4144   -0.6685 C   0  0  0  0  0  0  0  0  0  0  0  0
  -13.5500    5.0810    0.5214 C   0  0  0  0  0  0  0  0  0  0  0  0
  -12.1496    5.1499    0.9369 C   0  0  0  0  0  0  0  0  0  0  0  0
  -11.8884    4.6900    2.0332 O   0  0  0  0  0  0  0  0  0  0  0  0
   -7.3291    8.8328    0.3259 O   0  0  0  0  0  0  0  0  0  0  0  0
   -8.2163    8.5121   -0.4729 C   0  0  0  0  0  0  0  0  0  0  0  0
   -8.7306    9.4449   -1.5094 C   0  0  0  0  0  0  0  0  0  0  0  0
   -8.7636    7.2868   -0.4870 N   0  0  0  0  0  0  0  0  0  0  0  0
   -8.5510    6.6707    0.2508 H   0  0  0  0  0  0  0  0  0  0  0  0
  -13.6901    8.3574   -3.3128 O   0  0  0  0  0  0  0  0  0  0  0  0
  -13.4045    9.5728   -2.6059 C   0  0  0  0  0  0  0  0  0  0  0  0
  -13.1970    9.1495   -5.8851 O   0  0  0  0  0  0  0  0  0  0  0  0
  -14.3588    8.6461   -6.5274 C   0  0  0  0  0  0  0  0  0  0  0  0
  -11.0622    8.1118   -7.2894 O   0  0  0  0  0  0  0  0  0  0  0  0
  -11.4116    7.3827   -8.4769 C   0  0  0  0  0  0  0  0  0  0  0  0
  -14.4953    4.5950    1.5072 O   0  0  0  0  0  0  0  0  0  0  0  0
  -15.3040    3.4426    1.2586 C   0  0  0  0  0  0  0  0  0  0  0  0
 18 19  2  0  0  0
 19 20  1  0  0  0
 19 21  1  0  0  0
 21  1  1  0  0  0
  1  2  1  0  0  0
  1  4  1  0  0  0
  2  3  2  0  0  0
  2 12  1  0  0  0
  3 16  1  0  0  0
  4  5  1  0  0  0
  5  6  1  0  0  0
  6  7  2  0  0  0
  6 11  1  0  0  0
  7  8  1  0  0  0
  8  9  2  0  0  0
  8 27  1  0  0  0
  9 10  1  0  0  0
  9 25  1  0  0  0
 10 23  1  0  0  0
 10 11  2  0  0  0
 23 24  1  0  0  0
 25 26  1  0  0  0
 27 28  1  0  0  0
 11 12  1  0  0  0
 12 13  2  0  0  0
 13 14  1  0  0  0
 14 15  2  0  0  0
 15 16  1  0  0  0
 15 29  1  0  0  0
 16 17  2  0  0  0
 29 30  1  0  0  0
 21 22  1  0  0  0
M  END
> <minimizedAffinity>
-6.71679

$$$$
4LZR_LOC_A_201


 30 32  0  0  0  0  0  0  0  0999 V2000
   -8.7975    8.2808   -2.0516 C   0  0  0  0  0  0  0  0  0  0  0  0
   -9.0415    7.7805   -0.6404 C   0  0  0  0  0  0  0  0  0  0  0  0
   -8.0530    7.9055    0.2663 C   0  0  0  0  0  0  0  0  0  0  0  0
   -8.3769    7.1513   -2.9990 C   0  0  0  0  0  0  0  0  0  0  0  0
   -9.3036    5.9328   -2.9461 C   0  0  0  0  0  0  0  0  0  0  0  0
  -10.7495    6.3389   -2.7728 C   0  0  0  0  0  0  0  0  0  0  0  0
  -11.5869    6.1363   -3.8616 C   0  0  0  0  0  0  0  0  0  0  0  0
  -12.9291    6.4781   -3.7905 C   0  0  0  0  0  0  0  0  0  0  0  0
  -13.4336    7.0388   -2.6151 C   0  0  0  0  0  0  0  0  0  0  0  0
  -12.6001    7.2565   -1.5197 C   0  0  0  0  0  0  0  0  0  0  0  0
  -11.2469    6.9149   -1.5979 C   0  0  0  0  0  0  0  0  0  0  0  0
  -10.3419    7.1248   -0.4170 C   0  0  0  0  0  0  0  0  0  0  0  0
  -10.8210    6.5725    0.7059 C   0  0  0  0  0  0  0  0  0  0  0  0
  -10.2830    6.5503    2.0543 C   0  0  0  0  0  0  0  0  0  0  0  0
   -9.0904    6.9568    2.4890 C   0  0  0  0  0  0  0  0  0  0  0  0
   -8.0086    7.5235    1.6847 C   0  0  0  0  0  0  0  0  0  0  0  0
   -6.9557    7.7252    2.2613 O   0  0  0  0  0  0  0  0  0  0  0  0
   -7.3951   11.5469   -2.5828 O   0  0  0  0  0  0  0  0  0  0  0  0
   -8.2137   10.6531   -2.3402 C   0  0  0  0  0  0  0  0  0  0  0  0
   -9.6774   10.9058   -2.2875 C   0  0  0  0  0  0  0  0  0  0  0  0
   -7.8479    9.3782   -2.1354 N   0  0  0  0  0  0  0  0  0  0  0  0
   -6.8893    9.1763   -2.0372 H   0  0  0  0  0  0  0  0  0  0  0  0
  -13.1372    7.8309   -0.3945 O   0  0  0  0  0  0  0  0  0  0  0  0
  -14.0134    6.9975    0.3778 C   0  0  0  0  0  0  0  0  0  0  0  0
  -14.7775    7.3567   -2.5327 O   0  0  0  0  0  0  0  0  0  0  0  0
  -15.1485    8.6518   -2.9810 C   0  0  0  0  0  0  0  0  0  0  0  0
  -13.7742    6.2625   -4.8570 O   0  0  0  0  0  0  0  0  0  0  0  0
  -13.3647    5.8074   -6.1566 C   0  0  0  0  0  0  0  0  0  0  0  0
   -8.8378    6.8188    3.9098 O   0  0  0  0  0  0  0  0  0  0  0  0
   -9.1789    7.8573    4.8312 C   0  0  0  0  0  0  0  0  0  0  0  0
 18 19  2  0  0  0
 19 20  1  0  0  0
 19 21  1  0  0  0
 21  1  1  0  0  0
  1  2  1  0  0  0
  1  4  1  0  0  0
  2  3  2  0  0  0
  2 12  1  0  0  0
  3 16  1  0  0  0
  4  5  1  0  0  0
  5  6  1  0  0  0
  6  7  2  0  0  0
  6 11  1  0  0  0
  7  8  1  0  0  0
  8  9  2  0  0  0
  8 27  1  0  0  0
  9 10  1  0  0  0
  9 25  1  0  0  0
 10 23  1  0  0  0
 10 11  2  0  0  0
 23 24  1  0  0  0
 25 26  1  0  0  0
 27 28  1  0  0  0
 11 12  1  0  0  0
 12 13  2  0  0  0
 13 14  1  0  0  0
 14 15  2  0  0  0
 15 16  1  0  0  0
 15 29  1  0  0  0
 16 17  2  0  0  0
 29 30  1  0  0  0
 21 22  1  0  0  0
M  END
> <minimizedAffinity>
-6.56641

$$$$
4LZR_LOC_A_201


 30 32  0  0  0  0  0  0  0  0999 V2000
  -13.6722    7.3586   -3.4571 C   0  0  0  0  0  0  0  0  0  0  0  0
  -13.4331    6.8569   -2.0457 C   0  0  0  0  0  0  0  0  0  0  0  0
  -13.9977    5.6920   -1.6728 C   0  0  0  0  0  0  0  0  0  0  0  0
  -14.8049    8.3898   -3.5183 C   0  0  0  0  0  0  0  0  0  0  0  0
  -14.6568    9.5210   -2.4963 C   0  0  0  0  0  0  0  0  0  0  0  0
  -13.2112    9.9259   -2.3181 C   0  0  0  0  0  0  0  0  0  0  0  0
  -12.8503   11.1740   -2.8076 C   0  0  0  0  0  0  0  0  0  0  0  0
  -11.5453   11.6275   -2.6856 C   0  0  0  0  0  0  0  0  0  0  0  0
  -10.5898   10.8136   -2.0732 C   0  0  0  0  0  0  0  0  0  0  0  0
  -10.9383    9.5546   -1.5877 C   0  0  0  0  0  0  0  0  0  0  0  0
  -12.2538    9.0999   -1.7175 C   0  0  0  0  0  0  0  0  0  0  0  0
  -12.6477    7.7534   -1.1796 C   0  0  0  0  0  0  0  0  0  0  0  0
  -12.3010    7.5881    0.1042 C   0  0  0  0  0  0  0  0  0  0  0  0
  -12.4757    6.4539    0.9936 C   0  0  0  0  0  0  0  0  0  0  0  0
  -13.1628    5.3293    0.7946 C   0  0  0  0  0  0  0  0  0  0  0  0
  -13.9349    4.9701   -0.3942 C   0  0  0  0  0  0  0  0  0  0  0  0
  -14.5824    3.9415   -0.3270 O   0  0  0  0  0  0  0  0  0  0  0  0
  -13.4055    5.2978   -6.3895 O   0  0  0  0  0  0  0  0  0  0  0  0
  -13.1039    6.0773   -5.4789 C   0  0  0  0  0  0  0  0  0  0  0  0
  -11.8389    6.8575   -5.4841 C   0  0  0  0  0  0  0  0  0  0  0  0
  -13.9086    6.3036   -4.4290 N   0  0  0  0  0  0  0  0  0  0  0  0
  -14.6978    5.7269   -4.3112 H   0  0  0  0  0  0  0  0  0  0  0  0
   -9.9593    8.7821   -1.0140 O   0  0  0  0  0  0  0  0  0  0  0  0
   -9.2720    7.8835   -1.8965 C   0  0  0  0  0  0  0  0  0  0  0  0
   -9.2935   11.2741   -1.9271 O   0  0  0  0  0  0  0  0  0  0  0  0
   -8.4549   11.1718   -3.0683 C   0  0  0  0  0  0  0  0  0  0  0  0
  -11.1800   12.8726   -3.1487 O   0  0  0  0  0  0  0  0  0  0  0  0
  -11.9747   13.6973   -4.0159 C   0  0  0  0  0  0  0  0  0  0  0  0
  -13.1456    4.3609    1.8733 O   0  0  0  0  0  0  0  0  0  0  0  0
  -12.1003    3.3924    1.9880 C   0  0  0  0  0  0  0  0  0  0  0  0
 18 19  2  0  0  0
 19 20  1  0  0  0
 19 21  1  0  0  0
 21  1  1  0  0  0
  1  2  1  0  0  0
  1  4  1  0  0  0
  2  3  2  0  0  0
  2 12  1  0  0  0
  3 16  1  0  0  0
  4  5  1  0  0  0
  5  6  1  0  0  0
  6  7  2  0  0  0
  6 11  1  0  0  0
  7  8  1  0  0  0
  8  9  2  0  0  0
  8 27  1  0  0  0
  9 10  1  0  0  0
  9 25  1  0  0  0
 10 23  1  0  0  0
 10 11  2  0  0  0
 23 24  1  0  0  0
 25 26  1  0  0  0
 27 28  1  0  0  0
 11 12  1  0  0  0
 12 13  2  0  0  0
 13 14  1  0  0  0
 14 15  2  0  0  0
 15 16  1  0  0  0
 15 29  1  0  0  0
 16 17  2  0  0  0
 29 30  1  0  0  0
 21 22  1  0  0  0
M  END
> <minimizedAffinity>
-6.41905

$$$$
4LZR_LOC_A_201


 30 32  0  0  0  0  0  0  0  0999 V2000
  -12.0484    6.5230    0.3448 C   0  0  0  0  0  0  0  0  0  0  0  0
  -10.6343    6.8867    0.7558 C   0  0  0  0  0  0  0  0  0  0  0  0
  -10.2616    6.6770    2.0332 C   0  0  0  0  0  0  0  0  0  0  0  0
  -12.9835    7.7377    0.3594 C   0  0  0  0  0  0  0  0  0  0  0  0
  -12.4287    8.9448   -0.4030 C   0  0  0  0  0  0  0  0  0  0  0  0
  -11.6800    8.5227   -1.6468 C   0  0  0  0  0  0  0  0  0  0  0  0
  -12.2749    8.8271   -2.8638 C   0  0  0  0  0  0  0  0  0  0  0  0
  -11.6574    8.4788   -4.0558 C   0  0  0  0  0  0  0  0  0  0  0  0
  -10.4326    7.8085   -4.0245 C   0  0  0  0  0  0  0  0  0  0  0  0
   -9.8313    7.4885   -2.8086 C   0  0  0  0  0  0  0  0  0  0  0  0
  -10.4601    7.8372   -1.6098 C   0  0  0  0  0  0  0  0  0  0  0  0
   -9.8125    7.5169   -0.2924 C   0  0  0  0  0  0  0  0  0  0  0  0
   -8.5501    7.9596   -0.2157 C   0  0  0  0  0  0  0  0  0  0  0  0
   -7.5731    7.8541    0.8529 C   0  0  0  0  0  0  0  0  0  0  0  0
   -7.7365    7.4094    2.0988 C   0  0  0  0  0  0  0  0  0  0  0  0
   -8.9763    6.9226    2.7023 C   0  0  0  0  0  0  0  0  0  0  0  0
   -8.9341    6.6680    3.8919 O   0  0  0  0  0  0  0  0  0  0  0  0
  -14.3132    3.9744    1.4816 O   0  0  0  0  0  0  0  0  0  0  0  0
  -13.7292    4.7701    0.7374 C   0  0  0  0  0  0  0  0  0  0  0  0
  -14.2123    5.0804   -0.6335 C   0  0  0  0  0  0  0  0  0  0  0  0
  -12.6306    5.4394    1.1195 N   0  0  0  0  0  0  0  0  0  0  0  0
  -12.1976    5.1840    1.9660 H   0  0  0  0  0  0  0  0  0  0  0  0
   -8.6385    6.8092   -2.8289 O   0  0  0  0  0  0  0  0  0  0  0  0
   -8.7320    5.3776   -2.8154 C   0  0  0  0  0  0  0  0  0  0  0  0
   -9.8021    7.4828   -5.2120 O   0  0  0  0  0  0  0  0  0  0  0  0
  -10.2822    6.3291   -5.8859 C   0  0  0  0  0  0  0  0  0  0  0  0
  -12.2278    8.7939   -5.2697 O   0  0  0  0  0  0  0  0  0  0  0  0
  -13.4988    8.3122   -5.7350 C   0  0  0  0  0  0  0  0  0  0  0  0
   -6.5605    7.4120    2.9465 O   0  0  0  0  0  0  0  0  0  0  0  0
   -5.4154    8.2068    2.6290 C   0  0  0  0  0  0  0  0  0  0  0  0
 18 19  2  0  0  0
 19 20  1  0  0  0
 19 21  1  0  0  0
 21  1  1  0  0  0
  1  2  1  0  0  0
  1  4  1  0  0  0
  2  3  2  0  0  0
  2 12  1  0  0  0
  3 16  1  0  0  0
  4  5  1  0  0  0
  5  6  1  0  0  0
  6  7  2  0  0  0
  6 11  1  0  0  0
  7  8  1  0  0  0
  8  9  2  0  0  0
  8 27  1  0  0  0
  9 10  1  0  0  0
  9 25  1  0  0  0
 10 23  1  0  0  0
 10 11  2  0  0  0
 23 24  1  0  0  0
 25 26  1  0  0  0
 27 28  1  0  0  0
 11 12  1  0  0  0
 12 13  2  0  0  0
 13 14  1  0  0  0
 14 15  2  0  0  0
 15 16  1  0  0  0
 15 29  1  0  0  0
 16 17  2  0  0  0
 29 30  1  0  0  0
 21 22  1  0  0  0
M  END
> <minimizedAffinity>
-6.40865

$$$$
4LZR_LOC_A_201


 30 32  0  0  0  0  0  0  0  0999 V2000
   -9.6748    6.7299   -0.0436 C   0  0  0  0  0  0  0  0  0  0  0  0
  -11.0094    6.0211    0.0885 C   0  0  0  0  0  0  0  0  0  0  0  0
  -11.1408    5.0672    1.0306 C   0  0  0  0  0  0  0  0  0  0  0  0
   -8.8087    6.1258   -1.1550 C   0  0  0  0  0  0  0  0  0  0  0  0
   -9.5443    5.9779   -2.4903 C   0  0  0  0  0  0  0  0  0  0  0  0
  -10.4805    7.1378   -2.7427 C   0  0  0  0  0  0  0  0  0  0  0  0
  -10.1244    8.0144   -3.7588 C   0  0  0  0  0  0  0  0  0  0  0  0
  -10.9259    9.1053   -4.0604 C   0  0  0  0  0  0  0  0  0  0  0  0
  -12.0938    9.3233   -3.3263 C   0  0  0  0  0  0  0  0  0  0  0  0
  -12.4556    8.4560   -2.2972 C   0  0  0  0  0  0  0  0  0  0  0  0
  -11.6419    7.3607   -1.9937 C   0  0  0  0  0  0  0  0  0  0  0  0
  -12.0313    6.4060   -0.9007 C   0  0  0  0  0  0  0  0  0  0  0  0
  -13.2794    5.9394   -1.0424 C   0  0  0  0  0  0  0  0  0  0  0  0
  -14.0466    5.0225   -0.2186 C   0  0  0  0  0  0  0  0  0  0  0  0
  -13.6456    4.2932    0.8225 C   0  0  0  0  0  0  0  0  0  0  0  0
  -12.2977    4.2336    1.3862 C   0  0  0  0  0  0  0  0  0  0  0  0
  -12.1175    3.4155    2.2694 O   0  0  0  0  0  0  0  0  0  0  0  0
   -7.1648    7.6040    2.3757 O   0  0  0  0  0  0  0  0  0  0  0  0
   -7.9129    7.6689    1.3939 C   0  0  0  0  0  0  0  0  0  0  0  0
   -7.7461    8.6946    0.3313 C   0  0  0  0  0  0  0  0  0  0  0  0
   -8.9158    6.7997    1.1943 N   0  0  0  0  0  0  0  0  0  0  0  0
   -9.1489    6.1789    1.9220 H   0  0  0  0  0  0  0  0  0  0  0  0
  -13.6007    8.7246   -1.5893 O   0  0  0  0  0  0  0  0  0  0  0  0
  -14.8333    8.5618   -2.3054 C   0  0  0  0  0  0  0  0  0  0  0  0
  -12.9083   10.3960   -3.6421 O   0  0  0  0  0  0  0  0  0  0  0  0
  -12.6468   11.6108   -2.9552 C   0  0  0  0  0  0  0  0  0  0  0  0
  -10.5938    9.9703   -5.0801 O   0  0  0  0  0  0  0  0  0  0  0  0
  -10.1868    9.5741   -6.3997 C   0  0  0  0  0  0  0  0  0  0  0  0
  -14.6524    3.4688    1.4614 O   0  0  0  0  0  0  0  0  0  0  0  0
  -16.0393    3.6061    1.1430 C   0  0  0  0  0  0  0  0  0  0  0  0
 18 19  2  0  0  0
 19 20  1  0  0  0
 19 21  1  0  0  0
 21  1  1  0  0  0
  1  2  1  0  0  0
  1  4  1  0  0  0
  2  3  2  0  0  0
  2 12  1  0  0  0
  3 16  1  0  0  0
  4  5  1  0  0  0
  5  6  1  0  0  0
  6  7  2  0  0  0
  6 11  1  0  0  0
  7  8  1  0  0  0
  8  9  2  0  0  0
  8 27  1  0  0  0
  9 10  1  0  0  0
  9 25  1  0  0  0
 10 23  1  0  0  0
 10 11  2  0  0  0
 23 24  1  0  0  0
 25 26  1  0  0  0
 27 28  1  0  0  0
 11 12  1  0  0  0
 12 13  2  0  0  0
 13 14  1  0  0  0
 14 15  2  0  0  0
 15 16  1  0  0  0
 15 29  1  0  0  0
 16 17  2  0  0  0
 29 30  1  0  0  0
 21 22  1  0  0  0
M  END
> <minimizedAffinity>
-6.24036

$$$$
4LZR_LOC_A_201


 30 32  0  0  0  0  0  0  0  0999 V2000
  -10.3211    6.3951   -3.9123 C   0  0  0  0  0  0  0  0  0  0  0  0
  -11.7655    6.8140   -4.1101 C   0  0  0  0  0  0  0  0  0  0  0  0
  -12.1899    7.0906   -5.3584 C   0  0  0  0  0  0  0  0  0  0  0  0
   -9.4334    7.5699   -3.4854 C   0  0  0  0  0  0  0  0  0  0  0  0
   -9.9961    8.3619   -2.3013 C   0  0  0  0  0  0  0  0  0  0  0  0
  -10.6693    7.4569   -1.2946 C   0  0  0  0  0  0  0  0  0  0  0  0
  -10.0294    7.3024   -0.0721 C   0  0  0  0  0  0  0  0  0  0  0  0
  -10.5769    6.4921    0.9115 C   0  0  0  0  0  0  0  0  0  0  0  0
  -11.7761    5.8219    0.6602 C   0  0  0  0  0  0  0  0  0  0  0  0
  -12.4216    5.9612   -0.5670 C   0  0  0  0  0  0  0  0  0  0  0  0
  -11.8634    6.7750   -1.5569 C   0  0  0  0  0  0  0  0  0  0  0  0
  -12.5598    6.9506   -2.8767 C   0  0  0  0  0  0  0  0  0  0  0  0
  -13.8400    7.3221   -2.7401 C   0  0  0  0  0  0  0  0  0  0  0  0
  -14.8617    7.5833   -3.7381 C   0  0  0  0  0  0  0  0  0  0  0  0
  -14.7407    7.6590   -5.0633 C   0  0  0  0  0  0  0  0  0  0  0  0
  -13.5134    7.5062   -5.8435 C   0  0  0  0  0  0  0  0  0  0  0  0
  -13.6021    7.7251   -7.0377 O   0  0  0  0  0  0  0  0  0  0  0  0
   -8.1189    4.4219   -5.9552 O   0  0  0  0  0  0  0  0  0  0  0  0
   -8.7201    4.8518   -4.9645 C   0  0  0  0  0  0  0  0  0  0  0  0
   -8.3481    4.4675   -3.5778 C   0  0  0  0  0  0  0  0  0  0  0  0
   -9.7362    5.7231   -5.0610 N   0  0  0  0  0  0  0  0  0  0  0  0
  -10.1037    5.9167   -5.9537 H   0  0  0  0  0  0  0  0  0  0  0  0
  -13.5862    5.2646   -0.7750 O   0  0  0  0  0  0  0  0  0  0  0  0
  -14.7313    5.7247   -0.0431 C   0  0  0  0  0  0  0  0  0  0  0  0
  -12.3375    5.0336    1.6488 O   0  0  0  0  0  0  0  0  0  0  0  0
  -12.0011    3.6545    1.6235 C   0  0  0  0  0  0  0  0  0  0  0  0
   -9.9621    6.3475    2.1359 O   0  0  0  0  0  0  0  0  0  0  0  0
   -8.7034    6.9348    2.5027 C   0  0  0  0  0  0  0  0  0  0  0  0
  -15.9545    7.9247   -5.8099 O   0  0  0  0  0  0  0  0  0  0  0  0
  -17.1173    8.4615   -5.1745 C   0  0  0  0  0  0  0  0  0  0  0  0
 18 19  2  0  0  0
 19 20  1  0  0  0
 19 21  1  0  0  0
 21  1  1  0  0  0
  1  2  1  0  0  0
  1  4  1  0  0  0
  2  3  2  0  0  0
  2 12  1  0  0  0
  3 16  1  0  0  0
  4  5  1  0  0  0
  5  6  1  0  0  0
  6  7  2  0  0  0
  6 11  1  0  0  0
  7  8  1  0  0  0
  8  9  2  0  0  0
  8 27  1  0  0  0
  9 10  1  0  0  0
  9 25  1  0  0  0
 10 23  1  0  0  0
 10 11  2  0  0  0
 23 24  1  0  0  0
 25 26  1  0  0  0
 27 28  1  0  0  0
 11 12  1  0  0  0
 12 13  2  0  0  0
 13 14  1  0  0  0
 14 15  2  0  0  0
 15 16  1  0  0  0
 15 29  1  0  0  0
 16 17  2  0  0  0
 29 30  1  0  0  0
 21 22  1  0  0  0
M  END
> <minimizedAffinity>
-5.79542

$$$$
4LZR_LOC_A_201


 30 32  0  0  0  0  0  0  0  0999 V2000
   -8.9561    7.2471   -4.1773 C   0  0  0  0  0  0  0  0  0  0  0  0
   -9.5188    6.9310   -2.8045 C   0  0  0  0  0  0  0  0  0  0  0  0
   -8.7143    7.0668   -1.7326 C   0  0  0  0  0  0  0  0  0  0  0  0
   -8.4892    5.9859   -4.9133 C   0  0  0  0  0  0  0  0  0  0  0  0
   -9.5374    4.8693   -4.9369 C   0  0  0  0  0  0  0  0  0  0  0  0
  -10.9361    5.4206   -5.0963 C   0  0  0  0  0  0  0  0  0  0  0  0
  -11.5671    5.1742   -6.3083 C   0  0  0  0  0  0  0  0  0  0  0  0
  -12.8522    5.6412   -6.5405 C   0  0  0  0  0  0  0  0  0  0  0  0
  -13.5071    6.3724   -5.5472 C   0  0  0  0  0  0  0  0  0  0  0  0
  -12.8795    6.6348   -4.3309 C   0  0  0  0  0  0  0  0  0  0  0  0
  -11.5823    6.1663   -4.1034 C   0  0  0  0  0  0  0  0  0  0  0  0
  -10.9022    6.4240   -2.7886 C   0  0  0  0  0  0  0  0  0  0  0  0
  -11.6449    6.0456   -1.7395 C   0  0  0  0  0  0  0  0  0  0  0  0
  -11.3804    6.1253   -0.3142 C   0  0  0  0  0  0  0  0  0  0  0  0
  -10.2554    6.4686    0.3128 C   0  0  0  0  0  0  0  0  0  0  0  0
   -8.9841    6.8426   -0.3054 C   0  0  0  0  0  0  0  0  0  0  0  0
   -8.0451    7.0117    0.4506 O   0  0  0  0  0  0  0  0  0  0  0  0
   -7.0647   10.2289   -4.8466 O   0  0  0  0  0  0  0  0  0  0  0  0
   -8.0232    9.4614   -4.7050 C   0  0  0  0  0  0  0  0  0  0  0  0
   -9.3978    9.8129   -5.1478 C   0  0  0  0  0  0  0  0  0  0  0  0
   -7.8929    8.2384   -4.1680 N   0  0  0  0  0  0  0  0  0  0  0  0
   -7.0351    8.0009   -3.7473 H   0  0  0  0  0  0  0  0  0  0  0  0
  -13.5552    7.3769   -3.3942 O   0  0  0  0  0  0  0  0  0  0  0  0
  -13.3519    8.7960   -3.4531 C   0  0  0  0  0  0  0  0  0  0  0  0
  -14.7986    6.8172   -5.7665 O   0  0  0  0  0  0  0  0  0  0  0  0
  -14.9357    8.0049   -6.5323 C   0  0  0  0  0  0  0  0  0  0  0  0
  -13.4964    5.3851   -7.7311 O   0  0  0  0  0  0  0  0  0  0  0  0
  -12.8575    5.3044   -9.0153 C   0  0  0  0  0  0  0  0  0  0  0  0
  -10.2959    6.4675    1.7619 O   0  0  0  0  0  0  0  0  0  0  0  0
  -11.5364    6.4821    2.4724 C   0  0  0  0  0  0  0  0  0  0  0  0
 18 19  2  0  0  0
 19 20  1  0  0  0
 19 21  1  0  0  0
 21  1  1  0  0  0
  1  2  1  0  0  0
  1  4  1  0  0  0
  2  3  2  0  0  0
  2 12  1  0  0  0
  3 16  1  0  0  0
  4  5  1  0  0  0
  5  6  1  0  0  0
  6  7  2  0  0  0
  6 11  1  0  0  0
  7  8  1  0  0  0
  8  9  2  0  0  0
  8 27  1  0  0  0
  9 10  1  0  0  0
  9 25  1  0  0  0
 10 23  1  0  0  0
 10 11  2  0  0  0
 23 24  1  0  0  0
 25 26  1  0  0  0
 27 28  1  0  0  0
 11 12  1  0  0  0
 12 13  2  0  0  0
 13 14  1  0  0  0
 14 15  2  0  0  0
 15 16  1  0  0  0
 15 29  1  0  0  0
 16 17  2  0  0  0
 29 30  1  0  0  0
 21 22  1  0  0  0
M  END
> <minimizedAffinity>
-5.77576

$$$$
4LZR_LOC_A_201


 30 32  0  0  0  0  0  0  0  0999 V2000
  -11.4627    7.1796   -1.9313 C   0  0  0  0  0  0  0  0  0  0  0  0
  -10.6545    6.7779   -3.1505 C   0  0  0  0  0  0  0  0  0  0  0  0
  -11.2852    6.1511   -4.1624 C   0  0  0  0  0  0  0  0  0  0  0  0
  -11.3406    6.1566   -0.7960 C   0  0  0  0  0  0  0  0  0  0  0  0
   -9.8926    5.7863   -0.4608 C   0  0  0  0  0  0  0  0  0  0  0  0
   -8.9724    6.9810   -0.5675 C   0  0  0  0  0  0  0  0  0  0  0  0
   -8.4548    7.4754    0.6222 C   0  0  0  0  0  0  0  0  0  0  0  0
   -7.6005    8.5679    0.6181 C   0  0  0  0  0  0  0  0  0  0  0  0
   -7.2701    9.1767   -0.5946 C   0  0  0  0  0  0  0  0  0  0  0  0
   -7.7920    8.6956   -1.7939 C   0  0  0  0  0  0  0  0  0  0  0  0
   -8.6566    7.5973   -1.7841 C   0  0  0  0  0  0  0  0  0  0  0  0
   -9.2096    7.0555   -3.0719 C   0  0  0  0  0  0  0  0  0  0  0  0
   -8.2549    6.7944   -3.9751 C   0  0  0  0  0  0  0  0  0  0  0  0
   -8.3484    6.2822   -5.3304 C   0  0  0  0  0  0  0  0  0  0  0  0
   -9.4115    5.8014   -5.9745 C   0  0  0  0  0  0  0  0  0  0  0  0
  -10.7683    5.6602   -5.4476 C   0  0  0  0  0  0  0  0  0  0  0  0
  -11.5700    5.0914   -6.1657 O   0  0  0  0  0  0  0  0  0  0  0  0
  -14.6988    8.7427   -1.9645 O   0  0  0  0  0  0  0  0  0  0  0  0
  -13.4745    8.5946   -1.8812 C   0  0  0  0  0  0  0  0  0  0  0  0
  -12.5748    9.6649   -1.3770 C   0  0  0  0  0  0  0  0  0  0  0  0
  -12.8643    7.4457   -2.2107 N   0  0  0  0  0  0  0  0  0  0  0  0
  -13.3918    6.7488   -2.6639 H   0  0  0  0  0  0  0  0  0  0  0  0
   -7.4559    9.3412   -2.9579 O   0  0  0  0  0  0  0  0  0  0  0  0
   -8.2650   10.4750   -3.3021 C   0  0  0  0  0  0  0  0  0  0  0  0
   -6.3978   10.2504   -0.6040 O   0  0  0  0  0  0  0  0  0  0  0  0
   -5.0175    9.9414   -0.7265 C   0  0  0  0  0  0  0  0  0  0  0  0
   -7.0642    9.0544    1.7901 O   0  0  0  0  0  0  0  0  0  0  0  0
   -7.3212    8.5222    3.0996 C   0  0  0  0  0  0  0  0  0  0  0  0
   -9.1991    5.3690   -7.3419 O   0  0  0  0  0  0  0  0  0  0  0  0
   -8.9589    6.3094   -8.3915 C   0  0  0  0  0  0  0  0  0  0  0  0
 18 19  2  0  0  0
 19 20  1  0  0  0
 19 21  1  0  0  0
 21  1  1  0  0  0
  1  2  1  0  0  0
  1  4  1  0  0  0
  2  3  2  0  0  0
  2 12  1  0  0  0
  3 16  1  0  0  0
  4  5  1  0  0  0
  5  6  1  0  0  0
  6  7  2  0  0  0
  6 11  1  0  0  0
  7  8  1  0  0  0
  8  9  2  0  0  0
  8 27  1  0  0  0
  9 10  1  0  0  0
  9 25  1  0  0  0
 10 23  1  0  0  0
 10 11  2  0  0  0
 23 24  1  0  0  0
 25 26  1  0  0  0
 27 28  1  0  0  0
 11 12  1  0  0  0
 12 13  2  0  0  0
 13 14  1  0  0  0
 14 15  2  0  0  0
 15 16  1  0  0  0
 15 29  1  0  0  0
 16 17  2  0  0  0
 29 30  1  0  0  0
 21 22  1  0  0  0
M  END
> <minimizedAffinity>
-5.76893

$$$$
