2WTV_ZZL_A_1390


 36 40  0  0  0  0  0  0  0  0999 V2000
    0.3927   -8.1379   -4.4459 C   0  0  0  0  0  0  0  0  0  0  0  0
    1.6776  -10.1996   -4.4244 C   0  0  0  0  0  0  0  0  0  0  0  0
    3.0530   -9.6680   -4.7441 C   0  0  0  0  0  0  0  0  0  0  0  0
    5.1756   -9.8977   -5.8307 C   0  0  0  0  0  0  0  0  0  0  0  0
    5.5980   -8.6783   -5.2659 C   0  0  0  0  0  0  0  0  0  0  0  0
    2.7545   -5.9685   -1.7083 C   0  0  0  0  0  0  0  0  0  0  0  0
    1.3804   -5.7964   -1.7487 N   0  0  0  0  0  0  0  0  0  0  0  0
    0.6498   -6.5133   -2.6340 C   0  0  0  0  0  0  0  0  0  0  0  0
    1.2864   -7.3915   -3.4472 C   0  0  0  0  0  0  0  0  0  0  0  0
    0.5924   -9.5588   -4.3246 N   0  0  0  0  0  0  0  0  0  0  0  0
    3.8973  -10.3986   -5.5618 C   0  0  0  0  0  0  0  0  0  0  0  0
    6.2184  -10.8225   -6.9419 Cl  0  0  0  0  0  0  0  0  0  0  0  0
    4.7422   -7.9478   -4.4348 C   0  0  0  0  0  0  0  0  0  0  0  0
    3.4664   -8.4562   -4.1746 C   0  0  0  0  0  0  0  0  0  0  0  0
    2.6808   -7.5733   -3.3939 C   0  0  0  0  0  0  0  0  0  0  0  0
    3.4109   -6.8667   -2.5511 N   0  0  0  0  0  0  0  0  0  0  0  0
    2.3454  -12.2099   -3.0357 C   0  0  0  0  0  0  0  0  0  0  0  0
    1.9531  -14.4777   -3.8063 C   0  0  0  0  0  0  0  0  0  0  0  0
    1.3464  -13.9743   -4.9620 C   0  0  0  0  0  0  0  0  0  0  0  0
    1.2473  -12.5891   -5.1531 C   0  0  0  0  0  0  0  0  0  0  0  0
    1.7443  -11.7025   -4.1902 C   0  0  0  0  0  0  0  0  0  0  0  0
    2.7957  -11.3576   -2.0748 F   0  0  0  0  0  0  0  0  0  0  0  0
    2.4522  -13.5916   -2.8463 C   0  0  0  0  0  0  0  0  0  0  0  0
    0.6279  -12.1028   -6.2665 F   0  0  0  0  0  0  0  0  0  0  0  0
    3.5371   -5.1647   -0.8112 N   0  0  0  0  0  0  0  0  0  0  0  0
    3.0130   -4.4308   -0.4162 H   0  0  0  0  0  0  0  0  0  0  0  0
    7.5808   -5.1164    0.3276 C   0  0  0  0  0  0  0  0  0  0  0  0
    7.0871   -6.1989   -0.4056 C   0  0  0  0  0  0  0  0  0  0  0  0
    5.7338   -6.2256   -0.7450 C   0  0  0  0  0  0  0  0  0  0  0  0
    4.9016   -5.1696   -0.3481 C   0  0  0  0  0  0  0  0  0  0  0  0
    5.3968   -4.0870    0.3741 C   0  0  0  0  0  0  0  0  0  0  0  0
    6.7498   -4.0648    0.7172 C   0  0  0  0  0  0  0  0  0  0  0  0
    9.6093   -4.0470    0.7356 O   0  0  0  0  0  0  0  0  0  0  0  0
    9.0478   -5.0862    0.7023 C   0  0  0  0  0  0  0  0  0  0  0  0
    9.7139   -6.2771    1.0013 O   0  0  0  0  0  0  0  0  0  0  0  0
    9.2530   -7.0923    0.9699 H   0  0  0  0  0  0  0  0  0  0  0  0
  1  9  1  0  0  0
  1 10  1  0  0  0
  2  3  1  0  0  0
  2 10  2  0  0  0
  2 21  1  0  0  0
 17 21  1  0  0  0
 17 22  1  0  0  0
 17 23  2  0  0  0
 18 19  2  0  0  0
 18 23  1  0  0  0
 19 20  1  0  0  0
 20 21  2  0  0  0
 20 24  1  0  0  0
  3 11  1  0  0  0
  3 14  2  0  0  0
  4  5  1  0  0  0
  4 11  2  0  0  0
  4 12  1  0  0  0
  5 13  2  0  0  0
 33 34  2  0  0  0
 34 35  1  0  0  0
 34 27  1  0  0  0
 27 28  1  0  0  0
 27 32  2  0  0  0
 28 29  2  0  0  0
 29 30  1  0  0  0
 30 25  1  0  0  0
 30 31  2  0  0  0
 25  6  1  0  0  0
  6  7  2  0  0  0
  6 16  1  0  0  0
  7  8  1  0  0  0
  8  9  2  0  0  0
  9 15  1  0  0  0
 13 14  1  0  0  0
 14 15  1  0  0  0
 15 16  2  0  0  0
 31 32  1  0  0  0
 35 36  1  0  0  0
 25 26  1  0  0  0
M  END
> <minimizedAffinity>
-11.73676

$$$$
2WTV_ZZL_A_1390


 36 40  0  0  0  0  0  0  0  0999 V2000
    0.4476   -8.1705   -4.4029 C   0  0  0  0  0  0  0  0  0  0  0  0
    1.7492  -10.2219   -4.3975 C   0  0  0  0  0  0  0  0  0  0  0  0
    3.1156   -9.6797   -4.7375 C   0  0  0  0  0  0  0  0  0  0  0  0
    5.2242   -9.8937   -5.8541 C   0  0  0  0  0  0  0  0  0  0  0  0
    5.6449   -8.6703   -5.2966 C   0  0  0  0  0  0  0  0  0  0  0  0
    2.8309   -5.9791   -1.7016 C   0  0  0  0  0  0  0  0  0  0  0  0
    1.4551   -5.8180   -1.7225 N   0  0  0  0  0  0  0  0  0  0  0  0
    0.7176   -6.5418   -2.5965 C   0  0  0  0  0  0  0  0  0  0  0  0
    1.3496   -7.4158   -3.4178 C   0  0  0  0  0  0  0  0  0  0  0  0
    0.6604   -9.5897   -4.2829 N   0  0  0  0  0  0  0  0  0  0  0  0
    3.9539  -10.4044   -5.5664 C   0  0  0  0  0  0  0  0  0  0  0  0
    6.2584  -10.8115   -6.9792 Cl  0  0  0  0  0  0  0  0  0  0  0  0
    4.7952   -7.9457   -4.4542 C   0  0  0  0  0  0  0  0  0  0  0  0
    3.5274   -8.4639   -4.1752 C   0  0  0  0  0  0  0  0  0  0  0  0
    2.7459   -7.5864   -3.3843 C   0  0  0  0  0  0  0  0  0  0  0  0
    3.4823   -6.8730   -2.5528 N   0  0  0  0  0  0  0  0  0  0  0  0
    1.2838  -12.6131   -5.0907 C   0  0  0  0  0  0  0  0  0  0  0  0
    1.8974  -14.4908   -3.6805 C   0  0  0  0  0  0  0  0  0  0  0  0
    2.4508  -13.6044   -2.7504 C   0  0  0  0  0  0  0  0  0  0  0  0
    2.4127  -12.2240   -2.9914 C   0  0  0  0  0  0  0  0  0  0  0  0
    1.8312  -11.7239   -4.1628 C   0  0  0  0  0  0  0  0  0  0  0  0
    0.7521  -12.1406   -6.2511 F   0  0  0  0  0  0  0  0  0  0  0  0
    1.3138  -13.9905   -4.8489 C   0  0  0  0  0  0  0  0  0  0  0  0
    2.9805  -11.3655   -2.0967 F   0  0  0  0  0  0  0  0  0  0  0  0
    3.6198   -5.1681   -0.8166 N   0  0  0  0  0  0  0  0  0  0  0  0
    3.0629   -4.6496   -0.1919 H   0  0  0  0  0  0  0  0  0  0  0  0
    7.7139   -4.6060   -0.0594 C   0  0  0  0  0  0  0  0  0  0  0  0
    6.7725   -3.9226    0.7150 C   0  0  0  0  0  0  0  0  0  0  0  0
    5.4160   -4.0845    0.4305 C   0  0  0  0  0  0  0  0  0  0  0  0
    5.0269   -4.9276   -0.6197 C   0  0  0  0  0  0  0  0  0  0  0  0
    5.9655   -5.6154   -1.3844 C   0  0  0  0  0  0  0  0  0  0  0  0
    7.3222   -5.4480   -1.1014 C   0  0  0  0  0  0  0  0  0  0  0  0
    9.7451   -5.2555    0.8770 O   0  0  0  0  0  0  0  0  0  0  0  0
    9.1872   -4.4289    0.2431 C   0  0  0  0  0  0  0  0  0  0  0  0
    9.8630   -3.3003   -0.2266 O   0  0  0  0  0  0  0  0  0  0  0  0
    9.4047   -2.6547   -0.7279 H   0  0  0  0  0  0  0  0  0  0  0  0
  1  9  1  0  0  0
  1 10  1  0  0  0
  2  3  1  0  0  0
  2 10  2  0  0  0
  2 21  1  0  0  0
 17 21  1  0  0  0
 17 22  1  0  0  0
 17 23  2  0  0  0
 18 19  2  0  0  0
 18 23  1  0  0  0
 19 20  1  0  0  0
 20 21  2  0  0  0
 20 24  1  0  0  0
  3 11  1  0  0  0
  3 14  2  0  0  0
  4  5  1  0  0  0
  4 11  2  0  0  0
  4 12  1  0  0  0
  5 13  2  0  0  0
 33 34  2  0  0  0
 34 35  1  0  0  0
 34 27  1  0  0  0
 27 28  1  0  0  0
 27 32  2  0  0  0
 28 29  2  0  0  0
 29 30  1  0  0  0
 30 25  1  0  0  0
 30 31  2  0  0  0
 25  6  1  0  0  0
  6  7  2  0  0  0
  6 16  1  0  0  0
  7  8  1  0  0  0
  8  9  2  0  0  0
  9 15  1  0  0  0
 13 14  1  0  0  0
 14 15  1  0  0  0
 15 16  2  0  0  0
 31 32  1  0  0  0
 35 36  1  0  0  0
 25 26  1  0  0  0
M  END
> <minimizedAffinity>
-11.50435

$$$$
2WTV_ZZL_A_1390


 36 40  0  0  0  0  0  0  0  0999 V2000
    1.6422   -7.5119   -3.6287 C   0  0  0  0  0  0  0  0  0  0  0  0
    2.4049   -9.7968   -3.9445 C   0  0  0  0  0  0  0  0  0  0  0  0
    3.7462   -9.5506   -4.5901 C   0  0  0  0  0  0  0  0  0  0  0  0
    5.4413  -10.1570   -6.1706 C   0  0  0  0  0  0  0  0  0  0  0  0
    6.2462   -9.0935   -5.7171 C   0  0  0  0  0  0  0  0  0  0  0  0
    5.0115   -6.0722   -1.5420 C   0  0  0  0  0  0  0  0  0  0  0  0
    3.7412   -5.6096   -1.2392 N   0  0  0  0  0  0  0  0  0  0  0  0
    2.6795   -6.0973   -1.9224 C   0  0  0  0  0  0  0  0  0  0  0  0
    2.8918   -7.0374   -2.8758 C   0  0  0  0  0  0  0  0  0  0  0  0
    1.5451   -8.9476   -3.5733 N   0  0  0  0  0  0  0  0  0  0  0  0
    4.1863  -10.3906   -5.5980 C   0  0  0  0  0  0  0  0  0  0  0  0
    5.9557  -11.2101   -7.5138 Cl  0  0  0  0  0  0  0  0  0  0  0  0
    5.7983   -8.2520   -4.6934 C   0  0  0  0  0  0  0  0  0  0  0  0
    4.5421   -8.4929   -4.1299 C   0  0  0  0  0  0  0  0  0  0  0  0
    4.1822   -7.5145   -3.1711 C   0  0  0  0  0  0  0  0  0  0  0  0
    5.2309   -7.0341   -2.5291 N   0  0  0  0  0  0  0  0  0  0  0  0
    2.8252  -11.9619   -2.6990 C   0  0  0  0  0  0  0  0  0  0  0  0
    1.8722  -14.0659   -3.4443 C   0  0  0  0  0  0  0  0  0  0  0  0
    1.2315  -13.3980   -4.4933 C   0  0  0  0  0  0  0  0  0  0  0  0
    1.3956  -12.0141   -4.6450 C   0  0  0  0  0  0  0  0  0  0  0  0
    2.1909  -11.2912   -3.7476 C   0  0  0  0  0  0  0  0  0  0  0  0
    3.5679  -11.2631   -1.7976 F   0  0  0  0  0  0  0  0  0  0  0  0
    2.6690  -13.3439   -2.5501 C   0  0  0  0  0  0  0  0  0  0  0  0
    0.7448  -11.3623   -5.6506 F   0  0  0  0  0  0  0  0  0  0  0  0
    6.1443   -5.5116   -0.8595 N   0  0  0  0  0  0  0  0  0  0  0  0
    6.9242   -6.1122   -0.8779 H   0  0  0  0  0  0  0  0  0  0  0  0
    7.0391   -2.0607    1.3635 C   0  0  0  0  0  0  0  0  0  0  0  0
    5.9423   -2.8466    1.7277 C   0  0  0  0  0  0  0  0  0  0  0  0
    5.6289   -3.9687    0.9597 C   0  0  0  0  0  0  0  0  0  0  0  0
    6.4185   -4.2851   -0.1546 C   0  0  0  0  0  0  0  0  0  0  0  0
    7.5167   -3.5066   -0.5107 C   0  0  0  0  0  0  0  0  0  0  0  0
    7.8255   -2.3816    0.2559 C   0  0  0  0  0  0  0  0  0  0  0  0
    8.0772   -0.0074    1.7253 O   0  0  0  0  0  0  0  0  0  0  0  0
    7.3795   -0.8393    2.1916 C   0  0  0  0  0  0  0  0  0  0  0  0
    6.8689   -0.7119    3.4856 O   0  0  0  0  0  0  0  0  0  0  0  0
    6.3171   -1.3814    3.8395 H   0  0  0  0  0  0  0  0  0  0  0  0
  1  9  1  0  0  0
  1 10  1  0  0  0
  2  3  1  0  0  0
  2 10  2  0  0  0
  2 21  1  0  0  0
 17 21  1  0  0  0
 17 22  1  0  0  0
 17 23  2  0  0  0
 18 19  2  0  0  0
 18 23  1  0  0  0
 19 20  1  0  0  0
 20 21  2  0  0  0
 20 24  1  0  0  0
  3 11  1  0  0  0
  3 14  2  0  0  0
  4  5  1  0  0  0
  4 11  2  0  0  0
  4 12  1  0  0  0
  5 13  2  0  0  0
 33 34  2  0  0  0
 34 35  1  0  0  0
 34 27  1  0  0  0
 27 28  1  0  0  0
 27 32  2  0  0  0
 28 29  2  0  0  0
 29 30  1  0  0  0
 30 25  1  0  0  0
 30 31  2  0  0  0
 25  6  1  0  0  0
  6  7  2  0  0  0
  6 16  1  0  0  0
  7  8  1  0  0  0
  8  9  2  0  0  0
  9 15  1  0  0  0
 13 14  1  0  0  0
 14 15  1  0  0  0
 15 16  2  0  0  0
 31 32  1  0  0  0
 35 36  1  0  0  0
 25 26  1  0  0  0
M  END
> <minimizedAffinity>
-9.99437

$$$$
