4CG9_GQG_A_0


 22 24  0  0  0  0  0  0  0  0999 V2000
  -16.3202    8.4945    8.2624 C   0  0  0  0  0  0  0  0  0  0  0  0
  -16.7683    7.1713    8.2772 C   0  0  0  0  0  0  0  0  0  0  0  0
  -16.8675    6.4616    7.0708 C   0  0  0  0  0  0  0  0  0  0  0  0
  -15.9386    9.0804    7.0530 C   0  0  0  0  0  0  0  0  0  0  0  0
  -16.0317    8.3806    5.8487 C   0  0  0  0  0  0  0  0  0  0  0  0
  -16.4945    7.0633    5.8541 C   0  0  0  0  0  0  0  0  0  0  0  0
  -16.5846    6.3432    4.6532 C   0  0  0  0  0  0  0  0  0  0  0  0
  -17.7707    5.6691    4.3358 C   0  0  0  0  0  0  0  0  0  0  0  0
  -17.8877    4.9545    3.1457 C   0  0  0  0  0  0  0  0  0  0  0  0
  -15.5079    6.3082    3.7574 C   0  0  0  0  0  0  0  0  0  0  0  0
  -15.6275    5.5987    2.5582 C   0  0  0  0  0  0  0  0  0  0  0  0
  -16.8118    4.9236    2.2508 C   0  0  0  0  0  0  0  0  0  0  0  0
  -16.1816    9.2134    9.4630 C   0  0  0  0  0  0  0  0  0  0  0  0
  -19.4844   11.9720    9.3011 C   0  0  0  0  0  0  0  0  0  0  0  0
  -19.6720   10.6233    8.9980 C   0  0  0  0  0  0  0  0  0  0  0  0
  -18.5931    9.7503    9.0556 C   0  0  0  0  0  0  0  0  0  0  0  0
  -18.2025   12.4187    9.6579 C   0  0  0  0  0  0  0  0  0  0  0  0
  -17.1079   11.5482    9.7335 C   0  0  0  0  0  0  0  0  0  0  0  0
  -17.3056   10.1915    9.4414 N   0  0  0  0  0  0  0  0  0  0  0  0
  -20.3144   14.2746    9.2554 C   0  0  0  0  0  0  0  0  0  0  0  0
  -20.5298   12.8147    9.2110 N   0  0  0  0  0  0  0  0  0  0  0  0
  -21.8697   12.2543    8.9444 C   0  0  0  0  0  0  0  0  0  0  0  0
 20 21  1  0  0  0
 21 22  1  0  0  0
 21 14  1  0  0  0
 14 15  2  0  0  0
 14 17  1  0  0  0
 15 16  1  0  0  0
 16 19  2  0  0  0
 17 18  2  0  0  0
 18 19  1  0  0  0
 19 13  1  0  0  0
 13  1  1  0  0  0
  1  2  1  0  0  0
  1  4  2  0  0  0
  2  3  2  0  0  0
  3  6  1  0  0  0
  4  5  1  0  0  0
  5  6  2  0  0  0
  6  7  1  0  0  0
  7  8  1  0  0  0
  7 10  2  0  0  0
  8  9  2  0  0  0
  9 12  1  0  0  0
 10 11  1  0  0  0
 11 12  2  0  0  0
M  CHG 1  19   1
M  END
> <minimizedAffinity>
-9.60198

$$$$
4CG9_GQG_A_0


 22 24  0  0  0  0  0  0  0  0999 V2000
  -16.2138    8.4936    8.1321 C   0  0  0  0  0  0  0  0  0  0  0  0
  -15.8574    9.0509    6.9017 C   0  0  0  0  0  0  0  0  0  0  0  0
  -16.0265    8.3005    5.7280 C   0  0  0  0  0  0  0  0  0  0  0  0
  -16.7713    7.2133    8.1744 C   0  0  0  0  0  0  0  0  0  0  0  0
  -16.9454    6.4612    7.0113 C   0  0  0  0  0  0  0  0  0  0  0  0
  -16.5759    7.0056    5.7799 C   0  0  0  0  0  0  0  0  0  0  0  0
  -16.7537    6.2660    4.6008 C   0  0  0  0  0  0  0  0  0  0  0  0
  -15.7111    6.1849    3.6689 C   0  0  0  0  0  0  0  0  0  0  0  0
  -15.8603    5.4499    2.4949 C   0  0  0  0  0  0  0  0  0  0  0  0
  -17.9559    5.5899    4.3547 C   0  0  0  0  0  0  0  0  0  0  0  0
  -18.1034    4.8443    3.1807 C   0  0  0  0  0  0  0  0  0  0  0  0
  -17.0611    4.7727    2.2526 C   0  0  0  0  0  0  0  0  0  0  0  0
  -16.0837    9.2399    9.3169 C   0  0  0  0  0  0  0  0  0  0  0  0
  -19.4623   11.9034    9.1297 C   0  0  0  0  0  0  0  0  0  0  0  0
  -19.5234   10.6389    8.5437 C   0  0  0  0  0  0  0  0  0  0  0  0
  -18.4221    9.7954    8.6149 C   0  0  0  0  0  0  0  0  0  0  0  0
  -18.2825   12.2972    9.7799 C   0  0  0  0  0  0  0  0  0  0  0  0
  -17.1687   11.4529    9.8717 C   0  0  0  0  0  0  0  0  0  0  0  0
  -17.2411   10.1782    9.2931 N   0  0  0  0  0  0  0  0  0  0  0  0
  -21.8873   12.1678    8.9241 C   0  0  0  0  0  0  0  0  0  0  0  0
  -20.5237   12.7244    9.0269 N   0  0  0  0  0  0  0  0  0  0  0  0
  -20.3065   14.1803    9.1436 C   0  0  0  0  0  0  0  0  0  0  0  0
 20 21  1  0  0  0
 21 22  1  0  0  0
 21 14  1  0  0  0
 14 15  2  0  0  0
 14 17  1  0  0  0
 15 16  1  0  0  0
 16 19  2  0  0  0
 17 18  2  0  0  0
 18 19  1  0  0  0
 19 13  1  0  0  0
 13  1  1  0  0  0
  1  2  1  0  0  0
  1  4  2  0  0  0
  2  3  2  0  0  0
  3  6  1  0  0  0
  4  5  1  0  0  0
  5  6  2  0  0  0
  6  7  1  0  0  0
  7  8  1  0  0  0
  7 10  2  0  0  0
  8  9  2  0  0  0
  9 12  1  0  0  0
 10 11  1  0  0  0
 11 12  2  0  0  0
M  CHG 1  19   1
M  END
> <minimizedAffinity>
-9.41896

$$$$
4CG9_GQG_A_0


 22 24  0  0  0  0  0  0  0  0999 V2000
  -16.9908    7.9307    7.8697 C   0  0  0  0  0  0  0  0  0  0  0  0
  -17.2537    8.2769    9.1974 C   0  0  0  0  0  0  0  0  0  0  0  0
  -18.0466    9.4010    9.4746 C   0  0  0  0  0  0  0  0  0  0  0  0
  -17.5534    8.6832    6.8359 C   0  0  0  0  0  0  0  0  0  0  0  0
  -18.3454    9.8013    7.1029 C   0  0  0  0  0  0  0  0  0  0  0  0
  -18.5985   10.1628    8.4276 C   0  0  0  0  0  0  0  0  0  0  0  0
  -19.4008   11.2782    8.7124 C   0  0  0  0  0  0  0  0  0  0  0  0
  -18.8125   12.4452    9.2167 C   0  0  0  0  0  0  0  0  0  0  0  0
  -19.5865   13.5685    9.4993 C   0  0  0  0  0  0  0  0  0  0  0  0
  -20.7817   11.2449    8.4783 C   0  0  0  0  0  0  0  0  0  0  0  0
  -21.5582   12.3752    8.7530 C   0  0  0  0  0  0  0  0  0  0  0  0
  -20.9655   13.5340    9.2616 C   0  0  0  0  0  0  0  0  0  0  0  0
  -16.2264    6.7894    7.5689 C   0  0  0  0  0  0  0  0  0  0  0  0
  -17.3283    5.7447    3.5391 C   0  0  0  0  0  0  0  0  0  0  0  0
  -18.1943    5.4831    4.6011 C   0  0  0  0  0  0  0  0  0  0  0  0
  -17.8192    5.8274    5.8934 C   0  0  0  0  0  0  0  0  0  0  0  0
  -16.0905    6.3518    3.8024 C   0  0  0  0  0  0  0  0  0  0  0  0
  -15.7040    6.7170    5.0982 C   0  0  0  0  0  0  0  0  0  0  0  0
  -16.5843    6.4643    6.1594 N   0  0  0  0  0  0  0  0  0  0  0  0
  -18.6602    6.1870    1.5333 C   0  0  0  0  0  0  0  0  0  0  0  0
  -17.6884    5.3779    2.2954 N   0  0  0  0  0  0  0  0  0  0  0  0
  -17.0028    4.2294    1.6696 C   0  0  0  0  0  0  0  0  0  0  0  0
 20 21  1  0  0  0
 21 22  1  0  0  0
 21 14  1  0  0  0
 14 15  2  0  0  0
 14 17  1  0  0  0
 15 16  1  0  0  0
 16 19  2  0  0  0
 17 18  2  0  0  0
 18 19  1  0  0  0
 19 13  1  0  0  0
 13  1  1  0  0  0
  1  2  1  0  0  0
  1  4  2  0  0  0
  2  3  2  0  0  0
  3  6  1  0  0  0
  4  5  1  0  0  0
  5  6  2  0  0  0
  6  7  1  0  0  0
  7  8  1  0  0  0
  7 10  2  0  0  0
  8  9  2  0  0  0
  9 12  1  0  0  0
 10 11  1  0  0  0
 11 12  2  0  0  0
M  CHG 1  19   1
M  END
> <minimizedAffinity>
-8.44848

$$$$
4CG9_GQG_A_0


 22 24  0  0  0  0  0  0  0  0999 V2000
  -16.7125    6.5255    6.3968 C   0  0  0  0  0  0  0  0  0  0  0  0
  -17.8297    5.8456    5.9057 C   0  0  0  0  0  0  0  0  0  0  0  0
  -17.9077    5.5416    4.5380 C   0  0  0  0  0  0  0  0  0  0  0  0
  -15.6699    6.8579    5.5284 C   0  0  0  0  0  0  0  0  0  0  0  0
  -15.7383    6.5568    4.1670 C   0  0  0  0  0  0  0  0  0  0  0  0
  -16.8594    5.8921    3.6664 C   0  0  0  0  0  0  0  0  0  0  0  0
  -16.9388    5.5737    2.3022 C   0  0  0  0  0  0  0  0  0  0  0  0
  -17.6848    6.3893    1.4416 C   0  0  0  0  0  0  0  0  0  0  0  0
  -17.7718    6.0989    0.0819 C   0  0  0  0  0  0  0  0  0  0  0  0
  -16.2627    4.4600    1.7868 C   0  0  0  0  0  0  0  0  0  0  0  0
  -16.3420    4.1729    0.4204 C   0  0  0  0  0  0  0  0  0  0  0  0
  -17.0929    4.9876   -0.4312 C   0  0  0  0  0  0  0  0  0  0  0  0
  -16.5984    6.8110    7.7690 C   0  0  0  0  0  0  0  0  0  0  0  0
  -18.6824   10.5321    8.3651 C   0  0  0  0  0  0  0  0  0  0  0  0
  -18.2272    9.7920    9.4565 C   0  0  0  0  0  0  0  0  0  0  0  0
  -17.5578    8.5939    9.2423 C   0  0  0  0  0  0  0  0  0  0  0  0
  -18.4536   10.0458    7.0685 C   0  0  0  0  0  0  0  0  0  0  0  0
  -17.7684    8.8465    6.8361 C   0  0  0  0  0  0  0  0  0  0  0  0
  -17.3013    8.1143    7.9364 N   0  0  0  0  0  0  0  0  0  0  0  0
  -20.6293   11.9351    7.8817 C   0  0  0  0  0  0  0  0  0  0  0  0
  -19.3576   11.6752    8.5853 N   0  0  0  0  0  0  0  0  0  0  0  0
  -18.8667   12.5977    9.6285 C   0  0  0  0  0  0  0  0  0  0  0  0
 20 21  1  0  0  0
 21 22  1  0  0  0
 21 14  1  0  0  0
 14 15  2  0  0  0
 14 17  1  0  0  0
 15 16  1  0  0  0
 16 19  2  0  0  0
 17 18  2  0  0  0
 18 19  1  0  0  0
 19 13  1  0  0  0
 13  1  1  0  0  0
  1  2  1  0  0  0
  1  4  2  0  0  0
  2  3  2  0  0  0
  3  6  1  0  0  0
  4  5  1  0  0  0
  5  6  2  0  0  0
  6  7  1  0  0  0
  7  8  1  0  0  0
  7 10  2  0  0  0
  8  9  2  0  0  0
  9 12  1  0  0  0
 10 11  1  0  0  0
 11 12  2  0  0  0
M  CHG 1  19   1
M  END
> <minimizedAffinity>
-8.07627

$$$$
4CG9_GQG_A_0


 22 24  0  0  0  0  0  0  0  0999 V2000
  -15.7384    6.7903    4.4282 C   0  0  0  0  0  0  0  0  0  0  0  0
  -16.7520    6.1668    5.1599 C   0  0  0  0  0  0  0  0  0  0  0  0
  -17.3224    6.8317    6.2561 C   0  0  0  0  0  0  0  0  0  0  0  0
  -15.3341    8.0827    4.7717 C   0  0  0  0  0  0  0  0  0  0  0  0
  -15.8982    8.7523    5.8590 C   0  0  0  0  0  0  0  0  0  0  0  0
  -16.9001    8.1284    6.6049 C   0  0  0  0  0  0  0  0  0  0  0  0
  -17.4838    8.7921    7.6947 C   0  0  0  0  0  0  0  0  0  0  0  0
  -17.1576    8.4024    9.0000 C   0  0  0  0  0  0  0  0  0  0  0  0
  -17.7173    9.0515   10.0983 C   0  0  0  0  0  0  0  0  0  0  0  0
  -18.3739    9.8550    7.4919 C   0  0  0  0  0  0  0  0  0  0  0  0
  -18.9293   10.5131    8.5938 C   0  0  0  0  0  0  0  0  0  0  0  0
  -18.6039   10.1150    9.8932 C   0  0  0  0  0  0  0  0  0  0  0  0
  -15.1760    6.1559    3.3062 C   0  0  0  0  0  0  0  0  0  0  0  0
  -16.0300    8.8408    0.0495 C   0  0  0  0  0  0  0  0  0  0  0  0
  -14.7212    8.6671    0.5001 C   0  0  0  0  0  0  0  0  0  0  0  0
  -14.4675    7.7967    1.5525 C   0  0  0  0  0  0  0  0  0  0  0  0
  -17.0662    8.1296    0.6741 C   0  0  0  0  0  0  0  0  0  0  0  0
  -16.8245    7.2384    1.7273 C   0  0  0  0  0  0  0  0  0  0  0  0
  -15.5057    7.0574    2.1664 N   0  0  0  0  0  0  0  0  0  0  0  0
  -17.6427    9.9102   -1.4500 C   0  0  0  0  0  0  0  0  0  0  0  0
  -16.2681    9.7106   -0.9495 N   0  0  0  0  0  0  0  0  0  0  0  0
  -15.1534   10.5433   -1.4439 C   0  0  0  0  0  0  0  0  0  0  0  0
 20 21  1  0  0  0
 21 22  1  0  0  0
 21 14  1  0  0  0
 14 15  2  0  0  0
 14 17  1  0  0  0
 15 16  1  0  0  0
 16 19  2  0  0  0
 17 18  2  0  0  0
 18 19  1  0  0  0
 19 13  1  0  0  0
 13  1  1  0  0  0
  1  2  1  0  0  0
  1  4  2  0  0  0
  2  3  2  0  0  0
  3  6  1  0  0  0
  4  5  1  0  0  0
  5  6  2  0  0  0
  6  7  1  0  0  0
  7  8  1  0  0  0
  7 10  2  0  0  0
  8  9  2  0  0  0
  9 12  1  0  0  0
 10 11  1  0  0  0
 11 12  2  0  0  0
M  CHG 1  19   1
M  END
> <minimizedAffinity>
-7.69330

$$$$
4CG9_GQG_A_0


 22 24  0  0  0  0  0  0  0  0999 V2000
  -17.8201    6.3547    5.3194 C   0  0  0  0  0  0  0  0  0  0  0  0
  -17.3492    6.0751    6.6046 C   0  0  0  0  0  0  0  0  0  0  0  0
  -17.2444    7.1129    7.5433 C   0  0  0  0  0  0  0  0  0  0  0  0
  -18.2183    7.6546    4.9979 C   0  0  0  0  0  0  0  0  0  0  0  0
  -18.1197    8.6922    5.9265 C   0  0  0  0  0  0  0  0  0  0  0  0
  -17.6344    8.4231    7.2077 C   0  0  0  0  0  0  0  0  0  0  0  0
  -17.5385    9.4533    8.1555 C   0  0  0  0  0  0  0  0  0  0  0  0
  -18.4637   10.5048    8.1332 C   0  0  0  0  0  0  0  0  0  0  0  0
  -18.3946   11.5346    9.0688 C   0  0  0  0  0  0  0  0  0  0  0  0
  -16.5397    9.4312    9.1377 C   0  0  0  0  0  0  0  0  0  0  0  0
  -16.4750   10.4598   10.0830 C   0  0  0  0  0  0  0  0  0  0  0  0
  -17.3978   11.5088   10.0511 C   0  0  0  0  0  0  0  0  0  0  0  0
  -17.9644    5.3242    4.3735 C   0  0  0  0  0  0  0  0  0  0  0  0
  -14.9675    6.0319    1.3631 C   0  0  0  0  0  0  0  0  0  0  0  0
  -16.2374    5.5780    1.0061 C   0  0  0  0  0  0  0  0  0  0  0  0
  -17.1893    5.3553    1.9928 C   0  0  0  0  0  0  0  0  0  0  0  0
  -14.6788    6.2529    2.7187 C   0  0  0  0  0  0  0  0  0  0  0  0
  -15.6322    6.0459    3.7237 C   0  0  0  0  0  0  0  0  0  0  0  0
  -16.9108    5.6032    3.3574 N   0  0  0  0  0  0  0  0  0  0  0  0
  -13.3682    7.5186    0.2565 C   0  0  0  0  0  0  0  0  0  0  0  0
  -14.0432    6.2136    0.4020 N   0  0  0  0  0  0  0  0  0  0  0  0
  -13.6340    5.0536   -0.4150 C   0  0  0  0  0  0  0  0  0  0  0  0
 20 21  1  0  0  0
 21 22  1  0  0  0
 21 14  1  0  0  0
 14 15  2  0  0  0
 14 17  1  0  0  0
 15 16  1  0  0  0
 16 19  2  0  0  0
 17 18  2  0  0  0
 18 19  1  0  0  0
 19 13  1  0  0  0
 13  1  1  0  0  0
  1  2  1  0  0  0
  1  4  2  0  0  0
  2  3  2  0  0  0
  3  6  1  0  0  0
  4  5  1  0  0  0
  5  6  2  0  0  0
  6  7  1  0  0  0
  7  8  1  0  0  0
  7 10  2  0  0  0
  8  9  2  0  0  0
  9 12  1  0  0  0
 10 11  1  0  0  0
 11 12  2  0  0  0
M  CHG 1  19   1
M  END
> <minimizedAffinity>
-7.56798

$$$$
4CG9_GQG_A_0


 22 24  0  0  0  0  0  0  0  0999 V2000
  -16.0669    9.3943    3.6915 C   0  0  0  0  0  0  0  0  0  0  0  0
  -17.3476    9.9159    3.8901 C   0  0  0  0  0  0  0  0  0  0  0  0
  -17.8790    9.9683    5.1878 C   0  0  0  0  0  0  0  0  0  0  0  0
  -15.3166    8.9695    4.7907 C   0  0  0  0  0  0  0  0  0  0  0  0
  -15.8367    9.0205    6.0851 C   0  0  0  0  0  0  0  0  0  0  0  0
  -17.1224    9.5253    6.2891 C   0  0  0  0  0  0  0  0  0  0  0  0
  -17.6556    9.5923    7.5852 C   0  0  0  0  0  0  0  0  0  0  0  0
  -17.0615    8.8566    8.6186 C   0  0  0  0  0  0  0  0  0  0  0  0
  -17.5671    8.9132    9.9155 C   0  0  0  0  0  0  0  0  0  0  0  0
  -18.7636   10.4039    7.8621 C   0  0  0  0  0  0  0  0  0  0  0  0
  -19.2663   10.4685    9.1655 C   0  0  0  0  0  0  0  0  0  0  0  0
  -18.6723    9.7272   10.1903 C   0  0  0  0  0  0  0  0  0  0  0  0
  -15.5021    9.3629    2.4041 C   0  0  0  0  0  0  0  0  0  0  0  0
  -15.3365    5.2091    1.2804 C   0  0  0  0  0  0  0  0  0  0  0  0
  -14.1768    5.9843    1.3019 C   0  0  0  0  0  0  0  0  0  0  0  0
  -14.2523    7.3224    1.6666 C   0  0  0  0  0  0  0  0  0  0  0  0
  -16.5598    5.8026    1.6283 C   0  0  0  0  0  0  0  0  0  0  0  0
  -16.6499    7.1469    2.0113 C   0  0  0  0  0  0  0  0  0  0  0  0
  -15.4791    7.9170    2.0444 N   0  0  0  0  0  0  0  0  0  0  0  0
  -16.3375    3.3182    0.0908 C   0  0  0  0  0  0  0  0  0  0  0  0
  -15.2565    3.9222    0.8947 N   0  0  0  0  0  0  0  0  0  0  0  0
  -14.0182    3.1719    1.1847 C   0  0  0  0  0  0  0  0  0  0  0  0
 20 21  1  0  0  0
 21 22  1  0  0  0
 21 14  1  0  0  0
 14 15  2  0  0  0
 14 17  1  0  0  0
 15 16  1  0  0  0
 16 19  2  0  0  0
 17 18  2  0  0  0
 18 19  1  0  0  0
 19 13  1  0  0  0
 13  1  1  0  0  0
  1  2  1  0  0  0
  1  4  2  0  0  0
  2  3  2  0  0  0
  3  6  1  0  0  0
  4  5  1  0  0  0
  5  6  2  0  0  0
  6  7  1  0  0  0
  7  8  1  0  0  0
  7 10  2  0  0  0
  8  9  2  0  0  0
  9 12  1  0  0  0
 10 11  1  0  0  0
 11 12  2  0  0  0
M  CHG 1  19   1
M  END
> <minimizedAffinity>
-7.38326

$$$$
4CG9_GQG_A_0


 22 24  0  0  0  0  0  0  0  0999 V2000
  -16.1848    8.1430    4.6237 C   0  0  0  0  0  0  0  0  0  0  0  0
  -15.7589    8.3916    5.9307 C   0  0  0  0  0  0  0  0  0  0  0  0
  -16.6019    9.0855    6.8122 C   0  0  0  0  0  0  0  0  0  0  0  0
  -17.4591    8.5521    4.2234 C   0  0  0  0  0  0  0  0  0  0  0  0
  -18.3050    9.2407    5.0947 C   0  0  0  0  0  0  0  0  0  0  0  0
  -17.8792    9.5072    6.3974 C   0  0  0  0  0  0  0  0  0  0  0  0
  -18.7216   10.1896    7.2882 C   0  0  0  0  0  0  0  0  0  0  0  0
  -19.7580   10.9887    6.7887 C   0  0  0  0  0  0  0  0  0  0  0  0
  -20.6129   11.6692    7.6529 C   0  0  0  0  0  0  0  0  0  0  0  0
  -18.5508   10.0639    8.6731 C   0  0  0  0  0  0  0  0  0  0  0  0
  -19.4141   10.7394    9.5416 C   0  0  0  0  0  0  0  0  0  0  0  0
  -20.4422   11.5396    9.0362 C   0  0  0  0  0  0  0  0  0  0  0  0
  -15.3699    7.4206    3.7340 C   0  0  0  0  0  0  0  0  0  0  0  0
  -14.1585   10.2328    0.7059 C   0  0  0  0  0  0  0  0  0  0  0  0
  -15.0553    9.2079    0.4033 C   0  0  0  0  0  0  0  0  0  0  0  0
  -15.4325    8.3109    1.3945 C   0  0  0  0  0  0  0  0  0  0  0  0
  -13.6541   10.3338    2.0117 C   0  0  0  0  0  0  0  0  0  0  0  0
  -14.0354    9.4453    3.0252 C   0  0  0  0  0  0  0  0  0  0  0  0
  -14.9475    8.4260    2.7184 N   0  0  0  0  0  0  0  0  0  0  0  0
  -14.4546   12.3767   -0.4381 C   0  0  0  0  0  0  0  0  0  0  0  0
  -13.7754   11.0766   -0.2699 N   0  0  0  0  0  0  0  0  0  0  0  0
  -12.5910   10.7301   -1.0809 C   0  0  0  0  0  0  0  0  0  0  0  0
 20 21  1  0  0  0
 21 22  1  0  0  0
 21 14  1  0  0  0
 14 15  2  0  0  0
 14 17  1  0  0  0
 15 16  1  0  0  0
 16 19  2  0  0  0
 17 18  2  0  0  0
 18 19  1  0  0  0
 19 13  1  0  0  0
 13  1  1  0  0  0
  1  2  1  0  0  0
  1  4  2  0  0  0
  2  3  2  0  0  0
  3  6  1  0  0  0
  4  5  1  0  0  0
  5  6  2  0  0  0
  6  7  1  0  0  0
  7  8  1  0  0  0
  7 10  2  0  0  0
  8  9  2  0  0  0
  9 12  1  0  0  0
 10 11  1  0  0  0
 11 12  2  0  0  0
M  CHG 1  19   1
M  END
> <minimizedAffinity>
-7.23598

$$$$
4CG9_GQG_A_0


 22 24  0  0  0  0  0  0  0  0999 V2000
  -17.3942    5.6088    2.0323 C   0  0  0  0  0  0  0  0  0  0  0  0
  -16.4880    6.6561    2.2161 C   0  0  0  0  0  0  0  0  0  0  0  0
  -16.2973    7.1876    3.5007 C   0  0  0  0  0  0  0  0  0  0  0  0
  -18.0680    5.0777    3.1348 C   0  0  0  0  0  0  0  0  0  0  0  0
  -17.8821    5.5988    4.4164 C   0  0  0  0  0  0  0  0  0  0  0  0
  -16.9904    6.6565    4.6048 C   0  0  0  0  0  0  0  0  0  0  0  0
  -16.7852    7.1849    5.8883 C   0  0  0  0  0  0  0  0  0  0  0  0
  -17.0457    6.3933    7.0142 C   0  0  0  0  0  0  0  0  0  0  0  0
  -16.8416    6.8922    8.2988 C   0  0  0  0  0  0  0  0  0  0  0  0
  -16.3022    8.4893    6.0564 C   0  0  0  0  0  0  0  0  0  0  0  0
  -16.0884    8.9880    7.3454 C   0  0  0  0  0  0  0  0  0  0  0  0
  -16.3561    8.1946    8.4642 C   0  0  0  0  0  0  0  0  0  0  0  0
  -17.5763    5.0392    0.7596 C   0  0  0  0  0  0  0  0  0  0  0  0
  -13.5683    3.9728   -0.3994 C   0  0  0  0  0  0  0  0  0  0  0  0
  -14.1732    3.3653    0.7012 C   0  0  0  0  0  0  0  0  0  0  0  0
  -15.4665    3.7243    1.0585 C   0  0  0  0  0  0  0  0  0  0  0  0
  -14.2838    4.9391   -1.1234 C   0  0  0  0  0  0  0  0  0  0  0  0
  -15.5933    5.3017   -0.7835 C   0  0  0  0  0  0  0  0  0  0  0  0
  -16.2008    4.6777    0.3149 N   0  0  0  0  0  0  0  0  0  0  0  0
  -11.8051    2.2755   -0.4566 C   0  0  0  0  0  0  0  0  0  0  0  0
  -12.3035    3.6406   -0.7172 N   0  0  0  0  0  0  0  0  0  0  0  0
  -11.4730    4.6254   -1.4389 C   0  0  0  0  0  0  0  0  0  0  0  0
 20 21  1  0  0  0
 21 22  1  0  0  0
 21 14  1  0  0  0
 14 15  2  0  0  0
 14 17  1  0  0  0
 15 16  1  0  0  0
 16 19  2  0  0  0
 17 18  2  0  0  0
 18 19  1  0  0  0
 19 13  1  0  0  0
 13  1  1  0  0  0
  1  2  1  0  0  0
  1  4  2  0  0  0
  2  3  2  0  0  0
  3  6  1  0  0  0
  4  5  1  0  0  0
  5  6  2  0  0  0
  6  7  1  0  0  0
  7  8  1  0  0  0
  7 10  2  0  0  0
  8  9  2  0  0  0
  9 12  1  0  0  0
 10 11  1  0  0  0
 11 12  2  0  0  0
M  CHG 1  19   1
M  END
> <minimizedAffinity>
-7.22389

$$$$
4CG9_GQG_A_0


 22 24  0  0  0  0  0  0  0  0999 V2000
  -16.7068    7.6641    5.8790 C   0  0  0  0  0  0  0  0  0  0  0  0
  -16.3230    8.0535    7.1645 C   0  0  0  0  0  0  0  0  0  0  0  0
  -17.0179    9.0877    7.8099 C   0  0  0  0  0  0  0  0  0  0  0  0
  -17.8019    8.2809    5.2691 C   0  0  0  0  0  0  0  0  0  0  0  0
  -18.5003    9.3088    5.9051 C   0  0  0  0  0  0  0  0  0  0  0  0
  -18.1116    9.7143    7.1833 C   0  0  0  0  0  0  0  0  0  0  0  0
  -18.8096   10.7393    7.8399 C   0  0  0  0  0  0  0  0  0  0  0  0
  -18.2242   11.3853    8.9364 C   0  0  0  0  0  0  0  0  0  0  0  0
  -18.8934   12.4115    9.5994 C   0  0  0  0  0  0  0  0  0  0  0  0
  -20.0777   11.1386    7.3978 C   0  0  0  0  0  0  0  0  0  0  0  0
  -20.7464   12.1749    8.0570 C   0  0  0  0  0  0  0  0  0  0  0  0
  -20.1589   12.8108    9.1539 C   0  0  0  0  0  0  0  0  0  0  0  0
  -16.0458    6.6079    5.2271 C   0  0  0  0  0  0  0  0  0  0  0  0
  -14.1614    8.5857    1.8982 C   0  0  0  0  0  0  0  0  0  0  0  0
  -14.4033    9.2743    3.0872 C   0  0  0  0  0  0  0  0  0  0  0  0
  -15.0129    8.6178    4.1486 C   0  0  0  0  0  0  0  0  0  0  0  0
  -14.5429    7.2386    1.8008 C   0  0  0  0  0  0  0  0  0  0  0  0
  -15.1462    6.5594    2.8669 C   0  0  0  0  0  0  0  0  0  0  0  0
  -15.3740    7.2526    4.0637 N   0  0  0  0  0  0  0  0  0  0  0  0
  -13.7818    8.7490   -0.5147 C   0  0  0  0  0  0  0  0  0  0  0  0
  -13.5993    9.2405    0.8655 N   0  0  0  0  0  0  0  0  0  0  0  0
  -12.9073   10.5179    1.1295 C   0  0  0  0  0  0  0  0  0  0  0  0
 20 21  1  0  0  0
 21 22  1  0  0  0
 21 14  1  0  0  0
 14 15  2  0  0  0
 14 17  1  0  0  0
 15 16  1  0  0  0
 16 19  2  0  0  0
 17 18  2  0  0  0
 18 19  1  0  0  0
 19 13  1  0  0  0
 13  1  1  0  0  0
  1  2  1  0  0  0
  1  4  2  0  0  0
  2  3  2  0  0  0
  3  6  1  0  0  0
  4  5  1  0  0  0
  5  6  2  0  0  0
  6  7  1  0  0  0
  7  8  1  0  0  0
  7 10  2  0  0  0
  8  9  2  0  0  0
  9 12  1  0  0  0
 10 11  1  0  0  0
 11 12  2  0  0  0
M  CHG 1  19   1
M  END
> <minimizedAffinity>
-7.19366

$$$$
