4IIE_CGB_A_943


 17 18  0  0  0  0  0  0  0  0999 V2000
   19.9253  -16.8578   26.0700 O   0  0  0  0  0  0  0  0  0  0  0  0
   20.0355  -17.7039   24.9801 C   0  0  0  0  0  0  0  0  0  0  0  0
   19.3432  -17.3558   23.6164 N   0  0  0  0  0  0  0  0  0  0  0  0
   19.0488  -18.7432   25.1985 C   0  0  0  0  0  0  0  0  0  0  0  0
   19.0185  -19.6243   23.9164 C   0  0  0  0  0  0  0  0  0  0  0  0
   19.5131  -18.6118   22.8374 C   0  0  0  0  0  0  0  0  0  0  0  0
   21.5513  -18.1331   24.7916 C   0  0  0  0  0  0  0  0  0  0  0  0
   22.5507  -18.0658   25.8774 O   0  0  0  0  0  0  0  0  0  0  0  0
   21.3589  -19.4634   24.1745 C   0  0  0  0  0  0  0  0  0  0  0  0
   22.0949  -20.5644   24.7108 O   0  0  0  0  0  0  0  0  0  0  0  0
   20.8651  -19.2927   22.7390 C   0  0  0  0  0  0  0  0  0  0  0  0
   20.5134  -20.6165   22.3034 O   0  0  0  0  0  0  0  0  0  0  0  0
   18.9981  -16.5964   26.1839 H   0  0  0  0  0  0  0  0  0  0  0  0
   19.8071  -16.5720   23.1572 H   0  0  0  0  0  0  0  0  0  0  0  0
   22.3086  -18.6905   26.5788 H   0  0  0  0  0  0  0  0  0  0  0  0
   23.0437  -20.4164   24.5737 H   0  0  0  0  0  0  0  0  0  0  0  0
   19.8673  -20.9982   22.9181 H   0  0  0  0  0  0  0  0  0  0  0  0
  1  2  1  0  0  0
  2  3  1  0  0  0
  2  4  1  0  0  0
  2  7  1  0  0  0
  3  6  1  0  0  0
  4  5  1  0  0  0
  5  6  1  0  0  0
  6 11  1  0  0  0
  7  8  1  0  0  0
  7  9  1  0  0  0
  9 10  1  0  0  0
  9 11  1  0  0  0
 11 12  1  0  0  0
  1 13  1  0  0  0
  3 14  1  0  0  0
  8 15  1  0  0  0
 10 16  1  0  0  0
 12 17  1  0  0  0
M  END
> <minimizedAffinity>
-7.35520

$$$$
4IIE_CGB_A_943


 17 18  0  0  0  0  0  0  0  0999 V2000
   21.5338  -20.8891   23.0909 O   0  0  0  0  0  0  0  0  0  0  0  0
   20.6480  -19.9269   23.5444 C   0  0  0  0  0  0  0  0  0  0  0  0
   19.1074  -20.2151   23.6062 N   0  0  0  0  0  0  0  0  0  0  0  0
   20.4230  -19.0479   22.4139 C   0  0  0  0  0  0  0  0  0  0  0  0
   19.3031  -18.0488   22.8250 C   0  0  0  0  0  0  0  0  0  0  0  0
   18.5392  -18.8735   23.9068 C   0  0  0  0  0  0  0  0  0  0  0  0
   21.1950  -19.2941   24.8926 C   0  0  0  0  0  0  0  0  0  0  0  0
   22.6162  -19.3484   25.2918 O   0  0  0  0  0  0  0  0  0  0  0  0
   20.6058  -17.9414   24.7900 C   0  0  0  0  0  0  0  0  0  0  0  0
   21.4593  -16.8188   25.0197 O   0  0  0  0  0  0  0  0  0  0  0  0
   19.0993  -18.0222   25.0304 C   0  0  0  0  0  0  0  0  0  0  0  0
   18.5973  -16.7147   24.7072 O   0  0  0  0  0  0  0  0  0  0  0  0
   21.1980  -21.2750   22.2668 H   0  0  0  0  0  0  0  0  0  0  0  0
   18.8868  -20.8826   24.3453 H   0  0  0  0  0  0  0  0  0  0  0  0
   23.1483  -18.8353   24.6636 H   0  0  0  0  0  0  0  0  0  0  0  0
   21.7702  -16.8316   25.9384 H   0  0  0  0  0  0  0  0  0  0  0  0
   18.8576  -16.4830   23.8020 H   0  0  0  0  0  0  0  0  0  0  0  0
  1  2  1  0  0  0
  2  3  1  0  0  0
  2  4  1  0  0  0
  2  7  1  0  0  0
  3  6  1  0  0  0
  4  5  1  0  0  0
  5  6  1  0  0  0
  6 11  1  0  0  0
  7  8  1  0  0  0
  7  9  1  0  0  0
  9 10  1  0  0  0
  9 11  1  0  0  0
 11 12  1  0  0  0
  1 13  1  0  0  0
  3 14  1  0  0  0
  8 15  1  0  0  0
 10 16  1  0  0  0
 12 17  1  0  0  0
M  END
> <minimizedAffinity>
-7.04802

$$$$
4IIE_CGB_A_943


 17 18  0  0  0  0  0  0  0  0999 V2000
   17.2465  -17.0061   21.2508 O   0  0  0  0  0  0  0  0  0  0  0  0
   18.1972  -18.0114   21.2132 C   0  0  0  0  0  0  0  0  0  0  0  0
   19.1557  -18.1684   19.9815 N   0  0  0  0  0  0  0  0  0  0  0  0
   17.4836  -19.2002   20.7903 C   0  0  0  0  0  0  0  0  0  0  0  0
   18.5434  -20.3179   20.5699 C   0  0  0  0  0  0  0  0  0  0  0  0
   19.8161  -19.4742   20.2500 C   0  0  0  0  0  0  0  0  0  0  0  0
   18.9801  -18.0545   22.5925 C   0  0  0  0  0  0  0  0  0  0  0  0
   18.4405  -17.4874   23.8453 O   0  0  0  0  0  0  0  0  0  0  0  0
   19.3325  -19.4903   22.6344 C   0  0  0  0  0  0  0  0  0  0  0  0
   19.0687  -20.2109   23.8397 O   0  0  0  0  0  0  0  0  0  0  0  0
   20.4250  -19.7771   21.6059 C   0  0  0  0  0  0  0  0  0  0  0  0
   20.5465  -21.2090   21.5771 O   0  0  0  0  0  0  0  0  0  0  0  0
   16.7688  -16.9811   20.4070 H   0  0  0  0  0  0  0  0  0  0  0  0
   19.8379  -17.4109   19.9467 H   0  0  0  0  0  0  0  0  0  0  0  0
   17.6504  -17.9835   24.1108 H   0  0  0  0  0  0  0  0  0  0  0  0
   19.6132  -19.8510   24.5573 H   0  0  0  0  0  0  0  0  0  0  0  0
   19.6823  -21.6030   21.3801 H   0  0  0  0  0  0  0  0  0  0  0  0
  1  2  1  0  0  0
  2  3  1  0  0  0
  2  4  1  0  0  0
  2  7  1  0  0  0
  3  6  1  0  0  0
  4  5  1  0  0  0
  5  6  1  0  0  0
  6 11  1  0  0  0
  7  8  1  0  0  0
  7  9  1  0  0  0
  9 10  1  0  0  0
  9 11  1  0  0  0
 11 12  1  0  0  0
  1 13  1  0  0  0
  3 14  1  0  0  0
  8 15  1  0  0  0
 10 16  1  0  0  0
 12 17  1  0  0  0
M  END
> <minimizedAffinity>
-6.81960

$$$$
4IIE_CGB_A_943


 17 18  0  0  0  0  0  0  0  0999 V2000
   20.4338  -21.5637   21.1903 O   0  0  0  0  0  0  0  0  0  0  0  0
   19.6521  -20.4258   21.2903 C   0  0  0  0  0  0  0  0  0  0  0  0
   18.2554  -20.3427   20.5813 N   0  0  0  0  0  0  0  0  0  0  0  0
   20.1883  -19.5032   20.3091 C   0  0  0  0  0  0  0  0  0  0  0  0
   19.2357  -18.2736   20.2665 C   0  0  0  0  0  0  0  0  0  0  0  0
   17.8939  -18.9091   20.7458 C   0  0  0  0  0  0  0  0  0  0  0  0
   19.5852  -19.9584   22.8050 C   0  0  0  0  0  0  0  0  0  0  0  0
   20.5870  -20.3523   23.8166 O   0  0  0  0  0  0  0  0  0  0  0  0
   19.4048  -18.5035   22.6092 C   0  0  0  0  0  0  0  0  0  0  0  0
   20.2421  -17.6175   23.3545 O   0  0  0  0  0  0  0  0  0  0  0  0
   17.9914  -18.2294   22.0984 C   0  0  0  0  0  0  0  0  0  0  0  0
   17.9838  -16.8361   21.7454 O   0  0  0  0  0  0  0  0  0  0  0  0
   20.4737  -21.8482   20.2638 H   0  0  0  0  0  0  0  0  0  0  0  0
   17.5739  -20.9491   21.0376 H   0  0  0  0  0  0  0  0  0  0  0  0
   21.4482  -19.9710   23.5845 H   0  0  0  0  0  0  0  0  0  0  0  0
   20.0553  -17.7159   24.3012 H   0  0  0  0  0  0  0  0  0  0  0  0
   18.6931  -16.6603   21.1076 H   0  0  0  0  0  0  0  0  0  0  0  0
  1  2  1  0  0  0
  2  3  1  0  0  0
  2  4  1  0  0  0
  2  7  1  0  0  0
  3  6  1  0  0  0
  4  5  1  0  0  0
  5  6  1  0  0  0
  6 11  1  0  0  0
  7  8  1  0  0  0
  7  9  1  0  0  0
  9 10  1  0  0  0
  9 11  1  0  0  0
 11 12  1  0  0  0
  1 13  1  0  0  0
  3 14  1  0  0  0
  8 15  1  0  0  0
 10 16  1  0  0  0
 12 17  1  0  0  0
M  END
> <minimizedAffinity>
-6.80339

$$$$
4IIE_CGB_A_943


 17 18  0  0  0  0  0  0  0  0999 V2000
   18.7950  -17.3831   21.8431 O   0  0  0  0  0  0  0  0  0  0  0  0
   18.9334  -18.3325   20.8454 C   0  0  0  0  0  0  0  0  0  0  0  0
   18.6049  -17.9853   19.3514 N   0  0  0  0  0  0  0  0  0  0  0  0
   17.7278  -19.1351   20.9082 C   0  0  0  0  0  0  0  0  0  0  0  0
   17.7611  -20.1093   19.6954 C   0  0  0  0  0  0  0  0  0  0  0  0
   18.6549  -19.3175   18.6912 C   0  0  0  0  0  0  0  0  0  0  0  0
   20.3331  -19.0638   20.9981 C   0  0  0  0  0  0  0  0  0  0  0  0
   21.0963  -19.0910   22.2626 O   0  0  0  0  0  0  0  0  0  0  0  0
   19.9889  -20.3831   20.4247 C   0  0  0  0  0  0  0  0  0  0  0  0
   20.3609  -21.5512   21.1586 O   0  0  0  0  0  0  0  0  0  0  0  0
   19.8275  -20.2544   18.9110 C   0  0  0  0  0  0  0  0  0  0  0  0
   19.2971  -21.5194   18.4815 O   0  0  0  0  0  0  0  0  0  0  0  0
   17.9389  -16.9370   21.7484 H   0  0  0  0  0  0  0  0  0  0  0  0
   19.3021  -17.3530   18.9584 H   0  0  0  0  0  0  0  0  0  0  0  0
   20.5984  -19.5886   22.9301 H   0  0  0  0  0  0  0  0  0  0  0  0
   21.3279  -21.6040   21.2139 H   0  0  0  0  0  0  0  0  0  0  0  0
   18.4795  -21.7091   18.9678 H   0  0  0  0  0  0  0  0  0  0  0  0
  1  2  1  0  0  0
  2  3  1  0  0  0
  2  4  1  0  0  0
  2  7  1  0  0  0
  3  6  1  0  0  0
  4  5  1  0  0  0
  5  6  1  0  0  0
  6 11  1  0  0  0
  7  8  1  0  0  0
  7  9  1  0  0  0
  9 10  1  0  0  0
  9 11  1  0  0  0
 11 12  1  0  0  0
  1 13  1  0  0  0
  3 14  1  0  0  0
  8 15  1  0  0  0
 10 16  1  0  0  0
 12 17  1  0  0  0
M  END
> <minimizedAffinity>
-6.47763

$$$$
4IIE_CGB_A_943


 17 18  0  0  0  0  0  0  0  0999 V2000
   18.3552  -17.0077   24.4933 O   0  0  0  0  0  0  0  0  0  0  0  0
   18.8196  -18.0450   23.7032 C   0  0  0  0  0  0  0  0  0  0  0  0
   18.8925  -19.5103   24.2582 N   0  0  0  0  0  0  0  0  0  0  0  0
   20.2653  -17.9632   23.7717 C   0  0  0  0  0  0  0  0  0  0  0  0
   20.8311  -19.2120   23.0358 C   0  0  0  0  0  0  0  0  0  0  0  0
   19.6522  -20.2214   23.1950 C   0  0  0  0  0  0  0  0  0  0  0  0
   18.1287  -17.9770   22.2766 C   0  0  0  0  0  0  0  0  0  0  0  0
   17.5185  -16.7465   21.7328 O   0  0  0  0  0  0  0  0  0  0  0  0
   19.1966  -18.5848   21.4533 C   0  0  0  0  0  0  0  0  0  0  0  0
   19.5853  -17.9109   20.2549 O   0  0  0  0  0  0  0  0  0  0  0  0
   19.2655  -20.0848   21.7346 C   0  0  0  0  0  0  0  0  0  0  0  0
   20.4491  -20.5393   21.0576 O   0  0  0  0  0  0  0  0  0  0  0  0
   18.7785  -17.0506   25.3650 H   0  0  0  0  0  0  0  0  0  0  0  0
   17.9601  -19.9075   24.3730 H   0  0  0  0  0  0  0  0  0  0  0  0
   18.2076  -16.0784   21.5929 H   0  0  0  0  0  0  0  0  0  0  0  0
   18.8392  -17.8971   19.6351 H   0  0  0  0  0  0  0  0  0  0  0  0
   21.2138  -20.0276   21.3646 H   0  0  0  0  0  0  0  0  0  0  0  0
  1  2  1  0  0  0
  2  3  1  0  0  0
  2  4  1  0  0  0
  2  7  1  0  0  0
  3  6  1  0  0  0
  4  5  1  0  0  0
  5  6  1  0  0  0
  6 11  1  0  0  0
  7  8  1  0  0  0
  7  9  1  0  0  0
  9 10  1  0  0  0
  9 11  1  0  0  0
 11 12  1  0  0  0
  1 13  1  0  0  0
  3 14  1  0  0  0
  8 15  1  0  0  0
 10 16  1  0  0  0
 12 17  1  0  0  0
M  END
> <minimizedAffinity>
-6.37028

$$$$
4IIE_CGB_A_943


 17 18  0  0  0  0  0  0  0  0999 V2000
   18.1777  -18.4084   23.0212 O   0  0  0  0  0  0  0  0  0  0  0  0
   18.7217  -18.7805   21.8040 C   0  0  0  0  0  0  0  0  0  0  0  0
   18.8873  -17.7388   20.6431 N   0  0  0  0  0  0  0  0  0  0  0  0
   17.6362  -19.4019   21.0713 C   0  0  0  0  0  0  0  0  0  0  0  0
   18.1560  -19.6842   19.6322 C   0  0  0  0  0  0  0  0  0  0  0  0
   19.2666  -18.5978   19.4893 C   0  0  0  0  0  0  0  0  0  0  0  0
   20.0440  -19.6226   22.0480 C   0  0  0  0  0  0  0  0  0  0  0  0
   20.3370  -20.3156   23.3193 O   0  0  0  0  0  0  0  0  0  0  0  0
   20.0233  -20.4750   20.8395 C   0  0  0  0  0  0  0  0  0  0  0  0
   20.2222  -21.8801   21.0061 O   0  0  0  0  0  0  0  0  0  0  0  0
   20.3703  -19.6309   19.6145 C   0  0  0  0  0  0  0  0  0  0  0  0
   20.1220  -20.4866   18.4867 O   0  0  0  0  0  0  0  0  0  0  0  0
   17.3695  -17.8937   22.8703 H   0  0  0  0  0  0  0  0  0  0  0  0
   19.6211  -17.0631   20.8562 H   0  0  0  0  0  0  0  0  0  0  0  0
   19.6868  -21.0214   23.4602 H   0  0  0  0  0  0  0  0  0  0  0  0
   21.1152  -22.0418   21.3488 H   0  0  0  0  0  0  0  0  0  0  0  0
   19.2072  -20.8075   18.5195 H   0  0  0  0  0  0  0  0  0  0  0  0
  1  2  1  0  0  0
  2  3  1  0  0  0
  2  4  1  0  0  0
  2  7  1  0  0  0
  3  6  1  0  0  0
  4  5  1  0  0  0
  5  6  1  0  0  0
  6 11  1  0  0  0
  7  8  1  0  0  0
  7  9  1  0  0  0
  9 10  1  0  0  0
  9 11  1  0  0  0
 11 12  1  0  0  0
  1 13  1  0  0  0
  3 14  1  0  0  0
  8 15  1  0  0  0
 10 16  1  0  0  0
 12 17  1  0  0  0
M  END
> <minimizedAffinity>
-6.35147

$$$$
4IIE_CGB_A_943


 17 18  0  0  0  0  0  0  0  0999 V2000
   21.2903  -19.1090   22.6503 O   0  0  0  0  0  0  0  0  0  0  0  0
   20.2327  -19.4424   21.8219 C   0  0  0  0  0  0  0  0  0  0  0  0
   20.0006  -20.9261   21.3688 N   0  0  0  0  0  0  0  0  0  0  0  0
   20.6775  -19.1184   20.4807 C   0  0  0  0  0  0  0  0  0  0  0  0
   19.5866  -19.6336   19.4982 C   0  0  0  0  0  0  0  0  0  0  0  0
   18.9441  -20.7859   20.3309 C   0  0  0  0  0  0  0  0  0  0  0  0
   18.9028  -18.7635   22.3583 C   0  0  0  0  0  0  0  0  0  0  0  0
   18.9004  -17.5875   23.2522 O   0  0  0  0  0  0  0  0  0  0  0  0
   18.1720  -18.6044   21.0823 C   0  0  0  0  0  0  0  0  0  0  0  0
   17.5888  -17.3315   20.7975 O   0  0  0  0  0  0  0  0  0  0  0  0
   17.6925  -19.9708   20.5959 C   0  0  0  0  0  0  0  0  0  0  0  0
   17.1871  -19.7409   19.2701 O   0  0  0  0  0  0  0  0  0  0  0  0
   22.1025  -19.5248   22.3210 H   0  0  0  0  0  0  0  0  0  0  0  0
   19.6790  -21.5027   22.1463 H   0  0  0  0  0  0  0  0  0  0  0  0
   19.2748  -16.8248   22.7842 H   0  0  0  0  0  0  0  0  0  0  0  0
   16.8963  -17.1400   21.4491 H   0  0  0  0  0  0  0  0  0  0  0  0
   17.8782  -19.3302   18.7273 H   0  0  0  0  0  0  0  0  0  0  0  0
  1  2  1  0  0  0
  2  3  1  0  0  0
  2  4  1  0  0  0
  2  7  1  0  0  0
  3  6  1  0  0  0
  4  5  1  0  0  0
  5  6  1  0  0  0
  6 11  1  0  0  0
  7  8  1  0  0  0
  7  9  1  0  0  0
  9 10  1  0  0  0
  9 11  1  0  0  0
 11 12  1  0  0  0
  1 13  1  0  0  0
  3 14  1  0  0  0
  8 15  1  0  0  0
 10 16  1  0  0  0
 12 17  1  0  0  0
M  END
> <minimizedAffinity>
-6.10629

$$$$
4IIE_CGB_A_943


 17 18  0  0  0  0  0  0  0  0999 V2000
   18.3130  -22.4086   21.1488 O   0  0  0  0  0  0  0  0  0  0  0  0
   18.7006  -21.2264   20.5421 C   0  0  0  0  0  0  0  0  0  0  0  0
   17.9079  -20.6519   19.3166 N   0  0  0  0  0  0  0  0  0  0  0  0
   19.7854  -21.5888   19.6513 C   0  0  0  0  0  0  0  0  0  0  0  0
   20.1411  -20.3213   18.8218 C   0  0  0  0  0  0  0  0  0  0  0  0
   18.7877  -19.5459   18.8519 C   0  0  0  0  0  0  0  0  0  0  0  0
   18.9733  -20.1245   21.6506 C   0  0  0  0  0  0  0  0  0  0  0  0
   19.2666  -20.4530   23.0607 O   0  0  0  0  0  0  0  0  0  0  0  0
   19.9951  -19.3152   20.9516 C   0  0  0  0  0  0  0  0  0  0  0  0
   21.1864  -18.9777   21.6645 O   0  0  0  0  0  0  0  0  0  0  0  0
   19.3338  -18.5203   19.8271 C   0  0  0  0  0  0  0  0  0  0  0  0
   20.4215  -17.9399   19.0882 O   0  0  0  0  0  0  0  0  0  0  0  0
   18.1467  -23.0811   20.4699 H   0  0  0  0  0  0  0  0  0  0  0  0
   16.9936  -20.3005   19.6012 H   0  0  0  0  0  0  0  0  0  0  0  0
   20.1122  -20.9252   23.1135 H   0  0  0  0  0  0  0  0  0  0  0  0
   20.9625  -18.4088   22.4175 H   0  0  0  0  0  0  0  0  0  0  0  0
   21.0249  -18.6411   18.7966 H   0  0  0  0  0  0  0  0  0  0  0  0
  1  2  1  0  0  0
  2  3  1  0  0  0
  2  4  1  0  0  0
  2  7  1  0  0  0
  3  6  1  0  0  0
  4  5  1  0  0  0
  5  6  1  0  0  0
  6 11  1  0  0  0
  7  8  1  0  0  0
  7  9  1  0  0  0
  9 10  1  0  0  0
  9 11  1  0  0  0
 11 12  1  0  0  0
  1 13  1  0  0  0
  3 14  1  0  0  0
  8 15  1  0  0  0
 10 16  1  0  0  0
 12 17  1  0  0  0
M  END
> <minimizedAffinity>
-6.05272

$$$$
4IIE_CGB_A_943


 17 18  0  0  0  0  0  0  0  0999 V2000
   21.8441  -18.4612   26.2477 O   0  0  0  0  0  0  0  0  0  0  0  0
   21.0374  -18.3908   25.1251 C   0  0  0  0  0  0  0  0  0  0  0  0
   20.8066  -17.0284   24.3827 N   0  0  0  0  0  0  0  0  0  0  0  0
   19.6800  -18.3284   25.6300 C   0  0  0  0  0  0  0  0  0  0  0  0
   18.7474  -18.0775   24.4100 C   0  0  0  0  0  0  0  0  0  0  0  0
   19.7211  -17.3633   23.4222 C   0  0  0  0  0  0  0  0  0  0  0  0
   21.4151  -19.5630   24.1248 C   0  0  0  0  0  0  0  0  0  0  0  0
   22.1195  -20.7905   24.5485 O   0  0  0  0  0  0  0  0  0  0  0  0
   20.1036  -19.7656   23.4716 C   0  0  0  0  0  0  0  0  0  0  0  0
   19.6076  -21.1011   23.3629 O   0  0  0  0  0  0  0  0  0  0  0  0
   19.8129  -18.5923   22.5376 C   0  0  0  0  0  0  0  0  0  0  0  0
   18.4499  -18.7745   22.1195 O   0  0  0  0  0  0  0  0  0  0  0  0
   21.6120  -17.7440   26.8581 H   0  0  0  0  0  0  0  0  0  0  0  0
   21.6502  -16.7272   23.8949 H   0  0  0  0  0  0  0  0  0  0  0  0
   21.5552  -21.2937   25.1562 H   0  0  0  0  0  0  0  0  0  0  0  0
   20.1966  -21.6194   22.7925 H   0  0  0  0  0  0  0  0  0  0  0  0
   17.8769  -18.8307   22.9002 H   0  0  0  0  0  0  0  0  0  0  0  0
  1  2  1  0  0  0
  2  3  1  0  0  0
  2  4  1  0  0  0
  2  7  1  0  0  0
  3  6  1  0  0  0
  4  5  1  0  0  0
  5  6  1  0  0  0
  6 11  1  0  0  0
  7  8  1  0  0  0
  7  9  1  0  0  0
  9 10  1  0  0  0
  9 11  1  0  0  0
 11 12  1  0  0  0
  1 13  1  0  0  0
  3 14  1  0  0  0
  8 15  1  0  0  0
 10 16  1  0  0  0
 12 17  1  0  0  0
M  END
> <minimizedAffinity>
-6.01042

$$$$
