4MHZ_PBD_A_401


 24 25  0  0  0  0  0  0  0  0999 V2000
  -19.0671   23.4486   -2.5484 N   0  0  0  0  0  0  0  0  0  0  0  0
  -19.3016   22.5354   -2.2648 H   0  0  0  0  0  0  0  0  0  0  0  0
  -18.4900   25.3777   -1.1870 C   0  0  0  0  0  0  0  0  0  0  0  0
  -17.4789   26.0284   -0.4587 C   0  0  0  0  0  0  0  0  0  0  0  0
  -16.9059   23.6048   -1.7435 C   0  0  0  0  0  0  0  0  0  0  0  0
  -18.1918   24.1598   -1.8233 C   0  0  0  0  0  0  0  0  0  0  0  0
  -16.1849   25.4656   -0.3754 C   0  0  0  0  0  0  0  0  0  0  0  0
  -15.9051   24.2468   -1.0230 C   0  0  0  0  0  0  0  0  0  0  0  0
  -15.2488   26.1061    1.7474 C   0  0  0  0  0  0  0  0  0  0  0  0
  -15.1337   26.0396    0.3145 O   0  0  0  0  0  0  0  0  0  0  0  0
  -13.8330   23.7804   -2.1191 C   0  0  0  0  0  0  0  0  0  0  0  0
  -14.6381   23.7342   -0.9189 O   0  0  0  0  0  0  0  0  0  0  0  0
  -21.3159   24.4427   -3.5735 S   0  0  0  0  0  0  0  0  0  0  0  0
  -19.6318   23.9634   -3.6596 C   0  0  0  0  0  0  0  0  0  0  0  0
  -18.8422   24.1669   -4.7479 N   0  0  0  0  0  0  0  0  0  0  0  0
  -18.2125   24.9230   -4.7180 H   0  0  0  0  0  0  0  0  0  0  0  0
  -18.8577   23.3451   -5.9632 C   0  0  0  0  0  0  0  0  0  0  0  0
  -17.8242   22.2591   -5.7656 C   0  0  0  0  0  0  0  0  0  0  0  0
  -18.4183   20.9292   -6.1453 C   0  0  0  0  0  0  0  0  0  0  0  0
  -15.6304   18.7473   -5.6372 C   0  0  0  0  0  0  0  0  0  0  0  0
  -16.2000   19.9500   -5.5981 C   0  0  0  0  0  0  0  0  0  0  0  0
  -17.6420   18.5734   -6.3630 C   0  0  0  0  0  0  0  0  0  0  0  0
  -16.5407   17.9066   -6.1054 N   0  0  0  0  0  0  0  0  0  0  0  0
  -17.4429   19.8454   -6.0469 N   0  0  0  0  0  0  0  0  0  0  0  0
  9 10  1  0  0  0
 11 12  1  0  0  0
 13 14  2  0  0  0
 20 21  2  0  0  0
 20 23  1  0  0  0
  3  4  2  0  0  0
  3  6  1  0  0  0
  4  7  1  0  0  0
 21 24  1  0  0  0
 22 23  2  0  0  0
 22 24  1  0  0  0
  5  6  2  0  0  0
  5  8  1  0  0  0
 18 17  1  0  0  0
 18 19  1  0  0  0
 17 15  1  0  0  0
 19 24  1  0  0  0
 15 14  1  0  0  0
  1 14  1  0  0  0
  1  6  1  0  0  0
 10  7  1  0  0  0
 12  8  1  0  0  0
  7  8  2  0  0  0
 15 16  1  0  0  0
  1  2  1  0  0  0
M  END
> <minimizedAffinity>
-5.95461

$$$$
4MHZ_PBD_A_401


 24 25  0  0  0  0  0  0  0  0999 V2000
  -19.2296   23.6321   -2.4580 N   0  0  0  0  0  0  0  0  0  0  0  0
  -19.8379   23.1156   -1.8815 H   0  0  0  0  0  0  0  0  0  0  0  0
  -16.8155   23.3647   -2.5521 C   0  0  0  0  0  0  0  0  0  0  0  0
  -15.5794   23.7465   -2.0023 C   0  0  0  0  0  0  0  0  0  0  0  0
  -17.9429   24.8315   -0.9584 C   0  0  0  0  0  0  0  0  0  0  0  0
  -17.9943   23.9196   -2.0231 C   0  0  0  0  0  0  0  0  0  0  0  0
  -15.5289   24.6690   -0.9324 C   0  0  0  0  0  0  0  0  0  0  0  0
  -16.7210   25.2106   -0.4141 C   0  0  0  0  0  0  0  0  0  0  0  0
  -13.5493   24.0928    0.3093 C   0  0  0  0  0  0  0  0  0  0  0  0
  -14.3593   25.0948   -0.3316 O   0  0  0  0  0  0  0  0  0  0  0  0
  -16.9768   25.5915    1.9316 C   0  0  0  0  0  0  0  0  0  0  0  0
  -16.6299   26.1014    0.6238 O   0  0  0  0  0  0  0  0  0  0  0  0
  -19.9969   25.7441   -3.8886 S   0  0  0  0  0  0  0  0  0  0  0  0
  -19.6526   24.0388   -3.6723 C   0  0  0  0  0  0  0  0  0  0  0  0
  -19.6975   23.1247   -4.6779 N   0  0  0  0  0  0  0  0  0  0  0  0
  -20.2572   22.3262   -4.5422 H   0  0  0  0  0  0  0  0  0  0  0  0
  -18.9752   23.2380   -5.9499 C   0  0  0  0  0  0  0  0  0  0  0  0
  -17.8691   22.2076   -5.9139 C   0  0  0  0  0  0  0  0  0  0  0  0
  -18.4602   20.8341   -6.0873 C   0  0  0  0  0  0  0  0  0  0  0  0
  -15.5762   18.7595   -5.6758 C   0  0  0  0  0  0  0  0  0  0  0  0
  -16.1877   19.9409   -5.6219 C   0  0  0  0  0  0  0  0  0  0  0  0
  -17.6070   18.5066   -6.3203 C   0  0  0  0  0  0  0  0  0  0  0  0
  -16.4727   17.8825   -6.1022 N   0  0  0  0  0  0  0  0  0  0  0  0
  -17.4426   19.7874   -6.0205 N   0  0  0  0  0  0  0  0  0  0  0  0
  9 10  1  0  0  0
 11 12  1  0  0  0
 13 14  2  0  0  0
 20 21  2  0  0  0
 20 23  1  0  0  0
  3  4  2  0  0  0
  3  6  1  0  0  0
  4  7  1  0  0  0
 21 24  1  0  0  0
 22 23  2  0  0  0
 22 24  1  0  0  0
  5  6  2  0  0  0
  5  8  1  0  0  0
 18 17  1  0  0  0
 18 19  1  0  0  0
 17 15  1  0  0  0
 19 24  1  0  0  0
 15 14  1  0  0  0
  1 14  1  0  0  0
  1  6  1  0  0  0
 10  7  1  0  0  0
 12  8  1  0  0  0
  7  8  2  0  0  0
 15 16  1  0  0  0
  1  2  1  0  0  0
M  END
> <minimizedAffinity>
-5.85206

$$$$
4MHZ_PBD_A_401


 24 25  0  0  0  0  0  0  0  0999 V2000
  -23.6027   21.9060   -6.2559 N   0  0  0  0  0  0  0  0  0  0  0  0
  -24.2053   22.3278   -6.9103 H   0  0  0  0  0  0  0  0  0  0  0  0
  -23.6407   20.5298   -4.2527 C   0  0  0  0  0  0  0  0  0  0  0  0
  -24.1466   19.3652   -3.6494 C   0  0  0  0  0  0  0  0  0  0  0  0
  -24.8812   19.9804   -6.2829 C   0  0  0  0  0  0  0  0  0  0  0  0
  -24.0203   20.8304   -5.5729 C   0  0  0  0  0  0  0  0  0  0  0  0
  -25.0176   18.5120   -4.3647 C   0  0  0  0  0  0  0  0  0  0  0  0
  -25.3829   18.8286   -5.6873 C   0  0  0  0  0  0  0  0  0  0  0  0
  -25.1872   16.9932   -2.5053 C   0  0  0  0  0  0  0  0  0  0  0  0
  -25.5565   17.3479   -3.8501 O   0  0  0  0  0  0  0  0  0  0  0  0
  -27.1860   18.5926   -7.2384 C   0  0  0  0  0  0  0  0  0  0  0  0
  -26.2290   17.9755   -6.3472 O   0  0  0  0  0  0  0  0  0  0  0  0
  -22.2444   23.9237   -5.1699 S   0  0  0  0  0  0  0  0  0  0  0  0
  -22.3710   22.4195   -6.0614 C   0  0  0  0  0  0  0  0  0  0  0  0
  -21.2985   21.6980   -6.4834 N   0  0  0  0  0  0  0  0  0  0  0  0
  -21.4689   20.7964   -6.8405 H   0  0  0  0  0  0  0  0  0  0  0  0
  -19.9068   22.1610   -6.4471 C   0  0  0  0  0  0  0  0  0  0  0  0
  -19.1470   21.1836   -5.5788 C   0  0  0  0  0  0  0  0  0  0  0  0
  -17.6761   21.2856   -5.8814 C   0  0  0  0  0  0  0  0  0  0  0  0
  -16.5769   17.9160   -6.3601 C   0  0  0  0  0  0  0  0  0  0  0  0
  -17.4357   18.9105   -6.5744 C   0  0  0  0  0  0  0  0  0  0  0  0
  -15.9133   19.6383   -5.2659 C   0  0  0  0  0  0  0  0  0  0  0  0
  -15.6369   18.3877   -5.5546 N   0  0  0  0  0  0  0  0  0  0  0  0
  -17.0283   19.9757   -5.8987 N   0  0  0  0  0  0  0  0  0  0  0  0
  9 10  1  0  0  0
 11 12  1  0  0  0
 13 14  2  0  0  0
 20 21  2  0  0  0
 20 23  1  0  0  0
  3  4  2  0  0  0
  3  6  1  0  0  0
  4  7  1  0  0  0
 21 24  1  0  0  0
 22 23  2  0  0  0
 22 24  1  0  0  0
  5  6  2  0  0  0
  5  8  1  0  0  0
 18 17  1  0  0  0
 18 19  1  0  0  0
 17 15  1  0  0  0
 19 24  1  0  0  0
 15 14  1  0  0  0
  1 14  1  0  0  0
  1  6  1  0  0  0
 10  7  1  0  0  0
 12  8  1  0  0  0
  7  8  2  0  0  0
 15 16  1  0  0  0
  1  2  1  0  0  0
M  END
> <minimizedAffinity>
-5.79029

$$$$
4MHZ_PBD_A_401


 24 25  0  0  0  0  0  0  0  0999 V2000
  -20.4450   22.6549   -6.3759 N   0  0  0  0  0  0  0  0  0  0  0  0
  -20.5235   23.2121   -7.1836 H   0  0  0  0  0  0  0  0  0  0  0  0
  -18.9971   20.7638   -6.8612 C   0  0  0  0  0  0  0  0  0  0  0  0
  -17.7930   20.1088   -6.5489 C   0  0  0  0  0  0  0  0  0  0  0  0
  -18.4760   22.4574   -5.1811 C   0  0  0  0  0  0  0  0  0  0  0  0
  -19.3266   21.9440   -6.1714 C   0  0  0  0  0  0  0  0  0  0  0  0
  -16.9348   20.6299   -5.5539 C   0  0  0  0  0  0  0  0  0  0  0  0
  -17.2846   21.8112   -4.8717 C   0  0  0  0  0  0  0  0  0  0  0  0
  -15.5041   18.6953   -5.6126 C   0  0  0  0  0  0  0  0  0  0  0  0
  -15.7370   20.0487   -5.1826 O   0  0  0  0  0  0  0  0  0  0  0  0
  -16.9960   23.1877   -2.9392 C   0  0  0  0  0  0  0  0  0  0  0  0
  -16.4260   22.2838   -3.9134 O   0  0  0  0  0  0  0  0  0  0  0  0
  -21.8341   24.0891   -4.6126 S   0  0  0  0  0  0  0  0  0  0  0  0
  -21.4640   22.6191   -5.4932 C   0  0  0  0  0  0  0  0  0  0  0  0
  -22.2007   21.4795   -5.4062 N   0  0  0  0  0  0  0  0  0  0  0  0
  -21.9049   20.7946   -4.7639 H   0  0  0  0  0  0  0  0  0  0  0  0
  -23.4030   21.1932   -6.1969 C   0  0  0  0  0  0  0  0  0  0  0  0
  -24.4670   20.7435   -5.2212 C   0  0  0  0  0  0  0  0  0  0  0  0
  -25.8256   21.0895   -5.7691 C   0  0  0  0  0  0  0  0  0  0  0  0
  -27.5711   18.8357   -7.9289 C   0  0  0  0  0  0  0  0  0  0  0  0
  -27.2668   20.0642   -7.5156 C   0  0  0  0  0  0  0  0  0  0  0  0
  -26.2053   18.6826   -6.2811 C   0  0  0  0  0  0  0  0  0  0  0  0
  -26.8982   17.9940   -7.1584 N   0  0  0  0  0  0  0  0  0  0  0  0
  -26.4236   19.9723   -6.4970 N   0  0  0  0  0  0  0  0  0  0  0  0
  9 10  1  0  0  0
 11 12  1  0  0  0
 13 14  2  0  0  0
 20 21  2  0  0  0
 20 23  1  0  0  0
  3  4  2  0  0  0
  3  6  1  0  0  0
  4  7  1  0  0  0
 21 24  1  0  0  0
 22 23  2  0  0  0
 22 24  1  0  0  0
  5  6  2  0  0  0
  5  8  1  0  0  0
 18 17  1  0  0  0
 18 19  1  0  0  0
 17 15  1  0  0  0
 19 24  1  0  0  0
 15 14  1  0  0  0
  1 14  1  0  0  0
  1  6  1  0  0  0
 10  7  1  0  0  0
 12  8  1  0  0  0
  7  8  2  0  0  0
 15 16  1  0  0  0
  1  2  1  0  0  0
M  END
> <minimizedAffinity>
-5.57557

$$$$
4MHZ_PBD_A_401


 24 25  0  0  0  0  0  0  0  0999 V2000
  -21.1370   21.9283   -3.6820 N   0  0  0  0  0  0  0  0  0  0  0  0
  -20.6461   21.3799   -3.0282 H   0  0  0  0  0  0  0  0  0  0  0  0
  -22.4870   21.5874   -5.6744 C   0  0  0  0  0  0  0  0  0  0  0  0
  -23.6433   20.9939   -6.2099 C   0  0  0  0  0  0  0  0  0  0  0  0
  -23.0618   20.6630   -3.4886 C   0  0  0  0  0  0  0  0  0  0  0  0
  -22.2033   21.4103   -4.3085 C   0  0  0  0  0  0  0  0  0  0  0  0
  -24.5051   20.2373   -5.3833 C   0  0  0  0  0  0  0  0  0  0  0  0
  -24.2053   20.0748   -4.0170 C   0  0  0  0  0  0  0  0  0  0  0  0
  -26.6021   20.4416   -6.5466 C   0  0  0  0  0  0  0  0  0  0  0  0
  -25.6620   19.6244   -5.8262 O   0  0  0  0  0  0  0  0  0  0  0  0
  -24.6040   18.0198   -2.8633 C   0  0  0  0  0  0  0  0  0  0  0  0
  -25.0662   19.3345   -3.2489 O   0  0  0  0  0  0  0  0  0  0  0  0
  -21.5085   24.4916   -3.0598 S   0  0  0  0  0  0  0  0  0  0  0  0
  -20.7260   23.1881   -3.9326 C   0  0  0  0  0  0  0  0  0  0  0  0
  -19.6714   23.3662   -4.7723 N   0  0  0  0  0  0  0  0  0  0  0  0
  -19.8217   23.9033   -5.5836 H   0  0  0  0  0  0  0  0  0  0  0  0
  -18.3268   22.8187   -4.5611 C   0  0  0  0  0  0  0  0  0  0  0  0
  -17.9268   22.1406   -5.8521 C   0  0  0  0  0  0  0  0  0  0  0  0
  -18.5082   20.7526   -5.8882 C   0  0  0  0  0  0  0  0  0  0  0  0
  -15.5987   18.6850   -5.6634 C   0  0  0  0  0  0  0  0  0  0  0  0
  -16.2401   19.8327   -5.4542 C   0  0  0  0  0  0  0  0  0  0  0  0
  -17.5894   18.5061   -6.4436 C   0  0  0  0  0  0  0  0  0  0  0  0
  -16.4524   17.8732   -6.2693 N   0  0  0  0  0  0  0  0  0  0  0  0
  -17.4703   19.7250   -5.9362 N   0  0  0  0  0  0  0  0  0  0  0  0
  9 10  1  0  0  0
 11 12  1  0  0  0
 13 14  2  0  0  0
 20 21  2  0  0  0
 20 23  1  0  0  0
  3  4  2  0  0  0
  3  6  1  0  0  0
  4  7  1  0  0  0
 21 24  1  0  0  0
 22 23  2  0  0  0
 22 24  1  0  0  0
  5  6  2  0  0  0
  5  8  1  0  0  0
 18 17  1  0  0  0
 18 19  1  0  0  0
 17 15  1  0  0  0
 19 24  1  0  0  0
 15 14  1  0  0  0
  1 14  1  0  0  0
  1  6  1  0  0  0
 10  7  1  0  0  0
 12  8  1  0  0  0
  7  8  2  0  0  0
 15 16  1  0  0  0
  1  2  1  0  0  0
M  END
> <minimizedAffinity>
-5.52272

$$$$
4MHZ_PBD_A_401


 24 25  0  0  0  0  0  0  0  0999 V2000
  -21.0745   22.4801   -6.2119 N   0  0  0  0  0  0  0  0  0  0  0  0
  -21.0298   22.0312   -7.0869 H   0  0  0  0  0  0  0  0  0  0  0  0
  -21.2253   21.7574   -3.8960 C   0  0  0  0  0  0  0  0  0  0  0  0
  -22.0132   21.1133   -2.9262 C   0  0  0  0  0  0  0  0  0  0  0  0
  -22.9943   21.3837   -5.5372 C   0  0  0  0  0  0  0  0  0  0  0  0
  -21.7304   21.8913   -5.2015 C   0  0  0  0  0  0  0  0  0  0  0  0
  -23.2885   20.6063   -3.2649 C   0  0  0  0  0  0  0  0  0  0  0  0
  -23.7749   20.7470   -4.5789 C   0  0  0  0  0  0  0  0  0  0  0  0
  -23.6479   19.7922   -1.0287 C   0  0  0  0  0  0  0  0  0  0  0  0
  -24.1249   19.9575   -2.3762 O   0  0  0  0  0  0  0  0  0  0  0  0
  -25.0399   18.9874   -5.5870 C   0  0  0  0  0  0  0  0  0  0  0  0
  -25.0159   20.2414   -4.8676 O   0  0  0  0  0  0  0  0  0  0  0  0
  -21.4996   25.0753   -5.7872 S   0  0  0  0  0  0  0  0  0  0  0  0
  -20.4749   23.6771   -6.0492 C   0  0  0  0  0  0  0  0  0  0  0  0
  -19.1165   23.7160   -6.0044 N   0  0  0  0  0  0  0  0  0  0  0  0
  -18.6936   24.5713   -5.7619 H   0  0  0  0  0  0  0  0  0  0  0  0
  -18.2331   22.5800   -6.2901 C   0  0  0  0  0  0  0  0  0  0  0  0
  -17.7852   22.0320   -4.9539 C   0  0  0  0  0  0  0  0  0  0  0  0
  -16.4345   21.3853   -5.1066 C   0  0  0  0  0  0  0  0  0  0  0  0
  -16.0219   17.9899   -6.1515 C   0  0  0  0  0  0  0  0  0  0  0  0
  -15.5328   19.1552   -5.7328 C   0  0  0  0  0  0  0  0  0  0  0  0
  -17.6516   19.3623   -5.8974 C   0  0  0  0  0  0  0  0  0  0  0  0
  -17.3357   18.1346   -6.2395 N   0  0  0  0  0  0  0  0  0  0  0  0
  -16.5378   20.0052   -5.5757 N   0  0  0  0  0  0  0  0  0  0  0  0
  9 10  1  0  0  0
 11 12  1  0  0  0
 13 14  2  0  0  0
 20 21  2  0  0  0
 20 23  1  0  0  0
  3  4  2  0  0  0
  3  6  1  0  0  0
  4  7  1  0  0  0
 21 24  1  0  0  0
 22 23  2  0  0  0
 22 24  1  0  0  0
  5  6  2  0  0  0
  5  8  1  0  0  0
 18 17  1  0  0  0
 18 19  1  0  0  0
 17 15  1  0  0  0
 19 24  1  0  0  0
 15 14  1  0  0  0
  1 14  1  0  0  0
  1  6  1  0  0  0
 10  7  1  0  0  0
 12  8  1  0  0  0
  7  8  2  0  0  0
 15 16  1  0  0  0
  1  2  1  0  0  0
M  END
> <minimizedAffinity>
-5.41988

$$$$
4MHZ_PBD_A_401


 24 25  0  0  0  0  0  0  0  0999 V2000
  -17.9317   24.1533   -3.5692 N   0  0  0  0  0  0  0  0  0  0  0  0
  -17.7401   25.0428   -3.9451 H   0  0  0  0  0  0  0  0  0  0  0  0
  -17.2231   22.0114   -4.4738 C   0  0  0  0  0  0  0  0  0  0  0  0
  -17.5078   20.9817   -5.3875 C   0  0  0  0  0  0  0  0  0  0  0  0
  -19.2298   23.1862   -5.2193 C   0  0  0  0  0  0  0  0  0  0  0  0
  -18.0972   23.1101   -4.3951 C   0  0  0  0  0  0  0  0  0  0  0  0
  -18.6520   21.0577   -6.2142 C   0  0  0  0  0  0  0  0  0  0  0  0
  -19.5130   22.1683   -6.1229 C   0  0  0  0  0  0  0  0  0  0  0  0
  -18.0028   19.1182   -7.4828 C   0  0  0  0  0  0  0  0  0  0  0  0
  -19.0035   20.0939   -7.1403 O   0  0  0  0  0  0  0  0  0  0  0  0
  -21.8942   22.0500   -6.2926 C   0  0  0  0  0  0  0  0  0  0  0  0
  -20.6115   22.2049   -6.9420 O   0  0  0  0  0  0  0  0  0  0  0  0
  -19.5941   23.6118   -1.5594 S   0  0  0  0  0  0  0  0  0  0  0  0
  -18.0234   24.0043   -2.2320 C   0  0  0  0  0  0  0  0  0  0  0  0
  -16.8818   24.0739   -1.4966 N   0  0  0  0  0  0  0  0  0  0  0  0
  -16.9652   24.3330   -0.5505 H   0  0  0  0  0  0  0  0  0  0  0  0
  -15.5351   23.7921   -2.0061 C   0  0  0  0  0  0  0  0  0  0  0  0
  -14.6009   24.7670   -1.3253 C   0  0  0  0  0  0  0  0  0  0  0  0
  -14.9491   24.8546    0.1365 C   0  0  0  0  0  0  0  0  0  0  0  0
  -12.3243   23.7219    2.2855 C   0  0  0  0  0  0  0  0  0  0  0  0
  -12.9543   24.6802    1.6092 C   0  0  0  0  0  0  0  0  0  0  0  0
  -13.9929   22.8478    1.2581 C   0  0  0  0  0  0  0  0  0  0  0  0
  -12.9863   22.5964    2.0628 N   0  0  0  0  0  0  0  0  0  0  0  0
  -13.9853   24.1424    0.9728 N   0  0  0  0  0  0  0  0  0  0  0  0
  9 10  1  0  0  0
 11 12  1  0  0  0
 13 14  2  0  0  0
 20 21  2  0  0  0
 20 23  1  0  0  0
  3  4  2  0  0  0
  3  6  1  0  0  0
  4  7  1  0  0  0
 21 24  1  0  0  0
 22 23  2  0  0  0
 22 24  1  0  0  0
  5  6  2  0  0  0
  5  8  1  0  0  0
 18 17  1  0  0  0
 18 19  1  0  0  0
 17 15  1  0  0  0
 19 24  1  0  0  0
 15 14  1  0  0  0
  1 14  1  0  0  0
  1  6  1  0  0  0
 10  7  1  0  0  0
 12  8  1  0  0  0
  7  8  2  0  0  0
 15 16  1  0  0  0
  1  2  1  0  0  0
M  END
> <minimizedAffinity>
-5.37982

$$$$
4MHZ_PBD_A_401


 24 25  0  0  0  0  0  0  0  0999 V2000
  -21.5067   24.2509   -4.9836 N   0  0  0  0  0  0  0  0  0  0  0  0
  -21.6714   25.1718   -5.2904 H   0  0  0  0  0  0  0  0  0  0  0  0
  -22.0411   22.1168   -6.0170 C   0  0  0  0  0  0  0  0  0  0  0  0
  -23.0501   21.1788   -6.2970 C   0  0  0  0  0  0  0  0  0  0  0  0
  -23.6961   23.5151   -4.8907 C   0  0  0  0  0  0  0  0  0  0  0  0
  -22.3766   23.2830   -5.3065 C   0  0  0  0  0  0  0  0  0  0  0  0
  -24.3784   21.4120   -5.8734 C   0  0  0  0  0  0  0  0  0  0  0  0
  -24.6948   22.5880   -5.1663 C   0  0  0  0  0  0  0  0  0  0  0  0
  -25.3421   19.2343   -5.5251 C   0  0  0  0  0  0  0  0  0  0  0  0
  -25.4297   20.5464   -6.1094 O   0  0  0  0  0  0  0  0  0  0  0  0
  -26.6157   24.0098   -5.2051 C   0  0  0  0  0  0  0  0  0  0  0  0
  -25.9943   22.7775   -4.7735 O   0  0  0  0  0  0  0  0  0  0  0  0
  -20.6475   23.3288   -2.6368 S   0  0  0  0  0  0  0  0  0  0  0  0
  -20.4101   23.9840   -4.2455 C   0  0  0  0  0  0  0  0  0  0  0  0
  -19.1899   24.1489   -4.8224 N   0  0  0  0  0  0  0  0  0  0  0  0
  -18.6243   24.8824   -4.4887 H   0  0  0  0  0  0  0  0  0  0  0  0
  -18.6522   23.3167   -5.9045 C   0  0  0  0  0  0  0  0  0  0  0  0
  -18.1896   22.0248   -5.2693 C   0  0  0  0  0  0  0  0  0  0  0  0
  -18.4525   20.8821   -6.2132 C   0  0  0  0  0  0  0  0  0  0  0  0
  -15.6130   18.7787   -5.6616 C   0  0  0  0  0  0  0  0  0  0  0  0
  -16.2023   19.9724   -5.6766 C   0  0  0  0  0  0  0  0  0  0  0  0
  -17.6418   18.5300   -6.3144 C   0  0  0  0  0  0  0  0  0  0  0  0
  -16.5219   17.8972   -6.0513 N   0  0  0  0  0  0  0  0  0  0  0  0
  -17.4558   19.8216   -6.0804 N   0  0  0  0  0  0  0  0  0  0  0  0
  9 10  1  0  0  0
 11 12  1  0  0  0
 13 14  2  0  0  0
 20 21  2  0  0  0
 20 23  1  0  0  0
  3  4  2  0  0  0
  3  6  1  0  0  0
  4  7  1  0  0  0
 21 24  1  0  0  0
 22 23  2  0  0  0
 22 24  1  0  0  0
  5  6  2  0  0  0
  5  8  1  0  0  0
 18 17  1  0  0  0
 18 19  1  0  0  0
 17 15  1  0  0  0
 19 24  1  0  0  0
 15 14  1  0  0  0
  1 14  1  0  0  0
  1  6  1  0  0  0
 10  7  1  0  0  0
 12  8  1  0  0  0
  7  8  2  0  0  0
 15 16  1  0  0  0
  1  2  1  0  0  0
M  END
> <minimizedAffinity>
-5.30860

$$$$
4MHZ_PBD_A_401


 24 25  0  0  0  0  0  0  0  0999 V2000
  -23.4690   20.8874   -4.3123 N   0  0  0  0  0  0  0  0  0  0  0  0
  -23.8633   20.8326   -5.2128 H   0  0  0  0  0  0  0  0  0  0  0  0
  -23.1092   19.8283   -2.1543 C   0  0  0  0  0  0  0  0  0  0  0  0
  -23.3927   18.7176   -1.3406 C   0  0  0  0  0  0  0  0  0  0  0  0
  -24.4870   18.8501   -3.9171 C   0  0  0  0  0  0  0  0  0  0  0  0
  -23.6679   19.8858   -3.4434 C   0  0  0  0  0  0  0  0  0  0  0  0
  -24.2219   17.6769   -1.8177 C   0  0  0  0  0  0  0  0  0  0  0  0
  -24.7688   17.7514   -3.1132 C   0  0  0  0  0  0  0  0  0  0  0  0
  -24.6193   16.6939    0.3430 C   0  0  0  0  0  0  0  0  0  0  0  0
  -24.5478   16.5498   -1.0870 O   0  0  0  0  0  0  0  0  0  0  0  0
  -26.9314   17.0699   -3.8693 C   0  0  0  0  0  0  0  0  0  0  0  0
  -25.5674   16.7217   -3.5390 O   0  0  0  0  0  0  0  0  0  0  0  0
  -23.5768   23.3295   -3.2540 S   0  0  0  0  0  0  0  0  0  0  0  0
  -22.7378   21.9686   -3.9733 C   0  0  0  0  0  0  0  0  0  0  0  0
  -21.3876   21.9050   -4.1212 N   0  0  0  0  0  0  0  0  0  0  0  0
  -20.8426   21.8466   -3.3034 H   0  0  0  0  0  0  0  0  0  0  0  0
  -20.6813   21.9166   -5.4071 C   0  0  0  0  0  0  0  0  0  0  0  0
  -19.3235   21.2980   -5.1619 C   0  0  0  0  0  0  0  0  0  0  0  0
  -18.8499   20.6186   -6.4189 C   0  0  0  0  0  0  0  0  0  0  0  0
  -15.7395   19.0763   -5.5600 C   0  0  0  0  0  0  0  0  0  0  0  0
  -16.5366   20.1392   -5.6457 C   0  0  0  0  0  0  0  0  0  0  0  0
  -17.6081   18.4605   -6.4161 C   0  0  0  0  0  0  0  0  0  0  0  0
  -16.4227   18.0450   -6.0337 N   0  0  0  0  0  0  0  0  0  0  0  0
  -17.6917   19.7614   -6.1752 N   0  0  0  0  0  0  0  0  0  0  0  0
  9 10  1  0  0  0
 11 12  1  0  0  0
 13 14  2  0  0  0
 20 21  2  0  0  0
 20 23  1  0  0  0
  3  4  2  0  0  0
  3  6  1  0  0  0
  4  7  1  0  0  0
 21 24  1  0  0  0
 22 23  2  0  0  0
 22 24  1  0  0  0
  5  6  2  0  0  0
  5  8  1  0  0  0
 18 17  1  0  0  0
 18 19  1  0  0  0
 17 15  1  0  0  0
 19 24  1  0  0  0
 15 14  1  0  0  0
  1 14  1  0  0  0
  1  6  1  0  0  0
 10  7  1  0  0  0
 12  8  1  0  0  0
  7  8  2  0  0  0
 15 16  1  0  0  0
  1  2  1  0  0  0
M  END
> <minimizedAffinity>
-5.29430

$$$$
4MHZ_PBD_A_401


 24 25  0  0  0  0  0  0  0  0999 V2000
  -21.5741   22.4439   -2.4885 N   0  0  0  0  0  0  0  0  0  0  0  0
  -21.4885   22.8524   -1.5968 H   0  0  0  0  0  0  0  0  0  0  0  0
  -23.1892   21.1457   -3.7590 C   0  0  0  0  0  0  0  0  0  0  0  0
  -23.9656   19.9746   -3.8032 C   0  0  0  0  0  0  0  0  0  0  0  0
  -22.3052   20.4415   -1.5945 C   0  0  0  0  0  0  0  0  0  0  0  0
  -22.3563   21.3666   -2.6478 C   0  0  0  0  0  0  0  0  0  0  0  0
  -23.9096   19.0412   -2.7431 C   0  0  0  0  0  0  0  0  0  0  0  0
  -23.0719   19.2825   -1.6371 C   0  0  0  0  0  0  0  0  0  0  0  0
  -25.3331   17.4881   -3.9067 C   0  0  0  0  0  0  0  0  0  0  0  0
  -24.6407   17.8689   -2.7041 O   0  0  0  0  0  0  0  0  0  0  0  0
  -22.7112   18.8517    0.6860 C   0  0  0  0  0  0  0  0  0  0  0  0
  -23.0462   18.3535   -0.6295 O   0  0  0  0  0  0  0  0  0  0  0  0
  -21.5644   24.4184   -4.2764 S   0  0  0  0  0  0  0  0  0  0  0  0
  -20.9026   22.9771   -3.5294 C   0  0  0  0  0  0  0  0  0  0  0  0
  -19.7099   22.4245   -3.8773 N   0  0  0  0  0  0  0  0  0  0  0  0
  -19.3679   21.6907   -3.3171 H   0  0  0  0  0  0  0  0  0  0  0  0
  -18.8940   22.8388   -5.0241 C   0  0  0  0  0  0  0  0  0  0  0  0
  -17.6220   22.0230   -4.9688 C   0  0  0  0  0  0  0  0  0  0  0  0
  -17.4147   21.3311   -6.2894 C   0  0  0  0  0  0  0  0  0  0  0  0
  -16.4931   17.8769   -6.3898 C   0  0  0  0  0  0  0  0  0  0  0  0
  -17.2275   18.9067   -6.8053 C   0  0  0  0  0  0  0  0  0  0  0  0
  -15.9097   19.6209   -5.2844 C   0  0  0  0  0  0  0  0  0  0  0  0
  -15.6774   18.3399   -5.4543 N   0  0  0  0  0  0  0  0  0  0  0  0
  -16.8695   19.9854   -6.1231 N   0  0  0  0  0  0  0  0  0  0  0  0
  9 10  1  0  0  0
 11 12  1  0  0  0
 13 14  2  0  0  0
 20 21  2  0  0  0
 20 23  1  0  0  0
  3  4  2  0  0  0
  3  6  1  0  0  0
  4  7  1  0  0  0
 21 24  1  0  0  0
 22 23  2  0  0  0
 22 24  1  0  0  0
  5  6  2  0  0  0
  5  8  1  0  0  0
 18 17  1  0  0  0
 18 19  1  0  0  0
 17 15  1  0  0  0
 19 24  1  0  0  0
 15 14  1  0  0  0
  1 14  1  0  0  0
  1  6  1  0  0  0
 10  7  1  0  0  0
 12  8  1  0  0  0
  7  8  2  0  0  0
 15 16  1  0  0  0
  1  2  1  0  0  0
M  END
> <minimizedAffinity>
-5.26422

$$$$
