3JUP_AKD_A_500


 19 20  0  0  0  0  0  0  0  0999 V2000
   43.8914    5.7815   93.3148 Br  0  0  0  0  0  0  0  0  0  0  0  0
   43.8125    2.9556   93.0099 C   0  0  0  0  0  0  0  0  0  0  0  0
   43.1769    1.7284   93.0376 C   0  0  0  0  0  0  0  0  0  0  0  0
   41.7227    3.9939   93.6333 C   0  0  0  0  0  0  0  0  0  0  0  0
   43.0766    4.0692   93.3051 C   0  0  0  0  0  0  0  0  0  0  0  0
   41.8201    1.6541   93.3084 C   0  0  0  0  0  0  0  0  0  0  0  0
   41.0739    2.7762   93.6204 C   0  0  0  0  0  0  0  0  0  0  0  0
   38.8078    2.0146   93.2565 O   0  0  0  0  0  0  0  0  0  0  0  0
   39.2334    3.3341   94.9235 O   0  0  0  0  0  0  0  0  0  0  0  0
   39.5572    2.7080   93.9406 C   0  0  0  0  0  0  0  0  0  0  0  0
   41.2762    0.4293   93.3466 N   0  0  0  0  0  0  0  0  0  0  0  0
   40.6289    0.2318   94.0616 H   0  0  0  0  0  0  0  0  0  0  0  0
   39.1543   -1.3488   92.3479 C   0  0  0  0  0  0  0  0  0  0  0  0
   38.9749   -0.7005   90.9621 C   0  0  0  0  0  0  0  0  0  0  0  0
   40.5556   -1.7324   92.5852 C   0  0  0  0  0  0  0  0  0  0  0  0
   41.4020   -0.0027   90.9903 C   0  0  0  0  0  0  0  0  0  0  0  0
   39.9840    0.3320   90.7790 N   0  0  0  0  0  0  0  0  0  0  0  0
   41.5883   -0.6315   92.3873 C   0  0  0  0  0  0  0  0  0  0  0  0
   39.7570    1.0882   91.4248 H   0  0  0  0  0  0  0  0  0  0  0  0
  8 10  1  0  0  0
  9 10  2  0  0  0
  1  5  1  0  0  0
  2  3  2  0  0  0
  2  5  1  0  0  0
  3  6  1  0  0  0
  4  5  2  0  0  0
  4  7  1  0  0  0
 13 14  1  0  0  0
 13 15  1  0  0  0
 14 17  1  0  0  0
 15 18  1  0  0  0
 16 17  1  0  0  0
 16 18  1  0  0  0
 11  6  1  0  0  0
 11 18  1  0  0  0
 10  7  1  0  0  0
  6  7  2  0  0  0
 17 19  1  0  0  0
 11 12  1  0  0  0
M  CHG 1   8  -1
M  END
> <minimizedAffinity>
-7.92816

$$$$
3JUP_AKD_A_500


 19 20  0  0  0  0  0  0  0  0999 V2000
   42.8101    6.0885   94.9803 Br  0  0  0  0  0  0  0  0  0  0  0  0
   41.0382    3.8916   94.6347 C   0  0  0  0  0  0  0  0  0  0  0  0
   40.5573    2.7890   93.9537 C   0  0  0  0  0  0  0  0  0  0  0  0
   42.7282    4.1442   92.9277 C   0  0  0  0  0  0  0  0  0  0  0  0
   42.1168    4.5507   94.1140 C   0  0  0  0  0  0  0  0  0  0  0  0
   41.1953    2.3485   92.8053 C   0  0  0  0  0  0  0  0  0  0  0  0
   42.2788    3.0192   92.2673 C   0  0  0  0  0  0  0  0  0  0  0  0
   43.3928    1.3893   90.8709 O   0  0  0  0  0  0  0  0  0  0  0  0
   43.0542    3.3909   90.1092 O   0  0  0  0  0  0  0  0  0  0  0  0
   42.9947    2.5474   90.9741 C   0  0  0  0  0  0  0  0  0  0  0  0
   40.6575    1.2906   92.1815 N   0  0  0  0  0  0  0  0  0  0  0  0
   40.4866    1.3605   91.2145 H   0  0  0  0  0  0  0  0  0  0  0  0
   40.2292   -1.1687   90.6228 C   0  0  0  0  0  0  0  0  0  0  0  0
   41.5781   -1.8465   90.9291 C   0  0  0  0  0  0  0  0  0  0  0  0
   39.5193   -0.8003   91.8587 C   0  0  0  0  0  0  0  0  0  0  0  0
   41.6507   -0.6621   93.1585 C   0  0  0  0  0  0  0  0  0  0  0  0
   42.3101   -1.0463   91.8995 N   0  0  0  0  0  0  0  0  0  0  0  0
   40.3094    0.0379   92.8541 C   0  0  0  0  0  0  0  0  0  0  0  0
   42.5809   -0.1825   91.4295 H   0  0  0  0  0  0  0  0  0  0  0  0
  8 10  1  0  0  0
  9 10  2  0  0  0
  1  5  1  0  0  0
  2  3  2  0  0  0
  2  5  1  0  0  0
  3  6  1  0  0  0
  4  5  2  0  0  0
  4  7  1  0  0  0
 13 14  1  0  0  0
 13 15  1  0  0  0
 14 17  1  0  0  0
 15 18  1  0  0  0
 16 17  1  0  0  0
 16 18  1  0  0  0
 11  6  1  0  0  0
 11 18  1  0  0  0
 10  7  1  0  0  0
  6  7  2  0  0  0
 17 19  1  0  0  0
 11 12  1  0  0  0
M  CHG 1   8  -1
M  END
> <minimizedAffinity>
-7.60286

$$$$
3JUP_AKD_A_500


 19 20  0  0  0  0  0  0  0  0999 V2000
   39.0934   -1.1487   92.2062 Br  0  0  0  0  0  0  0  0  0  0  0  0
   41.0081    0.9521   92.2824 C   0  0  0  0  0  0  0  0  0  0  0  0
   42.2876    1.4610   92.1619 C   0  0  0  0  0  0  0  0  0  0  0  0
   41.8692   -1.2191   91.6674 C   0  0  0  0  0  0  0  0  0  0  0  0
   40.8172   -0.3781   92.0312 C   0  0  0  0  0  0  0  0  0  0  0  0
   43.3253    0.6419   91.7470 C   0  0  0  0  0  0  0  0  0  0  0  0
   43.1401   -0.7072   91.5041 C   0  0  0  0  0  0  0  0  0  0  0  0
   44.7749   -2.4579   91.8357 O   0  0  0  0  0  0  0  0  0  0  0  0
   44.6031   -1.5153   89.8906 O   0  0  0  0  0  0  0  0  0  0  0  0
   44.2946   -1.6408   91.0535 C   0  0  0  0  0  0  0  0  0  0  0  0
   44.5444    1.1957   91.6796 N   0  0  0  0  0  0  0  0  0  0  0  0
   45.2709    0.7816   92.1992 H   0  0  0  0  0  0  0  0  0  0  0  0
   47.3423    1.9226   91.1277 C   0  0  0  0  0  0  0  0  0  0  0  0
   47.4055    1.4173   89.6739 C   0  0  0  0  0  0  0  0  0  0  0  0
   46.2310    2.8685   91.3208 C   0  0  0  0  0  0  0  0  0  0  0  0
   44.9378    1.8902   89.4175 C   0  0  0  0  0  0  0  0  0  0  0  0
   46.0819    0.9773   89.2589 N   0  0  0  0  0  0  0  0  0  0  0  0
   44.8585    2.3802   90.8788 C   0  0  0  0  0  0  0  0  0  0  0  0
   45.8670    0.1351   89.7926 H   0  0  0  0  0  0  0  0  0  0  0  0
  8 10  1  0  0  0
  9 10  2  0  0  0
  1  5  1  0  0  0
  2  3  2  0  0  0
  2  5  1  0  0  0
  3  6  1  0  0  0
  4  5  2  0  0  0
  4  7  1  0  0  0
 13 14  1  0  0  0
 13 15  1  0  0  0
 14 17  1  0  0  0
 15 18  1  0  0  0
 16 17  1  0  0  0
 16 18  1  0  0  0
 11  6  1  0  0  0
 11 18  1  0  0  0
 10  7  1  0  0  0
  6  7  2  0  0  0
 17 19  1  0  0  0
 11 12  1  0  0  0
M  CHG 1   8  -1
M  END
> <minimizedAffinity>
-7.48564

$$$$
3JUP_AKD_A_500


 19 20  0  0  0  0  0  0  0  0999 V2000
   42.5917    6.1752   94.7896 Br  0  0  0  0  0  0  0  0  0  0  0  0
   43.5818    4.1478   93.0591 C   0  0  0  0  0  0  0  0  0  0  0  0
   43.4444    3.0133   92.2815 C   0  0  0  0  0  0  0  0  0  0  0  0
   41.2220    4.0277   93.5597 C   0  0  0  0  0  0  0  0  0  0  0  0
   42.4697    4.6394   93.6839 C   0  0  0  0  0  0  0  0  0  0  0  0
   42.1971    2.4346   92.1103 C   0  0  0  0  0  0  0  0  0  0  0  0
   41.0713    2.9204   92.7504 C   0  0  0  0  0  0  0  0  0  0  0  0
   39.3662    1.7165   91.5293 O   0  0  0  0  0  0  0  0  0  0  0  0
   38.9797    2.3315   93.5723 O   0  0  0  0  0  0  0  0  0  0  0  0
   39.6705    2.2749   92.5810 C   0  0  0  0  0  0  0  0  0  0  0  0
   42.1432    1.3206   91.3663 N   0  0  0  0  0  0  0  0  0  0  0  0
   41.4917    1.2870   90.6289 H   0  0  0  0  0  0  0  0  0  0  0  0
   41.2216   -0.8984   93.0657 C   0  0  0  0  0  0  0  0  0  0  0  0
   40.8500   -1.8820   91.9400 C   0  0  0  0  0  0  0  0  0  0  0  0
   42.6129   -0.4349   92.9378 C   0  0  0  0  0  0  0  0  0  0  0  0
   42.6287   -0.8518   90.4725 C   0  0  0  0  0  0  0  0  0  0  0  0
   41.2446   -1.3180   90.6578 N   0  0  0  0  0  0  0  0  0  0  0  0
   42.9961    0.1514   91.5861 C   0  0  0  0  0  0  0  0  0  0  0  0
   40.6353   -0.5186   90.4838 H   0  0  0  0  0  0  0  0  0  0  0  0
  8 10  1  0  0  0
  9 10  2  0  0  0
  1  5  1  0  0  0
  2  3  2  0  0  0
  2  5  1  0  0  0
  3  6  1  0  0  0
  4  5  2  0  0  0
  4  7  1  0  0  0
 13 14  1  0  0  0
 13 15  1  0  0  0
 14 17  1  0  0  0
 15 18  1  0  0  0
 16 17  1  0  0  0
 16 18  1  0  0  0
 11  6  1  0  0  0
 11 18  1  0  0  0
 10  7  1  0  0  0
  6  7  2  0  0  0
 17 19  1  0  0  0
 11 12  1  0  0  0
M  CHG 1   8  -1
M  END
> <minimizedAffinity>
-7.27836

$$$$
3JUP_AKD_A_500


 19 20  0  0  0  0  0  0  0  0999 V2000
   41.1870   -2.2838   92.2786 Br  0  0  0  0  0  0  0  0  0  0  0  0
   42.6540   -0.1746   93.4970 C   0  0  0  0  0  0  0  0  0  0  0  0
   42.8193    1.1320   93.9166 C   0  0  0  0  0  0  0  0  0  0  0  0
   40.4456    0.4109   92.7135 C   0  0  0  0  0  0  0  0  0  0  0  0
   41.4702   -0.5164   92.9047 C   0  0  0  0  0  0  0  0  0  0  0  0
   41.7840    2.0426   93.7793 C   0  0  0  0  0  0  0  0  0  0  0  0
   40.5893    1.7053   93.1692 C   0  0  0  0  0  0  0  0  0  0  0  0
   38.9353    3.2757   93.9729 O   0  0  0  0  0  0  0  0  0  0  0  0
   39.1218    2.9224   91.8418 O   0  0  0  0  0  0  0  0  0  0  0  0
   39.4261    2.7172   92.9944 C   0  0  0  0  0  0  0  0  0  0  0  0
   42.0245    3.2985   94.1820 N   0  0  0  0  0  0  0  0  0  0  0  0
   42.1959    3.4535   95.1390 H   0  0  0  0  0  0  0  0  0  0  0  0
   43.2214    5.8427   95.0513 C   0  0  0  0  0  0  0  0  0  0  0  0
   44.5491    5.7224   94.2795 C   0  0  0  0  0  0  0  0  0  0  0  0
   42.0628    5.7005   94.1545 C   0  0  0  0  0  0  0  0  0  0  0  0
   43.3783    4.3556   92.5075 C   0  0  0  0  0  0  0  0  0  0  0  0
   44.5086    4.5394   93.4328 N   0  0  0  0  0  0  0  0  0  0  0  0
   42.0471    4.4529   93.2821 C   0  0  0  0  0  0  0  0  0  0  0  0
   44.5211    3.7292   94.0523 H   0  0  0  0  0  0  0  0  0  0  0  0
  8 10  1  0  0  0
  9 10  2  0  0  0
  1  5  1  0  0  0
  2  3  2  0  0  0
  2  5  1  0  0  0
  3  6  1  0  0  0
  4  5  2  0  0  0
  4  7  1  0  0  0
 13 14  1  0  0  0
 13 15  1  0  0  0
 14 17  1  0  0  0
 15 18  1  0  0  0
 16 17  1  0  0  0
 16 18  1  0  0  0
 11  6  1  0  0  0
 11 18  1  0  0  0
 10  7  1  0  0  0
  6  7  2  0  0  0
 17 19  1  0  0  0
 11 12  1  0  0  0
M  CHG 1   8  -1
M  END
> <minimizedAffinity>
-7.19186

$$$$
3JUP_AKD_A_500


 19 20  0  0  0  0  0  0  0  0999 V2000
   47.7611    2.6279   90.6809 Br  0  0  0  0  0  0  0  0  0  0  0  0
   44.9897    2.8775   91.2659 C   0  0  0  0  0  0  0  0  0  0  0  0
   43.6894    2.4101   91.3047 C   0  0  0  0  0  0  0  0  0  0  0  0
   45.6716    0.7514   90.3448 C   0  0  0  0  0  0  0  0  0  0  0  0
   45.9610    2.0416   90.7897 C   0  0  0  0  0  0  0  0  0  0  0  0
   43.4058    1.1108   90.9162 C   0  0  0  0  0  0  0  0  0  0  0  0
   44.3826    0.2654   90.4215 C   0  0  0  0  0  0  0  0  0  0  0  0
   43.2456   -1.8639   90.5672 O   0  0  0  0  0  0  0  0  0  0  0  0
   44.6805   -1.5290   88.9765 O   0  0  0  0  0  0  0  0  0  0  0  0
   44.0786   -1.1871   89.9684 C   0  0  0  0  0  0  0  0  0  0  0  0
   42.1195    0.7346   90.9531 N   0  0  0  0  0  0  0  0  0  0  0  0
   41.7517    0.2642   90.1703 H   0  0  0  0  0  0  0  0  0  0  0  0
   39.6862   -0.8796   91.3202 C   0  0  0  0  0  0  0  0  0  0  0  0
   40.2100   -1.7925   92.4449 C   0  0  0  0  0  0  0  0  0  0  0  0
   39.8342    0.5429   91.6690 C   0  0  0  0  0  0  0  0  0  0  0  0
   41.7331    0.0654   93.2240 C   0  0  0  0  0  0  0  0  0  0  0  0
   41.5337   -1.3449   92.8516 N   0  0  0  0  0  0  0  0  0  0  0  0
   41.2300    0.9821   92.0890 C   0  0  0  0  0  0  0  0  0  0  0  0
   42.1657   -1.5401   92.0752 H   0  0  0  0  0  0  0  0  0  0  0  0
  8 10  1  0  0  0
  9 10  2  0  0  0
  1  5  1  0  0  0
  2  3  2  0  0  0
  2  5  1  0  0  0
  3  6  1  0  0  0
  4  5  2  0  0  0
  4  7  1  0  0  0
 13 14  1  0  0  0
 13 15  1  0  0  0
 14 17  1  0  0  0
 15 18  1  0  0  0
 16 17  1  0  0  0
 16 18  1  0  0  0
 11  6  1  0  0  0
 11 18  1  0  0  0
 10  7  1  0  0  0
  6  7  2  0  0  0
 17 19  1  0  0  0
 11 12  1  0  0  0
M  CHG 1   8  -1
M  END
> <minimizedAffinity>
-7.18896

$$$$
3JUP_AKD_A_500


 19 20  0  0  0  0  0  0  0  0999 V2000
   43.8644   -4.8381   90.9753 Br  0  0  0  0  0  0  0  0  0  0  0  0
   42.2665   -3.0571   92.5115 C   0  0  0  0  0  0  0  0  0  0  0  0
   41.9494   -1.8133   93.0243 C   0  0  0  0  0  0  0  0  0  0  0  0
   44.1413   -2.0508   91.3687 C   0  0  0  0  0  0  0  0  0  0  0  0
   43.3547   -3.1573   91.6902 C   0  0  0  0  0  0  0  0  0  0  0  0
   42.6943   -0.7021   92.6635 C   0  0  0  0  0  0  0  0  0  0  0  0
   43.8039   -0.8000   91.8434 C   0  0  0  0  0  0  0  0  0  0  0  0
   44.1154    1.4598   91.0410 O   0  0  0  0  0  0  0  0  0  0  0  0
   45.8447    0.2872   91.6205 O   0  0  0  0  0  0  0  0  0  0  0  0
   44.6571    0.4323   91.4423 C   0  0  0  0  0  0  0  0  0  0  0  0
   42.3474    0.4668   93.2210 N   0  0  0  0  0  0  0  0  0  0  0  0
   43.0590    1.0223   93.6136 H   0  0  0  0  0  0  0  0  0  0  0  0
   41.8174    3.3500   93.4804 C   0  0  0  0  0  0  0  0  0  0  0  0
   41.4274    3.6224   92.0153 C   0  0  0  0  0  0  0  0  0  0  0  0
   41.0026    2.2710   94.0625 C   0  0  0  0  0  0  0  0  0  0  0  0
   40.5677    1.2557   91.8193 C   0  0  0  0  0  0  0  0  0  0  0  0
   41.3791    2.3631   91.2875 N   0  0  0  0  0  0  0  0  0  0  0  0
   40.9723    0.9655   93.2801 C   0  0  0  0  0  0  0  0  0  0  0  0
   42.3380    2.0227   91.2174 H   0  0  0  0  0  0  0  0  0  0  0  0
  8 10  1  0  0  0
  9 10  2  0  0  0
  1  5  1  0  0  0
  2  3  2  0  0  0
  2  5  1  0  0  0
  3  6  1  0  0  0
  4  5  2  0  0  0
  4  7  1  0  0  0
 13 14  1  0  0  0
 13 15  1  0  0  0
 14 17  1  0  0  0
 15 18  1  0  0  0
 16 17  1  0  0  0
 16 18  1  0  0  0
 11  6  1  0  0  0
 11 18  1  0  0  0
 10  7  1  0  0  0
  6  7  2  0  0  0
 17 19  1  0  0  0
 11 12  1  0  0  0
M  CHG 1   8  -1
M  END
> <minimizedAffinity>
-7.10879

$$$$
3JUP_AKD_A_500


 19 20  0  0  0  0  0  0  0  0999 V2000
   43.9305   -4.4338   91.2860 Br  0  0  0  0  0  0  0  0  0  0  0  0
   44.1583   -1.6095   91.0485 C   0  0  0  0  0  0  0  0  0  0  0  0
   43.6389   -0.3299   90.9887 C   0  0  0  0  0  0  0  0  0  0  0  0
   41.9132   -2.4518   91.3378 C   0  0  0  0  0  0  0  0  0  0  0  0
   43.2895   -2.6501   91.2246 C   0  0  0  0  0  0  0  0  0  0  0  0
   42.2791   -0.1231   91.1563 C   0  0  0  0  0  0  0  0  0  0  0  0
   41.3944   -1.1734   91.3219 C   0  0  0  0  0  0  0  0  0  0  0  0
   39.3460   -1.0717   92.6030 O   0  0  0  0  0  0  0  0  0  0  0  0
   39.2984   -0.6285   90.4811 O   0  0  0  0  0  0  0  0  0  0  0  0
   39.8674   -0.9595   91.4958 C   0  0  0  0  0  0  0  0  0  0  0  0
   41.8420    1.1405   91.0581 N   0  0  0  0  0  0  0  0  0  0  0  0
   41.1386    1.3375   90.3980 H   0  0  0  0  0  0  0  0  0  0  0  0
   39.9899    3.1189   92.2056 C   0  0  0  0  0  0  0  0  0  0  0  0
   39.9829    2.5839   93.6501 C   0  0  0  0  0  0  0  0  0  0  0  0
   41.3592    3.3930   91.7399 C   0  0  0  0  0  0  0  0  0  0  0  0
   42.3381    1.7299   93.3298 C   0  0  0  0  0  0  0  0  0  0  0  0
   40.9510    1.5038   93.7685 N   0  0  0  0  0  0  0  0  0  0  0  0
   42.3492    2.2444   91.8749 C   0  0  0  0  0  0  0  0  0  0  0  0
   40.5906    0.7199   93.2244 H   0  0  0  0  0  0  0  0  0  0  0  0
  8 10  1  0  0  0
  9 10  2  0  0  0
  1  5  1  0  0  0
  2  3  2  0  0  0
  2  5  1  0  0  0
  3  6  1  0  0  0
  4  5  2  0  0  0
  4  7  1  0  0  0
 13 14  1  0  0  0
 13 15  1  0  0  0
 14 17  1  0  0  0
 15 18  1  0  0  0
 16 17  1  0  0  0
 16 18  1  0  0  0
 11  6  1  0  0  0
 11 18  1  0  0  0
 10  7  1  0  0  0
  6  7  2  0  0  0
 17 19  1  0  0  0
 11 12  1  0  0  0
M  CHG 1   8  -1
M  END
> <minimizedAffinity>
-6.97170

$$$$
3JUP_AKD_A_500


 19 20  0  0  0  0  0  0  0  0999 V2000
   42.3755    6.3107   94.6787 Br  0  0  0  0  0  0  0  0  0  0  0  0
   43.2504    3.7544   93.7927 C   0  0  0  0  0  0  0  0  0  0  0  0
   43.0441    2.4944   93.2631 C   0  0  0  0  0  0  0  0  0  0  0  0
   40.8845    4.1821   93.5624 C   0  0  0  0  0  0  0  0  0  0  0  0
   42.1696    4.5798   93.9320 C   0  0  0  0  0  0  0  0  0  0  0  0
   41.7793    2.1153   92.8431 C   0  0  0  0  0  0  0  0  0  0  0  0
   40.6803    2.9417   92.9937 C   0  0  0  0  0  0  0  0  0  0  0  0
   38.7232    3.0745   91.5796 O   0  0  0  0  0  0  0  0  0  0  0  0
   38.7856    1.6101   93.1774 O   0  0  0  0  0  0  0  0  0  0  0  0
   39.2551    2.5263   92.5423 C   0  0  0  0  0  0  0  0  0  0  0  0
   41.6475    0.8694   92.3660 N   0  0  0  0  0  0  0  0  0  0  0  0
   41.2964    0.7575   91.4531 H   0  0  0  0  0  0  0  0  0  0  0  0
   40.7670   -1.7809   91.4377 C   0  0  0  0  0  0  0  0  0  0  0  0
   42.1098   -2.2511   90.8471 C   0  0  0  0  0  0  0  0  0  0  0  0
   40.9126   -1.3676   92.8431 C   0  0  0  0  0  0  0  0  0  0  0  0
   43.3346   -0.8275   92.5359 C   0  0  0  0  0  0  0  0  0  0  0  0
   43.1383   -1.2652   91.1440 N   0  0  0  0  0  0  0  0  0  0  0  0
   41.9951   -0.3344   93.1229 C   0  0  0  0  0  0  0  0  0  0  0  0
   42.9187   -0.4321   90.5980 H   0  0  0  0  0  0  0  0  0  0  0  0
  8 10  1  0  0  0
  9 10  2  0  0  0
  1  5  1  0  0  0
  2  3  2  0  0  0
  2  5  1  0  0  0
  3  6  1  0  0  0
  4  5  2  0  0  0
  4  7  1  0  0  0
 13 14  1  0  0  0
 13 15  1  0  0  0
 14 17  1  0  0  0
 15 18  1  0  0  0
 16 17  1  0  0  0
 16 18  1  0  0  0
 11  6  1  0  0  0
 11 18  1  0  0  0
 10  7  1  0  0  0
  6  7  2  0  0  0
 17 19  1  0  0  0
 11 12  1  0  0  0
M  CHG 1   8  -1
M  END
> <minimizedAffinity>
-6.93531

$$$$
3JUP_AKD_A_500


 19 20  0  0  0  0  0  0  0  0999 V2000
   39.4062    3.3797   95.5049 Br  0  0  0  0  0  0  0  0  0  0  0  0
   41.5216    3.6170   93.6197 C   0  0  0  0  0  0  0  0  0  0  0  0
   42.2330    3.2132   92.5055 C   0  0  0  0  0  0  0  0  0  0  0  0
   39.9934    1.7847   93.2441 C   0  0  0  0  0  0  0  0  0  0  0  0
   40.4122    2.8995   93.9709 C   0  0  0  0  0  0  0  0  0  0  0  0
   41.7896    2.1407   91.7486 C   0  0  0  0  0  0  0  0  0  0  0  0
   40.6753    1.4036   92.1067 C   0  0  0  0  0  0  0  0  0  0  0  0
   40.8504   -0.8328   91.2037 O   0  0  0  0  0  0  0  0  0  0  0  0
   39.0764    0.3452   90.7951 O   0  0  0  0  0  0  0  0  0  0  0  0
   40.1746    0.1910   91.2783 C   0  0  0  0  0  0  0  0  0  0  0  0
   42.5443    1.7873   90.6984 N   0  0  0  0  0  0  0  0  0  0  0  0
   42.0872    1.5129   89.8707 H   0  0  0  0  0  0  0  0  0  0  0  0
   44.0386   -0.6079   89.8670 C   0  0  0  0  0  0  0  0  0  0  0  0
   44.4506   -0.1199   88.4653 C   0  0  0  0  0  0  0  0  0  0  0  0
   44.4527    0.3435   90.9113 C   0  0  0  0  0  0  0  0  0  0  0  0
   44.4400    2.2613   89.3070 C   0  0  0  0  0  0  0  0  0  0  0  0
   44.0405    1.2664   88.2980 N   0  0  0  0  0  0  0  0  0  0  0  0
   44.0081    1.7856   90.7102 C   0  0  0  0  0  0  0  0  0  0  0  0
   43.0213    1.2731   88.2605 H   0  0  0  0  0  0  0  0  0  0  0  0
  8 10  1  0  0  0
  9 10  2  0  0  0
  1  5  1  0  0  0
  2  3  2  0  0  0
  2  5  1  0  0  0
  3  6  1  0  0  0
  4  5  2  0  0  0
  4  7  1  0  0  0
 13 14  1  0  0  0
 13 15  1  0  0  0
 14 17  1  0  0  0
 15 18  1  0  0  0
 16 17  1  0  0  0
 16 18  1  0  0  0
 11  6  1  0  0  0
 11 18  1  0  0  0
 10  7  1  0  0  0
  6  7  2  0  0  0
 17 19  1  0  0  0
 11 12  1  0  0  0
M  CHG 1   8  -1
M  END
> <minimizedAffinity>
-6.91989

$$$$
