1F4F_TP3_A_701


 33 34  0  0  0  0  0  0  0  0999 V2000
   16.7940   15.3264   33.8764 C   0  0  0  0  0  0  0  0  0  0  0  0
   17.0822   14.2195   34.6439 C   0  0  0  0  0  0  0  0  0  0  0  0
   16.1802   13.8465   35.6251 C   0  0  0  0  0  0  0  0  0  0  0  0
   15.0175   14.6198   35.8042 C   0  0  0  0  0  0  0  0  0  0  0  0
   14.7594   15.7509   35.0016 C   0  0  0  0  0  0  0  0  0  0  0  0
   15.6683   16.1164   34.0159 C   0  0  0  0  0  0  0  0  0  0  0  0
   14.0871   14.1698   36.9095 C   0  0  0  0  0  0  0  0  0  0  0  0
   14.5579   14.0044   38.1585 N   0  0  0  0  0  0  0  0  0  0  0  0
   12.9774   13.6899   36.6432 O   0  0  0  0  0  0  0  0  0  0  0  0
   15.4765   14.2715   38.3909 H   0  0  0  0  0  0  0  0  0  0  0  0
   13.6554   13.4075   39.1801 C   0  0  0  0  0  0  0  0  0  0  0  0
   13.9858   14.3360   40.4002 C   0  0  0  0  0  0  0  0  0  0  0  0
   13.0437   14.5507   41.1811 O   0  0  0  0  0  0  0  0  0  0  0  0
   15.1450   14.7912   40.4902 O   0  0  0  0  0  0  0  0  0  0  0  0
   15.7873   14.5680   39.8455 H   0  0  0  0  0  0  0  0  0  0  0  0
   13.7992   11.9114   39.4667 C   0  0  0  0  0  0  0  0  0  0  0  0
   13.7502   11.5198   40.9436 C   0  0  0  0  0  0  0  0  0  0  0  0
   15.1051   11.1219   41.5158 C   0  0  0  0  0  0  0  0  0  0  0  0
   15.7990   12.0389   42.0078 O   0  0  0  0  0  0  0  0  0  0  0  0
   15.4879    9.9385   41.4725 O   0  0  0  0  0  0  0  0  0  0  0  0
   15.4734   12.9174   42.0208 H   0  0  0  0  0  0  0  0  0  0  0  0
   17.9588   15.7833   32.6222 S   0  0  0  0  0  0  0  0  0  0  0  0
   19.3130   15.1199   33.0232 O   0  0  0  0  0  0  0  0  0  0  0  0
   18.0531   17.3722   32.6023 O   0  0  0  0  0  0  0  0  0  0  0  0
   15.4415   14.2798   30.1960 C   0  0  0  0  0  0  0  0  0  0  0  0
   16.6520   13.9030   31.0981 C   0  0  0  0  0  0  0  0  0  0  0  0
   17.3257   15.2004   31.1331 N   0  0  0  0  0  0  0  0  0  0  0  0
   17.1022   16.0213   29.9496 C   0  0  0  0  0  0  0  0  0  0  0  0
   16.1555   15.1118   29.1101 C   0  0  0  0  0  0  0  0  0  0  0  0
   18.2393   16.6268   29.1256 C   0  0  0  0  0  0  0  0  0  0  0  0
   18.2021   16.9742   27.9336 O   0  0  0  0  0  0  0  0  0  0  0  0
   19.3217   16.7887   29.7815 O   0  0  0  0  0  0  0  0  0  0  0  0
   19.3670   16.5321   30.6815 H   0  0  0  0  0  0  0  0  0  0  0  0
 25 26  1  0  0  0
 25 29  1  0  0  0
 26 27  1  0  0  0
 27 28  1  0  0  0
 27 22  1  0  0  0
 28 29  1  0  0  0
 28 30  1  0  0  0
 30 31  2  0  0  0
 30 32  1  0  0  0
 22  1  1  0  0  0
 22 23  2  0  0  0
 22 24  2  0  0  0
  1  2  2  0  0  0
  1  6  1  0  0  0
  2  3  1  0  0  0
  3  4  2  0  0  0
  4  5  1  0  0  0
  4  7  1  0  0  0
  5  6  2  0  0  0
  7  8  1  0  0  0
  7  9  2  0  0  0
  8 11  1  0  0  0
 11 16  1  0  0  0
 11 12  1  0  0  0
 16 17  1  0  0  0
 17 18  1  0  0  0
 18 19  1  0  0  0
 18 20  2  0  0  0
 12 13  2  0  0  0
 12 14  1  0  0  0
 32 33  1  0  0  0
  8 10  1  0  0  0
 14 15  1  0  0  0
 19 21  1  0  0  0
M  END
> <minimizedAffinity>
-9.01821

$$$$
1F4F_TP3_A_701


 33 34  0  0  0  0  0  0  0  0999 V2000
   16.9505   15.1364   33.8776 C   0  0  0  0  0  0  0  0  0  0  0  0
   17.1019   13.9839   34.6167 C   0  0  0  0  0  0  0  0  0  0  0  0
   16.1540   13.6922   35.5818 C   0  0  0  0  0  0  0  0  0  0  0  0
   15.0866   14.5897   35.7746 C   0  0  0  0  0  0  0  0  0  0  0  0
   14.9681   15.7637   35.0013 C   0  0  0  0  0  0  0  0  0  0  0  0
   15.9222   16.0473   34.0314 C   0  0  0  0  0  0  0  0  0  0  0  0
   14.1003   14.2216   36.8615 C   0  0  0  0  0  0  0  0  0  0  0  0
   14.5406   13.9368   38.1002 N   0  0  0  0  0  0  0  0  0  0  0  0
   12.9362   13.9104   36.5776 O   0  0  0  0  0  0  0  0  0  0  0  0
   15.4864   14.0650   38.3413 H   0  0  0  0  0  0  0  0  0  0  0  0
   13.5621   13.4232   39.0968 C   0  0  0  0  0  0  0  0  0  0  0  0
   13.8968   14.3645   40.3059 C   0  0  0  0  0  0  0  0  0  0  0  0
   13.1390   14.2687   41.2857 O   0  0  0  0  0  0  0  0  0  0  0  0
   14.8742   15.1334   40.1938 O   0  0  0  0  0  0  0  0  0  0  0  0
   15.3860   15.1292   39.4090 H   0  0  0  0  0  0  0  0  0  0  0  0
   13.6033   11.9300   39.4274 C   0  0  0  0  0  0  0  0  0  0  0  0
   13.6429   10.9928   38.2203 C   0  0  0  0  0  0  0  0  0  0  0  0
   12.2644   10.6352   37.6786 C   0  0  0  0  0  0  0  0  0  0  0  0
   11.9359   11.1552   36.5894 O   0  0  0  0  0  0  0  0  0  0  0  0
   11.5133    9.8718   38.3126 O   0  0  0  0  0  0  0  0  0  0  0  0
   12.5315   11.7249   36.1437 H   0  0  0  0  0  0  0  0  0  0  0  0
   18.1718   15.4883   32.6435 S   0  0  0  0  0  0  0  0  0  0  0  0
   19.4318   14.6515   33.0268 O   0  0  0  0  0  0  0  0  0  0  0  0
   18.4595   17.0535   32.6769 O   0  0  0  0  0  0  0  0  0  0  0  0
   15.5609   14.2078   30.1884 C   0  0  0  0  0  0  0  0  0  0  0  0
   16.7983   13.7500   31.0131 C   0  0  0  0  0  0  0  0  0  0  0  0
   17.4835   15.0363   31.1335 N   0  0  0  0  0  0  0  0  0  0  0  0
   17.2266   15.9550   30.0316 C   0  0  0  0  0  0  0  0  0  0  0  0
   16.2443   15.1246   29.1520 C   0  0  0  0  0  0  0  0  0  0  0  0
   18.3398   16.6217   29.2224 C   0  0  0  0  0  0  0  0  0  0  0  0
   18.2782   17.0266   28.0497 O   0  0  0  0  0  0  0  0  0  0  0  0
   19.4289   16.7716   29.8700 O   0  0  0  0  0  0  0  0  0  0  0  0
   19.4925   16.4719   30.7555 H   0  0  0  0  0  0  0  0  0  0  0  0
 25 26  1  0  0  0
 25 29  1  0  0  0
 26 27  1  0  0  0
 27 28  1  0  0  0
 27 22  1  0  0  0
 28 29  1  0  0  0
 28 30  1  0  0  0
 30 31  2  0  0  0
 30 32  1  0  0  0
 22  1  1  0  0  0
 22 23  2  0  0  0
 22 24  2  0  0  0
  1  2  2  0  0  0
  1  6  1  0  0  0
  2  3  1  0  0  0
  3  4  2  0  0  0
  4  5  1  0  0  0
  4  7  1  0  0  0
  5  6  2  0  0  0
  7  8  1  0  0  0
  7  9  2  0  0  0
  8 11  1  0  0  0
 11 16  1  0  0  0
 11 12  1  0  0  0
 16 17  1  0  0  0
 17 18  1  0  0  0
 18 19  1  0  0  0
 18 20  2  0  0  0
 12 13  2  0  0  0
 12 14  1  0  0  0
 32 33  1  0  0  0
  8 10  1  0  0  0
 14 15  1  0  0  0
 19 21  1  0  0  0
M  END
> <minimizedAffinity>
-8.98372

$$$$
1F4F_TP3_A_701


 33 34  0  0  0  0  0  0  0  0999 V2000
   16.4717   15.5253   33.7516 C   0  0  0  0  0  0  0  0  0  0  0  0
   16.8533   14.3832   34.4204 C   0  0  0  0  0  0  0  0  0  0  0  0
   16.0467   13.9206   35.4454 C   0  0  0  0  0  0  0  0  0  0  0  0
   14.8818   14.6424   35.7676 C   0  0  0  0  0  0  0  0  0  0  0  0
   14.5264   15.8118   35.0631 C   0  0  0  0  0  0  0  0  0  0  0  0
   15.3398   16.2674   34.0325 C   0  0  0  0  0  0  0  0  0  0  0  0
   14.0592   14.0944   36.9135 C   0  0  0  0  0  0  0  0  0  0  0  0
   14.5400   14.1418   38.1688 N   0  0  0  0  0  0  0  0  0  0  0  0
   13.0847   13.3625   36.6966 O   0  0  0  0  0  0  0  0  0  0  0  0
   15.3752   14.6222   38.3714 H   0  0  0  0  0  0  0  0  0  0  0  0
   13.7779   13.4501   39.2436 C   0  0  0  0  0  0  0  0  0  0  0  0
   14.1436   14.3689   40.4609 C   0  0  0  0  0  0  0  0  0  0  0  0
   13.2498   14.5124   41.3118 O   0  0  0  0  0  0  0  0  0  0  0  0
   15.2794   14.8871   40.4805 O   0  0  0  0  0  0  0  0  0  0  0  0
   15.8849   14.7150   39.7864 H   0  0  0  0  0  0  0  0  0  0  0  0
   14.0578   11.9626   39.4672 C   0  0  0  0  0  0  0  0  0  0  0  0
   13.7034   11.4311   40.8560 C   0  0  0  0  0  0  0  0  0  0  0  0
   14.9193   11.1114   41.7169 C   0  0  0  0  0  0  0  0  0  0  0  0
   15.5003   10.0273   41.4890 O   0  0  0  0  0  0  0  0  0  0  0  0
   15.2899   11.8987   42.6066 O   0  0  0  0  0  0  0  0  0  0  0  0
   15.1888    9.4627   40.8092 H   0  0  0  0  0  0  0  0  0  0  0  0
   17.5150   16.0972   32.4391 S   0  0  0  0  0  0  0  0  0  0  0  0
   17.4721   14.9938   31.3366 O   0  0  0  0  0  0  0  0  0  0  0  0
   18.9788   16.2940   33.0326 O   0  0  0  0  0  0  0  0  0  0  0  0
   14.8995   18.6317   31.3349 C   0  0  0  0  0  0  0  0  0  0  0  0
   15.9633   17.6435   30.7756 C   0  0  0  0  0  0  0  0  0  0  0  0
   16.8681   17.6051   31.9237 N   0  0  0  0  0  0  0  0  0  0  0  0
   16.8721   18.8248   32.7217 C   0  0  0  0  0  0  0  0  0  0  0  0
   15.8190   19.6948   31.9719 C   0  0  0  0  0  0  0  0  0  0  0  0
   18.1483   19.5929   33.0679 C   0  0  0  0  0  0  0  0  0  0  0  0
   18.2438   20.6203   33.7595 O   0  0  0  0  0  0  0  0  0  0  0  0
   19.2092   19.0750   32.5837 O   0  0  0  0  0  0  0  0  0  0  0  0
   19.1552   18.3000   32.0598 H   0  0  0  0  0  0  0  0  0  0  0  0
 25 26  1  0  0  0
 25 29  1  0  0  0
 26 27  1  0  0  0
 27 28  1  0  0  0
 27 22  1  0  0  0
 28 29  1  0  0  0
 28 30  1  0  0  0
 30 31  2  0  0  0
 30 32  1  0  0  0
 22  1  1  0  0  0
 22 23  2  0  0  0
 22 24  2  0  0  0
  1  2  2  0  0  0
  1  6  1  0  0  0
  2  3  1  0  0  0
  3  4  2  0  0  0
  4  5  1  0  0  0
  4  7  1  0  0  0
  5  6  2  0  0  0
  7  8  1  0  0  0
  7  9  2  0  0  0
  8 11  1  0  0  0
 11 16  1  0  0  0
 11 12  1  0  0  0
 16 17  1  0  0  0
 17 18  1  0  0  0
 18 19  1  0  0  0
 18 20  2  0  0  0
 12 13  2  0  0  0
 12 14  1  0  0  0
 32 33  1  0  0  0
  8 10  1  0  0  0
 14 15  1  0  0  0
 19 21  1  0  0  0
M  END
> <minimizedAffinity>
-8.81661

$$$$
1F4F_TP3_A_701


 33 34  0  0  0  0  0  0  0  0999 V2000
   16.5608   15.6370   33.6214 C   0  0  0  0  0  0  0  0  0  0  0  0
   15.2666   16.1027   33.6959 C   0  0  0  0  0  0  0  0  0  0  0  0
   14.4754   15.6808   34.7500 C   0  0  0  0  0  0  0  0  0  0  0  0
   15.0217   14.7865   35.6901 C   0  0  0  0  0  0  0  0  0  0  0  0
   16.3507   14.3269   35.5773 C   0  0  0  0  0  0  0  0  0  0  0  0
   17.1399   14.7586   34.5179 C   0  0  0  0  0  0  0  0  0  0  0  0
   14.0946   14.3478   36.8027 C   0  0  0  0  0  0  0  0  0  0  0  0
   14.5791   14.1479   38.0414 N   0  0  0  0  0  0  0  0  0  0  0  0
   12.9667   13.9065   36.5465 O   0  0  0  0  0  0  0  0  0  0  0  0
   15.5090   14.3829   38.2636 H   0  0  0  0  0  0  0  0  0  0  0  0
   13.6742   13.5628   39.0677 C   0  0  0  0  0  0  0  0  0  0  0  0
   14.1090   14.4067   40.3162 C   0  0  0  0  0  0  0  0  0  0  0  0
   13.3394   14.3584   41.2904 O   0  0  0  0  0  0  0  0  0  0  0  0
   15.1697   15.0606   40.2379 O   0  0  0  0  0  0  0  0  0  0  0  0
   15.6822   15.0301   39.4541 H   0  0  0  0  0  0  0  0  0  0  0  0
   13.7258   12.0483   39.2788 C   0  0  0  0  0  0  0  0  0  0  0  0
   12.3912   11.3193   39.1224 C   0  0  0  0  0  0  0  0  0  0  0  0
   12.2585   10.5627   37.8066 C   0  0  0  0  0  0  0  0  0  0  0  0
   12.1223   11.2528   36.7723 O   0  0  0  0  0  0  0  0  0  0  0  0
   12.2737    9.3184   37.7873 O   0  0  0  0  0  0  0  0  0  0  0  0
   12.1162   12.1880   36.8305 H   0  0  0  0  0  0  0  0  0  0  0  0
   17.5586   16.1938   32.2676 S   0  0  0  0  0  0  0  0  0  0  0  0
   17.4298   15.1066   31.1557 O   0  0  0  0  0  0  0  0  0  0  0  0
   19.0540   16.3384   32.7933 O   0  0  0  0  0  0  0  0  0  0  0  0
   14.9918   18.7896   31.1916 C   0  0  0  0  0  0  0  0  0  0  0  0
   16.0715   17.8233   30.6245 C   0  0  0  0  0  0  0  0  0  0  0  0
   16.9351   17.7272   31.8007 N   0  0  0  0  0  0  0  0  0  0  0  0
   16.9148   18.9084   32.6543 C   0  0  0  0  0  0  0  0  0  0  0  0
   15.8916   19.8175   31.9094 C   0  0  0  0  0  0  0  0  0  0  0  0
   18.1804   19.6534   33.0806 C   0  0  0  0  0  0  0  0  0  0  0  0
   18.2541   20.6509   33.8171 O   0  0  0  0  0  0  0  0  0  0  0  0
   19.2566   19.1489   32.6165 O   0  0  0  0  0  0  0  0  0  0  0  0
   19.2191   18.3965   32.0594 H   0  0  0  0  0  0  0  0  0  0  0  0
 25 26  1  0  0  0
 25 29  1  0  0  0
 26 27  1  0  0  0
 27 28  1  0  0  0
 27 22  1  0  0  0
 28 29  1  0  0  0
 28 30  1  0  0  0
 30 31  2  0  0  0
 30 32  1  0  0  0
 22  1  1  0  0  0
 22 23  2  0  0  0
 22 24  2  0  0  0
  1  2  2  0  0  0
  1  6  1  0  0  0
  2  3  1  0  0  0
  3  4  2  0  0  0
  4  5  1  0  0  0
  4  7  1  0  0  0
  5  6  2  0  0  0
  7  8  1  0  0  0
  7  9  2  0  0  0
  8 11  1  0  0  0
 11 16  1  0  0  0
 11 12  1  0  0  0
 16 17  1  0  0  0
 17 18  1  0  0  0
 18 19  1  0  0  0
 18 20  2  0  0  0
 12 13  2  0  0  0
 12 14  1  0  0  0
 32 33  1  0  0  0
  8 10  1  0  0  0
 14 15  1  0  0  0
 19 21  1  0  0  0
M  END
> <minimizedAffinity>
-8.65032

$$$$
1F4F_TP3_A_701


 33 34  0  0  0  0  0  0  0  0999 V2000
   15.8841   14.1012   33.6258 C   0  0  0  0  0  0  0  0  0  0  0  0
   16.4938   13.6907   34.7907 C   0  0  0  0  0  0  0  0  0  0  0  0
   15.7343   13.6347   35.9463 C   0  0  0  0  0  0  0  0  0  0  0  0
   14.3791   14.0110   35.8838 C   0  0  0  0  0  0  0  0  0  0  0  0
   13.7909   14.4315   34.6725 C   0  0  0  0  0  0  0  0  0  0  0  0
   14.5597   14.4812   33.5157 C   0  0  0  0  0  0  0  0  0  0  0  0
   13.6141   13.9488   37.1879 C   0  0  0  0  0  0  0  0  0  0  0  0
   14.2796   13.8924   38.3554 N   0  0  0  0  0  0  0  0  0  0  0  0
   12.4070   13.6741   37.1984 O   0  0  0  0  0  0  0  0  0  0  0  0
   15.2582   13.9962   38.3838 H   0  0  0  0  0  0  0  0  0  0  0  0
   13.4996   13.6692   39.6029 C   0  0  0  0  0  0  0  0  0  0  0  0
   14.4861   14.2973   40.6480 C   0  0  0  0  0  0  0  0  0  0  0  0
   14.4369   13.8121   41.7906 O   0  0  0  0  0  0  0  0  0  0  0  0
   15.2265   15.2273   40.2660 O   0  0  0  0  0  0  0  0  0  0  0  0
   15.1875   15.5225   39.3776 H   0  0  0  0  0  0  0  0  0  0  0  0
   13.0671   12.2369   39.9227 C   0  0  0  0  0  0  0  0  0  0  0  0
   11.5871   12.0601   40.2624 C   0  0  0  0  0  0  0  0  0  0  0  0
   11.0318   13.1553   41.1644 C   0  0  0  0  0  0  0  0  0  0  0  0
   11.5154   13.2350   42.3152 O   0  0  0  0  0  0  0  0  0  0  0  0
   10.1316   13.9133   40.7595 O   0  0  0  0  0  0  0  0  0  0  0  0
   12.1926   12.6445   42.5808 H   0  0  0  0  0  0  0  0  0  0  0  0
   16.8726   14.1602   32.1569 S   0  0  0  0  0  0  0  0  0  0  0  0
   16.3546   13.0111   31.2371 O   0  0  0  0  0  0  0  0  0  0  0  0
   18.3911   13.9469   32.5841 O   0  0  0  0  0  0  0  0  0  0  0  0
   15.0265   17.2131   30.8318 C   0  0  0  0  0  0  0  0  0  0  0  0
   15.7279   15.9050   30.3648 C   0  0  0  0  0  0  0  0  0  0  0  0
   16.6526   15.7275   31.4837 N   0  0  0  0  0  0  0  0  0  0  0  0
   17.0531   16.9709   32.1302 C   0  0  0  0  0  0  0  0  0  0  0  0
   16.2482   18.0246   31.3117 C   0  0  0  0  0  0  0  0  0  0  0  0
   18.5141   17.3675   32.3467 C   0  0  0  0  0  0  0  0  0  0  0  0
   19.5116   16.9117   31.7635 O   0  0  0  0  0  0  0  0  0  0  0  0
   18.6757   18.2821   33.2215 O   0  0  0  0  0  0  0  0  0  0  0  0
   17.9340   18.6371   33.6708 H   0  0  0  0  0  0  0  0  0  0  0  0
 25 26  1  0  0  0
 25 29  1  0  0  0
 26 27  1  0  0  0
 27 28  1  0  0  0
 27 22  1  0  0  0
 28 29  1  0  0  0
 28 30  1  0  0  0
 30 31  2  0  0  0
 30 32  1  0  0  0
 22  1  1  0  0  0
 22 23  2  0  0  0
 22 24  2  0  0  0
  1  2  2  0  0  0
  1  6  1  0  0  0
  2  3  1  0  0  0
  3  4  2  0  0  0
  4  5  1  0  0  0
  4  7  1  0  0  0
  5  6  2  0  0  0
  7  8  1  0  0  0
  7  9  2  0  0  0
  8 11  1  0  0  0
 11 16  1  0  0  0
 11 12  1  0  0  0
 16 17  1  0  0  0
 17 18  1  0  0  0
 18 19  1  0  0  0
 18 20  2  0  0  0
 12 13  2  0  0  0
 12 14  1  0  0  0
 32 33  1  0  0  0
  8 10  1  0  0  0
 14 15  1  0  0  0
 19 21  1  0  0  0
M  END
> <minimizedAffinity>
-8.57400

$$$$
1F4F_TP3_A_701


 33 34  0  0  0  0  0  0  0  0999 V2000
   16.0452   14.0206   33.5956 C   0  0  0  0  0  0  0  0  0  0  0  0
   16.5583   13.7959   34.8540 C   0  0  0  0  0  0  0  0  0  0  0  0
   15.6792   13.7310   35.9209 C   0  0  0  0  0  0  0  0  0  0  0  0
   14.3044   13.9098   35.6763 C   0  0  0  0  0  0  0  0  0  0  0  0
   13.8167   14.1436   34.3733 C   0  0  0  0  0  0  0  0  0  0  0  0
   14.7058   14.2035   33.3069 C   0  0  0  0  0  0  0  0  0  0  0  0
   13.4029   13.8504   36.8902 C   0  0  0  0  0  0  0  0  0  0  0  0
   13.9326   13.6619   38.1120 N   0  0  0  0  0  0  0  0  0  0  0  0
   12.1812   13.6970   36.7614 O   0  0  0  0  0  0  0  0  0  0  0  0
   14.9080   13.6659   38.2452 H   0  0  0  0  0  0  0  0  0  0  0  0
   13.0072   13.4471   39.2575 C   0  0  0  0  0  0  0  0  0  0  0  0
   13.8741   14.0533   40.4155 C   0  0  0  0  0  0  0  0  0  0  0  0
   15.0767   14.2218   40.1531 O   0  0  0  0  0  0  0  0  0  0  0  0
   13.3063   14.3073   41.4981 O   0  0  0  0  0  0  0  0  0  0  0  0
   12.3890   14.1431   41.5958 H   0  0  0  0  0  0  0  0  0  0  0  0
   12.5158   12.0213   39.5151 C   0  0  0  0  0  0  0  0  0  0  0  0
   11.0224   11.8871   39.8133 C   0  0  0  0  0  0  0  0  0  0  0  0
   10.2716   13.2126   39.7836 C   0  0  0  0  0  0  0  0  0  0  0  0
    9.8028   13.5688   38.6799 O   0  0  0  0  0  0  0  0  0  0  0  0
   10.1546   13.8974   40.8162 O   0  0  0  0  0  0  0  0  0  0  0  0
    9.9131   13.0233   37.9261 H   0  0  0  0  0  0  0  0  0  0  0  0
   17.1869   14.0943   32.2431 S   0  0  0  0  0  0  0  0  0  0  0  0
   16.6862   13.0538   31.1935 O   0  0  0  0  0  0  0  0  0  0  0  0
   18.6307   13.7303   32.8055 O   0  0  0  0  0  0  0  0  0  0  0  0
   18.5297   17.4725   31.1166 C   0  0  0  0  0  0  0  0  0  0  0  0
   17.9461   16.7357   32.3566 C   0  0  0  0  0  0  0  0  0  0  0  0
   17.1574   15.7149   31.6678 N   0  0  0  0  0  0  0  0  0  0  0  0
   16.6760   16.1189   30.3528 C   0  0  0  0  0  0  0  0  0  0  0  0
   17.2715   17.5534   30.2267 C   0  0  0  0  0  0  0  0  0  0  0  0
   15.2053   16.0412   29.9410 C   0  0  0  0  0  0  0  0  0  0  0  0
   14.4284   16.9900   29.7429 O   0  0  0  0  0  0  0  0  0  0  0  0
   14.7773   14.8501   29.7797 O   0  0  0  0  0  0  0  0  0  0  0  0
   15.3500   14.1228   29.9249 H   0  0  0  0  0  0  0  0  0  0  0  0
 25 26  1  0  0  0
 25 29  1  0  0  0
 26 27  1  0  0  0
 27 28  1  0  0  0
 27 22  1  0  0  0
 28 29  1  0  0  0
 28 30  1  0  0  0
 30 31  2  0  0  0
 30 32  1  0  0  0
 22  1  1  0  0  0
 22 23  2  0  0  0
 22 24  2  0  0  0
  1  2  2  0  0  0
  1  6  1  0  0  0
  2  3  1  0  0  0
  3  4  2  0  0  0
  4  5  1  0  0  0
  4  7  1  0  0  0
  5  6  2  0  0  0
  7  8  1  0  0  0
  7  9  2  0  0  0
  8 11  1  0  0  0
 11 16  1  0  0  0
 11 12  1  0  0  0
 16 17  1  0  0  0
 17 18  1  0  0  0
 18 19  1  0  0  0
 18 20  2  0  0  0
 12 13  2  0  0  0
 12 14  1  0  0  0
 32 33  1  0  0  0
  8 10  1  0  0  0
 14 15  1  0  0  0
 19 21  1  0  0  0
M  END
> <minimizedAffinity>
-8.24852

$$$$
1F4F_TP3_A_701


 33 34  0  0  0  0  0  0  0  0999 V2000
   15.0981   14.4528   34.1852 C   0  0  0  0  0  0  0  0  0  0  0  0
   13.7468   14.6703   34.3401 C   0  0  0  0  0  0  0  0  0  0  0  0
   13.1601   14.3312   35.5467 C   0  0  0  0  0  0  0  0  0  0  0  0
   13.9647   13.7684   36.5556 C   0  0  0  0  0  0  0  0  0  0  0  0
   15.3452   13.5556   36.3578 C   0  0  0  0  0  0  0  0  0  0  0  0
   15.9274   13.9026   35.1445 C   0  0  0  0  0  0  0  0  0  0  0  0
   13.2546   13.3995   37.8399 C   0  0  0  0  0  0  0  0  0  0  0  0
   13.9546   12.9054   38.8767 N   0  0  0  0  0  0  0  0  0  0  0  0
   12.0225   13.2827   37.8680 O   0  0  0  0  0  0  0  0  0  0  0  0
   14.9384   12.8764   38.8533 H   0  0  0  0  0  0  0  0  0  0  0  0
   13.2047   12.4038   40.0602 C   0  0  0  0  0  0  0  0  0  0  0  0
   14.0044   13.1200   41.2035 C   0  0  0  0  0  0  0  0  0  0  0  0
   14.1560   14.3453   41.0654 O   0  0  0  0  0  0  0  0  0  0  0  0
   14.4309   12.4192   42.1448 O   0  0  0  0  0  0  0  0  0  0  0  0
   14.2620   11.4976   42.1566 H   0  0  0  0  0  0  0  0  0  0  0  0
   13.0782   10.8885   40.2301 C   0  0  0  0  0  0  0  0  0  0  0  0
   14.0593   10.0531   39.4076 C   0  0  0  0  0  0  0  0  0  0  0  0
   15.0639    9.2811   40.2540 C   0  0  0  0  0  0  0  0  0  0  0  0
   15.4901    8.2052   39.7791 O   0  0  0  0  0  0  0  0  0  0  0  0
   15.4184    9.7120   41.3664 O   0  0  0  0  0  0  0  0  0  0  0  0
   15.1977    7.9163   38.9370 H   0  0  0  0  0  0  0  0  0  0  0  0
   15.8305   14.8992   32.6351 S   0  0  0  0  0  0  0  0  0  0  0  0
   14.6897   14.8137   31.5739 O   0  0  0  0  0  0  0  0  0  0  0  0
   17.0044   13.8662   32.3370 O   0  0  0  0  0  0  0  0  0  0  0  0
   18.1854   17.8521   32.1678 C   0  0  0  0  0  0  0  0  0  0  0  0
   17.8856   16.6611   33.1231 C   0  0  0  0  0  0  0  0  0  0  0  0
   16.4630   16.4862   32.8337 N   0  0  0  0  0  0  0  0  0  0  0  0
   15.7838   17.7070   32.4181 C   0  0  0  0  0  0  0  0  0  0  0  0
   16.9513   18.7387   32.4371 C   0  0  0  0  0  0  0  0  0  0  0  0
   14.5126   18.2266   33.0909 C   0  0  0  0  0  0  0  0  0  0  0  0
   13.4839   18.6446   32.5342 O   0  0  0  0  0  0  0  0  0  0  0  0
   14.5537   18.1936   34.3658 O   0  0  0  0  0  0  0  0  0  0  0  0
   15.3219   17.8812   34.8018 H   0  0  0  0  0  0  0  0  0  0  0  0
 25 26  1  0  0  0
 25 29  1  0  0  0
 26 27  1  0  0  0
 27 28  1  0  0  0
 27 22  1  0  0  0
 28 29  1  0  0  0
 28 30  1  0  0  0
 30 31  2  0  0  0
 30 32  1  0  0  0
 22  1  1  0  0  0
 22 23  2  0  0  0
 22 24  2  0  0  0
  1  2  2  0  0  0
  1  6  1  0  0  0
  2  3  1  0  0  0
  3  4  2  0  0  0
  4  5  1  0  0  0
  4  7  1  0  0  0
  5  6  2  0  0  0
  7  8  1  0  0  0
  7  9  2  0  0  0
  8 11  1  0  0  0
 11 16  1  0  0  0
 11 12  1  0  0  0
 16 17  1  0  0  0
 17 18  1  0  0  0
 18 19  1  0  0  0
 18 20  2  0  0  0
 12 13  2  0  0  0
 12 14  1  0  0  0
 32 33  1  0  0  0
  8 10  1  0  0  0
 14 15  1  0  0  0
 19 21  1  0  0  0
M  END
> <minimizedAffinity>
-8.16988

$$$$
1F4F_TP3_A_701


 33 34  0  0  0  0  0  0  0  0999 V2000
   13.2666   12.9101   37.2837 C   0  0  0  0  0  0  0  0  0  0  0  0
   14.6258   13.0826   37.1415 C   0  0  0  0  0  0  0  0  0  0  0  0
   15.0833   13.8715   36.1005 C   0  0  0  0  0  0  0  0  0  0  0  0
   14.1433   14.4510   35.2274 C   0  0  0  0  0  0  0  0  0  0  0  0
   12.7584   14.2469   35.4020 C   0  0  0  0  0  0  0  0  0  0  0  0
   12.3070   13.4565   36.4522 C   0  0  0  0  0  0  0  0  0  0  0  0
   14.7131   15.2814   34.0979 C   0  0  0  0  0  0  0  0  0  0  0  0
   14.9127   14.7255   32.8895 N   0  0  0  0  0  0  0  0  0  0  0  0
   15.2518   16.3723   34.3269 O   0  0  0  0  0  0  0  0  0  0  0  0
   14.5971   13.8134   32.6954 H   0  0  0  0  0  0  0  0  0  0  0  0
   15.6225   15.5238   31.8534 C   0  0  0  0  0  0  0  0  0  0  0  0
   14.7715   15.1389   30.5935 C   0  0  0  0  0  0  0  0  0  0  0  0
   15.1495   15.6353   29.5192 O   0  0  0  0  0  0  0  0  0  0  0  0
   13.7898   14.3856   30.7602 O   0  0  0  0  0  0  0  0  0  0  0  0
   13.5872   14.0624   31.6161 H   0  0  0  0  0  0  0  0  0  0  0  0
   17.1275   15.2999   31.6927 C   0  0  0  0  0  0  0  0  0  0  0  0
   17.6773   14.0399   32.3615 C   0  0  0  0  0  0  0  0  0  0  0  0
   18.5697   14.3254   33.5630 C   0  0  0  0  0  0  0  0  0  0  0  0
   18.1345   15.1412   34.4055 O   0  0  0  0  0  0  0  0  0  0  0  0
   19.6793   13.7728   33.6732 O   0  0  0  0  0  0  0  0  0  0  0  0
   17.2930   15.5352   34.2849 H   0  0  0  0  0  0  0  0  0  0  0  0
   12.7017   11.9014   38.6260 S   0  0  0  0  0  0  0  0  0  0  0  0
   13.8578   10.8999   38.9345 O   0  0  0  0  0  0  0  0  0  0  0  0
   11.3765   11.1584   38.1512 O   0  0  0  0  0  0  0  0  0  0  0  0
   10.9356   13.2676   41.7080 C   0  0  0  0  0  0  0  0  0  0  0  0
   10.9784   13.4009   40.1583 C   0  0  0  0  0  0  0  0  0  0  0  0
   12.3569   12.9708   39.9282 N   0  0  0  0  0  0  0  0  0  0  0  0
   13.2603   13.2418   41.0394 C   0  0  0  0  0  0  0  0  0  0  0  0
   12.2971   13.8941   42.0761 C   0  0  0  0  0  0  0  0  0  0  0  0
   14.5762   14.0043   40.8800 C   0  0  0  0  0  0  0  0  0  0  0  0
   15.6875   13.6909   41.3378 O   0  0  0  0  0  0  0  0  0  0  0  0
   14.4755   15.0652   40.1783 O   0  0  0  0  0  0  0  0  0  0  0  0
   13.6446   15.3163   39.8253 H   0  0  0  0  0  0  0  0  0  0  0  0
 25 26  1  0  0  0
 25 29  1  0  0  0
 26 27  1  0  0  0
 27 28  1  0  0  0
 27 22  1  0  0  0
 28 29  1  0  0  0
 28 30  1  0  0  0
 30 31  2  0  0  0
 30 32  1  0  0  0
 22  1  1  0  0  0
 22 23  2  0  0  0
 22 24  2  0  0  0
  1  2  2  0  0  0
  1  6  1  0  0  0
  2  3  1  0  0  0
  3  4  2  0  0  0
  4  5  1  0  0  0
  4  7  1  0  0  0
  5  6  2  0  0  0
  7  8  1  0  0  0
  7  9  2  0  0  0
  8 11  1  0  0  0
 11 16  1  0  0  0
 11 12  1  0  0  0
 16 17  1  0  0  0
 17 18  1  0  0  0
 18 19  1  0  0  0
 18 20  2  0  0  0
 12 13  2  0  0  0
 12 14  1  0  0  0
 32 33  1  0  0  0
  8 10  1  0  0  0
 14 15  1  0  0  0
 19 21  1  0  0  0
M  END
> <minimizedAffinity>
-8.12790

$$$$
1F4F_TP3_A_701


 33 34  0  0  0  0  0  0  0  0999 V2000
   16.0396   14.8609   34.2925 C   0  0  0  0  0  0  0  0  0  0  0  0
   14.9415   15.6536   34.5440 C   0  0  0  0  0  0  0  0  0  0  0  0
   14.1235   15.3250   35.6108 C   0  0  0  0  0  0  0  0  0  0  0  0
   14.4409   14.1910   36.3822 C   0  0  0  0  0  0  0  0  0  0  0  0
   15.5719   13.3998   36.0904 C   0  0  0  0  0  0  0  0  0  0  0  0
   16.3904   13.7389   35.0196 C   0  0  0  0  0  0  0  0  0  0  0  0
   13.4916   13.8760   37.5178 C   0  0  0  0  0  0  0  0  0  0  0  0
   13.9721   13.6639   38.7561 N   0  0  0  0  0  0  0  0  0  0  0  0
   12.3225   13.5404   37.2876 O   0  0  0  0  0  0  0  0  0  0  0  0
   14.9235   13.8127   38.9605 H   0  0  0  0  0  0  0  0  0  0  0  0
   13.0293   13.1988   39.8093 C   0  0  0  0  0  0  0  0  0  0  0  0
   13.6183   13.9606   41.0472 C   0  0  0  0  0  0  0  0  0  0  0  0
   12.7810   14.4384   41.8309 O   0  0  0  0  0  0  0  0  0  0  0  0
   14.8605   14.0391   41.1473 O   0  0  0  0  0  0  0  0  0  0  0  0
   15.4087   13.6422   40.4993 H   0  0  0  0  0  0  0  0  0  0  0  0
   12.8770   11.6896   40.0092 C   0  0  0  0  0  0  0  0  0  0  0  0
   14.1331   10.8626   39.7349 C   0  0  0  0  0  0  0  0  0  0  0  0
   14.7370   10.2350   40.9851 C   0  0  0  0  0  0  0  0  0  0  0  0
   15.4578   10.9729   41.6926 O   0  0  0  0  0  0  0  0  0  0  0  0
   14.5212    9.0410   41.2617 O   0  0  0  0  0  0  0  0  0  0  0  0
   15.5948   11.8672   41.4487 H   0  0  0  0  0  0  0  0  0  0  0  0
   17.0768   15.3023   32.9258 S   0  0  0  0  0  0  0  0  0  0  0  0
   17.2611   14.0029   32.0817 O   0  0  0  0  0  0  0  0  0  0  0  0
   18.4565   15.8344   33.5150 O   0  0  0  0  0  0  0  0  0  0  0  0
   16.6228   18.5451   30.9862 C   0  0  0  0  0  0  0  0  0  0  0  0
   16.5382   17.9523   32.4223 C   0  0  0  0  0  0  0  0  0  0  0  0
   16.2609   16.5579   32.0800 N   0  0  0  0  0  0  0  0  0  0  0  0
   15.5517   16.3826   30.8187 C   0  0  0  0  0  0  0  0  0  0  0  0
   15.4073   17.8556   30.3315 C   0  0  0  0  0  0  0  0  0  0  0  0
   14.2567   15.5791   30.6927 C   0  0  0  0  0  0  0  0  0  0  0  0
   13.0964   16.0215   30.6662 O   0  0  0  0  0  0  0  0  0  0  0  0
   14.4389   14.3203   30.5907 O   0  0  0  0  0  0  0  0  0  0  0  0
   15.3077   13.9697   30.6088 H   0  0  0  0  0  0  0  0  0  0  0  0
 25 26  1  0  0  0
 25 29  1  0  0  0
 26 27  1  0  0  0
 27 28  1  0  0  0
 27 22  1  0  0  0
 28 29  1  0  0  0
 28 30  1  0  0  0
 30 31  2  0  0  0
 30 32  1  0  0  0
 22  1  1  0  0  0
 22 23  2  0  0  0
 22 24  2  0  0  0
  1  2  2  0  0  0
  1  6  1  0  0  0
  2  3  1  0  0  0
  3  4  2  0  0  0
  4  5  1  0  0  0
  4  7  1  0  0  0
  5  6  2  0  0  0
  7  8  1  0  0  0
  7  9  2  0  0  0
  8 11  1  0  0  0
 11 16  1  0  0  0
 11 12  1  0  0  0
 16 17  1  0  0  0
 17 18  1  0  0  0
 18 19  1  0  0  0
 18 20  2  0  0  0
 12 13  2  0  0  0
 12 14  1  0  0  0
 32 33  1  0  0  0
  8 10  1  0  0  0
 14 15  1  0  0  0
 19 21  1  0  0  0
M  END
> <minimizedAffinity>
-8.12705

$$$$
1F4F_TP3_A_701


 33 34  0  0  0  0  0  0  0  0999 V2000
   16.0812   15.5331   34.2592 C   0  0  0  0  0  0  0  0  0  0  0  0
   14.8238   16.0209   34.5393 C   0  0  0  0  0  0  0  0  0  0  0  0
   14.0613   15.3663   35.4908 C   0  0  0  0  0  0  0  0  0  0  0  0
   14.5971   14.2265   36.1198 C   0  0  0  0  0  0  0  0  0  0  0  0
   15.8877   13.7534   35.8024 C   0  0  0  0  0  0  0  0  0  0  0  0
   16.6484   14.4188   34.8485 C   0  0  0  0  0  0  0  0  0  0  0  0
   13.7011   13.5463   37.1319 C   0  0  0  0  0  0  0  0  0  0  0  0
   14.2098   13.1242   38.3033 N   0  0  0  0  0  0  0  0  0  0  0  0
   12.5843   13.1253   36.8030 O   0  0  0  0  0  0  0  0  0  0  0  0
   15.1348   13.3429   38.5598 H   0  0  0  0  0  0  0  0  0  0  0  0
   13.3393   12.3183   39.2018 C   0  0  0  0  0  0  0  0  0  0  0  0
   13.3463   13.2380   40.4722 C   0  0  0  0  0  0  0  0  0  0  0  0
   12.2310   13.6216   40.8625 O   0  0  0  0  0  0  0  0  0  0  0  0
   14.4505   13.5206   40.9820 O   0  0  0  0  0  0  0  0  0  0  0  0
   15.2396   13.1785   40.6102 H   0  0  0  0  0  0  0  0  0  0  0  0
   13.7452   10.8675   39.4690 C   0  0  0  0  0  0  0  0  0  0  0  0
   13.2802    9.8541   38.4231 C   0  0  0  0  0  0  0  0  0  0  0  0
   14.2253    8.6706   38.2561 C   0  0  0  0  0  0  0  0  0  0  0  0
   15.0771    8.4998   39.1561 O   0  0  0  0  0  0  0  0  0  0  0  0
   14.1443    7.9315   37.2582 O   0  0  0  0  0  0  0  0  0  0  0  0
   15.1042    9.0797   39.8916 H   0  0  0  0  0  0  0  0  0  0  0  0
   17.0431   16.3889   33.0423 S   0  0  0  0  0  0  0  0  0  0  0  0
   18.5186   16.3517   33.5487 O   0  0  0  0  0  0  0  0  0  0  0  0
   16.4831   17.8752   32.9376 O   0  0  0  0  0  0  0  0  0  0  0  0
   16.4047   13.4626   30.6943 C   0  0  0  0  0  0  0  0  0  0  0  0
   17.5519   14.3198   31.3027 C   0  0  0  0  0  0  0  0  0  0  0  0
   16.8077   15.5524   31.5581 N   0  0  0  0  0  0  0  0  0  0  0  0
   15.6881   15.7726   30.6512 C   0  0  0  0  0  0  0  0  0  0  0  0
   15.7542   14.4997   29.7548 C   0  0  0  0  0  0  0  0  0  0  0  0
   15.5024   17.0619   29.8501 C   0  0  0  0  0  0  0  0  0  0  0  0
   16.3894   17.7578   29.3285 O   0  0  0  0  0  0  0  0  0  0  0  0
   14.2835   17.4143   29.7157 O   0  0  0  0  0  0  0  0  0  0  0  0
   13.6020   16.9008   30.1027 H   0  0  0  0  0  0  0  0  0  0  0  0
 25 26  1  0  0  0
 25 29  1  0  0  0
 26 27  1  0  0  0
 27 28  1  0  0  0
 27 22  1  0  0  0
 28 29  1  0  0  0
 28 30  1  0  0  0
 30 31  2  0  0  0
 30 32  1  0  0  0
 22  1  1  0  0  0
 22 23  2  0  0  0
 22 24  2  0  0  0
  1  2  2  0  0  0
  1  6  1  0  0  0
  2  3  1  0  0  0
  3  4  2  0  0  0
  4  5  1  0  0  0
  4  7  1  0  0  0
  5  6  2  0  0  0
  7  8  1  0  0  0
  7  9  2  0  0  0
  8 11  1  0  0  0
 11 16  1  0  0  0
 11 12  1  0  0  0
 16 17  1  0  0  0
 17 18  1  0  0  0
 18 19  1  0  0  0
 18 20  2  0  0  0
 12 13  2  0  0  0
 12 14  1  0  0  0
 32 33  1  0  0  0
  8 10  1  0  0  0
 14 15  1  0  0  0
 19 21  1  0  0  0
M  END
> <minimizedAffinity>
-8.12092

$$$$
