4ISI_1GG_H_301


 38 41  0  0  0  0  0  0  0  0999 V2000
    0.0329   37.5017   24.9304 Cl  0  0  0  0  0  0  0  0  0  0  0  0
    5.0483   37.0988   24.4846 C   0  0  0  0  0  0  0  0  0  0  0  0
    4.3992   37.5170   23.1476 C   0  0  0  0  0  0  0  0  0  0  0  0
    2.8597   37.4592   23.3362 C   0  0  0  0  0  0  0  0  0  0  0  0
    2.7090   37.2400   24.8362 C   0  0  0  0  0  0  0  0  0  0  0  0
    3.9198   37.0386   25.4049 N   0  0  0  0  0  0  0  0  0  0  0  0
    1.5788   37.2235   25.6557 C   0  0  0  0  0  0  0  0  0  0  0  0
    1.6232   37.0139   26.9724 N   0  0  0  0  0  0  0  0  0  0  0  0
    2.8136   36.8058   27.5623 C   0  0  0  0  0  0  0  0  0  0  0  0
    4.0651   36.8090   26.7767 C   0  0  0  0  0  0  0  0  0  0  0  0
    5.1751   36.6233   27.2580 O   0  0  0  0  0  0  0  0  0  0  0  0
    7.3452   36.7265   24.9614 N   0  0  0  0  0  0  0  0  0  0  0  0
    6.3595   37.6419   24.9639 C   0  0  0  0  0  0  0  0  0  0  0  0
    6.4473   38.8165   25.3109 O   0  0  0  0  0  0  0  0  0  0  0  0
    7.1548   35.8022   24.6811 H   0  0  0  0  0  0  0  0  0  0  0  0
    8.6868   37.0952   25.3698 C   0  0  0  0  0  0  0  0  0  0  0  0
    9.6563   34.5604   28.7158 C   0  0  0  0  0  0  0  0  0  0  0  0
    9.0537   35.8223   28.9236 C   0  0  0  0  0  0  0  0  0  0  0  0
    8.7818   36.6752   27.8419 C   0  0  0  0  0  0  0  0  0  0  0  0
    9.0892   36.2601   26.5373 C   0  0  0  0  0  0  0  0  0  0  0  0
    9.7180   35.0115   26.3245 C   0  0  0  0  0  0  0  0  0  0  0  0
    9.9937   34.1652   27.4071 C   0  0  0  0  0  0  0  0  0  0  0  0
    9.9751   33.6858   29.8577 C   0  0  0  0  0  0  0  0  0  0  0  0
   10.3717   32.4147   29.6940 N   0  0  0  0  0  0  0  0  0  0  0  0
    9.8788   34.2102   31.0999 N   0  0  0  0  0  0  0  0  0  0  0  0
   10.4416   32.0335   28.7890 H   0  0  0  0  0  0  0  0  0  0  0  0
    9.5877   35.1430   31.2192 H   0  0  0  0  0  0  0  0  0  0  0  0
   10.0997   33.6592   31.8853 H   0  0  0  0  0  0  0  0  0  0  0  0
    2.2858   36.2916   22.5057 C   0  0  0  0  0  0  0  0  0  0  0  0
    2.8535   34.8990   22.8281 C   0  0  0  0  0  0  0  0  0  0  0  0
    2.1854   38.7629   22.8249 C   0  0  0  0  0  0  0  0  0  0  0  0
    2.3858   39.0747   21.3364 C   0  0  0  0  0  0  0  0  0  0  0  0
    2.9500   36.5147   28.8838 N   0  0  0  0  0  0  0  0  0  0  0  0
    3.8657   36.4514   29.2399 H   0  0  0  0  0  0  0  0  0  0  0  0
    1.8759   36.2934   29.7972 C   0  0  0  0  0  0  0  0  0  0  0  0
    1.9071   35.7728   31.2529 C   0  0  0  0  0  0  0  0  0  0  0  0
    1.1513   37.0802   31.6260 C   0  0  0  0  0  0  0  0  0  0  0  0
    0.6772   37.2088   30.1462 C   0  0  0  0  0  0  0  0  0  0  0  0
 17 18  1  0  0  0
 17 23  1  0  0  0
 19 18  2  0  0  0
 20 19  1  0  0  0
  1  7  1  0  0  0
 21 20  2  0  0  0
 21 22  1  0  0  0
 22 17  2  0  0  0
 23 25  1  0  0  0
 24 23  2  0  0  0
 16 20  1  0  0  0
 12 16  1  0  0  0
 12 13  1  0  0  0
 13 14  2  0  0  0
  2 13  1  0  0  0
  2  6  1  0  0  0
  3  2  1  0  0  0
  3  4  1  0  0  0
  4  5  1  0  0  0
  5  6  1  0  0  0
  5  7  2  0  0  0
  6 10  1  0  0  0
 29  4  1  0  0  0
 29 30  1  0  0  0
 31  4  1  0  0  0
 31 32  1  0  0  0
  7  8  1  0  0  0
  8  9  2  0  0  0
  9 33  1  0  0  0
 10  9  1  0  0  0
 10 11  2  0  0  0
 33 35  1  0  0  0
 35 38  1  0  0  0
 35 36  1  0  0  0
 36 37  1  0  0  0
 38 37  1  0  0  0
 24 26  1  0  0  0
 25 27  1  0  0  0
 25 28  1  0  0  0
 12 15  1  0  0  0
 33 34  1  0  0  0
M  END
> <minimizedAffinity>
-9.75807

$$$$
4ISI_1GG_H_301


 38 41  0  0  0  0  0  0  0  0999 V2000
    2.2770   37.3596   20.7018 Cl  0  0  0  0  0  0  0  0  0  0  0  0
    5.0845   37.9255   24.8627 C   0  0  0  0  0  0  0  0  0  0  0  0
    4.3437   36.5709   24.8671 C   0  0  0  0  0  0  0  0  0  0  0  0
    3.3910   36.5542   23.6419 C   0  0  0  0  0  0  0  0  0  0  0  0
    3.8083   37.7994   22.8700 C   0  0  0  0  0  0  0  0  0  0  0  0
    4.7149   38.5096   23.5796 N   0  0  0  0  0  0  0  0  0  0  0  0
    3.4210   38.2795   21.6174 C   0  0  0  0  0  0  0  0  0  0  0  0
    3.8910   39.4062   21.0798 N   0  0  0  0  0  0  0  0  0  0  0  0
    4.7895   40.1340   21.7664 C   0  0  0  0  0  0  0  0  0  0  0  0
    5.2618   39.7034   23.0987 C   0  0  0  0  0  0  0  0  0  0  0  0
    6.0749   40.3251   23.7698 O   0  0  0  0  0  0  0  0  0  0  0  0
    7.3396   37.1803   24.8868 N   0  0  0  0  0  0  0  0  0  0  0  0
    6.4826   38.0963   25.3727 C   0  0  0  0  0  0  0  0  0  0  0  0
    6.7431   39.0043   26.1570 O   0  0  0  0  0  0  0  0  0  0  0  0
    7.0141   36.4797   24.2765 H   0  0  0  0  0  0  0  0  0  0  0  0
    8.7408   37.2203   25.2580 C   0  0  0  0  0  0  0  0  0  0  0  0
    9.6137   34.6122   28.5741 C   0  0  0  0  0  0  0  0  0  0  0  0
    9.8554   34.1894   27.2469 C   0  0  0  0  0  0  0  0  0  0  0  0
    9.5258   35.0139   26.1592 C   0  0  0  0  0  0  0  0  0  0  0  0
    8.9728   36.2821   26.3930 C   0  0  0  0  0  0  0  0  0  0  0  0
    8.7019   36.7000   27.7165 C   0  0  0  0  0  0  0  0  0  0  0  0
    9.0264   35.8720   28.7997 C   0  0  0  0  0  0  0  0  0  0  0  0
    9.9252   33.7275   29.7102 C   0  0  0  0  0  0  0  0  0  0  0  0
   10.3131   32.4549   29.5382 N   0  0  0  0  0  0  0  0  0  0  0  0
    9.8313   34.2440   30.9559 N   0  0  0  0  0  0  0  0  0  0  0  0
   10.3813   32.0794   28.6307 H   0  0  0  0  0  0  0  0  0  0  0  0
    9.5466   35.1780   31.0814 H   0  0  0  0  0  0  0  0  0  0  0  0
   10.0476   33.6861   31.7377 H   0  0  0  0  0  0  0  0  0  0  0  0
    1.9283   36.6214   24.1301 C   0  0  0  0  0  0  0  0  0  0  0  0
    1.4642   37.9861   24.6666 C   0  0  0  0  0  0  0  0  0  0  0  0
    3.5461   35.2365   22.8323 C   0  0  0  0  0  0  0  0  0  0  0  0
    3.1647   33.9507   23.5768 C   0  0  0  0  0  0  0  0  0  0  0  0
    5.2705   41.3292   21.3303 N   0  0  0  0  0  0  0  0  0  0  0  0
    4.8173   42.1422   21.6511 H   0  0  0  0  0  0  0  0  0  0  0  0
    6.3775   41.5025   20.4465 C   0  0  0  0  0  0  0  0  0  0  0  0
    7.8394   41.0182   20.5857 C   0  0  0  0  0  0  0  0  0  0  0  0
    7.6297   40.3226   19.2101 C   0  0  0  0  0  0  0  0  0  0  0  0
    6.4529   41.3013   18.9132 C   0  0  0  0  0  0  0  0  0  0  0  0
 17 18  1  0  0  0
 17 23  1  0  0  0
 19 18  2  0  0  0
 20 19  1  0  0  0
  1  7  1  0  0  0
 21 20  2  0  0  0
 21 22  1  0  0  0
 22 17  2  0  0  0
 23 25  1  0  0  0
 24 23  2  0  0  0
 16 20  1  0  0  0
 12 16  1  0  0  0
 12 13  1  0  0  0
 13 14  2  0  0  0
  2 13  1  0  0  0
  2  6  1  0  0  0
  3  2  1  0  0  0
  3  4  1  0  0  0
  4  5  1  0  0  0
  5  6  1  0  0  0
  5  7  2  0  0  0
  6 10  1  0  0  0
 29  4  1  0  0  0
 29 30  1  0  0  0
 31  4  1  0  0  0
 31 32  1  0  0  0
  7  8  1  0  0  0
  8  9  2  0  0  0
  9 33  1  0  0  0
 10  9  1  0  0  0
 10 11  2  0  0  0
 33 35  1  0  0  0
 35 38  1  0  0  0
 35 36  1  0  0  0
 36 37  1  0  0  0
 38 37  1  0  0  0
 24 26  1  0  0  0
 25 27  1  0  0  0
 25 28  1  0  0  0
 12 15  1  0  0  0
 33 34  1  0  0  0
M  END
> <minimizedAffinity>
-8.41965

$$$$
4ISI_1GG_H_301


 38 41  0  0  0  0  0  0  0  0999 V2000
    0.2585   36.6879   24.6349 Cl  0  0  0  0  0  0  0  0  0  0  0  0
    4.7770   38.6324   25.7825 C   0  0  0  0  0  0  0  0  0  0  0  0
    4.0622   38.0962   27.0416 C   0  0  0  0  0  0  0  0  0  0  0  0
    2.6303   37.6694   26.6211 C   0  0  0  0  0  0  0  0  0  0  0  0
    2.6802   37.7633   25.1015 C   0  0  0  0  0  0  0  0  0  0  0  0
    3.8558   38.3010   24.7029 N   0  0  0  0  0  0  0  0  0  0  0  0
    1.7531   37.3944   24.1249 C   0  0  0  0  0  0  0  0  0  0  0  0
    1.9578   37.5475   22.8156 N   0  0  0  0  0  0  0  0  0  0  0  0
    3.1159   38.0843   22.3925 C   0  0  0  0  0  0  0  0  0  0  0  0
    4.1589   38.5016   23.3525 C   0  0  0  0  0  0  0  0  0  0  0  0
    5.2295   38.9973   23.0265 O   0  0  0  0  0  0  0  0  0  0  0  0
    6.6620   37.2183   25.4850 N   0  0  0  0  0  0  0  0  0  0  0  0
    6.2519   38.4974   25.5579 C   0  0  0  0  0  0  0  0  0  0  0  0
    6.9527   39.5011   25.4631 O   0  0  0  0  0  0  0  0  0  0  0  0
    6.0115   36.4879   25.5973 H   0  0  0  0  0  0  0  0  0  0  0  0
    8.0581   36.9106   25.2417 C   0  0  0  0  0  0  0  0  0  0  0  0
    9.4581   34.6234   28.6136 C   0  0  0  0  0  0  0  0  0  0  0  0
    8.7572   35.8352   28.8109 C   0  0  0  0  0  0  0  0  0  0  0  0
    8.3429   36.6116   27.7168 C   0  0  0  0  0  0  0  0  0  0  0  0
    8.6059   36.1673   26.4121 C   0  0  0  0  0  0  0  0  0  0  0  0
    9.3313   34.9708   26.2076 C   0  0  0  0  0  0  0  0  0  0  0  0
    9.7489   34.2014   27.3020 C   0  0  0  0  0  0  0  0  0  0  0  0
    9.9249   33.8323   29.7654 C   0  0  0  0  0  0  0  0  0  0  0  0
   10.3854   32.5795   29.6311 N   0  0  0  0  0  0  0  0  0  0  0  0
    9.8994   34.4170   30.9840 N   0  0  0  0  0  0  0  0  0  0  0  0
   10.4037   32.1543   28.7433 H   0  0  0  0  0  0  0  0  0  0  0  0
    9.5613   35.3364   31.0818 H   0  0  0  0  0  0  0  0  0  0  0  0
   10.2189   33.9234   31.7736 H   0  0  0  0  0  0  0  0  0  0  0  0
    1.6038   38.6407   27.2419 C   0  0  0  0  0  0  0  0  0  0  0  0
    1.3799   39.9561   26.4768 C   0  0  0  0  0  0  0  0  0  0  0  0
    2.2948   36.2463   27.1481 C   0  0  0  0  0  0  0  0  0  0  0  0
    2.5013   36.0292   28.6525 C   0  0  0  0  0  0  0  0  0  0  0  0
    3.3839   38.3428   21.0844 N   0  0  0  0  0  0  0  0  0  0  0  0
    3.8416   37.6393   20.5698 H   0  0  0  0  0  0  0  0  0  0  0  0
    3.0566   39.5493   20.3959 C   0  0  0  0  0  0  0  0  0  0  0  0
    1.9161   40.5598   20.6588 C   0  0  0  0  0  0  0  0  0  0  0  0
    3.0346   41.6363   20.7600 C   0  0  0  0  0  0  0  0  0  0  0  0
    3.9816   40.7053   19.9432 C   0  0  0  0  0  0  0  0  0  0  0  0
 17 18  1  0  0  0
 17 23  1  0  0  0
 19 18  2  0  0  0
 20 19  1  0  0  0
  1  7  1  0  0  0
 21 20  2  0  0  0
 21 22  1  0  0  0
 22 17  2  0  0  0
 23 25  1  0  0  0
 24 23  2  0  0  0
 16 20  1  0  0  0
 12 16  1  0  0  0
 12 13  1  0  0  0
 13 14  2  0  0  0
  2 13  1  0  0  0
  2  6  1  0  0  0
  3  2  1  0  0  0
  3  4  1  0  0  0
  4  5  1  0  0  0
  5  6  1  0  0  0
  5  7  2  0  0  0
  6 10  1  0  0  0
 29  4  1  0  0  0
 29 30  1  0  0  0
 31  4  1  0  0  0
 31 32  1  0  0  0
  7  8  1  0  0  0
  8  9  2  0  0  0
  9 33  1  0  0  0
 10  9  1  0  0  0
 10 11  2  0  0  0
 33 35  1  0  0  0
 35 38  1  0  0  0
 35 36  1  0  0  0
 36 37  1  0  0  0
 38 37  1  0  0  0
 24 26  1  0  0  0
 25 27  1  0  0  0
 25 28  1  0  0  0
 12 15  1  0  0  0
 33 34  1  0  0  0
M  END
> <minimizedAffinity>
-8.35401

$$$$
4ISI_1GG_H_301


 38 41  0  0  0  0  0  0  0  0999 V2000
   10.2624   40.2096   22.3389 Cl  0  0  0  0  0  0  0  0  0  0  0  0
    6.1353   40.9513   25.1552 C   0  0  0  0  0  0  0  0  0  0  0  0
    6.4389   42.1810   24.2723 C   0  0  0  0  0  0  0  0  0  0  0  0
    7.7997   41.9283   23.5696 C   0  0  0  0  0  0  0  0  0  0  0  0
    8.0885   40.4702   23.9027 C   0  0  0  0  0  0  0  0  0  0  0  0
    7.1667   39.9958   24.7717 N   0  0  0  0  0  0  0  0  0  0  0  0
    9.0961   39.6078   23.4662 C   0  0  0  0  0  0  0  0  0  0  0  0
    9.2064   38.3389   23.8626 N   0  0  0  0  0  0  0  0  0  0  0  0
    8.3061   37.8435   24.7302 C   0  0  0  0  0  0  0  0  0  0  0  0
    7.2020   38.6802   25.2445 C   0  0  0  0  0  0  0  0  0  0  0  0
    6.3562   38.2851   26.0360 O   0  0  0  0  0  0  0  0  0  0  0  0
    4.1157   40.0124   24.3298 N   0  0  0  0  0  0  0  0  0  0  0  0
    4.7460   40.4629   25.4295 C   0  0  0  0  0  0  0  0  0  0  0  0
    4.2951   40.5042   26.5708 O   0  0  0  0  0  0  0  0  0  0  0  0
    4.5690   40.0466   23.4565 H   0  0  0  0  0  0  0  0  0  0  0  0
    2.7716   39.4766   24.4249 C   0  0  0  0  0  0  0  0  0  0  0  0
    2.9689   35.4414   22.9284 C   0  0  0  0  0  0  0  0  0  0  0  0
    2.1296   36.3954   22.3086 C   0  0  0  0  0  0  0  0  0  0  0  0
    2.0213   37.6979   22.8218 C   0  0  0  0  0  0  0  0  0  0  0  0
    2.7736   38.0641   23.9482 C   0  0  0  0  0  0  0  0  0  0  0  0
    3.5932   37.1071   24.5901 C   0  0  0  0  0  0  0  0  0  0  0  0
    3.6942   35.8061   24.0790 C   0  0  0  0  0  0  0  0  0  0  0  0
    3.0490   34.0650   22.4093 C   0  0  0  0  0  0  0  0  0  0  0  0
    2.7249   33.7596   21.1438 N   0  0  0  0  0  0  0  0  0  0  0  0
    3.4871   33.0992   23.2477 N   0  0  0  0  0  0  0  0  0  0  0  0
    2.4059   34.4635   20.5339 H   0  0  0  0  0  0  0  0  0  0  0  0
    3.7248   33.3241   24.1762 H   0  0  0  0  0  0  0  0  0  0  0  0
    3.5684   32.1711   22.9297 H   0  0  0  0  0  0  0  0  0  0  0  0
    8.8601   42.8899   24.1469 C   0  0  0  0  0  0  0  0  0  0  0  0
    9.7414   43.6121   23.1138 C   0  0  0  0  0  0  0  0  0  0  0  0
    7.7016   42.2129   22.0448 C   0  0  0  0  0  0  0  0  0  0  0  0
    6.4364   41.6913   21.3517 C   0  0  0  0  0  0  0  0  0  0  0  0
    8.3787   36.5860   25.2431 N   0  0  0  0  0  0  0  0  0  0  0  0
    7.7509   35.9164   24.8873 H   0  0  0  0  0  0  0  0  0  0  0  0
    9.2896   36.1566   26.2545 C   0  0  0  0  0  0  0  0  0  0  0  0
    9.2565   36.3965   27.7817 C   0  0  0  0  0  0  0  0  0  0  0  0
    9.3199   34.8484   27.9207 C   0  0  0  0  0  0  0  0  0  0  0  0
    9.9181   34.7604   26.4836 C   0  0  0  0  0  0  0  0  0  0  0  0
 17 18  1  0  0  0
 17 23  1  0  0  0
 19 18  2  0  0  0
 20 19  1  0  0  0
  1  7  1  0  0  0
 21 20  2  0  0  0
 21 22  1  0  0  0
 22 17  2  0  0  0
 23 25  1  0  0  0
 24 23  2  0  0  0
 16 20  1  0  0  0
 12 16  1  0  0  0
 12 13  1  0  0  0
 13 14  2  0  0  0
  2 13  1  0  0  0
  2  6  1  0  0  0
  3  2  1  0  0  0
  3  4  1  0  0  0
  4  5  1  0  0  0
  5  6  1  0  0  0
  5  7  2  0  0  0
  6 10  1  0  0  0
 29  4  1  0  0  0
 29 30  1  0  0  0
 31  4  1  0  0  0
 31 32  1  0  0  0
  7  8  1  0  0  0
  8  9  2  0  0  0
  9 33  1  0  0  0
 10  9  1  0  0  0
 10 11  2  0  0  0
 33 35  1  0  0  0
 35 38  1  0  0  0
 35 36  1  0  0  0
 36 37  1  0  0  0
 38 37  1  0  0  0
 24 26  1  0  0  0
 25 27  1  0  0  0
 25 28  1  0  0  0
 12 15  1  0  0  0
 33 34  1  0  0  0
M  END
> <minimizedAffinity>
-8.03712

$$$$
4ISI_1GG_H_301


 38 41  0  0  0  0  0  0  0  0999 V2000
    0.7135   40.1346   23.4021 Cl  0  0  0  0  0  0  0  0  0  0  0  0
    5.0331   37.6736   24.2964 C   0  0  0  0  0  0  0  0  0  0  0  0
    4.1899   36.9524   23.2229 C   0  0  0  0  0  0  0  0  0  0  0  0
    2.8238   37.6837   23.1311 C   0  0  0  0  0  0  0  0  0  0  0  0
    3.0449   38.9251   23.9858 C   0  0  0  0  0  0  0  0  0  0  0  0
    4.2477   38.8627   24.6019 N   0  0  0  0  0  0  0  0  0  0  0  0
    2.2426   40.0462   24.2067 C   0  0  0  0  0  0  0  0  0  0  0  0
    2.5922   41.0614   24.9983 N   0  0  0  0  0  0  0  0  0  0  0  0
    3.7805   41.0222   25.6268 C   0  0  0  0  0  0  0  0  0  0  0  0
    4.6989   39.8779   25.4511 C   0  0  0  0  0  0  0  0  0  0  0  0
    5.7898   39.7865   25.9984 O   0  0  0  0  0  0  0  0  0  0  0  0
    7.1433   37.1592   25.2578 N   0  0  0  0  0  0  0  0  0  0  0  0
    6.5263   37.7751   24.2333 C   0  0  0  0  0  0  0  0  0  0  0  0
    7.0618   38.3799   23.3086 O   0  0  0  0  0  0  0  0  0  0  0  0
    6.6094   36.7209   25.9593 H   0  0  0  0  0  0  0  0  0  0  0  0
    8.5912   37.1379   25.3334 C   0  0  0  0  0  0  0  0  0  0  0  0
    9.6098   34.6472   28.6979 C   0  0  0  0  0  0  0  0  0  0  0  0
    8.9162   35.8640   28.8909 C   0  0  0  0  0  0  0  0  0  0  0  0
    8.6261   36.7053   27.8049 C   0  0  0  0  0  0  0  0  0  0  0  0
    9.0072   36.3224   26.5100 C   0  0  0  0  0  0  0  0  0  0  0  0
    9.7262   35.1208   26.3130 C   0  0  0  0  0  0  0  0  0  0  0  0
   10.0196   34.2863   27.4000 C   0  0  0  0  0  0  0  0  0  0  0  0
    9.9461   33.7869   29.8456 C   0  0  0  0  0  0  0  0  0  0  0  0
    9.8583   34.2202   31.1122 N   0  0  0  0  0  0  0  0  0  0  0  0
   10.3320   32.5168   29.5900 N   0  0  0  0  0  0  0  0  0  0  0  0
    9.5772   35.1453   31.2976 H   0  0  0  0  0  0  0  0  0  0  0  0
   10.3962   32.1995   28.6602 H   0  0  0  0  0  0  0  0  0  0  0  0
   10.5488   31.9091   30.3336 H   0  0  0  0  0  0  0  0  0  0  0  0
    1.7146   36.7680   23.6911 C   0  0  0  0  0  0  0  0  0  0  0  0
    1.6664   36.6355   25.2227 C   0  0  0  0  0  0  0  0  0  0  0  0
    2.4580   37.9997   21.6540 C   0  0  0  0  0  0  0  0  0  0  0  0
    3.4274   38.9303   20.9141 C   0  0  0  0  0  0  0  0  0  0  0  0
    4.1908   41.9755   26.5057 N   0  0  0  0  0  0  0  0  0  0  0  0
    4.7490   42.7053   26.1520 H   0  0  0  0  0  0  0  0  0  0  0  0
    3.8794   42.0058   27.8982 C   0  0  0  0  0  0  0  0  0  0  0  0
    3.0349   43.0224   28.7008 C   0  0  0  0  0  0  0  0  0  0  0  0
    2.1885   41.7999   29.1580 C   0  0  0  0  0  0  0  0  0  0  0  0
    3.3892   40.8638   28.8215 C   0  0  0  0  0  0  0  0  0  0  0  0
 17 18  1  0  0  0
 17 23  1  0  0  0
 19 18  2  0  0  0
 20 19  1  0  0  0
  1  7  1  0  0  0
 21 20  2  0  0  0
 21 22  1  0  0  0
 22 17  2  0  0  0
 23 25  1  0  0  0
 24 23  2  0  0  0
 16 20  1  0  0  0
 12 16  1  0  0  0
 12 13  1  0  0  0
 13 14  2  0  0  0
  2 13  1  0  0  0
  2  6  1  0  0  0
  3  2  1  0  0  0
  3  4  1  0  0  0
  4  5  1  0  0  0
  5  6  1  0  0  0
  5  7  2  0  0  0
  6 10  1  0  0  0
 29  4  1  0  0  0
 29 30  1  0  0  0
 31  4  1  0  0  0
 31 32  1  0  0  0
  7  8  1  0  0  0
  8  9  2  0  0  0
  9 33  1  0  0  0
 10  9  1  0  0  0
 10 11  2  0  0  0
 33 35  1  0  0  0
 35 38  1  0  0  0
 35 36  1  0  0  0
 36 37  1  0  0  0
 38 37  1  0  0  0
 24 26  1  0  0  0
 25 27  1  0  0  0
 25 28  1  0  0  0
 12 15  1  0  0  0
 33 34  1  0  0  0
M  END
> <minimizedAffinity>
-7.94139

$$$$
4ISI_1GG_H_301


 38 41  0  0  0  0  0  0  0  0999 V2000
    9.0166   39.7781   22.4283 Cl  0  0  0  0  0  0  0  0  0  0  0  0
    4.3827   39.0075   24.2854 C   0  0  0  0  0  0  0  0  0  0  0  0
    4.4009   40.1974   23.3017 C   0  0  0  0  0  0  0  0  0  0  0  0
    5.8799   40.4586   22.9100 C   0  0  0  0  0  0  0  0  0  0  0  0
    6.6058   39.2582   23.5039 C   0  0  0  0  0  0  0  0  0  0  0  0
    5.7539   38.5151   24.2468 N   0  0  0  0  0  0  0  0  0  0  0  0
    7.9329   38.8382   23.3955 C   0  0  0  0  0  0  0  0  0  0  0  0
    8.4133   37.7447   23.9896 N   0  0  0  0  0  0  0  0  0  0  0  0
    7.5889   36.9907   24.7383 C   0  0  0  0  0  0  0  0  0  0  0  0
    6.1666   37.3540   24.9081 C   0  0  0  0  0  0  0  0  0  0  0  0
    5.3713   36.7086   25.5781 O   0  0  0  0  0  0  0  0  0  0  0  0
    2.6652   37.9943   25.5759 N   0  0  0  0  0  0  0  0  0  0  0  0
    3.2519   38.0284   24.3658 C   0  0  0  0  0  0  0  0  0  0  0  0
    2.9509   37.3565   23.3832 O   0  0  0  0  0  0  0  0  0  0  0  0
    3.0056   38.5657   26.3018 H   0  0  0  0  0  0  0  0  0  0  0  0
    1.5338   37.1197   25.8158 C   0  0  0  0  0  0  0  0  0  0  0  0
    1.1525   36.7978   30.0951 C   0  0  0  0  0  0  0  0  0  0  0  0
    2.0565   35.9690   29.3917 C   0  0  0  0  0  0  0  0  0  0  0  0
    2.1490   36.0326   27.9921 C   0  0  0  0  0  0  0  0  0  0  0  0
    1.3528   36.9466   27.2854 C   0  0  0  0  0  0  0  0  0  0  0  0
    0.4261   37.7584   27.9795 C   0  0  0  0  0  0  0  0  0  0  0  0
    0.3319   37.6880   29.3761 C   0  0  0  0  0  0  0  0  0  0  0  0
    1.0313   36.6996   31.5600 C   0  0  0  0  0  0  0  0  0  0  0  0
    1.7486   35.8226   32.2782 N   0  0  0  0  0  0  0  0  0  0  0  0
    0.1795   37.5463   32.1805 N   0  0  0  0  0  0  0  0  0  0  0  0
    2.3688   35.2063   31.8257 H   0  0  0  0  0  0  0  0  0  0  0  0
   -0.3467   38.1897   31.6528 H   0  0  0  0  0  0  0  0  0  0  0  0
    0.0852   37.5195   33.1601 H   0  0  0  0  0  0  0  0  0  0  0  0
    6.3437   41.7960   23.5252 C   0  0  0  0  0  0  0  0  0  0  0  0
    6.9273   42.8201   22.5371 C   0  0  0  0  0  0  0  0  0  0  0  0
    6.0354   40.5823   21.3685 C   0  0  0  0  0  0  0  0  0  0  0  0
    4.8235   40.1362   20.5407 C   0  0  0  0  0  0  0  0  0  0  0  0
    8.0043   35.9003   25.4368 N   0  0  0  0  0  0  0  0  0  0  0  0
    7.5495   35.0466   25.2536 H   0  0  0  0  0  0  0  0  0  0  0  0
    9.0450   35.8908   26.4135 C   0  0  0  0  0  0  0  0  0  0  0  0
    9.1200   36.6002   27.7854 C   0  0  0  0  0  0  0  0  0  0  0  0
    9.3743   35.1873   28.3846 C   0  0  0  0  0  0  0  0  0  0  0  0
    9.8487   34.6963   26.9829 C   0  0  0  0  0  0  0  0  0  0  0  0
 17 18  1  0  0  0
 17 23  1  0  0  0
 19 18  2  0  0  0
 20 19  1  0  0  0
  1  7  1  0  0  0
 21 20  2  0  0  0
 21 22  1  0  0  0
 22 17  2  0  0  0
 23 25  1  0  0  0
 24 23  2  0  0  0
 16 20  1  0  0  0
 12 16  1  0  0  0
 12 13  1  0  0  0
 13 14  2  0  0  0
  2 13  1  0  0  0
  2  6  1  0  0  0
  3  2  1  0  0  0
  3  4  1  0  0  0
  4  5  1  0  0  0
  5  6  1  0  0  0
  5  7  2  0  0  0
  6 10  1  0  0  0
 29  4  1  0  0  0
 29 30  1  0  0  0
 31  4  1  0  0  0
 31 32  1  0  0  0
  7  8  1  0  0  0
  8  9  2  0  0  0
  9 33  1  0  0  0
 10  9  1  0  0  0
 10 11  2  0  0  0
 33 35  1  0  0  0
 35 38  1  0  0  0
 35 36  1  0  0  0
 36 37  1  0  0  0
 38 37  1  0  0  0
 24 26  1  0  0  0
 25 27  1  0  0  0
 25 28  1  0  0  0
 12 15  1  0  0  0
 33 34  1  0  0  0
M  END
> <minimizedAffinity>
-7.78570

$$$$
4ISI_1GG_H_301


 38 41  0  0  0  0  0  0  0  0999 V2000
    8.3674   42.9049   18.8271 Cl  0  0  0  0  0  0  0  0  0  0  0  0
    8.2011   40.2261   23.1064 C   0  0  0  0  0  0  0  0  0  0  0  0
    9.4624   41.1148   23.0509 C   0  0  0  0  0  0  0  0  0  0  0  0
    9.5106   41.7722   21.6457 C   0  0  0  0  0  0  0  0  0  0  0  0
    8.1533   41.4119   21.0553 C   0  0  0  0  0  0  0  0  0  0  0  0
    7.4931   40.5657   21.8786 N   0  0  0  0  0  0  0  0  0  0  0  0
    7.5307   41.8064   19.8695 C   0  0  0  0  0  0  0  0  0  0  0  0
    6.3192   41.3906   19.4967 N   0  0  0  0  0  0  0  0  0  0  0  0
    5.6432   40.5449   20.2944 C   0  0  0  0  0  0  0  0  0  0  0  0
    6.2200   40.0754   21.5713 C   0  0  0  0  0  0  0  0  0  0  0  0
    5.6533   39.3052   22.3354 O   0  0  0  0  0  0  0  0  0  0  0  0
    7.3081   38.6857   24.6784 N   0  0  0  0  0  0  0  0  0  0  0  0
    7.4211   39.9885   24.3631 C   0  0  0  0  0  0  0  0  0  0  0  0
    6.9590   40.9393   24.9876 O   0  0  0  0  0  0  0  0  0  0  0  0
    7.7031   38.0028   24.0894 H   0  0  0  0  0  0  0  0  0  0  0  0
    6.6069   38.2826   25.8820 C   0  0  0  0  0  0  0  0  0  0  0  0
    9.1440   35.5421   28.0299 C   0  0  0  0  0  0  0  0  0  0  0  0
    9.1474   35.5641   26.6163 C   0  0  0  0  0  0  0  0  0  0  0  0
    8.2862   36.4183   25.9092 C   0  0  0  0  0  0  0  0  0  0  0  0
    7.4298   37.2779   26.6138 C   0  0  0  0  0  0  0  0  0  0  0  0
    7.4006   37.2410   28.0271 C   0  0  0  0  0  0  0  0  0  0  0  0
    8.2571   36.3826   28.7298 C   0  0  0  0  0  0  0  0  0  0  0  0
   10.0216   34.6160   28.7665 C   0  0  0  0  0  0  0  0  0  0  0  0
   10.6982   33.6336   28.1526 N   0  0  0  0  0  0  0  0  0  0  0  0
   10.1505   34.7957   30.1001 N   0  0  0  0  0  0  0  0  0  0  0  0
   10.6038   33.5034   27.1813 H   0  0  0  0  0  0  0  0  0  0  0  0
    9.6537   35.5168   30.5499 H   0  0  0  0  0  0  0  0  0  0  0  0
   10.7412   34.2053   30.6215 H   0  0  0  0  0  0  0  0  0  0  0  0
   10.6847   41.1748   20.8413 C   0  0  0  0  0  0  0  0  0  0  0  0
   10.9638   39.6804   21.0749 C   0  0  0  0  0  0  0  0  0  0  0  0
    9.7581   43.3028   21.7538 C   0  0  0  0  0  0  0  0  0  0  0  0
   10.4857   43.7702   23.0207 C   0  0  0  0  0  0  0  0  0  0  0  0
    4.4352   40.0140   19.9647 N   0  0  0  0  0  0  0  0  0  0  0  0
    4.4301   39.2684   19.3219 H   0  0  0  0  0  0  0  0  0  0  0  0
    3.1744   40.4482   20.4733 C   0  0  0  0  0  0  0  0  0  0  0  0
    2.2250   39.7606   21.4818 C   0  0  0  0  0  0  0  0  0  0  0  0
    2.3270   41.0721   22.3121 C   0  0  0  0  0  0  0  0  0  0  0  0
    2.7603   41.8349   21.0232 C   0  0  0  0  0  0  0  0  0  0  0  0
 17 18  1  0  0  0
 17 23  1  0  0  0
 19 18  2  0  0  0
 20 19  1  0  0  0
  1  7  1  0  0  0
 21 20  2  0  0  0
 21 22  1  0  0  0
 22 17  2  0  0  0
 23 25  1  0  0  0
 24 23  2  0  0  0
 16 20  1  0  0  0
 12 16  1  0  0  0
 12 13  1  0  0  0
 13 14  2  0  0  0
  2 13  1  0  0  0
  2  6  1  0  0  0
  3  2  1  0  0  0
  3  4  1  0  0  0
  4  5  1  0  0  0
  5  6  1  0  0  0
  5  7  2  0  0  0
  6 10  1  0  0  0
 29  4  1  0  0  0
 29 30  1  0  0  0
 31  4  1  0  0  0
 31 32  1  0  0  0
  7  8  1  0  0  0
  8  9  2  0  0  0
  9 33  1  0  0  0
 10  9  1  0  0  0
 10 11  2  0  0  0
 33 35  1  0  0  0
 35 38  1  0  0  0
 35 36  1  0  0  0
 36 37  1  0  0  0
 38 37  1  0  0  0
 24 26  1  0  0  0
 25 27  1  0  0  0
 25 28  1  0  0  0
 12 15  1  0  0  0
 33 34  1  0  0  0
M  END
> <minimizedAffinity>
-7.41627

$$$$
4ISI_1GG_H_301


 38 41  0  0  0  0  0  0  0  0999 V2000
    4.2144   38.2407   28.8470 Cl  0  0  0  0  0  0  0  0  0  0  0  0
    2.4978   36.4711   24.4382 C   0  0  0  0  0  0  0  0  0  0  0  0
    1.3424   36.9890   25.3216 C   0  0  0  0  0  0  0  0  0  0  0  0
    1.9406   37.3601   26.7049 C   0  0  0  0  0  0  0  0  0  0  0  0
    3.4414   37.2580   26.4645 C   0  0  0  0  0  0  0  0  0  0  0  0
    3.6862   36.7613   25.2304 N   0  0  0  0  0  0  0  0  0  0  0  0
    4.5287   37.5861   27.2766 C   0  0  0  0  0  0  0  0  0  0  0  0
    5.8010   37.4320   26.9066 N   0  0  0  0  0  0  0  0  0  0  0  0
    6.0724   36.9353   25.6867 C   0  0  0  0  0  0  0  0  0  0  0  0
    4.9867   36.5630   24.7560 C   0  0  0  0  0  0  0  0  0  0  0  0
    5.1730   36.1048   23.6364 O   0  0  0  0  0  0  0  0  0  0  0  0
    2.6376   37.9488   22.5839 N   0  0  0  0  0  0  0  0  0  0  0  0
    2.5407   36.6587   22.9526 C   0  0  0  0  0  0  0  0  0  0  0  0
    2.4851   35.6833   22.2090 O   0  0  0  0  0  0  0  0  0  0  0  0
    2.6531   38.6547   23.2699 H   0  0  0  0  0  0  0  0  0  0  0  0
    2.7193   38.3041   21.1804 C   0  0  0  0  0  0  0  0  0  0  0  0
    6.0129   41.0037   20.5279 C   0  0  0  0  0  0  0  0  0  0  0  0
    5.8502   40.3601   21.7762 C   0  0  0  0  0  0  0  0  0  0  0  0
    4.7510   39.5191   22.0127 C   0  0  0  0  0  0  0  0  0  0  0  0
    3.8165   39.2953   20.9903 C   0  0  0  0  0  0  0  0  0  0  0  0
    3.9573   39.9580   19.7490 C   0  0  0  0  0  0  0  0  0  0  0  0
    5.0523   40.8017   19.5183 C   0  0  0  0  0  0  0  0  0  0  0  0
    7.1468   41.9157   20.2980 C   0  0  0  0  0  0  0  0  0  0  0  0
    7.2974   43.0555   20.9893 N   0  0  0  0  0  0  0  0  0  0  0  0
    8.0640   41.5604   19.3707 N   0  0  0  0  0  0  0  0  0  0  0  0
    6.6290   43.3137   21.6644 H   0  0  0  0  0  0  0  0  0  0  0  0
    7.9528   40.7238   18.8637 H   0  0  0  0  0  0  0  0  0  0  0  0
    8.8431   42.1381   19.2023 H   0  0  0  0  0  0  0  0  0  0  0  0
    1.4401   36.3559   27.7650 C   0  0  0  0  0  0  0  0  0  0  0  0
    0.7784   36.9714   29.0095 C   0  0  0  0  0  0  0  0  0  0  0  0
    1.4748   38.7734   27.1534 C   0  0  0  0  0  0  0  0  0  0  0  0
    1.7735   39.9138   26.1719 C   0  0  0  0  0  0  0  0  0  0  0  0
    7.3346   36.6781   25.2504 N   0  0  0  0  0  0  0  0  0  0  0  0
    7.4719   36.6156   24.2775 H   0  0  0  0  0  0  0  0  0  0  0  0
    8.4766   36.4913   26.0857 C   0  0  0  0  0  0  0  0  0  0  0  0
    8.6945   36.8845   27.5652 C   0  0  0  0  0  0  0  0  0  0  0  0
    9.0291   35.3844   27.8057 C   0  0  0  0  0  0  0  0  0  0  0  0
    9.3515   35.2302   26.2881 C   0  0  0  0  0  0  0  0  0  0  0  0
 17 18  1  0  0  0
 17 23  1  0  0  0
 19 18  2  0  0  0
 20 19  1  0  0  0
  1  7  1  0  0  0
 21 20  2  0  0  0
 21 22  1  0  0  0
 22 17  2  0  0  0
 23 25  1  0  0  0
 24 23  2  0  0  0
 16 20  1  0  0  0
 12 16  1  0  0  0
 12 13  1  0  0  0
 13 14  2  0  0  0
  2 13  1  0  0  0
  2  6  1  0  0  0
  3  2  1  0  0  0
  3  4  1  0  0  0
  4  5  1  0  0  0
  5  6  1  0  0  0
  5  7  2  0  0  0
  6 10  1  0  0  0
 29  4  1  0  0  0
 29 30  1  0  0  0
 31  4  1  0  0  0
 31 32  1  0  0  0
  7  8  1  0  0  0
  8  9  2  0  0  0
  9 33  1  0  0  0
 10  9  1  0  0  0
 10 11  2  0  0  0
 33 35  1  0  0  0
 35 38  1  0  0  0
 35 36  1  0  0  0
 36 37  1  0  0  0
 38 37  1  0  0  0
 24 26  1  0  0  0
 25 27  1  0  0  0
 25 28  1  0  0  0
 12 15  1  0  0  0
 33 34  1  0  0  0
M  END
> <minimizedAffinity>
-7.31299

$$$$
4ISI_1GG_H_301


 38 41  0  0  0  0  0  0  0  0999 V2000
    6.2893   40.2315   21.7573 Cl  0  0  0  0  0  0  0  0  0  0  0  0
    3.1002   38.5366   25.2889 C   0  0  0  0  0  0  0  0  0  0  0  0
    2.4417   39.6275   24.4172 C   0  0  0  0  0  0  0  0  0  0  0  0
    3.5354   40.1971   23.4745 C   0  0  0  0  0  0  0  0  0  0  0  0
    4.7020   39.2417   23.6912 C   0  0  0  0  0  0  0  0  0  0  0  0
    4.4188   38.3742   24.6898 N   0  0  0  0  0  0  0  0  0  0  0  0
    5.9366   39.1347   23.0480 C   0  0  0  0  0  0  0  0  0  0  0  0
    6.8599   38.2261   23.3664 N   0  0  0  0  0  0  0  0  0  0  0  0
    6.6060   37.3548   24.3589 C   0  0  0  0  0  0  0  0  0  0  0  0
    5.3250   37.3890   25.0947 C   0  0  0  0  0  0  0  0  0  0  0  0
    5.0397   36.6244   26.0068 O   0  0  0  0  0  0  0  0  0  0  0  0
    2.4338   37.1782   27.1199 N   0  0  0  0  0  0  0  0  0  0  0  0
    2.3645   37.3297   25.7851 C   0  0  0  0  0  0  0  0  0  0  0  0
    1.7820   36.5966   24.9908 O   0  0  0  0  0  0  0  0  0  0  0  0
    2.9504   37.8193   27.6597 H   0  0  0  0  0  0  0  0  0  0  0  0
    1.7511   36.0748   27.7672 C   0  0  0  0  0  0  0  0  0  0  0  0
   -0.0001   37.6915   31.3562 C   0  0  0  0  0  0  0  0  0  0  0  0
    1.1235   36.8366   31.4292 C   0  0  0  0  0  0  0  0  0  0  0  0
    1.6679   36.2652   30.2679 C   0  0  0  0  0  0  0  0  0  0  0  0
    1.1055   36.5657   29.0180 C   0  0  0  0  0  0  0  0  0  0  0  0
   -0.0357   37.3971   28.9400 C   0  0  0  0  0  0  0  0  0  0  0  0
   -0.5805   37.9608   30.1018 C   0  0  0  0  0  0  0  0  0  0  0  0
   -0.5914   38.2572   32.5812 C   0  0  0  0  0  0  0  0  0  0  0  0
   -1.7864   37.8617   33.0452 N   0  0  0  0  0  0  0  0  0  0  0  0
    0.1219   39.1875   33.2543 N   0  0  0  0  0  0  0  0  0  0  0  0
   -2.3053   37.1841   32.5545 H   0  0  0  0  0  0  0  0  0  0  0  0
    0.9988   39.4773   32.9132 H   0  0  0  0  0  0  0  0  0  0  0  0
   -0.2355   39.5753   34.0857 H   0  0  0  0  0  0  0  0  0  0  0  0
    3.8688   41.6448   23.8934 C   0  0  0  0  0  0  0  0  0  0  0  0
    3.4135   42.7447   22.9195 C   0  0  0  0  0  0  0  0  0  0  0  0
    3.0341   40.2471   22.0042 C   0  0  0  0  0  0  0  0  0  0  0  0
    2.5694   38.9092   21.4150 C   0  0  0  0  0  0  0  0  0  0  0  0
    7.5123   36.4413   24.7990 N   0  0  0  0  0  0  0  0  0  0  0  0
    7.5111   35.5583   24.3636 H   0  0  0  0  0  0  0  0  0  0  0  0
    8.4650   36.6565   25.8396 C   0  0  0  0  0  0  0  0  0  0  0  0
    8.2534   37.1650   27.2845 C   0  0  0  0  0  0  0  0  0  0  0  0
    8.9605   35.8555   27.7374 C   0  0  0  0  0  0  0  0  0  0  0  0
    9.6138   35.7398   26.3265 C   0  0  0  0  0  0  0  0  0  0  0  0
 17 18  1  0  0  0
 17 23  1  0  0  0
 19 18  2  0  0  0
 20 19  1  0  0  0
  1  7  1  0  0  0
 21 20  2  0  0  0
 21 22  1  0  0  0
 22 17  2  0  0  0
 23 25  1  0  0  0
 24 23  2  0  0  0
 16 20  1  0  0  0
 12 16  1  0  0  0
 12 13  1  0  0  0
 13 14  2  0  0  0
  2 13  1  0  0  0
  2  6  1  0  0  0
  3  2  1  0  0  0
  3  4  1  0  0  0
  4  5  1  0  0  0
  5  6  1  0  0  0
  5  7  2  0  0  0
  6 10  1  0  0  0
 29  4  1  0  0  0
 29 30  1  0  0  0
 31  4  1  0  0  0
 31 32  1  0  0  0
  7  8  1  0  0  0
  8  9  2  0  0  0
  9 33  1  0  0  0
 10  9  1  0  0  0
 10 11  2  0  0  0
 33 35  1  0  0  0
 35 38  1  0  0  0
 35 36  1  0  0  0
 36 37  1  0  0  0
 38 37  1  0  0  0
 24 26  1  0  0  0
 25 27  1  0  0  0
 25 28  1  0  0  0
 12 15  1  0  0  0
 33 34  1  0  0  0
M  END
> <minimizedAffinity>
-7.18472

$$$$
4ISI_1GG_H_301


 38 41  0  0  0  0  0  0  0  0999 V2000
    6.6649   40.4144   21.6421 Cl  0  0  0  0  0  0  0  0  0  0  0  0
    2.2092   38.9423   23.5117 C   0  0  0  0  0  0  0  0  0  0  0  0
    2.0704   39.4320   22.0541 C   0  0  0  0  0  0  0  0  0  0  0  0
    3.4447   40.0092   21.6212 C   0  0  0  0  0  0  0  0  0  0  0  0
    4.3600   39.6054   22.7700 C   0  0  0  0  0  0  0  0  0  0  0  0
    3.6400   39.0454   23.7690 N   0  0  0  0  0  0  0  0  0  0  0  0
    5.7426   39.7167   22.9290 C   0  0  0  0  0  0  0  0  0  0  0  0
    6.3973   39.3063   24.0163 N   0  0  0  0  0  0  0  0  0  0  0  0
    5.7050   38.7506   25.0265 C   0  0  0  0  0  0  0  0  0  0  0  0
    4.2385   38.5875   24.9471 C   0  0  0  0  0  0  0  0  0  0  0  0
    3.5565   38.0920   25.8345 O   0  0  0  0  0  0  0  0  0  0  0  0
    0.7604   38.0702   25.1796 N   0  0  0  0  0  0  0  0  0  0  0  0
    1.4458   37.7760   24.0602 C   0  0  0  0  0  0  0  0  0  0  0  0
    1.4925   36.6893   23.4905 O   0  0  0  0  0  0  0  0  0  0  0  0
    0.8131   38.9755   25.5629 H   0  0  0  0  0  0  0  0  0  0  0  0
   -0.0557   37.0598   25.8244 C   0  0  0  0  0  0  0  0  0  0  0  0
    1.2408   36.9123   29.9303 C   0  0  0  0  0  0  0  0  0  0  0  0
    1.9158   36.1647   28.9383 C   0  0  0  0  0  0  0  0  0  0  0  0
    1.4677   36.1677   27.6076 C   0  0  0  0  0  0  0  0  0  0  0  0
    0.3518   36.9410   27.2535 C   0  0  0  0  0  0  0  0  0  0  0  0
   -0.3453   37.6686   28.2456 C   0  0  0  0  0  0  0  0  0  0  0  0
    0.1010   37.6585   29.5741 C   0  0  0  0  0  0  0  0  0  0  0  0
    1.6916   36.8748   31.3324 C   0  0  0  0  0  0  0  0  0  0  0  0
    2.7591   37.5673   31.7575 N   0  0  0  0  0  0  0  0  0  0  0  0
    0.9774   36.1290   32.2047 N   0  0  0  0  0  0  0  0  0  0  0  0
    3.2788   38.1102   31.1216 H   0  0  0  0  0  0  0  0  0  0  0  0
    0.1941   35.6211   31.8920 H   0  0  0  0  0  0  0  0  0  0  0  0
    1.2405   36.0937   33.1528 H   0  0  0  0  0  0  0  0  0  0  0  0
    3.3302   41.5404   21.4642 C   0  0  0  0  0  0  0  0  0  0  0  0
    1.9045   42.1142   21.5243 C   0  0  0  0  0  0  0  0  0  0  0  0
    3.8816   39.4365   20.2439 C   0  0  0  0  0  0  0  0  0  0  0  0
    4.2299   40.4772   19.1721 C   0  0  0  0  0  0  0  0  0  0  0  0
    6.2762   38.3677   26.1999 N   0  0  0  0  0  0  0  0  0  0  0  0
    6.1715   38.9709   26.9709 H   0  0  0  0  0  0  0  0  0  0  0  0
    7.0148   37.1641   26.4062 C   0  0  0  0  0  0  0  0  0  0  0  0
    8.2234   36.5992   25.6245 C   0  0  0  0  0  0  0  0  0  0  0  0
    8.9618   36.5698   26.9935 C   0  0  0  0  0  0  0  0  0  0  0  0
    7.5818   36.5708   27.7191 C   0  0  0  0  0  0  0  0  0  0  0  0
 17 18  1  0  0  0
 17 23  1  0  0  0
 19 18  2  0  0  0
 20 19  1  0  0  0
  1  7  1  0  0  0
 21 20  2  0  0  0
 21 22  1  0  0  0
 22 17  2  0  0  0
 23 25  1  0  0  0
 24 23  2  0  0  0
 16 20  1  0  0  0
 12 16  1  0  0  0
 12 13  1  0  0  0
 13 14  2  0  0  0
  2 13  1  0  0  0
  2  6  1  0  0  0
  3  2  1  0  0  0
  3  4  1  0  0  0
  4  5  1  0  0  0
  5  6  1  0  0  0
  5  7  2  0  0  0
  6 10  1  0  0  0
 29  4  1  0  0  0
 29 30  1  0  0  0
 31  4  1  0  0  0
 31 32  1  0  0  0
  7  8  1  0  0  0
  8  9  2  0  0  0
  9 33  1  0  0  0
 10  9  1  0  0  0
 10 11  2  0  0  0
 33 35  1  0  0  0
 35 38  1  0  0  0
 35 36  1  0  0  0
 36 37  1  0  0  0
 38 37  1  0  0  0
 24 26  1  0  0  0
 25 27  1  0  0  0
 25 28  1  0  0  0
 12 15  1  0  0  0
 33 34  1  0  0  0
M  END
> <minimizedAffinity>
-7.09837

$$$$
