3IME_BZ2_A_301


 13 14  0  0  0  0  0  0  0  0999 V2000
   13.1812    9.9475    0.1130 C   0  0  0  0  0  0  0  0  0  0  0  0
   13.2401   10.5225   -1.1538 C   0  0  0  0  0  0  0  0  0  0  0  0
   14.3132    9.9895    0.9009 C   0  0  0  0  0  0  0  0  0  0  0  0
   14.4014   11.1260   -1.6258 C   0  0  0  0  0  0  0  0  0  0  0  0
   16.6829   10.7420    0.9867 C   0  0  0  0  0  0  0  0  0  0  0  0
   16.8297   11.6850   -1.0149 O   0  0  0  0  0  0  0  0  0  0  0  0
   17.4898   11.3927    0.1556 C   0  0  0  0  0  0  0  0  0  0  0  0
   15.4826   10.5936    0.4307 C   0  0  0  0  0  0  0  0  0  0  0  0
   15.5455   11.1721   -0.8351 C   0  0  0  0  0  0  0  0  0  0  0  0
   19.8667   11.0922   -0.1563 O   0  0  0  0  0  0  0  0  0  0  0  0
   19.1441   12.5664    1.3313 O   0  0  0  0  0  0  0  0  0  0  0  0
   18.9529   11.6778    0.4849 C   0  0  0  0  0  0  0  0  0  0  0  0
   19.6494   10.4293   -0.7817 H   0  0  0  0  0  0  0  0  0  0  0  0
 12 10  1  0  0  0
 11 12  2  0  0  0
  2  1  2  0  0  0
  3  1  1  0  0  0
  4  2  1  0  0  0
  8  3  2  0  0  0
  9  4  2  0  0  0
  7  5  2  0  0  0
  5  8  1  0  0  0
  7  6  1  0  0  0
  6  9  1  0  0  0
 12  7  1  0  0  0
  9  8  1  0  0  0
 10 13  1  0  0  0
M  END
> <minimizedAffinity>
-6.57976

$$$$
3IME_BZ2_A_301


 13 14  0  0  0  0  0  0  0  0999 V2000
   12.8063   12.0183   10.4758 C   0  0  0  0  0  0  0  0  0  0  0  0
   13.9181   11.6804   11.2431 C   0  0  0  0  0  0  0  0  0  0  0  0
   12.7518   11.5663    9.1732 C   0  0  0  0  0  0  0  0  0  0  0  0
   14.9533   10.9093   10.7241 C   0  0  0  0  0  0  0  0  0  0  0  0
   13.9699   10.2637    7.4386 C   0  0  0  0  0  0  0  0  0  0  0  0
   15.7562    9.6841    8.6177 O   0  0  0  0  0  0  0  0  0  0  0  0
   15.1183    9.5966    7.4026 C   0  0  0  0  0  0  0  0  0  0  0  0
   13.7899   10.7924    8.6469 C   0  0  0  0  0  0  0  0  0  0  0  0
   14.9031   10.4500    9.4114 C   0  0  0  0  0  0  0  0  0  0  0  0
   16.8261    8.5094    6.0839 O   0  0  0  0  0  0  0  0  0  0  0  0
   14.7829    8.7207    5.2539 O   0  0  0  0  0  0  0  0  0  0  0  0
   15.6336    8.9146    6.1378 C   0  0  0  0  0  0  0  0  0  0  0  0
   17.4153    8.6923    6.7891 H   0  0  0  0  0  0  0  0  0  0  0  0
 12 10  1  0  0  0
 11 12  2  0  0  0
  2  1  2  0  0  0
  3  1  1  0  0  0
  4  2  1  0  0  0
  8  3  2  0  0  0
  9  4  2  0  0  0
  7  5  2  0  0  0
  5  8  1  0  0  0
  7  6  1  0  0  0
  6  9  1  0  0  0
 12  7  1  0  0  0
  9  8  1  0  0  0
 10 13  1  0  0  0
M  END
> <minimizedAffinity>
-6.46165

$$$$
3IME_BZ2_A_301


 13 14  0  0  0  0  0  0  0  0999 V2000
   14.0093    8.6305    2.1478 C   0  0  0  0  0  0  0  0  0  0  0  0
   13.3805    9.0964    0.9960 C   0  0  0  0  0  0  0  0  0  0  0  0
   15.2616    9.1238    2.4513 C   0  0  0  0  0  0  0  0  0  0  0  0
   13.9860   10.0331    0.1645 C   0  0  0  0  0  0  0  0  0  0  0  0
   17.0609   10.6639    1.6896 C   0  0  0  0  0  0  0  0  0  0  0  0
   16.1013   11.4510   -0.1481 O   0  0  0  0  0  0  0  0  0  0  0  0
   17.2107   11.4943    0.6633 C   0  0  0  0  0  0  0  0  0  0  0  0
   15.8747   10.0641    1.6184 C   0  0  0  0  0  0  0  0  0  0  0  0
   15.2485   10.5347    0.4664 C   0  0  0  0  0  0  0  0  0  0  0  0
   18.6704   12.8913   -0.6615 O   0  0  0  0  0  0  0  0  0  0  0  0
   19.2441   12.3849    1.4176 O   0  0  0  0  0  0  0  0  0  0  0  0
   18.4888   12.2976    0.4356 C   0  0  0  0  0  0  0  0  0  0  0  0
   18.0581   12.7793   -1.3618 H   0  0  0  0  0  0  0  0  0  0  0  0
 12 10  1  0  0  0
 11 12  2  0  0  0
  2  1  2  0  0  0
  3  1  1  0  0  0
  4  2  1  0  0  0
  8  3  2  0  0  0
  9  4  2  0  0  0
  7  5  2  0  0  0
  5  8  1  0  0  0
  7  6  1  0  0  0
  6  9  1  0  0  0
 12  7  1  0  0  0
  9  8  1  0  0  0
 10 13  1  0  0  0
M  END
> <minimizedAffinity>
-6.28080

$$$$
3IME_BZ2_A_301


 13 14  0  0  0  0  0  0  0  0999 V2000
   13.5515    8.8705    1.1097 C   0  0  0  0  0  0  0  0  0  0  0  0
   13.4921    9.3900    2.4002 C   0  0  0  0  0  0  0  0  0  0  0  0
   14.5806    9.2827    0.2881 C   0  0  0  0  0  0  0  0  0  0  0  0
   14.4371   10.3006    2.8623 C   0  0  0  0  0  0  0  0  0  0  0  0
   16.5859   10.7486    0.1494 C   0  0  0  0  0  0  0  0  0  0  0  0
   16.5488   11.5973    2.1976 O   0  0  0  0  0  0  0  0  0  0  0  0
   17.2065   11.5689    0.9903 C   0  0  0  0  0  0  0  0  0  0  0  0
   15.5316   10.1983    0.7473 C   0  0  0  0  0  0  0  0  0  0  0  0
   15.4776   10.7189    2.0383 C   0  0  0  0  0  0  0  0  0  0  0  0
   19.3385   12.6177    1.4282 O   0  0  0  0  0  0  0  0  0  0  0  0
   18.4811   12.7105   -0.6124 O   0  0  0  0  0  0  0  0  0  0  0  0
   18.4283   12.3902    0.5864 C   0  0  0  0  0  0  0  0  0  0  0  0
   19.2312   12.3473    2.3189 H   0  0  0  0  0  0  0  0  0  0  0  0
 12 10  1  0  0  0
 11 12  2  0  0  0
  2  1  2  0  0  0
  3  1  1  0  0  0
  4  2  1  0  0  0
  8  3  2  0  0  0
  9  4  2  0  0  0
  7  5  2  0  0  0
  5  8  1  0  0  0
  7  6  1  0  0  0
  6  9  1  0  0  0
 12  7  1  0  0  0
  9  8  1  0  0  0
 10 13  1  0  0  0
M  END
> <minimizedAffinity>
-6.15837

$$$$
3IME_BZ2_A_301


 13 14  0  0  0  0  0  0  0  0999 V2000
   14.8757    7.5174    7.6328 C   0  0  0  0  0  0  0  0  0  0  0  0
   14.4632    8.2086    6.4966 C   0  0  0  0  0  0  0  0  0  0  0  0
   14.6870    8.1139    8.8626 C   0  0  0  0  0  0  0  0  0  0  0  0
   13.8758    9.4668    6.5834 C   0  0  0  0  0  0  0  0  0  0  0  0
   13.8308   10.1514   10.0050 C   0  0  0  0  0  0  0  0  0  0  0  0
   13.1427   11.2911    8.2317 O   0  0  0  0  0  0  0  0  0  0  0  0
   13.2570   11.2799    9.6020 C   0  0  0  0  0  0  0  0  0  0  0  0
   14.0985    9.3783    8.9549 C   0  0  0  0  0  0  0  0  0  0  0  0
   13.6822   10.0726    7.8211 C   0  0  0  0  0  0  0  0  0  0  0  0
   12.2165   13.3901   10.1516 O   0  0  0  0  0  0  0  0  0  0  0  0
   13.1643   12.1952   11.7585 O   0  0  0  0  0  0  0  0  0  0  0  0
   12.8714   12.3969   10.5685 C   0  0  0  0  0  0  0  0  0  0  0  0
   12.0311   13.4787    9.2374 H   0  0  0  0  0  0  0  0  0  0  0  0
 12 10  1  0  0  0
 11 12  2  0  0  0
  2  1  2  0  0  0
  3  1  1  0  0  0
  4  2  1  0  0  0
  8  3  2  0  0  0
  9  4  2  0  0  0
  7  5  2  0  0  0
  5  8  1  0  0  0
  7  6  1  0  0  0
  6  9  1  0  0  0
 12  7  1  0  0  0
  9  8  1  0  0  0
 10 13  1  0  0  0
M  END
> <minimizedAffinity>
-6.05844

$$$$
3IME_BZ2_A_301


 13 14  0  0  0  0  0  0  0  0999 V2000
   16.1344    9.2191    4.8600 C   0  0  0  0  0  0  0  0  0  0  0  0
   15.4086   10.4062    4.9145 C   0  0  0  0  0  0  0  0  0  0  0  0
   17.1230    9.1031    3.9044 C   0  0  0  0  0  0  0  0  0  0  0  0
   15.6618   11.4549    4.0360 C   0  0  0  0  0  0  0  0  0  0  0  0
   18.2533   10.2710    2.0208 C   0  0  0  0  0  0  0  0  0  0  0  0
   17.1393   12.1877    2.0706 O   0  0  0  0  0  0  0  0  0  0  0  0
   18.1356   11.4672    1.4547 C   0  0  0  0  0  0  0  0  0  0  0  0
   17.3803   10.1534    3.0189 C   0  0  0  0  0  0  0  0  0  0  0  0
   16.6583   11.3437    3.0711 C   0  0  0  0  0  0  0  0  0  0  0  0
   19.8667   11.1258   -0.1958 O   0  0  0  0  0  0  0  0  0  0  0  0
   18.6265   12.9594   -0.2857 O   0  0  0  0  0  0  0  0  0  0  0  0
   18.9682   11.8909    0.2473 C   0  0  0  0  0  0  0  0  0  0  0  0
   20.0732   10.3330    0.2590 H   0  0  0  0  0  0  0  0  0  0  0  0
 12 10  1  0  0  0
 11 12  2  0  0  0
  2  1  2  0  0  0
  3  1  1  0  0  0
  4  2  1  0  0  0
  8  3  2  0  0  0
  9  4  2  0  0  0
  7  5  2  0  0  0
  5  8  1  0  0  0
  7  6  1  0  0  0
  6  9  1  0  0  0
 12  7  1  0  0  0
  9  8  1  0  0  0
 10 13  1  0  0  0
M  END
> <minimizedAffinity>
-5.92764

$$$$
3IME_BZ2_A_301


 13 14  0  0  0  0  0  0  0  0999 V2000
   14.6675    8.0391    8.9786 C   0  0  0  0  0  0  0  0  0  0  0  0
   13.7466    9.0542    9.2248 C   0  0  0  0  0  0  0  0  0  0  0  0
   15.4259    8.1123    7.8282 C   0  0  0  0  0  0  0  0  0  0  0  0
   13.5845   10.1189    8.3441 C   0  0  0  0  0  0  0  0  0  0  0  0
   15.8573    9.4570    5.7800 C   0  0  0  0  0  0  0  0  0  0  0  0
   14.4174   11.1072    6.1277 O   0  0  0  0  0  0  0  0  0  0  0  0
   15.3796   10.5954    5.2890 C   0  0  0  0  0  0  0  0  0  0  0  0
   15.2658    9.1794    6.9398 C   0  0  0  0  0  0  0  0  0  0  0  0
   14.3474   10.1983    7.1830 C   0  0  0  0  0  0  0  0  0  0  0  0
   16.3735   10.4070    3.0950 O   0  0  0  0  0  0  0  0  0  0  0  0
   15.5219   12.3483    3.7386 O   0  0  0  0  0  0  0  0  0  0  0  0
   15.8250   11.1613    3.9430 C   0  0  0  0  0  0  0  0  0  0  0  0
   16.5746    9.5194    3.3181 H   0  0  0  0  0  0  0  0  0  0  0  0
 12 10  1  0  0  0
 11 12  2  0  0  0
  2  1  2  0  0  0
  3  1  1  0  0  0
  4  2  1  0  0  0
  8  3  2  0  0  0
  9  4  2  0  0  0
  7  5  2  0  0  0
  5  8  1  0  0  0
  7  6  1  0  0  0
  6  9  1  0  0  0
 12  7  1  0  0  0
  9  8  1  0  0  0
 10 13  1  0  0  0
M  END
> <minimizedAffinity>
-5.77373

$$$$
3IME_BZ2_A_301


 13 14  0  0  0  0  0  0  0  0999 V2000
   13.9549    9.7916    8.7959 C   0  0  0  0  0  0  0  0  0  0  0  0
   14.6662    8.5946    8.7892 C   0  0  0  0  0  0  0  0  0  0  0  0
   13.9043   10.5260    7.6289 C   0  0  0  0  0  0  0  0  0  0  0  0
   15.3133    8.1391    7.6449 C   0  0  0  0  0  0  0  0  0  0  0  0
   14.6610   10.6019    5.2601 C   0  0  0  0  0  0  0  0  0  0  0  0
   15.7956    8.6981    5.1878 O   0  0  0  0  0  0  0  0  0  0  0  0
   15.3804    9.8019    4.4806 C   0  0  0  0  0  0  0  0  0  0  0  0
   14.5538   10.0732    6.4771 C   0  0  0  0  0  0  0  0  0  0  0  0
   15.2647    8.8752    6.4650 C   0  0  0  0  0  0  0  0  0  0  0  0
   16.1333    9.2559    2.2507 O   0  0  0  0  0  0  0  0  0  0  0  0
   15.4786   11.3241    2.7001 O   0  0  0  0  0  0  0  0  0  0  0  0
   15.7232   10.1534    3.0351 C   0  0  0  0  0  0  0  0  0  0  0  0
   16.2979    8.3915    2.5729 H   0  0  0  0  0  0  0  0  0  0  0  0
 12 10  1  0  0  0
 11 12  2  0  0  0
  2  1  2  0  0  0
  3  1  1  0  0  0
  4  2  1  0  0  0
  8  3  2  0  0  0
  9  4  2  0  0  0
  7  5  2  0  0  0
  5  8  1  0  0  0
  7  6  1  0  0  0
  6  9  1  0  0  0
 12  7  1  0  0  0
  9  8  1  0  0  0
 10 13  1  0  0  0
M  END
> <minimizedAffinity>
-5.74048

$$$$
3IME_BZ2_A_301


 13 14  0  0  0  0  0  0  0  0999 V2000
   13.0776    9.0481    9.1767 C   0  0  0  0  0  0  0  0  0  0  0  0
   13.5375   10.3506    9.3526 C   0  0  0  0  0  0  0  0  0  0  0  0
   13.1755    8.4867    7.9200 C   0  0  0  0  0  0  0  0  0  0  0  0
   14.0827   11.0782    8.2996 C   0  0  0  0  0  0  0  0  0  0  0  0
   13.9038    8.9018    5.5777 C   0  0  0  0  0  0  0  0  0  0  0  0
   14.6640   10.9726    5.8029 O   0  0  0  0  0  0  0  0  0  0  0  0
   14.4685    9.9208    4.9390 C   0  0  0  0  0  0  0  0  0  0  0  0
   13.7213    9.2142    6.8587 C   0  0  0  0  0  0  0  0  0  0  0  0
   14.1848   10.5167    7.0305 C   0  0  0  0  0  0  0  0  0  0  0  0
   14.6416   10.9411    2.7558 O   0  0  0  0  0  0  0  0  0  0  0  0
   15.2061    8.8138    3.0084 O   0  0  0  0  0  0  0  0  0  0  0  0
   14.7638    9.8905    3.4415 C   0  0  0  0  0  0  0  0  0  0  0  0
   14.2994   11.7199    3.1487 H   0  0  0  0  0  0  0  0  0  0  0  0
 12 10  1  0  0  0
 11 12  2  0  0  0
  2  1  2  0  0  0
  3  1  1  0  0  0
  4  2  1  0  0  0
  8  3  2  0  0  0
  9  4  2  0  0  0
  7  5  2  0  0  0
  5  8  1  0  0  0
  7  6  1  0  0  0
  6  9  1  0  0  0
 12  7  1  0  0  0
  9  8  1  0  0  0
 10 13  1  0  0  0
M  END
> <minimizedAffinity>
-5.73600

$$$$
3IME_BZ2_A_301


 13 14  0  0  0  0  0  0  0  0999 V2000
   14.4058    9.1948    2.9759 C   0  0  0  0  0  0  0  0  0  0  0  0
   15.7976    9.2267    3.0036 C   0  0  0  0  0  0  0  0  0  0  0  0
   13.7311    9.1488    4.1786 C   0  0  0  0  0  0  0  0  0  0  0  0
   16.5021    9.2126    4.2032 C   0  0  0  0  0  0  0  0  0  0  0  0
   14.0165    9.0754    6.6489 C   0  0  0  0  0  0  0  0  0  0  0  0
   16.2306    9.1386    6.7534 O   0  0  0  0  0  0  0  0  0  0  0  0
   15.0593    9.0884    7.4721 C   0  0  0  0  0  0  0  0  0  0  0  0
   14.4344    9.1332    5.3864 C   0  0  0  0  0  0  0  0  0  0  0  0
   15.8267    9.1672    5.4191 C   0  0  0  0  0  0  0  0  0  0  0  0
   15.1127    7.8819    9.5647 O   0  0  0  0  0  0  0  0  0  0  0  0
   14.6829   10.0552    9.5745 O   0  0  0  0  0  0  0  0  0  0  0  0
   14.9115    8.9846    8.9880 C   0  0  0  0  0  0  0  0  0  0  0  0
   15.2796    7.1117    9.0579 H   0  0  0  0  0  0  0  0  0  0  0  0
 12 10  1  0  0  0
 11 12  2  0  0  0
  2  1  2  0  0  0
  3  1  1  0  0  0
  4  2  1  0  0  0
  8  3  2  0  0  0
  9  4  2  0  0  0
  7  5  2  0  0  0
  5  8  1  0  0  0
  7  6  1  0  0  0
  6  9  1  0  0  0
 12  7  1  0  0  0
  9  8  1  0  0  0
 10 13  1  0  0  0
M  END
> <minimizedAffinity>
-5.33769

$$$$
