3NU9_478_A_401


 39 41  0  0  0  0  0  0  0  0999 V2000
   13.6699   19.6830   17.3766 C   0  0  0  0  0  0  0  0  0  0  0  0
   14.6947   18.8734   17.9850 O   0  0  0  0  0  0  0  0  0  0  0  0
   15.2023   18.4206   17.2934 H   0  0  0  0  0  0  0  0  0  0  0  0
   14.3453   20.7569   16.5202 C   0  0  0  0  0  0  0  0  0  0  0  0
   15.1152   22.8692   17.5199 C   0  0  0  0  0  0  0  0  0  0  0  0
   15.2011   21.5506   17.3848 N   0  0  0  0  0  0  0  0  0  0  0  0
   14.2090   23.5799   17.0906 O   0  0  0  0  0  0  0  0  0  0  0  0
   15.8912   21.0796   17.9056 H   0  0  0  0  0  0  0  0  0  0  0  0
   16.2234   23.4381   18.2788 O   0  0  0  0  0  0  0  0  0  0  0  0
   17.7379   25.2174   18.4775 C   0  0  0  0  0  0  0  0  0  0  0  0
   15.6765   25.2541   19.7448 C   0  0  0  0  0  0  0  0  0  0  0  0
   16.2520   24.8573   18.3875 C   0  0  0  0  0  0  0  0  0  0  0  0
   16.8819   25.6686   20.5926 C   0  0  0  0  0  0  0  0  0  0  0  0
   18.0335   25.2041   19.8768 O   0  0  0  0  0  0  0  0  0  0  0  0
   15.1564   20.2174   15.3279 C   0  0  0  0  0  0  0  0  0  0  0  0
   15.5181   21.3473   14.3886 C   0  0  0  0  0  0  0  0  0  0  0  0
   14.5266   21.9781   13.6391 C   0  0  0  0  0  0  0  0  0  0  0  0
   16.8513   21.7554   14.2632 C   0  0  0  0  0  0  0  0  0  0  0  0
   14.8515   23.0135   12.7614 C   0  0  0  0  0  0  0  0  0  0  0  0
   17.1967   22.7822   13.3781 C   0  0  0  0  0  0  0  0  0  0  0  0
   16.1918   23.4062   12.6328 C   0  0  0  0  0  0  0  0  0  0  0  0
   12.7253   18.7425   16.6177 C   0  0  0  0  0  0  0  0  0  0  0  0
   11.2962   19.0792   16.6740 N   0  0  0  0  0  0  0  0  0  0  0  0
   11.6032   19.9999   14.4279 O   0  0  0  0  0  0  0  0  0  0  0  0
    9.5920   20.5609   15.6806 O   0  0  0  0  0  0  0  0  0  0  0  0
   10.5949   19.5853   15.3783 S   0  0  0  0  0  0  0  0  0  0  0  0
    9.8260   18.2630   14.8061 C   0  0  0  0  0  0  0  0  0  0  0  0
   10.5410   17.2167   14.2133 C   0  0  0  0  0  0  0  0  0  0  0  0
    9.9005   16.0713   13.7259 C   0  0  0  0  0  0  0  0  0  0  0  0
    8.5233   15.9305   13.8478 C   0  0  0  0  0  0  0  0  0  0  0  0
    7.7877   16.9745   14.4151 C   0  0  0  0  0  0  0  0  0  0  0  0
    8.4419   18.1305   14.8944 C   0  0  0  0  0  0  0  0  0  0  0  0
    7.8959   14.8124   13.3665 N   0  0  0  0  0  0  0  0  0  0  0  0
    8.4251   14.0836   12.9690 H   0  0  0  0  0  0  0  0  0  0  0  0
    6.9156   14.7375   13.4180 H   0  0  0  0  0  0  0  0  0  0  0  0
   10.4684   18.7533   17.8266 C   0  0  0  0  0  0  0  0  0  0  0  0
   10.3271   19.8305   18.9014 C   0  0  0  0  0  0  0  0  0  0  0  0
    8.8772   20.1383   19.2538 C   0  0  0  0  0  0  0  0  0  0  0  0
   11.0386   19.2737   20.1242 C   0  0  0  0  0  0  0  0  0  0  0  0
 10 12  1  0  0  0
 10 14  1  0  0  0
 11 12  1  0  0  0
 11 13  1  0  0  0
  5  6  1  0  0  0
  5  9  1  0  0  0
  5  7  2  0  0  0
 12  9  1  0  0  0
  4  1  1  0  0  0
  4 15  1  0  0  0
  4  6  1  0  0  0
  1 22  1  0  0  0
  1  2  1  0  0  0
 15 16  1  0  0  0
 16 17  2  0  0  0
 16 18  1  0  0  0
 17 19  1  0  0  0
 18 20  2  0  0  0
 19 21  2  0  0  0
 20 21  1  0  0  0
 22 23  1  0  0  0
 36 37  1  0  0  0
 36 23  1  0  0  0
 37 38  1  0  0  0
 37 39  1  0  0  0
 27 28  2  0  0  0
 27 32  1  0  0  0
 27 26  1  0  0  0
 28 29  1  0  0  0
 29 30  2  0  0  0
 30 31  1  0  0  0
 30 33  1  0  0  0
 31 32  2  0  0  0
 13 14  1  0  0  0
 23 26  1  0  0  0
 24 26  2  0  0  0
 25 26  2  0  0  0
  6  8  1  0  0  0
 33 34  1  0  0  0
 33 35  1  0  0  0
  2  3  1  0  0  0
M  END
> <minimizedAffinity>
-9.40316

$$$$
3NU9_478_A_401


 39 41  0  0  0  0  0  0  0  0999 V2000
   13.7849   19.7503   17.2695 C   0  0  0  0  0  0  0  0  0  0  0  0
   14.7852   18.9773   17.9606 O   0  0  0  0  0  0  0  0  0  0  0  0
   15.3576   18.5366   17.3132 H   0  0  0  0  0  0  0  0  0  0  0  0
   14.4894   20.8397   16.4575 C   0  0  0  0  0  0  0  0  0  0  0  0
   15.1075   22.9029   17.6473 C   0  0  0  0  0  0  0  0  0  0  0  0
   15.3100   21.6203   17.3671 N   0  0  0  0  0  0  0  0  0  0  0  0
   14.1177   23.5611   17.3346 O   0  0  0  0  0  0  0  0  0  0  0  0
   16.0670   21.1685   17.8053 H   0  0  0  0  0  0  0  0  0  0  0  0
   16.1947   23.4969   18.4172 O   0  0  0  0  0  0  0  0  0  0  0  0
   17.7642   25.2385   18.4681 C   0  0  0  0  0  0  0  0  0  0  0  0
   15.7149   25.4377   19.7398 C   0  0  0  0  0  0  0  0  0  0  0  0
   16.2674   24.9187   18.4145 C   0  0  0  0  0  0  0  0  0  0  0  0
   16.9390   25.8794   20.5461 C   0  0  0  0  0  0  0  0  0  0  0  0
   18.0702   25.3250   19.8625 O   0  0  0  0  0  0  0  0  0  0  0  0
   15.3464   20.3220   15.2879 C   0  0  0  0  0  0  0  0  0  0  0  0
   15.7511   21.4699   14.3890 C   0  0  0  0  0  0  0  0  0  0  0  0
   14.7764   22.2452   13.7631 C   0  0  0  0  0  0  0  0  0  0  0  0
   17.1061   21.7501   14.1763 C   0  0  0  0  0  0  0  0  0  0  0  0
   15.1394   23.2990   12.9230 C   0  0  0  0  0  0  0  0  0  0  0  0
   17.4880   22.7938   13.3267 C   0  0  0  0  0  0  0  0  0  0  0  0
   16.4996   23.5634   12.7057 C   0  0  0  0  0  0  0  0  0  0  0  0
   12.9302   18.7757   16.4495 C   0  0  0  0  0  0  0  0  0  0  0  0
   11.8311   19.3723   15.6780 N   0  0  0  0  0  0  0  0  0  0  0  0
   10.0514   21.0317   15.9345 O   0  0  0  0  0  0  0  0  0  0  0  0
   10.6742   19.6488   17.8394 O   0  0  0  0  0  0  0  0  0  0  0  0
   10.5150   19.7508   16.4205 S   0  0  0  0  0  0  0  0  0  0  0  0
    9.4607   18.5887   15.9676 C   0  0  0  0  0  0  0  0  0  0  0  0
    8.5817   18.7934   14.8985 C   0  0  0  0  0  0  0  0  0  0  0  0
    7.6779   17.8057   14.4896 C   0  0  0  0  0  0  0  0  0  0  0  0
    7.6520   16.5701   15.1251 C   0  0  0  0  0  0  0  0  0  0  0  0
    8.5051   16.3536   16.2105 C   0  0  0  0  0  0  0  0  0  0  0  0
    9.4061   17.3600   16.6222 C   0  0  0  0  0  0  0  0  0  0  0  0
    6.7644   15.6055   14.7286 N   0  0  0  0  0  0  0  0  0  0  0  0
    6.1686   15.7699   13.9623 H   0  0  0  0  0  0  0  0  0  0  0  0
    6.7222   14.7477   15.2099 H   0  0  0  0  0  0  0  0  0  0  0  0
   12.0035   19.8202   14.3034 C   0  0  0  0  0  0  0  0  0  0  0  0
   12.4252   18.7649   13.2815 C   0  0  0  0  0  0  0  0  0  0  0  0
   11.2439   18.0808   12.6051 C   0  0  0  0  0  0  0  0  0  0  0  0
   13.2395   19.5165   12.2407 C   0  0  0  0  0  0  0  0  0  0  0  0
 10 12  1  0  0  0
 10 14  1  0  0  0
 11 12  1  0  0  0
 11 13  1  0  0  0
  5  6  1  0  0  0
  5  9  1  0  0  0
  5  7  2  0  0  0
 12  9  1  0  0  0
  4  1  1  0  0  0
  4 15  1  0  0  0
  4  6  1  0  0  0
  1 22  1  0  0  0
  1  2  1  0  0  0
 15 16  1  0  0  0
 16 17  2  0  0  0
 16 18  1  0  0  0
 17 19  1  0  0  0
 18 20  2  0  0  0
 19 21  2  0  0  0
 20 21  1  0  0  0
 22 23  1  0  0  0
 36 37  1  0  0  0
 36 23  1  0  0  0
 37 38  1  0  0  0
 37 39  1  0  0  0
 27 28  2  0  0  0
 27 32  1  0  0  0
 27 26  1  0  0  0
 28 29  1  0  0  0
 29 30  2  0  0  0
 30 31  1  0  0  0
 30 33  1  0  0  0
 31 32  2  0  0  0
 13 14  1  0  0  0
 23 26  1  0  0  0
 24 26  2  0  0  0
 25 26  2  0  0  0
  6  8  1  0  0  0
 33 34  1  0  0  0
 33 35  1  0  0  0
  2  3  1  0  0  0
M  END
> <minimizedAffinity>
-9.36186

$$$$
3NU9_478_A_401


 39 41  0  0  0  0  0  0  0  0999 V2000
   13.7206   19.7205   17.4521 C   0  0  0  0  0  0  0  0  0  0  0  0
   14.7703   18.8941   17.9916 O   0  0  0  0  0  0  0  0  0  0  0  0
   15.2108   18.4187   17.2698 H   0  0  0  0  0  0  0  0  0  0  0  0
   14.3521   20.7644   16.5278 C   0  0  0  0  0  0  0  0  0  0  0  0
   15.2028   22.9072   17.3876 C   0  0  0  0  0  0  0  0  0  0  0  0
   15.2542   21.5816   17.3207 N   0  0  0  0  0  0  0  0  0  0  0  0
   14.2991   23.6162   16.9502 O   0  0  0  0  0  0  0  0  0  0  0  0
   15.9505   21.1220   17.8435 H   0  0  0  0  0  0  0  0  0  0  0  0
   16.3484   23.4881   18.0788 O   0  0  0  0  0  0  0  0  0  0  0  0
   17.7820   25.3056   18.4536 C   0  0  0  0  0  0  0  0  0  0  0  0
   15.6756   25.1796   19.6384 C   0  0  0  0  0  0  0  0  0  0  0  0
   16.3161   24.8969   18.2817 C   0  0  0  0  0  0  0  0  0  0  0  0
   16.8314   25.5810   20.5585 C   0  0  0  0  0  0  0  0  0  0  0  0
   18.0262   25.2093   19.8596 O   0  0  0  0  0  0  0  0  0  0  0  0
   15.0978   20.1848   15.3120 C   0  0  0  0  0  0  0  0  0  0  0  0
   15.4938   21.2958   14.3641 C   0  0  0  0  0  0  0  0  0  0  0  0
   16.8309   21.6713   14.2465 C   0  0  0  0  0  0  0  0  0  0  0  0
   14.5163   21.9558   13.6099 C   0  0  0  0  0  0  0  0  0  0  0  0
   17.2050   22.7026   13.3836 C   0  0  0  0  0  0  0  0  0  0  0  0
   14.8717   23.0008   12.7504 C   0  0  0  0  0  0  0  0  0  0  0  0
   16.2168   23.3666   12.6422 C   0  0  0  0  0  0  0  0  0  0  0  0
   12.6967   18.7934   16.7852 C   0  0  0  0  0  0  0  0  0  0  0  0
   11.6130   19.4542   16.0450 N   0  0  0  0  0  0  0  0  0  0  0  0
    9.5974   20.8373   15.9376 O   0  0  0  0  0  0  0  0  0  0  0  0
   10.9232   20.8205   17.9799 O   0  0  0  0  0  0  0  0  0  0  0  0
   10.4394   20.0916   16.8469 S   0  0  0  0  0  0  0  0  0  0  0  0
    9.6101   18.8057   17.4178 C   0  0  0  0  0  0  0  0  0  0  0  0
    9.1279   18.7874   18.7310 C   0  0  0  0  0  0  0  0  0  0  0  0
    8.4068   17.6986   19.2351 C   0  0  0  0  0  0  0  0  0  0  0  0
    8.1225   16.6073   18.4229 C   0  0  0  0  0  0  0  0  0  0  0  0
    8.6154   16.5951   17.1153 C   0  0  0  0  0  0  0  0  0  0  0  0
    9.3508   17.6938   16.6193 C   0  0  0  0  0  0  0  0  0  0  0  0
    7.4215   15.5398   18.9172 N   0  0  0  0  0  0  0  0  0  0  0  0
    7.0794   15.5603   19.8401 H   0  0  0  0  0  0  0  0  0  0  0  0
    7.2597   14.7518   18.3496 H   0  0  0  0  0  0  0  0  0  0  0  0
   11.7030   19.7251   14.6172 C   0  0  0  0  0  0  0  0  0  0  0  0
   11.7432   18.5137   13.6863 C   0  0  0  0  0  0  0  0  0  0  0  0
   10.3716   18.1267   13.1477 C   0  0  0  0  0  0  0  0  0  0  0  0
   12.6436   18.9238   12.5320 C   0  0  0  0  0  0  0  0  0  0  0  0
 10 12  1  0  0  0
 10 14  1  0  0  0
 11 12  1  0  0  0
 11 13  1  0  0  0
  5  6  1  0  0  0
  5  9  1  0  0  0
  5  7  2  0  0  0
 12  9  1  0  0  0
  4  1  1  0  0  0
  4 15  1  0  0  0
  4  6  1  0  0  0
  1 22  1  0  0  0
  1  2  1  0  0  0
 15 16  1  0  0  0
 16 17  2  0  0  0
 16 18  1  0  0  0
 17 19  1  0  0  0
 18 20  2  0  0  0
 19 21  2  0  0  0
 20 21  1  0  0  0
 22 23  1  0  0  0
 36 37  1  0  0  0
 36 23  1  0  0  0
 37 38  1  0  0  0
 37 39  1  0  0  0
 27 28  2  0  0  0
 27 32  1  0  0  0
 27 26  1  0  0  0
 28 29  1  0  0  0
 29 30  2  0  0  0
 30 31  1  0  0  0
 30 33  1  0  0  0
 31 32  2  0  0  0
 13 14  1  0  0  0
 23 26  1  0  0  0
 24 26  2  0  0  0
 25 26  2  0  0  0
  6  8  1  0  0  0
 33 34  1  0  0  0
 33 35  1  0  0  0
  2  3  1  0  0  0
M  END
> <minimizedAffinity>
-9.21985

$$$$
3NU9_478_A_401


 39 41  0  0  0  0  0  0  0  0999 V2000
   11.4205   22.2418   16.5465 C   0  0  0  0  0  0  0  0  0  0  0  0
   10.6778   23.2396   15.8194 O   0  0  0  0  0  0  0  0  0  0  0  0
   11.2863   23.7619   15.2738 H   0  0  0  0  0  0  0  0  0  0  0  0
   12.0705   21.2910   15.5385 C   0  0  0  0  0  0  0  0  0  0  0  0
   14.1418   21.8125   14.3172 C   0  0  0  0  0  0  0  0  0  0  0  0
   13.4828   21.6201   15.4543 N   0  0  0  0  0  0  0  0  0  0  0  0
   13.6375   21.9206   13.2015 O   0  0  0  0  0  0  0  0  0  0  0  0
   13.9853   21.7064   16.2965 H   0  0  0  0  0  0  0  0  0  0  0  0
   15.5846   21.9168   14.5049 O   0  0  0  0  0  0  0  0  0  0  0  0
   17.7963   22.1224   13.7530 C   0  0  0  0  0  0  0  0  0  0  0  0
   16.2259   23.9202   13.3554 C   0  0  0  0  0  0  0  0  0  0  0  0
   16.3332   22.3977   13.3936 C   0  0  0  0  0  0  0  0  0  0  0  0
   17.5803   24.4363   13.8479 C   0  0  0  0  0  0  0  0  0  0  0  0
   18.2347   23.3026   14.4316 O   0  0  0  0  0  0  0  0  0  0  0  0
   11.8966   19.7945   15.8563 C   0  0  0  0  0  0  0  0  0  0  0  0
   10.8734   19.1790   14.9269 C   0  0  0  0  0  0  0  0  0  0  0  0
    9.5122   19.3397   15.1806 C   0  0  0  0  0  0  0  0  0  0  0  0
   11.2917   18.4382   13.8152 C   0  0  0  0  0  0  0  0  0  0  0  0
    8.5605   18.7662   14.3359 C   0  0  0  0  0  0  0  0  0  0  0  0
   10.3516   17.8450   12.9658 C   0  0  0  0  0  0  0  0  0  0  0  0
    8.9897   18.0147   13.2322 C   0  0  0  0  0  0  0  0  0  0  0  0
   12.3972   22.9753   17.4744 C   0  0  0  0  0  0  0  0  0  0  0  0
   12.6299   22.3560   18.7864 N   0  0  0  0  0  0  0  0  0  0  0  0
   14.5026   20.8401   18.3595 O   0  0  0  0  0  0  0  0  0  0  0  0
   14.2048   21.7664   20.5916 O   0  0  0  0  0  0  0  0  0  0  0  0
   14.0839   21.9566   19.1780 S   0  0  0  0  0  0  0  0  0  0  0  0
   14.9704   23.2721   18.7897 C   0  0  0  0  0  0  0  0  0  0  0  0
   15.9031   23.2277   17.7479 C   0  0  0  0  0  0  0  0  0  0  0  0
   16.6650   24.3475   17.3941 C   0  0  0  0  0  0  0  0  0  0  0  0
   16.4896   25.5554   18.0586 C   0  0  0  0  0  0  0  0  0  0  0  0
   15.5802   25.6147   19.1180 C   0  0  0  0  0  0  0  0  0  0  0  0
   14.8238   24.4768   19.4741 C   0  0  0  0  0  0  0  0  0  0  0  0
   17.2383   26.6497   17.7162 N   0  0  0  0  0  0  0  0  0  0  0  0
   17.8757   26.5954   16.9679 H   0  0  0  0  0  0  0  0  0  0  0  0
   17.1393   27.4906   18.2185 H   0  0  0  0  0  0  0  0  0  0  0  0
   11.5976   22.3022   19.8118 C   0  0  0  0  0  0  0  0  0  0  0  0
   10.5010   21.2529   19.6325 C   0  0  0  0  0  0  0  0  0  0  0  0
   10.9479   19.8481   20.0171 C   0  0  0  0  0  0  0  0  0  0  0  0
    9.3701   21.6934   20.5481 C   0  0  0  0  0  0  0  0  0  0  0  0
 10 12  1  0  0  0
 10 14  1  0  0  0
 11 12  1  0  0  0
 11 13  1  0  0  0
  5  6  1  0  0  0
  5  9  1  0  0  0
  5  7  2  0  0  0
 12  9  1  0  0  0
  4  1  1  0  0  0
  4 15  1  0  0  0
  4  6  1  0  0  0
  1 22  1  0  0  0
  1  2  1  0  0  0
 15 16  1  0  0  0
 16 17  2  0  0  0
 16 18  1  0  0  0
 17 19  1  0  0  0
 18 20  2  0  0  0
 19 21  2  0  0  0
 20 21  1  0  0  0
 22 23  1  0  0  0
 36 37  1  0  0  0
 36 23  1  0  0  0
 37 38  1  0  0  0
 37 39  1  0  0  0
 27 28  2  0  0  0
 27 32  1  0  0  0
 27 26  1  0  0  0
 28 29  1  0  0  0
 29 30  2  0  0  0
 30 31  1  0  0  0
 30 33  1  0  0  0
 31 32  2  0  0  0
 13 14  1  0  0  0
 23 26  1  0  0  0
 24 26  2  0  0  0
 25 26  2  0  0  0
  6  8  1  0  0  0
 33 34  1  0  0  0
 33 35  1  0  0  0
  2  3  1  0  0  0
M  END
> <minimizedAffinity>
-9.14120

$$$$
3NU9_478_A_401


 39 41  0  0  0  0  0  0  0  0999 V2000
   12.9047   19.0025   16.3661 C   0  0  0  0  0  0  0  0  0  0  0  0
   12.3878   17.7602   16.8813 O   0  0  0  0  0  0  0  0  0  0  0  0
   11.5232   17.9156   17.2926 H   0  0  0  0  0  0  0  0  0  0  0  0
   11.9569   19.5066   15.2751 C   0  0  0  0  0  0  0  0  0  0  0  0
   13.3179   20.8197   13.7009 C   0  0  0  0  0  0  0  0  0  0  0  0
   12.4991   20.7454   14.7442 N   0  0  0  0  0  0  0  0  0  0  0  0
   13.5905   19.9005   12.9320 O   0  0  0  0  0  0  0  0  0  0  0  0
   12.2424   21.5862   15.1873 H   0  0  0  0  0  0  0  0  0  0  0  0
   13.8798   22.1524   13.5110 O   0  0  0  0  0  0  0  0  0  0  0  0
   15.7086   23.6001   13.7531 C   0  0  0  0  0  0  0  0  0  0  0  0
   15.7618   21.4201   14.8025 C   0  0  0  0  0  0  0  0  0  0  0  0
   14.8261   22.5835   14.4833 C   0  0  0  0  0  0  0  0  0  0  0  0
   17.0819   21.7560   14.1040 C   0  0  0  0  0  0  0  0  0  0  0  0
   16.7777   22.8268   13.2012 O   0  0  0  0  0  0  0  0  0  0  0  0
   11.7014   18.5101   14.1296 C   0  0  0  0  0  0  0  0  0  0  0  0
   10.2687   18.0251   14.1695 C   0  0  0  0  0  0  0  0  0  0  0  0
    9.9928   16.6588   14.1730 C   0  0  0  0  0  0  0  0  0  0  0  0
    9.2163   18.9479   14.1935 C   0  0  0  0  0  0  0  0  0  0  0  0
    8.6744   16.2013   14.1980 C   0  0  0  0  0  0  0  0  0  0  0  0
    7.8887   18.5070   14.2049 C   0  0  0  0  0  0  0  0  0  0  0  0
    7.6267   17.1337   14.2084 C   0  0  0  0  0  0  0  0  0  0  0  0
   13.0959   19.9537   17.5542 C   0  0  0  0  0  0  0  0  0  0  0  0
   11.8693   20.3941   18.2327 N   0  0  0  0  0  0  0  0  0  0  0  0
   10.4711   22.1730   19.1640 O   0  0  0  0  0  0  0  0  0  0  0  0
   11.1171   22.2704   16.8184 O   0  0  0  0  0  0  0  0  0  0  0  0
   11.4697   21.8978   18.1548 S   0  0  0  0  0  0  0  0  0  0  0  0
   12.8478   22.6901   18.5297 C   0  0  0  0  0  0  0  0  0  0  0  0
   13.4420   23.5687   17.6174 C   0  0  0  0  0  0  0  0  0  0  0  0
   14.6176   24.2640   17.9244 C   0  0  0  0  0  0  0  0  0  0  0  0
   15.2146   24.1193   19.1710 C   0  0  0  0  0  0  0  0  0  0  0  0
   14.6504   23.2285   20.0880 C   0  0  0  0  0  0  0  0  0  0  0  0
   13.4702   22.5237   19.7651 C   0  0  0  0  0  0  0  0  0  0  0  0
   16.3674   24.7954   19.4698 N   0  0  0  0  0  0  0  0  0  0  0  0
   16.7552   25.4204   18.8154 H   0  0  0  0  0  0  0  0  0  0  0  0
   16.8084   24.6565   20.3390 H   0  0  0  0  0  0  0  0  0  0  0  0
   10.9077   19.4503   18.7845 C   0  0  0  0  0  0  0  0  0  0  0  0
    9.5471   19.3680   18.0933 C   0  0  0  0  0  0  0  0  0  0  0  0
    9.2093   17.9663   17.6013 C   0  0  0  0  0  0  0  0  0  0  0  0
    8.5356   19.7932   19.1457 C   0  0  0  0  0  0  0  0  0  0  0  0
 10 12  1  0  0  0
 10 14  1  0  0  0
 11 12  1  0  0  0
 11 13  1  0  0  0
  5  6  1  0  0  0
  5  9  1  0  0  0
  5  7  2  0  0  0
 12  9  1  0  0  0
  4  1  1  0  0  0
  4 15  1  0  0  0
  4  6  1  0  0  0
  1 22  1  0  0  0
  1  2  1  0  0  0
 15 16  1  0  0  0
 16 17  2  0  0  0
 16 18  1  0  0  0
 17 19  1  0  0  0
 18 20  2  0  0  0
 19 21  2  0  0  0
 20 21  1  0  0  0
 22 23  1  0  0  0
 36 37  1  0  0  0
 36 23  1  0  0  0
 37 38  1  0  0  0
 37 39  1  0  0  0
 27 28  2  0  0  0
 27 32  1  0  0  0
 27 26  1  0  0  0
 28 29  1  0  0  0
 29 30  2  0  0  0
 30 31  1  0  0  0
 30 33  1  0  0  0
 31 32  2  0  0  0
 13 14  1  0  0  0
 23 26  1  0  0  0
 24 26  2  0  0  0
 25 26  2  0  0  0
  6  8  1  0  0  0
 33 34  1  0  0  0
 33 35  1  0  0  0
  2  3  1  0  0  0
M  END
> <minimizedAffinity>
-8.98309

$$$$
3NU9_478_A_401


 39 41  0  0  0  0  0  0  0  0999 V2000
   11.8411   21.1375   16.1020 C   0  0  0  0  0  0  0  0  0  0  0  0
   10.7834   21.9007   15.4898 O   0  0  0  0  0  0  0  0  0  0  0  0
   11.1556   22.4768   14.8039 H   0  0  0  0  0  0  0  0  0  0  0  0
   12.4709   20.2392   15.0348 C   0  0  0  0  0  0  0  0  0  0  0  0
   11.3857   18.0753   15.4754 C   0  0  0  0  0  0  0  0  0  0  0  0
   11.5348   19.1691   14.7367 N   0  0  0  0  0  0  0  0  0  0  0  0
   11.8678   17.8875   16.5902 O   0  0  0  0  0  0  0  0  0  0  0  0
   10.9733   19.2607   13.9332 H   0  0  0  0  0  0  0  0  0  0  0  0
   10.5405   17.0697   14.8411 O   0  0  0  0  0  0  0  0  0  0  0  0
    8.7146   16.4437   16.1726 C   0  0  0  0  0  0  0  0  0  0  0  0
    8.4530   16.5775   13.7705 C   0  0  0  0  0  0  0  0  0  0  0  0
    9.1347   17.2657   14.9506 C   0  0  0  0  0  0  0  0  0  0  0  0
    7.8135   15.3134   14.3505 C   0  0  0  0  0  0  0  0  0  0  0  0
    8.3931   15.1512   15.6513 O   0  0  0  0  0  0  0  0  0  0  0  0
   12.8746   20.9624   13.7370 C   0  0  0  0  0  0  0  0  0  0  0  0
   14.3253   21.3870   13.8055 C   0  0  0  0  0  0  0  0  0  0  0  0
   15.2676   20.5611   14.4161 C   0  0  0  0  0  0  0  0  0  0  0  0
   14.7229   22.6152   13.2639 C   0  0  0  0  0  0  0  0  0  0  0  0
   16.6061   20.9488   14.4947 C   0  0  0  0  0  0  0  0  0  0  0  0
   16.0578   23.0257   13.3460 C   0  0  0  0  0  0  0  0  0  0  0  0
   16.9921   22.1871   13.9610 C   0  0  0  0  0  0  0  0  0  0  0  0
   12.8022   22.1292   16.7696 C   0  0  0  0  0  0  0  0  0  0  0  0
   12.8607   22.0835   18.2370 N   0  0  0  0  0  0  0  0  0  0  0  0
   14.8406   20.6495   18.3394 O   0  0  0  0  0  0  0  0  0  0  0  0
   14.1064   21.8118   20.3491 O   0  0  0  0  0  0  0  0  0  0  0  0
   14.2352   21.8259   18.9235 S   0  0  0  0  0  0  0  0  0  0  0  0
   15.1221   23.1400   18.5314 C   0  0  0  0  0  0  0  0  0  0  0  0
   14.9384   24.3558   19.1988 C   0  0  0  0  0  0  0  0  0  0  0  0
   15.6957   25.4901   18.8834 C   0  0  0  0  0  0  0  0  0  0  0  0
   16.6826   25.4271   17.9070 C   0  0  0  0  0  0  0  0  0  0  0  0
   16.8660   24.2287   17.2118 C   0  0  0  0  0  0  0  0  0  0  0  0
   16.0898   23.0929   17.5301 C   0  0  0  0  0  0  0  0  0  0  0  0
   17.4202   26.5378   17.5946 N   0  0  0  0  0  0  0  0  0  0  0  0
   17.2818   27.3763   18.0916 H   0  0  0  0  0  0  0  0  0  0  0  0
   18.0888   26.4979   16.8731 H   0  0  0  0  0  0  0  0  0  0  0  0
   11.7353   22.4832   19.0700 C   0  0  0  0  0  0  0  0  0  0  0  0
   10.6179   21.4577   19.2585 C   0  0  0  0  0  0  0  0  0  0  0  0
   11.1207   20.1093   19.7585 C   0  0  0  0  0  0  0  0  0  0  0  0
    9.6848   22.0660   20.2932 C   0  0  0  0  0  0  0  0  0  0  0  0
 10 12  1  0  0  0
 10 14  1  0  0  0
 11 12  1  0  0  0
 11 13  1  0  0  0
  5  6  1  0  0  0
  5  9  1  0  0  0
  5  7  2  0  0  0
 12  9  1  0  0  0
  4  1  1  0  0  0
  4 15  1  0  0  0
  4  6  1  0  0  0
  1 22  1  0  0  0
  1  2  1  0  0  0
 15 16  1  0  0  0
 16 17  2  0  0  0
 16 18  1  0  0  0
 17 19  1  0  0  0
 18 20  2  0  0  0
 19 21  2  0  0  0
 20 21  1  0  0  0
 22 23  1  0  0  0
 36 37  1  0  0  0
 36 23  1  0  0  0
 37 38  1  0  0  0
 37 39  1  0  0  0
 27 28  2  0  0  0
 27 32  1  0  0  0
 27 26  1  0  0  0
 28 29  1  0  0  0
 29 30  2  0  0  0
 30 31  1  0  0  0
 30 33  1  0  0  0
 31 32  2  0  0  0
 13 14  1  0  0  0
 23 26  1  0  0  0
 24 26  2  0  0  0
 25 26  2  0  0  0
  6  8  1  0  0  0
 33 34  1  0  0  0
 33 35  1  0  0  0
  2  3  1  0  0  0
M  END
> <minimizedAffinity>
-8.97653

$$$$
3NU9_478_A_401


 39 41  0  0  0  0  0  0  0  0999 V2000
   15.1793   21.4279   16.4340 C   0  0  0  0  0  0  0  0  0  0  0  0
   15.8373   20.6782   15.3943 O   0  0  0  0  0  0  0  0  0  0  0  0
   15.7777   21.1651   14.5574 H   0  0  0  0  0  0  0  0  0  0  0  0
   15.9192   22.7551   16.6171 C   0  0  0  0  0  0  0  0  0  0  0  0
   17.8205   23.4749   15.2309 C   0  0  0  0  0  0  0  0  0  0  0  0
   16.5537   23.0952   15.3553 N   0  0  0  0  0  0  0  0  0  0  0  0
   18.6780   23.4225   16.1098 O   0  0  0  0  0  0  0  0  0  0  0  0
   16.0082   23.0407   14.5376 H   0  0  0  0  0  0  0  0  0  0  0  0
   18.1413   23.9611   13.8935 O   0  0  0  0  0  0  0  0  0  0  0  0
   17.0766   24.6794   11.9315 C   0  0  0  0  0  0  0  0  0  0  0  0
   18.1884   26.2951   13.3492 C   0  0  0  0  0  0  0  0  0  0  0  0
   17.3383   25.0279   13.3997 C   0  0  0  0  0  0  0  0  0  0  0  0
   18.5027   26.5157   11.8673 C   0  0  0  0  0  0  0  0  0  0  0  0
   18.1525   25.2894   11.2132 O   0  0  0  0  0  0  0  0  0  0  0  0
   15.0402   23.9247   17.0965 C   0  0  0  0  0  0  0  0  0  0  0  0
   15.6250   24.5376   18.3502 C   0  0  0  0  0  0  0  0  0  0  0  0
   15.1661   24.1373   19.6040 C   0  0  0  0  0  0  0  0  0  0  0  0
   16.6221   25.5154   18.2534 C   0  0  0  0  0  0  0  0  0  0  0  0
   15.6909   24.7048   20.7661 C   0  0  0  0  0  0  0  0  0  0  0  0
   17.1497   26.1047   19.4074 C   0  0  0  0  0  0  0  0  0  0  0  0
   16.6801   25.6933   20.6583 C   0  0  0  0  0  0  0  0  0  0  0  0
   13.6997   21.5539   16.0495 C   0  0  0  0  0  0  0  0  0  0  0  0
   12.9372   20.2990   15.9961 N   0  0  0  0  0  0  0  0  0  0  0  0
   14.2334   19.2229   17.7706 O   0  0  0  0  0  0  0  0  0  0  0  0
   12.1609   18.1911   17.0162 O   0  0  0  0  0  0  0  0  0  0  0  0
   12.8894   19.3977   17.2659 S   0  0  0  0  0  0  0  0  0  0  0  0
   12.0212   20.2737   18.3364 C   0  0  0  0  0  0  0  0  0  0  0  0
   10.6339   20.1202   18.4327 C   0  0  0  0  0  0  0  0  0  0  0  0
    9.8742   20.8549   19.3507 C   0  0  0  0  0  0  0  0  0  0  0  0
   10.4917   21.7448   20.2212 C   0  0  0  0  0  0  0  0  0  0  0  0
   11.8734   21.9307   20.1253 C   0  0  0  0  0  0  0  0  0  0  0  0
   12.6297   21.1925   19.1889 C   0  0  0  0  0  0  0  0  0  0  0  0
    9.7482   22.4675   21.1159 N   0  0  0  0  0  0  0  0  0  0  0  0
    8.7754   22.3275   21.1740 H   0  0  0  0  0  0  0  0  0  0  0  0
   10.1865   23.1270   21.7009 H   0  0  0  0  0  0  0  0  0  0  0  0
   12.0538   19.9760   14.8847 C   0  0  0  0  0  0  0  0  0  0  0  0
   12.6064   19.0346   13.8150 C   0  0  0  0  0  0  0  0  0  0  0  0
   11.5171   18.3105   13.0341 C   0  0  0  0  0  0  0  0  0  0  0  0
   13.4019   19.9221   12.8711 C   0  0  0  0  0  0  0  0  0  0  0  0
 10 12  1  0  0  0
 10 14  1  0  0  0
 11 12  1  0  0  0
 11 13  1  0  0  0
  5  6  1  0  0  0
  5  9  1  0  0  0
  5  7  2  0  0  0
 12  9  1  0  0  0
  4  1  1  0  0  0
  4 15  1  0  0  0
  4  6  1  0  0  0
  1 22  1  0  0  0
  1  2  1  0  0  0
 15 16  1  0  0  0
 16 17  2  0  0  0
 16 18  1  0  0  0
 17 19  1  0  0  0
 18 20  2  0  0  0
 19 21  2  0  0  0
 20 21  1  0  0  0
 22 23  1  0  0  0
 36 37  1  0  0  0
 36 23  1  0  0  0
 37 38  1  0  0  0
 37 39  1  0  0  0
 27 28  2  0  0  0
 27 32  1  0  0  0
 27 26  1  0  0  0
 28 29  1  0  0  0
 29 30  2  0  0  0
 30 31  1  0  0  0
 30 33  1  0  0  0
 31 32  2  0  0  0
 13 14  1  0  0  0
 23 26  1  0  0  0
 24 26  2  0  0  0
 25 26  2  0  0  0
  6  8  1  0  0  0
 33 34  1  0  0  0
 33 35  1  0  0  0
  2  3  1  0  0  0
M  END
> <minimizedAffinity>
-8.93772

$$$$
3NU9_478_A_401


 39 41  0  0  0  0  0  0  0  0999 V2000
   13.7695   20.3584   15.7424 C   0  0  0  0  0  0  0  0  0  0  0  0
   14.0528   19.2905   14.8176 O   0  0  0  0  0  0  0  0  0  0  0  0
   13.8226   19.5720   13.9183 H   0  0  0  0  0  0  0  0  0  0  0  0
   14.6582   21.5536   15.3898 C   0  0  0  0  0  0  0  0  0  0  0  0
   14.7824   22.9773   17.3928 C   0  0  0  0  0  0  0  0  0  0  0  0
   15.2838   22.0264   16.6126 N   0  0  0  0  0  0  0  0  0  0  0  0
   13.6564   23.4620   17.3050 O   0  0  0  0  0  0  0  0  0  0  0  0
   16.1367   21.6143   16.8811 H   0  0  0  0  0  0  0  0  0  0  0  0
   15.7090   23.4084   18.4336 O   0  0  0  0  0  0  0  0  0  0  0  0
   17.4968   24.9233   18.5230 C   0  0  0  0  0  0  0  0  0  0  0  0
   15.5311   25.3117   19.8800 C   0  0  0  0  0  0  0  0  0  0  0  0
   15.9698   24.8060   18.5079 C   0  0  0  0  0  0  0  0  0  0  0  0
   16.8265   25.5397   20.6632 C   0  0  0  0  0  0  0  0  0  0  0  0
   17.8531   24.8845   19.9076 O   0  0  0  0  0  0  0  0  0  0  0  0
   15.7328   21.2684   14.3248 C   0  0  0  0  0  0  0  0  0  0  0  0
   16.1420   22.5535   13.6388 C   0  0  0  0  0  0  0  0  0  0  0  0
   15.1835   23.3463   13.0098 C   0  0  0  0  0  0  0  0  0  0  0  0
   17.4862   22.9444   13.6260 C   0  0  0  0  0  0  0  0  0  0  0  0
   15.5523   24.5275   12.3643 C   0  0  0  0  0  0  0  0  0  0  0  0
   17.8755   24.1182   12.9720 C   0  0  0  0  0  0  0  0  0  0  0  0
   16.9033   24.9038   12.3455 C   0  0  0  0  0  0  0  0  0  0  0  0
   12.2607   20.6297   15.6896 C   0  0  0  0  0  0  0  0  0  0  0  0
   11.3902   19.4464   15.7235 N   0  0  0  0  0  0  0  0  0  0  0  0
   12.6474   18.0537   17.2941 O   0  0  0  0  0  0  0  0  0  0  0  0
   10.2689   17.6406   16.9759 O   0  0  0  0  0  0  0  0  0  0  0  0
   11.3335   18.5962   17.0276 S   0  0  0  0  0  0  0  0  0  0  0  0
   10.9529   19.6813   18.1873 C   0  0  0  0  0  0  0  0  0  0  0  0
    9.6203   19.9113   18.5462 C   0  0  0  0  0  0  0  0  0  0  0  0
    9.2752   20.8301   19.5444 C   0  0  0  0  0  0  0  0  0  0  0  0
   10.2631   21.5236   20.2333 C   0  0  0  0  0  0  0  0  0  0  0  0
   11.5990   21.3262   19.8739 C   0  0  0  0  0  0  0  0  0  0  0  0
   11.9364   20.4048   18.8584 C   0  0  0  0  0  0  0  0  0  0  0  0
    9.9256   22.4263   21.2063 N   0  0  0  0  0  0  0  0  0  0  0  0
    8.9809   22.5564   21.4507 H   0  0  0  0  0  0  0  0  0  0  0  0
   10.6278   22.9450   21.6613 H   0  0  0  0  0  0  0  0  0  0  0  0
   10.4229   19.1660   14.6720 C   0  0  0  0  0  0  0  0  0  0  0  0
   10.5948   17.8534   13.9084 C   0  0  0  0  0  0  0  0  0  0  0  0
    9.2716   17.2356   13.4741 C   0  0  0  0  0  0  0  0  0  0  0  0
   11.4160   18.2084   12.6792 C   0  0  0  0  0  0  0  0  0  0  0  0
 10 12  1  0  0  0
 10 14  1  0  0  0
 11 12  1  0  0  0
 11 13  1  0  0  0
  5  6  1  0  0  0
  5  9  1  0  0  0
  5  7  2  0  0  0
 12  9  1  0  0  0
  4  1  1  0  0  0
  4 15  1  0  0  0
  4  6  1  0  0  0
  1 22  1  0  0  0
  1  2  1  0  0  0
 15 16  1  0  0  0
 16 17  2  0  0  0
 16 18  1  0  0  0
 17 19  1  0  0  0
 18 20  2  0  0  0
 19 21  2  0  0  0
 20 21  1  0  0  0
 22 23  1  0  0  0
 36 37  1  0  0  0
 36 23  1  0  0  0
 37 38  1  0  0  0
 37 39  1  0  0  0
 27 28  2  0  0  0
 27 32  1  0  0  0
 27 26  1  0  0  0
 28 29  1  0  0  0
 29 30  2  0  0  0
 30 31  1  0  0  0
 30 33  1  0  0  0
 31 32  2  0  0  0
 13 14  1  0  0  0
 23 26  1  0  0  0
 24 26  2  0  0  0
 25 26  2  0  0  0
  6  8  1  0  0  0
 33 34  1  0  0  0
 33 35  1  0  0  0
  2  3  1  0  0  0
M  END
> <minimizedAffinity>
-8.90474

$$$$
3NU9_478_A_401


 39 41  0  0  0  0  0  0  0  0999 V2000
   10.4721   19.2523   15.1655 C   0  0  0  0  0  0  0  0  0  0  0  0
   11.0526   18.6846   13.9752 O   0  0  0  0  0  0  0  0  0  0  0  0
   11.3924   17.7977   14.1726 H   0  0  0  0  0  0  0  0  0  0  0  0
    9.2838   18.3844   15.5867 C   0  0  0  0  0  0  0  0  0  0  0  0
    8.4971   18.1490   17.9062 C   0  0  0  0  0  0  0  0  0  0  0  0
    8.7735   18.8993   16.8455 N   0  0  0  0  0  0  0  0  0  0  0  0
    8.7935   16.9646   18.0479 O   0  0  0  0  0  0  0  0  0  0  0  0
    8.6222   19.8695   16.9174 H   0  0  0  0  0  0  0  0  0  0  0  0
    7.8005   18.8820   18.9574 O   0  0  0  0  0  0  0  0  0  0  0  0
    5.8669   17.5572   18.8845 C   0  0  0  0  0  0  0  0  0  0  0  0
    6.2130   19.0670   20.7439 C   0  0  0  0  0  0  0  0  0  0  0  0
    6.9540   18.1157   19.8076 C   0  0  0  0  0  0  0  0  0  0  0  0
    4.7790   19.1274   20.2114 C   0  0  0  0  0  0  0  0  0  0  0  0
    4.8290   18.5411   18.9046 O   0  0  0  0  0  0  0  0  0  0  0  0
    8.1463   18.2998   14.5526 C   0  0  0  0  0  0  0  0  0  0  0  0
    7.5932   16.8924   14.4989 C   0  0  0  0  0  0  0  0  0  0  0  0
    6.5326   16.5259   15.3257 C   0  0  0  0  0  0  0  0  0  0  0  0
    8.1519   15.9521   13.6252 C   0  0  0  0  0  0  0  0  0  0  0  0
    6.0228   15.2270   15.2921 C   0  0  0  0  0  0  0  0  0  0  0  0
    7.6624   14.6421   13.5882 C   0  0  0  0  0  0  0  0  0  0  0  0
    6.5980   14.2886   14.4230 C   0  0  0  0  0  0  0  0  0  0  0  0
   11.5881   19.3810   16.2099 C   0  0  0  0  0  0  0  0  0  0  0  0
   12.2672   20.6825   16.2722 N   0  0  0  0  0  0  0  0  0  0  0  0
   10.4998   21.3455   17.8290 O   0  0  0  0  0  0  0  0  0  0  0  0
   11.1397   22.8642   16.0365 O   0  0  0  0  0  0  0  0  0  0  0  0
   11.5478   21.8688   16.9808 S   0  0  0  0  0  0  0  0  0  0  0  0
   12.7128   22.5346   17.9118 C   0  0  0  0  0  0  0  0  0  0  0  0
   13.4416   23.6430   17.4670 C   0  0  0  0  0  0  0  0  0  0  0  0
   14.4370   24.2333   18.2546 C   0  0  0  0  0  0  0  0  0  0  0  0
   14.7086   23.7446   19.5269 C   0  0  0  0  0  0  0  0  0  0  0  0
   14.0086   22.6235   19.9807 C   0  0  0  0  0  0  0  0  0  0  0  0
   13.0135   22.0287   19.1746 C   0  0  0  0  0  0  0  0  0  0  0  0
   15.6858   24.3187   20.2956 N   0  0  0  0  0  0  0  0  0  0  0  0
   16.1719   25.1083   19.9649 H   0  0  0  0  0  0  0  0  0  0  0  0
   15.9022   23.9417   21.1789 H   0  0  0  0  0  0  0  0  0  0  0  0
   13.6637   20.8465   15.8941 C   0  0  0  0  0  0  0  0  0  0  0  0
   14.0690   20.3350   14.5121 C   0  0  0  0  0  0  0  0  0  0  0  0
   13.5819   21.2268   13.3770 C   0  0  0  0  0  0  0  0  0  0  0  0
   15.5891   20.3123   14.5222 C   0  0  0  0  0  0  0  0  0  0  0  0
 10 12  1  0  0  0
 10 14  1  0  0  0
 11 12  1  0  0  0
 11 13  1  0  0  0
  5  6  1  0  0  0
  5  9  1  0  0  0
  5  7  2  0  0  0
 12  9  1  0  0  0
  4  1  1  0  0  0
  4 15  1  0  0  0
  4  6  1  0  0  0
  1 22  1  0  0  0
  1  2  1  0  0  0
 15 16  1  0  0  0
 16 17  2  0  0  0
 16 18  1  0  0  0
 17 19  1  0  0  0
 18 20  2  0  0  0
 19 21  2  0  0  0
 20 21  1  0  0  0
 22 23  1  0  0  0
 36 37  1  0  0  0
 36 23  1  0  0  0
 37 38  1  0  0  0
 37 39  1  0  0  0
 27 28  2  0  0  0
 27 32  1  0  0  0
 27 26  1  0  0  0
 28 29  1  0  0  0
 29 30  2  0  0  0
 30 31  1  0  0  0
 30 33  1  0  0  0
 31 32  2  0  0  0
 13 14  1  0  0  0
 23 26  1  0  0  0
 24 26  2  0  0  0
 25 26  2  0  0  0
  6  8  1  0  0  0
 33 34  1  0  0  0
 33 35  1  0  0  0
  2  3  1  0  0  0
M  END
> <minimizedAffinity>
-8.90211

$$$$
3NU9_478_A_401


 39 41  0  0  0  0  0  0  0  0999 V2000
   11.5032   19.4009   15.6638 C   0  0  0  0  0  0  0  0  0  0  0  0
   10.8841   20.4761   14.9313 O   0  0  0  0  0  0  0  0  0  0  0  0
   11.5705   21.0241   14.5194 H   0  0  0  0  0  0  0  0  0  0  0  0
   12.2685   18.5183   14.6748 C   0  0  0  0  0  0  0  0  0  0  0  0
   10.2866   17.3781   13.7658 C   0  0  0  0  0  0  0  0  0  0  0  0
   11.4564   17.3470   14.3943 N   0  0  0  0  0  0  0  0  0  0  0  0
    9.8095   18.3470   13.1790 O   0  0  0  0  0  0  0  0  0  0  0  0
   11.7958   16.4713   14.6897 H   0  0  0  0  0  0  0  0  0  0  0  0
    9.5842   16.1003   13.8047 O   0  0  0  0  0  0  0  0  0  0  0  0
    7.6894   16.3050   15.1711 C   0  0  0  0  0  0  0  0  0  0  0  0
    7.6458   14.7893   13.2850 C   0  0  0  0  0  0  0  0  0  0  0  0
    8.1641   16.1571   13.7225 C   0  0  0  0  0  0  0  0  0  0  0  0
    7.0444   14.1600   14.5442 C   0  0  0  0  0  0  0  0  0  0  0  0
    7.5092   14.9643   15.6357 O   0  0  0  0  0  0  0  0  0  0  0  0
   12.6626   19.2133   13.3588 C   0  0  0  0  0  0  0  0  0  0  0  0
   13.8071   20.1737   13.5979 C   0  0  0  0  0  0  0  0  0  0  0  0
   14.9468   19.7478   14.2782 C   0  0  0  0  0  0  0  0  0  0  0  0
   13.7200   21.4953   13.1447 C   0  0  0  0  0  0  0  0  0  0  0  0
   16.0031   20.6291   14.5140 C   0  0  0  0  0  0  0  0  0  0  0  0
   14.7635   22.3958   13.3843 C   0  0  0  0  0  0  0  0  0  0  0  0
   15.9007   21.9548   14.0677 C   0  0  0  0  0  0  0  0  0  0  0  0
   12.3563   20.0270   16.7742 C   0  0  0  0  0  0  0  0  0  0  0  0
   11.6188   20.6768   17.8664 N   0  0  0  0  0  0  0  0  0  0  0  0
   10.6371   22.6334   18.9596 O   0  0  0  0  0  0  0  0  0  0  0  0
   11.0815   22.7037   16.5666 O   0  0  0  0  0  0  0  0  0  0  0  0
   11.4803   22.2284   17.8566 S   0  0  0  0  0  0  0  0  0  0  0  0
   13.0023   22.7599   18.1181 C   0  0  0  0  0  0  0  0  0  0  0  0
   13.7942   23.2197   17.0603 C   0  0  0  0  0  0  0  0  0  0  0  0
   15.0972   23.6881   17.2661 C   0  0  0  0  0  0  0  0  0  0  0  0
   15.6324   23.7365   18.5477 C   0  0  0  0  0  0  0  0  0  0  0  0
   14.8669   23.2598   19.6152 C   0  0  0  0  0  0  0  0  0  0  0  0
   13.5572   22.7795   19.3959 C   0  0  0  0  0  0  0  0  0  0  0  0
   16.9089   24.1899   18.7488 N   0  0  0  0  0  0  0  0  0  0  0  0
   17.4383   24.5234   17.9887 H   0  0  0  0  0  0  0  0  0  0  0  0
   17.2972   24.1824   19.6535 H   0  0  0  0  0  0  0  0  0  0  0  0
   10.8338   19.9181   18.8299 C   0  0  0  0  0  0  0  0  0  0  0  0
    9.3749   19.6427   18.4671 C   0  0  0  0  0  0  0  0  0  0  0  0
    9.1008   18.1758   18.1604 C   0  0  0  0  0  0  0  0  0  0  0  0
    8.5713   20.0642   19.6869 C   0  0  0  0  0  0  0  0  0  0  0  0
 10 12  1  0  0  0
 10 14  1  0  0  0
 11 12  1  0  0  0
 11 13  1  0  0  0
  5  6  1  0  0  0
  5  9  1  0  0  0
  5  7  2  0  0  0
 12  9  1  0  0  0
  4  1  1  0  0  0
  4 15  1  0  0  0
  4  6  1  0  0  0
  1 22  1  0  0  0
  1  2  1  0  0  0
 15 16  1  0  0  0
 16 17  2  0  0  0
 16 18  1  0  0  0
 17 19  1  0  0  0
 18 20  2  0  0  0
 19 21  2  0  0  0
 20 21  1  0  0  0
 22 23  1  0  0  0
 36 37  1  0  0  0
 36 23  1  0  0  0
 37 38  1  0  0  0
 37 39  1  0  0  0
 27 28  2  0  0  0
 27 32  1  0  0  0
 27 26  1  0  0  0
 28 29  1  0  0  0
 29 30  2  0  0  0
 30 31  1  0  0  0
 30 33  1  0  0  0
 31 32  2  0  0  0
 13 14  1  0  0  0
 23 26  1  0  0  0
 24 26  2  0  0  0
 25 26  2  0  0  0
  6  8  1  0  0  0
 33 34  1  0  0  0
 33 35  1  0  0  0
  2  3  1  0  0  0
M  END
> <minimizedAffinity>
-8.90033

$$$$
