5TY9_7QV_A_302


 18 19  0  0  0  0  0  0  0  0999 V2000
   -4.4089    1.5482   14.5206 C   0  0  0  0  0  0  0  0  0  0  0  0
   -4.9998    1.1285   15.6968 C   0  0  0  0  0  0  0  0  0  0  0  0
   -6.3549    3.0820   15.6749 C   0  0  0  0  0  0  0  0  0  0  0  0
   -4.7656    2.7245   13.9080 C   0  0  0  0  0  0  0  0  0  0  0  0
   -5.9903    1.9029   16.2747 C   0  0  0  0  0  0  0  0  0  0  0  0
   -5.7496    3.5057   14.5163 C   0  0  0  0  0  0  0  0  0  0  0  0
   -4.6085    2.5073   11.4191 C   0  0  0  0  0  0  0  0  0  0  0  0
   -2.5830    1.7536   11.5546 C   0  0  0  0  0  0  0  0  0  0  0  0
   -4.0237    3.1230   12.6524 C   0  0  0  0  0  0  0  0  0  0  0  0
   -3.6760    1.7467   10.8185 N   0  0  0  0  0  0  0  0  0  0  0  0
   -5.7788    2.6650   11.0668 O   0  0  0  0  0  0  0  0  0  0  0  0
   -1.5311    1.1901   11.4095 O   0  0  0  0  0  0  0  0  0  0  0  0
   -2.6813    2.6269   12.5918 O   0  0  0  0  0  0  0  0  0  0  0  0
   -3.7911    1.2638    9.9684 H   0  0  0  0  0  0  0  0  0  0  0  0
   -6.3322    2.4610   18.5690 C   0  0  0  0  0  0  0  0  0  0  0  0
   -6.6764    1.5831   17.4583 O   0  0  0  0  0  0  0  0  0  0  0  0
   -6.0683    5.8247   14.8919 C   0  0  0  0  0  0  0  0  0  0  0  0
   -6.0688    4.7305   13.9259 O   0  0  0  0  0  0  0  0  0  0  0  0
 15 16  1  0  0  0
 16  5  1  0  0  0
 11  7  2  0  0  0
  5  2  2  0  0  0
  5  3  1  0  0  0
  2  1  1  0  0  0
  3  6  2  0  0  0
  1  4  2  0  0  0
  7  9  1  0  0  0
  7 10  1  0  0  0
  6  4  1  0  0  0
  6 18  1  0  0  0
  4  9  1  0  0  0
 18 17  1  0  0  0
  9 13  1  0  0  0
 10  8  1  0  0  0
  8 13  1  0  0  0
  8 12  2  0  0  0
 10 14  1  0  0  0
M  END
> <minimizedAffinity>
-7.01078

$$$$
5TY9_7QV_A_302


 18 19  0  0  0  0  0  0  0  0999 V2000
   -4.6626    2.0572   13.5381 C   0  0  0  0  0  0  0  0  0  0  0  0
   -4.5157    2.1499   12.1674 C   0  0  0  0  0  0  0  0  0  0  0  0
   -4.4456    4.5180   12.3679 C   0  0  0  0  0  0  0  0  0  0  0  0
   -4.7094    3.1709   14.3405 C   0  0  0  0  0  0  0  0  0  0  0  0
   -4.3979    3.3965   11.5785 C   0  0  0  0  0  0  0  0  0  0  0  0
   -4.6130    4.4217   13.7284 C   0  0  0  0  0  0  0  0  0  0  0  0
   -4.3813    1.6605   16.3096 C   0  0  0  0  0  0  0  0  0  0  0  0
   -6.5127    1.5913   16.6852 C   0  0  0  0  0  0  0  0  0  0  0  0
   -4.9259    2.9676   15.8229 C   0  0  0  0  0  0  0  0  0  0  0  0
   -5.3821    0.9311   16.8343 N   0  0  0  0  0  0  0  0  0  0  0  0
   -3.2010    1.3265   16.1913 O   0  0  0  0  0  0  0  0  0  0  0  0
   -7.6412    1.2984   16.9780 O   0  0  0  0  0  0  0  0  0  0  0  0
   -6.3036    2.8415   16.1942 O   0  0  0  0  0  0  0  0  0  0  0  0
   -5.2857    0.0487   17.2601 H   0  0  0  0  0  0  0  0  0  0  0  0
   -3.6178    4.9150    9.9119 C   0  0  0  0  0  0  0  0  0  0  0  0
   -4.2315    3.6259   10.2025 O   0  0  0  0  0  0  0  0  0  0  0  0
   -3.5536    6.4234   14.4292 C   0  0  0  0  0  0  0  0  0  0  0  0
   -4.7216    5.5549   14.5375 O   0  0  0  0  0  0  0  0  0  0  0  0
 15 16  1  0  0  0
 16  5  1  0  0  0
 11  7  2  0  0  0
  5  2  2  0  0  0
  5  3  1  0  0  0
  2  1  1  0  0  0
  3  6  2  0  0  0
  1  4  2  0  0  0
  7  9  1  0  0  0
  7 10  1  0  0  0
  6  4  1  0  0  0
  6 18  1  0  0  0
  4  9  1  0  0  0
 18 17  1  0  0  0
  9 13  1  0  0  0
 10  8  1  0  0  0
  8 13  1  0  0  0
  8 12  2  0  0  0
 10 14  1  0  0  0
M  END
> <minimizedAffinity>
-6.67404

$$$$
5TY9_7QV_A_302


 18 19  0  0  0  0  0  0  0  0999 V2000
   -3.8302    3.2086   13.5854 C   0  0  0  0  0  0  0  0  0  0  0  0
   -3.8970    2.8789   14.9255 C   0  0  0  0  0  0  0  0  0  0  0  0
   -4.3153    0.6194   14.3151 C   0  0  0  0  0  0  0  0  0  0  0  0
   -4.0065    2.2714   12.5972 C   0  0  0  0  0  0  0  0  0  0  0  0
   -4.1347    1.5660   15.2921 C   0  0  0  0  0  0  0  0  0  0  0  0
   -4.2689    0.9559   12.9836 C   0  0  0  0  0  0  0  0  0  0  0  0
   -2.7844    3.6117   10.8719 C   0  0  0  0  0  0  0  0  0  0  0  0
   -4.5290    4.8416   10.5078 C   0  0  0  0  0  0  0  0  0  0  0  0
   -3.9676    2.7405   11.1605 C   0  0  0  0  0  0  0  0  0  0  0  0
   -3.2124    4.8179   10.4588 N   0  0  0  0  0  0  0  0  0  0  0  0
   -1.6170    3.2545   11.0397 O   0  0  0  0  0  0  0  0  0  0  0  0
   -5.3115    5.7198   10.2597 O   0  0  0  0  0  0  0  0  0  0  0  0
   -5.0426    3.6198   10.8099 O   0  0  0  0  0  0  0  0  0  0  0  0
   -2.6364    5.5613   10.1676 H   0  0  0  0  0  0  0  0  0  0  0  0
   -5.4172    1.5448   17.3037 C   0  0  0  0  0  0  0  0  0  0  0  0
   -4.2130    1.0996   16.6150 O   0  0  0  0  0  0  0  0  0  0  0  0
   -3.3556   -0.8496   11.7482 C   0  0  0  0  0  0  0  0  0  0  0  0
   -4.5082    0.0155   11.9792 O   0  0  0  0  0  0  0  0  0  0  0  0
 15 16  1  0  0  0
 16  5  1  0  0  0
 11  7  2  0  0  0
  5  2  2  0  0  0
  5  3  1  0  0  0
  2  1  1  0  0  0
  3  6  2  0  0  0
  1  4  2  0  0  0
  7  9  1  0  0  0
  7 10  1  0  0  0
  6  4  1  0  0  0
  6 18  1  0  0  0
  4  9  1  0  0  0
 18 17  1  0  0  0
  9 13  1  0  0  0
 10  8  1  0  0  0
  8 13  1  0  0  0
  8 12  2  0  0  0
 10 14  1  0  0  0
M  END
> <minimizedAffinity>
-6.58541

$$$$
5TY9_7QV_A_302


 18 19  0  0  0  0  0  0  0  0999 V2000
   -3.5341    3.7484   15.2929 C   0  0  0  0  0  0  0  0  0  0  0  0
   -2.3921    4.3346   14.7821 C   0  0  0  0  0  0  0  0  0  0  0  0
   -3.3188    4.1616   12.5995 C   0  0  0  0  0  0  0  0  0  0  0  0
   -4.5734    3.3571   14.4848 C   0  0  0  0  0  0  0  0  0  0  0  0
   -2.2891    4.5500   13.4192 C   0  0  0  0  0  0  0  0  0  0  0  0
   -4.4438    3.5598   13.1097 C   0  0  0  0  0  0  0  0  0  0  0  0
   -6.3507    3.4880   16.2428 C   0  0  0  0  0  0  0  0  0  0  0  0
   -5.6653    1.6475   17.1550 C   0  0  0  0  0  0  0  0  0  0  0  0
   -5.7576    2.6765   15.1329 C   0  0  0  0  0  0  0  0  0  0  0  0
   -6.2854    2.7865   17.3885 N   0  0  0  0  0  0  0  0  0  0  0  0
   -6.7825    4.6327   16.0956 O   0  0  0  0  0  0  0  0  0  0  0  0
   -5.3668    0.7466   17.8928 O   0  0  0  0  0  0  0  0  0  0  0  0
   -5.4217    1.4707   15.8293 O   0  0  0  0  0  0  0  0  0  0  0  0
   -6.6425    3.0765   18.2589 H   0  0  0  0  0  0  0  0  0  0  0  0
   -0.8181    4.4692   11.5425 C   0  0  0  0  0  0  0  0  0  0  0  0
   -1.1907    5.1464   12.7776 O   0  0  0  0  0  0  0  0  0  0  0  0
   -5.0061    2.1311   11.3033 C   0  0  0  0  0  0  0  0  0  0  0  0
   -5.4742    3.1067   12.2828 O   0  0  0  0  0  0  0  0  0  0  0  0
 15 16  1  0  0  0
 16  5  1  0  0  0
 11  7  2  0  0  0
  5  2  2  0  0  0
  5  3  1  0  0  0
  2  1  1  0  0  0
  3  6  2  0  0  0
  1  4  2  0  0  0
  7  9  1  0  0  0
  7 10  1  0  0  0
  6  4  1  0  0  0
  6 18  1  0  0  0
  4  9  1  0  0  0
 18 17  1  0  0  0
  9 13  1  0  0  0
 10  8  1  0  0  0
  8 13  1  0  0  0
  8 12  2  0  0  0
 10 14  1  0  0  0
M  END
> <minimizedAffinity>
-6.34719

$$$$
5TY9_7QV_A_302


 18 19  0  0  0  0  0  0  0  0999 V2000
   -5.6023    4.8591   14.2927 C   0  0  0  0  0  0  0  0  0  0  0  0
   -6.3633    4.5429   15.4016 C   0  0  0  0  0  0  0  0  0  0  0  0
   -5.2543    2.4434   15.5235 C   0  0  0  0  0  0  0  0  0  0  0  0
   -4.6712    3.9901   13.7789 C   0  0  0  0  0  0  0  0  0  0  0  0
   -6.1794    3.3227   16.0275 C   0  0  0  0  0  0  0  0  0  0  0  0
   -4.5147    2.7537   14.4077 C   0  0  0  0  0  0  0  0  0  0  0  0
   -4.2061    3.5064   11.3672 C   0  0  0  0  0  0  0  0  0  0  0  0
   -2.0819    3.3352   11.7512 C   0  0  0  0  0  0  0  0  0  0  0  0
   -3.9262    4.4061   12.5310 C   0  0  0  0  0  0  0  0  0  0  0  0
   -3.0554    2.9475   10.9522 N   0  0  0  0  0  0  0  0  0  0  0  0
   -5.3353    3.3048   10.9168 O   0  0  0  0  0  0  0  0  0  0  0  0
   -0.9132    3.0542   11.7639 O   0  0  0  0  0  0  0  0  0  0  0  0
   -2.5035    4.2767   12.6365 O   0  0  0  0  0  0  0  0  0  0  0  0
   -2.9566    2.3470   10.1783 H   0  0  0  0  0  0  0  0  0  0  0  0
   -7.4351    1.5499   17.0137 C   0  0  0  0  0  0  0  0  0  0  0  0
   -6.8774    2.8871   17.1664 O   0  0  0  0  0  0  0  0  0  0  0  0
   -4.2324    0.5573   13.5610 C   0  0  0  0  0  0  0  0  0  0  0  0
   -3.6116    1.8465   13.8491 O   0  0  0  0  0  0  0  0  0  0  0  0
 15 16  1  0  0  0
 16  5  1  0  0  0
 11  7  2  0  0  0
  5  2  2  0  0  0
  5  3  1  0  0  0
  2  1  1  0  0  0
  3  6  2  0  0  0
  1  4  2  0  0  0
  7  9  1  0  0  0
  7 10  1  0  0  0
  6  4  1  0  0  0
  6 18  1  0  0  0
  4  9  1  0  0  0
 18 17  1  0  0  0
  9 13  1  0  0  0
 10  8  1  0  0  0
  8 13  1  0  0  0
  8 12  2  0  0  0
 10 14  1  0  0  0
M  END
> <minimizedAffinity>
-6.32990

$$$$
5TY9_7QV_A_302


 18 19  0  0  0  0  0  0  0  0999 V2000
   -3.5807    3.5870   14.9116 C   0  0  0  0  0  0  0  0  0  0  0  0
   -4.1288    2.6694   15.7871 C   0  0  0  0  0  0  0  0  0  0  0  0
   -4.4251    1.1631   13.9715 C   0  0  0  0  0  0  0  0  0  0  0  0
   -3.4492    3.3224   13.5703 C   0  0  0  0  0  0  0  0  0  0  0  0
   -4.5480    1.4401   15.3099 C   0  0  0  0  0  0  0  0  0  0  0  0
   -3.8987    2.0869   13.1010 C   0  0  0  0  0  0  0  0  0  0  0  0
   -1.4028    4.3010   12.5116 C   0  0  0  0  0  0  0  0  0  0  0  0
   -1.7471    6.2101   13.4739 C   0  0  0  0  0  0  0  0  0  0  0  0
   -2.8860    4.4109   12.6852 C   0  0  0  0  0  0  0  0  0  0  0  0
   -0.8185    5.4220   12.9708 N   0  0  0  0  0  0  0  0  0  0  0  0
   -0.8415    3.3043   12.0533 O   0  0  0  0  0  0  0  0  0  0  0  0
   -1.6650    7.2823   14.0111 O   0  0  0  0  0  0  0  0  0  0  0  0
   -2.9961    5.7254   13.2437 O   0  0  0  0  0  0  0  0  0  0  0  0
    0.1450    5.6212   12.9367 H   0  0  0  0  0  0  0  0  0  0  0  0
   -6.0299    0.9199   17.1059 C   0  0  0  0  0  0  0  0  0  0  0  0
   -5.1081    0.4185   16.0951 O   0  0  0  0  0  0  0  0  0  0  0  0
   -5.1289    1.8973   11.0834 C   0  0  0  0  0  0  0  0  0  0  0  0
   -3.8207    1.8421   11.7283 O   0  0  0  0  0  0  0  0  0  0  0  0
 15 16  1  0  0  0
 16  5  1  0  0  0
 11  7  2  0  0  0
  5  2  2  0  0  0
  5  3  1  0  0  0
  2  1  1  0  0  0
  3  6  2  0  0  0
  1  4  2  0  0  0
  7  9  1  0  0  0
  7 10  1  0  0  0
  6  4  1  0  0  0
  6 18  1  0  0  0
  4  9  1  0  0  0
 18 17  1  0  0  0
  9 13  1  0  0  0
 10  8  1  0  0  0
  8 13  1  0  0  0
  8 12  2  0  0  0
 10 14  1  0  0  0
M  END
> <minimizedAffinity>
-6.29303

$$$$
5TY9_7QV_A_302


 18 19  0  0  0  0  0  0  0  0999 V2000
   -4.5395    4.6580   13.5815 C   0  0  0  0  0  0  0  0  0  0  0  0
   -4.3069    4.9377   12.2486 C   0  0  0  0  0  0  0  0  0  0  0  0
   -4.3130    2.6046   11.7915 C   0  0  0  0  0  0  0  0  0  0  0  0
   -4.6566    3.3699   14.0436 C   0  0  0  0  0  0  0  0  0  0  0  0
   -4.2008    3.8967   11.3434 C   0  0  0  0  0  0  0  0  0  0  0  0
   -4.5233    2.3304   13.1215 C   0  0  0  0  0  0  0  0  0  0  0  0
   -4.0249    2.0459   16.0720 C   0  0  0  0  0  0  0  0  0  0  0  0
   -6.0848    1.4697   16.4087 C   0  0  0  0  0  0  0  0  0  0  0  0
   -4.8577    3.1651   15.5279 C   0  0  0  0  0  0  0  0  0  0  0  0
   -4.8320    1.1106   16.6034 N   0  0  0  0  0  0  0  0  0  0  0  0
   -2.7960    2.0069   15.9885 O   0  0  0  0  0  0  0  0  0  0  0  0
   -7.1157    0.9191   16.6902 O   0  0  0  0  0  0  0  0  0  0  0  0
   -6.1729    2.7177   15.8770 O   0  0  0  0  0  0  0  0  0  0  0  0
   -4.5355    0.2917   17.0625 H   0  0  0  0  0  0  0  0  0  0  0  0
   -3.1005    5.1654    9.6487 C   0  0  0  0  0  0  0  0  0  0  0  0
   -3.9789    4.0466    9.9642 O   0  0  0  0  0  0  0  0  0  0  0  0
   -4.1414    0.0482   12.6055 C   0  0  0  0  0  0  0  0  0  0  0  0
   -4.5818    1.0201   13.6015 O   0  0  0  0  0  0  0  0  0  0  0  0
 15 16  1  0  0  0
 16  5  1  0  0  0
 11  7  2  0  0  0
  5  2  2  0  0  0
  5  3  1  0  0  0
  2  1  1  0  0  0
  3  6  2  0  0  0
  1  4  2  0  0  0
  7  9  1  0  0  0
  7 10  1  0  0  0
  6  4  1  0  0  0
  6 18  1  0  0  0
  4  9  1  0  0  0
 18 17  1  0  0  0
  9 13  1  0  0  0
 10  8  1  0  0  0
  8 13  1  0  0  0
  8 12  2  0  0  0
 10 14  1  0  0  0
M  END
> <minimizedAffinity>
-6.25395

$$$$
5TY9_7QV_A_302


 18 19  0  0  0  0  0  0  0  0999 V2000
   -4.2214    0.8723   13.5588 C   0  0  0  0  0  0  0  0  0  0  0  0
   -4.3638    0.5089   14.8842 C   0  0  0  0  0  0  0  0  0  0  0  0
   -4.6173    2.8036   15.4523 C   0  0  0  0  0  0  0  0  0  0  0  0
   -4.2670    2.1847   13.1567 C   0  0  0  0  0  0  0  0  0  0  0  0
   -4.5721    1.4879   15.8395 C   0  0  0  0  0  0  0  0  0  0  0  0
   -4.4541    3.1619   14.1358 C   0  0  0  0  0  0  0  0  0  0  0  0
   -2.8261    3.3170   11.4513 C   0  0  0  0  0  0  0  0  0  0  0  0
   -4.4963    4.4967   10.7386 C   0  0  0  0  0  0  0  0  0  0  0  0
   -4.0477    2.4849   11.6913 C   0  0  0  0  0  0  0  0  0  0  0  0
   -3.1839    4.4675   10.8536 N   0  0  0  0  0  0  0  0  0  0  0  0
   -1.6928    2.9817   11.8000 O   0  0  0  0  0  0  0  0  0  0  0  0
   -5.2306    5.3403   10.2979 O   0  0  0  0  0  0  0  0  0  0  0  0
   -5.0598    3.3178   11.1137 O   0  0  0  0  0  0  0  0  0  0  0  0
   -2.5665    5.1724   10.5516 H   0  0  0  0  0  0  0  0  0  0  0  0
   -5.8811    1.9678   17.7756 C   0  0  0  0  0  0  0  0  0  0  0  0
   -4.7444    1.2503   17.2135 O   0  0  0  0  0  0  0  0  0  0  0  0
   -3.5046    5.3001   14.5192 C   0  0  0  0  0  0  0  0  0  0  0  0
   -4.4396    4.4996   13.7346 O   0  0  0  0  0  0  0  0  0  0  0  0
 15 16  1  0  0  0
 16  5  1  0  0  0
 11  7  2  0  0  0
  5  2  2  0  0  0
  5  3  1  0  0  0
  2  1  1  0  0  0
  3  6  2  0  0  0
  1  4  2  0  0  0
  7  9  1  0  0  0
  7 10  1  0  0  0
  6  4  1  0  0  0
  6 18  1  0  0  0
  4  9  1  0  0  0
 18 17  1  0  0  0
  9 13  1  0  0  0
 10  8  1  0  0  0
  8 13  1  0  0  0
  8 12  2  0  0  0
 10 14  1  0  0  0
M  END
> <minimizedAffinity>
-6.24845

$$$$
5TY9_7QV_A_302


 18 19  0  0  0  0  0  0  0  0999 V2000
   -3.6691    2.7417   12.9556 C   0  0  0  0  0  0  0  0  0  0  0  0
   -3.8677    1.6420   12.1432 C   0  0  0  0  0  0  0  0  0  0  0  0
   -4.2769    0.3257   14.0804 C   0  0  0  0  0  0  0  0  0  0  0  0
   -3.7622    2.6606   14.3234 C   0  0  0  0  0  0  0  0  0  0  0  0
   -4.1831    0.4220   12.7148 C   0  0  0  0  0  0  0  0  0  0  0  0
   -4.0578    1.4175   14.8856 C   0  0  0  0  0  0  0  0  0  0  0  0
   -4.5394    4.9499   14.9728 C   0  0  0  0  0  0  0  0  0  0  0  0
   -2.7177    5.8454   14.2189 C   0  0  0  0  0  0  0  0  0  0  0  0
   -3.4755    3.9077   15.1285 C   0  0  0  0  0  0  0  0  0  0  0  0
   -3.9929    6.0687   14.4644 N   0  0  0  0  0  0  0  0  0  0  0  0
   -5.7267    4.7583   15.2414 O   0  0  0  0  0  0  0  0  0  0  0  0
   -1.8715    6.5520   13.7396 O   0  0  0  0  0  0  0  0  0  0  0  0
   -2.3218    4.6308   14.6836 O   0  0  0  0  0  0  0  0  0  0  0  0
   -4.4678    6.9157   14.3022 H   0  0  0  0  0  0  0  0  0  0  0  0
   -3.2045   -1.3554   11.4596 C   0  0  0  0  0  0  0  0  0  0  0  0
   -4.4211   -0.7652   12.0020 O   0  0  0  0  0  0  0  0  0  0  0  0
   -5.4560    1.3456   16.7988 C   0  0  0  0  0  0  0  0  0  0  0  0
   -4.0925    1.3222   16.2785 O   0  0  0  0  0  0  0  0  0  0  0  0
 15 16  1  0  0  0
 16  5  1  0  0  0
 11  7  2  0  0  0
  5  2  2  0  0  0
  5  3  1  0  0  0
  2  1  1  0  0  0
  3  6  2  0  0  0
  1  4  2  0  0  0
  7  9  1  0  0  0
  7 10  1  0  0  0
  6  4  1  0  0  0
  6 18  1  0  0  0
  4  9  1  0  0  0
 18 17  1  0  0  0
  9 13  1  0  0  0
 10  8  1  0  0  0
  8 13  1  0  0  0
  8 12  2  0  0  0
 10 14  1  0  0  0
M  END
> <minimizedAffinity>
-6.23671

$$$$
5TY9_7QV_A_302


 18 19  0  0  0  0  0  0  0  0999 V2000
   -4.6883    2.2979   12.1777 C   0  0  0  0  0  0  0  0  0  0  0  0
   -4.7126    1.0507   11.5836 C   0  0  0  0  0  0  0  0  0  0  0  0
   -2.3601    1.1911   11.2687 C   0  0  0  0  0  0  0  0  0  0  0  0
   -3.5233    3.0103   12.3237 C   0  0  0  0  0  0  0  0  0  0  0  0
   -3.5314    0.4894   11.1317 C   0  0  0  0  0  0  0  0  0  0  0  0
   -2.3440    2.4402   11.8411 C   0  0  0  0  0  0  0  0  0  0  0  0
   -3.4377    4.3663   14.4262 C   0  0  0  0  0  0  0  0  0  0  0  0
   -5.4234    5.1527   14.0687 C   0  0  0  0  0  0  0  0  0  0  0  0
   -3.6080    4.3888   12.9387 C   0  0  0  0  0  0  0  0  0  0  0  0
   -4.5422    4.8686   15.0064 N   0  0  0  0  0  0  0  0  0  0  0  0
   -2.4421    3.9115   14.9922 O   0  0  0  0  0  0  0  0  0  0  0  0
   -6.5422    5.5860   14.1433 O   0  0  0  0  0  0  0  0  0  0  0  0
   -4.9007    4.9950   12.8237 O   0  0  0  0  0  0  0  0  0  0  0  0
   -4.6713    5.0021   15.9732 H   0  0  0  0  0  0  0  0  0  0  0  0
   -3.0684   -1.8272   11.4655 C   0  0  0  0  0  0  0  0  0  0  0  0
   -3.4188   -0.7722   10.5237 O   0  0  0  0  0  0  0  0  0  0  0  0
   -0.6532    3.5718   10.6241 C   0  0  0  0  0  0  0  0  0  0  0  0
   -1.1698    3.1905   11.9349 O   0  0  0  0  0  0  0  0  0  0  0  0
 15 16  1  0  0  0
 16  5  1  0  0  0
 11  7  2  0  0  0
  5  2  2  0  0  0
  5  3  1  0  0  0
  2  1  1  0  0  0
  3  6  2  0  0  0
  1  4  2  0  0  0
  7  9  1  0  0  0
  7 10  1  0  0  0
  6  4  1  0  0  0
  6 18  1  0  0  0
  4  9  1  0  0  0
 18 17  1  0  0  0
  9 13  1  0  0  0
 10  8  1  0  0  0
  8 13  1  0  0  0
  8 12  2  0  0  0
 10 14  1  0  0  0
M  END
> <minimizedAffinity>
-6.11452

$$$$
