5HTZ_66J_A_501


 28 30  0  0  0  0  0  0  0  0999 V2000
   24.0606   11.6903   19.0579 C   0  0  0  0  0  0  0  0  0  0  0  0
   24.9459   10.9192   19.7837 C   0  0  0  0  0  0  0  0  0  0  0  0
   22.6974   11.5787   19.4501 C   0  0  0  0  0  0  0  0  0  0  0  0
   22.5330   10.7171   20.5248 C   0  0  0  0  0  0  0  0  0  0  0  0
   24.0641   10.0781   20.9867 S   0  0  0  0  0  0  0  0  0  0  0  0
   21.4415   12.4699   18.6759 Cl  0  0  0  0  0  0  0  0  0  0  0  0
   22.1497    9.9322   23.6203 C   0  0  0  0  0  0  0  0  0  0  0  0
   20.4132    9.4565   20.3866 C   0  0  0  0  0  0  0  0  0  0  0  0
   23.1112   11.9712   24.8135 C   0  0  0  0  0  0  0  0  0  0  0  0
   21.2979   10.3092   21.2774 C   0  0  0  0  0  0  0  0  0  0  0  0
   20.4597   11.4861   21.7362 C   0  0  0  0  0  0  0  0  0  0  0  0
   21.3569   12.5116   22.8665 S   0  0  0  0  0  0  0  0  0  0  0  0
   22.2513   11.3510   23.7809 N   0  0  0  0  0  0  0  0  0  0  0  0
   21.5245    9.5001   22.4709 N   0  0  0  0  0  0  0  0  0  0  0  0
   22.6373    9.1396   24.5161 N   0  0  0  0  0  0  0  0  0  0  0  0
   20.3973   13.1390   23.7584 O   0  0  0  0  0  0  0  0  0  0  0  0
   22.3200   13.3077   22.1363 O   0  0  0  0  0  0  0  0  0  0  0  0
   21.2043    8.5693   22.4532 H   0  0  0  0  0  0  0  0  0  0  0  0
   22.5655    8.1644   24.4021 H   0  0  0  0  0  0  0  0  0  0  0  0
   26.3889   10.8328   19.7363 C   0  0  0  0  0  0  0  0  0  0  0  0
   27.0960   10.2558   20.7714 C   0  0  0  0  0  0  0  0  0  0  0  0
   29.1220   10.8653   19.7174 C   0  0  0  0  0  0  0  0  0  0  0  0
   27.1345   11.4027   18.7201 C   0  0  0  0  0  0  0  0  0  0  0  0
   28.4720   10.2498   20.7667 C   0  0  0  0  0  0  0  0  0  0  0  0
   28.4749   11.4408   18.6876 N   0  0  0  0  0  0  0  0  0  0  0  0
   29.1773    9.6567   21.8547 C   0  0  0  0  0  0  0  0  0  0  0  0
   30.4483    8.5368   23.9028 C   0  0  0  0  0  0  0  0  0  0  0  0
   29.7604    9.1717   22.7859 C   0  0  0  0  0  0  0  0  0  0  0  0
 25 23  2  0  0  0
 25 22  1  0  0  0
 23 20  1  0  0  0
  6  3  1  0  0  0
  1  3  1  0  0  0
  1  2  2  0  0  0
  3  4  2  0  0  0
 22 24  2  0  0  0
 20  2  1  0  0  0
 20 21  2  0  0  0
  2  5  1  0  0  0
  8 10  1  0  0  0
  4  5  1  0  0  0
  4 10  1  0  0  0
 24 21  1  0  0  0
 24 26  1  0  0  0
 10 11  1  0  0  0
 10 14  1  0  0  0
 26 28  3  0  0  0
 11 12  1  0  0  0
 17 12  2  0  0  0
 14  7  1  0  0  0
 28 27  1  0  0  0
 12 13  1  0  0  0
 12 16  2  0  0  0
  7 13  1  0  0  0
  7 15  2  0  0  0
 13  9  1  0  0  0
 14 18  1  0  0  0
 15 19  1  0  0  0
M  END
> <minimizedAffinity>
-9.41552

$$$$
5HTZ_66J_A_501


 28 30  0  0  0  0  0  0  0  0999 V2000
   23.9904   12.5921   19.1450 C   0  0  0  0  0  0  0  0  0  0  0  0
   23.7086   12.2202   20.4441 C   0  0  0  0  0  0  0  0  0  0  0  0
   25.2281   13.2703   18.9640 C   0  0  0  0  0  0  0  0  0  0  0  0
   25.9299   13.4009   20.1534 C   0  0  0  0  0  0  0  0  0  0  0  0
   25.0220   12.6944   21.4352 S   0  0  0  0  0  0  0  0  0  0  0  0
   25.7664   13.8046   17.4163 Cl  0  0  0  0  0  0  0  0  0  0  0  0
   28.2792   12.4459   22.1317 C   0  0  0  0  0  0  0  0  0  0  0  0
   27.1448   15.5332   20.4346 C   0  0  0  0  0  0  0  0  0  0  0  0
   28.7168   10.0632   21.3336 C   0  0  0  0  0  0  0  0  0  0  0  0
   27.2681   14.0205   20.4420 C   0  0  0  0  0  0  0  0  0  0  0  0
   28.3288   13.6586   19.4211 C   0  0  0  0  0  0  0  0  0  0  0  0
   28.6349   11.9150   19.4038 S   0  0  0  0  0  0  0  0  0  0  0  0
   28.5064   11.5054   21.0767 N   0  0  0  0  0  0  0  0  0  0  0  0
   27.8474   13.6949   21.7416 N   0  0  0  0  0  0  0  0  0  0  0  0
   28.4688   12.1015   23.3621 N   0  0  0  0  0  0  0  0  0  0  0  0
   30.0143   11.7078   18.9982 O   0  0  0  0  0  0  0  0  0  0  0  0
   27.5524   11.2413   18.7191 O   0  0  0  0  0  0  0  0  0  0  0  0
   27.9369   14.4278   22.3928 H   0  0  0  0  0  0  0  0  0  0  0  0
   28.3115   12.7511   24.0850 H   0  0  0  0  0  0  0  0  0  0  0  0
   22.6118   11.4554   20.9955 C   0  0  0  0  0  0  0  0  0  0  0  0
   21.8937   10.5808   20.2058 C   0  0  0  0  0  0  0  0  0  0  0  0
   20.4181   10.1769   22.0076 C   0  0  0  0  0  0  0  0  0  0  0  0
   22.1634   11.6283   22.2925 C   0  0  0  0  0  0  0  0  0  0  0  0
   20.7974    9.9174   20.7072 C   0  0  0  0  0  0  0  0  0  0  0  0
   21.0868   11.0214   22.8140 N   0  0  0  0  0  0  0  0  0  0  0  0
   20.0668    9.0280   19.8656 C   0  0  0  0  0  0  0  0  0  0  0  0
   18.7411    7.3357   18.3025 C   0  0  0  0  0  0  0  0  0  0  0  0
   19.4694    8.2788   19.1417 C   0  0  0  0  0  0  0  0  0  0  0  0
 25 23  2  0  0  0
 25 22  1  0  0  0
 23 20  1  0  0  0
  6  3  1  0  0  0
  1  3  1  0  0  0
  1  2  2  0  0  0
  3  4  2  0  0  0
 22 24  2  0  0  0
 20  2  1  0  0  0
 20 21  2  0  0  0
  2  5  1  0  0  0
  8 10  1  0  0  0
  4  5  1  0  0  0
  4 10  1  0  0  0
 24 21  1  0  0  0
 24 26  1  0  0  0
 10 11  1  0  0  0
 10 14  1  0  0  0
 26 28  3  0  0  0
 11 12  1  0  0  0
 17 12  2  0  0  0
 14  7  1  0  0  0
 28 27  1  0  0  0
 12 13  1  0  0  0
 12 16  2  0  0  0
  7 13  1  0  0  0
  7 15  2  0  0  0
 13  9  1  0  0  0
 14 18  1  0  0  0
 15 19  1  0  0  0
M  END
> <minimizedAffinity>
-9.07595

$$$$
5HTZ_66J_A_501


 28 30  0  0  0  0  0  0  0  0999 V2000
   20.8380   10.6748   24.6819 C   0  0  0  0  0  0  0  0  0  0  0  0
   20.9315   11.6127   23.6736 C   0  0  0  0  0  0  0  0  0  0  0  0
   20.6339   11.2058   25.9862 C   0  0  0  0  0  0  0  0  0  0  0  0
   20.5420   12.5899   25.9770 C   0  0  0  0  0  0  0  0  0  0  0  0
   20.7265   13.1660   24.3644 S   0  0  0  0  0  0  0  0  0  0  0  0
   20.4784   10.1981   27.3757 Cl  0  0  0  0  0  0  0  0  0  0  0  0
   19.2784   15.5474   25.9292 C   0  0  0  0  0  0  0  0  0  0  0  0
   21.4574   13.4798   28.0916 C   0  0  0  0  0  0  0  0  0  0  0  0
   17.0171   15.1464   24.8196 C   0  0  0  0  0  0  0  0  0  0  0  0
   20.3155   13.5673   27.0957 C   0  0  0  0  0  0  0  0  0  0  0  0
   19.0360   13.3096   27.8668 C   0  0  0  0  0  0  0  0  0  0  0  0
   17.6139   13.4798   26.8262 S   0  0  0  0  0  0  0  0  0  0  0  0
   18.0610   14.8037   25.8110 N   0  0  0  0  0  0  0  0  0  0  0  0
   20.2616   14.9726   26.7049 N   0  0  0  0  0  0  0  0  0  0  0  0
   19.4110   16.6790   25.3208 N   0  0  0  0  0  0  0  0  0  0  0  0
   16.5020   13.9095   27.6563 O   0  0  0  0  0  0  0  0  0  0  0  0
   17.4960   12.3153   25.9750 O   0  0  0  0  0  0  0  0  0  0  0  0
   20.9873   15.5578   27.0215 H   0  0  0  0  0  0  0  0  0  0  0  0
   20.2498   17.1876   25.4044 H   0  0  0  0  0  0  0  0  0  0  0  0
   21.0503   11.4566   22.2406 C   0  0  0  0  0  0  0  0  0  0  0  0
   20.4455   10.3987   21.5931 C   0  0  0  0  0  0  0  0  0  0  0  0
   21.4586   11.0699   19.5657 C   0  0  0  0  0  0  0  0  0  0  0  0
   21.8444   12.2833   21.4664 C   0  0  0  0  0  0  0  0  0  0  0  0
   20.6285   10.2017   20.2436 C   0  0  0  0  0  0  0  0  0  0  0  0
   22.0694   12.1140   20.1549 N   0  0  0  0  0  0  0  0  0  0  0  0
   20.0008    9.0937   19.6022 C   0  0  0  0  0  0  0  0  0  0  0  0
   18.8139    7.0592   18.3708 C   0  0  0  0  0  0  0  0  0  0  0  0
   19.4513    8.1708   19.0649 C   0  0  0  0  0  0  0  0  0  0  0  0
 25 23  2  0  0  0
 25 22  1  0  0  0
 23 20  1  0  0  0
  6  3  1  0  0  0
  1  3  1  0  0  0
  1  2  2  0  0  0
  3  4  2  0  0  0
 22 24  2  0  0  0
 20  2  1  0  0  0
 20 21  2  0  0  0
  2  5  1  0  0  0
  8 10  1  0  0  0
  4  5  1  0  0  0
  4 10  1  0  0  0
 24 21  1  0  0  0
 24 26  1  0  0  0
 10 11  1  0  0  0
 10 14  1  0  0  0
 26 28  3  0  0  0
 11 12  1  0  0  0
 17 12  2  0  0  0
 14  7  1  0  0  0
 28 27  1  0  0  0
 12 13  1  0  0  0
 12 16  2  0  0  0
  7 13  1  0  0  0
  7 15  2  0  0  0
 13  9  1  0  0  0
 14 18  1  0  0  0
 15 19  1  0  0  0
M  END
> <minimizedAffinity>
-8.83050

$$$$
5HTZ_66J_A_501


 28 30  0  0  0  0  0  0  0  0999 V2000
   24.2990   11.7443   19.2448 C   0  0  0  0  0  0  0  0  0  0  0  0
   25.1326   10.9875   20.0433 C   0  0  0  0  0  0  0  0  0  0  0  0
   22.9106   11.6228   19.5319 C   0  0  0  0  0  0  0  0  0  0  0  0
   22.6716   10.7683   20.5982 C   0  0  0  0  0  0  0  0  0  0  0  0
   24.1683   10.1478   21.1822 S   0  0  0  0  0  0  0  0  0  0  0  0
   21.7102   12.4956   18.6556 Cl  0  0  0  0  0  0  0  0  0  0  0  0
   22.0744    9.9263   23.6445 C   0  0  0  0  0  0  0  0  0  0  0  0
   20.5590    9.5256   20.2916 C   0  0  0  0  0  0  0  0  0  0  0  0
   22.9642   11.9350   24.9402 C   0  0  0  0  0  0  0  0  0  0  0  0
   21.3860   10.3546   21.2571 C   0  0  0  0  0  0  0  0  0  0  0  0
   20.5252   11.5283   21.6812 C   0  0  0  0  0  0  0  0  0  0  0  0
   21.3494   12.5254   22.8898 S   0  0  0  0  0  0  0  0  0  0  0  0
   22.1730   11.3410   23.8397 N   0  0  0  0  0  0  0  0  0  0  0  0
   21.5263    9.5210   22.4470 N   0  0  0  0  0  0  0  0  0  0  0  0
   22.4954    9.1131   24.5555 N   0  0  0  0  0  0  0  0  0  0  0  0
   20.3350   13.1421   23.7268 O   0  0  0  0  0  0  0  0  0  0  0  0
   22.3644   13.3286   22.2426 O   0  0  0  0  0  0  0  0  0  0  0  0
   21.2027    8.5930   22.3892 H   0  0  0  0  0  0  0  0  0  0  0  0
   22.4260    8.1408   24.4176 H   0  0  0  0  0  0  0  0  0  0  0  0
   26.5757   10.9146   20.1079 C   0  0  0  0  0  0  0  0  0  0  0  0
   27.3573   11.9357   19.6070 C   0  0  0  0  0  0  0  0  0  0  0  0
   29.2968   10.6617   20.0566 C   0  0  0  0  0  0  0  0  0  0  0  0
   27.2431    9.7958   20.5727 C   0  0  0  0  0  0  0  0  0  0  0  0
   28.7291   11.8291   19.5907 C   0  0  0  0  0  0  0  0  0  0  0  0
   28.5753    9.6402   20.5531 N   0  0  0  0  0  0  0  0  0  0  0  0
   29.5118   12.8946   19.0569 C   0  0  0  0  0  0  0  0  0  0  0  0
   31.0123   14.8528   18.0677 C   0  0  0  0  0  0  0  0  0  0  0  0
   30.1828   13.7934   18.6276 C   0  0  0  0  0  0  0  0  0  0  0  0
 25 23  2  0  0  0
 25 22  1  0  0  0
 23 20  1  0  0  0
  6  3  1  0  0  0
  1  3  1  0  0  0
  1  2  2  0  0  0
  3  4  2  0  0  0
 22 24  2  0  0  0
 20  2  1  0  0  0
 20 21  2  0  0  0
  2  5  1  0  0  0
  8 10  1  0  0  0
  4  5  1  0  0  0
  4 10  1  0  0  0
 24 21  1  0  0  0
 24 26  1  0  0  0
 10 11  1  0  0  0
 10 14  1  0  0  0
 26 28  3  0  0  0
 11 12  1  0  0  0
 17 12  2  0  0  0
 14  7  1  0  0  0
 28 27  1  0  0  0
 12 13  1  0  0  0
 12 16  2  0  0  0
  7 13  1  0  0  0
  7 15  2  0  0  0
 13  9  1  0  0  0
 14 18  1  0  0  0
 15 19  1  0  0  0
M  END
> <minimizedAffinity>
-8.74561

$$$$
5HTZ_66J_A_501


 28 30  0  0  0  0  0  0  0  0999 V2000
   25.8479   10.1966   20.7451 C   0  0  0  0  0  0  0  0  0  0  0  0
   24.8595   11.1465   20.5843 C   0  0  0  0  0  0  0  0  0  0  0  0
   27.1527   10.6078   20.3540 C   0  0  0  0  0  0  0  0  0  0  0  0
   27.1728   11.9197   19.9039 C   0  0  0  0  0  0  0  0  0  0  0  0
   25.5810   12.5737   19.9721 S   0  0  0  0  0  0  0  0  0  0  0  0
   28.5231    9.5712   20.4892 Cl  0  0  0  0  0  0  0  0  0  0  0  0
   27.5388   15.1150   19.9411 C   0  0  0  0  0  0  0  0  0  0  0  0
   28.8874   12.1739   18.1440 C   0  0  0  0  0  0  0  0  0  0  0  0
   27.2074   15.6640   22.4097 C   0  0  0  0  0  0  0  0  0  0  0  0
   28.3081   12.7729   19.4124 C   0  0  0  0  0  0  0  0  0  0  0  0
   29.4463   12.8868   20.4072 C   0  0  0  0  0  0  0  0  0  0  0  0
   28.9142   13.6658   21.9053 S   0  0  0  0  0  0  0  0  0  0  0  0
   27.8131   14.8624   21.3231 N   0  0  0  0  0  0  0  0  0  0  0  0
   27.9588   14.1448   19.0572 N   0  0  0  0  0  0  0  0  0  0  0  0
   26.9230   16.1938   19.5868 N   0  0  0  0  0  0  0  0  0  0  0  0
   30.0568   14.3533   22.4814 O   0  0  0  0  0  0  0  0  0  0  0  0
   28.1418   12.7267   22.6901 O   0  0  0  0  0  0  0  0  0  0  0  0
   28.0290   14.3978   18.1084 H   0  0  0  0  0  0  0  0  0  0  0  0
   26.7362   16.3640   18.6353 H   0  0  0  0  0  0  0  0  0  0  0  0
   23.4582   11.1278   20.9420 C   0  0  0  0  0  0  0  0  0  0  0  0
   22.5868   10.2453   20.3369 C   0  0  0  0  0  0  0  0  0  0  0  0
   20.7823   11.2507   21.4858 C   0  0  0  0  0  0  0  0  0  0  0  0
   22.9027   12.0426   21.8183 C   0  0  0  0  0  0  0  0  0  0  0  0
   21.2396   10.2846   20.6142 C   0  0  0  0  0  0  0  0  0  0  0  0
   21.5940   12.1319   22.0985 N   0  0  0  0  0  0  0  0  0  0  0  0
   20.3602    9.3684   19.9659 C   0  0  0  0  0  0  0  0  0  0  0  0
   18.7388    7.6756   18.7130 C   0  0  0  0  0  0  0  0  0  0  0  0
   19.6091    8.6147   19.4091 C   0  0  0  0  0  0  0  0  0  0  0  0
 25 23  2  0  0  0
 25 22  1  0  0  0
 23 20  1  0  0  0
  6  3  1  0  0  0
  1  3  1  0  0  0
  1  2  2  0  0  0
  3  4  2  0  0  0
 22 24  2  0  0  0
 20  2  1  0  0  0
 20 21  2  0  0  0
  2  5  1  0  0  0
  8 10  1  0  0  0
  4  5  1  0  0  0
  4 10  1  0  0  0
 24 21  1  0  0  0
 24 26  1  0  0  0
 10 11  1  0  0  0
 10 14  1  0  0  0
 26 28  3  0  0  0
 11 12  1  0  0  0
 17 12  2  0  0  0
 14  7  1  0  0  0
 28 27  1  0  0  0
 12 13  1  0  0  0
 12 16  2  0  0  0
  7 13  1  0  0  0
  7 15  2  0  0  0
 13  9  1  0  0  0
 14 18  1  0  0  0
 15 19  1  0  0  0
M  END
> <minimizedAffinity>
-8.33329

$$$$
5HTZ_66J_A_501


 28 30  0  0  0  0  0  0  0  0999 V2000
   22.4774   12.6358   23.9361 C   0  0  0  0  0  0  0  0  0  0  0  0
   21.4935   12.0821   23.1421 C   0  0  0  0  0  0  0  0  0  0  0  0
   22.1835   12.6724   25.3279 C   0  0  0  0  0  0  0  0  0  0  0  0
   20.9497   12.1075   25.6152 C   0  0  0  0  0  0  0  0  0  0  0  0
   20.2094   11.5738   24.1546 S   0  0  0  0  0  0  0  0  0  0  0  0
   23.2888   13.3131   26.4849 Cl  0  0  0  0  0  0  0  0  0  0  0  0
   20.7022   14.0624   28.1574 C   0  0  0  0  0  0  0  0  0  0  0  0
   20.3599   10.4639   27.3623 C   0  0  0  0  0  0  0  0  0  0  0  0
   19.7625   16.1892   27.1088 C   0  0  0  0  0  0  0  0  0  0  0  0
   20.2392   11.9121   26.9249 C   0  0  0  0  0  0  0  0  0  0  0  0
   18.7587   12.2313   26.8570 C   0  0  0  0  0  0  0  0  0  0  0  0
   18.4867   13.9320   26.4471 S   0  0  0  0  0  0  0  0  0  0  0  0
   19.7635   14.7218   27.3011 N   0  0  0  0  0  0  0  0  0  0  0  0
   20.7571   12.6900   28.0461 N   0  0  0  0  0  0  0  0  0  0  0  0
   21.4419   14.7496   28.9630 N   0  0  0  0  0  0  0  0  0  0  0  0
   17.2287   14.3403   27.0477 O   0  0  0  0  0  0  0  0  0  0  0  0
   18.7338   14.1342   25.0356 O   0  0  0  0  0  0  0  0  0  0  0  0
   21.1804   12.1935   28.7833 H   0  0  0  0  0  0  0  0  0  0  0  0
   22.0864   14.2925   29.5504 H   0  0  0  0  0  0  0  0  0  0  0  0
   21.4656   11.7999   21.7238 C   0  0  0  0  0  0  0  0  0  0  0  0
   20.7689   10.7143   21.2336 C   0  0  0  0  0  0  0  0  0  0  0  0
   21.5964   11.1710   19.0670 C   0  0  0  0  0  0  0  0  0  0  0  0
   22.2036   12.5266   20.8070 C   0  0  0  0  0  0  0  0  0  0  0  0
   20.8120   10.3961   19.8955 C   0  0  0  0  0  0  0  0  0  0  0  0
   22.2930   12.2376   19.5002 N   0  0  0  0  0  0  0  0  0  0  0  0
   20.0916    9.2621   19.4179 C   0  0  0  0  0  0  0  0  0  0  0  0
   18.7306    7.1761   18.4900 C   0  0  0  0  0  0  0  0  0  0  0  0
   19.4648    8.3186   19.0190 C   0  0  0  0  0  0  0  0  0  0  0  0
 25 23  2  0  0  0
 25 22  1  0  0  0
 23 20  1  0  0  0
  6  3  1  0  0  0
  1  3  1  0  0  0
  1  2  2  0  0  0
  3  4  2  0  0  0
 22 24  2  0  0  0
 20  2  1  0  0  0
 20 21  2  0  0  0
  2  5  1  0  0  0
  8 10  1  0  0  0
  4  5  1  0  0  0
  4 10  1  0  0  0
 24 21  1  0  0  0
 24 26  1  0  0  0
 10 11  1  0  0  0
 10 14  1  0  0  0
 26 28  3  0  0  0
 11 12  1  0  0  0
 17 12  2  0  0  0
 14  7  1  0  0  0
 28 27  1  0  0  0
 12 13  1  0  0  0
 12 16  2  0  0  0
  7 13  1  0  0  0
  7 15  2  0  0  0
 13  9  1  0  0  0
 14 18  1  0  0  0
 15 19  1  0  0  0
M  END
> <minimizedAffinity>
-8.22919

$$$$
5HTZ_66J_A_501


 28 30  0  0  0  0  0  0  0  0999 V2000
   20.5471   10.8967   25.0541 C   0  0  0  0  0  0  0  0  0  0  0  0
   20.6446   11.5341   23.8337 C   0  0  0  0  0  0  0  0  0  0  0  0
   20.3459   11.7547   26.1713 C   0  0  0  0  0  0  0  0  0  0  0  0
   20.2605   13.0875   25.7963 C   0  0  0  0  0  0  0  0  0  0  0  0
   20.4470   13.2157   24.0890 S   0  0  0  0  0  0  0  0  0  0  0  0
   20.1863   11.1510   27.7778 Cl  0  0  0  0  0  0  0  0  0  0  0  0
   18.6554   15.7849   25.0944 C   0  0  0  0  0  0  0  0  0  0  0  0
   21.2823   14.6306   27.4323 C   0  0  0  0  0  0  0  0  0  0  0  0
   16.3533   14.8891   24.4594 C   0  0  0  0  0  0  0  0  0  0  0  0
   20.0390   14.3269   26.6165 C   0  0  0  0  0  0  0  0  0  0  0  0
   18.8883   14.2001   27.5953 C   0  0  0  0  0  0  0  0  0  0  0  0
   17.3538   13.9388   26.7519 S   0  0  0  0  0  0  0  0  0  0  0  0
   17.5297   14.9402   25.3557 N   0  0  0  0  0  0  0  0  0  0  0  0
   19.7768   15.5467   25.8589 N   0  0  0  0  0  0  0  0  0  0  0  0
   18.5869   16.6959   24.1812 N   0  0  0  0  0  0  0  0  0  0  0  0
   16.2930   14.4981   27.5716 O   0  0  0  0  0  0  0  0  0  0  0  0
   17.2861   12.5706   26.2852 O   0  0  0  0  0  0  0  0  0  0  0  0
   20.4569   16.2575   25.8973 H   0  0  0  0  0  0  0  0  0  0  0  0
   19.3632   17.2750   24.0044 H   0  0  0  0  0  0  0  0  0  0  0  0
   20.7621   11.0040   22.4931 C   0  0  0  0  0  0  0  0  0  0  0  0
   21.5740   11.6166   21.5604 C   0  0  0  0  0  0  0  0  0  0  0  0
   20.8091   10.1046   19.9124 C   0  0  0  0  0  0  0  0  0  0  0  0
   20.0054    9.9353   22.0476 C   0  0  0  0  0  0  0  0  0  0  0  0
   21.6205   11.1637   20.2619 C   0  0  0  0  0  0  0  0  0  0  0  0
   20.0017    9.4771   20.7869 N   0  0  0  0  0  0  0  0  0  0  0  0
   22.4596   11.8227   19.3159 C   0  0  0  0  0  0  0  0  0  0  0  0
   24.0446   13.0068   17.5411 C   0  0  0  0  0  0  0  0  0  0  0  0
   23.1852   12.3706   18.5313 C   0  0  0  0  0  0  0  0  0  0  0  0
 25 23  2  0  0  0
 25 22  1  0  0  0
 23 20  1  0  0  0
  6  3  1  0  0  0
  1  3  1  0  0  0
  1  2  2  0  0  0
  3  4  2  0  0  0
 22 24  2  0  0  0
 20  2  1  0  0  0
 20 21  2  0  0  0
  2  5  1  0  0  0
  8 10  1  0  0  0
  4  5  1  0  0  0
  4 10  1  0  0  0
 24 21  1  0  0  0
 24 26  1  0  0  0
 10 11  1  0  0  0
 10 14  1  0  0  0
 26 28  3  0  0  0
 11 12  1  0  0  0
 17 12  2  0  0  0
 14  7  1  0  0  0
 28 27  1  0  0  0
 12 13  1  0  0  0
 12 16  2  0  0  0
  7 13  1  0  0  0
  7 15  2  0  0  0
 13  9  1  0  0  0
 14 18  1  0  0  0
 15 19  1  0  0  0
M  END
> <minimizedAffinity>
-8.07223

$$$$
5HTZ_66J_A_501


 28 30  0  0  0  0  0  0  0  0999 V2000
   23.4009   12.1771   20.1519 C   0  0  0  0  0  0  0  0  0  0  0  0
   23.5026   12.0713   21.5244 C   0  0  0  0  0  0  0  0  0  0  0  0
   24.5285   12.7539   19.5036 C   0  0  0  0  0  0  0  0  0  0  0  0
   25.5365   13.0770   20.4001 C   0  0  0  0  0  0  0  0  0  0  0  0
   25.0369   12.6671   21.9965 S   0  0  0  0  0  0  0  0  0  0  0  0
   24.6005   12.9606   17.7939 Cl  0  0  0  0  0  0  0  0  0  0  0  0
   28.3448   12.4708   21.8462 C   0  0  0  0  0  0  0  0  0  0  0  0
   26.7520   15.1592   19.8626 C   0  0  0  0  0  0  0  0  0  0  0  0
   28.5850    9.9530   21.5167 C   0  0  0  0  0  0  0  0  0  0  0  0
   26.8941   13.6811   20.1765 C   0  0  0  0  0  0  0  0  0  0  0  0
   27.6459   13.0539   19.0191 C   0  0  0  0  0  0  0  0  0  0  0  0
   27.9606   11.3367   19.3131 S   0  0  0  0  0  0  0  0  0  0  0  0
   28.2928   11.3116   21.0078 N   0  0  0  0  0  0  0  0  0  0  0  0
   27.8063   13.6224   21.3145 N   0  0  0  0  0  0  0  0  0  0  0  0
   28.8633   12.3969   23.0269 N   0  0  0  0  0  0  0  0  0  0  0  0
   29.1828   10.9805   18.6134 O   0  0  0  0  0  0  0  0  0  0  0  0
   26.7434   10.5807   19.1096 O   0  0  0  0  0  0  0  0  0  0  0  0
   28.0574   14.4755   21.7368 H   0  0  0  0  0  0  0  0  0  0  0  0
   28.8972   13.1963   23.6005 H   0  0  0  0  0  0  0  0  0  0  0  0
   22.6158   11.4737   22.4984 C   0  0  0  0  0  0  0  0  0  0  0  0
   21.5689   12.1944   23.0357 C   0  0  0  0  0  0  0  0  0  0  0  0
   21.0812   10.3916   24.4845 C   0  0  0  0  0  0  0  0  0  0  0  0
   22.8226   10.2064   23.0125 C   0  0  0  0  0  0  0  0  0  0  0  0
   20.7775   11.6558   24.0241 C   0  0  0  0  0  0  0  0  0  0  0  0
   22.0917    9.6526   23.9915 N   0  0  0  0  0  0  0  0  0  0  0  0
   19.7095   12.4270   24.5697 C   0  0  0  0  0  0  0  0  0  0  0  0
   17.6880   13.8254   25.5809 C   0  0  0  0  0  0  0  0  0  0  0  0
   18.7983   13.0743   25.0089 C   0  0  0  0  0  0  0  0  0  0  0  0
 25 23  2  0  0  0
 25 22  1  0  0  0
 23 20  1  0  0  0
  6  3  1  0  0  0
  1  3  1  0  0  0
  1  2  2  0  0  0
  3  4  2  0  0  0
 22 24  2  0  0  0
 20  2  1  0  0  0
 20 21  2  0  0  0
  2  5  1  0  0  0
  8 10  1  0  0  0
  4  5  1  0  0  0
  4 10  1  0  0  0
 24 21  1  0  0  0
 24 26  1  0  0  0
 10 11  1  0  0  0
 10 14  1  0  0  0
 26 28  3  0  0  0
 11 12  1  0  0  0
 17 12  2  0  0  0
 14  7  1  0  0  0
 28 27  1  0  0  0
 12 13  1  0  0  0
 12 16  2  0  0  0
  7 13  1  0  0  0
  7 15  2  0  0  0
 13  9  1  0  0  0
 14 18  1  0  0  0
 15 19  1  0  0  0
M  END
> <minimizedAffinity>
-7.99390

$$$$
5HTZ_66J_A_501


 28 30  0  0  0  0  0  0  0  0999 V2000
   25.0718   13.2116   22.7802 C   0  0  0  0  0  0  0  0  0  0  0  0
   24.2174   12.5043   21.9588 C   0  0  0  0  0  0  0  0  0  0  0  0
   26.2615   13.6810   22.1566 C   0  0  0  0  0  0  0  0  0  0  0  0
   26.3113   13.3473   20.8111 C   0  0  0  0  0  0  0  0  0  0  0  0
   24.8970   12.4604   20.3877 S   0  0  0  0  0  0  0  0  0  0  0  0
   27.4484   14.5945   23.0094 Cl  0  0  0  0  0  0  0  0  0  0  0  0
   29.5180   13.1358   20.9443 C   0  0  0  0  0  0  0  0  0  0  0  0
   26.9159   14.8363   18.9352 C   0  0  0  0  0  0  0  0  0  0  0  0
   29.8657   10.7194   21.6829 C   0  0  0  0  0  0  0  0  0  0  0  0
   27.3481   13.6403   19.7635 C   0  0  0  0  0  0  0  0  0  0  0  0
   27.5674   12.4911   18.7995 C   0  0  0  0  0  0  0  0  0  0  0  0
   28.1706   11.0543   19.6398 S   0  0  0  0  0  0  0  0  0  0  0  0
   29.2266   11.7396   20.8222 N   0  0  0  0  0  0  0  0  0  0  0  0
   28.6732   13.9882   20.2670 N   0  0  0  0  0  0  0  0  0  0  0  0
   30.5147   13.5318   21.6642 N   0  0  0  0  0  0  0  0  0  0  0  0
   28.9816   10.2966   18.7027 O   0  0  0  0  0  0  0  0  0  0  0  0
   27.0843   10.4231   20.3581 O   0  0  0  0  0  0  0  0  0  0  0  0
   28.9895   14.9072   20.1097 H   0  0  0  0  0  0  0  0  0  0  0  0
   30.7119   14.4928   21.7457 H   0  0  0  0  0  0  0  0  0  0  0  0
   22.9021   11.9552   22.2052 C   0  0  0  0  0  0  0  0  0  0  0  0
   22.3257   11.0755   21.3119 C   0  0  0  0  0  0  0  0  0  0  0  0
   20.3373   11.0923   22.5898 C   0  0  0  0  0  0  0  0  0  0  0  0
   22.1205   12.3505   23.2757 C   0  0  0  0  0  0  0  0  0  0  0  0
   21.0415   10.6195   21.5022 C   0  0  0  0  0  0  0  0  0  0  0  0
   20.8576   11.9505   23.4860 N   0  0  0  0  0  0  0  0  0  0  0  0
   20.4664    9.7198   20.5573 C   0  0  0  0  0  0  0  0  0  0  0  0
   19.3523    8.0417   18.8230 C   0  0  0  0  0  0  0  0  0  0  0  0
   19.9800    8.9459   19.7783 C   0  0  0  0  0  0  0  0  0  0  0  0
 25 23  2  0  0  0
 25 22  1  0  0  0
 23 20  1  0  0  0
  6  3  1  0  0  0
  1  3  1  0  0  0
  1  2  2  0  0  0
  3  4  2  0  0  0
 22 24  2  0  0  0
 20  2  1  0  0  0
 20 21  2  0  0  0
  2  5  1  0  0  0
  8 10  1  0  0  0
  4  5  1  0  0  0
  4 10  1  0  0  0
 24 21  1  0  0  0
 24 26  1  0  0  0
 10 11  1  0  0  0
 10 14  1  0  0  0
 26 28  3  0  0  0
 11 12  1  0  0  0
 17 12  2  0  0  0
 14  7  1  0  0  0
 28 27  1  0  0  0
 12 13  1  0  0  0
 12 16  2  0  0  0
  7 13  1  0  0  0
  7 15  2  0  0  0
 13  9  1  0  0  0
 14 18  1  0  0  0
 15 19  1  0  0  0
M  END
> <minimizedAffinity>
-7.80869

$$$$
5HTZ_66J_A_501


 28 30  0  0  0  0  0  0  0  0999 V2000
   23.5232   12.1212   20.8530 C   0  0  0  0  0  0  0  0  0  0  0  0
   23.9722   12.5658   22.0801 C   0  0  0  0  0  0  0  0  0  0  0  0
   24.4571   12.2415   19.7863 C   0  0  0  0  0  0  0  0  0  0  0  0
   25.6676   12.7697   20.2103 C   0  0  0  0  0  0  0  0  0  0  0  0
   25.5874   13.1041   21.8979 S   0  0  0  0  0  0  0  0  0  0  0  0
   24.0912   11.7307   18.1813 Cl  0  0  0  0  0  0  0  0  0  0  0  0
   28.7196   12.8584   21.2219 C   0  0  0  0  0  0  0  0  0  0  0  0
   26.6749   14.1291   18.4106 C   0  0  0  0  0  0  0  0  0  0  0  0
   28.9964   10.5603   22.2932 C   0  0  0  0  0  0  0  0  0  0  0  0
   26.9335   13.0571   19.4534 C   0  0  0  0  0  0  0  0  0  0  0  0
   27.4801   11.8489   18.7188 C   0  0  0  0  0  0  0  0  0  0  0  0
   27.9142   10.5545   19.8459 S   0  0  0  0  0  0  0  0  0  0  0  0
   28.5588   11.4365   21.1837 N   0  0  0  0  0  0  0  0  0  0  0  0
   28.0444   13.5665   20.2515 N   0  0  0  0  0  0  0  0  0  0  0  0
   29.4527   13.4059   22.1336 N   0  0  0  0  0  0  0  0  0  0  0  0
   28.9971    9.7898   19.2520 O   0  0  0  0  0  0  0  0  0  0  0  0
   26.7123    9.8971   20.3126 O   0  0  0  0  0  0  0  0  0  0  0  0
   28.3351   14.4918   20.0827 H   0  0  0  0  0  0  0  0  0  0  0  0
   29.5608   14.3842   22.1566 H   0  0  0  0  0  0  0  0  0  0  0  0
   23.3543   12.5278   23.3873 C   0  0  0  0  0  0  0  0  0  0  0  0
   22.0441   12.1214   23.5373 C   0  0  0  0  0  0  0  0  0  0  0  0
   22.1482   12.6594   25.8366 C   0  0  0  0  0  0  0  0  0  0  0  0
   23.9946   12.9839   24.5254 C   0  0  0  0  0  0  0  0  0  0  0  0
   21.4296   12.1661   24.7677 C   0  0  0  0  0  0  0  0  0  0  0  0
   23.4266   13.0673   25.7377 N   0  0  0  0  0  0  0  0  0  0  0  0
   20.0713   11.7508   24.8920 C   0  0  0  0  0  0  0  0  0  0  0  0
   17.5257   11.0245   25.1307 C   0  0  0  0  0  0  0  0  0  0  0  0
   18.9268   11.4095   25.0185 C   0  0  0  0  0  0  0  0  0  0  0  0
 25 23  2  0  0  0
 25 22  1  0  0  0
 23 20  1  0  0  0
  6  3  1  0  0  0
  1  3  1  0  0  0
  1  2  2  0  0  0
  3  4  2  0  0  0
 22 24  2  0  0  0
 20  2  1  0  0  0
 20 21  2  0  0  0
  2  5  1  0  0  0
  8 10  1  0  0  0
  4  5  1  0  0  0
  4 10  1  0  0  0
 24 21  1  0  0  0
 24 26  1  0  0  0
 10 11  1  0  0  0
 10 14  1  0  0  0
 26 28  3  0  0  0
 11 12  1  0  0  0
 17 12  2  0  0  0
 14  7  1  0  0  0
 28 27  1  0  0  0
 12 13  1  0  0  0
 12 16  2  0  0  0
  7 13  1  0  0  0
  7 15  2  0  0  0
 13  9  1  0  0  0
 14 18  1  0  0  0
 15 19  1  0  0  0
M  END
> <minimizedAffinity>
-7.74808

$$$$
