1V11_TDP_A_601


 30 31  0  0  0  0  0  0  0  0999 V2000
   75.5781    2.3184    6.7525 N   0  0  0  0  0  0  0  0  0  0  0  0
   75.7233    3.5979    6.1116 C   0  0  0  0  0  0  0  0  0  0  0  0
   73.9961    4.0231    5.6935 S   0  0  0  0  0  0  0  0  0  0  0  0
   73.2811    2.5209    6.2874 C   0  0  0  0  0  0  0  0  0  0  0  0
   74.3444    1.7405    6.7761 C   0  0  0  0  0  0  0  0  0  0  0  0
   74.1321    0.3789    7.3376 C   0  0  0  0  0  0  0  0  0  0  0  0
   76.8599    1.7227    7.1901 C   0  0  0  0  0  0  0  0  0  0  0  0
   76.9791    0.8772   10.9033 N   0  0  0  0  0  0  0  0  0  0  0  0
   77.3052    2.0449   11.4765 C   0  0  0  0  0  0  0  0  0  0  0  0
   77.4322    2.2184   12.9786 C   0  0  0  0  0  0  0  0  0  0  0  0
   77.4462    3.1535   10.6949 N   0  0  0  0  0  0  0  0  0  0  0  0
   77.3209    3.1283    9.3397 C   0  0  0  0  0  0  0  0  0  0  0  0
   77.5802    4.2982    8.6684 N   0  0  0  0  0  0  0  0  0  0  0  0
   77.0202    1.8764    8.7148 C   0  0  0  0  0  0  0  0  0  0  0  0
   76.8148    0.7898    9.5641 C   0  0  0  0  0  0  0  0  0  0  0  0
   77.7794    5.1207    9.1715 H   0  0  0  0  0  0  0  0  0  0  0  0
   77.5668    4.3143    7.6841 H   0  0  0  0  0  0  0  0  0  0  0  0
   71.8087    2.2949    6.1779 C   0  0  0  0  0  0  0  0  0  0  0  0
   71.0664    3.0458    7.2886 C   0  0  0  0  0  0  0  0  0  0  0  0
   69.7138    2.8868    7.1699 O   0  0  0  0  0  0  0  0  0  0  0  0
   68.6792    3.9224    7.7320 P   0  0  0  0  0  0  0  0  0  0  0  0
   69.1831    4.4446    9.0011 O   0  0  0  0  0  0  0  0  0  0  0  0
   67.3027    3.2466    7.7671 O   0  0  0  0  0  0  0  0  0  0  0  0
   67.0702    2.9402    6.8766 H   0  0  0  0  0  0  0  0  0  0  0  0
   68.6664    5.2094    6.7515 O   0  0  0  0  0  0  0  0  0  0  0  0
   68.5393    5.2560    5.1286 P   0  0  0  0  0  0  0  0  0  0  0  0
   67.7170    6.5117    4.7853 O   0  0  0  0  0  0  0  0  0  0  0  0
   69.9666    5.4299    4.5636 O   0  0  0  0  0  0  0  0  0  0  0  0
   67.8290    3.9991    4.6950 O   0  0  0  0  0  0  0  0  0  0  0  0
   66.9455    3.9729    5.0944 H   0  0  0  0  0  0  0  0  0  0  0  0
  8  9  2  0  0  0
  8 15  1  0  0  0
  9 10  1  0  0  0
  9 11  1  0  0  0
 11 12  2  0  0  0
 12 13  1  0  0  0
 12 14  1  0  0  0
 14 15  2  0  0  0
 14  7  1  0  0  0
  7  1  1  0  0  0
  1  2  2  0  0  0
  1  5  1  0  0  0
  2  3  1  0  0  0
  3  4  1  0  0  0
  4  5  2  0  0  0
  4 18  1  0  0  0
  5  6  1  0  0  0
 18 19  1  0  0  0
 19 20  1  0  0  0
 20 21  1  0  0  0
 21 25  1  0  0  0
 21 22  2  0  0  0
 21 23  1  0  0  0
 25 26  1  0  0  0
 26 27  2  0  0  0
 26 28  1  0  0  0
 26 29  1  0  0  0
 13 16  1  0  0  0
 13 17  1  0  0  0
 23 24  1  0  0  0
 29 30  1  0  0  0
M  CHG 1   1   1
M  CHG 1  28  -1
M  END
> <minimizedAffinity>
-10.28879

$$$$
1V11_TDP_A_601


 30 31  0  0  0  0  0  0  0  0999 V2000
   75.1564    1.9600    6.6759 N   0  0  0  0  0  0  0  0  0  0  0  0
   74.2437    1.0239    7.2758 C   0  0  0  0  0  0  0  0  0  0  0  0
   72.6196    1.6566    6.7276 S   0  0  0  0  0  0  0  0  0  0  0  0
   73.2444    3.0724    5.8757 C   0  0  0  0  0  0  0  0  0  0  0  0
   74.6426    3.0411    6.0249 C   0  0  0  0  0  0  0  0  0  0  0  0
   75.5214    4.1005    5.4595 C   0  0  0  0  0  0  0  0  0  0  0  0
   76.5779    1.6833    6.9790 C   0  0  0  0  0  0  0  0  0  0  0  0
   76.9006    0.8362   10.6797 N   0  0  0  0  0  0  0  0  0  0  0  0
   77.2906    1.9954   11.2298 C   0  0  0  0  0  0  0  0  0  0  0  0
   77.5130    2.1662   12.7211 C   0  0  0  0  0  0  0  0  0  0  0  0
   77.4122    3.0997   10.4389 N   0  0  0  0  0  0  0  0  0  0  0  0
   77.2044    3.0773    9.0939 C   0  0  0  0  0  0  0  0  0  0  0  0
   77.4522    4.2400    8.4059 N   0  0  0  0  0  0  0  0  0  0  0  0
   76.8343    1.8333    8.4908 C   0  0  0  0  0  0  0  0  0  0  0  0
   76.6531    0.7526    9.3531 C   0  0  0  0  0  0  0  0  0  0  0  0
   77.7026    5.0572    8.8945 H   0  0  0  0  0  0  0  0  0  0  0  0
   77.3796    4.2561    7.4242 H   0  0  0  0  0  0  0  0  0  0  0  0
   72.3050    4.0227    5.2081 C   0  0  0  0  0  0  0  0  0  0  0  0
   72.1686    5.3089    6.0301 C   0  0  0  0  0  0  0  0  0  0  0  0
   71.5891    5.0578    7.2425 O   0  0  0  0  0  0  0  0  0  0  0  0
   70.0382    5.0911    7.4714 P   0  0  0  0  0  0  0  0  0  0  0  0
   69.7377    6.0942    8.4915 O   0  0  0  0  0  0  0  0  0  0  0  0
   69.5703    3.6591    7.7596 O   0  0  0  0  0  0  0  0  0  0  0  0
   69.8211    3.0822    7.0213 H   0  0  0  0  0  0  0  0  0  0  0  0
   69.3401    5.6683    6.1307 O   0  0  0  0  0  0  0  0  0  0  0  0
   68.1449    5.0143    5.2386 P   0  0  0  0  0  0  0  0  0  0  0  0
   66.8235    5.3554    5.9517 O   0  0  0  0  0  0  0  0  0  0  0  0
   68.1618    5.7204    3.8646 O   0  0  0  0  0  0  0  0  0  0  0  0
   68.3767    3.5255    5.1950 O   0  0  0  0  0  0  0  0  0  0  0  0
   68.3495    3.1676    6.0961 H   0  0  0  0  0  0  0  0  0  0  0  0
  8  9  2  0  0  0
  8 15  1  0  0  0
  9 10  1  0  0  0
  9 11  1  0  0  0
 11 12  2  0  0  0
 12 13  1  0  0  0
 12 14  1  0  0  0
 14 15  2  0  0  0
 14  7  1  0  0  0
  7  1  1  0  0  0
  1  2  2  0  0  0
  1  5  1  0  0  0
  2  3  1  0  0  0
  3  4  1  0  0  0
  4  5  2  0  0  0
  4 18  1  0  0  0
  5  6  1  0  0  0
 18 19  1  0  0  0
 19 20  1  0  0  0
 20 21  1  0  0  0
 21 25  1  0  0  0
 21 22  2  0  0  0
 21 23  1  0  0  0
 25 26  1  0  0  0
 26 27  2  0  0  0
 26 28  1  0  0  0
 26 29  1  0  0  0
 13 16  1  0  0  0
 13 17  1  0  0  0
 23 24  1  0  0  0
 29 30  1  0  0  0
M  CHG 1   1   1
M  CHG 1  28  -1
M  END
> <minimizedAffinity>
-9.18427

$$$$
1V11_TDP_A_601


 30 31  0  0  0  0  0  0  0  0999 V2000
   75.2589    2.2045    6.4017 N   0  0  0  0  0  0  0  0  0  0  0  0
   74.2990    1.4571    7.1693 C   0  0  0  0  0  0  0  0  0  0  0  0
   72.7092    2.0966    6.5351 S   0  0  0  0  0  0  0  0  0  0  0  0
   73.4086    3.2907    5.4372 C   0  0  0  0  0  0  0  0  0  0  0  0
   74.8047    3.1869    5.5739 C   0  0  0  0  0  0  0  0  0  0  0  0
   75.7398    4.0638    4.8186 C   0  0  0  0  0  0  0  0  0  0  0  0
   76.6650    1.8854    6.7334 C   0  0  0  0  0  0  0  0  0  0  0  0
   76.9110    0.8542   10.3931 N   0  0  0  0  0  0  0  0  0  0  0  0
   77.2595    1.9914   11.0125 C   0  0  0  0  0  0  0  0  0  0  0  0
   77.4390    2.0891   12.5160 C   0  0  0  0  0  0  0  0  0  0  0  0
   77.3759    3.1378   10.2831 N   0  0  0  0  0  0  0  0  0  0  0  0
   77.2037    3.1808    8.9335 C   0  0  0  0  0  0  0  0  0  0  0  0
   77.4423    4.3829    8.3132 N   0  0  0  0  0  0  0  0  0  0  0  0
   76.8785    1.9621    8.2574 C   0  0  0  0  0  0  0  0  0  0  0  0
   76.7001    0.8343    9.0577 C   0  0  0  0  0  0  0  0  0  0  0  0
   77.6608    5.1789    8.8498 H   0  0  0  0  0  0  0  0  0  0  0  0
   77.3948    4.4485    7.3320 H   0  0  0  0  0  0  0  0  0  0  0  0
   72.5206    4.1720    4.6211 C   0  0  0  0  0  0  0  0  0  0  0  0
   71.2957    3.3928    4.1302 C   0  0  0  0  0  0  0  0  0  0  0  0
   70.2486    4.2337    3.8749 O   0  0  0  0  0  0  0  0  0  0  0  0
   69.2343    4.6946    4.9783 P   0  0  0  0  0  0  0  0  0  0  0  0
   67.8801    4.3701    4.5333 O   0  0  0  0  0  0  0  0  0  0  0  0
   69.5164    6.1683    5.2963 O   0  0  0  0  0  0  0  0  0  0  0  0
   70.4388    6.2671    5.5798 H   0  0  0  0  0  0  0  0  0  0  0  0
   69.4535    3.7687    6.2870 O   0  0  0  0  0  0  0  0  0  0  0  0
   68.9732    4.0365    7.8199 P   0  0  0  0  0  0  0  0  0  0  0  0
   67.5438    3.4767    7.9396 O   0  0  0  0  0  0  0  0  0  0  0  0
   69.9043    3.2162    8.7401 O   0  0  0  0  0  0  0  0  0  0  0  0
   69.0001    5.5264    8.0478 O   0  0  0  0  0  0  0  0  0  0  0  0
   68.3896    5.9590    7.4305 H   0  0  0  0  0  0  0  0  0  0  0  0
  8  9  2  0  0  0
  8 15  1  0  0  0
  9 10  1  0  0  0
  9 11  1  0  0  0
 11 12  2  0  0  0
 12 13  1  0  0  0
 12 14  1  0  0  0
 14 15  2  0  0  0
 14  7  1  0  0  0
  7  1  1  0  0  0
  1  2  2  0  0  0
  1  5  1  0  0  0
  2  3  1  0  0  0
  3  4  1  0  0  0
  4  5  2  0  0  0
  4 18  1  0  0  0
  5  6  1  0  0  0
 18 19  1  0  0  0
 19 20  1  0  0  0
 20 21  1  0  0  0
 21 25  1  0  0  0
 21 22  2  0  0  0
 21 23  1  0  0  0
 25 26  1  0  0  0
 26 27  2  0  0  0
 26 28  1  0  0  0
 26 29  1  0  0  0
 13 16  1  0  0  0
 13 17  1  0  0  0
 23 24  1  0  0  0
 29 30  1  0  0  0
M  CHG 1   1   1
M  CHG 1  28  -1
M  END
> <minimizedAffinity>
-9.18119

$$$$
1V11_TDP_A_601


 30 31  0  0  0  0  0  0  0  0999 V2000
   75.4632    2.8181    6.4455 N   0  0  0  0  0  0  0  0  0  0  0  0
   75.1709    4.0434    5.7510 C   0  0  0  0  0  0  0  0  0  0  0  0
   73.3442    4.0426    5.7101 S   0  0  0  0  0  0  0  0  0  0  0  0
   73.1370    2.4714    6.4904 C   0  0  0  0  0  0  0  0  0  0  0  0
   74.4300    1.9860    6.7564 C   0  0  0  0  0  0  0  0  0  0  0  0
   74.6611    0.6599    7.3906 C   0  0  0  0  0  0  0  0  0  0  0  0
   76.9103    2.5565    6.6082 C   0  0  0  0  0  0  0  0  0  0  0  0
   78.1438    1.5217    3.1550 N   0  0  0  0  0  0  0  0  0  0  0  0
   78.8291    2.5957    2.7362 C   0  0  0  0  0  0  0  0  0  0  0  0
   79.5544    2.6424    1.4043 C   0  0  0  0  0  0  0  0  0  0  0  0
   78.9616    3.6670    3.5696 N   0  0  0  0  0  0  0  0  0  0  0  0
   78.3860    3.7259    4.8017 C   0  0  0  0  0  0  0  0  0  0  0  0
   78.5233    4.9022    5.4976 N   0  0  0  0  0  0  0  0  0  0  0  0
   77.6127    2.6034    5.2377 C   0  0  0  0  0  0  0  0  0  0  0  0
   77.5689    1.5059    4.3787 C   0  0  0  0  0  0  0  0  0  0  0  0
   79.0744    5.6303    5.1298 H   0  0  0  0  0  0  0  0  0  0  0  0
   78.0705    5.0171    6.3642 H   0  0  0  0  0  0  0  0  0  0  0  0
   71.7676    1.9181    6.7137 C   0  0  0  0  0  0  0  0  0  0  0  0
   70.7069    2.9979    6.4740 C   0  0  0  0  0  0  0  0  0  0  0  0
   69.5703    2.7369    7.1872 O   0  0  0  0  0  0  0  0  0  0  0  0
   68.6342    3.8641    7.7456 P   0  0  0  0  0  0  0  0  0  0  0  0
   69.1672    4.3219    9.0276 O   0  0  0  0  0  0  0  0  0  0  0  0
   67.1974    3.3273    7.7532 O   0  0  0  0  0  0  0  0  0  0  0  0
   66.9496    3.0539    6.8561 H   0  0  0  0  0  0  0  0  0  0  0  0
   68.7635    5.1555    6.7793 O   0  0  0  0  0  0  0  0  0  0  0  0
   68.4297    5.2798    5.1902 P   0  0  0  0  0  0  0  0  0  0  0  0
   67.5103    6.5040    5.0260 O   0  0  0  0  0  0  0  0  0  0  0  0
   69.7637    5.5621    4.4641 O   0  0  0  0  0  0  0  0  0  0  0  0
   67.7321    4.0097    4.7747 O   0  0  0  0  0  0  0  0  0  0  0  0
   66.9086    3.9135    5.2782 H   0  0  0  0  0  0  0  0  0  0  0  0
  8  9  2  0  0  0
  8 15  1  0  0  0
  9 10  1  0  0  0
  9 11  1  0  0  0
 11 12  2  0  0  0
 12 13  1  0  0  0
 12 14  1  0  0  0
 14 15  2  0  0  0
 14  7  1  0  0  0
  7  1  1  0  0  0
  1  2  2  0  0  0
  1  5  1  0  0  0
  2  3  1  0  0  0
  3  4  1  0  0  0
  4  5  2  0  0  0
  4 18  1  0  0  0
  5  6  1  0  0  0
 18 19  1  0  0  0
 19 20  1  0  0  0
 20 21  1  0  0  0
 21 25  1  0  0  0
 21 22  2  0  0  0
 21 23  1  0  0  0
 25 26  1  0  0  0
 26 27  2  0  0  0
 26 28  1  0  0  0
 26 29  1  0  0  0
 13 16  1  0  0  0
 13 17  1  0  0  0
 23 24  1  0  0  0
 29 30  1  0  0  0
M  CHG 1   1   1
M  CHG 1  28  -1
M  END
> <minimizedAffinity>
-8.72544

$$$$
1V11_TDP_A_601


 30 31  0  0  0  0  0  0  0  0999 V2000
   75.2566    2.3821    6.2657 N   0  0  0  0  0  0  0  0  0  0  0  0
   74.3017    1.7705    7.1508 C   0  0  0  0  0  0  0  0  0  0  0  0
   72.7111    2.3809    6.4905 S   0  0  0  0  0  0  0  0  0  0  0  0
   73.4080    3.4031    5.2295 C   0  0  0  0  0  0  0  0  0  0  0  0
   74.8041    3.2685    5.3350 C   0  0  0  0  0  0  0  0  0  0  0  0
   75.7388    4.0109    4.4466 C   0  0  0  0  0  0  0  0  0  0  0  0
   76.6631    2.0580    6.5914 C   0  0  0  0  0  0  0  0  0  0  0  0
   77.3508    3.3908   10.0939 N   0  0  0  0  0  0  0  0  0  0  0  0
   77.2586    2.2975   10.8649 C   0  0  0  0  0  0  0  0  0  0  0  0
   77.5000    2.3227   12.3627 C   0  0  0  0  0  0  0  0  0  0  0  0
   77.0243    1.0883   10.2796 N   0  0  0  0  0  0  0  0  0  0  0  0
   76.8268    0.9360    8.9414 C   0  0  0  0  0  0  0  0  0  0  0  0
   76.5084   -0.3246    8.4983 N   0  0  0  0  0  0  0  0  0  0  0  0
   76.8760    2.1044    8.1166 C   0  0  0  0  0  0  0  0  0  0  0  0
   77.1902    3.3040    8.7542 C   0  0  0  0  0  0  0  0  0  0  0  0
   76.4962   -1.0798    9.1298 H   0  0  0  0  0  0  0  0  0  0  0  0
   76.2925   -0.4728    7.5493 H   0  0  0  0  0  0  0  0  0  0  0  0
   72.5195    4.2058    4.3366 C   0  0  0  0  0  0  0  0  0  0  0  0
   71.4512    4.9356    5.1581 C   0  0  0  0  0  0  0  0  0  0  0  0
   70.2479    4.9359    4.5093 O   0  0  0  0  0  0  0  0  0  0  0  0
   69.1993    3.7789    4.6533 P   0  0  0  0  0  0  0  0  0  0  0  0
   69.6144    2.6637    3.8040 O   0  0  0  0  0  0  0  0  0  0  0  0
   67.8072    4.3640    4.3844 O   0  0  0  0  0  0  0  0  0  0  0  0
   67.6381    5.0929    5.0016 H   0  0  0  0  0  0  0  0  0  0  0  0
   69.2979    3.1895    6.1569 O   0  0  0  0  0  0  0  0  0  0  0  0
   68.6889    3.8036    7.5368 P   0  0  0  0  0  0  0  0  0  0  0  0
   69.6758    3.4331    8.6591 O   0  0  0  0  0  0  0  0  0  0  0  0
   68.6693    5.3407    7.3830 O   0  0  0  0  0  0  0  0  0  0  0  0
   67.3410    3.1662    7.7585 O   0  0  0  0  0  0  0  0  0  0  0  0
   67.4476    2.2058    7.8436 H   0  0  0  0  0  0  0  0  0  0  0  0
  8  9  2  0  0  0
  8 15  1  0  0  0
  9 10  1  0  0  0
  9 11  1  0  0  0
 11 12  2  0  0  0
 12 13  1  0  0  0
 12 14  1  0  0  0
 14 15  2  0  0  0
 14  7  1  0  0  0
  7  1  1  0  0  0
  1  2  2  0  0  0
  1  5  1  0  0  0
  2  3  1  0  0  0
  3  4  1  0  0  0
  4  5  2  0  0  0
  4 18  1  0  0  0
  5  6  1  0  0  0
 18 19  1  0  0  0
 19 20  1  0  0  0
 20 21  1  0  0  0
 21 25  1  0  0  0
 21 22  2  0  0  0
 21 23  1  0  0  0
 25 26  1  0  0  0
 26 27  2  0  0  0
 26 28  1  0  0  0
 26 29  1  0  0  0
 13 16  1  0  0  0
 13 17  1  0  0  0
 23 24  1  0  0  0
 29 30  1  0  0  0
M  CHG 1   1   1
M  CHG 1  28  -1
M  END
> <minimizedAffinity>
-8.66492

$$$$
1V11_TDP_A_601


 30 31  0  0  0  0  0  0  0  0999 V2000
   75.3892    1.9990    6.8404 N   0  0  0  0  0  0  0  0  0  0  0  0
   74.5520    0.9481    7.3542 C   0  0  0  0  0  0  0  0  0  0  0  0
   72.8908    1.4642    6.7951 S   0  0  0  0  0  0  0  0  0  0  0  0
   73.4034    2.9815    6.0499 C   0  0  0  0  0  0  0  0  0  0  0  0
   74.7944    3.0679    6.2402 C   0  0  0  0  0  0  0  0  0  0  0  0
   75.5855    4.2360    5.7672 C   0  0  0  0  0  0  0  0  0  0  0  0
   76.8220    1.8338    7.1701 C   0  0  0  0  0  0  0  0  0  0  0  0
   77.3164    3.2163   10.6860 N   0  0  0  0  0  0  0  0  0  0  0  0
   77.3695    2.1137   11.4476 C   0  0  0  0  0  0  0  0  0  0  0  0
   77.6016    2.1581   12.9465 C   0  0  0  0  0  0  0  0  0  0  0  0
   77.3007    0.8892   10.8515 N   0  0  0  0  0  0  0  0  0  0  0  0
   77.1288    0.7234    9.5114 C   0  0  0  0  0  0  0  0  0  0  0  0
   76.9832   -0.5645    9.0568 N   0  0  0  0  0  0  0  0  0  0  0  0
   77.0231    1.8951    8.6964 C   0  0  0  0  0  0  0  0  0  0  0  0
   77.1722    3.1203    9.3450 C   0  0  0  0  0  0  0  0  0  0  0  0
   77.0707   -1.3201    9.6819 H   0  0  0  0  0  0  0  0  0  0  0  0
   76.7914   -0.7321    8.1058 H   0  0  0  0  0  0  0  0  0  0  0  0
   72.3975    3.8829    5.4120 C   0  0  0  0  0  0  0  0  0  0  0  0
   72.0172    5.0217    6.3643 C   0  0  0  0  0  0  0  0  0  0  0  0
   71.2534    4.5613    7.4004 O   0  0  0  0  0  0  0  0  0  0  0  0
   69.7765    5.0274    7.6459 P   0  0  0  0  0  0  0  0  0  0  0  0
   69.7895    6.1446    8.5887 O   0  0  0  0  0  0  0  0  0  0  0  0
   68.9523    3.7987    8.0507 O   0  0  0  0  0  0  0  0  0  0  0  0
   69.0148    3.1244    7.3562 H   0  0  0  0  0  0  0  0  0  0  0  0
   69.2140    5.6740    6.2735 O   0  0  0  0  0  0  0  0  0  0  0  0
   68.0357    5.1243    5.2930 P   0  0  0  0  0  0  0  0  0  0  0  0
   66.7056    5.3322    6.0405 O   0  0  0  0  0  0  0  0  0  0  0  0
   68.0385    6.0157    4.0313 O   0  0  0  0  0  0  0  0  0  0  0  0
   68.3020    3.6618    5.0429 O   0  0  0  0  0  0  0  0  0  0  0  0
   68.2816    3.1808    5.8850 H   0  0  0  0  0  0  0  0  0  0  0  0
  8  9  2  0  0  0
  8 15  1  0  0  0
  9 10  1  0  0  0
  9 11  1  0  0  0
 11 12  2  0  0  0
 12 13  1  0  0  0
 12 14  1  0  0  0
 14 15  2  0  0  0
 14  7  1  0  0  0
  7  1  1  0  0  0
  1  2  2  0  0  0
  1  5  1  0  0  0
  2  3  1  0  0  0
  3  4  1  0  0  0
  4  5  2  0  0  0
  4 18  1  0  0  0
  5  6  1  0  0  0
 18 19  1  0  0  0
 19 20  1  0  0  0
 20 21  1  0  0  0
 21 25  1  0  0  0
 21 22  2  0  0  0
 21 23  1  0  0  0
 25 26  1  0  0  0
 26 27  2  0  0  0
 26 28  1  0  0  0
 26 29  1  0  0  0
 13 16  1  0  0  0
 13 17  1  0  0  0
 23 24  1  0  0  0
 29 30  1  0  0  0
M  CHG 1   1   1
M  CHG 1  28  -1
M  END
> <minimizedAffinity>
-8.65358

$$$$
1V11_TDP_A_601


 30 31  0  0  0  0  0  0  0  0999 V2000
   75.3786    3.8055    4.5314 N   0  0  0  0  0  0  0  0  0  0  0  0
   75.4468    3.2523    3.2053 C   0  0  0  0  0  0  0  0  0  0  0  0
   73.6835    3.1296    2.7425 S   0  0  0  0  0  0  0  0  0  0  0  0
   73.0414    3.7035    4.2848 C   0  0  0  0  0  0  0  0  0  0  0  0
   74.1533    3.9665    5.1052 C   0  0  0  0  0  0  0  0  0  0  0  0
   74.0057    4.4448    6.5064 C   0  0  0  0  0  0  0  0  0  0  0  0
   76.7017    4.0001    5.1642 C   0  0  0  0  0  0  0  0  0  0  0  0
   76.4180    1.1299    7.6539 N   0  0  0  0  0  0  0  0  0  0  0  0
   76.9055    1.6543    8.7878 C   0  0  0  0  0  0  0  0  0  0  0  0
   76.9591    0.8853   10.0948 C   0  0  0  0  0  0  0  0  0  0  0  0
   77.2925    2.9618    8.8038 N   0  0  0  0  0  0  0  0  0  0  0  0
   77.2569    3.7611    7.7026 C   0  0  0  0  0  0  0  0  0  0  0  0
   77.7634    5.0306    7.8378 N   0  0  0  0  0  0  0  0  0  0  0  0
   76.7830    3.1962    6.4760 C   0  0  0  0  0  0  0  0  0  0  0  0
   76.3320    1.8779    6.5308 C   0  0  0  0  0  0  0  0  0  0  0  0
   78.0701    5.3471    8.7182 H   0  0  0  0  0  0  0  0  0  0  0  0
   77.8198    5.6241    7.0544 H   0  0  0  0  0  0  0  0  0  0  0  0
   71.5657    3.7962    4.4965 C   0  0  0  0  0  0  0  0  0  0  0  0
   71.1827    5.1913    5.0019 C   0  0  0  0  0  0  0  0  0  0  0  0
   69.9720    5.5803    4.5001 O   0  0  0  0  0  0  0  0  0  0  0  0
   68.6145    5.3067    5.2357 P   0  0  0  0  0  0  0  0  0  0  0  0
   68.1487    3.9688    4.8748 O   0  0  0  0  0  0  0  0  0  0  0  0
   67.6640    6.4700    4.9258 O   0  0  0  0  0  0  0  0  0  0  0  0
   68.0724    7.3044    5.2051 H   0  0  0  0  0  0  0  0  0  0  0  0
   68.9090    5.2084    6.8236 O   0  0  0  0  0  0  0  0  0  0  0  0
   68.8016    3.9126    7.8042 P   0  0  0  0  0  0  0  0  0  0  0  0
   69.7679    2.8528    7.2439 O   0  0  0  0  0  0  0  0  0  0  0  0
   69.3033    4.3518    9.1978 O   0  0  0  0  0  0  0  0  0  0  0  0
   67.3739    3.4311    7.7614 O   0  0  0  0  0  0  0  0  0  0  0  0
   67.1452    3.1775    6.8535 H   0  0  0  0  0  0  0  0  0  0  0  0
  8  9  2  0  0  0
  8 15  1  0  0  0
  9 10  1  0  0  0
  9 11  1  0  0  0
 11 12  2  0  0  0
 12 13  1  0  0  0
 12 14  1  0  0  0
 14 15  2  0  0  0
 14  7  1  0  0  0
  7  1  1  0  0  0
  1  2  2  0  0  0
  1  5  1  0  0  0
  2  3  1  0  0  0
  3  4  1  0  0  0
  4  5  2  0  0  0
  4 18  1  0  0  0
  5  6  1  0  0  0
 18 19  1  0  0  0
 19 20  1  0  0  0
 20 21  1  0  0  0
 21 25  1  0  0  0
 21 22  2  0  0  0
 21 23  1  0  0  0
 25 26  1  0  0  0
 26 27  2  0  0  0
 26 28  1  0  0  0
 26 29  1  0  0  0
 13 16  1  0  0  0
 13 17  1  0  0  0
 23 24  1  0  0  0
 29 30  1  0  0  0
M  CHG 1   1   1
M  CHG 1  28  -1
M  END
> <minimizedAffinity>
-8.35920

$$$$
1V11_TDP_A_601


 30 31  0  0  0  0  0  0  0  0999 V2000
   75.3707    2.1049    6.4413 N   0  0  0  0  0  0  0  0  0  0  0  0
   74.4158    1.4224    7.2729 C   0  0  0  0  0  0  0  0  0  0  0  0
   72.8219    1.9743    6.5704 S   0  0  0  0  0  0  0  0  0  0  0  0
   73.5126    3.0653    5.3649 C   0  0  0  0  0  0  0  0  0  0  0  0
   74.9089    2.9952    5.5190 C   0  0  0  0  0  0  0  0  0  0  0  0
   75.8373    3.8075    4.6869 C   0  0  0  0  0  0  0  0  0  0  0  0
   76.7787    1.8397    6.8105 C   0  0  0  0  0  0  0  0  0  0  0  0
   76.9610    0.8631   10.4888 N   0  0  0  0  0  0  0  0  0  0  0  0
   77.2639    2.0172   11.1010 C   0  0  0  0  0  0  0  0  0  0  0  0
   77.4035    2.1391   12.6070 C   0  0  0  0  0  0  0  0  0  0  0  0
   77.3682    3.1566   10.3591 N   0  0  0  0  0  0  0  0  0  0  0  0
   77.2284    3.1775    9.0052 C   0  0  0  0  0  0  0  0  0  0  0  0
   77.4505    4.3774    8.3746 N   0  0  0  0  0  0  0  0  0  0  0  0
   76.9522    1.9419    8.3380 C   0  0  0  0  0  0  0  0  0  0  0  0
   76.7839    0.8203    9.1491 C   0  0  0  0  0  0  0  0  0  0  0  0
   77.6346    5.1858    8.9055 H   0  0  0  0  0  0  0  0  0  0  0  0
   77.4257    4.4289    7.3918 H   0  0  0  0  0  0  0  0  0  0  0  0
   72.6184    3.8499    4.4616 C   0  0  0  0  0  0  0  0  0  0  0  0
   71.1565    3.4363    4.6621 C   0  0  0  0  0  0  0  0  0  0  0  0
   70.3082    4.4592    4.3416 O   0  0  0  0  0  0  0  0  0  0  0  0
   69.2642    5.0514    5.3507 P   0  0  0  0  0  0  0  0  0  0  0  0
   68.4123    3.9655    5.8329 O   0  0  0  0  0  0  0  0  0  0  0  0
   68.5550    6.2259    4.6650 O   0  0  0  0  0  0  0  0  0  0  0  0
   69.2123    6.8830    4.3874 H   0  0  0  0  0  0  0  0  0  0  0  0
   70.0589    5.5468    6.6701 O   0  0  0  0  0  0  0  0  0  0  0  0
   71.2084    6.6931    6.8000 P   0  0  0  0  0  0  0  0  0  0  0  0
   71.0615    7.6080    5.5702 O   0  0  0  0  0  0  0  0  0  0  0  0
   70.8919    7.5155    8.0689 O   0  0  0  0  0  0  0  0  0  0  0  0
   72.5441    5.9944    6.8078 O   0  0  0  0  0  0  0  0  0  0  0  0
   72.6581    5.5054    5.9779 H   0  0  0  0  0  0  0  0  0  0  0  0
  8  9  2  0  0  0
  8 15  1  0  0  0
  9 10  1  0  0  0
  9 11  1  0  0  0
 11 12  2  0  0  0
 12 13  1  0  0  0
 12 14  1  0  0  0
 14 15  2  0  0  0
 14  7  1  0  0  0
  7  1  1  0  0  0
  1  2  2  0  0  0
  1  5  1  0  0  0
  2  3  1  0  0  0
  3  4  1  0  0  0
  4  5  2  0  0  0
  4 18  1  0  0  0
  5  6  1  0  0  0
 18 19  1  0  0  0
 19 20  1  0  0  0
 20 21  1  0  0  0
 21 25  1  0  0  0
 21 22  2  0  0  0
 21 23  1  0  0  0
 25 26  1  0  0  0
 26 27  2  0  0  0
 26 28  1  0  0  0
 26 29  1  0  0  0
 13 16  1  0  0  0
 13 17  1  0  0  0
 23 24  1  0  0  0
 29 30  1  0  0  0
M  CHG 1   1   1
M  CHG 1  28  -1
M  END
> <minimizedAffinity>
-8.35326

$$$$
1V11_TDP_A_601


 30 31  0  0  0  0  0  0  0  0999 V2000
   72.8264    3.8244    6.2861 N   0  0  0  0  0  0  0  0  0  0  0  0
   73.1974    5.1913    6.0350 C   0  0  0  0  0  0  0  0  0  0  0  0
   71.9642    6.1167    7.0156 S   0  0  0  0  0  0  0  0  0  0  0  0
   71.0621    4.7028    7.5703 C   0  0  0  0  0  0  0  0  0  0  0  0
   71.6971    3.5805    7.0085 C   0  0  0  0  0  0  0  0  0  0  0  0
   71.1980    2.1966    7.2311 C   0  0  0  0  0  0  0  0  0  0  0  0
   73.6758    2.8380    5.5828 C   0  0  0  0  0  0  0  0  0  0  0  0
   75.2016    0.3983    8.0801 N   0  0  0  0  0  0  0  0  0  0  0  0
   76.3948    0.9441    8.3568 C   0  0  0  0  0  0  0  0  0  0  0  0
   77.3660    0.3400    9.3540 C   0  0  0  0  0  0  0  0  0  0  0  0
   76.7270    2.1396    7.7910 N   0  0  0  0  0  0  0  0  0  0  0  0
   75.9223    2.7938    6.9093 C   0  0  0  0  0  0  0  0  0  0  0  0
   76.4210    3.9425    6.3449 N   0  0  0  0  0  0  0  0  0  0  0  0
   74.6673    2.1949    6.5713 C   0  0  0  0  0  0  0  0  0  0  0  0
   74.3446    1.0102    7.2320 C   0  0  0  0  0  0  0  0  0  0  0  0
   77.2953    4.2926    6.6319 H   0  0  0  0  0  0  0  0  0  0  0  0
   75.9043    4.4157    5.6533 H   0  0  0  0  0  0  0  0  0  0  0  0
   69.8618    4.8724    8.4431 C   0  0  0  0  0  0  0  0  0  0  0  0
   68.5791    4.5982    7.6506 C   0  0  0  0  0  0  0  0  0  0  0  0
   68.2437    5.6710    6.8725 O   0  0  0  0  0  0  0  0  0  0  0  0
   67.1933    5.5889    5.7110 P   0  0  0  0  0  0  0  0  0  0  0  0
   67.3872    6.7344    4.8237 O   0  0  0  0  0  0  0  0  0  0  0  0
   65.8024    5.4362    6.3391 O   0  0  0  0  0  0  0  0  0  0  0  0
   65.7878    4.6484    6.9050 H   0  0  0  0  0  0  0  0  0  0  0  0
   67.5552    4.3089    4.7898 O   0  0  0  0  0  0  0  0  0  0  0  0
   68.8077    4.1064    3.7689 P   0  0  0  0  0  0  0  0  0  0  0  0
   69.1812    2.6134    3.8179 O   0  0  0  0  0  0  0  0  0  0  0  0
   68.2989    4.4425    2.3495 O   0  0  0  0  0  0  0  0  0  0  0  0
   69.9384    4.9716    4.2642 O   0  0  0  0  0  0  0  0  0  0  0  0
   70.1923    4.6917    5.1575 H   0  0  0  0  0  0  0  0  0  0  0  0
  8  9  2  0  0  0
  8 15  1  0  0  0
  9 10  1  0  0  0
  9 11  1  0  0  0
 11 12  2  0  0  0
 12 13  1  0  0  0
 12 14  1  0  0  0
 14 15  2  0  0  0
 14  7  1  0  0  0
  7  1  1  0  0  0
  1  2  2  0  0  0
  1  5  1  0  0  0
  2  3  1  0  0  0
  3  4  1  0  0  0
  4  5  2  0  0  0
  4 18  1  0  0  0
  5  6  1  0  0  0
 18 19  1  0  0  0
 19 20  1  0  0  0
 20 21  1  0  0  0
 21 25  1  0  0  0
 21 22  2  0  0  0
 21 23  1  0  0  0
 25 26  1  0  0  0
 26 27  2  0  0  0
 26 28  1  0  0  0
 26 29  1  0  0  0
 13 16  1  0  0  0
 13 17  1  0  0  0
 23 24  1  0  0  0
 29 30  1  0  0  0
M  CHG 1   1   1
M  CHG 1  28  -1
M  END
> <minimizedAffinity>
-7.89015

$$$$
1V11_TDP_A_601


 30 31  0  0  0  0  0  0  0  0999 V2000
   75.2012    2.0195    6.5604 N   0  0  0  0  0  0  0  0  0  0  0  0
   74.3566    1.1323    7.3146 C   0  0  0  0  0  0  0  0  0  0  0  0
   72.6885    1.5821    6.7199 S   0  0  0  0  0  0  0  0  0  0  0  0
   73.2126    2.8887    5.6529 C   0  0  0  0  0  0  0  0  0  0  0  0
   74.6125    2.9604    5.7700 C   0  0  0  0  0  0  0  0  0  0  0  0
   75.4162    3.9724    5.0325 C   0  0  0  0  0  0  0  0  0  0  0  0
   76.6416    1.8730    6.8653 C   0  0  0  0  0  0  0  0  0  0  0  0
   76.9388    0.8510   10.5237 N   0  0  0  0  0  0  0  0  0  0  0  0
   77.2799    1.9934   11.1377 C   0  0  0  0  0  0  0  0  0  0  0  0
   77.4741    2.0958   12.6391 C   0  0  0  0  0  0  0  0  0  0  0  0
   77.3746    3.1399   10.4053 N   0  0  0  0  0  0  0  0  0  0  0  0
   77.1876    3.1785    9.0576 C   0  0  0  0  0  0  0  0  0  0  0  0
   77.4049    4.3824    8.4329 N   0  0  0  0  0  0  0  0  0  0  0  0
   76.8702    1.9549    8.3868 C   0  0  0  0  0  0  0  0  0  0  0  0
   76.7141    0.8263    9.1907 C   0  0  0  0  0  0  0  0  0  0  0  0
   77.6193    5.1819    8.9659 H   0  0  0  0  0  0  0  0  0  0  0  0
   77.3463    4.4458    7.4522 H   0  0  0  0  0  0  0  0  0  0  0  0
   72.2068    3.6735    4.8760 C   0  0  0  0  0  0  0  0  0  0  0  0
   71.7515    4.9006    5.6732 C   0  0  0  0  0  0  0  0  0  0  0  0
   70.4627    4.7552    6.1052 O   0  0  0  0  0  0  0  0  0  0  0  0
   69.2386    4.6712    5.1288 P   0  0  0  0  0  0  0  0  0  0  0  0
   68.6537    6.0045    4.9968 O   0  0  0  0  0  0  0  0  0  0  0  0
   68.3070    3.5607    5.6302 O   0  0  0  0  0  0  0  0  0  0  0  0
   68.7970    2.7250    5.6789 H   0  0  0  0  0  0  0  0  0  0  0  0
   69.7943    4.3341    3.6470 O   0  0  0  0  0  0  0  0  0  0  0  0
   69.0487    3.5490    2.4305 P   0  0  0  0  0  0  0  0  0  0  0  0
   70.0807    3.4089    1.2964 O   0  0  0  0  0  0  0  0  0  0  0  0
   68.6897    2.1388    2.9494 O   0  0  0  0  0  0  0  0  0  0  0  0
   67.8738    4.3909    2.0027 O   0  0  0  0  0  0  0  0  0  0  0  0
   68.1901    5.2540    1.6933 H   0  0  0  0  0  0  0  0  0  0  0  0
  8  9  2  0  0  0
  8 15  1  0  0  0
  9 10  1  0  0  0
  9 11  1  0  0  0
 11 12  2  0  0  0
 12 13  1  0  0  0
 12 14  1  0  0  0
 14 15  2  0  0  0
 14  7  1  0  0  0
  7  1  1  0  0  0
  1  2  2  0  0  0
  1  5  1  0  0  0
  2  3  1  0  0  0
  3  4  1  0  0  0
  4  5  2  0  0  0
  4 18  1  0  0  0
  5  6  1  0  0  0
 18 19  1  0  0  0
 19 20  1  0  0  0
 20 21  1  0  0  0
 21 25  1  0  0  0
 21 22  2  0  0  0
 21 23  1  0  0  0
 25 26  1  0  0  0
 26 27  2  0  0  0
 26 28  1  0  0  0
 26 29  1  0  0  0
 13 16  1  0  0  0
 13 17  1  0  0  0
 23 24  1  0  0  0
 29 30  1  0  0  0
M  CHG 1   1   1
M  CHG 1  28  -1
M  END
> <minimizedAffinity>
-7.47550

$$$$
