3PO6_DT9_A_262


 21 22  0  0  0  0  0  0  0  0999 V2000
   -4.4797    1.3306   14.9429 C   0  0  0  0  0  0  0  0  0  0  0  0
   -4.3245    6.0358   14.6277 C   0  0  0  0  0  0  0  0  0  0  0  0
   -2.6190    3.8376   14.6170 C   0  0  0  0  0  0  0  0  0  0  0  0
   -6.1191    4.8471   15.8954 C   0  0  0  0  0  0  0  0  0  0  0  0
   -6.5810    3.3939   16.0551 C   0  0  0  0  0  0  0  0  0  0  0  0
   -4.7246    4.8644   15.2630 C   0  0  0  0  0  0  0  0  0  0  0  0
   -3.0853    6.1218   13.9928 C   0  0  0  0  0  0  0  0  0  0  0  0
   -2.2237    5.0265   13.9702 C   0  0  0  0  0  0  0  0  0  0  0  0
   -3.8646    3.7562   15.2449 C   0  0  0  0  0  0  0  0  0  0  0  0
   -4.2757    2.4534   15.9469 C   0  0  0  0  0  0  0  0  0  0  0  0
   -5.4744    2.7301   16.7866 N   0  0  0  0  0  0  0  0  0  0  0  0
   -7.5462    1.1589   16.9380 N   0  0  0  0  0  0  0  0  0  0  0  0
   -5.2929    0.4569   17.9716 O   0  0  0  0  0  0  0  0  0  0  0  0
   -6.2229    2.3871   19.0419 O   0  0  0  0  0  0  0  0  0  0  0  0
   -6.1126    1.6469   17.7599 S   0  0  0  0  0  0  0  0  0  0  0  0
   -8.0328    0.4544   17.4924 H   0  0  0  0  0  0  0  0  0  0  0  0
   -7.3002    0.7662   16.0294 H   0  0  0  0  0  0  0  0  0  0  0  0
   -3.3625    7.4186   12.0972 C   0  0  0  0  0  0  0  0  0  0  0  0
   -2.6888    7.2836   13.3657 O   0  0  0  0  0  0  0  0  0  0  0  0
   -0.8517    4.5291   12.1003 C   0  0  0  0  0  0  0  0  0  0  0  0
   -1.0110    5.2088   13.3409 O   0  0  0  0  0  0  0  0  0  0  0  0
 18 19  1  0  0  0
 20 21  1  0  0  0
  1 10  1  0  0  0
 12 15  1  0  0  0
 13 15  2  0  0  0
 14 15  2  0  0  0
  2  6  2  0  0  0
  2  7  1  0  0  0
  3  8  1  0  0  0
  3  9  2  0  0  0
  4  5  1  0  0  0
  4  6  1  0  0  0
  5 11  1  0  0  0
 19  7  1  0  0  0
 21  8  1  0  0  0
  6  9  1  0  0  0
  7  8  2  0  0  0
  9 10  1  0  0  0
 10 11  1  0  0  0
 11 15  1  0  0  0
 12 16  1  0  0  0
 12 17  1  0  0  0
M  END
> <minimizedAffinity>
-7.22704

$$$$
3PO6_DT9_A_262


 21 22  0  0  0  0  0  0  0  0999 V2000
   -4.5647    4.2817   15.2342 C   0  0  0  0  0  0  0  0  0  0  0  0
   -3.7534    0.5574   12.4530 C   0  0  0  0  0  0  0  0  0  0  0  0
   -4.6532    3.1854   12.2941 C   0  0  0  0  0  0  0  0  0  0  0  0
   -4.3927    0.3083   14.8551 C   0  0  0  0  0  0  0  0  0  0  0  0
   -4.5454    1.2440   16.0600 C   0  0  0  0  0  0  0  0  0  0  0  0
   -4.3317    1.1448   13.5740 C   0  0  0  0  0  0  0  0  0  0  0  0
   -3.6235    1.2646   11.2575 C   0  0  0  0  0  0  0  0  0  0  0  0
   -4.0605    2.5848   11.1646 C   0  0  0  0  0  0  0  0  0  0  0  0
   -4.7737    2.4736   13.4904 C   0  0  0  0  0  0  0  0  0  0  0  0
   -5.4253    3.1443   14.7089 C   0  0  0  0  0  0  0  0  0  0  0  0
   -5.7140    2.0941   15.7250 N   0  0  0  0  0  0  0  0  0  0  0  0
   -7.5823    1.0581   17.2149 N   0  0  0  0  0  0  0  0  0  0  0  0
   -5.6718    2.4248   18.2731 O   0  0  0  0  0  0  0  0  0  0  0  0
   -7.0507    3.7520   16.8335 O   0  0  0  0  0  0  0  0  0  0  0  0
   -6.5028    2.3934   17.0726 S   0  0  0  0  0  0  0  0  0  0  0  0
   -8.1405    1.1609   18.0624 H   0  0  0  0  0  0  0  0  0  0  0  0
   -7.0466    0.1914   17.2638 H   0  0  0  0  0  0  0  0  0  0  0  0
   -3.3068   -0.7392   10.1455 C   0  0  0  0  0  0  0  0  0  0  0  0
   -3.0527    0.6809   10.1467 O   0  0  0  0  0  0  0  0  0  0  0  0
   -3.2185    4.4400    9.9498 C   0  0  0  0  0  0  0  0  0  0  0  0
   -3.9139    3.1979    9.9388 O   0  0  0  0  0  0  0  0  0  0  0  0
 18 19  1  0  0  0
 20 21  1  0  0  0
  1 10  1  0  0  0
 12 15  1  0  0  0
 13 15  2  0  0  0
 14 15  2  0  0  0
  2  6  2  0  0  0
  2  7  1  0  0  0
  3  8  1  0  0  0
  3  9  2  0  0  0
  4  5  1  0  0  0
  4  6  1  0  0  0
  5 11  1  0  0  0
 19  7  1  0  0  0
 21  8  1  0  0  0
  6  9  1  0  0  0
  7  8  2  0  0  0
  9 10  1  0  0  0
 10 11  1  0  0  0
 11 15  1  0  0  0
 12 16  1  0  0  0
 12 17  1  0  0  0
M  END
> <minimizedAffinity>
-6.95767

$$$$
3PO6_DT9_A_262


 21 22  0  0  0  0  0  0  0  0999 V2000
   -4.5057    1.4692   14.6180 C   0  0  0  0  0  0  0  0  0  0  0  0
   -4.1347    6.1695   14.7985 C   0  0  0  0  0  0  0  0  0  0  0  0
   -2.5367    3.9112   14.5020 C   0  0  0  0  0  0  0  0  0  0  0  0
   -5.9503    4.9328   15.9881 C   0  0  0  0  0  0  0  0  0  0  0  0
   -6.4766    3.4929   16.0071 C   0  0  0  0  0  0  0  0  0  0  0  0
   -4.5735    4.9556   15.3182 C   0  0  0  0  0  0  0  0  0  0  0  0
   -2.9098    6.2677   14.1382 C   0  0  0  0  0  0  0  0  0  0  0  0
   -2.1023    5.1438   13.9730 C   0  0  0  0  0  0  0  0  0  0  0  0
   -3.7680    3.8186   15.1561 C   0  0  0  0  0  0  0  0  0  0  0  0
   -4.2223    2.4676   15.7284 C   0  0  0  0  0  0  0  0  0  0  0  0
   -5.3841    2.7057   16.6295 N   0  0  0  0  0  0  0  0  0  0  0  0
   -6.3777    2.3251   19.0069 N   0  0  0  0  0  0  0  0  0  0  0  0
   -7.3103    1.0406   16.9775 O   0  0  0  0  0  0  0  0  0  0  0  0
   -5.0302    0.4748   17.4429 O   0  0  0  0  0  0  0  0  0  0  0  0
   -6.0476    1.5539   17.5018 S   0  0  0  0  0  0  0  0  0  0  0  0
   -6.8113    1.6565   19.6436 H   0  0  0  0  0  0  0  0  0  0  0  0
   -7.0113    3.1099   18.8550 H   0  0  0  0  0  0  0  0  0  0  0  0
   -1.9399    8.2966   14.6813 C   0  0  0  0  0  0  0  0  0  0  0  0
   -2.4748    7.4713   13.6258 O   0  0  0  0  0  0  0  0  0  0  0  0
   -0.7898    4.7530   12.0362 C   0  0  0  0  0  0  0  0  0  0  0  0
   -0.8991    5.3384   13.3292 O   0  0  0  0  0  0  0  0  0  0  0  0
 18 19  1  0  0  0
 20 21  1  0  0  0
  1 10  1  0  0  0
 12 15  1  0  0  0
 13 15  2  0  0  0
 14 15  2  0  0  0
  2  6  2  0  0  0
  2  7  1  0  0  0
  3  8  1  0  0  0
  3  9  2  0  0  0
  4  5  1  0  0  0
  4  6  1  0  0  0
  5 11  1  0  0  0
 19  7  1  0  0  0
 21  8  1  0  0  0
  6  9  1  0  0  0
  7  8  2  0  0  0
  9 10  1  0  0  0
 10 11  1  0  0  0
 11 15  1  0  0  0
 12 16  1  0  0  0
 12 17  1  0  0  0
M  END
> <minimizedAffinity>
-6.77579

$$$$
3PO6_DT9_A_262


 21 22  0  0  0  0  0  0  0  0999 V2000
   -4.5719    1.4288   12.9789 C   0  0  0  0  0  0  0  0  0  0  0  0
   -6.0550    5.9076   13.0416 C   0  0  0  0  0  0  0  0  0  0  0  0
   -4.0123    4.3495   11.9735 C   0  0  0  0  0  0  0  0  0  0  0  0
   -6.4883    4.3374   14.9356 C   0  0  0  0  0  0  0  0  0  0  0  0
   -6.3315    2.8320   15.1800 C   0  0  0  0  0  0  0  0  0  0  0  0
   -5.6934    4.7291   13.6867 C   0  0  0  0  0  0  0  0  0  0  0  0
   -5.4074    6.3163   11.8754 C   0  0  0  0  0  0  0  0  0  0  0  0
   -4.3889    5.5420   11.3225 C   0  0  0  0  0  0  0  0  0  0  0  0
   -4.6699    3.9426   13.1373 C   0  0  0  0  0  0  0  0  0  0  0  0
   -4.2429    2.6419   13.8337 C   0  0  0  0  0  0  0  0  0  0  0  0
   -4.8653    2.6068   15.1865 N   0  0  0  0  0  0  0  0  0  0  0  0
   -5.4758    1.9327   17.6271 N   0  0  0  0  0  0  0  0  0  0  0  0
   -4.9798    0.1284   15.8561 O   0  0  0  0  0  0  0  0  0  0  0  0
   -3.0684    1.4932   16.3244 O   0  0  0  0  0  0  0  0  0  0  0  0
   -4.5507    1.4676   16.2499 S   0  0  0  0  0  0  0  0  0  0  0  0
   -5.3377    1.2528   18.3748 H   0  0  0  0  0  0  0  0  0  0  0  0
   -6.4640    1.9671   17.3770 H   0  0  0  0  0  0  0  0  0  0  0  0
   -7.1444    7.8017   11.5171 C   0  0  0  0  0  0  0  0  0  0  0  0
   -5.7647    7.4854   11.2383 O   0  0  0  0  0  0  0  0  0  0  0  0
   -3.1529    5.0677    9.3543 C   0  0  0  0  0  0  0  0  0  0  0  0
   -3.7895    6.0344   10.1832 O   0  0  0  0  0  0  0  0  0  0  0  0
 18 19  1  0  0  0
 20 21  1  0  0  0
  1 10  1  0  0  0
 12 15  1  0  0  0
 13 15  2  0  0  0
 14 15  2  0  0  0
  2  6  2  0  0  0
  2  7  1  0  0  0
  3  8  1  0  0  0
  3  9  2  0  0  0
  4  5  1  0  0  0
  4  6  1  0  0  0
  5 11  1  0  0  0
 19  7  1  0  0  0
 21  8  1  0  0  0
  6  9  1  0  0  0
  7  8  2  0  0  0
  9 10  1  0  0  0
 10 11  1  0  0  0
 11 15  1  0  0  0
 12 16  1  0  0  0
 12 17  1  0  0  0
M  END
> <minimizedAffinity>
-6.50412

$$$$
3PO6_DT9_A_262


 21 22  0  0  0  0  0  0  0  0999 V2000
   -2.6911    4.8945   12.5371 C   0  0  0  0  0  0  0  0  0  0  0  0
   -6.3713    3.9273   15.3270 C   0  0  0  0  0  0  0  0  0  0  0  0
   -4.0681    2.7214   14.3358 C   0  0  0  0  0  0  0  0  0  0  0  0
   -6.5229    5.5655   13.4472 C   0  0  0  0  0  0  0  0  0  0  0  0
   -5.5346    6.2442   12.4914 C   0  0  0  0  0  0  0  0  0  0  0  0
   -5.8304    4.3817   14.1283 C   0  0  0  0  0  0  0  0  0  0  0  0
   -5.7785    2.8789   16.0312 C   0  0  0  0  0  0  0  0  0  0  0  0
   -4.6191    2.2710   15.5529 C   0  0  0  0  0  0  0  0  0  0  0  0
   -4.6631    3.7765   13.6393 C   0  0  0  0  0  0  0  0  0  0  0  0
   -4.0497    4.2507   12.3134 C   0  0  0  0  0  0  0  0  0  0  0  0
   -5.0300    5.1433   11.6347 N   0  0  0  0  0  0  0  0  0  0  0  0
   -3.9332    4.4730    9.3694 N   0  0  0  0  0  0  0  0  0  0  0  0
   -6.0161    5.9886    9.4172 O   0  0  0  0  0  0  0  0  0  0  0  0
   -4.1166    7.0201   10.4484 O   0  0  0  0  0  0  0  0  0  0  0  0
   -4.7952    5.7285   10.1752 S   0  0  0  0  0  0  0  0  0  0  0  0
   -3.7332    4.7589    8.4109 H   0  0  0  0  0  0  0  0  0  0  0  0
   -4.4986    3.6241    9.3601 H   0  0  0  0  0  0  0  0  0  0  0  0
   -7.3759    1.4842   16.9558 C   0  0  0  0  0  0  0  0  0  0  0  0
   -6.3164    2.4278   17.2175 O   0  0  0  0  0  0  0  0  0  0  0  0
   -4.1815   -0.0563   15.6911 C   0  0  0  0  0  0  0  0  0  0  0  0
   -4.1160    1.2284   16.3011 O   0  0  0  0  0  0  0  0  0  0  0  0
 18 19  1  0  0  0
 20 21  1  0  0  0
  1 10  1  0  0  0
 12 15  1  0  0  0
 13 15  2  0  0  0
 14 15  2  0  0  0
  2  6  2  0  0  0
  2  7  1  0  0  0
  3  8  1  0  0  0
  3  9  2  0  0  0
  4  5  1  0  0  0
  4  6  1  0  0  0
  5 11  1  0  0  0
 19  7  1  0  0  0
 21  8  1  0  0  0
  6  9  1  0  0  0
  7  8  2  0  0  0
  9 10  1  0  0  0
 10 11  1  0  0  0
 11 15  1  0  0  0
 12 16  1  0  0  0
 12 17  1  0  0  0
M  END
> <minimizedAffinity>
-6.35294

$$$$
3PO6_DT9_A_262


 21 22  0  0  0  0  0  0  0  0999 V2000
   -6.7172    4.3122   16.7115 C   0  0  0  0  0  0  0  0  0  0  0  0
   -3.6662    4.5088   13.1177 C   0  0  0  0  0  0  0  0  0  0  0  0
   -6.3010    5.1689   13.7204 C   0  0  0  0  0  0  0  0  0  0  0  0
   -3.5287    2.7465   14.8829 C   0  0  0  0  0  0  0  0  0  0  0  0
   -4.1965    2.4868   16.2384 C   0  0  0  0  0  0  0  0  0  0  0  0
   -4.3252    3.8137   14.1269 C   0  0  0  0  0  0  0  0  0  0  0  0
   -4.3077    5.5234   12.4068 C   0  0  0  0  0  0  0  0  0  0  0  0
   -5.6241    5.8724   12.7033 C   0  0  0  0  0  0  0  0  0  0  0  0
   -5.6501    4.1585   14.4331 C   0  0  0  0  0  0  0  0  0  0  0  0
   -6.4056    3.4012   15.5354 C   0  0  0  0  0  0  0  0  0  0  0  0
   -5.6126    2.1961   15.9058 N   0  0  0  0  0  0  0  0  0  0  0  0
   -5.6721    1.7225   18.4663 N   0  0  0  0  0  0  0  0  0  0  0  0
   -7.5892    0.9222   16.9425 O   0  0  0  0  0  0  0  0  0  0  0  0
   -5.5091   -0.1458   16.4246 O   0  0  0  0  0  0  0  0  0  0  0  0
   -6.1397    1.0996   16.9294 S   0  0  0  0  0  0  0  0  0  0  0  0
   -5.9709    1.0790   19.1992 H   0  0  0  0  0  0  0  0  0  0  0  0
   -6.1108    2.6316   18.6125 H   0  0  0  0  0  0  0  0  0  0  0  0
   -3.3053    5.3107   10.3327 C   0  0  0  0  0  0  0  0  0  0  0  0
   -3.6548    6.2098   11.4055 O   0  0  0  0  0  0  0  0  0  0  0  0
   -7.5362    7.1981   12.2420 C   0  0  0  0  0  0  0  0  0  0  0  0
   -6.1855    6.8697   11.9350 O   0  0  0  0  0  0  0  0  0  0  0  0
 18 19  1  0  0  0
 20 21  1  0  0  0
  1 10  1  0  0  0
 12 15  1  0  0  0
 13 15  2  0  0  0
 14 15  2  0  0  0
  2  6  2  0  0  0
  2  7  1  0  0  0
  3  8  1  0  0  0
  3  9  2  0  0  0
  4  5  1  0  0  0
  4  6  1  0  0  0
  5 11  1  0  0  0
 19  7  1  0  0  0
 21  8  1  0  0  0
  6  9  1  0  0  0
  7  8  2  0  0  0
  9 10  1  0  0  0
 10 11  1  0  0  0
 11 15  1  0  0  0
 12 16  1  0  0  0
 12 17  1  0  0  0
M  END
> <minimizedAffinity>
-6.29428

$$$$
3PO6_DT9_A_262


 21 22  0  0  0  0  0  0  0  0999 V2000
   -3.2271    4.3745   11.0696 C   0  0  0  0  0  0  0  0  0  0  0  0
   -4.9242    2.4444   15.0265 C   0  0  0  0  0  0  0  0  0  0  0  0
   -4.3407    1.7557   12.3947 C   0  0  0  0  0  0  0  0  0  0  0  0
   -5.2061    4.8710   14.5044 C   0  0  0  0  0  0  0  0  0  0  0  0
   -4.6559    5.8465   13.4574 C   0  0  0  0  0  0  0  0  0  0  0  0
   -4.9255    3.4358   14.0503 C   0  0  0  0  0  0  0  0  0  0  0  0
   -4.6392    1.1176   14.7029 C   0  0  0  0  0  0  0  0  0  0  0  0
   -4.3355    0.7582   13.3910 C   0  0  0  0  0  0  0  0  0  0  0  0
   -4.6201    3.0839   12.7271 C   0  0  0  0  0  0  0  0  0  0  0  0
   -4.6242    4.1557   11.6269 C   0  0  0  0  0  0  0  0  0  0  0  0
   -5.2492    5.3909   12.1764 N   0  0  0  0  0  0  0  0  0  0  0  0
   -5.8987    6.0236    9.7347 N   0  0  0  0  0  0  0  0  0  0  0  0
   -6.6921    7.4670   11.7158 O   0  0  0  0  0  0  0  0  0  0  0  0
   -4.3095    7.4854   11.4734 O   0  0  0  0  0  0  0  0  0  0  0  0
   -5.5406    6.6770   11.2882 S   0  0  0  0  0  0  0  0  0  0  0  0
   -6.1024    6.7831    9.0851 H   0  0  0  0  0  0  0  0  0  0  0  0
   -6.7094    5.4083    9.8033 H   0  0  0  0  0  0  0  0  0  0  0  0
   -5.4561    0.5413   16.7892 C   0  0  0  0  0  0  0  0  0  0  0  0
   -4.6405    0.1356   15.6704 O   0  0  0  0  0  0  0  0  0  0  0  0
   -4.0685   -0.9726   11.7912 C   0  0  0  0  0  0  0  0  0  0  0  0
   -4.0902   -0.5781   13.1589 O   0  0  0  0  0  0  0  0  0  0  0  0
 18 19  1  0  0  0
 20 21  1  0  0  0
  1 10  1  0  0  0
 12 15  1  0  0  0
 13 15  2  0  0  0
 14 15  2  0  0  0
  2  6  2  0  0  0
  2  7  1  0  0  0
  3  8  1  0  0  0
  3  9  2  0  0  0
  4  5  1  0  0  0
  4  6  1  0  0  0
  5 11  1  0  0  0
 19  7  1  0  0  0
 21  8  1  0  0  0
  6  9  1  0  0  0
  7  8  2  0  0  0
  9 10  1  0  0  0
 10 11  1  0  0  0
 11 15  1  0  0  0
 12 16  1  0  0  0
 12 17  1  0  0  0
M  END
> <minimizedAffinity>
-6.14384

$$$$
3PO6_DT9_A_262


 21 22  0  0  0  0  0  0  0  0999 V2000
   -3.0058    5.4482   11.7170 C   0  0  0  0  0  0  0  0  0  0  0  0
   -6.2725    4.3115   14.9263 C   0  0  0  0  0  0  0  0  0  0  0  0
   -4.0542    3.2131   13.6559 C   0  0  0  0  0  0  0  0  0  0  0  0
   -6.7254    5.9422   13.0888 C   0  0  0  0  0  0  0  0  0  0  0  0
   -5.8923    6.6661   12.0245 C   0  0  0  0  0  0  0  0  0  0  0  0
   -5.9023    4.7910   13.6737 C   0  0  0  0  0  0  0  0  0  0  0  0
   -5.5516    3.2911   15.5470 C   0  0  0  0  0  0  0  0  0  0  0  0
   -4.4324    2.7372   14.9280 C   0  0  0  0  0  0  0  0  0  0  0  0
   -4.7767    4.2403   13.0431 C   0  0  0  0  0  0  0  0  0  0  0  0
   -4.3509    4.7430   11.6556 C   0  0  0  0  0  0  0  0  0  0  0  0
   -5.4459    5.5901   11.1062 N   0  0  0  0  0  0  0  0  0  0  0  0
   -4.8865    7.8094    9.8630 N   0  0  0  0  0  0  0  0  0  0  0  0
   -4.4745    5.5336    8.7277 O   0  0  0  0  0  0  0  0  0  0  0  0
   -6.7977    5.9315    9.1517 O   0  0  0  0  0  0  0  0  0  0  0  0
   -5.4167    6.1863    9.6326 S   0  0  0  0  0  0  0  0  0  0  0  0
   -4.8352    8.2817    8.9604 H   0  0  0  0  0  0  0  0  0  0  0  0
   -3.9641    7.8072   10.2984 H   0  0  0  0  0  0  0  0  0  0  0  0
   -7.1325    2.0395   16.6811 C   0  0  0  0  0  0  0  0  0  0  0  0
   -5.9206    2.8150   16.7869 O   0  0  0  0  0  0  0  0  0  0  0  0
   -4.3977    0.4332   15.4910 C   0  0  0  0  0  0  0  0  0  0  0  0
   -3.7954    1.7183   15.6032 O   0  0  0  0  0  0  0  0  0  0  0  0
 18 19  1  0  0  0
 20 21  1  0  0  0
  1 10  1  0  0  0
 12 15  1  0  0  0
 13 15  2  0  0  0
 14 15  2  0  0  0
  2  6  2  0  0  0
  2  7  1  0  0  0
  3  8  1  0  0  0
  3  9  2  0  0  0
  4  5  1  0  0  0
  4  6  1  0  0  0
  5 11  1  0  0  0
 19  7  1  0  0  0
 21  8  1  0  0  0
  6  9  1  0  0  0
  7  8  2  0  0  0
  9 10  1  0  0  0
 10 11  1  0  0  0
 11 15  1  0  0  0
 12 16  1  0  0  0
 12 17  1  0  0  0
M  END
> <minimizedAffinity>
-6.02302

$$$$
3PO6_DT9_A_262


 21 22  0  0  0  0  0  0  0  0999 V2000
   -4.6941    0.9106   12.2505 C   0  0  0  0  0  0  0  0  0  0  0  0
   -3.2768    5.3981   11.9093 C   0  0  0  0  0  0  0  0  0  0  0  0
   -2.6049    2.8689   10.9643 C   0  0  0  0  0  0  0  0  0  0  0  0
   -4.4158    4.5155   13.9500 C   0  0  0  0  0  0  0  0  0  0  0  0
   -5.1508    3.2259   14.3339 C   0  0  0  0  0  0  0  0  0  0  0  0
   -3.6283    4.2793   12.6581 C   0  0  0  0  0  0  0  0  0  0  0  0
   -2.5930    5.2678   10.7003 C   0  0  0  0  0  0  0  0  0  0  0  0
   -2.2578    4.0074   10.2086 C   0  0  0  0  0  0  0  0  0  0  0  0
   -3.2960    3.0064   12.1710 C   0  0  0  0  0  0  0  0  0  0  0  0
   -3.6624    1.7542   12.9814 C   0  0  0  0  0  0  0  0  0  0  0  0
   -4.0951    2.1838   14.3403 N   0  0  0  0  0  0  0  0  0  0  0  0
   -6.0102    1.6226   16.0140 N   0  0  0  0  0  0  0  0  0  0  0  0
   -4.4991   -0.2437   15.0806 O   0  0  0  0  0  0  0  0  0  0  0  0
   -3.2859    1.3201   16.4292 O   0  0  0  0  0  0  0  0  0  0  0  0
   -4.4334    1.1529   15.5025 S   0  0  0  0  0  0  0  0  0  0  0  0
   -6.3191    1.0104   16.7691 H   0  0  0  0  0  0  0  0  0  0  0  0
   -6.6582    1.5487   15.2298 H   0  0  0  0  0  0  0  0  0  0  0  0
   -3.3106    7.3471    9.9838 C   0  0  0  0  0  0  0  0  0  0  0  0
   -2.2430    6.3769    9.9603 O   0  0  0  0  0  0  0  0  0  0  0  0
   -0.1963    3.5857    9.1138 C   0  0  0  0  0  0  0  0  0  0  0  0
   -1.5624    3.9747    9.0190 O   0  0  0  0  0  0  0  0  0  0  0  0
 18 19  1  0  0  0
 20 21  1  0  0  0
  1 10  1  0  0  0
 12 15  1  0  0  0
 13 15  2  0  0  0
 14 15  2  0  0  0
  2  6  2  0  0  0
  2  7  1  0  0  0
  3  8  1  0  0  0
  3  9  2  0  0  0
  4  5  1  0  0  0
  4  6  1  0  0  0
  5 11  1  0  0  0
 19  7  1  0  0  0
 21  8  1  0  0  0
  6  9  1  0  0  0
  7  8  2  0  0  0
  9 10  1  0  0  0
 10 11  1  0  0  0
 11 15  1  0  0  0
 12 16  1  0  0  0
 12 17  1  0  0  0
M  END
> <minimizedAffinity>
-5.90734

$$$$
3PO6_DT9_A_262


 21 22  0  0  0  0  0  0  0  0999 V2000
   -4.5952    1.3696   13.8505 C   0  0  0  0  0  0  0  0  0  0  0  0
   -4.6162    6.0864   13.7317 C   0  0  0  0  0  0  0  0  0  0  0  0
   -2.8883    3.9474   13.3071 C   0  0  0  0  0  0  0  0  0  0  0  0
   -6.1172    4.7884   15.2493 C   0  0  0  0  0  0  0  0  0  0  0  0
   -6.5060    3.3155   15.4228 C   0  0  0  0  0  0  0  0  0  0  0  0
   -4.8637    4.8773   14.3742 C   0  0  0  0  0  0  0  0  0  0  0  0
   -3.5174    6.2390   12.8857 C   0  0  0  0  0  0  0  0  0  0  0  0
   -2.6481    5.1742   12.6551 C   0  0  0  0  0  0  0  0  0  0  0  0
   -3.9947    3.7995   14.1476 C   0  0  0  0  0  0  0  0  0  0  0  0
   -4.2376    2.4561   14.8514 C   0  0  0  0  0  0  0  0  0  0  0  0
   -5.2676    2.6585   15.9080 N   0  0  0  0  0  0  0  0  0  0  0  0
   -6.0599    2.3803   18.3735 N   0  0  0  0  0  0  0  0  0  0  0  0
   -6.8779    0.7598   16.5453 O   0  0  0  0  0  0  0  0  0  0  0  0
   -4.5150    0.6081   16.9046 O   0  0  0  0  0  0  0  0  0  0  0  0
   -5.6891    1.5158   16.9300 S   0  0  0  0  0  0  0  0  0  0  0  0
   -6.3454    1.7232   19.0996 H   0  0  0  0  0  0  0  0  0  0  0  0
   -6.8192    3.0366   18.1913 H   0  0  0  0  0  0  0  0  0  0  0  0
   -4.2863    7.6917   11.2578 C   0  0  0  0  0  0  0  0  0  0  0  0
   -3.2717    7.4380   12.2516 O   0  0  0  0  0  0  0  0  0  0  0  0
   -0.3174    5.5743   12.4701 C   0  0  0  0  0  0  0  0  0  0  0  0
   -1.5768    5.4219   11.8240 O   0  0  0  0  0  0  0  0  0  0  0  0
 18 19  1  0  0  0
 20 21  1  0  0  0
  1 10  1  0  0  0
 12 15  1  0  0  0
 13 15  2  0  0  0
 14 15  2  0  0  0
  2  6  2  0  0  0
  2  7  1  0  0  0
  3  8  1  0  0  0
  3  9  2  0  0  0
  4  5  1  0  0  0
  4  6  1  0  0  0
  5 11  1  0  0  0
 19  7  1  0  0  0
 21  8  1  0  0  0
  6  9  1  0  0  0
  7  8  2  0  0  0
  9 10  1  0  0  0
 10 11  1  0  0  0
 11 15  1  0  0  0
 12 16  1  0  0  0
 12 17  1  0  0  0
M  END
> <minimizedAffinity>
-5.88999

$$$$
