2F94_BFQ_F_9001


 24 23  0  0  0  0  0  0  0  0999 V2000
   15.1079   77.5534   25.6449 C   0  0  0  0  0  0  0  0  0  0  0  0
   13.8364   77.6332   26.2871 O   0  0  0  0  0  0  0  0  0  0  0  0
   13.6572   76.8022   26.7541 H   0  0  0  0  0  0  0  0  0  0  0  0
   15.1147   76.1584   24.4722 P   0  0  0  0  0  0  0  0  0  0  0  0
   16.4410   75.9765   23.8149 O   0  0  0  0  0  0  0  0  0  0  0  0
   14.7267   74.8735   25.2843 O   0  0  0  0  0  0  0  0  0  0  0  0
   13.9341   76.4084   23.4413 O   0  0  0  0  0  0  0  0  0  0  0  0
   16.3978   75.2260   23.2019 H   0  0  0  0  0  0  0  0  0  0  0  0
   14.7196   74.1060   24.6912 H   0  0  0  0  0  0  0  0  0  0  0  0
   16.3984   77.2605   26.9143 P   0  0  0  0  0  0  0  0  0  0  0  0
   17.3239   78.3967   27.1448 O   0  0  0  0  0  0  0  0  0  0  0  0
   15.5824   76.8113   28.2072 O   0  0  0  0  0  0  0  0  0  0  0  0
   17.1691   75.9619   26.4120 O   0  0  0  0  0  0  0  0  0  0  0  0
   15.0898   77.5696   28.5582 H   0  0  0  0  0  0  0  0  0  0  0  0
   17.6864   76.1788   25.6207 H   0  0  0  0  0  0  0  0  0  0  0  0
   15.4021   78.8892   24.8910 C   0  0  0  0  0  0  0  0  0  0  0  0
   14.0929   79.7292   24.5990 C   0  0  0  0  0  0  0  0  0  0  0  0
   13.9329   81.0052   25.3593 N   0  0  0  0  0  0  0  0  0  0  0  0
   14.4315   80.9159   26.7372 C   0  0  0  0  0  0  0  0  0  0  0  0
   14.4609   82.1985   24.6738 C   0  0  0  0  0  0  0  0  0  0  0  0
   15.7990   82.6921   25.2733 C   0  0  0  0  0  0  0  0  0  0  0  0
   16.7725   82.8139   24.0774 C   0  0  0  0  0  0  0  0  0  0  0  0
   17.1777   84.2552   23.7742 C   0  0  0  0  0  0  0  0  0  0  0  0
   18.5000   84.2212   22.9643 C   0  0  0  0  0  0  0  0  0  0  0  0
  4  5  1  0  0  0
  4  6  1  0  0  0
  4  7  2  0  0  0
  4  1  1  0  0  0
  1 10  1  0  0  0
  1  2  1  0  0  0
  1 16  1  0  0  0
 10 11  2  0  0  0
 10 12  1  0  0  0
 10 13  1  0  0  0
 16 17  1  0  0  0
 17 18  1  0  0  0
 18 20  1  0  0  0
 18 19  1  0  0  0
 20 21  1  0  0  0
 21 22  1  0  0  0
 22 23  1  0  0  0
 23 24  1  0  0  0
  5  8  1  0  0  0
  6  9  1  0  0  0
 12 14  1  0  0  0
 13 15  1  0  0  0
  2  3  1  0  0  0
M  END
> <minimizedAffinity>
-8.66284

$$$$
2F94_BFQ_F_9001


 24 23  0  0  0  0  0  0  0  0999 V2000
   15.3245   77.7937   25.3463 C   0  0  0  0  0  0  0  0  0  0  0  0
   15.9703   78.7328   24.4879 O   0  0  0  0  0  0  0  0  0  0  0  0
   16.8070   78.3586   24.1706 H   0  0  0  0  0  0  0  0  0  0  0  0
   16.4131   77.4026   26.7545 P   0  0  0  0  0  0  0  0  0  0  0  0
   17.2900   78.5493   27.1292 O   0  0  0  0  0  0  0  0  0  0  0  0
   15.4856   77.0086   27.9568 O   0  0  0  0  0  0  0  0  0  0  0  0
   17.2244   76.0940   26.3691 O   0  0  0  0  0  0  0  0  0  0  0  0
   17.8496   78.2965   27.8800 H   0  0  0  0  0  0  0  0  0  0  0  0
   16.0314   76.7925   28.7290 H   0  0  0  0  0  0  0  0  0  0  0  0
   15.0020   76.2524   24.4068 P   0  0  0  0  0  0  0  0  0  0  0  0
   13.9069   76.3403   23.4101 O   0  0  0  0  0  0  0  0  0  0  0  0
   16.4186   75.8668   23.7872 O   0  0  0  0  0  0  0  0  0  0  0  0
   14.7010   75.1574   25.5218 O   0  0  0  0  0  0  0  0  0  0  0  0
   16.6542   76.5059   23.0965 H   0  0  0  0  0  0  0  0  0  0  0  0
   13.8438   75.3444   25.9355 H   0  0  0  0  0  0  0  0  0  0  0  0
   13.9760   78.3909   25.8606 C   0  0  0  0  0  0  0  0  0  0  0  0
   13.4562   79.5893   24.9672 C   0  0  0  0  0  0  0  0  0  0  0  0
   13.7945   80.9677   25.4335 N   0  0  0  0  0  0  0  0  0  0  0  0
   14.5002   80.9784   26.7208 C   0  0  0  0  0  0  0  0  0  0  0  0
   14.4878   81.8008   24.4345 C   0  0  0  0  0  0  0  0  0  0  0  0
   15.6134   82.6649   25.0508 C   0  0  0  0  0  0  0  0  0  0  0  0
   16.6749   82.8239   23.9369 C   0  0  0  0  0  0  0  0  0  0  0  0
   17.2310   84.2427   23.8320 C   0  0  0  0  0  0  0  0  0  0  0  0
   18.5469   84.1827   23.0133 C   0  0  0  0  0  0  0  0  0  0  0  0
  4  5  1  0  0  0
  4  6  1  0  0  0
  4  7  2  0  0  0
  4  1  1  0  0  0
  1 10  1  0  0  0
  1  2  1  0  0  0
  1 16  1  0  0  0
 10 11  2  0  0  0
 10 12  1  0  0  0
 10 13  1  0  0  0
 16 17  1  0  0  0
 17 18  1  0  0  0
 18 20  1  0  0  0
 18 19  1  0  0  0
 20 21  1  0  0  0
 21 22  1  0  0  0
 22 23  1  0  0  0
 23 24  1  0  0  0
  5  8  1  0  0  0
  6  9  1  0  0  0
 12 14  1  0  0  0
 13 15  1  0  0  0
  2  3  1  0  0  0
M  END
> <minimizedAffinity>
-8.49679

$$$$
2F94_BFQ_F_9001


 24 23  0  0  0  0  0  0  0  0999 V2000
   15.0733   78.7449   25.3599 C   0  0  0  0  0  0  0  0  0  0  0  0
   14.9421   78.3210   24.0039 O   0  0  0  0  0  0  0  0  0  0  0  0
   14.4188   77.5050   23.9694 H   0  0  0  0  0  0  0  0  0  0  0  0
   15.8840   77.4358   26.3346 P   0  0  0  0  0  0  0  0  0  0  0  0
   15.4706   76.0693   25.9035 O   0  0  0  0  0  0  0  0  0  0  0  0
   17.4315   77.6205   26.1550 O   0  0  0  0  0  0  0  0  0  0  0  0
   15.5737   77.7306   27.8630 O   0  0  0  0  0  0  0  0  0  0  0  0
   15.9251   75.4073   26.4476 H   0  0  0  0  0  0  0  0  0  0  0  0
   17.8995   76.9385   26.6616 H   0  0  0  0  0  0  0  0  0  0  0  0
   13.4028   79.0455   26.0538 P   0  0  0  0  0  0  0  0  0  0  0  0
   12.4377   79.6761   25.1204 O   0  0  0  0  0  0  0  0  0  0  0  0
   12.9440   77.6216   26.6028 O   0  0  0  0  0  0  0  0  0  0  0  0
   13.6580   79.9474   27.3399 O   0  0  0  0  0  0  0  0  0  0  0  0
   12.7734   77.0267   25.8559 H   0  0  0  0  0  0  0  0  0  0  0  0
   13.9418   80.8326   27.0629 H   0  0  0  0  0  0  0  0  0  0  0  0
   15.9153   80.0590   25.4218 C   0  0  0  0  0  0  0  0  0  0  0  0
   15.6492   81.0159   24.1897 C   0  0  0  0  0  0  0  0  0  0  0  0
   15.8551   82.4775   24.4205 N   0  0  0  0  0  0  0  0  0  0  0  0
   15.8098   82.8436   25.8414 C   0  0  0  0  0  0  0  0  0  0  0  0
   17.0452   83.0417   23.7586 C   0  0  0  0  0  0  0  0  0  0  0  0
   17.2893   84.5248   24.1254 C   0  0  0  0  0  0  0  0  0  0  0  0
   18.2886   85.0564   23.0711 C   0  0  0  0  0  0  0  0  0  0  0  0
   18.3791   86.5810   23.0410 C   0  0  0  0  0  0  0  0  0  0  0  0
   18.8071   87.0078   21.6127 C   0  0  0  0  0  0  0  0  0  0  0  0
  4  5  1  0  0  0
  4  6  1  0  0  0
  4  7  2  0  0  0
  4  1  1  0  0  0
  1 10  1  0  0  0
  1  2  1  0  0  0
  1 16  1  0  0  0
 10 11  2  0  0  0
 10 12  1  0  0  0
 10 13  1  0  0  0
 16 17  1  0  0  0
 17 18  1  0  0  0
 18 20  1  0  0  0
 18 19  1  0  0  0
 20 21  1  0  0  0
 21 22  1  0  0  0
 22 23  1  0  0  0
 23 24  1  0  0  0
  5  8  1  0  0  0
  6  9  1  0  0  0
 12 14  1  0  0  0
 13 15  1  0  0  0
  2  3  1  0  0  0
M  END
> <minimizedAffinity>
-8.44591

$$$$
2F94_BFQ_F_9001


 24 23  0  0  0  0  0  0  0  0999 V2000
   15.3790   77.8683   24.9920 C   0  0  0  0  0  0  0  0  0  0  0  0
   15.7891   77.6656   23.6406 O   0  0  0  0  0  0  0  0  0  0  0  0
   15.6799   76.7306   23.4064 H   0  0  0  0  0  0  0  0  0  0  0  0
   16.3792   76.8213   26.0987 P   0  0  0  0  0  0  0  0  0  0  0  0
   17.7294   77.3987   26.3586 O   0  0  0  0  0  0  0  0  0  0  0  0
   15.5796   76.6761   27.4406 O   0  0  0  0  0  0  0  0  0  0  0  0
   16.4315   75.3731   25.4513 O   0  0  0  0  0  0  0  0  0  0  0  0
   18.2244   76.8102   26.9499 H   0  0  0  0  0  0  0  0  0  0  0  0
   16.0826   76.1226   28.0584 H   0  0  0  0  0  0  0  0  0  0  0  0
   13.6180   77.3852   25.1585 P   0  0  0  0  0  0  0  0  0  0  0  0
   12.6987   78.0081   24.1749 O   0  0  0  0  0  0  0  0  0  0  0  0
   13.6418   75.7925   25.1113 O   0  0  0  0  0  0  0  0  0  0  0  0
   13.2347   77.7715   26.6540 O   0  0  0  0  0  0  0  0  0  0  0  0
   13.8718   75.4990   24.2158 H   0  0  0  0  0  0  0  0  0  0  0  0
   13.2053   78.7372   26.7410 H   0  0  0  0  0  0  0  0  0  0  0  0
   15.5526   79.3725   25.3751 C   0  0  0  0  0  0  0  0  0  0  0  0
   15.1026   80.3552   24.2190 C   0  0  0  0  0  0  0  0  0  0  0  0
   14.1810   81.4657   24.6051 N   0  0  0  0  0  0  0  0  0  0  0  0
   13.5597   81.2618   25.9195 C   0  0  0  0  0  0  0  0  0  0  0  0
   14.7636   82.8148   24.4904 C   0  0  0  0  0  0  0  0  0  0  0  0
   16.2691   82.7901   24.1352 C   0  0  0  0  0  0  0  0  0  0  0  0
   16.7740   84.2354   24.3568 C   0  0  0  0  0  0  0  0  0  0  0  0
   17.8417   84.6619   23.3511 C   0  0  0  0  0  0  0  0  0  0  0  0
   18.1569   86.1611   23.5933 C   0  0  0  0  0  0  0  0  0  0  0  0
  4  5  1  0  0  0
  4  6  1  0  0  0
  4  7  2  0  0  0
  4  1  1  0  0  0
  1 10  1  0  0  0
  1  2  1  0  0  0
  1 16  1  0  0  0
 10 11  2  0  0  0
 10 12  1  0  0  0
 10 13  1  0  0  0
 16 17  1  0  0  0
 17 18  1  0  0  0
 18 20  1  0  0  0
 18 19  1  0  0  0
 20 21  1  0  0  0
 21 22  1  0  0  0
 22 23  1  0  0  0
 23 24  1  0  0  0
  5  8  1  0  0  0
  6  9  1  0  0  0
 12 14  1  0  0  0
 13 15  1  0  0  0
  2  3  1  0  0  0
M  END
> <minimizedAffinity>
-8.34155

$$$$
2F94_BFQ_F_9001


 24 23  0  0  0  0  0  0  0  0999 V2000
   15.0425   79.0945   26.0816 C   0  0  0  0  0  0  0  0  0  0  0  0
   15.3646   79.8436   27.2524 O   0  0  0  0  0  0  0  0  0  0  0  0
   15.0295   79.3796   28.0355 H   0  0  0  0  0  0  0  0  0  0  0  0
   13.2355   78.8876   25.9654 P   0  0  0  0  0  0  0  0  0  0  0  0
   12.7863   77.5476   26.4413 O   0  0  0  0  0  0  0  0  0  0  0  0
   12.5864   80.0216   26.8336 O   0  0  0  0  0  0  0  0  0  0  0  0
   12.8264   79.1873   24.4614 O   0  0  0  0  0  0  0  0  0  0  0  0
   11.8217   77.4827   26.3614 H   0  0  0  0  0  0  0  0  0  0  0  0
   11.6202   79.9442   26.7964 H   0  0  0  0  0  0  0  0  0  0  0  0
   15.8172   77.4370   26.2037 P   0  0  0  0  0  0  0  0  0  0  0  0
   15.3292   76.4401   25.2195 O   0  0  0  0  0  0  0  0  0  0  0  0
   17.3816   77.7276   26.1168 O   0  0  0  0  0  0  0  0  0  0  0  0
   15.5421   76.9739   27.7012 O   0  0  0  0  0  0  0  0  0  0  0  0
   17.6075   78.0158   25.2186 H   0  0  0  0  0  0  0  0  0  0  0  0
   14.5978   76.7822   27.8121 H   0  0  0  0  0  0  0  0  0  0  0  0
   15.5798   79.8369   24.8169 C   0  0  0  0  0  0  0  0  0  0  0  0
   16.2292   81.2389   25.1590 C   0  0  0  0  0  0  0  0  0  0  0  0
   15.8148   82.3944   24.3076 N   0  0  0  0  0  0  0  0  0  0  0  0
   14.3872   82.7133   24.4326 C   0  0  0  0  0  0  0  0  0  0  0  0
   16.6493   83.5998   24.4603 C   0  0  0  0  0  0  0  0  0  0  0  0
   17.7799   83.6842   23.4077 C   0  0  0  0  0  0  0  0  0  0  0  0
   18.0628   85.1932   23.2189 C   0  0  0  0  0  0  0  0  0  0  0  0
   18.6226   85.5338   21.8391 C   0  0  0  0  0  0  0  0  0  0  0  0
   18.8918   87.0606   21.7944 C   0  0  0  0  0  0  0  0  0  0  0  0
  4  5  1  0  0  0
  4  6  1  0  0  0
  4  7  2  0  0  0
  4  1  1  0  0  0
  1 10  1  0  0  0
  1  2  1  0  0  0
  1 16  1  0  0  0
 10 11  2  0  0  0
 10 12  1  0  0  0
 10 13  1  0  0  0
 16 17  1  0  0  0
 17 18  1  0  0  0
 18 20  1  0  0  0
 18 19  1  0  0  0
 20 21  1  0  0  0
 21 22  1  0  0  0
 22 23  1  0  0  0
 23 24  1  0  0  0
  5  8  1  0  0  0
  6  9  1  0  0  0
 12 14  1  0  0  0
 13 15  1  0  0  0
  2  3  1  0  0  0
M  END
> <minimizedAffinity>
-7.98691

$$$$
2F94_BFQ_F_9001


 24 23  0  0  0  0  0  0  0  0999 V2000
   15.4589   78.4164   25.3986 C   0  0  0  0  0  0  0  0  0  0  0  0
   16.8462   78.3999   25.7315 O   0  0  0  0  0  0  0  0  0  0  0  0
   17.0364   77.6272   26.2861 H   0  0  0  0  0  0  0  0  0  0  0  0
   14.4641   78.4765   26.9244 P   0  0  0  0  0  0  0  0  0  0  0  0
   14.1620   79.8736   27.3499 O   0  0  0  0  0  0  0  0  0  0  0  0
   13.1354   77.6933   26.6378 O   0  0  0  0  0  0  0  0  0  0  0  0
   15.2456   77.6420   28.0253 O   0  0  0  0  0  0  0  0  0  0  0  0
   13.6329   79.8568   28.1627 H   0  0  0  0  0  0  0  0  0  0  0  0
   12.5767   77.7033   27.4307 H   0  0  0  0  0  0  0  0  0  0  0  0
   15.0469   76.8788   24.4885 P   0  0  0  0  0  0  0  0  0  0  0  0
   13.8848   76.9819   23.5722 O   0  0  0  0  0  0  0  0  0  0  0  0
   16.4097   76.4708   23.7703 O   0  0  0  0  0  0  0  0  0  0  0  0
   14.8099   75.7902   25.6249 O   0  0  0  0  0  0  0  0  0  0  0  0
   16.6049   77.1052   23.0630 H   0  0  0  0  0  0  0  0  0  0  0  0
   13.9873   75.9908   26.0982 H   0  0  0  0  0  0  0  0  0  0  0  0
   15.1463   79.6590   24.5053 C   0  0  0  0  0  0  0  0  0  0  0  0
   16.1455   80.8605   24.7555 C   0  0  0  0  0  0  0  0  0  0  0  0
   15.7445   82.1902   24.2054 N   0  0  0  0  0  0  0  0  0  0  0  0
   14.3621   82.5539   24.5401 C   0  0  0  0  0  0  0  0  0  0  0  0
   16.6779   83.2887   24.5134 C   0  0  0  0  0  0  0  0  0  0  0  0
   17.7528   83.4875   23.4186 C   0  0  0  0  0  0  0  0  0  0  0  0
   17.8583   85.0166   23.2099 C   0  0  0  0  0  0  0  0  0  0  0  0
   18.7921   85.4060   22.0655 C   0  0  0  0  0  0  0  0  0  0  0  0
   18.7238   86.9459   21.8938 C   0  0  0  0  0  0  0  0  0  0  0  0
  4  5  1  0  0  0
  4  6  1  0  0  0
  4  7  2  0  0  0
  4  1  1  0  0  0
  1 10  1  0  0  0
  1  2  1  0  0  0
  1 16  1  0  0  0
 10 11  2  0  0  0
 10 12  1  0  0  0
 10 13  1  0  0  0
 16 17  1  0  0  0
 17 18  1  0  0  0
 18 20  1  0  0  0
 18 19  1  0  0  0
 20 21  1  0  0  0
 21 22  1  0  0  0
 22 23  1  0  0  0
 23 24  1  0  0  0
  5  8  1  0  0  0
  6  9  1  0  0  0
 12 14  1  0  0  0
 13 15  1  0  0  0
  2  3  1  0  0  0
M  END
> <minimizedAffinity>
-7.85827

$$$$
2F94_BFQ_F_9001


 24 23  0  0  0  0  0  0  0  0999 V2000
   16.4949   77.1973   26.4674 C   0  0  0  0  0  0  0  0  0  0  0  0
   17.3799   78.1614   25.8992 O   0  0  0  0  0  0  0  0  0  0  0  0
   18.1732   77.7145   25.5647 H   0  0  0  0  0  0  0  0  0  0  0  0
   17.3382   76.3149   27.8207 P   0  0  0  0  0  0  0  0  0  0  0  0
   17.8765   74.9933   27.3874 O   0  0  0  0  0  0  0  0  0  0  0  0
   18.5016   77.2419   28.3189 O   0  0  0  0  0  0  0  0  0  0  0  0
   16.3073   76.2073   29.0227 O   0  0  0  0  0  0  0  0  0  0  0  0
   18.3150   74.5613   28.1370 H   0  0  0  0  0  0  0  0  0  0  0  0
   18.9762   76.8043   29.0429 H   0  0  0  0  0  0  0  0  0  0  0  0
   16.0284   75.9831   25.1749 P   0  0  0  0  0  0  0  0  0  0  0  0
   16.9288   74.8099   25.0590 O   0  0  0  0  0  0  0  0  0  0  0  0
   14.5154   75.6133   25.5114 O   0  0  0  0  0  0  0  0  0  0  0  0
   15.9814   76.8284   23.8273 O   0  0  0  0  0  0  0  0  0  0  0  0
   14.4839   75.0937   26.3299 H   0  0  0  0  0  0  0  0  0  0  0  0
   16.8825   77.0824   23.5734 H   0  0  0  0  0  0  0  0  0  0  0  0
   15.2152   77.9111   27.0081 C   0  0  0  0  0  0  0  0  0  0  0  0
   15.2277   79.4720   26.7471 C   0  0  0  0  0  0  0  0  0  0  0  0
   14.6140   79.9420   25.4688 N   0  0  0  0  0  0  0  0  0  0  0  0
   13.4797   79.1140   25.0410 C   0  0  0  0  0  0  0  0  0  0  0  0
   14.2719   81.3755   25.4427 C   0  0  0  0  0  0  0  0  0  0  0  0
   15.0919   82.1693   24.3983 C   0  0  0  0  0  0  0  0  0  0  0  0
   15.9848   83.1338   25.2141 C   0  0  0  0  0  0  0  0  0  0  0  0
   16.6311   84.2239   24.3612 C   0  0  0  0  0  0  0  0  0  0  0  0
   17.6677   83.5491   23.4254 C   0  0  0  0  0  0  0  0  0  0  0  0
  4  5  1  0  0  0
  4  6  1  0  0  0
  4  7  2  0  0  0
  4  1  1  0  0  0
  1 10  1  0  0  0
  1  2  1  0  0  0
  1 16  1  0  0  0
 10 11  2  0  0  0
 10 12  1  0  0  0
 10 13  1  0  0  0
 16 17  1  0  0  0
 17 18  1  0  0  0
 18 20  1  0  0  0
 18 19  1  0  0  0
 20 21  1  0  0  0
 21 22  1  0  0  0
 22 23  1  0  0  0
 23 24  1  0  0  0
  5  8  1  0  0  0
  6  9  1  0  0  0
 12 14  1  0  0  0
 13 15  1  0  0  0
  2  3  1  0  0  0
M  END
> <minimizedAffinity>
-7.56793

$$$$
2F94_BFQ_F_9001


 24 23  0  0  0  0  0  0  0  0999 V2000
   13.3134   77.9434   25.2060 C   0  0  0  0  0  0  0  0  0  0  0  0
   13.3200   77.8518   26.6298 O   0  0  0  0  0  0  0  0  0  0  0  0
   12.9299   77.0063   26.9012 H   0  0  0  0  0  0  0  0  0  0  0  0
   11.6023   77.8139   24.5923 P   0  0  0  0  0  0  0  0  0  0  0  0
   11.5380   77.7329   23.1046 O   0  0  0  0  0  0  0  0  0  0  0  0
   10.9791   76.5266   25.2369 O   0  0  0  0  0  0  0  0  0  0  0  0
   10.7976   79.0456   25.1876 O   0  0  0  0  0  0  0  0  0  0  0  0
   10.6118   77.6655   22.8242 H   0  0  0  0  0  0  0  0  0  0  0  0
   10.0640   76.4232   24.9326 H   0  0  0  0  0  0  0  0  0  0  0  0
   14.2922   76.5548   24.5158 P   0  0  0  0  0  0  0  0  0  0  0  0
   13.5034   75.5262   23.7944 O   0  0  0  0  0  0  0  0  0  0  0  0
   15.4071   77.2648   23.6257 O   0  0  0  0  0  0  0  0  0  0  0  0
   15.0590   75.9418   25.7683 O   0  0  0  0  0  0  0  0  0  0  0  0
   14.9927   77.6590   22.8423 H   0  0  0  0  0  0  0  0  0  0  0  0
   14.4239   75.4940   26.3488 H   0  0  0  0  0  0  0  0  0  0  0  0
   13.9407   79.3034   24.7627 C   0  0  0  0  0  0  0  0  0  0  0  0
   14.1477   80.3052   25.9702 C   0  0  0  0  0  0  0  0  0  0  0  0
   15.4866   80.9594   26.0753 N   0  0  0  0  0  0  0  0  0  0  0  0
   16.5116   80.0753   26.6434 C   0  0  0  0  0  0  0  0  0  0  0  0
   15.9572   81.5976   24.8327 C   0  0  0  0  0  0  0  0  0  0  0  0
   15.3586   83.0080   24.6185 C   0  0  0  0  0  0  0  0  0  0  0  0
   16.5706   83.9609   24.4920 C   0  0  0  0  0  0  0  0  0  0  0  0
   17.6137   83.4794   23.4853 C   0  0  0  0  0  0  0  0  0  0  0  0
   18.4401   84.7089   23.0259 C   0  0  0  0  0  0  0  0  0  0  0  0
  4  5  1  0  0  0
  4  6  1  0  0  0
  4  7  2  0  0  0
  4  1  1  0  0  0
  1 10  1  0  0  0
  1  2  1  0  0  0
  1 16  1  0  0  0
 10 11  2  0  0  0
 10 12  1  0  0  0
 10 13  1  0  0  0
 16 17  1  0  0  0
 17 18  1  0  0  0
 18 20  1  0  0  0
 18 19  1  0  0  0
 20 21  1  0  0  0
 21 22  1  0  0  0
 22 23  1  0  0  0
 23 24  1  0  0  0
  5  8  1  0  0  0
  6  9  1  0  0  0
 12 14  1  0  0  0
 13 15  1  0  0  0
  2  3  1  0  0  0
M  END
> <minimizedAffinity>
-7.55223

$$$$
2F94_BFQ_F_9001


 24 23  0  0  0  0  0  0  0  0999 V2000
   15.6908   77.3422   25.8855 C   0  0  0  0  0  0  0  0  0  0  0  0
   16.2892   78.4647   25.2393 O   0  0  0  0  0  0  0  0  0  0  0  0
   17.0939   78.1811   24.7779 H   0  0  0  0  0  0  0  0  0  0  0  0
   16.8718   76.6159   27.0684 P   0  0  0  0  0  0  0  0  0  0  0  0
   17.4913   75.3610   26.5532 O   0  0  0  0  0  0  0  0  0  0  0  0
   17.9746   77.6981   27.3399 O   0  0  0  0  0  0  0  0  0  0  0  0
   16.0969   76.4147   28.4389 O   0  0  0  0  0  0  0  0  0  0  0  0
   18.1101   75.0113   27.2132 H   0  0  0  0  0  0  0  0  0  0  0  0
   18.6247   77.3467   27.9682 H   0  0  0  0  0  0  0  0  0  0  0  0
   15.2735   76.0807   24.6219 P   0  0  0  0  0  0  0  0  0  0  0  0
   14.2643   76.5031   23.6201 O   0  0  0  0  0  0  0  0  0  0  0  0
   16.6809   75.6705   23.9971 O   0  0  0  0  0  0  0  0  0  0  0  0
   14.7839   74.8192   25.4596 O   0  0  0  0  0  0  0  0  0  0  0  0
   17.0288   76.4081   23.4720 H   0  0  0  0  0  0  0  0  0  0  0  0
   13.9247   75.0143   25.8654 H   0  0  0  0  0  0  0  0  0  0  0  0
   14.3941   77.7928   26.6305 C   0  0  0  0  0  0  0  0  0  0  0  0
   14.4451   79.3070   27.0882 C   0  0  0  0  0  0  0  0  0  0  0  0
   13.3964   80.2114   26.5277 N   0  0  0  0  0  0  0  0  0  0  0  0
   13.9393   81.2074   25.5959 C   0  0  0  0  0  0  0  0  0  0  0  0
   12.2309   79.5168   25.9517 C   0  0  0  0  0  0  0  0  0  0  0  0
   12.3809   79.2491   24.4353 C   0  0  0  0  0  0  0  0  0  0  0  0
   11.3396   78.1556   24.0995 C   0  0  0  0  0  0  0  0  0  0  0  0
   10.9215   77.3280   25.3134 C   0  0  0  0  0  0  0  0  0  0  0  0
   10.2338   76.0364   24.7993 C   0  0  0  0  0  0  0  0  0  0  0  0
  4  5  1  0  0  0
  4  6  1  0  0  0
  4  7  2  0  0  0
  4  1  1  0  0  0
  1 10  1  0  0  0
  1  2  1  0  0  0
  1 16  1  0  0  0
 10 11  2  0  0  0
 10 12  1  0  0  0
 10 13  1  0  0  0
 16 17  1  0  0  0
 17 18  1  0  0  0
 18 20  1  0  0  0
 18 19  1  0  0  0
 20 21  1  0  0  0
 21 22  1  0  0  0
 22 23  1  0  0  0
 23 24  1  0  0  0
  5  8  1  0  0  0
  6  9  1  0  0  0
 12 14  1  0  0  0
 13 15  1  0  0  0
  2  3  1  0  0  0
M  END
> <minimizedAffinity>
-6.97939

$$$$
2F94_BFQ_F_9001


 24 23  0  0  0  0  0  0  0  0999 V2000
   14.2859   77.3106   24.9763 C   0  0  0  0  0  0  0  0  0  0  0  0
   14.8534   78.3363   24.1630 O   0  0  0  0  0  0  0  0  0  0  0  0
   15.0188   77.9886   23.2727 H   0  0  0  0  0  0  0  0  0  0  0  0
   15.4268   75.8917   25.0566 P   0  0  0  0  0  0  0  0  0  0  0  0
   16.5348   76.1093   26.0308 O   0  0  0  0  0  0  0  0  0  0  0  0
   14.5753   74.6401   25.4682 O   0  0  0  0  0  0  0  0  0  0  0  0
   15.9373   75.6180   23.5789 O   0  0  0  0  0  0  0  0  0  0  0  0
   17.1146   75.3317   26.0399 H   0  0  0  0  0  0  0  0  0  0  0  0
   15.1507   73.8610   25.5216 H   0  0  0  0  0  0  0  0  0  0  0  0
   12.7099   76.7556   24.2207 P   0  0  0  0  0  0  0  0  0  0  0  0
   11.9883   77.7894   23.4390 O   0  0  0  0  0  0  0  0  0  0  0  0
   13.1119   75.4637   23.3789 O   0  0  0  0  0  0  0  0  0  0  0  0
   11.8418   76.2259   25.4448 O   0  0  0  0  0  0  0  0  0  0  0  0
   13.6465   75.7293   22.6143 H   0  0  0  0  0  0  0  0  0  0  0  0
   11.5677   76.9760   25.9953 H   0  0  0  0  0  0  0  0  0  0  0  0
   14.0172   77.8646   26.4117 C   0  0  0  0  0  0  0  0  0  0  0  0
   14.8674   79.1589   26.7380 C   0  0  0  0  0  0  0  0  0  0  0  0
   14.4659   80.4172   26.0399 N   0  0  0  0  0  0  0  0  0  0  0  0
   13.0363   80.7189   26.1830 C   0  0  0  0  0  0  0  0  0  0  0  0
   15.2970   81.5908   26.3636 C   0  0  0  0  0  0  0  0  0  0  0  0
   16.4228   81.8322   25.3302 C   0  0  0  0  0  0  0  0  0  0  0  0
   16.0909   83.1863   24.6601 C   0  0  0  0  0  0  0  0  0  0  0  0
   17.0906   83.5835   23.5756 C   0  0  0  0  0  0  0  0  0  0  0  0
   17.5444   85.0406   23.8521 C   0  0  0  0  0  0  0  0  0  0  0  0
  4  5  1  0  0  0
  4  6  1  0  0  0
  4  7  2  0  0  0
  4  1  1  0  0  0
  1 10  1  0  0  0
  1  2  1  0  0  0
  1 16  1  0  0  0
 10 11  2  0  0  0
 10 12  1  0  0  0
 10 13  1  0  0  0
 16 17  1  0  0  0
 17 18  1  0  0  0
 18 20  1  0  0  0
 18 19  1  0  0  0
 20 21  1  0  0  0
 21 22  1  0  0  0
 22 23  1  0  0  0
 23 24  1  0  0  0
  5  8  1  0  0  0
  6  9  1  0  0  0
 12 14  1  0  0  0
 13 15  1  0  0  0
  2  3  1  0  0  0
M  END
> <minimizedAffinity>
-6.73203

$$$$
