3TAY_MN0_A_1000


 30 30  0  0  0  0  0  0  0  0999 V2000
  -32.2900   40.4636   21.2091 C   0  0  0  0  0  0  0  0  0  0  0  0
  -33.1792   41.2515   22.2013 C   0  0  0  0  0  0  0  0  0  0  0  0
  -32.5388   41.4376   23.5950 C   0  0  0  0  0  0  0  0  0  0  0  0
  -33.2525   42.4520   24.3007 O   0  0  0  0  0  0  0  0  0  0  0  0
  -31.0489   41.8310   23.5407 C   0  0  0  0  0  0  0  0  0  0  0  0
  -30.2800   40.8633   22.6298 C   0  0  0  0  0  0  0  0  0  0  0  0
  -30.9105   40.9022   21.3033 O   0  0  0  0  0  0  0  0  0  0  0  0
  -33.1772   43.2926   23.8224 H   0  0  0  0  0  0  0  0  0  0  0  0
  -32.4149   38.9338   21.4007 C   0  0  0  0  0  0  0  0  0  0  0  0
  -31.5427   38.2069   20.8736 O   0  0  0  0  0  0  0  0  0  0  0  0
  -33.4036   38.5232   22.0378 O   0  0  0  0  0  0  0  0  0  0  0  0
  -30.8272   38.5951   20.4096 H   0  0  0  0  0  0  0  0  0  0  0  0
  -30.5063   41.8717   24.9198 N   0  0  0  0  0  0  0  0  0  0  0  0
  -30.4451   42.9861   25.6644 C   0  0  0  0  0  0  0  0  0  0  0  0
  -30.7976   44.0979   25.2808 O   0  0  0  0  0  0  0  0  0  0  0  0
  -30.1717   41.0328   25.3118 H   0  0  0  0  0  0  0  0  0  0  0  0
  -29.8713   42.8246   27.0789 C   0  0  0  0  0  0  0  0  0  0  0  0
  -30.3372   41.6386   27.7239 O   0  0  0  0  0  0  0  0  0  0  0  0
  -31.3020   41.6779   27.8152 H   0  0  0  0  0  0  0  0  0  0  0  0
  -28.7957   41.1564   22.3581 C   0  0  0  0  0  0  0  0  0  0  0  0
  -28.5578   42.5666   22.5033 O   0  0  0  0  0  0  0  0  0  0  0  0
  -29.0981   43.0534   21.8614 H   0  0  0  0  0  0  0  0  0  0  0  0
  -28.3935   40.7003   20.9454 C   0  0  0  0  0  0  0  0  0  0  0  0
  -28.7884   39.3414   20.7247 O   0  0  0  0  0  0  0  0  0  0  0  0
  -28.3277   38.7645   21.3539 H   0  0  0  0  0  0  0  0  0  0  0  0
  -26.8890   40.8161   20.7179 C   0  0  0  0  0  0  0  0  0  0  0  0
  -26.2278   40.0917   21.7542 O   0  0  0  0  0  0  0  0  0  0  0  0
  -26.4738   40.4630   22.6159 H   0  0  0  0  0  0  0  0  0  0  0  0
  -32.7870   40.7993   19.8939 O   0  0  0  0  0  0  0  0  0  0  0  0
  -33.8399   41.7809   19.9046 C   0  0  0  0  0  0  0  0  0  0  0  0
  9  1  1  0  0  0
  1 29  1  0  0  0
 29 30  1  0  0  0
  2  1  1  0  0  0
  3  2  1  0  0  0
  4  3  1  0  0  0
  5  3  1  0  0  0
  5  6  1  0  0  0
 13  5  1  0  0  0
  6 20  1  0  0  0
  6  7  1  0  0  0
  7  1  1  0  0  0
 20 21  1  0  0  0
 20 23  1  0  0  0
 24 23  1  0  0  0
 26 23  1  0  0  0
 26 27  1  0  0  0
 14 13  1  0  0  0
 14 15  2  0  0  0
 17 14  1  0  0  0
 18 17  1  0  0  0
 10  9  1  0  0  0
 11  9  2  0  0  0
  4  8  1  0  0  0
 13 16  1  0  0  0
 21 22  1  0  0  0
 24 25  1  0  0  0
 27 28  1  0  0  0
 18 19  1  0  0  0
 10 12  1  0  0  0
M  END
> <minimizedAffinity>
-5.70049

$$$$
3TAY_MN0_A_1000


 30 30  0  0  0  0  0  0  0  0999 V2000
  -30.0913   44.6659   26.1967 C   0  0  0  0  0  0  0  0  0  0  0  0
  -29.1117   44.3028   25.0546 C   0  0  0  0  0  0  0  0  0  0  0  0
  -29.3473   42.8969   24.4588 C   0  0  0  0  0  0  0  0  0  0  0  0
  -28.6559   42.7997   23.2142 O   0  0  0  0  0  0  0  0  0  0  0  0
  -30.8354   42.5697   24.2221 C   0  0  0  0  0  0  0  0  0  0  0  0
  -31.6462   42.8464   25.4963 C   0  0  0  0  0  0  0  0  0  0  0  0
  -31.4410   44.2553   25.8591 O   0  0  0  0  0  0  0  0  0  0  0  0
  -29.0155   43.4519   22.5927 H   0  0  0  0  0  0  0  0  0  0  0  0
  -29.6432   44.0833   27.5578 C   0  0  0  0  0  0  0  0  0  0  0  0
  -30.2045   44.5149   28.5901 O   0  0  0  0  0  0  0  0  0  0  0  0
  -28.7202   43.2469   27.5379 O   0  0  0  0  0  0  0  0  0  0  0  0
  -30.8937   45.1458   28.5197 H   0  0  0  0  0  0  0  0  0  0  0  0
  -30.9570   41.1662   23.7601 N   0  0  0  0  0  0  0  0  0  0  0  0
  -31.5048   40.8120   22.5877 C   0  0  0  0  0  0  0  0  0  0  0  0
  -31.9947   41.6001   21.7837 O   0  0  0  0  0  0  0  0  0  0  0  0
  -30.6163   40.4533   24.3473 H   0  0  0  0  0  0  0  0  0  0  0  0
  -31.5202   39.3095   22.2741 C   0  0  0  0  0  0  0  0  0  0  0  0
  -32.7202   38.6729   22.7150 O   0  0  0  0  0  0  0  0  0  0  0  0
  -32.7970   38.7595   23.6781 H   0  0  0  0  0  0  0  0  0  0  0  0
  -33.1734   42.6864   25.4266 C   0  0  0  0  0  0  0  0  0  0  0  0
  -33.5026   41.2871   25.4221 O   0  0  0  0  0  0  0  0  0  0  0  0
  -33.1054   40.8640   24.6449 H   0  0  0  0  0  0  0  0  0  0  0  0
  -33.7414   43.3620   24.1670 C   0  0  0  0  0  0  0  0  0  0  0  0
  -33.8684   44.7744   24.3683 O   0  0  0  0  0  0  0  0  0  0  0  0
  -34.4936   44.9431   25.0906 H   0  0  0  0  0  0  0  0  0  0  0  0
  -35.1068   42.7969   23.7861 C   0  0  0  0  0  0  0  0  0  0  0  0
  -34.8969   41.6301   22.9923 O   0  0  0  0  0  0  0  0  0  0  0  0
  -34.3900   41.8653   22.1994 H   0  0  0  0  0  0  0  0  0  0  0  0
  -30.0620   46.1082   26.2875 O   0  0  0  0  0  0  0  0  0  0  0  0
  -28.7710   46.6809   26.0090 C   0  0  0  0  0  0  0  0  0  0  0  0
  9  1  1  0  0  0
  1 29  1  0  0  0
 29 30  1  0  0  0
  2  1  1  0  0  0
  3  2  1  0  0  0
  4  3  1  0  0  0
  5  3  1  0  0  0
  5  6  1  0  0  0
 13  5  1  0  0  0
  6 20  1  0  0  0
  6  7  1  0  0  0
  7  1  1  0  0  0
 20 21  1  0  0  0
 20 23  1  0  0  0
 24 23  1  0  0  0
 26 23  1  0  0  0
 26 27  1  0  0  0
 14 13  1  0  0  0
 14 15  2  0  0  0
 17 14  1  0  0  0
 18 17  1  0  0  0
 10  9  1  0  0  0
 11  9  2  0  0  0
  4  8  1  0  0  0
 13 16  1  0  0  0
 21 22  1  0  0  0
 24 25  1  0  0  0
 27 28  1  0  0  0
 18 19  1  0  0  0
 10 12  1  0  0  0
M  END
> <minimizedAffinity>
-5.22214

$$$$
3TAY_MN0_A_1000


 30 30  0  0  0  0  0  0  0  0999 V2000
  -30.0047   43.0002   24.7679 C   0  0  0  0  0  0  0  0  0  0  0  0
  -31.4088   42.6922   25.3419 C   0  0  0  0  0  0  0  0  0  0  0  0
  -32.4170   42.1955   24.2817 C   0  0  0  0  0  0  0  0  0  0  0  0
  -33.5375   41.6124   24.9457 O   0  0  0  0  0  0  0  0  0  0  0  0
  -31.8255   41.1558   23.3087 C   0  0  0  0  0  0  0  0  0  0  0  0
  -30.5088   41.6769   22.7153 C   0  0  0  0  0  0  0  0  0  0  0  0
  -29.5998   41.9682   23.8323 O   0  0  0  0  0  0  0  0  0  0  0  0
  -33.2442   40.8452   25.4619 H   0  0  0  0  0  0  0  0  0  0  0  0
  -29.9303   44.4073   24.1300 C   0  0  0  0  0  0  0  0  0  0  0  0
  -28.9186   44.6854   23.4472 O   0  0  0  0  0  0  0  0  0  0  0  0
  -30.8702   45.1880   24.3728 O   0  0  0  0  0  0  0  0  0  0  0  0
  -28.2536   44.0396   23.3106 H   0  0  0  0  0  0  0  0  0  0  0  0
  -32.8332   40.8336   22.2701 N   0  0  0  0  0  0  0  0  0  0  0  0
  -33.2256   39.5853   21.9737 C   0  0  0  0  0  0  0  0  0  0  0  0
  -32.7749   38.5720   22.5006 O   0  0  0  0  0  0  0  0  0  0  0  0
  -33.2377   41.5784   21.7691 H   0  0  0  0  0  0  0  0  0  0  0  0
  -34.2975   39.4536   20.8829 C   0  0  0  0  0  0  0  0  0  0  0  0
  -35.4001   38.6459   21.2970 O   0  0  0  0  0  0  0  0  0  0  0  0
  -35.0880   37.7488   21.4935 H   0  0  0  0  0  0  0  0  0  0  0  0
  -29.7070   40.7338   21.8039 C   0  0  0  0  0  0  0  0  0  0  0  0
  -29.8066   39.3912   22.3078 O   0  0  0  0  0  0  0  0  0  0  0  0
  -29.4368   39.3539   23.2037 H   0  0  0  0  0  0  0  0  0  0  0  0
  -28.2304   41.1586   21.7338 C   0  0  0  0  0  0  0  0  0  0  0  0
  -28.1235   42.5702   21.5162 O   0  0  0  0  0  0  0  0  0  0  0  0
  -28.5277   42.7975   20.6642 H   0  0  0  0  0  0  0  0  0  0  0  0
  -27.4830   40.4332   20.6185 C   0  0  0  0  0  0  0  0  0  0  0  0
  -28.4035   39.5622   19.9628 O   0  0  0  0  0  0  0  0  0  0  0  0
  -28.7617   38.9285   20.6039 H   0  0  0  0  0  0  0  0  0  0  0  0
  -29.1078   42.9665   25.9010 O   0  0  0  0  0  0  0  0  0  0  0  0
  -29.7746   43.0743   27.1722 C   0  0  0  0  0  0  0  0  0  0  0  0
  9  1  1  0  0  0
  1 29  1  0  0  0
 29 30  1  0  0  0
  2  1  1  0  0  0
  3  2  1  0  0  0
  4  3  1  0  0  0
  5  3  1  0  0  0
  5  6  1  0  0  0
 13  5  1  0  0  0
  6 20  1  0  0  0
  6  7  1  0  0  0
  7  1  1  0  0  0
 20 21  1  0  0  0
 20 23  1  0  0  0
 24 23  1  0  0  0
 26 23  1  0  0  0
 26 27  1  0  0  0
 14 13  1  0  0  0
 14 15  2  0  0  0
 17 14  1  0  0  0
 18 17  1  0  0  0
 10  9  1  0  0  0
 11  9  2  0  0  0
  4  8  1  0  0  0
 13 16  1  0  0  0
 21 22  1  0  0  0
 24 25  1  0  0  0
 27 28  1  0  0  0
 18 19  1  0  0  0
 10 12  1  0  0  0
M  END
> <minimizedAffinity>
-4.96714

$$$$
3TAY_MN0_A_1000


 30 30  0  0  0  0  0  0  0  0999 V2000
  -31.1967   42.9920   24.5737 C   0  0  0  0  0  0  0  0  0  0  0  0
  -30.3400   44.0201   23.7959 C   0  0  0  0  0  0  0  0  0  0  0  0
  -29.1454   43.3905   23.0451 C   0  0  0  0  0  0  0  0  0  0  0  0
  -28.6461   44.3327   22.0968 O   0  0  0  0  0  0  0  0  0  0  0  0
  -29.5023   42.0870   22.3029 C   0  0  0  0  0  0  0  0  0  0  0  0
  -30.2173   41.1165   23.2539 C   0  0  0  0  0  0  0  0  0  0  0  0
  -31.4090   41.7993   23.7758 O   0  0  0  0  0  0  0  0  0  0  0  0
  -29.3366   44.5329   21.4455 H   0  0  0  0  0  0  0  0  0  0  0  0
  -30.5895   42.6517   25.9550 C   0  0  0  0  0  0  0  0  0  0  0  0
  -31.2603   41.9271   26.7244 O   0  0  0  0  0  0  0  0  0  0  0  0
  -29.4837   43.1573   26.2260 O   0  0  0  0  0  0  0  0  0  0  0  0
  -32.0861   41.5844   26.4440 H   0  0  0  0  0  0  0  0  0  0  0  0
  -28.2698   41.5088   21.7159 N   0  0  0  0  0  0  0  0  0  0  0  0
  -28.1032   41.2842   20.4036 C   0  0  0  0  0  0  0  0  0  0  0  0
  -28.9576   41.4987   19.5484 O   0  0  0  0  0  0  0  0  0  0  0  0
  -27.5312   41.2762   22.3238 H   0  0  0  0  0  0  0  0  0  0  0  0
  -26.7472   40.7004   19.9835 C   0  0  0  0  0  0  0  0  0  0  0  0
  -26.0086   40.1851   21.0919 O   0  0  0  0  0  0  0  0  0  0  0  0
  -25.8236   40.9020   21.7186 H   0  0  0  0  0  0  0  0  0  0  0  0
  -30.7543   39.8002   22.6690 C   0  0  0  0  0  0  0  0  0  0  0  0
  -29.6478   38.9527   22.3174 O   0  0  0  0  0  0  0  0  0  0  0  0
  -29.1014   39.3951   21.6490 H   0  0  0  0  0  0  0  0  0  0  0  0
  -31.6269   40.0631   21.4301 C   0  0  0  0  0  0  0  0  0  0  0  0
  -32.9699   40.3747   21.8184 O   0  0  0  0  0  0  0  0  0  0  0  0
  -33.3557   39.6168   22.2849 H   0  0  0  0  0  0  0  0  0  0  0  0
  -31.6553   38.8614   20.4900 C   0  0  0  0  0  0  0  0  0  0  0  0
  -30.5075   38.9332   19.6455 O   0  0  0  0  0  0  0  0  0  0  0  0
  -30.5275   39.7623   19.1425 H   0  0  0  0  0  0  0  0  0  0  0  0
  -32.4746   43.6339   24.7843 O   0  0  0  0  0  0  0  0  0  0  0  0
  -33.5860   42.9120   24.2222 C   0  0  0  0  0  0  0  0  0  0  0  0
  9  1  1  0  0  0
  1 29  1  0  0  0
 29 30  1  0  0  0
  2  1  1  0  0  0
  3  2  1  0  0  0
  4  3  1  0  0  0
  5  3  1  0  0  0
  5  6  1  0  0  0
 13  5  1  0  0  0
  6 20  1  0  0  0
  6  7  1  0  0  0
  7  1  1  0  0  0
 20 21  1  0  0  0
 20 23  1  0  0  0
 24 23  1  0  0  0
 26 23  1  0  0  0
 26 27  1  0  0  0
 14 13  1  0  0  0
 14 15  2  0  0  0
 17 14  1  0  0  0
 18 17  1  0  0  0
 10  9  1  0  0  0
 11  9  2  0  0  0
  4  8  1  0  0  0
 13 16  1  0  0  0
 21 22  1  0  0  0
 24 25  1  0  0  0
 27 28  1  0  0  0
 18 19  1  0  0  0
 10 12  1  0  0  0
M  END
> <minimizedAffinity>
-4.93510

$$$$
3TAY_MN0_A_1000


 30 30  0  0  0  0  0  0  0  0999 V2000
  -28.7609   41.6482   21.3918 C   0  0  0  0  0  0  0  0  0  0  0  0
  -30.2099   41.5200   20.8628 C   0  0  0  0  0  0  0  0  0  0  0  0
  -31.2633   41.3359   21.9778 C   0  0  0  0  0  0  0  0  0  0  0  0
  -32.5598   41.5830   21.4353 O   0  0  0  0  0  0  0  0  0  0  0  0
  -31.0497   42.2685   23.1871 C   0  0  0  0  0  0  0  0  0  0  0  0
  -29.5998   42.1681   23.6819 C   0  0  0  0  0  0  0  0  0  0  0  0
  -28.7191   42.5112   22.5570 O   0  0  0  0  0  0  0  0  0  0  0  0
  -32.6108   42.5004   21.1244 H   0  0  0  0  0  0  0  0  0  0  0  0
  -28.1208   40.2701   21.6814 C   0  0  0  0  0  0  0  0  0  0  0  0
  -28.8607   39.2616   21.6326 O   0  0  0  0  0  0  0  0  0  0  0  0
  -26.9125   40.2610   21.9844 O   0  0  0  0  0  0  0  0  0  0  0  0
  -29.7625   39.3531   21.3950 H   0  0  0  0  0  0  0  0  0  0  0  0
  -32.0381   41.9333   24.2400 N   0  0  0  0  0  0  0  0  0  0  0  0
  -32.9603   42.7934   24.6981 C   0  0  0  0  0  0  0  0  0  0  0  0
  -33.0696   43.9581   24.3252 O   0  0  0  0  0  0  0  0  0  0  0  0
  -32.0166   41.0275   24.6252 H   0  0  0  0  0  0  0  0  0  0  0  0
  -33.9123   42.2552   25.7751 C   0  0  0  0  0  0  0  0  0  0  0  0
  -33.2174   41.6176   26.8476 O   0  0  0  0  0  0  0  0  0  0  0  0
  -32.7222   40.8570   26.5051 H   0  0  0  0  0  0  0  0  0  0  0  0
  -29.1592   43.1086   24.8152 C   0  0  0  0  0  0  0  0  0  0  0  0
  -29.8052   42.7124   26.0367 O   0  0  0  0  0  0  0  0  0  0  0  0
  -30.7671   42.7768   25.9293 H   0  0  0  0  0  0  0  0  0  0  0  0
  -29.5107   44.5695   24.4869 C   0  0  0  0  0  0  0  0  0  0  0  0
  -28.4715   45.1735   23.7081 O   0  0  0  0  0  0  0  0  0  0  0  0
  -27.6483   45.1853   24.2210 H   0  0  0  0  0  0  0  0  0  0  0  0
  -29.7223   45.4002   25.7494 C   0  0  0  0  0  0  0  0  0  0  0  0
  -31.1042   45.3314   26.0978 O   0  0  0  0  0  0  0  0  0  0  0  0
  -31.6396   45.6769   25.3665 H   0  0  0  0  0  0  0  0  0  0  0  0
  -28.0152   42.2814   20.3277 O   0  0  0  0  0  0  0  0  0  0  0  0
  -28.3565   41.8007   19.0144 C   0  0  0  0  0  0  0  0  0  0  0  0
  9  1  1  0  0  0
  1 29  1  0  0  0
 29 30  1  0  0  0
  2  1  1  0  0  0
  3  2  1  0  0  0
  4  3  1  0  0  0
  5  3  1  0  0  0
  5  6  1  0  0  0
 13  5  1  0  0  0
  6 20  1  0  0  0
  6  7  1  0  0  0
  7  1  1  0  0  0
 20 21  1  0  0  0
 20 23  1  0  0  0
 24 23  1  0  0  0
 26 23  1  0  0  0
 26 27  1  0  0  0
 14 13  1  0  0  0
 14 15  2  0  0  0
 17 14  1  0  0  0
 18 17  1  0  0  0
 10  9  1  0  0  0
 11  9  2  0  0  0
  4  8  1  0  0  0
 13 16  1  0  0  0
 21 22  1  0  0  0
 24 25  1  0  0  0
 27 28  1  0  0  0
 18 19  1  0  0  0
 10 12  1  0  0  0
M  END
> <minimizedAffinity>
-4.90033

$$$$
3TAY_MN0_A_1000


 30 30  0  0  0  0  0  0  0  0999 V2000
  -30.3416   44.0376   27.3551 C   0  0  0  0  0  0  0  0  0  0  0  0
  -29.1653   44.5417   26.4845 C   0  0  0  0  0  0  0  0  0  0  0  0
  -29.2427   44.0824   25.0113 C   0  0  0  0  0  0  0  0  0  0  0  0
  -28.3416   44.8692   24.2332 O   0  0  0  0  0  0  0  0  0  0  0  0
  -30.6540   44.2030   24.4019 C   0  0  0  0  0  0  0  0  0  0  0  0
  -31.6841   43.5256   25.3169 C   0  0  0  0  0  0  0  0  0  0  0  0
  -31.5961   44.1633   26.6377 O   0  0  0  0  0  0  0  0  0  0  0  0
  -28.6104   45.8005   24.2705 H   0  0  0  0  0  0  0  0  0  0  0  0
  -30.1174   42.5928   27.8599 C   0  0  0  0  0  0  0  0  0  0  0  0
  -30.7868   41.6786   27.3278 O   0  0  0  0  0  0  0  0  0  0  0  0
  -29.3091   42.4404   28.7955 O   0  0  0  0  0  0  0  0  0  0  0  0
  -31.3756   41.8766   26.6262 H   0  0  0  0  0  0  0  0  0  0  0  0
  -30.6427   43.6336   23.0331 N   0  0  0  0  0  0  0  0  0  0  0  0
  -30.3585   42.3508   22.7615 C   0  0  0  0  0  0  0  0  0  0  0  0
  -30.0450   41.5154   23.6047 O   0  0  0  0  0  0  0  0  0  0  0  0
  -30.8559   44.2311   22.2802 H   0  0  0  0  0  0  0  0  0  0  0  0
  -30.4202   41.9421   21.2832 C   0  0  0  0  0  0  0  0  0  0  0  0
  -31.5526   41.1223   20.9912 O   0  0  0  0  0  0  0  0  0  0  0  0
  -31.5000   40.3026   21.5071 H   0  0  0  0  0  0  0  0  0  0  0  0
  -33.1690   43.6366   24.9352 C   0  0  0  0  0  0  0  0  0  0  0  0
  -33.8168   44.5653   25.8208 O   0  0  0  0  0  0  0  0  0  0  0  0
  -33.7490   44.2431   26.7332 H   0  0  0  0  0  0  0  0  0  0  0  0
  -33.8625   42.2661   25.0153 C   0  0  0  0  0  0  0  0  0  0  0  0
  -33.2348   41.4424   26.0046 O   0  0  0  0  0  0  0  0  0  0  0  0
  -32.3117   41.2821   25.7536 H   0  0  0  0  0  0  0  0  0  0  0  0
  -33.8302   41.5342   23.6766 C   0  0  0  0  0  0  0  0  0  0  0  0
  -32.8607   40.4911   23.7659 O   0  0  0  0  0  0  0  0  0  0  0  0
  -31.9925   40.8732   23.9687 H   0  0  0  0  0  0  0  0  0  0  0  0
  -30.3804   44.9186   28.5004 O   0  0  0  0  0  0  0  0  0  0  0  0
  -31.6337   45.6089   28.6592 C   0  0  0  0  0  0  0  0  0  0  0  0
  9  1  1  0  0  0
  1 29  1  0  0  0
 29 30  1  0  0  0
  2  1  1  0  0  0
  3  2  1  0  0  0
  4  3  1  0  0  0
  5  3  1  0  0  0
  5  6  1  0  0  0
 13  5  1  0  0  0
  6 20  1  0  0  0
  6  7  1  0  0  0
  7  1  1  0  0  0
 20 21  1  0  0  0
 20 23  1  0  0  0
 24 23  1  0  0  0
 26 23  1  0  0  0
 26 27  1  0  0  0
 14 13  1  0  0  0
 14 15  2  0  0  0
 17 14  1  0  0  0
 18 17  1  0  0  0
 10  9  1  0  0  0
 11  9  2  0  0  0
  4  8  1  0  0  0
 13 16  1  0  0  0
 21 22  1  0  0  0
 24 25  1  0  0  0
 27 28  1  0  0  0
 18 19  1  0  0  0
 10 12  1  0  0  0
M  END
> <minimizedAffinity>
-4.82250

$$$$
3TAY_MN0_A_1000


 30 30  0  0  0  0  0  0  0  0999 V2000
  -31.4108   42.9885   26.8613 C   0  0  0  0  0  0  0  0  0  0  0  0
  -31.6382   44.5071   26.6670 C   0  0  0  0  0  0  0  0  0  0  0  0
  -30.5643   45.1878   25.7893 C   0  0  0  0  0  0  0  0  0  0  0  0
  -31.0427   46.4694   25.3829 O   0  0  0  0  0  0  0  0  0  0  0  0
  -30.1941   44.3784   24.5302 C   0  0  0  0  0  0  0  0  0  0  0  0
  -29.8545   42.9310   24.9137 C   0  0  0  0  0  0  0  0  0  0  0  0
  -31.0197   42.3682   25.6097 O   0  0  0  0  0  0  0  0  0  0  0  0
  -31.8428   46.3603   24.8454 H   0  0  0  0  0  0  0  0  0  0  0  0
  -30.3926   42.6897   27.9867 C   0  0  0  0  0  0  0  0  0  0  0  0
  -29.9551   43.6574   28.6494 O   0  0  0  0  0  0  0  0  0  0  0  0
  -30.0443   41.5025   28.1328 O   0  0  0  0  0  0  0  0  0  0  0  0
  -30.2694   44.5232   28.4776 H   0  0  0  0  0  0  0  0  0  0  0  0
  -29.0822   45.0591   23.8242 N   0  0  0  0  0  0  0  0  0  0  0  0
  -29.2571   45.8989   22.7926 C   0  0  0  0  0  0  0  0  0  0  0  0
  -30.3465   46.1725   22.2968 O   0  0  0  0  0  0  0  0  0  0  0  0
  -28.1628   44.8849   24.1300 H   0  0  0  0  0  0  0  0  0  0  0  0
  -27.9843   46.5250   22.2060 C   0  0  0  0  0  0  0  0  0  0  0  0
  -26.9512   46.6742   23.1807 O   0  0  0  0  0  0  0  0  0  0  0  0
  -27.2556   47.2659   23.8865 H   0  0  0  0  0  0  0  0  0  0  0  0
  -29.5668   41.9344   23.7792 C   0  0  0  0  0  0  0  0  0  0  0  0
  -28.5000   42.4439   22.9614 O   0  0  0  0  0  0  0  0  0  0  0  0
  -28.7659   43.2931   22.5753 H   0  0  0  0  0  0  0  0  0  0  0  0
  -30.8204   41.7014   22.9192 C   0  0  0  0  0  0  0  0  0  0  0  0
  -31.3241   40.3749   23.1142 O   0  0  0  0  0  0  0  0  0  0  0  0
  -30.6572   39.7307   22.8290 H   0  0  0  0  0  0  0  0  0  0  0  0
  -30.5357   41.9036   21.4336 C   0  0  0  0  0  0  0  0  0  0  0  0
  -30.4893   43.3068   21.1791 O   0  0  0  0  0  0  0  0  0  0  0  0
  -31.3381   43.7079   21.4231 H   0  0  0  0  0  0  0  0  0  0  0  0
  -32.6941   42.4524   27.2551 O   0  0  0  0  0  0  0  0  0  0  0  0
  -33.5589   42.1438   26.1463 C   0  0  0  0  0  0  0  0  0  0  0  0
  9  1  1  0  0  0
  1 29  1  0  0  0
 29 30  1  0  0  0
  2  1  1  0  0  0
  3  2  1  0  0  0
  4  3  1  0  0  0
  5  3  1  0  0  0
  5  6  1  0  0  0
 13  5  1  0  0  0
  6 20  1  0  0  0
  6  7  1  0  0  0
  7  1  1  0  0  0
 20 21  1  0  0  0
 20 23  1  0  0  0
 24 23  1  0  0  0
 26 23  1  0  0  0
 26 27  1  0  0  0
 14 13  1  0  0  0
 14 15  2  0  0  0
 17 14  1  0  0  0
 18 17  1  0  0  0
 10  9  1  0  0  0
 11  9  2  0  0  0
  4  8  1  0  0  0
 13 16  1  0  0  0
 21 22  1  0  0  0
 24 25  1  0  0  0
 27 28  1  0  0  0
 18 19  1  0  0  0
 10 12  1  0  0  0
M  END
> <minimizedAffinity>
-4.65633

$$$$
3TAY_MN0_A_1000


 30 30  0  0  0  0  0  0  0  0999 V2000
  -25.0066   41.3286   18.3413 C   0  0  0  0  0  0  0  0  0  0  0  0
  -25.3094   41.0860   16.8429 C   0  0  0  0  0  0  0  0  0  0  0  0
  -26.3082   39.9346   16.5905 C   0  0  0  0  0  0  0  0  0  0  0  0
  -26.7862   40.0221   15.2487 O   0  0  0  0  0  0  0  0  0  0  0  0
  -27.5182   39.9482   17.5460 C   0  0  0  0  0  0  0  0  0  0  0  0
  -27.0404   40.0459   19.0019 C   0  0  0  0  0  0  0  0  0  0  0  0
  -26.2260   41.2626   19.1241 O   0  0  0  0  0  0  0  0  0  0  0  0
  -27.2595   40.8602   15.1281 H   0  0  0  0  0  0  0  0  0  0  0  0
  -23.9294   40.3601   18.8837 C   0  0  0  0  0  0  0  0  0  0  0  0
  -23.8991   40.1536   20.1180 O   0  0  0  0  0  0  0  0  0  0  0  0
  -23.1341   39.8782   18.0547 O   0  0  0  0  0  0  0  0  0  0  0  0
  -24.5358   40.5551   20.6759 H   0  0  0  0  0  0  0  0  0  0  0  0
  -28.3487   38.7458   17.2959 N   0  0  0  0  0  0  0  0  0  0  0  0
  -29.4573   38.7493   16.5401 C   0  0  0  0  0  0  0  0  0  0  0  0
  -29.9265   39.7472   16.0002 O   0  0  0  0  0  0  0  0  0  0  0  0
  -28.0709   37.8960   17.7081 H   0  0  0  0  0  0  0  0  0  0  0  0
  -30.1710   37.4000   16.3790 C   0  0  0  0  0  0  0  0  0  0  0  0
  -30.1009   36.6017   17.5611 O   0  0  0  0  0  0  0  0  0  0  0  0
  -29.1729   36.4058   17.7644 H   0  0  0  0  0  0  0  0  0  0  0  0
  -28.1058   40.1850   20.1013 C   0  0  0  0  0  0  0  0  0  0  0  0
  -29.2232   40.9279   19.5858 O   0  0  0  0  0  0  0  0  0  0  0  0
  -28.9280   41.8125   19.3190 H   0  0  0  0  0  0  0  0  0  0  0  0
  -27.5312   40.8949   21.3388 C   0  0  0  0  0  0  0  0  0  0  0  0
  -26.4108   40.1699   21.8590 O   0  0  0  0  0  0  0  0  0  0  0  0
  -26.6996   39.2884   22.1427 H   0  0  0  0  0  0  0  0  0  0  0  0
  -28.5736   41.0438   22.4433 C   0  0  0  0  0  0  0  0  0  0  0  0
  -28.3056   42.2576   23.1438 O   0  0  0  0  0  0  0  0  0  0  0  0
  -27.4116   42.2240   23.5186 H   0  0  0  0  0  0  0  0  0  0  0  0
  -24.4872   42.6754   18.4178 O   0  0  0  0  0  0  0  0  0  0  0  0
  -25.5081   43.6899   18.4497 C   0  0  0  0  0  0  0  0  0  0  0  0
  9  1  1  0  0  0
  1 29  1  0  0  0
 29 30  1  0  0  0
  2  1  1  0  0  0
  3  2  1  0  0  0
  4  3  1  0  0  0
  5  3  1  0  0  0
  5  6  1  0  0  0
 13  5  1  0  0  0
  6 20  1  0  0  0
  6  7  1  0  0  0
  7  1  1  0  0  0
 20 21  1  0  0  0
 20 23  1  0  0  0
 24 23  1  0  0  0
 26 23  1  0  0  0
 26 27  1  0  0  0
 14 13  1  0  0  0
 14 15  2  0  0  0
 17 14  1  0  0  0
 18 17  1  0  0  0
 10  9  1  0  0  0
 11  9  2  0  0  0
  4  8  1  0  0  0
 13 16  1  0  0  0
 21 22  1  0  0  0
 24 25  1  0  0  0
 27 28  1  0  0  0
 18 19  1  0  0  0
 10 12  1  0  0  0
M  END
> <minimizedAffinity>
-4.47290

$$$$
3TAY_MN0_A_1000


 30 30  0  0  0  0  0  0  0  0999 V2000
  -26.9062   41.1893   19.6969 C   0  0  0  0  0  0  0  0  0  0  0  0
  -27.7380   40.2085   18.8355 C   0  0  0  0  0  0  0  0  0  0  0  0
  -28.9809   39.6465   19.5610 C   0  0  0  0  0  0  0  0  0  0  0  0
  -29.8519   39.0558   18.5972 O   0  0  0  0  0  0  0  0  0  0  0  0
  -29.7688   40.7125   20.3486 C   0  0  0  0  0  0  0  0  0  0  0  0
  -28.8210   41.5008   21.2638 C   0  0  0  0  0  0  0  0  0  0  0  0
  -27.7774   42.0972   20.4188 O   0  0  0  0  0  0  0  0  0  0  0  0
  -30.1517   39.7351   17.9731 H   0  0  0  0  0  0  0  0  0  0  0  0
  -25.9374   40.4517   20.6508 C   0  0  0  0  0  0  0  0  0  0  0  0
  -26.3945   40.0366   21.7397 O   0  0  0  0  0  0  0  0  0  0  0  0
  -24.7503   40.3545   20.2859 O   0  0  0  0  0  0  0  0  0  0  0  0
  -27.3030   40.1488   21.9398 H   0  0  0  0  0  0  0  0  0  0  0  0
  -30.8671   40.0526   21.0946 N   0  0  0  0  0  0  0  0  0  0  0  0
  -32.1395   40.0157   20.6706 C   0  0  0  0  0  0  0  0  0  0  0  0
  -32.5442   40.5484   19.6411 O   0  0  0  0  0  0  0  0  0  0  0  0
  -30.6503   39.6165   21.9502 H   0  0  0  0  0  0  0  0  0  0  0  0
  -33.1312   39.2650   21.5700 C   0  0  0  0  0  0  0  0  0  0  0  0
  -32.4770   38.4999   22.5830 O   0  0  0  0  0  0  0  0  0  0  0  0
  -31.9118   37.8298   22.1678 H   0  0  0  0  0  0  0  0  0  0  0  0
  -29.4015   42.6866   22.0512 C   0  0  0  0  0  0  0  0  0  0  0  0
  -28.6105   43.8586   21.7926 O   0  0  0  0  0  0  0  0  0  0  0  0
  -27.6981   43.7035   22.0831 H   0  0  0  0  0  0  0  0  0  0  0  0
  -29.4200   42.3899   23.5603 C   0  0  0  0  0  0  0  0  0  0  0  0
  -30.3527   41.3437   23.8552 O   0  0  0  0  0  0  0  0  0  0  0  0
  -31.2465   41.6283   23.6082 H   0  0  0  0  0  0  0  0  0  0  0  0
  -29.7935   43.6236   24.3771 C   0  0  0  0  0  0  0  0  0  0  0  0
  -28.6127   44.4012   24.5690 O   0  0  0  0  0  0  0  0  0  0  0  0
  -27.9479   43.8702   25.0347 H   0  0  0  0  0  0  0  0  0  0  0  0
  -26.1219   41.9591   18.7580 O   0  0  0  0  0  0  0  0  0  0  0  0
  -26.7991   43.1259   18.2557 C   0  0  0  0  0  0  0  0  0  0  0  0
  9  1  1  0  0  0
  1 29  1  0  0  0
 29 30  1  0  0  0
  2  1  1  0  0  0
  3  2  1  0  0  0
  4  3  1  0  0  0
  5  3  1  0  0  0
  5  6  1  0  0  0
 13  5  1  0  0  0
  6 20  1  0  0  0
  6  7  1  0  0  0
  7  1  1  0  0  0
 20 21  1  0  0  0
 20 23  1  0  0  0
 24 23  1  0  0  0
 26 23  1  0  0  0
 26 27  1  0  0  0
 14 13  1  0  0  0
 14 15  2  0  0  0
 17 14  1  0  0  0
 18 17  1  0  0  0
 10  9  1  0  0  0
 11  9  2  0  0  0
  4  8  1  0  0  0
 13 16  1  0  0  0
 21 22  1  0  0  0
 24 25  1  0  0  0
 27 28  1  0  0  0
 18 19  1  0  0  0
 10 12  1  0  0  0
M  END
> <minimizedAffinity>
-4.43713

$$$$
3TAY_MN0_A_1000


 30 30  0  0  0  0  0  0  0  0999 V2000
  -31.6954   41.4563   22.6075 C   0  0  0  0  0  0  0  0  0  0  0  0
  -30.1941   41.7053   22.8902 C   0  0  0  0  0  0  0  0  0  0  0  0
  -29.9316   42.8847   23.8531 C   0  0  0  0  0  0  0  0  0  0  0  0
  -28.5858   42.8090   24.3218 O   0  0  0  0  0  0  0  0  0  0  0  0
  -30.8766   42.9074   25.0713 C   0  0  0  0  0  0  0  0  0  0  0  0
  -32.3367   42.7982   24.6092 C   0  0  0  0  0  0  0  0  0  0  0  0
  -32.4675   41.5586   23.8313 O   0  0  0  0  0  0  0  0  0  0  0  0
  -28.4621   41.9847   24.8180 H   0  0  0  0  0  0  0  0  0  0  0  0
  -32.2460   42.3942   21.5076 C   0  0  0  0  0  0  0  0  0  0  0  0
  -33.4884   42.4719   21.3756 O   0  0  0  0  0  0  0  0  0  0  0  0
  -31.4095   42.9829   20.7964 O   0  0  0  0  0  0  0  0  0  0  0  0
  -34.0516   41.9960   21.9537 H   0  0  0  0  0  0  0  0  0  0  0  0
  -30.6177   44.1329   25.8646 N   0  0  0  0  0  0  0  0  0  0  0  0
  -29.7795   44.1805   26.9111 C   0  0  0  0  0  0  0  0  0  0  0  0
  -29.1607   43.2150   27.3497 O   0  0  0  0  0  0  0  0  0  0  0  0
  -31.0879   44.9592   25.6087 H   0  0  0  0  0  0  0  0  0  0  0  0
  -29.6249   45.5469   27.5930 C   0  0  0  0  0  0  0  0  0  0  0  0
  -30.0540   45.5280   28.9551 O   0  0  0  0  0  0  0  0  0  0  0  0
  -30.9959   45.2997   28.9942 H   0  0  0  0  0  0  0  0  0  0  0  0
  -33.4270   42.6915   25.6876 C   0  0  0  0  0  0  0  0  0  0  0  0
  -33.2675   41.4535   26.4004 O   0  0  0  0  0  0  0  0  0  0  0  0
  -33.3605   40.7108   25.7834 H   0  0  0  0  0  0  0  0  0  0  0  0
  -34.8301   42.7581   25.0612 C   0  0  0  0  0  0  0  0  0  0  0  0
  -34.7830   43.4213   23.7925 O   0  0  0  0  0  0  0  0  0  0  0  0
  -34.4808   44.3347   23.9162 H   0  0  0  0  0  0  0  0  0  0  0  0
  -35.8196   43.4926   25.9612 C   0  0  0  0  0  0  0  0  0  0  0  0
  -35.5437   43.1276   27.3126 O   0  0  0  0  0  0  0  0  0  0  0  0
  -35.6362   42.1673   27.4135 H   0  0  0  0  0  0  0  0  0  0  0  0
  -31.7781   40.0953   22.1279 O   0  0  0  0  0  0  0  0  0  0  0  0
  -30.5181   39.3992   22.1375 C   0  0  0  0  0  0  0  0  0  0  0  0
  9  1  1  0  0  0
  1 29  1  0  0  0
 29 30  1  0  0  0
  2  1  1  0  0  0
  3  2  1  0  0  0
  4  3  1  0  0  0
  5  3  1  0  0  0
  5  6  1  0  0  0
 13  5  1  0  0  0
  6 20  1  0  0  0
  6  7  1  0  0  0
  7  1  1  0  0  0
 20 21  1  0  0  0
 20 23  1  0  0  0
 24 23  1  0  0  0
 26 23  1  0  0  0
 26 27  1  0  0  0
 14 13  1  0  0  0
 14 15  2  0  0  0
 17 14  1  0  0  0
 18 17  1  0  0  0
 10  9  1  0  0  0
 11  9  2  0  0  0
  4  8  1  0  0  0
 13 16  1  0  0  0
 21 22  1  0  0  0
 24 25  1  0  0  0
 27 28  1  0  0  0
 18 19  1  0  0  0
 10 12  1  0  0  0
M  END
> <minimizedAffinity>
-4.32772

$$$$
