3UXL_CFI_A_361


 11 11  0  0  0  0  0  0  0  0999 V2000
  -22.0766  -23.4415   17.5541 C   0  0  0  0  0  0  0  0  0  0  0  0
  -23.1553  -22.5944   17.3144 C   0  0  0  0  0  0  0  0  0  0  0  0
  -24.4645  -23.0974   17.2635 C   0  0  0  0  0  0  0  0  0  0  0  0
  -24.7350  -24.4468   17.4552 C   0  0  0  0  0  0  0  0  0  0  0  0
  -23.6666  -25.2943   17.6931 C   0  0  0  0  0  0  0  0  0  0  0  0
  -22.3661  -24.7933   17.7386 C   0  0  0  0  0  0  0  0  0  0  0  0
  -20.7011  -22.9521   17.6379 N   0  0  0  0  0  0  0  0  0  0  0  0
  -20.3266  -21.8224   17.1252 O   0  0  0  0  0  0  0  0  0  0  0  0
  -21.0831  -21.3977   16.6912 H   0  0  0  0  0  0  0  0  0  0  0  0
  -18.6260  -23.1953   18.4192 O   0  0  0  0  0  0  0  0  0  0  0  0
  -19.7445  -23.6626   18.2808 N   0  0  0  0  0  0  0  0  0  0  0  0
  3  2  2  0  0  0
  3  4  1  0  0  0
  2  1  1  0  0  0
  4  5  2  0  0  0
  1  7  1  0  0  0
  1  6  2  0  0  0
  8  7  1  0  0  0
  7 11  1  0  0  0
  5  6  1  0  0  0
 11 10  2  0  0  0
  8  9  1  0  0  0
M  END
> <minimizedAffinity>
-7.11391

$$$$
3UXL_CFI_A_361


 11 11  0  0  0  0  0  0  0  0999 V2000
  -22.0925  -23.4750   17.5931 C   0  0  0  0  0  0  0  0  0  0  0  0
  -22.4099  -24.8163   17.7897 C   0  0  0  0  0  0  0  0  0  0  0  0
  -23.7403  -25.2568   17.7138 C   0  0  0  0  0  0  0  0  0  0  0  0
  -24.7832  -24.3819   17.4353 C   0  0  0  0  0  0  0  0  0  0  0  0
  -24.4741  -23.0468   17.2398 C   0  0  0  0  0  0  0  0  0  0  0  0
  -23.1522  -22.6103   17.3202 C   0  0  0  0  0  0  0  0  0  0  0  0
  -20.7167  -22.9815   17.6407 N   0  0  0  0  0  0  0  0  0  0  0  0
  -20.3664  -21.8336   17.1519 O   0  0  0  0  0  0  0  0  0  0  0  0
  -21.1405  -21.3988   16.7612 H   0  0  0  0  0  0  0  0  0  0  0  0
  -18.6475  -23.1983   18.4452 O   0  0  0  0  0  0  0  0  0  0  0  0
  -19.7335  -23.7079   18.2231 N   0  0  0  0  0  0  0  0  0  0  0  0
  3  2  2  0  0  0
  3  4  1  0  0  0
  2  1  1  0  0  0
  4  5  2  0  0  0
  1  7  1  0  0  0
  1  6  2  0  0  0
  8  7  1  0  0  0
  7 11  1  0  0  0
  5  6  1  0  0  0
 11 10  2  0  0  0
  8  9  1  0  0  0
M  END
> <minimizedAffinity>
-7.09658

$$$$
3UXL_CFI_A_361


 11 11  0  0  0  0  0  0  0  0999 V2000
  -22.4611  -23.6384   17.5672 C   0  0  0  0  0  0  0  0  0  0  0  0
  -23.7192  -23.1042   17.3017 C   0  0  0  0  0  0  0  0  0  0  0  0
  -24.8654  -23.9129   17.3458 C   0  0  0  0  0  0  0  0  0  0  0  0
  -24.7924  -25.2645   17.6597 C   0  0  0  0  0  0  0  0  0  0  0  0
  -23.5442  -25.8018   17.9237 C   0  0  0  0  0  0  0  0  0  0  0  0
  -22.4061  -24.9976   17.8749 C   0  0  0  0  0  0  0  0  0  0  0  0
  -21.2467  -22.8239   17.5544 N   0  0  0  0  0  0  0  0  0  0  0  0
  -20.0638  -23.3264   17.7203 O   0  0  0  0  0  0  0  0  0  0  0  0
  -20.1358  -24.2837   17.8594 H   0  0  0  0  0  0  0  0  0  0  0  0
  -20.3298  -20.7906   17.5811 O   0  0  0  0  0  0  0  0  0  0  0  0
  -21.3041  -21.4869   17.3482 N   0  0  0  0  0  0  0  0  0  0  0  0
  3  2  2  0  0  0
  3  4  1  0  0  0
  2  1  1  0  0  0
  4  5  2  0  0  0
  1  7  1  0  0  0
  1  6  2  0  0  0
  8  7  1  0  0  0
  7 11  1  0  0  0
  5  6  1  0  0  0
 11 10  2  0  0  0
  8  9  1  0  0  0
M  END
> <minimizedAffinity>
-7.01882

$$$$
3UXL_CFI_A_361


 11 11  0  0  0  0  0  0  0  0999 V2000
  -22.7820  -23.1127   17.1274 C   0  0  0  0  0  0  0  0  0  0  0  0
  -24.1735  -23.0631   17.1371 C   0  0  0  0  0  0  0  0  0  0  0  0
  -24.9296  -24.2068   17.4371 C   0  0  0  0  0  0  0  0  0  0  0  0
  -24.3259  -25.4211   17.7401 C   0  0  0  0  0  0  0  0  0  0  0  0
  -22.9428  -25.4771   17.7312 C   0  0  0  0  0  0  0  0  0  0  0  0
  -22.1934  -24.3408   17.4283 C   0  0  0  0  0  0  0  0  0  0  0  0
  -21.9593  -21.9377   16.8431 N   0  0  0  0  0  0  0  0  0  0  0  0
  -22.3807  -20.9438   16.1262 O   0  0  0  0  0  0  0  0  0  0  0  0
  -23.2843  -21.1241   15.8229 H   0  0  0  0  0  0  0  0  0  0  0  0
  -20.2585  -20.7298   17.6329 O   0  0  0  0  0  0  0  0  0  0  0  0
  -20.7043  -21.8267   17.3389 N   0  0  0  0  0  0  0  0  0  0  0  0
  3  2  2  0  0  0
  3  4  1  0  0  0
  2  1  1  0  0  0
  4  5  2  0  0  0
  1  7  1  0  0  0
  1  6  2  0  0  0
  8  7  1  0  0  0
  7 11  1  0  0  0
  5  6  1  0  0  0
 11 10  2  0  0  0
  8  9  1  0  0  0
M  END
> <minimizedAffinity>
-6.93346

$$$$
3UXL_CFI_A_361


 11 11  0  0  0  0  0  0  0  0999 V2000
  -22.7410  -23.1333   17.1923 C   0  0  0  0  0  0  0  0  0  0  0  0
  -22.1823  -24.3533   17.5638 C   0  0  0  0  0  0  0  0  0  0  0  0
  -22.9977  -25.4645   17.8283 C   0  0  0  0  0  0  0  0  0  0  0  0
  -24.3815  -25.3945   17.7245 C   0  0  0  0  0  0  0  0  0  0  0  0
  -24.9432  -24.1839   17.3564 C   0  0  0  0  0  0  0  0  0  0  0  0
  -24.1316  -23.0798   17.0986 C   0  0  0  0  0  0  0  0  0  0  0  0
  -21.9242  -21.9597   16.8858 N   0  0  0  0  0  0  0  0  0  0  0  0
  -22.3594  -20.9700   16.1713 O   0  0  0  0  0  0  0  0  0  0  0  0
  -23.2684  -21.1523   15.8860 H   0  0  0  0  0  0  0  0  0  0  0  0
  -20.2071  -20.7462   17.6304 O   0  0  0  0  0  0  0  0  0  0  0  0
  -20.6601  -21.8455   17.3574 N   0  0  0  0  0  0  0  0  0  0  0  0
  3  2  2  0  0  0
  3  4  1  0  0  0
  2  1  1  0  0  0
  4  5  2  0  0  0
  1  7  1  0  0  0
  1  6  2  0  0  0
  8  7  1  0  0  0
  7 11  1  0  0  0
  5  6  1  0  0  0
 11 10  2  0  0  0
  8  9  1  0  0  0
M  END
> <minimizedAffinity>
-6.91074

$$$$
3UXL_CFI_A_361


 11 11  0  0  0  0  0  0  0  0999 V2000
  -22.0688  -23.7948   17.6696 C   0  0  0  0  0  0  0  0  0  0  0  0
  -22.5970  -25.0760   17.8043 C   0  0  0  0  0  0  0  0  0  0  0  0
  -23.9774  -25.2988   17.6837 C   0  0  0  0  0  0  0  0  0  0  0  0
  -24.8631  -24.2610   17.4208 C   0  0  0  0  0  0  0  0  0  0  0  0
  -24.3442  -22.9846   17.2868 C   0  0  0  0  0  0  0  0  0  0  0  0
  -22.9729  -22.7647   17.4116 C   0  0  0  0  0  0  0  0  0  0  0  0
  -20.6346  -23.5259   17.7651 N   0  0  0  0  0  0  0  0  0  0  0  0
  -19.7640  -24.4497   18.0258 O   0  0  0  0  0  0  0  0  0  0  0  0
  -20.2193  -25.2971   18.1507 H   0  0  0  0  0  0  0  0  0  0  0  0
  -18.9559  -22.0571   17.7418 O   0  0  0  0  0  0  0  0  0  0  0  0
  -20.1423  -22.2804   17.5654 N   0  0  0  0  0  0  0  0  0  0  0  0
  3  2  2  0  0  0
  3  4  1  0  0  0
  2  1  1  0  0  0
  4  5  2  0  0  0
  1  7  1  0  0  0
  1  6  2  0  0  0
  8  7  1  0  0  0
  7 11  1  0  0  0
  5  6  1  0  0  0
 11 10  2  0  0  0
  8  9  1  0  0  0
M  END
> <minimizedAffinity>
-6.69735

$$$$
3UXL_CFI_A_361


 11 11  0  0  0  0  0  0  0  0999 V2000
  -23.6527  -23.6907   16.9619 C   0  0  0  0  0  0  0  0  0  0  0  0
  -22.6086  -23.5598   16.0501 C   0  0  0  0  0  0  0  0  0  0  0  0
  -22.2424  -22.2984   15.5557 C   0  0  0  0  0  0  0  0  0  0  0  0
  -22.8962  -21.1400   15.9574 C   0  0  0  0  0  0  0  0  0  0  0  0
  -23.9359  -21.2637   16.8630 C   0  0  0  0  0  0  0  0  0  0  0  0
  -24.3012  -22.5184   17.3495 C   0  0  0  0  0  0  0  0  0  0  0  0
  -24.0485  -24.9841   17.5176 N   0  0  0  0  0  0  0  0  0  0  0  0
  -25.2655  -25.2513   17.8737 O   0  0  0  0  0  0  0  0  0  0  0  0
  -25.8247  -24.4731   17.7229 H   0  0  0  0  0  0  0  0  0  0  0  0
  -23.3631  -26.8818   18.4688 O   0  0  0  0  0  0  0  0  0  0  0  0
  -23.1480  -25.9835   17.6719 N   0  0  0  0  0  0  0  0  0  0  0  0
  3  2  2  0  0  0
  3  4  1  0  0  0
  2  1  1  0  0  0
  4  5  2  0  0  0
  1  7  1  0  0  0
  1  6  2  0  0  0
  8  7  1  0  0  0
  7 11  1  0  0  0
  5  6  1  0  0  0
 11 10  2  0  0  0
  8  9  1  0  0  0
M  END
> <minimizedAffinity>
-4.86148

$$$$
3UXL_CFI_A_361


 11 11  0  0  0  0  0  0  0  0999 V2000
  -22.8467  -23.5219   17.2058 C   0  0  0  0  0  0  0  0  0  0  0  0
  -24.2292  -23.3573   17.1889 C   0  0  0  0  0  0  0  0  0  0  0  0
  -24.8157  -22.2900   16.4912 C   0  0  0  0  0  0  0  0  0  0  0  0
  -24.0482  -21.3677   15.7905 C   0  0  0  0  0  0  0  0  0  0  0  0
  -22.6730  -21.5254   15.8043 C   0  0  0  0  0  0  0  0  0  0  0  0
  -22.0920  -22.5838   16.5019 C   0  0  0  0  0  0  0  0  0  0  0  0
  -22.1997  -24.6338   17.9012 N   0  0  0  0  0  0  0  0  0  0  0  0
  -20.9320  -24.6503   18.1695 O   0  0  0  0  0  0  0  0  0  0  0  0
  -20.5191  -23.8409   17.8298 H   0  0  0  0  0  0  0  0  0  0  0  0
  -23.3139  -26.5256   17.5071 O   0  0  0  0  0  0  0  0  0  0  0  0
  -22.9124  -25.7071   18.3178 N   0  0  0  0  0  0  0  0  0  0  0  0
  3  2  2  0  0  0
  3  4  1  0  0  0
  2  1  1  0  0  0
  4  5  2  0  0  0
  1  7  1  0  0  0
  1  6  2  0  0  0
  8  7  1  0  0  0
  7 11  1  0  0  0
  5  6  1  0  0  0
 11 10  2  0  0  0
  8  9  1  0  0  0
M  END
> <minimizedAffinity>
-4.62097

$$$$
