3G0E_B49_A_9000


 26 28  0  0  0  0  0  0  0  0999 V2000
   36.8295   -8.1610  -79.5276 C   0  0  0  0  0  0  0  0  0  0  0  0
   35.4558   -8.2323  -79.1655 C   0  0  0  0  0  0  0  0  0  0  0  0
   36.8225   -5.6875  -79.2919 C   0  0  0  0  0  0  0  0  0  0  0  0
   37.4969   -6.9015  -79.5875 C   0  0  0  0  0  0  0  0  0  0  0  0
   35.4478   -5.7629  -78.9316 C   0  0  0  0  0  0  0  0  0  0  0  0
   34.4164   -4.7565  -78.5649 C   0  0  0  0  0  0  0  0  0  0  0  0
   33.1430   -5.5314  -78.2980 C   0  0  0  0  0  0  0  0  0  0  0  0
   34.7005   -3.4352  -78.5224 C   0  0  0  0  0  0  0  0  0  0  0  0
   34.7972   -7.0265  -78.8763 C   0  0  0  0  0  0  0  0  0  0  0  0
   33.4632   -6.8727  -78.5067 N   0  0  0  0  0  0  0  0  0  0  0  0
   32.0632   -5.0835  -77.9718 O   0  0  0  0  0  0  0  0  0  0  0  0
   38.7942   -6.8678  -79.9293 F   0  0  0  0  0  0  0  0  0  0  0  0
   32.8266   -7.6169  -78.4056 H   0  0  0  0  0  0  0  0  0  0  0  0
   30.5476   -0.9010  -77.6959 C   0  0  0  0  0  0  0  0  0  0  0  0
   34.2824   -0.9569  -78.0016 C   0  0  0  0  0  0  0  0  0  0  0  0
   35.6862   -0.4290  -78.0159 C   0  0  0  0  0  0  0  0  0  0  0  0
   32.0190   -1.0705  -77.8425 C   0  0  0  0  0  0  0  0  0  0  0  0
   33.9009   -2.2820  -78.2263 C   0  0  0  0  0  0  0  0  0  0  0  0
   33.0817   -0.1803  -77.7593 C   0  0  0  0  0  0  0  0  0  0  0  0
   32.5317   -2.3153  -78.1193 N   0  0  0  0  0  0  0  0  0  0  0  0
   31.9866   -3.1280  -78.2272 H   0  0  0  0  0  0  0  0  0  0  0  0
   33.0078    1.2688  -77.4820 C   0  0  0  0  0  0  0  0  0  0  0  0
   32.5635    2.0509  -78.5339 N   0  0  0  0  0  0  0  0  0  0  0  0
   33.3298    1.7303  -76.3828 O   0  0  0  0  0  0  0  0  0  0  0  0
   32.3192    1.6314  -79.3904 H   0  0  0  0  0  0  0  0  0  0  0  0
   32.4917    3.0268  -78.4256 H   0  0  0  0  0  0  0  0  0  0  0  0
 14 17  1  0  0  0
  1  2  2  0  0  0
  1  4  1  0  0  0
  2  9  1  0  0  0
  3  4  2  0  0  0
  3  5  1  0  0  0
 15 16  1  0  0  0
 15 18  2  0  0  0
 15 19  1  0  0  0
  4 12  1  0  0  0
  5  6  1  0  0  0
  5  9  2  0  0  0
  6  7  1  0  0  0
  6  8  2  0  0  0
  7 10  1  0  0  0
  7 11  2  0  0  0
 22 19  1  0  0  0
 22 23  1  0  0  0
 22 24  2  0  0  0
  8 18  1  0  0  0
 17 19  2  0  0  0
 17 20  1  0  0  0
  9 10  1  0  0  0
 18 20  1  0  0  0
 20 21  1  0  0  0
 10 13  1  0  0  0
 23 25  1  0  0  0
 23 26  1  0  0  0
M  END
> <minimizedAffinity>
-10.37843

$$$$
3G0E_B49_A_9000


 26 28  0  0  0  0  0  0  0  0999 V2000
   32.1012    1.1643  -77.4969 C   0  0  0  0  0  0  0  0  0  0  0  0
   31.2468    0.0271  -77.5024 C   0  0  0  0  0  0  0  0  0  0  0  0
   34.0799   -0.2481  -78.0102 C   0  0  0  0  0  0  0  0  0  0  0  0
   33.4980    1.0204  -77.7486 C   0  0  0  0  0  0  0  0  0  0  0  0
   33.2222   -1.3837  -78.0131 C   0  0  0  0  0  0  0  0  0  0  0  0
   33.4316   -2.8395  -78.2319 C   0  0  0  0  0  0  0  0  0  0  0  0
   32.0720   -3.4904  -78.0883 C   0  0  0  0  0  0  0  0  0  0  0  0
   34.6571   -3.3463  -78.4959 C   0  0  0  0  0  0  0  0  0  0  0  0
   31.8317   -1.2231  -77.7606 C   0  0  0  0  0  0  0  0  0  0  0  0
   31.1815   -2.4538  -77.8092 N   0  0  0  0  0  0  0  0  0  0  0  0
   31.8058   -4.6701  -78.1911 O   0  0  0  0  0  0  0  0  0  0  0  0
   34.2771    2.1131  -77.7397 F   0  0  0  0  0  0  0  0  0  0  0  0
   30.2155   -2.5766  -77.6647 H   0  0  0  0  0  0  0  0  0  0  0  0
   34.5641   -8.2734  -78.2369 C   0  0  0  0  0  0  0  0  0  0  0  0
   36.2755   -5.1372  -79.3684 C   0  0  0  0  0  0  0  0  0  0  0  0
   37.3237   -4.2766  -80.0090 C   0  0  0  0  0  0  0  0  0  0  0  0
   35.1293   -6.9525  -78.6257 C   0  0  0  0  0  0  0  0  0  0  0  0
   35.1239   -4.6837  -78.7204 C   0  0  0  0  0  0  0  0  0  0  0  0
   36.2829   -6.5862  -79.3065 C   0  0  0  0  0  0  0  0  0  0  0  0
   34.4550   -5.8033  -78.2887 N   0  0  0  0  0  0  0  0  0  0  0  0
   33.6006   -5.7847  -77.7998 H   0  0  0  0  0  0  0  0  0  0  0  0
   37.3146   -7.4888  -79.8570 C   0  0  0  0  0  0  0  0  0  0  0  0
   38.6224   -7.1357  -79.5736 N   0  0  0  0  0  0  0  0  0  0  0  0
   37.0101   -8.4814  -80.5257 O   0  0  0  0  0  0  0  0  0  0  0  0
   38.8100   -6.3331  -79.0351 H   0  0  0  0  0  0  0  0  0  0  0  0
   39.3652   -7.6871  -79.9104 H   0  0  0  0  0  0  0  0  0  0  0  0
 14 17  1  0  0  0
  1  2  2  0  0  0
  1  4  1  0  0  0
  2  9  1  0  0  0
  3  4  2  0  0  0
  3  5  1  0  0  0
 15 16  1  0  0  0
 15 18  2  0  0  0
 15 19  1  0  0  0
  4 12  1  0  0  0
  5  6  1  0  0  0
  5  9  2  0  0  0
  6  7  1  0  0  0
  6  8  2  0  0  0
  7 10  1  0  0  0
  7 11  2  0  0  0
 22 19  1  0  0  0
 22 23  1  0  0  0
 22 24  2  0  0  0
  8 18  1  0  0  0
 17 19  2  0  0  0
 17 20  1  0  0  0
  9 10  1  0  0  0
 18 20  1  0  0  0
 20 21  1  0  0  0
 10 13  1  0  0  0
 23 25  1  0  0  0
 23 26  1  0  0  0
M  END
> <minimizedAffinity>
-9.14008

$$$$
3G0E_B49_A_9000


 26 28  0  0  0  0  0  0  0  0999 V2000
   35.5679   -7.6697  -79.3038 C   0  0  0  0  0  0  0  0  0  0  0  0
   34.2849   -7.2365  -78.8686 C   0  0  0  0  0  0  0  0  0  0  0  0
   36.4517   -5.3500  -79.1952 C   0  0  0  0  0  0  0  0  0  0  0  0
   36.6321   -6.7328  -79.4623 C   0  0  0  0  0  0  0  0  0  0  0  0
   35.1661   -4.9202  -78.7616 C   0  0  0  0  0  0  0  0  0  0  0  0
   34.5839   -3.6021  -78.3946 C   0  0  0  0  0  0  0  0  0  0  0  0
   33.1394   -3.8645  -78.0234 C   0  0  0  0  0  0  0  0  0  0  0  0
   35.3190   -2.4678  -78.4346 C   0  0  0  0  0  0  0  0  0  0  0  0
   34.1159   -5.8670  -78.6083 C   0  0  0  0  0  0  0  0  0  0  0  0
   32.9500   -5.2375  -78.1792 N   0  0  0  0  0  0  0  0  0  0  0  0
   32.3117   -3.0520  -77.6658 O   0  0  0  0  0  0  0  0  0  0  0  0
   37.8319   -7.1734  -79.8714 F   0  0  0  0  0  0  0  0  0  0  0  0
   32.0996   -5.7029  -78.0076 H   0  0  0  0  0  0  0  0  0  0  0  0
   33.1008    1.8874  -79.1146 C   0  0  0  0  0  0  0  0  0  0  0  0
   35.4731   -0.2497  -77.1525 C   0  0  0  0  0  0  0  0  0  0  0  0
   36.4635   -0.6128  -76.0863 C   0  0  0  0  0  0  0  0  0  0  0  0
   34.0082    0.9271  -78.4293 C   0  0  0  0  0  0  0  0  0  0  0  0
   35.0003   -1.0973  -78.1574 C   0  0  0  0  0  0  0  0  0  0  0  0
   34.8431    1.0452  -77.3259 C   0  0  0  0  0  0  0  0  0  0  0  0
   34.1173   -0.3573  -78.9058 N   0  0  0  0  0  0  0  0  0  0  0  0
   33.6250   -0.7034  -79.6850 H   0  0  0  0  0  0  0  0  0  0  0  0
   35.0524    2.2479  -76.4941 C   0  0  0  0  0  0  0  0  0  0  0  0
   34.3636    2.2646  -75.2937 N   0  0  0  0  0  0  0  0  0  0  0  0
   35.7907    3.1657  -76.8649 O   0  0  0  0  0  0  0  0  0  0  0  0
   33.7875    1.5057  -75.0461 H   0  0  0  0  0  0  0  0  0  0  0  0
   34.4499    3.0355  -74.6874 H   0  0  0  0  0  0  0  0  0  0  0  0
 14 17  1  0  0  0
  1  2  2  0  0  0
  1  4  1  0  0  0
  2  9  1  0  0  0
  3  4  2  0  0  0
  3  5  1  0  0  0
 15 16  1  0  0  0
 15 18  2  0  0  0
 15 19  1  0  0  0
  4 12  1  0  0  0
  5  6  1  0  0  0
  5  9  2  0  0  0
  6  7  1  0  0  0
  6  8  2  0  0  0
  7 10  1  0  0  0
  7 11  2  0  0  0
 22 19  1  0  0  0
 22 23  1  0  0  0
 22 24  2  0  0  0
  8 18  1  0  0  0
 17 19  2  0  0  0
 17 20  1  0  0  0
  9 10  1  0  0  0
 18 20  1  0  0  0
 20 21  1  0  0  0
 10 13  1  0  0  0
 23 25  1  0  0  0
 23 26  1  0  0  0
M  END
> <minimizedAffinity>
-9.03874

$$$$
3G0E_B49_A_9000


 26 28  0  0  0  0  0  0  0  0999 V2000
   31.7900    1.7704  -77.3948 C   0  0  0  0  0  0  0  0  0  0  0  0
   33.1687    1.7573  -77.7445 C   0  0  0  0  0  0  0  0  0  0  0  0
   31.6643   -0.7053  -77.5648 C   0  0  0  0  0  0  0  0  0  0  0  0
   31.0546    0.5510  -77.3079 C   0  0  0  0  0  0  0  0  0  0  0  0
   33.0433   -0.7141  -77.9161 C   0  0  0  0  0  0  0  0  0  0  0  0
   34.0190   -1.7837  -78.2554 C   0  0  0  0  0  0  0  0  0  0  0  0
   35.3342   -1.0863  -78.5329 C   0  0  0  0  0  0  0  0  0  0  0  0
   33.6609   -3.0874  -78.2772 C   0  0  0  0  0  0  0  0  0  0  0  0
   33.7624    0.5103  -77.9980 C   0  0  0  0  0  0  0  0  0  0  0  0
   35.0877    0.2750  -78.3556 N   0  0  0  0  0  0  0  0  0  0  0  0
   36.3880   -1.5997  -78.8475 O   0  0  0  0  0  0  0  0  0  0  0  0
   29.7560    0.5964  -76.9724 F   0  0  0  0  0  0  0  0  0  0  0  0
   35.7650    0.9805  -78.4688 H   0  0  0  0  0  0  0  0  0  0  0  0
   37.6001   -5.8120  -79.4647 C   0  0  0  0  0  0  0  0  0  0  0  0
   33.9408   -5.6064  -78.6823 C   0  0  0  0  0  0  0  0  0  0  0  0
   32.5347   -6.0810  -78.4655 C   0  0  0  0  0  0  0  0  0  0  0  0
   36.1669   -5.5830  -79.1349 C   0  0  0  0  0  0  0  0  0  0  0  0
   34.3860   -4.2856  -78.5858 C   0  0  0  0  0  0  0  0  0  0  0  0
   35.0761   -6.4368  -79.0361 C   0  0  0  0  0  0  0  0  0  0  0  0
   35.7318   -4.3085  -78.8608 N   0  0  0  0  0  0  0  0  0  0  0  0
   36.3113   -3.5126  -78.8613 H   0  0  0  0  0  0  0  0  0  0  0  0
   35.0690   -7.8984  -79.2501 C   0  0  0  0  0  0  0  0  0  0  0  0
   34.6253   -8.6516  -78.1771 N   0  0  0  0  0  0  0  0  0  0  0  0
   35.4421   -8.3937  -80.3181 O   0  0  0  0  0  0  0  0  0  0  0  0
   34.3388   -8.2056  -77.3475 H   0  0  0  0  0  0  0  0  0  0  0  0
   34.5961   -9.6335  -78.2435 H   0  0  0  0  0  0  0  0  0  0  0  0
 14 17  1  0  0  0
  1  2  2  0  0  0
  1  4  1  0  0  0
  2  9  1  0  0  0
  3  4  2  0  0  0
  3  5  1  0  0  0
 15 16  1  0  0  0
 15 18  2  0  0  0
 15 19  1  0  0  0
  4 12  1  0  0  0
  5  6  1  0  0  0
  5  9  2  0  0  0
  6  7  1  0  0  0
  6  8  2  0  0  0
  7 10  1  0  0  0
  7 11  2  0  0  0
 22 19  1  0  0  0
 22 23  1  0  0  0
 22 24  2  0  0  0
  8 18  1  0  0  0
 17 19  2  0  0  0
 17 20  1  0  0  0
  9 10  1  0  0  0
 18 20  1  0  0  0
 20 21  1  0  0  0
 10 13  1  0  0  0
 23 25  1  0  0  0
 23 26  1  0  0  0
M  END
> <minimizedAffinity>
-8.40716

$$$$
3G0E_B49_A_9000


 26 28  0  0  0  0  0  0  0  0999 V2000
   34.4805   -5.2007  -78.5643 C   0  0  0  0  0  0  0  0  0  0  0  0
   35.2896   -4.0337  -78.4825 C   0  0  0  0  0  0  0  0  0  0  0  0
   32.4178   -3.8667  -78.1910 C   0  0  0  0  0  0  0  0  0  0  0  0
   33.0641   -5.1101  -78.4196 C   0  0  0  0  0  0  0  0  0  0  0  0
   33.2309   -2.7016  -78.1081 C   0  0  0  0  0  0  0  0  0  0  0  0
   32.9530   -1.2584  -77.8820 C   0  0  0  0  0  0  0  0  0  0  0  0
   34.2951   -0.5578  -77.9114 C   0  0  0  0  0  0  0  0  0  0  0  0
   31.6942   -0.8007  -77.6963 C   0  0  0  0  0  0  0  0  0  0  0  0
   34.6415   -2.8091  -78.2548 C   0  0  0  0  0  0  0  0  0  0  0  0
   35.2410   -1.5573  -78.1389 N   0  0  0  0  0  0  0  0  0  0  0  0
   34.5103    0.6277  -77.7654 O   0  0  0  0  0  0  0  0  0  0  0  0
   32.3281   -6.2289  -78.5050 F   0  0  0  0  0  0  0  0  0  0  0  0
   36.2100   -1.3980  -78.2087 H   0  0  0  0  0  0  0  0  0  0  0  0
   29.2641    2.6931  -75.1984 C   0  0  0  0  0  0  0  0  0  0  0  0
   31.2383    1.6711  -78.2156 C   0  0  0  0  0  0  0  0  0  0  0  0
   31.9225    1.8073  -79.5433 C   0  0  0  0  0  0  0  0  0  0  0  0
   30.0581    2.1511  -76.3347 C   0  0  0  0  0  0  0  0  0  0  0  0
   31.1678    0.5091  -77.4432 C   0  0  0  0  0  0  0  0  0  0  0  0
   30.5274    2.7208  -77.5110 C   0  0  0  0  0  0  0  0  0  0  0  0
   30.4533    0.8349  -76.3160 N   0  0  0  0  0  0  0  0  0  0  0  0
   30.2501    0.2052  -75.5870 H   0  0  0  0  0  0  0  0  0  0  0  0
   30.3402    4.1158  -77.9595 C   0  0  0  0  0  0  0  0  0  0  0  0
   31.3012    5.0117  -77.5243 N   0  0  0  0  0  0  0  0  0  0  0  0
   29.3828    4.4400  -78.6690 O   0  0  0  0  0  0  0  0  0  0  0  0
   32.0449    4.7000  -76.9595 H   0  0  0  0  0  0  0  0  0  0  0  0
   31.2410    5.9606  -77.7794 H   0  0  0  0  0  0  0  0  0  0  0  0
 14 17  1  0  0  0
  1  2  2  0  0  0
  1  4  1  0  0  0
  2  9  1  0  0  0
  3  4  2  0  0  0
  3  5  1  0  0  0
 15 16  1  0  0  0
 15 18  2  0  0  0
 15 19  1  0  0  0
  4 12  1  0  0  0
  5  6  1  0  0  0
  5  9  2  0  0  0
  6  7  1  0  0  0
  6  8  2  0  0  0
  7 10  1  0  0  0
  7 11  2  0  0  0
 22 19  1  0  0  0
 22 23  1  0  0  0
 22 24  2  0  0  0
  8 18  1  0  0  0
 17 19  2  0  0  0
 17 20  1  0  0  0
  9 10  1  0  0  0
 18 20  1  0  0  0
 20 21  1  0  0  0
 10 13  1  0  0  0
 23 25  1  0  0  0
 23 26  1  0  0  0
M  END
> <minimizedAffinity>
-8.00188

$$$$
3G0E_B49_A_9000


 26 28  0  0  0  0  0  0  0  0999 V2000
   36.1569   -8.3457  -79.3073 C   0  0  0  0  0  0  0  0  0  0  0  0
   36.9816   -7.3188  -79.8444 C   0  0  0  0  0  0  0  0  0  0  0  0
   34.5614   -6.6700  -78.4016 C   0  0  0  0  0  0  0  0  0  0  0  0
   34.9641   -8.0176  -78.5968 C   0  0  0  0  0  0  0  0  0  0  0  0
   35.3901   -5.6454  -78.9390 C   0  0  0  0  0  0  0  0  0  0  0  0
   35.3261   -4.1599  -78.9483 C   0  0  0  0  0  0  0  0  0  0  0  0
   36.5496   -3.6869  -79.7049 C   0  0  0  0  0  0  0  0  0  0  0  0
   34.3132   -3.4913  -78.3520 C   0  0  0  0  0  0  0  0  0  0  0  0
   36.5759   -5.9894  -79.6451 C   0  0  0  0  0  0  0  0  0  0  0  0
   37.2338   -4.8423  -80.0820 N   0  0  0  0  0  0  0  0  0  0  0  0
   36.8747   -2.5407  -79.9366 O   0  0  0  0  0  0  0  0  0  0  0  0
   34.2056   -9.0093  -78.1049 F   0  0  0  0  0  0  0  0  0  0  0  0
   38.0756   -4.8465  -80.5925 H   0  0  0  0  0  0  0  0  0  0  0  0
   35.3603    1.3039  -77.8413 C   0  0  0  0  0  0  0  0  0  0  0  0
   32.8077   -1.4271  -78.1071 C   0  0  0  0  0  0  0  0  0  0  0  0
   31.4511   -2.0653  -78.1521 C   0  0  0  0  0  0  0  0  0  0  0  0
   34.4612    0.1239  -77.9616 C   0  0  0  0  0  0  0  0  0  0  0  0
   34.0322   -2.0930  -78.2015 C   0  0  0  0  0  0  0  0  0  0  0  0
   33.0791   -0.0110  -77.9506 C   0  0  0  0  0  0  0  0  0  0  0  0
   35.0065   -1.1284  -78.1140 N   0  0  0  0  0  0  0  0  0  0  0  0
   35.9730   -1.3112  -78.1552 H   0  0  0  0  0  0  0  0  0  0  0  0
   32.0817    1.0690  -77.8062 C   0  0  0  0  0  0  0  0  0  0  0  0
   31.6568    1.6447  -78.9910 N   0  0  0  0  0  0  0  0  0  0  0  0
   31.6724    1.4221  -76.6959 O   0  0  0  0  0  0  0  0  0  0  0  0
   32.0156    1.3249  -79.8501 H   0  0  0  0  0  0  0  0  0  0  0  0
   30.9956    2.3740  -78.9745 H   0  0  0  0  0  0  0  0  0  0  0  0
 14 17  1  0  0  0
  1  2  2  0  0  0
  1  4  1  0  0  0
  2  9  1  0  0  0
  3  4  2  0  0  0
  3  5  1  0  0  0
 15 16  1  0  0  0
 15 18  2  0  0  0
 15 19  1  0  0  0
  4 12  1  0  0  0
  5  6  1  0  0  0
  5  9  2  0  0  0
  6  7  1  0  0  0
  6  8  2  0  0  0
  7 10  1  0  0  0
  7 11  2  0  0  0
 22 19  1  0  0  0
 22 23  1  0  0  0
 22 24  2  0  0  0
  8 18  1  0  0  0
 17 19  2  0  0  0
 17 20  1  0  0  0
  9 10  1  0  0  0
 18 20  1  0  0  0
 20 21  1  0  0  0
 10 13  1  0  0  0
 23 25  1  0  0  0
 23 26  1  0  0  0
M  END
> <minimizedAffinity>
-7.99601

$$$$
3G0E_B49_A_9000


 26 28  0  0  0  0  0  0  0  0999 V2000
   34.2193   -5.9219  -78.8137 C   0  0  0  0  0  0  0  0  0  0  0  0
   32.9564   -5.3512  -78.4934 C   0  0  0  0  0  0  0  0  0  0  0  0
   35.3423   -3.7195  -78.5650 C   0  0  0  0  0  0  0  0  0  0  0  0
   35.3920   -5.1102  -78.8468 C   0  0  0  0  0  0  0  0  0  0  0  0
   34.0766   -3.1518  -78.2467 C   0  0  0  0  0  0  0  0  0  0  0  0
   33.6125   -1.7809  -77.9057 C   0  0  0  0  0  0  0  0  0  0  0  0
   32.1184   -1.8820  -77.6813 C   0  0  0  0  0  0  0  0  0  0  0  0
   34.4704   -0.7373  -77.8475 C   0  0  0  0  0  0  0  0  0  0  0  0
   32.9171   -3.9749  -78.2177 C   0  0  0  0  0  0  0  0  0  0  0  0
   31.7926   -3.2224  -77.8876 N   0  0  0  0  0  0  0  0  0  0  0  0
   31.3558   -0.9853  -77.3854 O   0  0  0  0  0  0  0  0  0  0  0  0
   36.5693   -5.6791  -79.1492 F   0  0  0  0  0  0  0  0  0  0  0  0
   30.8827   -3.5902  -77.8096 H   0  0  0  0  0  0  0  0  0  0  0  0
   34.5915    3.3948  -75.1527 C   0  0  0  0  0  0  0  0  0  0  0  0
   33.7561    1.6711  -78.3739 C   0  0  0  0  0  0  0  0  0  0  0  0
   33.2564    1.5123  -79.7791 C   0  0  0  0  0  0  0  0  0  0  0  0
   34.3130    2.5847  -76.3698 C   0  0  0  0  0  0  0  0  0  0  0  0
   34.2815    0.6569  -77.5694 C   0  0  0  0  0  0  0  0  0  0  0  0
   33.7723    2.9031  -77.6086 C   0  0  0  0  0  0  0  0  0  0  0  0
   34.6100    1.2428  -76.3710 N   0  0  0  0  0  0  0  0  0  0  0  0
   35.0078    0.7622  -75.6094 H   0  0  0  0  0  0  0  0  0  0  0  0
   33.3039    4.2295  -78.0598 C   0  0  0  0  0  0  0  0  0  0  0  0
   34.2684    5.0296  -78.6473 N   0  0  0  0  0  0  0  0  0  0  0  0
   32.1301    4.5824  -77.9089 O   0  0  0  0  0  0  0  0  0  0  0  0
   35.1907    4.6989  -78.7431 H   0  0  0  0  0  0  0  0  0  0  0  0
   34.0321    5.9294  -78.9693 H   0  0  0  0  0  0  0  0  0  0  0  0
 14 17  1  0  0  0
  1  2  2  0  0  0
  1  4  1  0  0  0
  2  9  1  0  0  0
  3  4  2  0  0  0
  3  5  1  0  0  0
 15 16  1  0  0  0
 15 18  2  0  0  0
 15 19  1  0  0  0
  4 12  1  0  0  0
  5  6  1  0  0  0
  5  9  2  0  0  0
  6  7  1  0  0  0
  6  8  2  0  0  0
  7 10  1  0  0  0
  7 11  2  0  0  0
 22 19  1  0  0  0
 22 23  1  0  0  0
 22 24  2  0  0  0
  8 18  1  0  0  0
 17 19  2  0  0  0
 17 20  1  0  0  0
  9 10  1  0  0  0
 18 20  1  0  0  0
 20 21  1  0  0  0
 10 13  1  0  0  0
 23 25  1  0  0  0
 23 26  1  0  0  0
M  END
> <minimizedAffinity>
-7.89404

$$$$
3G0E_B49_A_9000


 26 28  0  0  0  0  0  0  0  0999 V2000
   33.6169   -5.2802  -78.3310 C   0  0  0  0  0  0  0  0  0  0  0  0
   32.4633   -4.5137  -78.0068 C   0  0  0  0  0  0  0  0  0  0  0  0
   34.9836   -3.2211  -78.5877 C   0  0  0  0  0  0  0  0  0  0  0  0
   34.8569   -4.6350  -78.6162 C   0  0  0  0  0  0  0  0  0  0  0  0
   33.8268   -2.4577  -78.2646 C   0  0  0  0  0  0  0  0  0  0  0  0
   33.5484   -1.0026  -78.1372 C   0  0  0  0  0  0  0  0  0  0  0  0
   32.0857   -0.8812  -77.7644 C   0  0  0  0  0  0  0  0  0  0  0  0
   34.5113   -0.0767  -78.3467 C   0  0  0  0  0  0  0  0  0  0  0  0
   32.5981   -3.1163  -77.9825 C   0  0  0  0  0  0  0  0  0  0  0  0
   31.6014   -2.1873  -77.6941 N   0  0  0  0  0  0  0  0  0  0  0  0
   31.4580    0.1389  -77.5682 O   0  0  0  0  0  0  0  0  0  0  0  0
   35.9279   -5.3862  -78.9155 F   0  0  0  0  0  0  0  0  0  0  0  0
   30.6724   -2.4227  -77.4691 H   0  0  0  0  0  0  0  0  0  0  0  0
   34.5788    4.4967  -80.1989 C   0  0  0  0  0  0  0  0  0  0  0  0
   34.4583    2.2280  -77.2184 C   0  0  0  0  0  0  0  0  0  0  0  0
   34.4056    1.8292  -75.7735 C   0  0  0  0  0  0  0  0  0  0  0  0
   34.5325    3.4811  -79.1118 C   0  0  0  0  0  0  0  0  0  0  0  0
   34.5005    1.3569  -78.3099 C   0  0  0  0  0  0  0  0  0  0  0  0
   34.4818    3.5857  -77.7280 C   0  0  0  0  0  0  0  0  0  0  0  0
   34.5407    2.1452  -79.4343 N   0  0  0  0  0  0  0  0  0  0  0  0
   34.5716    1.7971  -80.3547 H   0  0  0  0  0  0  0  0  0  0  0  0
   34.4587    4.8291  -76.9308 C   0  0  0  0  0  0  0  0  0  0  0  0
   35.6737    5.4822  -76.8172 N   0  0  0  0  0  0  0  0  0  0  0  0
   33.4180    5.2372  -76.4060 O   0  0  0  0  0  0  0  0  0  0  0  0
   36.4739    5.1132  -77.2562 H   0  0  0  0  0  0  0  0  0  0  0  0
   35.7377    6.3159  -76.2975 H   0  0  0  0  0  0  0  0  0  0  0  0
 14 17  1  0  0  0
  1  2  2  0  0  0
  1  4  1  0  0  0
  2  9  1  0  0  0
  3  4  2  0  0  0
  3  5  1  0  0  0
 15 16  1  0  0  0
 15 18  2  0  0  0
 15 19  1  0  0  0
  4 12  1  0  0  0
  5  6  1  0  0  0
  5  9  2  0  0  0
  6  7  1  0  0  0
  6  8  2  0  0  0
  7 10  1  0  0  0
  7 11  2  0  0  0
 22 19  1  0  0  0
 22 23  1  0  0  0
 22 24  2  0  0  0
  8 18  1  0  0  0
 17 19  2  0  0  0
 17 20  1  0  0  0
  9 10  1  0  0  0
 18 20  1  0  0  0
 20 21  1  0  0  0
 10 13  1  0  0  0
 23 25  1  0  0  0
 23 26  1  0  0  0
M  END
> <minimizedAffinity>
-7.39822

$$$$
