3ST5_G89_B_201


 43 46  0  0  0  0  0  0  0  0999 V2000
   14.8626   22.9029   16.9910 C   0  0  0  0  0  0  0  0  0  0  0  0
   14.3530   20.7734   18.1909 C   0  0  0  0  0  0  0  0  0  0  0  0
   15.4141   20.2230   17.8836 O   0  0  0  0  0  0  0  0  0  0  0  0
   14.0376   22.0098   17.8293 N   0  0  0  0  0  0  0  0  0  0  0  0
   13.1763   22.3641   18.1484 H   0  0  0  0  0  0  0  0  0  0  0  0
   13.4421   20.1175   18.9512 O   0  0  0  0  0  0  0  0  0  0  0  0
   13.9616   19.0137   19.6990 C   0  0  0  0  0  0  0  0  0  0  0  0
   13.0613   18.8029   20.9280 C   0  0  0  0  0  0  0  0  0  0  0  0
   11.9010   17.9657   20.3933 C   0  0  0  0  0  0  0  0  0  0  0  0
   11.0323   18.8569   19.7087 O   0  0  0  0  0  0  0  0  0  0  0  0
   10.8461   18.4736   18.3591 C   0  0  0  0  0  0  0  0  0  0  0  0
   11.4739   17.0801   18.1894 C   0  0  0  0  0  0  0  0  0  0  0  0
   12.4950   17.0652   19.3228 C   0  0  0  0  0  0  0  0  0  0  0  0
   13.8246   17.6979   18.9352 C   0  0  0  0  0  0  0  0  0  0  0  0
   10.3702   16.1630   18.3580 O   0  0  0  0  0  0  0  0  0  0  0  0
    9.9104   16.3598   19.1892 H   0  0  0  0  0  0  0  0  0  0  0  0
   15.3879   24.0201   17.8850 C   0  0  0  0  0  0  0  0  0  0  0  0
   14.3159   24.7553   18.4645 O   0  0  0  0  0  0  0  0  0  0  0  0
   13.8108   25.1970   17.7640 H   0  0  0  0  0  0  0  0  0  0  0  0
   16.4262   24.9088   17.2160 C   0  0  0  0  0  0  0  0  0  0  0  0
   17.7502   24.3207   17.3167 N   0  0  0  0  0  0  0  0  0  0  0  0
   18.4052   23.9286   15.8668 S   0  0  0  0  0  0  0  0  0  0  0  0
   17.2856   23.7122   14.8963 O   0  0  0  0  0  0  0  0  0  0  0  0
   19.2798   22.7318   16.0857 O   0  0  0  0  0  0  0  0  0  0  0  0
   19.4189   25.2163   15.2588 C   0  0  0  0  0  0  0  0  0  0  0  0
   18.8605   26.4306   14.8980 C   0  0  0  0  0  0  0  0  0  0  0  0
   20.7951   25.0408   15.2104 C   0  0  0  0  0  0  0  0  0  0  0  0
   19.6385   27.4917   14.4475 C   0  0  0  0  0  0  0  0  0  0  0  0
   21.5917   26.1167   14.8060 C   0  0  0  0  0  0  0  0  0  0  0  0
   21.0272   27.3288   14.4217 C   0  0  0  0  0  0  0  0  0  0  0  0
   21.7555   28.4106   14.0446 O   0  0  0  0  0  0  0  0  0  0  0  0
   22.6436   28.8235   15.0618 C   0  0  0  0  0  0  0  0  0  0  0  0
   18.7030   24.9249   18.2415 C   0  0  0  0  0  0  0  0  0  0  0  0
   19.0921   23.9601   19.3679 C   0  0  0  0  0  0  0  0  0  0  0  0
   20.6091   23.9918   19.6259 C   0  0  0  0  0  0  0  0  0  0  0  0
   18.4163   24.3392   20.6909 C   0  0  0  0  0  0  0  0  0  0  0  0
   13.9741   23.4054   15.8463 C   0  0  0  0  0  0  0  0  0  0  0  0
   12.2777   21.8942   14.7350 C   0  0  0  0  0  0  0  0  0  0  0  0
   11.9391   20.8017   13.9700 C   0  0  0  0  0  0  0  0  0  0  0  0
   12.9076   20.0977   13.2565 C   0  0  0  0  0  0  0  0  0  0  0  0
   14.2326   20.4715   13.4423 C   0  0  0  0  0  0  0  0  0  0  0  0
   14.5860   21.5369   14.2583 C   0  0  0  0  0  0  0  0  0  0  0  0
   13.6049   22.2467   14.9245 C   0  0  0  0  0  0  0  0  0  0  0  0
 30 29  2  0  0  0
 30 28  1  0  0  0
 30 31  1  0  0  0
 29 27  1  0  0  0
 27 25  2  0  0  0
 25 26  1  0  0  0
 25 22  1  0  0  0
 26 28  2  0  0  0
 22 23  2  0  0  0
 22 24  2  0  0  0
 22 21  1  0  0  0
 21 33  1  0  0  0
 21 20  1  0  0  0
 33 34  1  0  0  0
 34 35  1  0  0  0
 34 36  1  0  0  0
 20 17  1  0  0  0
 17 18  1  0  0  0
 17  1  1  0  0  0
  1  4  1  0  0  0
  1 37  1  0  0  0
  4  2  1  0  0  0
  2  3  2  0  0  0
  2  6  1  0  0  0
  6  7  1  0  0  0
  7  8  1  0  0  0
  7 14  1  0  0  0
  8  9  1  0  0  0
  9 10  1  0  0  0
  9 13  1  0  0  0
 10 11  1  0  0  0
 11 12  1  0  0  0
 12 13  1  0  0  0
 12 15  1  0  0  0
 13 14  1  0  0  0
 37 43  1  0  0  0
 38 39  2  0  0  0
 38 43  1  0  0  0
 39 40  1  0  0  0
 40 41  2  0  0  0
 41 42  1  0  0  0
 42 43  2  0  0  0
 31 32  1  0  0  0
 15 16  1  0  0  0
 18 19  1  0  0  0
  4  5  1  0  0  0
M  END
> <minimizedAffinity>
-10.20745

$$$$
3ST5_G89_B_201


 43 46  0  0  0  0  0  0  0  0999 V2000
   16.1065   22.0238   17.0670 C   0  0  0  0  0  0  0  0  0  0  0  0
   14.1649   20.6168   17.7634 C   0  0  0  0  0  0  0  0  0  0  0  0
   13.9817   20.1292   16.6444 O   0  0  0  0  0  0  0  0  0  0  0  0
   15.1321   21.4825   18.0357 N   0  0  0  0  0  0  0  0  0  0  0  0
   15.2072   21.7920   18.9672 H   0  0  0  0  0  0  0  0  0  0  0  0
   13.3656   20.2615   18.7992 O   0  0  0  0  0  0  0  0  0  0  0  0
   13.8986   19.2438   19.6522 C   0  0  0  0  0  0  0  0  0  0  0  0
   12.9281   19.0502   20.8295 C   0  0  0  0  0  0  0  0  0  0  0  0
   11.8633   18.1055   20.2756 C   0  0  0  0  0  0  0  0  0  0  0  0
   10.9916   18.8922   19.4763 O   0  0  0  0  0  0  0  0  0  0  0  0
   10.9261   18.4138   18.1459 C   0  0  0  0  0  0  0  0  0  0  0  0
   11.6502   17.0576   18.1122 C   0  0  0  0  0  0  0  0  0  0  0  0
   12.5870   17.1818   19.3098 C   0  0  0  0  0  0  0  0  0  0  0  0
   13.8987   17.8766   18.9707 C   0  0  0  0  0  0  0  0  0  0  0  0
   10.5968   16.0810   18.2675 O   0  0  0  0  0  0  0  0  0  0  0  0
   10.0676   16.2980   19.0510 H   0  0  0  0  0  0  0  0  0  0  0  0
   17.3836   22.3524   17.8314 C   0  0  0  0  0  0  0  0  0  0  0  0
   17.9749   21.1733   18.3658 O   0  0  0  0  0  0  0  0  0  0  0  0
   17.3751   20.7775   19.0174 H   0  0  0  0  0  0  0  0  0  0  0  0
   17.2169   23.4562   18.8654 C   0  0  0  0  0  0  0  0  0  0  0  0
   18.4077   24.2849   18.9315 N   0  0  0  0  0  0  0  0  0  0  0  0
   19.3041   24.0376   20.2807 S   0  0  0  0  0  0  0  0  0  0  0  0
   19.6974   22.5932   20.3170 O   0  0  0  0  0  0  0  0  0  0  0  0
   18.4799   24.4882   21.4481 O   0  0  0  0  0  0  0  0  0  0  0  0
   20.7606   25.0038   20.2613 C   0  0  0  0  0  0  0  0  0  0  0  0
   21.9592   24.4483   19.8475 C   0  0  0  0  0  0  0  0  0  0  0  0
   20.6944   26.3506   20.5914 C   0  0  0  0  0  0  0  0  0  0  0  0
   23.1305   25.1952   19.7810 C   0  0  0  0  0  0  0  0  0  0  0  0
   21.8549   27.1230   20.4811 C   0  0  0  0  0  0  0  0  0  0  0  0
   23.0636   26.5580   20.0872 C   0  0  0  0  0  0  0  0  0  0  0  0
   24.2120   27.2672   19.9411 O   0  0  0  0  0  0  0  0  0  0  0  0
   25.0147   26.7537   18.8990 C   0  0  0  0  0  0  0  0  0  0  0  0
   19.2076   24.4380   17.7212 C   0  0  0  0  0  0  0  0  0  0  0  0
   18.8613   25.7292   16.9703 C   0  0  0  0  0  0  0  0  0  0  0  0
   20.0787   26.6674   16.8899 C   0  0  0  0  0  0  0  0  0  0  0  0
   18.4353   25.4420   15.5257 C   0  0  0  0  0  0  0  0  0  0  0  0
   15.4612   23.2472   16.4042 C   0  0  0  0  0  0  0  0  0  0  0  0
   15.8191   22.3246   14.0767 C   0  0  0  0  0  0  0  0  0  0  0  0
   15.3969   22.0661   12.7928 C   0  0  0  0  0  0  0  0  0  0  0  0
   14.0614   22.2316   12.4300 C   0  0  0  0  0  0  0  0  0  0  0  0
   13.2061   22.7754   13.3800 C   0  0  0  0  0  0  0  0  0  0  0  0
   13.6389   23.0924   14.6598 C   0  0  0  0  0  0  0  0  0  0  0  0
   14.9591   22.8818   15.0103 C   0  0  0  0  0  0  0  0  0  0  0  0
 30 29  2  0  0  0
 30 28  1  0  0  0
 30 31  1  0  0  0
 29 27  1  0  0  0
 27 25  2  0  0  0
 25 26  1  0  0  0
 25 22  1  0  0  0
 26 28  2  0  0  0
 22 23  2  0  0  0
 22 24  2  0  0  0
 22 21  1  0  0  0
 21 33  1  0  0  0
 21 20  1  0  0  0
 33 34  1  0  0  0
 34 35  1  0  0  0
 34 36  1  0  0  0
 20 17  1  0  0  0
 17 18  1  0  0  0
 17  1  1  0  0  0
  1  4  1  0  0  0
  1 37  1  0  0  0
  4  2  1  0  0  0
  2  3  2  0  0  0
  2  6  1  0  0  0
  6  7  1  0  0  0
  7  8  1  0  0  0
  7 14  1  0  0  0
  8  9  1  0  0  0
  9 10  1  0  0  0
  9 13  1  0  0  0
 10 11  1  0  0  0
 11 12  1  0  0  0
 12 13  1  0  0  0
 12 15  1  0  0  0
 13 14  1  0  0  0
 37 43  1  0  0  0
 38 39  2  0  0  0
 38 43  1  0  0  0
 39 40  1  0  0  0
 40 41  2  0  0  0
 41 42  1  0  0  0
 42 43  2  0  0  0
 31 32  1  0  0  0
 15 16  1  0  0  0
 18 19  1  0  0  0
  4  5  1  0  0  0
M  END
> <minimizedAffinity>
-10.14458

$$$$
3ST5_G89_B_201


 43 46  0  0  0  0  0  0  0  0999 V2000
   16.7966   21.7655   18.6407 C   0  0  0  0  0  0  0  0  0  0  0  0
   14.3706   21.1843   18.7446 C   0  0  0  0  0  0  0  0  0  0  0  0
   13.9846   22.2604   18.2795 O   0  0  0  0  0  0  0  0  0  0  0  0
   15.6490   20.8805   18.9246 N   0  0  0  0  0  0  0  0  0  0  0  0
   15.8511   19.9846   19.2792 H   0  0  0  0  0  0  0  0  0  0  0  0
   13.4709   20.2298   19.0874 O   0  0  0  0  0  0  0  0  0  0  0  0
   14.0326   19.0552   19.6808 C   0  0  0  0  0  0  0  0  0  0  0  0
   13.2079   18.7107   20.9324 C   0  0  0  0  0  0  0  0  0  0  0  0
   12.0158   17.9298   20.3826 C   0  0  0  0  0  0  0  0  0  0  0  0
   11.1090   18.8848   19.8503 O   0  0  0  0  0  0  0  0  0  0  0  0
   10.8408   18.6463   18.4813 C   0  0  0  0  0  0  0  0  0  0  0  0
   11.4546   17.2817   18.1268 C   0  0  0  0  0  0  0  0  0  0  0  0
   12.5423   17.1510   19.1885 C   0  0  0  0  0  0  0  0  0  0  0  0
   13.8473   17.8274   18.7910 C   0  0  0  0  0  0  0  0  0  0  0  0
   10.3615   16.3468   18.2631 O   0  0  0  0  0  0  0  0  0  0  0  0
    9.9531   16.4519   19.1366 H   0  0  0  0  0  0  0  0  0  0  0  0
   17.1964   21.5507   17.1856 C   0  0  0  0  0  0  0  0  0  0  0  0
   17.8428   20.2942   17.0152 O   0  0  0  0  0  0  0  0  0  0  0  0
   18.6724   20.2866   17.5178 H   0  0  0  0  0  0  0  0  0  0  0  0
   17.9780   22.7089   16.5831 C   0  0  0  0  0  0  0  0  0  0  0  0
   17.0847   23.6496   15.9303 N   0  0  0  0  0  0  0  0  0  0  0  0
   17.4121   25.2162   16.2819 S   0  0  0  0  0  0  0  0  0  0  0  0
   17.0080   25.4662   17.7019 O   0  0  0  0  0  0  0  0  0  0  0  0
   16.6910   26.0561   15.2720 O   0  0  0  0  0  0  0  0  0  0  0  0
   19.1192   25.5584   16.1275 C   0  0  0  0  0  0  0  0  0  0  0  0
   19.7287   25.5136   14.8853 C   0  0  0  0  0  0  0  0  0  0  0  0
   19.8442   25.9483   17.2452 C   0  0  0  0  0  0  0  0  0  0  0  0
   21.0753   25.8177   14.7166 C   0  0  0  0  0  0  0  0  0  0  0  0
   21.1865   26.3040   17.0800 C   0  0  0  0  0  0  0  0  0  0  0  0
   21.8034   26.2363   15.8348 C   0  0  0  0  0  0  0  0  0  0  0  0
   23.0949   26.5927   15.6160 O   0  0  0  0  0  0  0  0  0  0  0  0
   23.7925   26.7994   16.8262 C   0  0  0  0  0  0  0  0  0  0  0  0
   16.7545   23.4247   14.5272 C   0  0  0  0  0  0  0  0  0  0  0  0
   15.6238   22.4016   14.3661 C   0  0  0  0  0  0  0  0  0  0  0  0
   14.2866   22.9682   14.8757 C   0  0  0  0  0  0  0  0  0  0  0  0
   15.4079   22.0299   12.8944 C   0  0  0  0  0  0  0  0  0  0  0  0
   17.9070   21.4083   19.6366 C   0  0  0  0  0  0  0  0  0  0  0  0
   20.0284   22.7801   19.7553 C   0  0  0  0  0  0  0  0  0  0  0  0
   20.7474   23.8735   20.1807 C   0  0  0  0  0  0  0  0  0  0  0  0
   20.1137   24.9570   20.7869 C   0  0  0  0  0  0  0  0  0  0  0  0
   18.7544   24.8360   21.0464 C   0  0  0  0  0  0  0  0  0  0  0  0
   18.0340   23.7107   20.6713 C   0  0  0  0  0  0  0  0  0  0  0  0
   18.6755   22.6651   20.0346 C   0  0  0  0  0  0  0  0  0  0  0  0
 30 29  2  0  0  0
 30 28  1  0  0  0
 30 31  1  0  0  0
 29 27  1  0  0  0
 27 25  2  0  0  0
 25 26  1  0  0  0
 25 22  1  0  0  0
 26 28  2  0  0  0
 22 23  2  0  0  0
 22 24  2  0  0  0
 22 21  1  0  0  0
 21 33  1  0  0  0
 21 20  1  0  0  0
 33 34  1  0  0  0
 34 35  1  0  0  0
 34 36  1  0  0  0
 20 17  1  0  0  0
 17 18  1  0  0  0
 17  1  1  0  0  0
  1  4  1  0  0  0
  1 37  1  0  0  0
  4  2  1  0  0  0
  2  3  2  0  0  0
  2  6  1  0  0  0
  6  7  1  0  0  0
  7  8  1  0  0  0
  7 14  1  0  0  0
  8  9  1  0  0  0
  9 10  1  0  0  0
  9 13  1  0  0  0
 10 11  1  0  0  0
 11 12  1  0  0  0
 12 13  1  0  0  0
 12 15  1  0  0  0
 13 14  1  0  0  0
 37 43  1  0  0  0
 38 39  2  0  0  0
 38 43  1  0  0  0
 39 40  1  0  0  0
 40 41  2  0  0  0
 41 42  1  0  0  0
 42 43  2  0  0  0
 31 32  1  0  0  0
 15 16  1  0  0  0
 18 19  1  0  0  0
  4  5  1  0  0  0
M  END
> <minimizedAffinity>
-10.04403

$$$$
3ST5_G89_B_201


 43 46  0  0  0  0  0  0  0  0999 V2000
   17.0422   25.0259   16.3434 C   0  0  0  0  0  0  0  0  0  0  0  0
   18.5166   26.5619   15.0391 C   0  0  0  0  0  0  0  0  0  0  0  0
   17.8692   26.4658   13.9927 O   0  0  0  0  0  0  0  0  0  0  0  0
   18.1872   25.9410   16.1639 N   0  0  0  0  0  0  0  0  0  0  0  0
   18.7573   26.1049   16.9496 H   0  0  0  0  0  0  0  0  0  0  0  0
   19.6208   27.3471   15.0859 O   0  0  0  0  0  0  0  0  0  0  0  0
   20.6864   26.9433   14.2205 C   0  0  0  0  0  0  0  0  0  0  0  0
   21.6259   28.1453   14.0260 C   0  0  0  0  0  0  0  0  0  0  0  0
   22.5335   28.1039   15.2539 C   0  0  0  0  0  0  0  0  0  0  0  0
   21.7907   28.6533   16.3328 O   0  0  0  0  0  0  0  0  0  0  0  0
   21.6790   27.7418   17.4097 C   0  0  0  0  0  0  0  0  0  0  0  0
   22.6165   26.5609   17.1076 C   0  0  0  0  0  0  0  0  0  0  0  0
   22.7175   26.6326   15.5870 C   0  0  0  0  0  0  0  0  0  0  0  0
   21.5861   25.8993   14.8795 C   0  0  0  0  0  0  0  0  0  0  0  0
   23.8381   26.8798   17.8102 O   0  0  0  0  0  0  0  0  0  0  0  0
   24.1302   27.7711   17.5628 H   0  0  0  0  0  0  0  0  0  0  0  0
   16.9623   24.6713   17.8237 C   0  0  0  0  0  0  0  0  0  0  0  0
   16.0557   25.5312   18.5051 O   0  0  0  0  0  0  0  0  0  0  0  0
   16.3874   26.4421   18.4723 H   0  0  0  0  0  0  0  0  0  0  0  0
   18.3176   24.5722   18.5083 C   0  0  0  0  0  0  0  0  0  0  0  0
   18.1985   23.9069   19.7937 N   0  0  0  0  0  0  0  0  0  0  0  0
   18.2207   22.2717   19.6898 S   0  0  0  0  0  0  0  0  0  0  0  0
   18.2591   21.7199   21.0813 O   0  0  0  0  0  0  0  0  0  0  0  0
   19.3964   21.8985   18.8391 O   0  0  0  0  0  0  0  0  0  0  0  0
   16.7852   21.6661   18.8974 C   0  0  0  0  0  0  0  0  0  0  0  0
   16.8954   20.7868   17.8338 C   0  0  0  0  0  0  0  0  0  0  0  0
   15.5335   22.0125   19.3878 C   0  0  0  0  0  0  0  0  0  0  0  0
   15.7765   20.2530   17.2034 C   0  0  0  0  0  0  0  0  0  0  0  0
   14.4026   21.4437   18.7937 C   0  0  0  0  0  0  0  0  0  0  0  0
   14.5144   20.5782   17.7101 C   0  0  0  0  0  0  0  0  0  0  0  0
   13.4514   19.9809   17.1131 O   0  0  0  0  0  0  0  0  0  0  0  0
   12.3141   19.9801   17.9500 C   0  0  0  0  0  0  0  0  0  0  0  0
   18.9738   24.4295   20.9135 C   0  0  0  0  0  0  0  0  0  0  0  0
   20.2669   25.1061   20.4433 C   0  0  0  0  0  0  0  0  0  0  0  0
   20.6130   26.3166   21.3285 C   0  0  0  0  0  0  0  0  0  0  0  0
   21.4628   24.1500   20.5241 C   0  0  0  0  0  0  0  0  0  0  0  0
   17.2811   23.8112   15.4380 C   0  0  0  0  0  0  0  0  0  0  0  0
   15.8984   22.2460   14.0116 C   0  0  0  0  0  0  0  0  0  0  0  0
   14.6944   21.7589   13.5570 C   0  0  0  0  0  0  0  0  0  0  0  0
   13.4962   22.1231   14.1690 C   0  0  0  0  0  0  0  0  0  0  0  0
   13.5595   23.0809   15.1732 C   0  0  0  0  0  0  0  0  0  0  0  0
   14.7661   23.6193   15.5975 C   0  0  0  0  0  0  0  0  0  0  0  0
   15.9461   23.2131   15.0036 C   0  0  0  0  0  0  0  0  0  0  0  0
 30 29  2  0  0  0
 30 28  1  0  0  0
 30 31  1  0  0  0
 29 27  1  0  0  0
 27 25  2  0  0  0
 25 26  1  0  0  0
 25 22  1  0  0  0
 26 28  2  0  0  0
 22 23  2  0  0  0
 22 24  2  0  0  0
 22 21  1  0  0  0
 21 33  1  0  0  0
 21 20  1  0  0  0
 33 34  1  0  0  0
 34 35  1  0  0  0
 34 36  1  0  0  0
 20 17  1  0  0  0
 17 18  1  0  0  0
 17  1  1  0  0  0
  1  4  1  0  0  0
  1 37  1  0  0  0
  4  2  1  0  0  0
  2  3  2  0  0  0
  2  6  1  0  0  0
  6  7  1  0  0  0
  7  8  1  0  0  0
  7 14  1  0  0  0
  8  9  1  0  0  0
  9 10  1  0  0  0
  9 13  1  0  0  0
 10 11  1  0  0  0
 11 12  1  0  0  0
 12 13  1  0  0  0
 12 15  1  0  0  0
 13 14  1  0  0  0
 37 43  1  0  0  0
 38 39  2  0  0  0
 38 43  1  0  0  0
 39 40  1  0  0  0
 40 41  2  0  0  0
 41 42  1  0  0  0
 42 43  2  0  0  0
 31 32  1  0  0  0
 15 16  1  0  0  0
 18 19  1  0  0  0
  4  5  1  0  0  0
M  END
> <minimizedAffinity>
-10.01123

$$$$
3ST5_G89_B_201


 43 46  0  0  0  0  0  0  0  0999 V2000
   16.9604   23.9582   16.9507 C   0  0  0  0  0  0  0  0  0  0  0  0
   18.8935   25.5121   16.6627 C   0  0  0  0  0  0  0  0  0  0  0  0
   19.7269   24.7309   17.1300 O   0  0  0  0  0  0  0  0  0  0  0  0
   17.6061   25.2196   16.5351 N   0  0  0  0  0  0  0  0  0  0  0  0
   17.0292   25.9048   16.1267 H   0  0  0  0  0  0  0  0  0  0  0  0
   19.2778   26.7386   16.2313 O   0  0  0  0  0  0  0  0  0  0  0  0
   19.5703   26.8230   14.8332 C   0  0  0  0  0  0  0  0  0  0  0  0
   19.8791   28.2917   14.4972 C   0  0  0  0  0  0  0  0  0  0  0  0
   21.3514   28.4517   14.8711 C   0  0  0  0  0  0  0  0  0  0  0  0
   21.4036   28.5955   16.2833 O   0  0  0  0  0  0  0  0  0  0  0  0
   22.2145   27.6017   16.8814 C   0  0  0  0  0  0  0  0  0  0  0  0
   22.9424   26.8623   15.7463 C   0  0  0  0  0  0  0  0  0  0  0  0
   22.0063   27.1142   14.5683 C   0  0  0  0  0  0  0  0  0  0  0  0
   20.8712   26.1030   14.4825 C   0  0  0  0  0  0  0  0  0  0  0  0
   24.2253   27.5199   15.6504 O   0  0  0  0  0  0  0  0  0  0  0  0
   24.0924   28.4767   15.5620 H   0  0  0  0  0  0  0  0  0  0  0  0
   15.8533   23.6541   15.9482 C   0  0  0  0  0  0  0  0  0  0  0  0
   14.5913   24.0995   16.4325 O   0  0  0  0  0  0  0  0  0  0  0  0
   14.3602   23.6055   17.2347 H   0  0  0  0  0  0  0  0  0  0  0  0
   15.8320   22.2091   15.4720 C   0  0  0  0  0  0  0  0  0  0  0  0
   14.4723   21.7011   15.4265 N   0  0  0  0  0  0  0  0  0  0  0  0
   13.7940   21.7764   13.9368 S   0  0  0  0  0  0  0  0  0  0  0  0
   14.8465   21.4270   12.9307 O   0  0  0  0  0  0  0  0  0  0  0  0
   13.2167   23.1505   13.7826 O   0  0  0  0  0  0  0  0  0  0  0  0
   12.4809   20.6336   13.7784 C   0  0  0  0  0  0  0  0  0  0  0  0
   11.2241   20.9450   14.2684 C   0  0  0  0  0  0  0  0  0  0  0  0
   12.6860   19.4442   13.0926 C   0  0  0  0  0  0  0  0  0  0  0  0
   10.1453   20.0787   14.1266 C   0  0  0  0  0  0  0  0  0  0  0  0
   11.5974   18.5876   12.9008 C   0  0  0  0  0  0  0  0  0  0  0  0
   10.3404   18.8914   13.4139 C   0  0  0  0  0  0  0  0  0  0  0  0
    9.2467   18.1072   13.2356 O   0  0  0  0  0  0  0  0  0  0  0  0
    9.5488   16.9521   12.4816 C   0  0  0  0  0  0  0  0  0  0  0  0
   14.1760   20.4630   16.1391 C   0  0  0  0  0  0  0  0  0  0  0  0
   14.7910   20.4541   17.5436 C   0  0  0  0  0  0  0  0  0  0  0  0
   13.9282   21.2588   18.5318 C   0  0  0  0  0  0  0  0  0  0  0  0
   14.8868   19.0310   18.1060 C   0  0  0  0  0  0  0  0  0  0  0  0
   16.4481   24.1567   18.3826 C   0  0  0  0  0  0  0  0  0  0  0  0
   18.1899   24.1964   20.2159 C   0  0  0  0  0  0  0  0  0  0  0  0
   19.0879   23.5759   21.0537 C   0  0  0  0  0  0  0  0  0  0  0  0
   19.1143   22.1876   21.1753 C   0  0  0  0  0  0  0  0  0  0  0  0
   18.2824   21.4589   20.3348 C   0  0  0  0  0  0  0  0  0  0  0  0
   17.4148   22.0776   19.4458 C   0  0  0  0  0  0  0  0  0  0  0  0
   17.3765   23.4572   19.3712 C   0  0  0  0  0  0  0  0  0  0  0  0
 30 29  2  0  0  0
 30 28  1  0  0  0
 30 31  1  0  0  0
 29 27  1  0  0  0
 27 25  2  0  0  0
 25 26  1  0  0  0
 25 22  1  0  0  0
 26 28  2  0  0  0
 22 23  2  0  0  0
 22 24  2  0  0  0
 22 21  1  0  0  0
 21 33  1  0  0  0
 21 20  1  0  0  0
 33 34  1  0  0  0
 34 35  1  0  0  0
 34 36  1  0  0  0
 20 17  1  0  0  0
 17 18  1  0  0  0
 17  1  1  0  0  0
  1  4  1  0  0  0
  1 37  1  0  0  0
  4  2  1  0  0  0
  2  3  2  0  0  0
  2  6  1  0  0  0
  6  7  1  0  0  0
  7  8  1  0  0  0
  7 14  1  0  0  0
  8  9  1  0  0  0
  9 10  1  0  0  0
  9 13  1  0  0  0
 10 11  1  0  0  0
 11 12  1  0  0  0
 12 13  1  0  0  0
 12 15  1  0  0  0
 13 14  1  0  0  0
 37 43  1  0  0  0
 38 39  2  0  0  0
 38 43  1  0  0  0
 39 40  1  0  0  0
 40 41  2  0  0  0
 41 42  1  0  0  0
 42 43  2  0  0  0
 31 32  1  0  0  0
 15 16  1  0  0  0
 18 19  1  0  0  0
  4  5  1  0  0  0
M  END
> <minimizedAffinity>
-9.72819

$$$$
3ST5_G89_B_201


 43 46  0  0  0  0  0  0  0  0999 V2000
   19.1190   24.1287   19.4734 C   0  0  0  0  0  0  0  0  0  0  0  0
   19.6783   25.1327   17.2568 C   0  0  0  0  0  0  0  0  0  0  0  0
   20.1443   24.0920   16.7845 O   0  0  0  0  0  0  0  0  0  0  0  0
   19.1749   25.2205   18.4808 N   0  0  0  0  0  0  0  0  0  0  0  0
   18.8053   26.0919   18.7518 H   0  0  0  0  0  0  0  0  0  0  0  0
   19.6471   26.2640   16.5103 O   0  0  0  0  0  0  0  0  0  0  0  0
   19.6766   26.0551   15.0951 C   0  0  0  0  0  0  0  0  0  0  0  0
   19.1410   27.3252   14.4130 C   0  0  0  0  0  0  0  0  0  0  0  0
   20.3546   28.2511   14.3573 C   0  0  0  0  0  0  0  0  0  0  0  0
   20.5018   28.8143   15.6529 O   0  0  0  0  0  0  0  0  0  0  0  0
   21.7759   28.5368   16.2030 C   0  0  0  0  0  0  0  0  0  0  0  0
   22.6316   27.9191   15.0845 C   0  0  0  0  0  0  0  0  0  0  0  0
   21.5603   27.3469   14.1613 C   0  0  0  0  0  0  0  0  0  0  0  0
   21.1066   25.9515   14.5679 C   0  0  0  0  0  0  0  0  0  0  0  0
   23.3696   29.0336   14.5362 O   0  0  0  0  0  0  0  0  0  0  0  0
   22.7537   29.7452   14.3013 H   0  0  0  0  0  0  0  0  0  0  0  0
   17.7633   23.4462   19.3333 C   0  0  0  0  0  0  0  0  0  0  0  0
   17.1436   23.2791   20.6035 O   0  0  0  0  0  0  0  0  0  0  0  0
   17.6805   22.6836   21.1494 H   0  0  0  0  0  0  0  0  0  0  0  0
   17.7999   22.1637   18.5152 C   0  0  0  0  0  0  0  0  0  0  0  0
   16.5542   21.9773   17.7925 N   0  0  0  0  0  0  0  0  0  0  0  0
   16.5762   22.6000   16.2770 S   0  0  0  0  0  0  0  0  0  0  0  0
   17.6581   21.9073   15.5076 O   0  0  0  0  0  0  0  0  0  0  0  0
   16.7572   24.0815   16.4100 O   0  0  0  0  0  0  0  0  0  0  0  0
   15.0571   22.3276   15.4564 C   0  0  0  0  0  0  0  0  0  0  0  0
   14.8078   21.1147   14.8373 C   0  0  0  0  0  0  0  0  0  0  0  0
   14.0729   23.3060   15.4930 C   0  0  0  0  0  0  0  0  0  0  0  0
   13.5967   20.8464   14.2084 C   0  0  0  0  0  0  0  0  0  0  0  0
   12.8338   23.0291   14.9070 C   0  0  0  0  0  0  0  0  0  0  0  0
   12.5930   21.8185   14.2652 C   0  0  0  0  0  0  0  0  0  0  0  0
   11.4019   21.4907   13.7022 O   0  0  0  0  0  0  0  0  0  0  0  0
   10.6169   20.6952   14.5652 C   0  0  0  0  0  0  0  0  0  0  0  0
   15.8965   20.6779   17.8784 C   0  0  0  0  0  0  0  0  0  0  0  0
   14.6512   20.7289   18.7715 C   0  0  0  0  0  0  0  0  0  0  0  0
   14.2068   22.1812   19.0211 C   0  0  0  0  0  0  0  0  0  0  0  0
   13.4620   20.0146   18.1185 C   0  0  0  0  0  0  0  0  0  0  0  0
   19.3461   24.7546   20.8551 C   0  0  0  0  0  0  0  0  0  0  0  0
   21.1095   26.4939   21.3664 C   0  0  0  0  0  0  0  0  0  0  0  0
   22.4162   26.9220   21.4188 C   0  0  0  0  0  0  0  0  0  0  0  0
   23.4711   26.0303   21.2320 C   0  0  0  0  0  0  0  0  0  0  0  0
   23.1478   24.7265   20.8780 C   0  0  0  0  0  0  0  0  0  0  0  0
   21.8311   24.3024   20.7671 C   0  0  0  0  0  0  0  0  0  0  0  0
   20.8005   25.1942   20.9966 C   0  0  0  0  0  0  0  0  0  0  0  0
 30 29  2  0  0  0
 30 28  1  0  0  0
 30 31  1  0  0  0
 29 27  1  0  0  0
 27 25  2  0  0  0
 25 26  1  0  0  0
 25 22  1  0  0  0
 26 28  2  0  0  0
 22 23  2  0  0  0
 22 24  2  0  0  0
 22 21  1  0  0  0
 21 33  1  0  0  0
 21 20  1  0  0  0
 33 34  1  0  0  0
 34 35  1  0  0  0
 34 36  1  0  0  0
 20 17  1  0  0  0
 17 18  1  0  0  0
 17  1  1  0  0  0
  1  4  1  0  0  0
  1 37  1  0  0  0
  4  2  1  0  0  0
  2  3  2  0  0  0
  2  6  1  0  0  0
  6  7  1  0  0  0
  7  8  1  0  0  0
  7 14  1  0  0  0
  8  9  1  0  0  0
  9 10  1  0  0  0
  9 13  1  0  0  0
 10 11  1  0  0  0
 11 12  1  0  0  0
 12 13  1  0  0  0
 12 15  1  0  0  0
 13 14  1  0  0  0
 37 43  1  0  0  0
 38 39  2  0  0  0
 38 43  1  0  0  0
 39 40  1  0  0  0
 40 41  2  0  0  0
 41 42  1  0  0  0
 42 43  2  0  0  0
 31 32  1  0  0  0
 15 16  1  0  0  0
 18 19  1  0  0  0
  4  5  1  0  0  0
M  END
> <minimizedAffinity>
-9.51907

$$$$
3ST5_G89_B_201


 43 46  0  0  0  0  0  0  0  0999 V2000
   19.6535   25.3880   16.2556 C   0  0  0  0  0  0  0  0  0  0  0  0
   20.5628   26.4448   18.3270 C   0  0  0  0  0  0  0  0  0  0  0  0
   20.3538   27.6029   17.9546 O   0  0  0  0  0  0  0  0  0  0  0  0
   20.2527   25.3762   17.6053 N   0  0  0  0  0  0  0  0  0  0  0  0
   20.4386   24.4960   18.0053 H   0  0  0  0  0  0  0  0  0  0  0  0
   21.1232   26.2109   19.5391 O   0  0  0  0  0  0  0  0  0  0  0  0
   22.0060   27.2364   20.0046 C   0  0  0  0  0  0  0  0  0  0  0  0
   22.3050   26.9718   21.4898 C   0  0  0  0  0  0  0  0  0  0  0  0
   23.4307   25.9399   21.4592 C   0  0  0  0  0  0  0  0  0  0  0  0
   22.8282   24.6821   21.1900 O   0  0  0  0  0  0  0  0  0  0  0  0
   23.3649   24.0825   20.0257 C   0  0  0  0  0  0  0  0  0  0  0  0
   24.5870   24.9157   19.6050 C   0  0  0  0  0  0  0  0  0  0  0  0
   24.2646   26.2687   20.2319 C   0  0  0  0  0  0  0  0  0  0  0  0
   23.3821   27.1397   19.3482 C   0  0  0  0  0  0  0  0  0  0  0  0
   25.7134   24.2293   20.1947 O   0  0  0  0  0  0  0  0  0  0  0  0
   25.5525   24.0989   21.1424 H   0  0  0  0  0  0  0  0  0  0  0  0
   18.5582   24.3284   16.2274 C   0  0  0  0  0  0  0  0  0  0  0  0
   17.2691   24.9263   16.3065 O   0  0  0  0  0  0  0  0  0  0  0  0
   17.1739   25.3777   17.1598 H   0  0  0  0  0  0  0  0  0  0  0  0
   18.7578   23.2078   17.2372 C   0  0  0  0  0  0  0  0  0  0  0  0
   17.4845   22.7736   17.7840 N   0  0  0  0  0  0  0  0  0  0  0  0
   16.9871   21.3205   17.2127 S   0  0  0  0  0  0  0  0  0  0  0  0
   16.5685   20.4824   18.3808 O   0  0  0  0  0  0  0  0  0  0  0  0
   18.1170   20.7506   16.4102 O   0  0  0  0  0  0  0  0  0  0  0  0
   15.6169   21.4946   16.1414 C   0  0  0  0  0  0  0  0  0  0  0  0
   14.3572   21.0927   16.5514 C   0  0  0  0  0  0  0  0  0  0  0  0
   15.7852   22.1065   14.9068 C   0  0  0  0  0  0  0  0  0  0  0  0
   13.2366   21.2511   15.7430 C   0  0  0  0  0  0  0  0  0  0  0  0
   14.6581   22.3157   14.1059 C   0  0  0  0  0  0  0  0  0  0  0  0
   13.3965   21.8904   14.5096 C   0  0  0  0  0  0  0  0  0  0  0  0
   12.2680   22.0902   13.7818 O   0  0  0  0  0  0  0  0  0  0  0  0
   11.1337   21.5343   14.4128 C   0  0  0  0  0  0  0  0  0  0  0  0
   17.2550   22.9460   19.2144 C   0  0  0  0  0  0  0  0  0  0  0  0
   18.5715   23.0068   19.9982 C   0  0  0  0  0  0  0  0  0  0  0  0
   18.5936   24.2143   20.9522 C   0  0  0  0  0  0  0  0  0  0  0  0
   18.7654   21.7594   20.8683 C   0  0  0  0  0  0  0  0  0  0  0  0
   20.7826   25.1240   15.2517 C   0  0  0  0  0  0  0  0  0  0  0  0
   22.8699   26.5127   15.5850 C   0  0  0  0  0  0  0  0  0  0  0  0
   23.5830   27.6837   15.4679 C   0  0  0  0  0  0  0  0  0  0  0  0
   23.1093   28.7370   14.6875 C   0  0  0  0  0  0  0  0  0  0  0  0
   21.8430   28.5994   14.1331 C   0  0  0  0  0  0  0  0  0  0  0  0
   21.0937   27.4427   14.2954 C   0  0  0  0  0  0  0  0  0  0  0  0
   21.6008   26.3946   15.0400 C   0  0  0  0  0  0  0  0  0  0  0  0
 30 29  2  0  0  0
 30 28  1  0  0  0
 30 31  1  0  0  0
 29 27  1  0  0  0
 27 25  2  0  0  0
 25 26  1  0  0  0
 25 22  1  0  0  0
 26 28  2  0  0  0
 22 23  2  0  0  0
 22 24  2  0  0  0
 22 21  1  0  0  0
 21 33  1  0  0  0
 21 20  1  0  0  0
 33 34  1  0  0  0
 34 35  1  0  0  0
 34 36  1  0  0  0
 20 17  1  0  0  0
 17 18  1  0  0  0
 17  1  1  0  0  0
  1  4  1  0  0  0
  1 37  1  0  0  0
  4  2  1  0  0  0
  2  3  2  0  0  0
  2  6  1  0  0  0
  6  7  1  0  0  0
  7  8  1  0  0  0
  7 14  1  0  0  0
  8  9  1  0  0  0
  9 10  1  0  0  0
  9 13  1  0  0  0
 10 11  1  0  0  0
 11 12  1  0  0  0
 12 13  1  0  0  0
 12 15  1  0  0  0
 13 14  1  0  0  0
 37 43  1  0  0  0
 38 39  2  0  0  0
 38 43  1  0  0  0
 39 40  1  0  0  0
 40 41  2  0  0  0
 41 42  1  0  0  0
 42 43  2  0  0  0
 31 32  1  0  0  0
 15 16  1  0  0  0
 18 19  1  0  0  0
  4  5  1  0  0  0
M  END
> <minimizedAffinity>
-9.46138

$$$$
3ST5_G89_B_201


 43 46  0  0  0  0  0  0  0  0999 V2000
   19.6479   25.6002   16.0695 C   0  0  0  0  0  0  0  0  0  0  0  0
   20.4436   26.6196   18.2055 C   0  0  0  0  0  0  0  0  0  0  0  0
   20.3771   27.7827   17.7981 O   0  0  0  0  0  0  0  0  0  0  0  0
   20.1098   25.5663   17.4718 N   0  0  0  0  0  0  0  0  0  0  0  0
   20.1759   24.6825   17.9005 H   0  0  0  0  0  0  0  0  0  0  0  0
   20.8606   26.3647   19.4701 O   0  0  0  0  0  0  0  0  0  0  0  0
   21.7701   27.3273   20.0119 C   0  0  0  0  0  0  0  0  0  0  0  0
   21.9439   27.0300   21.5108 C   0  0  0  0  0  0  0  0  0  0  0  0
   23.0018   25.9288   21.5461 C   0  0  0  0  0  0  0  0  0  0  0  0
   22.3424   24.7146   21.2167 O   0  0  0  0  0  0  0  0  0  0  0  0
   22.9231   24.0933   20.0854 C   0  0  0  0  0  0  0  0  0  0  0  0
   24.2223   24.8510   19.7649 C   0  0  0  0  0  0  0  0  0  0  0  0
   23.9411   26.2156   20.3863 C   0  0  0  0  0  0  0  0  0  0  0  0
   23.1811   27.1495   19.4542 C   0  0  0  0  0  0  0  0  0  0  0  0
   25.2578   24.0886   20.4238 O   0  0  0  0  0  0  0  0  0  0  0  0
   25.0210   23.9596   21.3556 H   0  0  0  0  0  0  0  0  0  0  0  0
   18.5104   24.5947   15.9337 C   0  0  0  0  0  0  0  0  0  0  0  0
   17.2458   25.2393   16.0385 O   0  0  0  0  0  0  0  0  0  0  0  0
   17.1509   25.6229   16.9243 H   0  0  0  0  0  0  0  0  0  0  0  0
   18.6413   23.3876   16.8508 C   0  0  0  0  0  0  0  0  0  0  0  0
   17.3373   22.9502   17.3166 N   0  0  0  0  0  0  0  0  0  0  0  0
   16.8499   21.5296   16.6614 S   0  0  0  0  0  0  0  0  0  0  0  0
   17.9290   20.5179   16.8941 O   0  0  0  0  0  0  0  0  0  0  0  0
   16.5416   21.7907   15.2185 O   0  0  0  0  0  0  0  0  0  0  0  0
   15.3828   20.9522   17.4162 C   0  0  0  0  0  0  0  0  0  0  0  0
   14.1562   21.1733   16.8137 C   0  0  0  0  0  0  0  0  0  0  0  0
   15.4605   20.2061   18.5843 C   0  0  0  0  0  0  0  0  0  0  0  0
   12.9713   20.6956   17.3633 C   0  0  0  0  0  0  0  0  0  0  0  0
   14.2811   19.6789   19.1197 C   0  0  0  0  0  0  0  0  0  0  0  0
   13.0468   19.9214   18.5254 C   0  0  0  0  0  0  0  0  0  0  0  0
   11.8766   19.4139   18.9904 O   0  0  0  0  0  0  0  0  0  0  0  0
   10.9768   19.1280   17.9404 C   0  0  0  0  0  0  0  0  0  0  0  0
   17.0404   23.0668   18.7402 C   0  0  0  0  0  0  0  0  0  0  0  0
   18.3111   22.9859   19.5945 C   0  0  0  0  0  0  0  0  0  0  0  0
   18.3358   24.0979   20.6583 C   0  0  0  0  0  0  0  0  0  0  0  0
   18.3952   21.6554   20.3518 C   0  0  0  0  0  0  0  0  0  0  0  0
   20.8562   25.2768   15.1820 C   0  0  0  0  0  0  0  0  0  0  0  0
   21.3775   27.6219   14.3912 C   0  0  0  0  0  0  0  0  0  0  0  0
   22.2297   28.6905   14.2328 C   0  0  0  0  0  0  0  0  0  0  0  0
   23.4649   28.7247   14.8779 C   0  0  0  0  0  0  0  0  0  0  0  0
   23.8446   27.5920   15.5868 C   0  0  0  0  0  0  0  0  0  0  0  0
   23.0131   26.4870   15.7027 C   0  0  0  0  0  0  0  0  0  0  0  0
   21.7752   26.4914   15.0881 C   0  0  0  0  0  0  0  0  0  0  0  0
 30 29  2  0  0  0
 30 28  1  0  0  0
 30 31  1  0  0  0
 29 27  1  0  0  0
 27 25  2  0  0  0
 25 26  1  0  0  0
 25 22  1  0  0  0
 26 28  2  0  0  0
 22 23  2  0  0  0
 22 24  2  0  0  0
 22 21  1  0  0  0
 21 33  1  0  0  0
 21 20  1  0  0  0
 33 34  1  0  0  0
 34 35  1  0  0  0
 34 36  1  0  0  0
 20 17  1  0  0  0
 17 18  1  0  0  0
 17  1  1  0  0  0
  1  4  1  0  0  0
  1 37  1  0  0  0
  4  2  1  0  0  0
  2  3  2  0  0  0
  2  6  1  0  0  0
  6  7  1  0  0  0
  7  8  1  0  0  0
  7 14  1  0  0  0
  8  9  1  0  0  0
  9 10  1  0  0  0
  9 13  1  0  0  0
 10 11  1  0  0  0
 11 12  1  0  0  0
 12 13  1  0  0  0
 12 15  1  0  0  0
 13 14  1  0  0  0
 37 43  1  0  0  0
 38 39  2  0  0  0
 38 43  1  0  0  0
 39 40  1  0  0  0
 40 41  2  0  0  0
 41 42  1  0  0  0
 42 43  2  0  0  0
 31 32  1  0  0  0
 15 16  1  0  0  0
 18 19  1  0  0  0
  4  5  1  0  0  0
M  END
> <minimizedAffinity>
-9.45542

$$$$
3ST5_G89_B_201


 43 46  0  0  0  0  0  0  0  0999 V2000
   18.0005   25.6447   16.9882 C   0  0  0  0  0  0  0  0  0  0  0  0
   19.8413   25.0991   18.5845 C   0  0  0  0  0  0  0  0  0  0  0  0
   20.0701   23.9853   18.1044 O   0  0  0  0  0  0  0  0  0  0  0  0
   18.9152   25.9235   18.1136 N   0  0  0  0  0  0  0  0  0  0  0  0
   18.8299   26.8000   18.5537 H   0  0  0  0  0  0  0  0  0  0  0  0
   20.5646   25.5461   19.6404 O   0  0  0  0  0  0  0  0  0  0  0  0
   21.1365   26.8471   19.4736 C   0  0  0  0  0  0  0  0  0  0  0  0
   21.6663   27.3151   20.8395 C   0  0  0  0  0  0  0  0  0  0  0  0
   23.0434   26.6624   20.9419 C   0  0  0  0  0  0  0  0  0  0  0  0
   22.8296   25.3068   21.3084 O   0  0  0  0  0  0  0  0  0  0  0  0
   23.3907   24.4142   20.3643 C   0  0  0  0  0  0  0  0  0  0  0  0
   24.2432   25.2507   19.3956 C   0  0  0  0  0  0  0  0  0  0  0  0
   23.5935   26.6248   19.5257 C   0  0  0  0  0  0  0  0  0  0  0  0
   22.3934   26.8060   18.6064 C   0  0  0  0  0  0  0  0  0  0  0  0
   25.5843   25.1634   19.9262 O   0  0  0  0  0  0  0  0  0  0  0  0
   25.5782   25.4134   20.8634 H   0  0  0  0  0  0  0  0  0  0  0  0
   16.8738   24.7643   17.5163 C   0  0  0  0  0  0  0  0  0  0  0  0
   16.6552   24.9946   18.9037 O   0  0  0  0  0  0  0  0  0  0  0  0
   17.4454   24.7351   19.4030 H   0  0  0  0  0  0  0  0  0  0  0  0
   17.0314   23.2899   17.1750 C   0  0  0  0  0  0  0  0  0  0  0  0
   15.7356   22.6408   17.0823 N   0  0  0  0  0  0  0  0  0  0  0  0
   15.1372   22.1620   18.5306 S   0  0  0  0  0  0  0  0  0  0  0  0
   14.0953   23.1518   18.9511 O   0  0  0  0  0  0  0  0  0  0  0  0
   16.2978   22.0419   19.4708 O   0  0  0  0  0  0  0  0  0  0  0  0
   14.3865   20.5875   18.4184 C   0  0  0  0  0  0  0  0  0  0  0  0
   13.0232   20.4799   18.2031 C   0  0  0  0  0  0  0  0  0  0  0  0
   15.1753   19.4464   18.4713 C   0  0  0  0  0  0  0  0  0  0  0  0
   12.3960   19.2458   18.0690 C   0  0  0  0  0  0  0  0  0  0  0  0
   14.5633   18.2023   18.2886 C   0  0  0  0  0  0  0  0  0  0  0  0
   13.1898   18.0948   18.0954 C   0  0  0  0  0  0  0  0  0  0  0  0
   12.5504   16.9150   17.8894 O   0  0  0  0  0  0  0  0  0  0  0  0
   11.1709   17.0111   18.1750 C   0  0  0  0  0  0  0  0  0  0  0  0
   14.7314   23.2313   16.2041 C   0  0  0  0  0  0  0  0  0  0  0  0
   14.3567   22.2887   15.0542 C   0  0  0  0  0  0  0  0  0  0  0  0
   13.1333   22.8146   14.2825 C   0  0  0  0  0  0  0  0  0  0  0  0
   15.4956   22.1651   14.0352 C   0  0  0  0  0  0  0  0  0  0  0  0
   18.8268   24.9781   15.8814 C   0  0  0  0  0  0  0  0  0  0  0  0
   21.1509   25.7010   15.1939 C   0  0  0  0  0  0  0  0  0  0  0  0
   22.0441   26.6354   14.7223 C   0  0  0  0  0  0  0  0  0  0  0  0
   21.6020   27.8448   14.1886 C   0  0  0  0  0  0  0  0  0  0  0  0
   20.2408   28.1127   14.2601 C   0  0  0  0  0  0  0  0  0  0  0  0
   19.3405   27.1978   14.7876 C   0  0  0  0  0  0  0  0  0  0  0  0
   19.7969   25.9874   15.2742 C   0  0  0  0  0  0  0  0  0  0  0  0
 30 29  2  0  0  0
 30 28  1  0  0  0
 30 31  1  0  0  0
 29 27  1  0  0  0
 27 25  2  0  0  0
 25 26  1  0  0  0
 25 22  1  0  0  0
 26 28  2  0  0  0
 22 23  2  0  0  0
 22 24  2  0  0  0
 22 21  1  0  0  0
 21 33  1  0  0  0
 21 20  1  0  0  0
 33 34  1  0  0  0
 34 35  1  0  0  0
 34 36  1  0  0  0
 20 17  1  0  0  0
 17 18  1  0  0  0
 17  1  1  0  0  0
  1  4  1  0  0  0
  1 37  1  0  0  0
  4  2  1  0  0  0
  2  3  2  0  0  0
  2  6  1  0  0  0
  6  7  1  0  0  0
  7  8  1  0  0  0
  7 14  1  0  0  0
  8  9  1  0  0  0
  9 10  1  0  0  0
  9 13  1  0  0  0
 10 11  1  0  0  0
 11 12  1  0  0  0
 12 13  1  0  0  0
 12 15  1  0  0  0
 13 14  1  0  0  0
 37 43  1  0  0  0
 38 39  2  0  0  0
 38 43  1  0  0  0
 39 40  1  0  0  0
 40 41  2  0  0  0
 41 42  1  0  0  0
 42 43  2  0  0  0
 31 32  1  0  0  0
 15 16  1  0  0  0
 18 19  1  0  0  0
  4  5  1  0  0  0
M  END
> <minimizedAffinity>
-9.30276

$$$$
3ST5_G89_B_201


 43 46  0  0  0  0  0  0  0  0999 V2000
   17.9466   25.8756   16.5721 C   0  0  0  0  0  0  0  0  0  0  0  0
   20.0840   26.0377   17.8525 C   0  0  0  0  0  0  0  0  0  0  0  0
   20.0746   27.2702   17.9172 O   0  0  0  0  0  0  0  0  0  0  0  0
   19.1311   25.3279   17.2633 N   0  0  0  0  0  0  0  0  0  0  0  0
   19.2215   24.3479   17.2891 H   0  0  0  0  0  0  0  0  0  0  0  0
   21.0974   25.3349   18.4156 O   0  0  0  0  0  0  0  0  0  0  0  0
   20.7004   24.4161   19.4381 C   0  0  0  0  0  0  0  0  0  0  0  0
   21.9716   23.8074   20.0537 C   0  0  0  0  0  0  0  0  0  0  0  0
   22.4147   24.8462   21.0822 C   0  0  0  0  0  0  0  0  0  0  0  0
   23.0653   25.8845   20.3637 O   0  0  0  0  0  0  0  0  0  0  0  0
   22.4499   27.1396   20.5848 C   0  0  0  0  0  0  0  0  0  0  0  0
   21.4328   26.9553   21.7233 C   0  0  0  0  0  0  0  0  0  0  0  0
   21.1377   25.4615   21.6302 C   0  0  0  0  0  0  0  0  0  0  0  0
   20.0477   25.1314   20.6196 C   0  0  0  0  0  0  0  0  0  0  0  0
   22.1456   27.3576   22.9140 O   0  0  0  0  0  0  0  0  0  0  0  0
   22.9849   26.8741   22.9672 H   0  0  0  0  0  0  0  0  0  0  0  0
   16.7406   25.0443   16.9937 C   0  0  0  0  0  0  0  0  0  0  0  0
   16.2143   25.5032   18.2339 O   0  0  0  0  0  0  0  0  0  0  0  0
   16.8755   25.3769   18.9323 H   0  0  0  0  0  0  0  0  0  0  0  0
   16.9876   23.5430   16.9707 C   0  0  0  0  0  0  0  0  0  0  0  0
   15.7330   22.8149   16.9028 N   0  0  0  0  0  0  0  0  0  0  0  0
   15.2465   22.2113   18.3464 S   0  0  0  0  0  0  0  0  0  0  0  0
   14.2588   23.1679   18.9391 O   0  0  0  0  0  0  0  0  0  0  0  0
   16.4776   21.9954   19.1730 O   0  0  0  0  0  0  0  0  0  0  0  0
   14.4633   20.6604   18.1548 C   0  0  0  0  0  0  0  0  0  0  0  0
   15.1438   19.4943   18.4606 C   0  0  0  0  0  0  0  0  0  0  0  0
   13.1316   20.6082   17.7664 C   0  0  0  0  0  0  0  0  0  0  0  0
   14.5420   18.2446   18.3586 C   0  0  0  0  0  0  0  0  0  0  0  0
   12.5014   19.3612   17.7077 C   0  0  0  0  0  0  0  0  0  0  0  0
   13.1934   18.1884   17.9930 C   0  0  0  0  0  0  0  0  0  0  0  0
   12.6232   16.9565   17.9745 O   0  0  0  0  0  0  0  0  0  0  0  0
   11.3808   16.9451   18.6454 C   0  0  0  0  0  0  0  0  0  0  0  0
   14.6465   23.3880   16.1157 C   0  0  0  0  0  0  0  0  0  0  0  0
   14.6414   22.8526   14.6790 C   0  0  0  0  0  0  0  0  0  0  0  0
   15.0568   21.3711   14.6378 C   0  0  0  0  0  0  0  0  0  0  0  0
   13.2431   22.9314   14.0550 C   0  0  0  0  0  0  0  0  0  0  0  0
   18.2292   25.8187   15.0657 C   0  0  0  0  0  0  0  0  0  0  0  0
   19.4985   27.9407   14.5345 C   0  0  0  0  0  0  0  0  0  0  0  0
   20.6406   28.6153   14.1684 C   0  0  0  0  0  0  0  0  0  0  0  0
   21.8746   27.9683   14.1299 C   0  0  0  0  0  0  0  0  0  0  0  0
   21.8829   26.5986   14.3614 C   0  0  0  0  0  0  0  0  0  0  0  0
   20.7248   25.9013   14.6749 C   0  0  0  0  0  0  0  0  0  0  0  0
   19.5181   26.5711   14.7474 C   0  0  0  0  0  0  0  0  0  0  0  0
 30 29  2  0  0  0
 30 28  1  0  0  0
 30 31  1  0  0  0
 29 27  1  0  0  0
 27 25  2  0  0  0
 25 26  1  0  0  0
 25 22  1  0  0  0
 26 28  2  0  0  0
 22 23  2  0  0  0
 22 24  2  0  0  0
 22 21  1  0  0  0
 21 33  1  0  0  0
 21 20  1  0  0  0
 33 34  1  0  0  0
 34 35  1  0  0  0
 34 36  1  0  0  0
 20 17  1  0  0  0
 17 18  1  0  0  0
 17  1  1  0  0  0
  1  4  1  0  0  0
  1 37  1  0  0  0
  4  2  1  0  0  0
  2  3  2  0  0  0
  2  6  1  0  0  0
  6  7  1  0  0  0
  7  8  1  0  0  0
  7 14  1  0  0  0
  8  9  1  0  0  0
  9 10  1  0  0  0
  9 13  1  0  0  0
 10 11  1  0  0  0
 11 12  1  0  0  0
 12 13  1  0  0  0
 12 15  1  0  0  0
 13 14  1  0  0  0
 37 43  1  0  0  0
 38 39  2  0  0  0
 38 43  1  0  0  0
 39 40  1  0  0  0
 40 41  2  0  0  0
 41 42  1  0  0  0
 42 43  2  0  0  0
 31 32  1  0  0  0
 15 16  1  0  0  0
 18 19  1  0  0  0
  4  5  1  0  0  0
M  END
> <minimizedAffinity>
-9.14567

$$$$
