1M1B_SPV_A_996


 12 11  0  0  0  0  0  0  0  0999 V2000
   28.7622   68.9990   73.0608 C   0  0  0  0  0  0  0  0  0  0  0  0
   28.0063   69.9570   72.6820 O   0  0  0  0  0  0  0  0  0  0  0  0
   30.2243   69.0950   72.6050 C   0  0  0  0  0  0  0  0  0  0  0  0
   30.5976   68.0940   71.8812 O   0  0  0  0  0  0  0  0  0  0  0  0
   30.9695   70.0035   72.9002 O   0  0  0  0  0  0  0  0  0  0  0  0
   30.6581   70.7121   73.4283 H   0  0  0  0  0  0  0  0  0  0  0  0
   28.1551   68.0437   73.8053 C   0  0  0  0  0  0  0  0  0  0  0  0
   28.4943   68.2400   75.5914 S   0  0  0  0  0  0  0  0  0  0  0  0
   27.3484   67.7672   76.2508 O   0  0  0  0  0  0  0  0  0  0  0  0
   28.7395   69.6367   75.7643 O   0  0  0  0  0  0  0  0  0  0  0  0
   29.5542   67.3794   75.8792 O   0  0  0  0  0  0  0  0  0  0  0  0
   27.9395   70.1360   75.5370 H   0  0  0  0  0  0  0  0  0  0  0  0
  3  4  2  0  0  0
  3  5  1  0  0  0
  3  1  1  0  0  0
  1  7  1  0  0  0
  1  2  2  0  0  0
  7  8  1  0  0  0
  8  9  2  0  0  0
  8 10  1  0  0  0
  8 11  2  0  0  0
  5  6  1  0  0  0
 10 12  1  0  0  0
M  END
> <minimizedAffinity>
-6.80587

$$$$
1M1B_SPV_A_996


 12 11  0  0  0  0  0  0  0  0999 V2000
   29.8668   68.6239   74.3865 C   0  0  0  0  0  0  0  0  0  0  0  0
   29.7507   69.5247   75.2852 O   0  0  0  0  0  0  0  0  0  0  0  0
   30.3902   69.1123   73.0292 C   0  0  0  0  0  0  0  0  0  0  0  0
   30.2579   68.2382   72.0892 O   0  0  0  0  0  0  0  0  0  0  0  0
   30.8941   70.1989   72.8467 O   0  0  0  0  0  0  0  0  0  0  0  0
   30.9710   70.8050   73.5571 H   0  0  0  0  0  0  0  0  0  0  0  0
   29.5070   67.3754   74.7701 C   0  0  0  0  0  0  0  0  0  0  0  0
   27.6938   67.1951   74.9230 S   0  0  0  0  0  0  0  0  0  0  0  0
   27.1541   67.7806   73.7666 O   0  0  0  0  0  0  0  0  0  0  0  0
   27.3613   67.8719   76.1363 O   0  0  0  0  0  0  0  0  0  0  0  0
   27.4381   65.8240   74.8824 O   0  0  0  0  0  0  0  0  0  0  0  0
   27.5800   68.8132   76.0518 H   0  0  0  0  0  0  0  0  0  0  0  0
  3  4  2  0  0  0
  3  5  1  0  0  0
  3  1  1  0  0  0
  1  7  1  0  0  0
  1  2  2  0  0  0
  7  8  1  0  0  0
  8  9  2  0  0  0
  8 10  1  0  0  0
  8 11  2  0  0  0
  5  6  1  0  0  0
 10 12  1  0  0  0
M  END
> <minimizedAffinity>
-6.65922

$$$$
1M1B_SPV_A_996


 12 11  0  0  0  0  0  0  0  0999 V2000
   28.5102   67.8464   74.7742 C   0  0  0  0  0  0  0  0  0  0  0  0
   27.4762   67.2919   74.2681 O   0  0  0  0  0  0  0  0  0  0  0  0
   28.2877   68.5485   76.1204 C   0  0  0  0  0  0  0  0  0  0  0  0
   28.6031   69.7996   76.0992 O   0  0  0  0  0  0  0  0  0  0  0  0
   27.8745   67.9942   77.1154 O   0  0  0  0  0  0  0  0  0  0  0  0
   27.6568   67.0833   77.0880 H   0  0  0  0  0  0  0  0  0  0  0  0
   29.6443   67.7310   74.0421 C   0  0  0  0  0  0  0  0  0  0  0  0
   29.8343   69.0978   72.8423 S   0  0  0  0  0  0  0  0  0  0  0  0
   30.9428   69.8391   73.2820 O   0  0  0  0  0  0  0  0  0  0  0  0
   28.5940   69.8047   72.8959 O   0  0  0  0  0  0  0  0  0  0  0  0
   30.1601   68.4993   71.6247 O   0  0  0  0  0  0  0  0  0  0  0  0
   28.4720   70.1768   73.7833 H   0  0  0  0  0  0  0  0  0  0  0  0
  3  4  2  0  0  0
  3  5  1  0  0  0
  3  1  1  0  0  0
  1  7  1  0  0  0
  1  2  2  0  0  0
  7  8  1  0  0  0
  8  9  2  0  0  0
  8 10  1  0  0  0
  8 11  2  0  0  0
  5  6  1  0  0  0
 10 12  1  0  0  0
M  END
> <minimizedAffinity>
-6.58467

$$$$
1M1B_SPV_A_996


 12 11  0  0  0  0  0  0  0  0999 V2000
   28.3573   67.4452   74.3114 C   0  0  0  0  0  0  0  0  0  0  0  0
   27.1547   67.8498   74.1604 O   0  0  0  0  0  0  0  0  0  0  0  0
   28.5476   65.9228   74.2824 C   0  0  0  0  0  0  0  0  0  0  0  0
   27.5069   65.2729   74.6821 O   0  0  0  0  0  0  0  0  0  0  0  0
   29.5706   65.3726   73.9378 O   0  0  0  0  0  0  0  0  0  0  0  0
   30.3040   65.8822   73.6541 H   0  0  0  0  0  0  0  0  0  0  0  0
   29.2797   68.4237   74.4764 C   0  0  0  0  0  0  0  0  0  0  0  0
   29.7954   69.1626   72.8852 S   0  0  0  0  0  0  0  0  0  0  0  0
   30.9633   69.8904   73.1642 O   0  0  0  0  0  0  0  0  0  0  0  0
   28.6848   69.9639   72.4787 O   0  0  0  0  0  0  0  0  0  0  0  0
   30.1312   68.0930   72.0545 O   0  0  0  0  0  0  0  0  0  0  0  0
   28.5432   70.6724   73.1259 H   0  0  0  0  0  0  0  0  0  0  0  0
  3  4  2  0  0  0
  3  5  1  0  0  0
  3  1  1  0  0  0
  1  7  1  0  0  0
  1  2  2  0  0  0
  7  8  1  0  0  0
  8  9  2  0  0  0
  8 10  1  0  0  0
  8 11  2  0  0  0
  5  6  1  0  0  0
 10 12  1  0  0  0
M  END
> <minimizedAffinity>
-6.48788

$$$$
1M1B_SPV_A_996


 12 11  0  0  0  0  0  0  0  0999 V2000
   29.1550   67.5489   74.9850 C   0  0  0  0  0  0  0  0  0  0  0  0
   28.8920   66.3409   74.6623 O   0  0  0  0  0  0  0  0  0  0  0  0
   28.1936   68.1831   75.9990 C   0  0  0  0  0  0  0  0  0  0  0  0
   27.1355   67.4745   76.2079 O   0  0  0  0  0  0  0  0  0  0  0  0
   28.3865   69.2480   76.5437 O   0  0  0  0  0  0  0  0  0  0  0  0
   29.1688   69.7313   76.3638 H   0  0  0  0  0  0  0  0  0  0  0  0
   30.2419   68.0851   74.3795 C   0  0  0  0  0  0  0  0  0  0  0  0
   29.7889   69.1535   72.9663 S   0  0  0  0  0  0  0  0  0  0  0  0
   29.6883   68.2969   71.8583 O   0  0  0  0  0  0  0  0  0  0  0  0
   30.8470   70.1091   72.8781 O   0  0  0  0  0  0  0  0  0  0  0  0
   28.5180   69.6533   73.2529 O   0  0  0  0  0  0  0  0  0  0  0  0
   31.6789   69.6528   72.6763 H   0  0  0  0  0  0  0  0  0  0  0  0
  3  4  2  0  0  0
  3  5  1  0  0  0
  3  1  1  0  0  0
  1  7  1  0  0  0
  1  2  2  0  0  0
  7  8  1  0  0  0
  8  9  2  0  0  0
  8 10  1  0  0  0
  8 11  2  0  0  0
  5  6  1  0  0  0
 10 12  1  0  0  0
M  END
> <minimizedAffinity>
-6.45283

$$$$
1M1B_SPV_A_996


 12 11  0  0  0  0  0  0  0  0999 V2000
   30.2377   67.8444   73.5071 C   0  0  0  0  0  0  0  0  0  0  0  0
   31.2088   67.0997   73.1396 O   0  0  0  0  0  0  0  0  0  0  0  0
   30.6037   69.3054   73.8006 C   0  0  0  0  0  0  0  0  0  0  0  0
   30.4288   69.6347   75.0361 O   0  0  0  0  0  0  0  0  0  0  0  0
   31.0017   70.0870   72.9648 O   0  0  0  0  0  0  0  0  0  0  0  0
   31.1151   69.8069   72.0778 H   0  0  0  0  0  0  0  0  0  0  0  0
   29.0337   67.2279   73.5836 C   0  0  0  0  0  0  0  0  0  0  0  0
   27.7001   68.2195   72.8207 S   0  0  0  0  0  0  0  0  0  0  0  0
   27.6448   67.8138   71.4776 O   0  0  0  0  0  0  0  0  0  0  0  0
   28.1017   69.5773   73.0100 O   0  0  0  0  0  0  0  0  0  0  0  0
   26.5185   67.8241   73.4488 O   0  0  0  0  0  0  0  0  0  0  0  0
   28.9300   69.7392   72.5318 H   0  0  0  0  0  0  0  0  0  0  0  0
  3  4  2  0  0  0
  3  5  1  0  0  0
  3  1  1  0  0  0
  1  7  1  0  0  0
  1  2  2  0  0  0
  7  8  1  0  0  0
  8  9  2  0  0  0
  8 10  1  0  0  0
  8 11  2  0  0  0
  5  6  1  0  0  0
 10 12  1  0  0  0
M  END
> <minimizedAffinity>
-6.21095

$$$$
1M1B_SPV_A_996


 12 11  0  0  0  0  0  0  0  0999 V2000
   29.9917   66.8886   74.2459 C   0  0  0  0  0  0  0  0  0  0  0  0
   31.1286   66.3839   73.9536 O   0  0  0  0  0  0  0  0  0  0  0  0
   28.8320   65.8880   74.3382 C   0  0  0  0  0  0  0  0  0  0  0  0
   27.7154   66.4349   74.6838 O   0  0  0  0  0  0  0  0  0  0  0  0
   28.9415   64.6999   74.1274 O   0  0  0  0  0  0  0  0  0  0  0  0
   29.7712   64.3429   73.8783 H   0  0  0  0  0  0  0  0  0  0  0  0
   29.9849   68.2312   74.4270 C   0  0  0  0  0  0  0  0  0  0  0  0
   29.9612   69.1421   72.8416 S   0  0  0  0  0  0  0  0  0  0  0  0
   28.6974   69.7497   72.7704 O   0  0  0  0  0  0  0  0  0  0  0  0
   30.1925   68.1450   71.8450 O   0  0  0  0  0  0  0  0  0  0  0  0
   30.9252   70.1440   72.9583 O   0  0  0  0  0  0  0  0  0  0  0  0
   29.4641   67.5045   71.8533 H   0  0  0  0  0  0  0  0  0  0  0  0
  3  4  2  0  0  0
  3  5  1  0  0  0
  3  1  1  0  0  0
  1  7  1  0  0  0
  1  2  2  0  0  0
  7  8  1  0  0  0
  8  9  2  0  0  0
  8 10  1  0  0  0
  8 11  2  0  0  0
  5  6  1  0  0  0
 10 12  1  0  0  0
M  END
> <minimizedAffinity>
-6.14727

$$$$
1M1B_SPV_A_996


 12 11  0  0  0  0  0  0  0  0999 V2000
   27.8330   67.7648   73.4073 C   0  0  0  0  0  0  0  0  0  0  0  0
   26.6116   68.1097   73.2593 O   0  0  0  0  0  0  0  0  0  0  0  0
   28.0773   66.6168   74.3959 C   0  0  0  0  0  0  0  0  0  0  0  0
   27.5582   66.8282   75.5583 O   0  0  0  0  0  0  0  0  0  0  0  0
   28.7056   65.6152   74.1318 O   0  0  0  0  0  0  0  0  0  0  0  0
   29.0662   65.5007   73.2746 H   0  0  0  0  0  0  0  0  0  0  0  0
   28.7255   68.4683   72.6697 C   0  0  0  0  0  0  0  0  0  0  0  0
   30.2223   68.9028   73.6260 S   0  0  0  0  0  0  0  0  0  0  0  0
   29.7647   69.2815   74.8983 O   0  0  0  0  0  0  0  0  0  0  0  0
   30.8363   69.9570   72.8828 O   0  0  0  0  0  0  0  0  0  0  0  0
   30.9535   67.7214   73.7551 O   0  0  0  0  0  0  0  0  0  0  0  0
   30.2425   70.7237   72.8582 H   0  0  0  0  0  0  0  0  0  0  0  0
  3  4  2  0  0  0
  3  5  1  0  0  0
  3  1  1  0  0  0
  1  7  1  0  0  0
  1  2  2  0  0  0
  7  8  1  0  0  0
  8  9  2  0  0  0
  8 10  1  0  0  0
  8 11  2  0  0  0
  5  6  1  0  0  0
 10 12  1  0  0  0
M  END
> <minimizedAffinity>
-6.06026

$$$$
1M1B_SPV_A_996


 12 11  0  0  0  0  0  0  0  0999 V2000
   29.7362   66.8890   74.1263 C   0  0  0  0  0  0  0  0  0  0  0  0
   28.9097   65.9615   73.8275 O   0  0  0  0  0  0  0  0  0  0  0  0
   30.7769   67.2155   73.0470 C   0  0  0  0  0  0  0  0  0  0  0  0
   30.3373   68.0291   72.1469 O   0  0  0  0  0  0  0  0  0  0  0  0
   31.8958   66.7516   73.0199 O   0  0  0  0  0  0  0  0  0  0  0  0
   32.1757   66.1637   73.6937 H   0  0  0  0  0  0  0  0  0  0  0  0
   29.5677   67.4401   75.3525 C   0  0  0  0  0  0  0  0  0  0  0  0
   29.1039   69.2064   75.2583 S   0  0  0  0  0  0  0  0  0  0  0  0
   28.3881   69.4754   76.4359 O   0  0  0  0  0  0  0  0  0  0  0  0
   28.3320   69.3171   74.0613 O   0  0  0  0  0  0  0  0  0  0  0  0
   30.3012   69.9219   75.2979 O   0  0  0  0  0  0  0  0  0  0  0  0
   27.5271   68.7823   74.1450 H   0  0  0  0  0  0  0  0  0  0  0  0
  3  4  2  0  0  0
  3  5  1  0  0  0
  3  1  1  0  0  0
  1  7  1  0  0  0
  1  2  2  0  0  0
  7  8  1  0  0  0
  8  9  2  0  0  0
  8 10  1  0  0  0
  8 11  2  0  0  0
  5  6  1  0  0  0
 10 12  1  0  0  0
M  END
> <minimizedAffinity>
-6.03183

$$$$
1M1B_SPV_A_996


 12 11  0  0  0  0  0  0  0  0999 V2000
   30.2314   67.7595   73.2548 C   0  0  0  0  0  0  0  0  0  0  0  0
   31.4055   67.3314   73.5214 O   0  0  0  0  0  0  0  0  0  0  0  0
   30.1509   69.2263   72.8116 C   0  0  0  0  0  0  0  0  0  0  0  0
   29.0976   69.4893   72.1140 O   0  0  0  0  0  0  0  0  0  0  0  0
   30.9911   70.0606   73.0685 O   0  0  0  0  0  0  0  0  0  0  0  0
   31.7418   69.8278   73.5786 H   0  0  0  0  0  0  0  0  0  0  0  0
   29.2372   66.8519   73.4072 C   0  0  0  0  0  0  0  0  0  0  0  0
   28.2262   67.1778   74.8957 S   0  0  0  0  0  0  0  0  0  0  0  0
   27.3095   68.1738   74.5227 O   0  0  0  0  0  0  0  0  0  0  0  0
   29.1656   67.5849   75.8921 O   0  0  0  0  0  0  0  0  0  0  0  0
   27.5197   66.0011   75.1469 O   0  0  0  0  0  0  0  0  0  0  0  0
   29.5950   68.4091   75.6141 H   0  0  0  0  0  0  0  0  0  0  0  0
  3  4  2  0  0  0
  3  5  1  0  0  0
  3  1  1  0  0  0
  1  7  1  0  0  0
  1  2  2  0  0  0
  7  8  1  0  0  0
  8  9  2  0  0  0
  8 10  1  0  0  0
  8 11  2  0  0  0
  5  6  1  0  0  0
 10 12  1  0  0  0
M  END
> <minimizedAffinity>
-5.88061

$$$$
