2VVV_H21_A_1245


 34 37  0  0  0  0  0  0  0  0999 V2000
   -5.2989   10.4136   21.4417 N   0  0  0  0  0  0  0  0  0  0  0  0
   -5.2193   11.6617   20.9453 C   0  0  0  0  0  0  0  0  0  0  0  0
   -5.4982   11.8721   19.7825 O   0  0  0  0  0  0  0  0  0  0  0  0
   -5.0876   10.2463   22.3886 H   0  0  0  0  0  0  0  0  0  0  0  0
   -3.4896    9.2541   19.7902 F   0  0  0  0  0  0  0  0  0  0  0  0
   -4.7356    8.7858   19.7835 C   0  0  0  0  0  0  0  0  0  0  0  0
   -5.0395    7.7338   18.9239 C   0  0  0  0  0  0  0  0  0  0  0  0
   -6.3270    7.2260   18.9123 C   0  0  0  0  0  0  0  0  0  0  0  0
   -7.2863    7.7863   19.7695 C   0  0  0  0  0  0  0  0  0  0  0  0
   -6.9765    8.8576   20.6207 C   0  0  0  0  0  0  0  0  0  0  0  0
   -5.6752    9.3721   20.6274 C   0  0  0  0  0  0  0  0  0  0  0  0
   -6.6482    6.1220   18.0326 N   0  0  0  0  0  0  0  0  0  0  0  0
   -6.4738    4.8233   18.4125 C   0  0  0  0  0  0  0  0  0  0  0  0
   -6.7643    3.7737   17.6193 C   0  0  0  0  0  0  0  0  0  0  0  0
   -7.2804    4.0330   16.3300 C   0  0  0  0  0  0  0  0  0  0  0  0
   -7.4727    5.3072   15.9279 C   0  0  0  0  0  0  0  0  0  0  0  0
   -7.1590    6.4202   16.7599 C   0  0  0  0  0  0  0  0  0  0  0  0
   -7.3050    7.5860   16.4306 O   0  0  0  0  0  0  0  0  0  0  0  0
   -4.7969   12.8492   21.8011 C   0  0  0  0  0  0  0  0  0  0  0  0
   -4.7758   12.5162   23.2092 N   0  0  0  0  0  0  0  0  0  0  0  0
   -5.4818   13.0445   24.2038 C   0  0  0  0  0  0  0  0  0  0  0  0
   -5.1813   12.4516   25.3511 N   0  0  0  0  0  0  0  0  0  0  0  0
   -3.9658   11.5495   23.6867 N   0  0  0  0  0  0  0  0  0  0  0  0
   -4.2295   11.6066   24.9661 C   0  0  0  0  0  0  0  0  0  0  0  0
   -3.6397   10.6494   25.8775 N   0  0  0  0  0  0  0  0  0  0  0  0
   -2.2917   10.3318   25.9655 C   0  0  0  0  0  0  0  0  0  0  0  0
   -1.4321   10.8374   25.2679 O   0  0  0  0  0  0  0  0  0  0  0  0
   -4.2506   10.1808   26.4911 H   0  0  0  0  0  0  0  0  0  0  0  0
   -2.0258    9.2052   26.8589 C   0  0  0  0  0  0  0  0  0  0  0  0
   -2.7345    8.7191   27.9173 C   0  0  0  0  0  0  0  0  0  0  0  0
   -2.1757    7.5377   28.4378 C   0  0  0  0  0  0  0  0  0  0  0  0
   -0.6887    8.2295   26.4521 S   0  0  0  0  0  0  0  0  0  0  0  0
   -1.0946    7.1655   27.7277 C   0  0  0  0  0  0  0  0  0  0  0  0
   -0.1062    5.7897   27.9284 Cl  0  0  0  0  0  0  0  0  0  0  0  0
  5  6  1  0  0  0
  6  7  1  0  0  0
  6 11  2  0  0  0
  7  8  2  0  0  0
  8 12  1  0  0  0
  8  9  1  0  0  0
 12 13  1  0  0  0
 12 17  1  0  0  0
 13 14  2  0  0  0
 14 15  1  0  0  0
 15 16  2  0  0  0
 16 17  1  0  0  0
 17 18  2  0  0  0
  9 10  2  0  0  0
 10 11  1  0  0  0
 11  1  1  0  0  0
  1  2  1  0  0  0
  2  3  2  0  0  0
  2 19  1  0  0  0
 19 20  1  0  0  0
 20 21  1  0  0  0
 20 23  1  0  0  0
 21 22  2  0  0  0
 25 26  1  0  0  0
 25 24  1  0  0  0
 26 27  2  0  0  0
 26 29  1  0  0  0
 29 30  2  0  0  0
 29 32  1  0  0  0
 30 31  1  0  0  0
 31 33  2  0  0  0
 32 33  1  0  0  0
 33 34  1  0  0  0
 22 24  1  0  0  0
 23 24  2  0  0  0
  1  4  1  0  0  0
 25 28  1  0  0  0
M  END
> <minimizedAffinity>
-11.40632

$$$$
2VVV_H21_A_1245


 34 37  0  0  0  0  0  0  0  0999 V2000
   -5.3858   10.4969   19.0067 N   0  0  0  0  0  0  0  0  0  0  0  0
   -4.5638   11.2290   18.2328 C   0  0  0  0  0  0  0  0  0  0  0  0
   -4.1807   10.7896   17.1677 O   0  0  0  0  0  0  0  0  0  0  0  0
   -5.7085   10.8602   19.8630 H   0  0  0  0  0  0  0  0  0  0  0  0
   -3.8913    8.3317   19.6575 F   0  0  0  0  0  0  0  0  0  0  0  0
   -4.9979    8.1385   18.9434 C   0  0  0  0  0  0  0  0  0  0  0  0
   -5.3195    6.8379   18.5654 C   0  0  0  0  0  0  0  0  0  0  0  0
   -6.4729    6.6168   17.8329 C   0  0  0  0  0  0  0  0  0  0  0  0
   -7.2840    7.7109   17.4955 C   0  0  0  0  0  0  0  0  0  0  0  0
   -6.9441    9.0208   17.8657 C   0  0  0  0  0  0  0  0  0  0  0  0
   -5.7753    9.2423   18.6025 C   0  0  0  0  0  0  0  0  0  0  0  0
   -6.8232    5.2656   17.4485 N   0  0  0  0  0  0  0  0  0  0  0  0
   -6.5387    4.1936   18.2429 C   0  0  0  0  0  0  0  0  0  0  0  0
   -6.8524    2.9247   17.9157 C   0  0  0  0  0  0  0  0  0  0  0  0
   -7.5142    2.6950   16.6889 C   0  0  0  0  0  0  0  0  0  0  0  0
   -7.8175    3.7361   15.8848 C   0  0  0  0  0  0  0  0  0  0  0  0
   -7.4801    5.0783   16.2226 C   0  0  0  0  0  0  0  0  0  0  0  0
   -7.7238    6.0450   15.5192 O   0  0  0  0  0  0  0  0  0  0  0  0
   -4.0931   12.6199   18.6386 C   0  0  0  0  0  0  0  0  0  0  0  0
   -3.1512   12.5692   19.7361 N   0  0  0  0  0  0  0  0  0  0  0  0
   -1.9629   13.1548   19.8455 C   0  0  0  0  0  0  0  0  0  0  0  0
   -1.4134   12.8720   21.0186 N   0  0  0  0  0  0  0  0  0  0  0  0
   -3.4162   11.8607   20.8525 N   0  0  0  0  0  0  0  0  0  0  0  0
   -2.3204   12.0512   21.5400 C   0  0  0  0  0  0  0  0  0  0  0  0
   -2.2048   11.5381   22.8884 N   0  0  0  0  0  0  0  0  0  0  0  0
   -1.1675   10.7561   23.3764 C   0  0  0  0  0  0  0  0  0  0  0  0
   -0.2132   10.4063   22.7070 O   0  0  0  0  0  0  0  0  0  0  0  0
   -2.9281   11.7646   23.5168 H   0  0  0  0  0  0  0  0  0  0  0  0
   -1.4178   10.2493   24.7250 C   0  0  0  0  0  0  0  0  0  0  0  0
   -2.4541   10.4696   25.5829 C   0  0  0  0  0  0  0  0  0  0  0  0
   -2.3573    9.6901   26.7499 C   0  0  0  0  0  0  0  0  0  0  0  0
   -0.3224    9.0749   25.2961 S   0  0  0  0  0  0  0  0  0  0  0  0
   -1.2751    8.8912   26.7042 C   0  0  0  0  0  0  0  0  0  0  0  0
   -0.7515    7.7351   27.8442 Cl  0  0  0  0  0  0  0  0  0  0  0  0
  5  6  1  0  0  0
  6  7  1  0  0  0
  6 11  2  0  0  0
  7  8  2  0  0  0
  8 12  1  0  0  0
  8  9  1  0  0  0
 12 13  1  0  0  0
 12 17  1  0  0  0
 13 14  2  0  0  0
 14 15  1  0  0  0
 15 16  2  0  0  0
 16 17  1  0  0  0
 17 18  2  0  0  0
  9 10  2  0  0  0
 10 11  1  0  0  0
 11  1  1  0  0  0
  1  2  1  0  0  0
  2  3  2  0  0  0
  2 19  1  0  0  0
 19 20  1  0  0  0
 20 21  1  0  0  0
 20 23  1  0  0  0
 21 22  2  0  0  0
 25 26  1  0  0  0
 25 24  1  0  0  0
 26 27  2  0  0  0
 26 29  1  0  0  0
 29 30  2  0  0  0
 29 32  1  0  0  0
 30 31  1  0  0  0
 31 33  2  0  0  0
 32 33  1  0  0  0
 33 34  1  0  0  0
 22 24  1  0  0  0
 23 24  2  0  0  0
  1  4  1  0  0  0
 25 28  1  0  0  0
M  END
> <minimizedAffinity>
-9.71027

$$$$
2VVV_H21_A_1245


 34 37  0  0  0  0  0  0  0  0999 V2000
   -4.4226   10.5694   20.4751 N   0  0  0  0  0  0  0  0  0  0  0  0
   -3.4663   11.3719   19.9731 C   0  0  0  0  0  0  0  0  0  0  0  0
   -3.1104   11.2448   18.8192 O   0  0  0  0  0  0  0  0  0  0  0  0
   -4.7216   10.6832   21.4061 H   0  0  0  0  0  0  0  0  0  0  0  0
   -6.6057   11.1181   18.9656 F   0  0  0  0  0  0  0  0  0  0  0  0
   -6.1039    9.8862   18.9185 C   0  0  0  0  0  0  0  0  0  0  0  0
   -6.7331    8.9492   18.1036 C   0  0  0  0  0  0  0  0  0  0  0  0
   -6.2179    7.6665   18.0327 C   0  0  0  0  0  0  0  0  0  0  0  0
   -5.0753    7.3506   18.7833 C   0  0  0  0  0  0  0  0  0  0  0  0
   -4.4567    8.2958   19.6154 C   0  0  0  0  0  0  0  0  0  0  0  0
   -4.9821    9.5908   19.6887 C   0  0  0  0  0  0  0  0  0  0  0  0
   -6.8569    6.6897   17.1761 N   0  0  0  0  0  0  0  0  0  0  0  0
   -7.6032    7.0577   16.0950 C   0  0  0  0  0  0  0  0  0  0  0  0
   -8.2090    6.1747   15.2774 C   0  0  0  0  0  0  0  0  0  0  0  0
   -8.0586    4.7972   15.5524 C   0  0  0  0  0  0  0  0  0  0  0  0
   -7.3189    4.4008   16.6098 C   0  0  0  0  0  0  0  0  0  0  0  0
   -6.6837    5.3310   17.4819 C   0  0  0  0  0  0  0  0  0  0  0  0
   -6.0182    5.0157   18.4548 O   0  0  0  0  0  0  0  0  0  0  0  0
   -2.8057   12.4643   20.8045 C   0  0  0  0  0  0  0  0  0  0  0  0
   -1.9884   11.9129   21.8638 N   0  0  0  0  0  0  0  0  0  0  0  0
   -0.7344   12.2078   22.1917 C   0  0  0  0  0  0  0  0  0  0  0  0
   -0.3476   11.4893   23.2367 N   0  0  0  0  0  0  0  0  0  0  0  0
   -2.4667   10.9638   22.6939 N   0  0  0  0  0  0  0  0  0  0  0  0
   -1.4213   10.7327   23.4443 C   0  0  0  0  0  0  0  0  0  0  0  0
   -1.5146    9.8264   24.5689 N   0  0  0  0  0  0  0  0  0  0  0  0
   -2.0640   10.1204   25.8088 C   0  0  0  0  0  0  0  0  0  0  0  0
   -2.5426   11.2019   26.0959 O   0  0  0  0  0  0  0  0  0  0  0  0
   -1.1555    8.9184   24.4427 H   0  0  0  0  0  0  0  0  0  0  0  0
   -1.8568    9.0592   26.7933 C   0  0  0  0  0  0  0  0  0  0  0  0
   -2.6055    8.6800   27.8676 C   0  0  0  0  0  0  0  0  0  0  0  0
   -2.0989    7.5258   28.4921 C   0  0  0  0  0  0  0  0  0  0  0  0
   -0.5442    8.0127   26.4973 S   0  0  0  0  0  0  0  0  0  0  0  0
   -1.0149    7.0651   27.8407 C   0  0  0  0  0  0  0  0  0  0  0  0
   -0.0782    5.6785   28.1723 Cl  0  0  0  0  0  0  0  0  0  0  0  0
  5  6  1  0  0  0
  6  7  1  0  0  0
  6 11  2  0  0  0
  7  8  2  0  0  0
  8 12  1  0  0  0
  8  9  1  0  0  0
 12 13  1  0  0  0
 12 17  1  0  0  0
 13 14  2  0  0  0
 14 15  1  0  0  0
 15 16  2  0  0  0
 16 17  1  0  0  0
 17 18  2  0  0  0
  9 10  2  0  0  0
 10 11  1  0  0  0
 11  1  1  0  0  0
  1  2  1  0  0  0
  2  3  2  0  0  0
  2 19  1  0  0  0
 19 20  1  0  0  0
 20 21  1  0  0  0
 20 23  1  0  0  0
 21 22  2  0  0  0
 25 26  1  0  0  0
 25 24  1  0  0  0
 26 27  2  0  0  0
 26 29  1  0  0  0
 29 30  2  0  0  0
 29 32  1  0  0  0
 30 31  1  0  0  0
 31 33  2  0  0  0
 32 33  1  0  0  0
 33 34  1  0  0  0
 22 24  1  0  0  0
 23 24  2  0  0  0
  1  4  1  0  0  0
 25 28  1  0  0  0
M  END
> <minimizedAffinity>
-9.67371

$$$$
2VVV_H21_A_1245


 34 37  0  0  0  0  0  0  0  0999 V2000
   -1.4187   11.9384   19.2874 N   0  0  0  0  0  0  0  0  0  0  0  0
   -2.1419   13.0097   18.9133 C   0  0  0  0  0  0  0  0  0  0  0  0
   -2.7820   13.6288   19.7386 O   0  0  0  0  0  0  0  0  0  0  0  0
   -0.8875   11.4461   18.6204 H   0  0  0  0  0  0  0  0  0  0  0  0
   -3.1220    9.9962   20.1071 F   0  0  0  0  0  0  0  0  0  0  0  0
   -2.3018   10.5324   21.0078 C   0  0  0  0  0  0  0  0  0  0  0  0
   -2.3713   10.0711   22.3194 C   0  0  0  0  0  0  0  0  0  0  0  0
   -1.5175   10.6086   23.2669 C   0  0  0  0  0  0  0  0  0  0  0  0
   -0.6062   11.6012   22.8755 C   0  0  0  0  0  0  0  0  0  0  0  0
   -0.5539   12.0729   21.5552 C   0  0  0  0  0  0  0  0  0  0  0  0
   -1.4212   11.5310   20.6001 C   0  0  0  0  0  0  0  0  0  0  0  0
   -1.5723   10.1240   24.6301 N   0  0  0  0  0  0  0  0  0  0  0  0
   -2.6245   10.4030   25.4525 C   0  0  0  0  0  0  0  0  0  0  0  0
   -2.7071    9.9662   26.7244 C   0  0  0  0  0  0  0  0  0  0  0  0
   -1.6512    9.1750   27.2292 C   0  0  0  0  0  0  0  0  0  0  0  0
   -0.6002    8.8741   26.4374 C   0  0  0  0  0  0  0  0  0  0  0  0
   -0.5044    9.3408   25.0948 C   0  0  0  0  0  0  0  0  0  0  0  0
    0.4329    9.1033   24.3508 O   0  0  0  0  0  0  0  0  0  0  0  0
   -2.1830   13.4965   17.4703 C   0  0  0  0  0  0  0  0  0  0  0  0
   -3.0694   12.6922   16.6571 N   0  0  0  0  0  0  0  0  0  0  0  0
   -3.4862   12.9055   15.4130 C   0  0  0  0  0  0  0  0  0  0  0  0
   -4.2837   11.9232   15.0168 N   0  0  0  0  0  0  0  0  0  0  0  0
   -3.6021   11.5461   17.1274 N   0  0  0  0  0  0  0  0  0  0  0  0
   -4.3450   11.1780   16.1164 C   0  0  0  0  0  0  0  0  0  0  0  0
   -5.0430    9.9104   16.1453 N   0  0  0  0  0  0  0  0  0  0  0  0
   -5.7416    9.3895   17.2254 C   0  0  0  0  0  0  0  0  0  0  0  0
   -5.8488    9.9565   18.2969 O   0  0  0  0  0  0  0  0  0  0  0  0
   -5.0202    9.3682   15.3239 H   0  0  0  0  0  0  0  0  0  0  0  0
   -6.1913    8.0153   17.0076 C   0  0  0  0  0  0  0  0  0  0  0  0
   -6.6776    7.4018   15.8915 C   0  0  0  0  0  0  0  0  0  0  0  0
   -6.8881    6.0247   16.0868 C   0  0  0  0  0  0  0  0  0  0  0  0
   -5.9497    6.9365   18.3051 S   0  0  0  0  0  0  0  0  0  0  0  0
   -6.5172    5.6542   17.3264 C   0  0  0  0  0  0  0  0  0  0  0  0
   -6.5307    4.0982   18.0256 Cl  0  0  0  0  0  0  0  0  0  0  0  0
  5  6  1  0  0  0
  6  7  1  0  0  0
  6 11  2  0  0  0
  7  8  2  0  0  0
  8 12  1  0  0  0
  8  9  1  0  0  0
 12 13  1  0  0  0
 12 17  1  0  0  0
 13 14  2  0  0  0
 14 15  1  0  0  0
 15 16  2  0  0  0
 16 17  1  0  0  0
 17 18  2  0  0  0
  9 10  2  0  0  0
 10 11  1  0  0  0
 11  1  1  0  0  0
  1  2  1  0  0  0
  2  3  2  0  0  0
  2 19  1  0  0  0
 19 20  1  0  0  0
 20 21  1  0  0  0
 20 23  1  0  0  0
 21 22  2  0  0  0
 25 26  1  0  0  0
 25 24  1  0  0  0
 26 27  2  0  0  0
 26 29  1  0  0  0
 29 30  2  0  0  0
 29 32  1  0  0  0
 30 31  1  0  0  0
 31 33  2  0  0  0
 32 33  1  0  0  0
 33 34  1  0  0  0
 22 24  1  0  0  0
 23 24  2  0  0  0
  1  4  1  0  0  0
 25 28  1  0  0  0
M  END
> <minimizedAffinity>
-9.12722

$$$$
2VVV_H21_A_1245


 34 37  0  0  0  0  0  0  0  0999 V2000
   -4.8574    9.9500   18.3234 N   0  0  0  0  0  0  0  0  0  0  0  0
   -5.6455   10.9197   18.8226 C   0  0  0  0  0  0  0  0  0  0  0  0
   -6.8233   10.7025   19.0227 O   0  0  0  0  0  0  0  0  0  0  0  0
   -3.8993   10.1219   18.1760 H   0  0  0  0  0  0  0  0  0  0  0  0
   -5.8491    9.4697   15.8472 F   0  0  0  0  0  0  0  0  0  0  0  0
   -5.8957    8.4866   16.7433 C   0  0  0  0  0  0  0  0  0  0  0  0
   -6.4577    7.2720   16.3601 C   0  0  0  0  0  0  0  0  0  0  0  0
   -6.5036    6.2344   17.2750 C   0  0  0  0  0  0  0  0  0  0  0  0
   -5.9800    6.4383   18.5607 C   0  0  0  0  0  0  0  0  0  0  0  0
   -5.4306    7.6708   18.9447 C   0  0  0  0  0  0  0  0  0  0  0  0
   -5.3893    8.7196   18.0192 C   0  0  0  0  0  0  0  0  0  0  0  0
   -7.0725    4.9629   16.8804 N   0  0  0  0  0  0  0  0  0  0  0  0
   -8.0270    4.8704   15.9100 C   0  0  0  0  0  0  0  0  0  0  0  0
   -8.5750    3.7035   15.5183 C   0  0  0  0  0  0  0  0  0  0  0  0
   -8.1341    2.5152   16.1424 C   0  0  0  0  0  0  0  0  0  0  0  0
   -7.1844    2.5728   17.1001 C   0  0  0  0  0  0  0  0  0  0  0  0
   -6.6082    3.8050   17.5233 C   0  0  0  0  0  0  0  0  0  0  0  0
   -5.7583    3.9022   18.3933 O   0  0  0  0  0  0  0  0  0  0  0  0
   -5.1095   12.3037   19.1661 C   0  0  0  0  0  0  0  0  0  0  0  0
   -4.0483   12.2404   20.1479 N   0  0  0  0  0  0  0  0  0  0  0  0
   -2.9176   12.9371   20.2029 C   0  0  0  0  0  0  0  0  0  0  0  0
   -2.2134   12.5936   21.2725 N   0  0  0  0  0  0  0  0  0  0  0  0
   -4.1145   11.3931   21.1950 N   0  0  0  0  0  0  0  0  0  0  0  0
   -2.9712   11.6282   21.7842 C   0  0  0  0  0  0  0  0  0  0  0  0
   -2.6536   10.9911   23.0445 N   0  0  0  0  0  0  0  0  0  0  0  0
   -1.4042   10.9559   23.6474 C   0  0  0  0  0  0  0  0  0  0  0  0
   -0.4100   11.4717   23.1714 O   0  0  0  0  0  0  0  0  0  0  0  0
   -3.3912   10.5418   23.5170 H   0  0  0  0  0  0  0  0  0  0  0  0
   -1.3612   10.0911   24.8258 C   0  0  0  0  0  0  0  0  0  0  0  0
   -0.3720    9.2851   25.3056 C   0  0  0  0  0  0  0  0  0  0  0  0
   -0.7066    8.7062   26.5432 C   0  0  0  0  0  0  0  0  0  0  0  0
   -2.7022   10.1903   25.8735 S   0  0  0  0  0  0  0  0  0  0  0  0
   -1.9148    9.1293   26.9591 C   0  0  0  0  0  0  0  0  0  0  0  0
   -2.7370    8.7576   28.4068 Cl  0  0  0  0  0  0  0  0  0  0  0  0
  5  6  1  0  0  0
  6  7  1  0  0  0
  6 11  2  0  0  0
  7  8  2  0  0  0
  8 12  1  0  0  0
  8  9  1  0  0  0
 12 13  1  0  0  0
 12 17  1  0  0  0
 13 14  2  0  0  0
 14 15  1  0  0  0
 15 16  2  0  0  0
 16 17  1  0  0  0
 17 18  2  0  0  0
  9 10  2  0  0  0
 10 11  1  0  0  0
 11  1  1  0  0  0
  1  2  1  0  0  0
  2  3  2  0  0  0
  2 19  1  0  0  0
 19 20  1  0  0  0
 20 21  1  0  0  0
 20 23  1  0  0  0
 21 22  2  0  0  0
 25 26  1  0  0  0
 25 24  1  0  0  0
 26 27  2  0  0  0
 26 29  1  0  0  0
 29 30  2  0  0  0
 29 32  1  0  0  0
 30 31  1  0  0  0
 31 33  2  0  0  0
 32 33  1  0  0  0
 33 34  1  0  0  0
 22 24  1  0  0  0
 23 24  2  0  0  0
  1  4  1  0  0  0
 25 28  1  0  0  0
M  END
> <minimizedAffinity>
-8.71095

$$$$
