3EBH_BES_A_1085


 27 27  0  0  0  0  0  0  0  0999 V2000
   13.6845   12.1163   11.5793 C   0  0  0  0  0  0  0  0  0  0  0  0
   13.1189   12.2948   10.2780 O   0  0  0  0  0  0  0  0  0  0  0  0
   12.6093   11.5058   10.0360 H   0  0  0  0  0  0  0  0  0  0  0  0
   11.3209   12.4233   12.2481 N   0  0  0  0  0  0  0  0  0  0  0  0
   12.6279   11.9375   12.6729 C   0  0  0  0  0  0  0  0  0  0  0  0
   10.6464   12.2874   13.0010 H   0  0  0  0  0  0  0  0  0  0  0  0
   11.0179   11.9063   11.4227 H   0  0  0  0  0  0  0  0  0  0  0  0
   13.0756   12.6846   13.9266 C   0  0  0  0  0  0  0  0  0  0  0  0
   12.8434   11.9372   15.2253 C   0  0  0  0  0  0  0  0  0  0  0  0
   11.9834   12.4881   16.1775 C   0  0  0  0  0  0  0  0  0  0  0  0
   13.5010   10.7319   15.4979 C   0  0  0  0  0  0  0  0  0  0  0  0
   11.7672   11.8268   17.3891 C   0  0  0  0  0  0  0  0  0  0  0  0
   13.2850   10.0686   16.7135 C   0  0  0  0  0  0  0  0  0  0  0  0
   12.4123   10.6188   17.6544 C   0  0  0  0  0  0  0  0  0  0  0  0
   14.5284   10.8838   11.5159 C   0  0  0  0  0  0  0  0  0  0  0  0
   14.3877   10.0041   12.3483 O   0  0  0  0  0  0  0  0  0  0  0  0
   15.3850   10.8394   10.5093 N   0  0  0  0  0  0  0  0  0  0  0  0
   15.3924   11.5941    9.8771 H   0  0  0  0  0  0  0  0  0  0  0  0
   16.3178    9.7461   10.2761 C   0  0  0  0  0  0  0  0  0  0  0  0
   17.6693   10.2789   10.6327 C   0  0  0  0  0  0  0  0  0  0  0  0
   18.4613    9.6098   11.3348 O   0  0  0  0  0  0  0  0  0  0  0  0
   17.9296   11.4199   10.2116 O   0  0  0  0  0  0  0  0  0  0  0  0
   18.2188    8.7535   11.6280 H   0  0  0  0  0  0  0  0  0  0  0  0
   16.2265    9.4043    8.7884 C   0  0  0  0  0  0  0  0  0  0  0  0
   17.1632    8.2782    8.3356 C   0  0  0  0  0  0  0  0  0  0  0  0
   16.4707    6.9496    8.0380 C   0  0  0  0  0  0  0  0  0  0  0  0
   17.9720    8.6984    7.1170 C   0  0  0  0  0  0  0  0  0  0  0  0
  4  5  1  0  0  0
  5  8  1  0  0  0
  5  1  1  0  0  0
  8  9  1  0  0  0
  9 10  2  0  0  0
  9 11  1  0  0  0
 10 12  1  0  0  0
 11 13  2  0  0  0
 12 14  2  0  0  0
 13 14  1  0  0  0
  1  2  1  0  0  0
  1 15  1  0  0  0
 15 16  2  0  0  0
 15 17  1  0  0  0
 17 19  1  0  0  0
 19 24  1  0  0  0
 19 20  1  0  0  0
 24 25  1  0  0  0
 25 26  1  0  0  0
 25 27  1  0  0  0
 20 21  1  0  0  0
 20 22  2  0  0  0
  4  6  1  0  0  0
  4  7  1  0  0  0
  2  3  1  0  0  0
 17 18  1  0  0  0
 21 23  1  0  0  0
M  END
> <minimizedAffinity>
-9.77365

$$$$
3EBH_BES_A_1085


 27 27  0  0  0  0  0  0  0  0999 V2000
   16.6593   10.4332   11.9757 C   0  0  0  0  0  0  0  0  0  0  0  0
   17.4898    9.4930   12.6624 O   0  0  0  0  0  0  0  0  0  0  0  0
   17.1353    8.5985   12.5398 H   0  0  0  0  0  0  0  0  0  0  0  0
   15.2801   10.4483    9.9202 N   0  0  0  0  0  0  0  0  0  0  0  0
   16.6089   10.1965   10.4638 C   0  0  0  0  0  0  0  0  0  0  0  0
   15.2870   10.2804    8.9141 H   0  0  0  0  0  0  0  0  0  0  0  0
   15.0165   11.4168   10.1015 H   0  0  0  0  0  0  0  0  0  0  0  0
   17.0247    8.7575   10.1697 C   0  0  0  0  0  0  0  0  0  0  0  0
   17.1186    8.4148    8.6956 C   0  0  0  0  0  0  0  0  0  0  0  0
   16.4093    7.3138    8.2112 C   0  0  0  0  0  0  0  0  0  0  0  0
   17.9279    9.1564    7.8270 C   0  0  0  0  0  0  0  0  0  0  0  0
   16.4939    6.9678    6.8603 C   0  0  0  0  0  0  0  0  0  0  0  0
   18.0137    8.8092    6.4719 C   0  0  0  0  0  0  0  0  0  0  0  0
   17.2898    7.7156    5.9925 C   0  0  0  0  0  0  0  0  0  0  0  0
   15.2816   10.2790   12.5357 C   0  0  0  0  0  0  0  0  0  0  0  0
   14.9027    9.1907   12.9338 O   0  0  0  0  0  0  0  0  0  0  0  0
   14.5606   11.3872   12.5693 N   0  0  0  0  0  0  0  0  0  0  0  0
   14.9789   12.2189   12.2491 H   0  0  0  0  0  0  0  0  0  0  0  0
   13.1878   11.4561   13.0495 C   0  0  0  0  0  0  0  0  0  0  0  0
   12.4145   12.1560   11.9773 C   0  0  0  0  0  0  0  0  0  0  0  0
   11.2475   12.5605   12.1837 O   0  0  0  0  0  0  0  0  0  0  0  0
   12.9945   12.2787   10.8840 O   0  0  0  0  0  0  0  0  0  0  0  0
   10.8535   12.4446   13.0259 H   0  0  0  0  0  0  0  0  0  0  0  0
   13.2178   12.2738   14.3413 C   0  0  0  0  0  0  0  0  0  0  0  0
   12.5683   11.5837   15.5465 C   0  0  0  0  0  0  0  0  0  0  0  0
   13.4295   10.5119   16.2119 C   0  0  0  0  0  0  0  0  0  0  0  0
   12.1466   12.6016   16.5960 C   0  0  0  0  0  0  0  0  0  0  0  0
  4  5  1  0  0  0
  5  8  1  0  0  0
  5  1  1  0  0  0
  8  9  1  0  0  0
  9 10  2  0  0  0
  9 11  1  0  0  0
 10 12  1  0  0  0
 11 13  2  0  0  0
 12 14  2  0  0  0
 13 14  1  0  0  0
  1  2  1  0  0  0
  1 15  1  0  0  0
 15 16  2  0  0  0
 15 17  1  0  0  0
 17 19  1  0  0  0
 19 24  1  0  0  0
 19 20  1  0  0  0
 24 25  1  0  0  0
 25 26  1  0  0  0
 25 27  1  0  0  0
 20 21  1  0  0  0
 20 22  2  0  0  0
  4  6  1  0  0  0
  4  7  1  0  0  0
  2  3  1  0  0  0
 17 18  1  0  0  0
 21 23  1  0  0  0
M  END
> <minimizedAffinity>
-9.33262

$$$$
3EBH_BES_A_1085


 27 27  0  0  0  0  0  0  0  0999 V2000
   13.5940   12.2283   11.5218 C   0  0  0  0  0  0  0  0  0  0  0  0
   12.9014   12.5015   10.3009 O   0  0  0  0  0  0  0  0  0  0  0  0
   12.3913   11.7199   10.0367 H   0  0  0  0  0  0  0  0  0  0  0  0
   11.2799   12.3114   12.3968 N   0  0  0  0  0  0  0  0  0  0  0  0
   12.6526   11.9176   12.6886 C   0  0  0  0  0  0  0  0  0  0  0  0
   10.6853   12.0890   13.1951 H   0  0  0  0  0  0  0  0  0  0  0  0
   10.9486   11.8061   11.5749 H   0  0  0  0  0  0  0  0  0  0  0  0
   13.1463   12.6459   13.9360 C   0  0  0  0  0  0  0  0  0  0  0  0
   12.8648   11.9274   15.2412 C   0  0  0  0  0  0  0  0  0  0  0  0
   11.9555   12.4894   16.1396 C   0  0  0  0  0  0  0  0  0  0  0  0
   13.5247   10.7384   15.5734 C   0  0  0  0  0  0  0  0  0  0  0  0
   11.6929   11.8550   17.3564 C   0  0  0  0  0  0  0  0  0  0  0  0
   13.2621   10.1020   16.7942 C   0  0  0  0  0  0  0  0  0  0  0  0
   12.3406   10.6629   17.6807 C   0  0  0  0  0  0  0  0  0  0  0  0
   14.4594   11.0358   11.2677 C   0  0  0  0  0  0  0  0  0  0  0  0
   14.0679   10.1422   10.5365 O   0  0  0  0  0  0  0  0  0  0  0  0
   15.6364   11.0559   11.8705 N   0  0  0  0  0  0  0  0  0  0  0  0
   15.8617   11.8446   12.4149 H   0  0  0  0  0  0  0  0  0  0  0  0
   16.6202    9.9864   11.7806 C   0  0  0  0  0  0  0  0  0  0  0  0
   17.3908   10.2445   10.5247 C   0  0  0  0  0  0  0  0  0  0  0  0
   17.6801    9.3105    9.7425 O   0  0  0  0  0  0  0  0  0  0  0  0
   17.7369   11.4239   10.3348 O   0  0  0  0  0  0  0  0  0  0  0  0
   17.3958    8.4376    9.9296 H   0  0  0  0  0  0  0  0  0  0  0  0
   15.8349    8.6770   11.6952 C   0  0  0  0  0  0  0  0  0  0  0  0
   16.0351    7.7360   12.8889 C   0  0  0  0  0  0  0  0  0  0  0  0
   15.0740    7.9655   14.0538 C   0  0  0  0  0  0  0  0  0  0  0  0
   15.9489    6.2798   12.4559 C   0  0  0  0  0  0  0  0  0  0  0  0
  4  5  1  0  0  0
  5  8  1  0  0  0
  5  1  1  0  0  0
  8  9  1  0  0  0
  9 10  2  0  0  0
  9 11  1  0  0  0
 10 12  1  0  0  0
 11 13  2  0  0  0
 12 14  2  0  0  0
 13 14  1  0  0  0
  1  2  1  0  0  0
  1 15  1  0  0  0
 15 16  2  0  0  0
 15 17  1  0  0  0
 17 19  1  0  0  0
 19 24  1  0  0  0
 19 20  1  0  0  0
 24 25  1  0  0  0
 25 26  1  0  0  0
 25 27  1  0  0  0
 20 21  1  0  0  0
 20 22  2  0  0  0
  4  6  1  0  0  0
  4  7  1  0  0  0
  2  3  1  0  0  0
 17 18  1  0  0  0
 21 23  1  0  0  0
M  END
> <minimizedAffinity>
-9.05125

$$$$
3EBH_BES_A_1085


 27 27  0  0  0  0  0  0  0  0999 V2000
   16.4670   10.2873   10.7642 C   0  0  0  0  0  0  0  0  0  0  0  0
   17.0710   11.5609   11.0050 O   0  0  0  0  0  0  0  0  0  0  0  0
   16.9700   11.7949   11.9409 H   0  0  0  0  0  0  0  0  0  0  0  0
   18.5587    9.3417   11.6908 N   0  0  0  0  0  0  0  0  0  0  0  0
   17.1191    9.1541   11.5613 C   0  0  0  0  0  0  0  0  0  0  0  0
   18.9555    8.5694   12.2260 H   0  0  0  0  0  0  0  0  0  0  0  0
   18.7450   10.2209   12.1734 H   0  0  0  0  0  0  0  0  0  0  0  0
   16.8303    7.8254   10.8675 C   0  0  0  0  0  0  0  0  0  0  0  0
   16.1734    6.7811   11.7490 C   0  0  0  0  0  0  0  0  0  0  0  0
   15.5954    7.1816   12.9553 C   0  0  0  0  0  0  0  0  0  0  0  0
   16.1702    5.4272   11.3930 C   0  0  0  0  0  0  0  0  0  0  0  0
   14.9997    6.2350   13.7927 C   0  0  0  0  0  0  0  0  0  0  0  0
   15.5734    4.4773   12.2331 C   0  0  0  0  0  0  0  0  0  0  0  0
   14.9847    4.8880   13.4308 C   0  0  0  0  0  0  0  0  0  0  0  0
   15.0346   10.4061   11.1758 C   0  0  0  0  0  0  0  0  0  0  0  0
   14.1595    9.8998   10.4943 O   0  0  0  0  0  0  0  0  0  0  0  0
   14.8257   11.0659   12.3028 N   0  0  0  0  0  0  0  0  0  0  0  0
   15.6108   11.4069   12.7892 H   0  0  0  0  0  0  0  0  0  0  0  0
   13.5093   11.3203   12.8703 C   0  0  0  0  0  0  0  0  0  0  0  0
   12.8654   12.3290   11.9729 C   0  0  0  0  0  0  0  0  0  0  0  0
   12.1944   11.9715   10.9779 O   0  0  0  0  0  0  0  0  0  0  0  0
   13.0646   13.5208   12.2675 O   0  0  0  0  0  0  0  0  0  0  0  0
   12.0726   11.0601   10.7979 H   0  0  0  0  0  0  0  0  0  0  0  0
   13.7401   11.8860   14.2721 C   0  0  0  0  0  0  0  0  0  0  0  0
   12.7648   11.3684   15.3358 C   0  0  0  0  0  0  0  0  0  0  0  0
   13.3724   10.3920   16.3412 C   0  0  0  0  0  0  0  0  0  0  0  0
   12.1210   12.5210   16.0925 C   0  0  0  0  0  0  0  0  0  0  0  0
  4  5  1  0  0  0
  5  8  1  0  0  0
  5  1  1  0  0  0
  8  9  1  0  0  0
  9 10  2  0  0  0
  9 11  1  0  0  0
 10 12  1  0  0  0
 11 13  2  0  0  0
 12 14  2  0  0  0
 13 14  1  0  0  0
  1  2  1  0  0  0
  1 15  1  0  0  0
 15 16  2  0  0  0
 15 17  1  0  0  0
 17 19  1  0  0  0
 19 24  1  0  0  0
 19 20  1  0  0  0
 24 25  1  0  0  0
 25 26  1  0  0  0
 25 27  1  0  0  0
 20 21  1  0  0  0
 20 22  2  0  0  0
  4  6  1  0  0  0
  4  7  1  0  0  0
  2  3  1  0  0  0
 17 18  1  0  0  0
 21 23  1  0  0  0
M  END
> <minimizedAffinity>
-8.67092

$$$$
3EBH_BES_A_1085


 27 27  0  0  0  0  0  0  0  0999 V2000
   16.8553   10.4822   12.1084 C   0  0  0  0  0  0  0  0  0  0  0  0
   16.4080   11.5877   11.3193 O   0  0  0  0  0  0  0  0  0  0  0  0
   15.7772   11.2746   10.6522 H   0  0  0  0  0  0  0  0  0  0  0  0
   15.4637    8.4530   12.3805 N   0  0  0  0  0  0  0  0  0  0  0  0
   15.7225    9.7982   12.8787 C   0  0  0  0  0  0  0  0  0  0  0  0
   14.7053    8.0318   12.9170 H   0  0  0  0  0  0  0  0  0  0  0  0
   16.3058    7.8860   12.4792 H   0  0  0  0  0  0  0  0  0  0  0  0
   14.4579   10.6454   12.7635 C   0  0  0  0  0  0  0  0  0  0  0  0
   13.8303   11.0288   14.0895 C   0  0  0  0  0  0  0  0  0  0  0  0
   13.8032   10.0886   15.1215 C   0  0  0  0  0  0  0  0  0  0  0  0
   13.2491   12.2878   14.2816 C   0  0  0  0  0  0  0  0  0  0  0  0
   13.2146   10.4127   16.3464 C   0  0  0  0  0  0  0  0  0  0  0  0
   12.6580   12.6130   15.5100 C   0  0  0  0  0  0  0  0  0  0  0  0
   12.6479   11.6722   16.5417 C   0  0  0  0  0  0  0  0  0  0  0  0
   17.4612    9.4958   11.1622 C   0  0  0  0  0  0  0  0  0  0  0  0
   18.3659    8.7685   11.5352 O   0  0  0  0  0  0  0  0  0  0  0  0
   16.9329    9.4811    9.9499 N   0  0  0  0  0  0  0  0  0  0  0  0
   16.1832   10.0924    9.7667 H   0  0  0  0  0  0  0  0  0  0  0  0
   17.3889    8.6191    8.8689 C   0  0  0  0  0  0  0  0  0  0  0  0
   17.5567    9.5099    7.6790 C   0  0  0  0  0  0  0  0  0  0  0  0
   17.8915    9.0430    6.5663 O   0  0  0  0  0  0  0  0  0  0  0  0
   17.3692   10.7228    7.8801 O   0  0  0  0  0  0  0  0  0  0  0  0
   18.0210    8.1206    6.4650 H   0  0  0  0  0  0  0  0  0  0  0  0
   16.2864    7.5842    8.6411 C   0  0  0  0  0  0  0  0  0  0  0  0
   16.6996    6.1382    8.9391 C   0  0  0  0  0  0  0  0  0  0  0  0
   16.5293    5.7103   10.3955 C   0  0  0  0  0  0  0  0  0  0  0  0
   15.9493    5.1614    8.0455 C   0  0  0  0  0  0  0  0  0  0  0  0
  4  5  1  0  0  0
  5  8  1  0  0  0
  5  1  1  0  0  0
  8  9  1  0  0  0
  9 10  2  0  0  0
  9 11  1  0  0  0
 10 12  1  0  0  0
 11 13  2  0  0  0
 12 14  2  0  0  0
 13 14  1  0  0  0
  1  2  1  0  0  0
  1 15  1  0  0  0
 15 16  2  0  0  0
 15 17  1  0  0  0
 17 19  1  0  0  0
 19 24  1  0  0  0
 19 20  1  0  0  0
 24 25  1  0  0  0
 25 26  1  0  0  0
 25 27  1  0  0  0
 20 21  1  0  0  0
 20 22  2  0  0  0
  4  6  1  0  0  0
  4  7  1  0  0  0
  2  3  1  0  0  0
 17 18  1  0  0  0
 21 23  1  0  0  0
M  END
> <minimizedAffinity>
-8.55374

$$$$
3EBH_BES_A_1085


 27 27  0  0  0  0  0  0  0  0999 V2000
   15.6604   10.6351   12.2944 C   0  0  0  0  0  0  0  0  0  0  0  0
   16.2499   11.5078   11.3271 O   0  0  0  0  0  0  0  0  0  0  0  0
   15.9729   11.2385   10.4374 H   0  0  0  0  0  0  0  0  0  0  0  0
   13.5955   10.8116   10.9405 N   0  0  0  0  0  0  0  0  0  0  0  0
   14.1299   10.6820   12.2904 C   0  0  0  0  0  0  0  0  0  0  0  0
   12.5766   10.8393   10.9795 H   0  0  0  0  0  0  0  0  0  0  0  0
   13.8927   10.0136   10.3791 H   0  0  0  0  0  0  0  0  0  0  0  0
   13.6643   11.8567   13.1469 C   0  0  0  0  0  0  0  0  0  0  0  0
   13.2707   11.4894   14.5644 C   0  0  0  0  0  0  0  0  0  0  0  0
   12.4680   12.3698   15.2926 C   0  0  0  0  0  0  0  0  0  0  0  0
   13.7263   10.3086   15.1624 C   0  0  0  0  0  0  0  0  0  0  0  0
   12.1067   12.0615   16.6065 C   0  0  0  0  0  0  0  0  0  0  0  0
   13.3648    9.9993   16.4807 C   0  0  0  0  0  0  0  0  0  0  0  0
   12.5499   10.8781   17.1972 C   0  0  0  0  0  0  0  0  0  0  0  0
   16.1027    9.2492   11.9493 C   0  0  0  0  0  0  0  0  0  0  0  0
   16.3169    8.4385   12.8344 O   0  0  0  0  0  0  0  0  0  0  0  0
   16.2155    9.0004   10.6553 N   0  0  0  0  0  0  0  0  0  0  0  0
   15.9868    9.7219   10.0258 H   0  0  0  0  0  0  0  0  0  0  0  0
   16.6561    7.7278   10.1020 C   0  0  0  0  0  0  0  0  0  0  0  0
   18.1467    7.8150   10.0130 C   0  0  0  0  0  0  0  0  0  0  0  0
   18.7026    8.7706    9.4250 O   0  0  0  0  0  0  0  0  0  0  0  0
   18.7758    6.8756   10.5314 O   0  0  0  0  0  0  0  0  0  0  0  0
   18.1843    9.4554    9.0502 H   0  0  0  0  0  0  0  0  0  0  0  0
   16.0194    7.6102    8.7166 C   0  0  0  0  0  0  0  0  0  0  0  0
   16.5340    6.4348    7.8775 C   0  0  0  0  0  0  0  0  0  0  0  0
   15.9060    5.0838    8.2144 C   0  0  0  0  0  0  0  0  0  0  0  0
   16.3554    6.7065    6.3909 C   0  0  0  0  0  0  0  0  0  0  0  0
  4  5  1  0  0  0
  5  8  1  0  0  0
  5  1  1  0  0  0
  8  9  1  0  0  0
  9 10  2  0  0  0
  9 11  1  0  0  0
 10 12  1  0  0  0
 11 13  2  0  0  0
 12 14  2  0  0  0
 13 14  1  0  0  0
  1  2  1  0  0  0
  1 15  1  0  0  0
 15 16  2  0  0  0
 15 17  1  0  0  0
 17 19  1  0  0  0
 19 24  1  0  0  0
 19 20  1  0  0  0
 24 25  1  0  0  0
 25 26  1  0  0  0
 25 27  1  0  0  0
 20 21  1  0  0  0
 20 22  2  0  0  0
  4  6  1  0  0  0
  4  7  1  0  0  0
  2  3  1  0  0  0
 17 18  1  0  0  0
 21 23  1  0  0  0
M  END
> <minimizedAffinity>
-8.50054

$$$$
3EBH_BES_A_1085


 27 27  0  0  0  0  0  0  0  0999 V2000
   17.5992   10.1536   10.4005 C   0  0  0  0  0  0  0  0  0  0  0  0
   17.6461   11.2291    9.4592 O   0  0  0  0  0  0  0  0  0  0  0  0
   16.9990   11.0702    8.7542 H   0  0  0  0  0  0  0  0  0  0  0  0
   15.4686   11.2547   11.0138 N   0  0  0  0  0  0  0  0  0  0  0  0
   16.2390   10.0197   11.0907 C   0  0  0  0  0  0  0  0  0  0  0  0
   14.5722   11.1260   11.4830 H   0  0  0  0  0  0  0  0  0  0  0  0
   15.3088   11.4954   10.0355 H   0  0  0  0  0  0  0  0  0  0  0  0
   16.4564    9.6350   12.5519 C   0  0  0  0  0  0  0  0  0  0  0  0
   15.9016    8.2777   12.9380 C   0  0  0  0  0  0  0  0  0  0  0  0
   15.1683    8.1588   14.1204 C   0  0  0  0  0  0  0  0  0  0  0  0
   16.1427    7.1439   12.1532 C   0  0  0  0  0  0  0  0  0  0  0  0
   14.6620    6.9151   14.5062 C   0  0  0  0  0  0  0  0  0  0  0  0
   15.6356    5.8960   12.5403 C   0  0  0  0  0  0  0  0  0  0  0  0
   14.8910    5.7883   13.7165 C   0  0  0  0  0  0  0  0  0  0  0  0
   17.8788    8.9000    9.6353 C   0  0  0  0  0  0  0  0  0  0  0  0
   18.7398    8.1280   10.0217 O   0  0  0  0  0  0  0  0  0  0  0  0
   17.1260    8.7150    8.5638 N   0  0  0  0  0  0  0  0  0  0  0  0
   16.4382    9.3898    8.3619 H   0  0  0  0  0  0  0  0  0  0  0  0
   17.2491    7.5773    7.6637 C   0  0  0  0  0  0  0  0  0  0  0  0
   17.4771    8.1555    6.3031 C   0  0  0  0  0  0  0  0  0  0  0  0
   16.7625    7.8188    5.3315 O   0  0  0  0  0  0  0  0  0  0  0  0
   18.4241    8.9559    6.2069 O   0  0  0  0  0  0  0  0  0  0  0  0
   16.0597    7.2114    5.4550 H   0  0  0  0  0  0  0  0  0  0  0  0
   15.9226    6.8196    7.7338 C   0  0  0  0  0  0  0  0  0  0  0  0
   16.0593    5.3249    8.0463 C   0  0  0  0  0  0  0  0  0  0  0  0
   16.4628    4.4559    6.8566 C   0  0  0  0  0  0  0  0  0  0  0  0
   17.0427    5.0933    9.1842 C   0  0  0  0  0  0  0  0  0  0  0  0
  4  5  1  0  0  0
  5  8  1  0  0  0
  5  1  1  0  0  0
  8  9  1  0  0  0
  9 10  2  0  0  0
  9 11  1  0  0  0
 10 12  1  0  0  0
 11 13  2  0  0  0
 12 14  2  0  0  0
 13 14  1  0  0  0
  1  2  1  0  0  0
  1 15  1  0  0  0
 15 16  2  0  0  0
 15 17  1  0  0  0
 17 19  1  0  0  0
 19 24  1  0  0  0
 19 20  1  0  0  0
 24 25  1  0  0  0
 25 26  1  0  0  0
 25 27  1  0  0  0
 20 21  1  0  0  0
 20 22  2  0  0  0
  4  6  1  0  0  0
  4  7  1  0  0  0
  2  3  1  0  0  0
 17 18  1  0  0  0
 21 23  1  0  0  0
M  END
> <minimizedAffinity>
-8.33309

$$$$
3EBH_BES_A_1085


 27 27  0  0  0  0  0  0  0  0999 V2000
   16.2637   10.6722   12.2267 C   0  0  0  0  0  0  0  0  0  0  0  0
   16.7614   11.3881   11.0933 O   0  0  0  0  0  0  0  0  0  0  0  0
   16.6368   10.8540   10.2932 H   0  0  0  0  0  0  0  0  0  0  0  0
   14.3270   10.1995   10.7593 N   0  0  0  0  0  0  0  0  0  0  0  0
   14.7638   10.3775   12.1384 C   0  0  0  0  0  0  0  0  0  0  0  0
   13.3257   10.0056   10.7421 H   0  0  0  0  0  0  0  0  0  0  0  0
   14.8318    9.4181   10.3409 H   0  0  0  0  0  0  0  0  0  0  0  0
   13.9908   11.5255   12.7825 C   0  0  0  0  0  0  0  0  0  0  0  0
   13.5813   11.2833   14.2222 C   0  0  0  0  0  0  0  0  0  0  0  0
   13.9172   10.0696   14.8254 C   0  0  0  0  0  0  0  0  0  0  0  0
   12.8455   12.2347   14.9385 C   0  0  0  0  0  0  0  0  0  0  0  0
   13.5356    9.8164   16.1453 C   0  0  0  0  0  0  0  0  0  0  0  0
   12.4618   11.9808   16.2623 C   0  0  0  0  0  0  0  0  0  0  0  0
   12.8142   10.7705   16.8630 C   0  0  0  0  0  0  0  0  0  0  0  0
   17.0089    9.3770   12.2782 C   0  0  0  0  0  0  0  0  0  0  0  0
   17.8490    9.1900   13.1418 O   0  0  0  0  0  0  0  0  0  0  0  0
   16.6702    8.4956   11.3522 N   0  0  0  0  0  0  0  0  0  0  0  0
   15.9549    8.7415   10.7219 H   0  0  0  0  0  0  0  0  0  0  0  0
   17.2872    7.1851   11.2050 C   0  0  0  0  0  0  0  0  0  0  0  0
   17.9138    7.1787    9.8468 C   0  0  0  0  0  0  0  0  0  0  0  0
   18.8380    6.3814    9.5670 O   0  0  0  0  0  0  0  0  0  0  0  0
   17.4763    8.0227    9.0449 O   0  0  0  0  0  0  0  0  0  0  0  0
   19.1330    5.7631   10.2064 H   0  0  0  0  0  0  0  0  0  0  0  0
   16.1589    6.1577   11.3048 C   0  0  0  0  0  0  0  0  0  0  0  0
   15.9295    5.5993   12.7141 C   0  0  0  0  0  0  0  0  0  0  0  0
   15.0689    6.4786   13.6194 C   0  0  0  0  0  0  0  0  0  0  0  0
   15.3225    4.2051   12.6562 C   0  0  0  0  0  0  0  0  0  0  0  0
  4  5  1  0  0  0
  5  8  1  0  0  0
  5  1  1  0  0  0
  8  9  1  0  0  0
  9 10  2  0  0  0
  9 11  1  0  0  0
 10 12  1  0  0  0
 11 13  2  0  0  0
 12 14  2  0  0  0
 13 14  1  0  0  0
  1  2  1  0  0  0
  1 15  1  0  0  0
 15 16  2  0  0  0
 15 17  1  0  0  0
 17 19  1  0  0  0
 19 24  1  0  0  0
 19 20  1  0  0  0
 24 25  1  0  0  0
 25 26  1  0  0  0
 25 27  1  0  0  0
 20 21  1  0  0  0
 20 22  2  0  0  0
  4  6  1  0  0  0
  4  7  1  0  0  0
  2  3  1  0  0  0
 17 18  1  0  0  0
 21 23  1  0  0  0
M  END
> <minimizedAffinity>
-8.00144

$$$$
3EBH_BES_A_1085


 27 27  0  0  0  0  0  0  0  0999 V2000
   15.4755    7.8649   14.0460 C   0  0  0  0  0  0  0  0  0  0  0  0
   14.3048    8.3494   14.7090 O   0  0  0  0  0  0  0  0  0  0  0  0
   13.6349    8.5881   14.0493 H   0  0  0  0  0  0  0  0  0  0  0  0
   14.6428    5.5337   14.0313 N   0  0  0  0  0  0  0  0  0  0  0  0
   15.2177    6.6007   13.2215 C   0  0  0  0  0  0  0  0  0  0  0  0
   14.4861    4.7114   13.4486 H   0  0  0  0  0  0  0  0  0  0  0  0
   13.7549    5.8460   14.4244 H   0  0  0  0  0  0  0  0  0  0  0  0
   16.5322    6.1310   12.6037 C   0  0  0  0  0  0  0  0  0  0  0  0
   16.4127    5.6035   11.1871 C   0  0  0  0  0  0  0  0  0  0  0  0
   16.5445    6.4951   10.1206 C   0  0  0  0  0  0  0  0  0  0  0  0
   16.1375    4.2544   10.9347 C   0  0  0  0  0  0  0  0  0  0  0  0
   16.4208    6.0358    8.8069 C   0  0  0  0  0  0  0  0  0  0  0  0
   16.0126    3.7935    9.6170 C   0  0  0  0  0  0  0  0  0  0  0  0
   16.1602    4.6887    8.5557 C   0  0  0  0  0  0  0  0  0  0  0  0
   15.9330    8.9546   13.1302 C   0  0  0  0  0  0  0  0  0  0  0  0
   17.0871    9.3450   13.1746 O   0  0  0  0  0  0  0  0  0  0  0  0
   15.0125    9.4154   12.2999 N   0  0  0  0  0  0  0  0  0  0  0  0
   14.1182    9.0046   12.3295 H   0  0  0  0  0  0  0  0  0  0  0  0
   15.2367   10.4912   11.3448 C   0  0  0  0  0  0  0  0  0  0  0  0
   13.9624   11.2735   11.3037 C   0  0  0  0  0  0  0  0  0  0  0  0
   13.6226   11.8986   10.2733 O   0  0  0  0  0  0  0  0  0  0  0  0
   13.2959   11.2777   12.3537 O   0  0  0  0  0  0  0  0  0  0  0  0
   14.1594   11.8640    9.5060 H   0  0  0  0  0  0  0  0  0  0  0  0
   15.5279    9.8263    9.9988 C   0  0  0  0  0  0  0  0  0  0  0  0
   16.7932   10.3349    9.2983 C   0  0  0  0  0  0  0  0  0  0  0  0
   18.0450   10.3571   10.1734 C   0  0  0  0  0  0  0  0  0  0  0  0
   17.0826    9.5277    8.0412 C   0  0  0  0  0  0  0  0  0  0  0  0
  4  5  1  0  0  0
  5  8  1  0  0  0
  5  1  1  0  0  0
  8  9  1  0  0  0
  9 10  2  0  0  0
  9 11  1  0  0  0
 10 12  1  0  0  0
 11 13  2  0  0  0
 12 14  2  0  0  0
 13 14  1  0  0  0
  1  2  1  0  0  0
  1 15  1  0  0  0
 15 16  2  0  0  0
 15 17  1  0  0  0
 17 19  1  0  0  0
 19 24  1  0  0  0
 19 20  1  0  0  0
 24 25  1  0  0  0
 25 26  1  0  0  0
 25 27  1  0  0  0
 20 21  1  0  0  0
 20 22  2  0  0  0
  4  6  1  0  0  0
  4  7  1  0  0  0
  2  3  1  0  0  0
 17 18  1  0  0  0
 21 23  1  0  0  0
M  END
> <minimizedAffinity>
-7.86623

$$$$
3EBH_BES_A_1085


 27 27  0  0  0  0  0  0  0  0999 V2000
   17.6995    9.8049   10.3063 C   0  0  0  0  0  0  0  0  0  0  0  0
   17.4946   10.8716    9.3763 O   0  0  0  0  0  0  0  0  0  0  0  0
   16.7535   10.6518    8.7902 H   0  0  0  0  0  0  0  0  0  0  0  0
   16.1224    8.1531   11.2615 N   0  0  0  0  0  0  0  0  0  0  0  0
   16.4921    9.5623   11.2162 C   0  0  0  0  0  0  0  0  0  0  0  0
   15.3170    8.0325   11.8757 H   0  0  0  0  0  0  0  0  0  0  0  0
   16.9068    7.6072   11.6182 H   0  0  0  0  0  0  0  0  0  0  0  0
   15.3132   10.3910   10.7126 C   0  0  0  0  0  0  0  0  0  0  0  0
   14.4026   10.9230   11.8021 C   0  0  0  0  0  0  0  0  0  0  0  0
   13.3333   11.7476   11.4464 C   0  0  0  0  0  0  0  0  0  0  0  0
   14.6371   10.6330   13.1514 C   0  0  0  0  0  0  0  0  0  0  0  0
   12.4909   12.2641   12.4341 C   0  0  0  0  0  0  0  0  0  0  0  0
   13.7928   11.1516   14.1425 C   0  0  0  0  0  0  0  0  0  0  0  0
   12.7171   11.9635   13.7773 C   0  0  0  0  0  0  0  0  0  0  0  0
   17.9515    8.5724    9.4982 C   0  0  0  0  0  0  0  0  0  0  0  0
   18.7526    7.7401    9.8880 O   0  0  0  0  0  0  0  0  0  0  0  0
   17.2426    8.4739    8.3861 N   0  0  0  0  0  0  0  0  0  0  0  0
   16.6004    9.1923    8.1840 H   0  0  0  0  0  0  0  0  0  0  0  0
   17.3508    7.3713    7.4416 C   0  0  0  0  0  0  0  0  0  0  0  0
   17.4865    8.0013    6.0917 C   0  0  0  0  0  0  0  0  0  0  0  0
   18.1452    9.0548    5.9353 O   0  0  0  0  0  0  0  0  0  0  0  0
   16.8880    7.4283    5.1643 O   0  0  0  0  0  0  0  0  0  0  0  0
   18.5790    9.4490    6.6663 H   0  0  0  0  0  0  0  0  0  0  0  0
   16.0538    6.5694    7.5562 C   0  0  0  0  0  0  0  0  0  0  0  0
   16.2512    5.0539    7.6780 C   0  0  0  0  0  0  0  0  0  0  0  0
   17.5534    4.5272    7.0780 C   0  0  0  0  0  0  0  0  0  0  0  0
   16.1589    4.6069    9.1296 C   0  0  0  0  0  0  0  0  0  0  0  0
  4  5  1  0  0  0
  5  8  1  0  0  0
  5  1  1  0  0  0
  8  9  1  0  0  0
  9 10  2  0  0  0
  9 11  1  0  0  0
 10 12  1  0  0  0
 11 13  2  0  0  0
 12 14  2  0  0  0
 13 14  1  0  0  0
  1  2  1  0  0  0
  1 15  1  0  0  0
 15 16  2  0  0  0
 15 17  1  0  0  0
 17 19  1  0  0  0
 19 24  1  0  0  0
 19 20  1  0  0  0
 24 25  1  0  0  0
 25 26  1  0  0  0
 25 27  1  0  0  0
 20 21  1  0  0  0
 20 22  2  0  0  0
  4  6  1  0  0  0
  4  7  1  0  0  0
  2  3  1  0  0  0
 17 18  1  0  0  0
 21 23  1  0  0  0
M  END
> <minimizedAffinity>
-7.82088

$$$$
