5CKS_52L_B_402


 26 25  0  0  0  0  0  0  0  0999 V2000
   42.6118 -403.5499   16.4406 C   0  0  0  0  0  0  0  0  0  0  0  0
   43.2675 -403.9824   17.6500 O   0  0  0  0  0  0  0  0  0  0  0  0
   44.2159 -404.0960   17.4807 H   0  0  0  0  0  0  0  0  0  0  0  0
   42.7553 -404.6377   15.3635 C   0  0  0  0  0  0  0  0  0  0  0  0
   42.5806 -404.0992   14.0415 O   0  0  0  0  0  0  0  0  0  0  0  0
   41.6821 -403.7444   13.9530 H   0  0  0  0  0  0  0  0  0  0  0  0
   41.7579 -405.7817   15.5902 C   0  0  0  0  0  0  0  0  0  0  0  0
   42.1242 -406.5447   16.7515 O   0  0  0  0  0  0  0  0  0  0  0  0
   42.5865 -408.0968   16.6592 P   0  0  0  0  0  0  0  0  0  0  0  0
   43.1344 -408.4165   18.0403 O   0  0  0  0  0  0  0  0  0  0  0  0
   41.3280 -408.8585   16.2996 O   0  0  0  0  0  0  0  0  0  0  0  0
   43.6405 -408.0622   15.5704 O   0  0  0  0  0  0  0  0  0  0  0  0
   43.9360 -407.8939   18.1991 H   0  0  0  0  0  0  0  0  0  0  0  0
   41.0391 -408.6038   15.4094 H   0  0  0  0  0  0  0  0  0  0  0  0
   43.1655 -402.1808   16.0197 C   0  0  0  0  0  0  0  0  0  0  0  0
   44.6013 -402.2291   15.8712 O   0  0  0  0  0  0  0  0  0  0  0  0
   45.0070 -402.4559   16.7227 H   0  0  0  0  0  0  0  0  0  0  0  0
   42.7840 -401.1013   17.0440 C   0  0  0  0  0  0  0  0  0  0  0  0
   44.4880 -399.4514   16.8701 N   0  0  0  0  0  0  0  0  0  0  0  0
   44.0332 -400.4092   17.5616 C   0  0  0  0  0  0  0  0  0  0  0  0
   43.8509 -399.0392   15.6899 O   0  0  0  0  0  0  0  0  0  0  0  0
   44.2027 -398.3281   15.1914 H   0  0  0  0  0  0  0  0  0  0  0  0
   44.7523 -400.8000   18.7979 C   0  0  0  0  0  0  0  0  0  0  0  0
   44.8448 -402.0124   19.1127 O   0  0  0  0  0  0  0  0  0  0  0  0
   45.2789 -399.9126   19.5212 O   0  0  0  0  0  0  0  0  0  0  0  0
   44.4515 -402.6684   18.5715 H   0  0  0  0  0  0  0  0  0  0  0  0
 25 23  2  0  0  0
 24 23  1  0  0  0
 23 20  1  0  0  0
 16 15  1  0  0  0
 20 19  2  0  0  0
 20 18  1  0  0  0
 19 21  1  0  0  0
 15 18  1  0  0  0
 15  1  1  0  0  0
  5  4  1  0  0  0
  4  1  1  0  0  0
  4  7  1  0  0  0
  1  2  1  0  0  0
  8  7  1  0  0  0
  8  9  1  0  0  0
 12  9  2  0  0  0
  9 11  1  0  0  0
  9 10  1  0  0  0
 24 26  1  0  0  0
 21 22  1  0  0  0
 16 17  1  0  0  0
  2  3  1  0  0  0
  5  6  1  0  0  0
 10 13  1  0  0  0
 11 14  1  0  0  0
M  END
> <minimizedAffinity>
-7.89864

$$$$
5CKS_52L_B_402


 26 25  0  0  0  0  0  0  0  0999 V2000
   41.7733 -405.8514   16.0286 C   0  0  0  0  0  0  0  0  0  0  0  0
   40.3883 -405.7926   15.6309 O   0  0  0  0  0  0  0  0  0  0  0  0
   40.3318 -405.7326   14.6644 H   0  0  0  0  0  0  0  0  0  0  0  0
   42.4815 -404.5523   15.6106 C   0  0  0  0  0  0  0  0  0  0  0  0
   42.5167 -404.4058   14.1804 O   0  0  0  0  0  0  0  0  0  0  0  0
   43.0293 -405.1328   13.7935 H   0  0  0  0  0  0  0  0  0  0  0  0
   43.9089 -404.4905   16.1705 C   0  0  0  0  0  0  0  0  0  0  0  0
   43.9456 -403.6935   17.3656 O   0  0  0  0  0  0  0  0  0  0  0  0
   45.0280 -402.5050   17.5826 P   0  0  0  0  0  0  0  0  0  0  0  0
   44.8243 -402.0588   19.0212 O   0  0  0  0  0  0  0  0  0  0  0  0
   46.3730 -403.1483   17.3174 O   0  0  0  0  0  0  0  0  0  0  0  0
   44.6010 -401.4786   16.5522 O   0  0  0  0  0  0  0  0  0  0  0  0
   43.9457 -401.6586   19.1142 H   0  0  0  0  0  0  0  0  0  0  0  0
   46.4299 -403.4056   16.3839 H   0  0  0  0  0  0  0  0  0  0  0  0
   42.4166 -407.1228   15.4557 C   0  0  0  0  0  0  0  0  0  0  0  0
   41.6777 -407.6038   14.3119 O   0  0  0  0  0  0  0  0  0  0  0  0
   40.7752 -407.8334   14.5833 H   0  0  0  0  0  0  0  0  0  0  0  0
   42.4945 -408.2226   16.5254 C   0  0  0  0  0  0  0  0  0  0  0  0
   44.0299 -408.3882   18.3340 N   0  0  0  0  0  0  0  0  0  0  0  0
   43.9071 -408.3149   17.0763 C   0  0  0  0  0  0  0  0  0  0  0  0
   42.9070 -408.4036   19.1751 O   0  0  0  0  0  0  0  0  0  0  0  0
   43.0181 -408.4583   20.1039 H   0  0  0  0  0  0  0  0  0  0  0  0
   45.1315 -408.3002   16.2402 C   0  0  0  0  0  0  0  0  0  0  0  0
   45.3547 -409.2410   15.4386 O   0  0  0  0  0  0  0  0  0  0  0  0
   45.9373 -407.3355   16.3296 O   0  0  0  0  0  0  0  0  0  0  0  0
   44.7523 -409.9560   15.3760 H   0  0  0  0  0  0  0  0  0  0  0  0
 25 23  2  0  0  0
 24 23  1  0  0  0
 23 20  1  0  0  0
 16 15  1  0  0  0
 20 19  2  0  0  0
 20 18  1  0  0  0
 19 21  1  0  0  0
 15 18  1  0  0  0
 15  1  1  0  0  0
  5  4  1  0  0  0
  4  1  1  0  0  0
  4  7  1  0  0  0
  1  2  1  0  0  0
  8  7  1  0  0  0
  8  9  1  0  0  0
 12  9  2  0  0  0
  9 11  1  0  0  0
  9 10  1  0  0  0
 24 26  1  0  0  0
 21 22  1  0  0  0
 16 17  1  0  0  0
  2  3  1  0  0  0
  5  6  1  0  0  0
 10 13  1  0  0  0
 11 14  1  0  0  0
M  END
> <minimizedAffinity>
-7.74645

$$$$
5CKS_52L_B_402


 26 25  0  0  0  0  0  0  0  0999 V2000
   42.8690 -404.1833   15.7474 C   0  0  0  0  0  0  0  0  0  0  0  0
   42.6776 -404.1484   14.3185 O   0  0  0  0  0  0  0  0  0  0  0  0
   43.3853 -404.6506   13.8851 H   0  0  0  0  0  0  0  0  0  0  0  0
   44.1982 -403.4968   16.1026 C   0  0  0  0  0  0  0  0  0  0  0  0
   44.8768 -404.1793   17.1713 O   0  0  0  0  0  0  0  0  0  0  0  0
   44.3310 -404.1485   17.9726 H   0  0  0  0  0  0  0  0  0  0  0  0
   43.9815 -402.0267   16.4853 C   0  0  0  0  0  0  0  0  0  0  0  0
   45.2229 -401.4236   16.8855 O   0  0  0  0  0  0  0  0  0  0  0  0
   45.4738 -400.8722   18.3903 P   0  0  0  0  0  0  0  0  0  0  0  0
   44.7195 -399.5539   18.4463 O   0  0  0  0  0  0  0  0  0  0  0  0
   44.9133 -401.9465   19.2985 O   0  0  0  0  0  0  0  0  0  0  0  0
   46.9814 -400.7226   18.4389 O   0  0  0  0  0  0  0  0  0  0  0  0
   45.1338 -398.9184   17.8418 H   0  0  0  0  0  0  0  0  0  0  0  0
   45.4431 -402.7541   19.2093 H   0  0  0  0  0  0  0  0  0  0  0  0
   42.7661 -405.6335   16.2422 C   0  0  0  0  0  0  0  0  0  0  0  0
   43.7384 -406.4733   15.5827 O   0  0  0  0  0  0  0  0  0  0  0  0
   43.5652 -406.4804   14.6283 H   0  0  0  0  0  0  0  0  0  0  0  0
   41.3534 -406.1894   16.0076 C   0  0  0  0  0  0  0  0  0  0  0  0
   41.7598 -408.4824   15.5250 N   0  0  0  0  0  0  0  0  0  0  0  0
   41.4085 -407.3644   15.0465 C   0  0  0  0  0  0  0  0  0  0  0  0
   42.0637 -408.6279   16.8870 O   0  0  0  0  0  0  0  0  0  0  0  0
   42.3220 -409.4637   17.2227 H   0  0  0  0  0  0  0  0  0  0  0  0
   41.1025 -407.2733   13.5986 C   0  0  0  0  0  0  0  0  0  0  0  0
   41.0806 -406.1527   13.0317 O   0  0  0  0  0  0  0  0  0  0  0  0
   40.8778 -408.3241   12.9404 O   0  0  0  0  0  0  0  0  0  0  0  0
   41.2483 -405.3744   13.5257 H   0  0  0  0  0  0  0  0  0  0  0  0
 25 23  2  0  0  0
 24 23  1  0  0  0
 23 20  1  0  0  0
 16 15  1  0  0  0
 20 19  2  0  0  0
 20 18  1  0  0  0
 19 21  1  0  0  0
 15 18  1  0  0  0
 15  1  1  0  0  0
  5  4  1  0  0  0
  4  1  1  0  0  0
  4  7  1  0  0  0
  1  2  1  0  0  0
  8  7  1  0  0  0
  8  9  1  0  0  0
 12  9  2  0  0  0
  9 11  1  0  0  0
  9 10  1  0  0  0
 24 26  1  0  0  0
 21 22  1  0  0  0
 16 17  1  0  0  0
  2  3  1  0  0  0
  5  6  1  0  0  0
 10 13  1  0  0  0
 11 14  1  0  0  0
M  END
> <minimizedAffinity>
-7.65795

$$$$
5CKS_52L_B_402


 26 25  0  0  0  0  0  0  0  0999 V2000
   42.6780 -403.6467   16.5796 C   0  0  0  0  0  0  0  0  0  0  0  0
   43.0707 -404.1750   17.8627 O   0  0  0  0  0  0  0  0  0  0  0  0
   44.0386 -404.1888   17.9242 H   0  0  0  0  0  0  0  0  0  0  0  0
   43.1921 -404.5734   15.4655 C   0  0  0  0  0  0  0  0  0  0  0  0
   42.5718 -404.2765   14.2025 O   0  0  0  0  0  0  0  0  0  0  0  0
   41.6165 -404.4313   14.2671 H   0  0  0  0  0  0  0  0  0  0  0  0
   42.9631 -406.0492   15.8180 C   0  0  0  0  0  0  0  0  0  0  0  0
   43.9953 -406.5211   16.6994 O   0  0  0  0  0  0  0  0  0  0  0  0
   44.3579 -408.0954   16.8460 P   0  0  0  0  0  0  0  0  0  0  0  0
   45.5523 -408.1279   17.7853 O   0  0  0  0  0  0  0  0  0  0  0  0
   43.1065 -408.7334   17.4118 O   0  0  0  0  0  0  0  0  0  0  0  0
   44.6838 -408.4923   15.4199 O   0  0  0  0  0  0  0  0  0  0  0  0
   46.3122 -407.7036   17.3569 H   0  0  0  0  0  0  0  0  0  0  0  0
   42.3907 -408.6753   16.7597 H   0  0  0  0  0  0  0  0  0  0  0  0
   43.1623 -402.1948   16.4540 C   0  0  0  0  0  0  0  0  0  0  0  0
   42.9319 -401.6881   15.1213 O   0  0  0  0  0  0  0  0  0  0  0  0
   43.4353 -402.2171   14.4828 H   0  0  0  0  0  0  0  0  0  0  0  0
   44.6548 -402.0871   16.8013 C   0  0  0  0  0  0  0  0  0  0  0  0
   44.9773 -400.9472   18.8635 N   0  0  0  0  0  0  0  0  0  0  0  0
   44.9131 -400.8244   17.6053 C   0  0  0  0  0  0  0  0  0  0  0  0
   44.8355 -402.1993   19.4806 O   0  0  0  0  0  0  0  0  0  0  0  0
   44.8860 -402.2702   20.4135 H   0  0  0  0  0  0  0  0  0  0  0  0
   45.0682 -399.4745   17.0121 C   0  0  0  0  0  0  0  0  0  0  0  0
   44.3116 -399.1091   16.0785 O   0  0  0  0  0  0  0  0  0  0  0  0
   45.9522 -398.6945   17.4572 O   0  0  0  0  0  0  0  0  0  0  0  0
   43.6559 -399.6929   15.7511 H   0  0  0  0  0  0  0  0  0  0  0  0
 25 23  2  0  0  0
 24 23  1  0  0  0
 23 20  1  0  0  0
 16 15  1  0  0  0
 20 19  2  0  0  0
 20 18  1  0  0  0
 19 21  1  0  0  0
 15 18  1  0  0  0
 15  1  1  0  0  0
  5  4  1  0  0  0
  4  1  1  0  0  0
  4  7  1  0  0  0
  1  2  1  0  0  0
  8  7  1  0  0  0
  8  9  1  0  0  0
 12  9  2  0  0  0
  9 11  1  0  0  0
  9 10  1  0  0  0
 24 26  1  0  0  0
 21 22  1  0  0  0
 16 17  1  0  0  0
  2  3  1  0  0  0
  5  6  1  0  0  0
 10 13  1  0  0  0
 11 14  1  0  0  0
M  END
> <minimizedAffinity>
-7.48414

$$$$
5CKS_52L_B_402


 26 25  0  0  0  0  0  0  0  0999 V2000
   42.7882 -404.6319   16.3973 C   0  0  0  0  0  0  0  0  0  0  0  0
   42.1153 -403.6729   15.5564 O   0  0  0  0  0  0  0  0  0  0  0  0
   42.3641 -403.8235   14.6310 H   0  0  0  0  0  0  0  0  0  0  0  0
   44.3083 -404.4250   16.2948 C   0  0  0  0  0  0  0  0  0  0  0  0
   45.0319 -405.5224   16.8781 O   0  0  0  0  0  0  0  0  0  0  0  0
   44.8273 -405.5779   17.8246 H   0  0  0  0  0  0  0  0  0  0  0  0
   44.7382 -403.1114   16.9616 C   0  0  0  0  0  0  0  0  0  0  0  0
   44.3242 -401.9867   16.1688 O   0  0  0  0  0  0  0  0  0  0  0  0
   43.6039 -400.6862   16.8178 P   0  0  0  0  0  0  0  0  0  0  0  0
   42.1395 -400.8291   16.4372 O   0  0  0  0  0  0  0  0  0  0  0  0
   43.8715 -400.7927   18.3045 O   0  0  0  0  0  0  0  0  0  0  0  0
   44.3118 -399.5382   16.1260 O   0  0  0  0  0  0  0  0  0  0  0  0
   42.0463 -400.7504   15.4749 H   0  0  0  0  0  0  0  0  0  0  0  0
   44.8220 -400.6923   18.4700 H   0  0  0  0  0  0  0  0  0  0  0  0
   42.3269 -406.0493   16.0275 C   0  0  0  0  0  0  0  0  0  0  0  0
   43.2800 -406.6892   15.1512 O   0  0  0  0  0  0  0  0  0  0  0  0
   43.3509 -406.1836   14.3263 H   0  0  0  0  0  0  0  0  0  0  0  0
   40.9451 -406.0143   15.3573 C   0  0  0  0  0  0  0  0  0  0  0  0
   41.2909 -406.2703   13.0183 N   0  0  0  0  0  0  0  0  0  0  0  0
   40.9584 -406.8537   14.0913 C   0  0  0  0  0  0  0  0  0  0  0  0
   41.6495 -404.9139   13.0085 O   0  0  0  0  0  0  0  0  0  0  0  0
   41.8927 -404.4994   12.2041 H   0  0  0  0  0  0  0  0  0  0  0  0
   40.5874 -408.2882   14.0372 C   0  0  0  0  0  0  0  0  0  0  0  0
   40.3585 -408.9172   15.1000 O   0  0  0  0  0  0  0  0  0  0  0  0
   40.4913 -408.8668   12.9219 O   0  0  0  0  0  0  0  0  0  0  0  0
   40.4314 -408.4823   15.9268 H   0  0  0  0  0  0  0  0  0  0  0  0
 25 23  2  0  0  0
 24 23  1  0  0  0
 23 20  1  0  0  0
 16 15  1  0  0  0
 20 19  2  0  0  0
 20 18  1  0  0  0
 19 21  1  0  0  0
 15 18  1  0  0  0
 15  1  1  0  0  0
  5  4  1  0  0  0
  4  1  1  0  0  0
  4  7  1  0  0  0
  1  2  1  0  0  0
  8  7  1  0  0  0
  8  9  1  0  0  0
 12  9  2  0  0  0
  9 11  1  0  0  0
  9 10  1  0  0  0
 24 26  1  0  0  0
 21 22  1  0  0  0
 16 17  1  0  0  0
  2  3  1  0  0  0
  5  6  1  0  0  0
 10 13  1  0  0  0
 11 14  1  0  0  0
M  END
> <minimizedAffinity>
-7.44335

$$$$
5CKS_52L_B_402


 26 25  0  0  0  0  0  0  0  0999 V2000
   41.7640 -406.1015   15.9362 C   0  0  0  0  0  0  0  0  0  0  0  0
   40.3896 -405.9116   15.5429 O   0  0  0  0  0  0  0  0  0  0  0  0
   40.3302 -405.8916   14.5749 H   0  0  0  0  0  0  0  0  0  0  0  0
   42.6043 -404.9080   15.4527 C   0  0  0  0  0  0  0  0  0  0  0  0
   44.0133 -405.1776   15.5541 O   0  0  0  0  0  0  0  0  0  0  0  0
   44.2493 -405.3186   16.4843 H   0  0  0  0  0  0  0  0  0  0  0  0
   42.2655 -403.6334   16.2372 C   0  0  0  0  0  0  0  0  0  0  0  0
   43.0905 -402.5408   15.8008 O   0  0  0  0  0  0  0  0  0  0  0  0
   42.9267 -401.0398   16.3935 P   0  0  0  0  0  0  0  0  0  0  0  0
   42.8313 -400.1506   15.1646 O   0  0  0  0  0  0  0  0  0  0  0  0
   41.6627 -401.0843   17.2264 O   0  0  0  0  0  0  0  0  0  0  0  0
   44.2046 -400.8583   17.1883 O   0  0  0  0  0  0  0  0  0  0  0  0
   43.6734 -400.1721   14.6838 H   0  0  0  0  0  0  0  0  0  0  0  0
   41.7985 -401.6682   17.9890 H   0  0  0  0  0  0  0  0  0  0  0  0
   42.2604 -407.4608   15.4221 C   0  0  0  0  0  0  0  0  0  0  0  0
   41.3459 -408.0083   14.4476 O   0  0  0  0  0  0  0  0  0  0  0  0
   40.4810 -408.1541   14.8620 H   0  0  0  0  0  0  0  0  0  0  0  0
   42.4374 -408.4503   16.5837 C   0  0  0  0  0  0  0  0  0  0  0  0
   44.0232 -408.3803   18.3546 N   0  0  0  0  0  0  0  0  0  0  0  0
   43.8655 -408.3993   17.0988 C   0  0  0  0  0  0  0  0  0  0  0  0
   42.9250 -408.4249   19.2267 O   0  0  0  0  0  0  0  0  0  0  0  0
   43.0618 -408.4099   20.1536 H   0  0  0  0  0  0  0  0  0  0  0  0
   45.0651 -408.3474   16.2290 C   0  0  0  0  0  0  0  0  0  0  0  0
   45.8130 -407.3386   16.2519 O   0  0  0  0  0  0  0  0  0  0  0  0
   45.3353 -409.3232   15.4788 O   0  0  0  0  0  0  0  0  0  0  0  0
   45.6075 -406.6156   16.8115 H   0  0  0  0  0  0  0  0  0  0  0  0
 25 23  2  0  0  0
 24 23  1  0  0  0
 23 20  1  0  0  0
 16 15  1  0  0  0
 20 19  2  0  0  0
 20 18  1  0  0  0
 19 21  1  0  0  0
 15 18  1  0  0  0
 15  1  1  0  0  0
  5  4  1  0  0  0
  4  1  1  0  0  0
  4  7  1  0  0  0
  1  2  1  0  0  0
  8  7  1  0  0  0
  8  9  1  0  0  0
 12  9  2  0  0  0
  9 11  1  0  0  0
  9 10  1  0  0  0
 24 26  1  0  0  0
 21 22  1  0  0  0
 16 17  1  0  0  0
  2  3  1  0  0  0
  5  6  1  0  0  0
 10 13  1  0  0  0
 11 14  1  0  0  0
M  END
> <minimizedAffinity>
-7.31984

$$$$
5CKS_52L_B_402


 26 25  0  0  0  0  0  0  0  0999 V2000
   42.9302 -404.1431   15.8888 C   0  0  0  0  0  0  0  0  0  0  0  0
   42.7018 -403.9995   14.4721 O   0  0  0  0  0  0  0  0  0  0  0  0
   43.3815 -404.4898   13.9837 H   0  0  0  0  0  0  0  0  0  0  0  0
   44.2894 -403.5237   16.2535 C   0  0  0  0  0  0  0  0  0  0  0  0
   45.0803 -404.4183   17.0548 O   0  0  0  0  0  0  0  0  0  0  0  0
   44.6245 -404.5896   17.8938 H   0  0  0  0  0  0  0  0  0  0  0  0
   44.1140 -402.1894   16.9910 C   0  0  0  0  0  0  0  0  0  0  0  0
   42.8656 -401.5762   16.6298 O   0  0  0  0  0  0  0  0  0  0  0  0
   42.7796 -400.0702   16.0334 P   0  0  0  0  0  0  0  0  0  0  0  0
   43.9628 -399.3445   16.6526 O   0  0  0  0  0  0  0  0  0  0  0  0
   42.8726 -400.2389   14.5313 O   0  0  0  0  0  0  0  0  0  0  0  0
   41.4317 -399.5933   16.5365 O   0  0  0  0  0  0  0  0  0  0  0  0
   43.8335 -399.2744   17.6114 H   0  0  0  0  0  0  0  0  0  0  0  0
   42.0868 -400.7078   14.2094 H   0  0  0  0  0  0  0  0  0  0  0  0
   42.7947 -405.6215   16.2816 C   0  0  0  0  0  0  0  0  0  0  0  0
   43.7548 -406.4335   15.5712 O   0  0  0  0  0  0  0  0  0  0  0  0
   43.5882 -406.3713   14.6176 H   0  0  0  0  0  0  0  0  0  0  0  0
   41.3729 -406.1310   16.0011 C   0  0  0  0  0  0  0  0  0  0  0  0
   41.7501 -408.4267   15.5076 N   0  0  0  0  0  0  0  0  0  0  0  0
   41.4198 -407.3006   15.0331 C   0  0  0  0  0  0  0  0  0  0  0  0
   42.0392 -408.5851   16.8715 O   0  0  0  0  0  0  0  0  0  0  0  0
   42.2819 -409.4267   17.2042 H   0  0  0  0  0  0  0  0  0  0  0  0
   41.1287 -407.1960   13.5830 C   0  0  0  0  0  0  0  0  0  0  0  0
   41.1253 -406.0714   13.0238 O   0  0  0  0  0  0  0  0  0  0  0  0
   40.8980 -408.2396   12.9154 O   0  0  0  0  0  0  0  0  0  0  0  0
   41.2975 -405.2985   13.5247 H   0  0  0  0  0  0  0  0  0  0  0  0
 25 23  2  0  0  0
 24 23  1  0  0  0
 23 20  1  0  0  0
 16 15  1  0  0  0
 20 19  2  0  0  0
 20 18  1  0  0  0
 19 21  1  0  0  0
 15 18  1  0  0  0
 15  1  1  0  0  0
  5  4  1  0  0  0
  4  1  1  0  0  0
  4  7  1  0  0  0
  1  2  1  0  0  0
  8  7  1  0  0  0
  8  9  1  0  0  0
 12  9  2  0  0  0
  9 11  1  0  0  0
  9 10  1  0  0  0
 24 26  1  0  0  0
 21 22  1  0  0  0
 16 17  1  0  0  0
  2  3  1  0  0  0
  5  6  1  0  0  0
 10 13  1  0  0  0
 11 14  1  0  0  0
M  END
> <minimizedAffinity>
-7.24486

$$$$
5CKS_52L_B_402


 26 25  0  0  0  0  0  0  0  0999 V2000
   43.8104 -404.6064   16.6207 C   0  0  0  0  0  0  0  0  0  0  0  0
   43.1007 -403.8197   17.5990 O   0  0  0  0  0  0  0  0  0  0  0  0
   42.9540 -402.9263   17.2508 H   0  0  0  0  0  0  0  0  0  0  0  0
   45.1931 -403.9831   16.3682 C   0  0  0  0  0  0  0  0  0  0  0  0
   46.2447 -404.7786   16.9423 O   0  0  0  0  0  0  0  0  0  0  0  0
   46.1335 -404.8151   17.9052 H   0  0  0  0  0  0  0  0  0  0  0  0
   45.2690 -402.5530   16.9194 C   0  0  0  0  0  0  0  0  0  0  0  0
   44.5479 -401.6475   16.0677 O   0  0  0  0  0  0  0  0  0  0  0  0
   43.6092 -400.4636   16.6578 P   0  0  0  0  0  0  0  0  0  0  0  0
   42.2908 -400.6142   15.9167 O   0  0  0  0  0  0  0  0  0  0  0  0
   43.5201 -400.7397   18.1441 O   0  0  0  0  0  0  0  0  0  0  0  0
   44.3844 -399.2142   16.2895 O   0  0  0  0  0  0  0  0  0  0  0  0
   42.4254 -400.4228   14.9753 H   0  0  0  0  0  0  0  0  0  0  0  0
   44.3948 -400.6244   18.5474 H   0  0  0  0  0  0  0  0  0  0  0  0
   42.9509 -404.7469   15.3558 C   0  0  0  0  0  0  0  0  0  0  0  0
   42.5645 -403.4511   14.8488 O   0  0  0  0  0  0  0  0  0  0  0  0
   42.0282 -402.9907   15.5131 H   0  0  0  0  0  0  0  0  0  0  0  0
   41.6983 -405.5896   15.6400 C   0  0  0  0  0  0  0  0  0  0  0  0
   41.3398 -407.2896   14.0161 N   0  0  0  0  0  0  0  0  0  0  0  0
   41.8917 -407.0031   15.1186 C   0  0  0  0  0  0  0  0  0  0  0  0
   40.6005 -406.3342   13.3024 O   0  0  0  0  0  0  0  0  0  0  0  0
   40.1992 -406.5652   12.4878 H   0  0  0  0  0  0  0  0  0  0  0  0
   42.6578 -408.0565   15.8271 C   0  0  0  0  0  0  0  0  0  0  0  0
   43.8326 -408.3235   15.4719 O   0  0  0  0  0  0  0  0  0  0  0  0
   42.1293 -408.6710   16.7920 O   0  0  0  0  0  0  0  0  0  0  0  0
   44.2209 -407.8637   14.7538 H   0  0  0  0  0  0  0  0  0  0  0  0
 25 23  2  0  0  0
 24 23  1  0  0  0
 23 20  1  0  0  0
 16 15  1  0  0  0
 20 19  2  0  0  0
 20 18  1  0  0  0
 19 21  1  0  0  0
 15 18  1  0  0  0
 15  1  1  0  0  0
  5  4  1  0  0  0
  4  1  1  0  0  0
  4  7  1  0  0  0
  1  2  1  0  0  0
  8  7  1  0  0  0
  8  9  1  0  0  0
 12  9  2  0  0  0
  9 11  1  0  0  0
  9 10  1  0  0  0
 24 26  1  0  0  0
 21 22  1  0  0  0
 16 17  1  0  0  0
  2  3  1  0  0  0
  5  6  1  0  0  0
 10 13  1  0  0  0
 11 14  1  0  0  0
M  END
> <minimizedAffinity>
-7.17333

$$$$
5CKS_52L_B_402


 26 25  0  0  0  0  0  0  0  0999 V2000
   44.4330 -405.0570   16.1655 C   0  0  0  0  0  0  0  0  0  0  0  0
   45.3691 -405.6510   17.0878 O   0  0  0  0  0  0  0  0  0  0  0  0
   45.0467 -405.5350   17.9953 H   0  0  0  0  0  0  0  0  0  0  0  0
   44.3454 -403.5445   16.4281 C   0  0  0  0  0  0  0  0  0  0  0  0
   44.6870 -403.2232   17.7876 O   0  0  0  0  0  0  0  0  0  0  0  0
   44.0509 -403.6418   18.3884 H   0  0  0  0  0  0  0  0  0  0  0  0
   42.9461 -403.0030   16.1063 C   0  0  0  0  0  0  0  0  0  0  0  0
   43.0387 -401.7143   15.4774 O   0  0  0  0  0  0  0  0  0  0  0  0
   42.8591 -400.3306   16.3047 P   0  0  0  0  0  0  0  0  0  0  0  0
   41.4178 -399.9185   16.0543 O   0  0  0  0  0  0  0  0  0  0  0  0
   43.1591 -400.6941   17.7438 O   0  0  0  0  0  0  0  0  0  0  0  0
   43.8824 -399.4221   15.6528 O   0  0  0  0  0  0  0  0  0  0  0  0
   41.3018 -399.7015   15.1160 H   0  0  0  0  0  0  0  0  0  0  0  0
   44.0925 -400.9449   17.8261 H   0  0  0  0  0  0  0  0  0  0  0  0
   43.0844 -405.7849   16.2653 C   0  0  0  0  0  0  0  0  0  0  0  0
   42.8059 -406.1691   17.6293 O   0  0  0  0  0  0  0  0  0  0  0  0
   43.4898 -406.7837   17.9382 H   0  0  0  0  0  0  0  0  0  0  0  0
   43.0680 -407.0265   15.3608 C   0  0  0  0  0  0  0  0  0  0  0  0
   42.5684 -408.8803   16.7642 N   0  0  0  0  0  0  0  0  0  0  0  0
   43.4832 -408.2541   16.1532 C   0  0  0  0  0  0  0  0  0  0  0  0
   41.2298 -408.4659   16.6924 O   0  0  0  0  0  0  0  0  0  0  0  0
   40.5666 -408.9424   17.1517 H   0  0  0  0  0  0  0  0  0  0  0  0
   44.8793 -408.7394   16.2697 C   0  0  0  0  0  0  0  0  0  0  0  0
   45.4362 -409.2888   15.2870 O   0  0  0  0  0  0  0  0  0  0  0  0
   45.5055 -408.5865   17.3525 O   0  0  0  0  0  0  0  0  0  0  0  0
   44.9662 -409.4001   14.4840 H   0  0  0  0  0  0  0  0  0  0  0  0
 25 23  2  0  0  0
 24 23  1  0  0  0
 23 20  1  0  0  0
 16 15  1  0  0  0
 20 19  2  0  0  0
 20 18  1  0  0  0
 19 21  1  0  0  0
 15 18  1  0  0  0
 15  1  1  0  0  0
  5  4  1  0  0  0
  4  1  1  0  0  0
  4  7  1  0  0  0
  1  2  1  0  0  0
  8  7  1  0  0  0
  8  9  1  0  0  0
 12  9  2  0  0  0
  9 11  1  0  0  0
  9 10  1  0  0  0
 24 26  1  0  0  0
 21 22  1  0  0  0
 16 17  1  0  0  0
  2  3  1  0  0  0
  5  6  1  0  0  0
 10 13  1  0  0  0
 11 14  1  0  0  0
M  END
> <minimizedAffinity>
-7.04456

$$$$
5CKS_52L_B_402


 26 25  0  0  0  0  0  0  0  0999 V2000
   44.9762 -403.6238   16.6006 C   0  0  0  0  0  0  0  0  0  0  0  0
   45.4973 -403.2304   15.3148 O   0  0  0  0  0  0  0  0  0  0  0  0
   45.1617 -402.3496   15.0856 H   0  0  0  0  0  0  0  0  0  0  0  0
   43.4440 -403.7261   16.5224 C   0  0  0  0  0  0  0  0  0  0  0  0
   42.9001 -404.4041   17.6681 O   0  0  0  0  0  0  0  0  0  0  0  0
   43.2336 -405.3147   17.6933 H   0  0  0  0  0  0  0  0  0  0  0  0
   42.9979 -404.4414   15.2401 C   0  0  0  0  0  0  0  0  0  0  0  0
   42.1179 -405.5332   15.5542 O   0  0  0  0  0  0  0  0  0  0  0  0
   41.2719 -406.3203   14.4158 P   0  0  0  0  0  0  0  0  0  0  0  0
   39.8345 -406.2766   14.9075 O   0  0  0  0  0  0  0  0  0  0  0  0
   41.5150 -405.5416   13.1400 O   0  0  0  0  0  0  0  0  0  0  0  0
   41.8912 -407.7036   14.4430 O   0  0  0  0  0  0  0  0  0  0  0  0
   39.7561 -406.7946   15.7238 H   0  0  0  0  0  0  0  0  0  0  0  0
   42.4491 -405.6152   12.8892 H   0  0  0  0  0  0  0  0  0  0  0  0
   45.4806 -402.6509   17.6766 C   0  0  0  0  0  0  0  0  0  0  0  0
   44.5229 -402.5289   18.7507 O   0  0  0  0  0  0  0  0  0  0  0  0
   43.6914 -402.1701   18.4033 H   0  0  0  0  0  0  0  0  0  0  0  0
   45.7623 -401.2677   17.0705 C   0  0  0  0  0  0  0  0  0  0  0  0
   44.7079 -399.7174   18.5335 N   0  0  0  0  0  0  0  0  0  0  0  0
   44.6368 -400.3081   17.4162 C   0  0  0  0  0  0  0  0  0  0  0  0
   45.7906 -399.9284   19.4006 O   0  0  0  0  0  0  0  0  0  0  0  0
   45.8255 -399.4819   20.2237 H   0  0  0  0  0  0  0  0  0  0  0  0
   43.4664 -400.0458   16.5445 C   0  0  0  0  0  0  0  0  0  0  0  0
   42.3145 -400.3677   16.9278 O   0  0  0  0  0  0  0  0  0  0  0  0
   43.6328 -399.4885   15.4266 O   0  0  0  0  0  0  0  0  0  0  0  0
   42.1963 -400.7818   17.7600 H   0  0  0  0  0  0  0  0  0  0  0  0
 25 23  2  0  0  0
 24 23  1  0  0  0
 23 20  1  0  0  0
 16 15  1  0  0  0
 20 19  2  0  0  0
 20 18  1  0  0  0
 19 21  1  0  0  0
 15 18  1  0  0  0
 15  1  1  0  0  0
  5  4  1  0  0  0
  4  1  1  0  0  0
  4  7  1  0  0  0
  1  2  1  0  0  0
  8  7  1  0  0  0
  8  9  1  0  0  0
 12  9  2  0  0  0
  9 11  1  0  0  0
  9 10  1  0  0  0
 24 26  1  0  0  0
 21 22  1  0  0  0
 16 17  1  0  0  0
  2  3  1  0  0  0
  5  6  1  0  0  0
 10 13  1  0  0  0
 11 14  1  0  0  0
M  END
> <minimizedAffinity>
-6.91380

$$$$
