3UI7_C1L_A_1


 25 28  0  0  0  0  0  0  0  0999 V2000
    4.9602   11.6814   42.0049 C   0  0  0  0  0  0  0  0  0  0  0  0
    4.2919   13.1078   40.1658 C   0  0  0  0  0  0  0  0  0  0  0  0
    4.5229   12.6600   42.9192 C   0  0  0  0  0  0  0  0  0  0  0  0
    4.1529   13.4461   45.1802 C   0  0  0  0  0  0  0  0  0  0  0  0
    3.8382   14.1370   41.0495 C   0  0  0  0  0  0  0  0  0  0  0  0
    4.6182   12.4131   44.3240 C   0  0  0  0  0  0  0  0  0  0  0  0
    3.9437   13.9142   42.4407 C   0  0  0  0  0  0  0  0  0  0  0  0
    4.8824   11.8939   40.6266 C   0  0  0  0  0  0  0  0  0  0  0  0
    4.0272   13.6761   46.5608 C   0  0  0  0  0  0  0  0  0  0  0  0
    3.6563   14.6256   44.5913 C   0  0  0  0  0  0  0  0  0  0  0  0
    3.2598   15.4433   40.4776 C   0  0  0  0  0  0  0  0  0  0  0  0
    4.4870   12.7926   47.6699 C   0  0  0  0  0  0  0  0  0  0  0  0
    3.4938   14.8873   43.2675 N   0  0  0  0  0  0  0  0  0  0  0  0
    3.3001   15.4374   45.6081 N   0  0  0  0  0  0  0  0  0  0  0  0
    3.5151   14.9042   46.8072 N   0  0  0  0  0  0  0  0  0  0  0  0
    2.9188   16.3354   45.4757 H   0  0  0  0  0  0  0  0  0  0  0  0
    6.6255   10.4282   39.8876 C   0  0  0  0  0  0  0  0  0  0  0  0
    5.3218   10.9847   39.6837 O   0  0  0  0  0  0  0  0  0  0  0  0
    5.3162   11.1574   44.8472 C   0  0  0  0  0  0  0  0  0  0  0  0
    7.2728    9.8231   44.0337 C   0  0  0  0  0  0  0  0  0  0  0  0
    7.6893   11.9538   45.1879 C   0  0  0  0  0  0  0  0  0  0  0  0
    8.6053    9.9661   43.2987 C   0  0  0  0  0  0  0  0  0  0  0  0
    9.0123   12.0394   44.4426 C   0  0  0  0  0  0  0  0  0  0  0  0
    6.7543   11.1472   44.3907 N   0  0  0  0  0  0  0  0  0  0  0  0
    9.5271   10.7303   44.0687 O   0  0  0  0  0  0  0  0  0  0  0  0
  1  3  1  0  0  0
  1  8  2  0  0  0
  2  5  2  0  0  0
  2  8  1  0  0  0
  3  6  2  0  0  0
  3  7  1  0  0  0
  4  6  1  0  0  0
  4  9  1  0  0  0
  4 10  2  0  0  0
  5  7  1  0  0  0
  5 11  1  0  0  0
  6 19  1  0  0  0
  7 13  2  0  0  0
  8 18  1  0  0  0
  9 12  1  0  0  0
  9 15  2  0  0  0
 10 13  1  0  0  0
 10 14  1  0  0  0
 20 22  1  0  0  0
 20 24  1  0  0  0
 21 23  1  0  0  0
 21 24  1  0  0  0
 22 25  1  0  0  0
 23 25  1  0  0  0
 17 18  1  0  0  0
 19 24  1  0  0  0
 14 15  1  0  0  0
 14 16  1  0  0  0
M  END
> <minimizedAffinity>
-9.07776

$$$$
3UI7_C1L_A_1


 25 28  0  0  0  0  0  0  0  0999 V2000
    5.2648   11.3486   42.1675 C   0  0  0  0  0  0  0  0  0  0  0  0
    4.2439   13.4818   42.6877 C   0  0  0  0  0  0  0  0  0  0  0  0
    5.6100   11.1862   43.5237 C   0  0  0  0  0  0  0  0  0  0  0  0
    6.5929    9.9082   45.3313 C   0  0  0  0  0  0  0  0  0  0  0  0
    4.5754   13.3707   44.0747 C   0  0  0  0  0  0  0  0  0  0  0  0
    6.2831    9.9987   43.9484 C   0  0  0  0  0  0  0  0  0  0  0  0
    5.2573   12.2107   44.5053 C   0  0  0  0  0  0  0  0  0  0  0  0
    4.6092   12.4984   41.7212 C   0  0  0  0  0  0  0  0  0  0  0  0
    7.2057    8.9919   46.2029 C   0  0  0  0  0  0  0  0  0  0  0  0
    6.2356   10.9858   46.1655 C   0  0  0  0  0  0  0  0  0  0  0  0
    4.1939   14.4980   45.0502 C   0  0  0  0  0  0  0  0  0  0  0  0
    7.8622    7.7027   45.8434 C   0  0  0  0  0  0  0  0  0  0  0  0
    5.5491   12.1078   45.8234 N   0  0  0  0  0  0  0  0  0  0  0  0
    6.6496   10.6589   47.4072 N   0  0  0  0  0  0  0  0  0  0  0  0
    7.2439    9.4709   47.4679 N   0  0  0  0  0  0  0  0  0  0  0  0
    6.5241   11.2419   48.1905 H   0  0  0  0  0  0  0  0  0  0  0  0
    3.6239   13.9697   40.1096 C   0  0  0  0  0  0  0  0  0  0  0  0
    4.2719   12.7262   40.4010 O   0  0  0  0  0  0  0  0  0  0  0  0
    6.7557    8.9649   42.9258 C   0  0  0  0  0  0  0  0  0  0  0  0
    8.2250    8.9672   40.8982 C   0  0  0  0  0  0  0  0  0  0  0  0
    9.2420    9.3780   43.0987 C   0  0  0  0  0  0  0  0  0  0  0  0
    9.3583    9.7485   40.2337 C   0  0  0  0  0  0  0  0  0  0  0  0
   10.3543   10.1318   42.3865 C   0  0  0  0  0  0  0  0  0  0  0  0
    8.0288    9.4419   42.2714 N   0  0  0  0  0  0  0  0  0  0  0  0
   10.5456    9.6794   41.0163 O   0  0  0  0  0  0  0  0  0  0  0  0
  1  3  1  0  0  0
  1  8  2  0  0  0
  2  5  2  0  0  0
  2  8  1  0  0  0
  3  6  2  0  0  0
  3  7  1  0  0  0
  4  6  1  0  0  0
  4  9  1  0  0  0
  4 10  2  0  0  0
  5  7  1  0  0  0
  5 11  1  0  0  0
  6 19  1  0  0  0
  7 13  2  0  0  0
  8 18  1  0  0  0
  9 12  1  0  0  0
  9 15  2  0  0  0
 10 13  1  0  0  0
 10 14  1  0  0  0
 20 22  1  0  0  0
 20 24  1  0  0  0
 21 23  1  0  0  0
 21 24  1  0  0  0
 22 25  1  0  0  0
 23 25  1  0  0  0
 17 18  1  0  0  0
 19 24  1  0  0  0
 14 15  1  0  0  0
 14 16  1  0  0  0
M  END
> <minimizedAffinity>
-8.11466

$$$$
3UI7_C1L_A_1


 25 28  0  0  0  0  0  0  0  0999 V2000
    5.6261   11.0996   43.5580 C   0  0  0  0  0  0  0  0  0  0  0  0
    4.8018   12.8595   45.0026 C   0  0  0  0  0  0  0  0  0  0  0  0
    6.3548   10.5597   44.6361 C   0  0  0  0  0  0  0  0  0  0  0  0
    7.8264    8.8857   45.5842 C   0  0  0  0  0  0  0  0  0  0  0  0
    5.5264   12.3573   46.1290 C   0  0  0  0  0  0  0  0  0  0  0  0
    7.1237    9.3693   44.4489 C   0  0  0  0  0  0  0  0  0  0  0  0
    6.3055   11.1918   45.9535 C   0  0  0  0  0  0  0  0  0  0  0  0
    4.8675   12.2627   43.7087 C   0  0  0  0  0  0  0  0  0  0  0  0
    8.6689    7.8079   45.9057 C   0  0  0  0  0  0  0  0  0  0  0  0
    7.7294    9.6132   46.7867 C   0  0  0  0  0  0  0  0  0  0  0  0
    5.4478   13.0858   47.4822 C   0  0  0  0  0  0  0  0  0  0  0  0
    9.1915    6.7621   44.9808 C   0  0  0  0  0  0  0  0  0  0  0  0
    6.9720   10.7149   47.0312 N   0  0  0  0  0  0  0  0  0  0  0  0
    8.4903    8.9597   47.6889 N   0  0  0  0  0  0  0  0  0  0  0  0
    9.0769    7.8737   47.1942 N   0  0  0  0  0  0  0  0  0  0  0  0
    8.6002    9.2572   48.6209 H   0  0  0  0  0  0  0  0  0  0  0  0
    3.7776   14.2224   42.8694 C   0  0  0  0  0  0  0  0  0  0  0  0
    4.1569   12.8542   42.6821 O   0  0  0  0  0  0  0  0  0  0  0  0
    7.2755    8.7524   43.0581 C   0  0  0  0  0  0  0  0  0  0  0  0
    9.2198   10.2051   42.4422 C   0  0  0  0  0  0  0  0  0  0  0  0
    9.1193    7.9177   41.5462 C   0  0  0  0  0  0  0  0  0  0  0  0
   10.7423   10.1857   42.3084 C   0  0  0  0  0  0  0  0  0  0  0  0
   10.6342    7.9564   41.4185 C   0  0  0  0  0  0  0  0  0  0  0  0
    8.7160    8.8395   42.6176 N   0  0  0  0  0  0  0  0  0  0  0  0
   11.1458    9.3100   41.2610 O   0  0  0  0  0  0  0  0  0  0  0  0
  1  3  1  0  0  0
  1  8  2  0  0  0
  2  5  2  0  0  0
  2  8  1  0  0  0
  3  6  2  0  0  0
  3  7  1  0  0  0
  4  6  1  0  0  0
  4  9  1  0  0  0
  4 10  2  0  0  0
  5  7  1  0  0  0
  5 11  1  0  0  0
  6 19  1  0  0  0
  7 13  2  0  0  0
  8 18  1  0  0  0
  9 12  1  0  0  0
  9 15  2  0  0  0
 10 13  1  0  0  0
 10 14  1  0  0  0
 20 22  1  0  0  0
 20 24  1  0  0  0
 21 23  1  0  0  0
 21 24  1  0  0  0
 22 25  1  0  0  0
 23 25  1  0  0  0
 17 18  1  0  0  0
 19 24  1  0  0  0
 14 15  1  0  0  0
 14 16  1  0  0  0
M  END
> <minimizedAffinity>
-8.07291

$$$$
3UI7_C1L_A_1


 25 28  0  0  0  0  0  0  0  0999 V2000
    4.5167   13.1074   41.8565 C   0  0  0  0  0  0  0  0  0  0  0  0
    3.7071   14.4278   43.7178 C   0  0  0  0  0  0  0  0  0  0  0  0
    5.0067   12.1420   42.7580 C   0  0  0  0  0  0  0  0  0  0  0  0
    6.1075   10.0370   43.2315 C   0  0  0  0  0  0  0  0  0  0  0  0
    4.1904   13.4830   44.6768 C   0  0  0  0  0  0  0  0  0  0  0  0
    5.6447   10.9637   42.2600 C   0  0  0  0  0  0  0  0  0  0  0  0
    4.8397   12.3226   44.1992 C   0  0  0  0  0  0  0  0  0  0  0  0
    3.8909   14.2700   42.3121 C   0  0  0  0  0  0  0  0  0  0  0  0
    6.7561    8.7906   43.2552 C   0  0  0  0  0  0  0  0  0  0  0  0
    5.9224   10.3510   44.5923 C   0  0  0  0  0  0  0  0  0  0  0  0
    4.0011   13.7472   46.1809 C   0  0  0  0  0  0  0  0  0  0  0  0
    7.2792    8.0216   42.0902 C   0  0  0  0  0  0  0  0  0  0  0  0
    5.2763   11.4264   45.1153 N   0  0  0  0  0  0  0  0  0  0  0  0
    6.4561    9.3300   45.2942 N   0  0  0  0  0  0  0  0  0  0  0  0
    6.9735    8.3766   44.5251 N   0  0  0  0  0  0  0  0  0  0  0  0
    6.4620    9.2943   46.2780 H   0  0  0  0  0  0  0  0  0  0  0  0
    3.9635   15.3058   40.1547 C   0  0  0  0  0  0  0  0  0  0  0  0
    3.4174   15.2643   41.4779 O   0  0  0  0  0  0  0  0  0  0  0  0
    5.9250   10.8038   40.7655 C   0  0  0  0  0  0  0  0  0  0  0  0
    5.4536    8.9329   39.1694 C   0  0  0  0  0  0  0  0  0  0  0  0
    3.6358   10.4848   39.7458 C   0  0  0  0  0  0  0  0  0  0  0  0
    4.4226    7.8489   38.8560 C   0  0  0  0  0  0  0  0  0  0  0  0
    2.6514    9.3766   39.4056 C   0  0  0  0  0  0  0  0  0  0  0  0
    4.9078    9.8721   40.1540 N   0  0  0  0  0  0  0  0  0  0  0  0
    3.1904    8.4290   38.4412 O   0  0  0  0  0  0  0  0  0  0  0  0
  1  3  1  0  0  0
  1  8  2  0  0  0
  2  5  2  0  0  0
  2  8  1  0  0  0
  3  6  2  0  0  0
  3  7  1  0  0  0
  4  6  1  0  0  0
  4  9  1  0  0  0
  4 10  2  0  0  0
  5  7  1  0  0  0
  5 11  1  0  0  0
  6 19  1  0  0  0
  7 13  2  0  0  0
  8 18  1  0  0  0
  9 12  1  0  0  0
  9 15  2  0  0  0
 10 13  1  0  0  0
 10 14  1  0  0  0
 20 22  1  0  0  0
 20 24  1  0  0  0
 21 23  1  0  0  0
 21 24  1  0  0  0
 22 25  1  0  0  0
 23 25  1  0  0  0
 17 18  1  0  0  0
 19 24  1  0  0  0
 14 15  1  0  0  0
 14 16  1  0  0  0
M  END
> <minimizedAffinity>
-7.97740

$$$$
3UI7_C1L_A_1


 25 28  0  0  0  0  0  0  0  0999 V2000
    6.1985   10.8969   45.2725 C   0  0  0  0  0  0  0  0  0  0  0  0
    5.3834   12.6252   46.7598 C   0  0  0  0  0  0  0  0  0  0  0  0
    5.6070   11.5617   44.1803 C   0  0  0  0  0  0  0  0  0  0  0  0
    5.1273   11.7576   41.8142 C   0  0  0  0  0  0  0  0  0  0  0  0
    4.7586   13.3373   45.6881 C   0  0  0  0  0  0  0  0  0  0  0  0
    5.7487   11.0276   42.8619 C   0  0  0  0  0  0  0  0  0  0  0  0
    4.8748   12.8109   44.3822 C   0  0  0  0  0  0  0  0  0  0  0  0
    6.0758   11.3922   46.5728 C   0  0  0  0  0  0  0  0  0  0  0  0
    4.9895   11.6627   40.4189 C   0  0  0  0  0  0  0  0  0  0  0  0
    4.4139   12.9254   42.1487 C   0  0  0  0  0  0  0  0  0  0  0  0
    3.9832   14.6352   45.9749 C   0  0  0  0  0  0  0  0  0  0  0  0
    5.4697   10.5617   39.5360 C   0  0  0  0  0  0  0  0  0  0  0  0
    4.2954   13.5033   43.3732 N   0  0  0  0  0  0  0  0  0  0  0  0
    3.9171   13.4118   40.9926 N   0  0  0  0  0  0  0  0  0  0  0  0
    4.2358   12.6757   39.9321 N   0  0  0  0  0  0  0  0  0  0  0  0
    3.3727   14.2303   40.9394 H   0  0  0  0  0  0  0  0  0  0  0  0
    7.4726    9.6533   47.4433 C   0  0  0  0  0  0  0  0  0  0  0  0
    6.6082   10.7693   47.6850 O   0  0  0  0  0  0  0  0  0  0  0  0
    6.4171    9.6704   42.6404 C   0  0  0  0  0  0  0  0  0  0  0  0
    8.2093    9.0858   40.9924 C   0  0  0  0  0  0  0  0  0  0  0  0
    8.8659    9.8900   43.2211 C   0  0  0  0  0  0  0  0  0  0  0  0
    9.5341    9.5937   40.4239 C   0  0  0  0  0  0  0  0  0  0  0  0
   10.1751   10.3625   42.6082 C   0  0  0  0  0  0  0  0  0  0  0  0
    7.8369    9.8731   42.1718 N   0  0  0  0  0  0  0  0  0  0  0  0
   10.5450    9.5978   41.4263 O   0  0  0  0  0  0  0  0  0  0  0  0
  1  3  1  0  0  0
  1  8  2  0  0  0
  2  5  2  0  0  0
  2  8  1  0  0  0
  3  6  2  0  0  0
  3  7  1  0  0  0
  4  6  1  0  0  0
  4  9  1  0  0  0
  4 10  2  0  0  0
  5  7  1  0  0  0
  5 11  1  0  0  0
  6 19  1  0  0  0
  7 13  2  0  0  0
  8 18  1  0  0  0
  9 12  1  0  0  0
  9 15  2  0  0  0
 10 13  1  0  0  0
 10 14  1  0  0  0
 20 22  1  0  0  0
 20 24  1  0  0  0
 21 23  1  0  0  0
 21 24  1  0  0  0
 22 25  1  0  0  0
 23 25  1  0  0  0
 17 18  1  0  0  0
 19 24  1  0  0  0
 14 15  1  0  0  0
 14 16  1  0  0  0
M  END
> <minimizedAffinity>
-7.81737

$$$$
3UI7_C1L_A_1


 25 28  0  0  0  0  0  0  0  0999 V2000
    6.0848   11.2638   45.0435 C   0  0  0  0  0  0  0  0  0  0  0  0
    4.9205   13.3750   45.2677 C   0  0  0  0  0  0  0  0  0  0  0  0
    5.7373   11.2202   43.6789 C   0  0  0  0  0  0  0  0  0  0  0  0
    5.7934   10.1612   41.5013 C   0  0  0  0  0  0  0  0  0  0  0  0
    4.5349   13.3779   43.8903 C   0  0  0  0  0  0  0  0  0  0  0  0
    6.1814   10.1307   42.8670 C   0  0  0  0  0  0  0  0  0  0  0  0
    4.9511   12.2977   43.0803 C   0  0  0  0  0  0  0  0  0  0  0  0
    5.6642   12.3136   45.8633 C   0  0  0  0  0  0  0  0  0  0  0  0
    5.9724    9.3747   40.3505 C   0  0  0  0  0  0  0  0  0  0  0  0
    4.9976   11.2363   41.0591 C   0  0  0  0  0  0  0  0  0  0  0  0
    3.6865   14.5333   43.3306 C   0  0  0  0  0  0  0  0  0  0  0  0
    6.6617    8.0564   40.2549 C   0  0  0  0  0  0  0  0  0  0  0  0
    4.5963   12.3204   41.7739 N   0  0  0  0  0  0  0  0  0  0  0  0
    4.7606   11.0203   39.7488 N   0  0  0  0  0  0  0  0  0  0  0  0
    5.3241    9.9072   39.2887 N   0  0  0  0  0  0  0  0  0  0  0  0
    4.2238   11.6265   39.1887 H   0  0  0  0  0  0  0  0  0  0  0  0
    4.8340   12.3256   48.1090 C   0  0  0  0  0  0  0  0  0  0  0  0
    5.9488   12.3952   47.2128 O   0  0  0  0  0  0  0  0  0  0  0  0
    6.9121    8.9422   43.4925 C   0  0  0  0  0  0  0  0  0  0  0  0
    9.0485    7.6520   43.2885 C   0  0  0  0  0  0  0  0  0  0  0  0
    9.1353   10.1078   43.2078 C   0  0  0  0  0  0  0  0  0  0  0  0
   10.3408    7.5841   42.4752 C   0  0  0  0  0  0  0  0  0  0  0  0
   10.4270    9.9846   42.4147 C   0  0  0  0  0  0  0  0  0  0  0  0
    8.3333    8.8960   42.9877 N   0  0  0  0  0  0  0  0  0  0  0  0
   11.1362    8.7445   42.6938 O   0  0  0  0  0  0  0  0  0  0  0  0
  1  3  1  0  0  0
  1  8  2  0  0  0
  2  5  2  0  0  0
  2  8  1  0  0  0
  3  6  2  0  0  0
  3  7  1  0  0  0
  4  6  1  0  0  0
  4  9  1  0  0  0
  4 10  2  0  0  0
  5  7  1  0  0  0
  5 11  1  0  0  0
  6 19  1  0  0  0
  7 13  2  0  0  0
  8 18  1  0  0  0
  9 12  1  0  0  0
  9 15  2  0  0  0
 10 13  1  0  0  0
 10 14  1  0  0  0
 20 22  1  0  0  0
 20 24  1  0  0  0
 21 23  1  0  0  0
 21 24  1  0  0  0
 22 25  1  0  0  0
 23 25  1  0  0  0
 17 18  1  0  0  0
 19 24  1  0  0  0
 14 15  1  0  0  0
 14 16  1  0  0  0
M  END
> <minimizedAffinity>
-7.68286

$$$$
3UI7_C1L_A_1


 25 28  0  0  0  0  0  0  0  0999 V2000
    5.4000   13.4204   43.0775 C   0  0  0  0  0  0  0  0  0  0  0  0
    3.6288   14.7812   44.0127 C   0  0  0  0  0  0  0  0  0  0  0  0
    5.5712   12.7902   44.3259 C   0  0  0  0  0  0  0  0  0  0  0  0
    6.6552   11.1663   45.7592 C   0  0  0  0  0  0  0  0  0  0  0  0
    3.7646   14.1787   45.3029 C   0  0  0  0  0  0  0  0  0  0  0  0
    6.5460   11.7548   44.4714 C   0  0  0  0  0  0  0  0  0  0  0  0
    4.7371   13.1669   45.4660 C   0  0  0  0  0  0  0  0  0  0  0  0
    4.4578   14.4368   42.9041 C   0  0  0  0  0  0  0  0  0  0  0  0
    7.4116   10.1593   46.3827 C   0  0  0  0  0  0  0  0  0  0  0  0
    5.8206   11.6508   46.7856 C   0  0  0  0  0  0  0  0  0  0  0  0
    2.8688   14.6397   46.4661 C   0  0  0  0  0  0  0  0  0  0  0  0
    8.5253    9.3664   45.7884 C   0  0  0  0  0  0  0  0  0  0  0  0
    4.8439   12.5907   46.6865 N   0  0  0  0  0  0  0  0  0  0  0  0
    6.1303   10.9448   47.8926 N   0  0  0  0  0  0  0  0  0  0  0  0
    7.0875   10.0440   47.6915 N   0  0  0  0  0  0  0  0  0  0  0  0
    5.6913   11.0828   48.7629 H   0  0  0  0  0  0  0  0  0  0  0  0
    3.8901   14.3179   40.5812 C   0  0  0  0  0  0  0  0  0  0  0  0
    4.2655   15.1105   41.7134 O   0  0  0  0  0  0  0  0  0  0  0  0
    7.5002   11.4185   43.3251 C   0  0  0  0  0  0  0  0  0  0  0  0
    7.8079    9.1001   42.4305 C   0  0  0  0  0  0  0  0  0  0  0  0
    6.3128   10.6427   41.2346 C   0  0  0  0  0  0  0  0  0  0  0  0
    7.0262    7.9134   41.8677 C   0  0  0  0  0  0  0  0  0  0  0  0
    5.5794    9.4271   40.6894 C   0  0  0  0  0  0  0  0  0  0  0  0
    6.9382   10.2774   42.5136 N   0  0  0  0  0  0  0  0  0  0  0  0
    6.4301    8.2482   40.6189 O   0  0  0  0  0  0  0  0  0  0  0  0
  1  3  1  0  0  0
  1  8  2  0  0  0
  2  5  2  0  0  0
  2  8  1  0  0  0
  3  6  2  0  0  0
  3  7  1  0  0  0
  4  6  1  0  0  0
  4  9  1  0  0  0
  4 10  2  0  0  0
  5  7  1  0  0  0
  5 11  1  0  0  0
  6 19  1  0  0  0
  7 13  2  0  0  0
  8 18  1  0  0  0
  9 12  1  0  0  0
  9 15  2  0  0  0
 10 13  1  0  0  0
 10 14  1  0  0  0
 20 22  1  0  0  0
 20 24  1  0  0  0
 21 23  1  0  0  0
 21 24  1  0  0  0
 22 25  1  0  0  0
 23 25  1  0  0  0
 17 18  1  0  0  0
 19 24  1  0  0  0
 14 15  1  0  0  0
 14 16  1  0  0  0
M  END
> <minimizedAffinity>
-7.67931

$$$$
3UI7_C1L_A_1


 25 28  0  0  0  0  0  0  0  0999 V2000
    6.4804   10.4334   45.1786 C   0  0  0  0  0  0  0  0  0  0  0  0
    5.4216   12.5924   44.8939 C   0  0  0  0  0  0  0  0  0  0  0  0
    6.3411   10.1862   43.7986 C   0  0  0  0  0  0  0  0  0  0  0  0
    6.6633    8.7943   41.8427 C   0  0  0  0  0  0  0  0  0  0  0  0
    5.2495   12.3903   43.4883 C   0  0  0  0  0  0  0  0  0  0  0  0
    6.8380    8.9671   43.2414 C   0  0  0  0  0  0  0  0  0  0  0  0
    5.7191   11.1817   42.9272 C   0  0  0  0  0  0  0  0  0  0  0  0
    6.0032   11.6136   45.7532 C   0  0  0  0  0  0  0  0  0  0  0  0
    6.9677    7.8298   40.8670 C   0  0  0  0  0  0  0  0  0  0  0  0
    6.0081    9.8126   41.1228 C   0  0  0  0  0  0  0  0  0  0  0  0
    4.5649   13.4711   42.6332 C   0  0  0  0  0  0  0  0  0  0  0  0
    7.5848    6.4899   41.0821 C   0  0  0  0  0  0  0  0  0  0  0  0
    5.5678   11.0095   41.5928 N   0  0  0  0  0  0  0  0  0  0  0  0
    5.9596    9.4001   39.8393 N   0  0  0  0  0  0  0  0  0  0  0  0
    6.5197    8.2093   39.6478 N   0  0  0  0  0  0  0  0  0  0  0  0
    5.5502    9.9281   39.1162 H   0  0  0  0  0  0  0  0  0  0  0  0
    5.0772   12.7635   47.6381 C   0  0  0  0  0  0  0  0  0  0  0  0
    6.0848   11.8981   47.1027 O   0  0  0  0  0  0  0  0  0  0  0  0
    7.3947    7.8682   44.1470 C   0  0  0  0  0  0  0  0  0  0  0  0
    9.5733    6.8500   44.8450 C   0  0  0  0  0  0  0  0  0  0  0  0
    9.6043    8.8500   43.4151 C   0  0  0  0  0  0  0  0  0  0  0  0
   10.9420    6.4442   44.2992 C   0  0  0  0  0  0  0  0  0  0  0  0
   10.9719    8.4092   42.9168 C   0  0  0  0  0  0  0  0  0  0  0  0
    8.8600    7.6607   43.8532 N   0  0  0  0  0  0  0  0  0  0  0  0
   11.6813    7.5893   43.8880 O   0  0  0  0  0  0  0  0  0  0  0  0
  1  3  1  0  0  0
  1  8  2  0  0  0
  2  5  2  0  0  0
  2  8  1  0  0  0
  3  6  2  0  0  0
  3  7  1  0  0  0
  4  6  1  0  0  0
  4  9  1  0  0  0
  4 10  2  0  0  0
  5  7  1  0  0  0
  5 11  1  0  0  0
  6 19  1  0  0  0
  7 13  2  0  0  0
  8 18  1  0  0  0
  9 12  1  0  0  0
  9 15  2  0  0  0
 10 13  1  0  0  0
 10 14  1  0  0  0
 20 22  1  0  0  0
 20 24  1  0  0  0
 21 23  1  0  0  0
 21 24  1  0  0  0
 22 25  1  0  0  0
 23 25  1  0  0  0
 17 18  1  0  0  0
 19 24  1  0  0  0
 14 15  1  0  0  0
 14 16  1  0  0  0
M  END
> <minimizedAffinity>
-7.64116

$$$$
3UI7_C1L_A_1


 25 28  0  0  0  0  0  0  0  0999 V2000
    6.1124   12.2701   43.6676 C   0  0  0  0  0  0  0  0  0  0  0  0
    4.7807   13.2296   45.4478 C   0  0  0  0  0  0  0  0  0  0  0  0
    6.6399   11.3286   44.5733 C   0  0  0  0  0  0  0  0  0  0  0  0
    8.0506    9.4277   45.0863 C   0  0  0  0  0  0  0  0  0  0  0  0
    5.2889   12.3015   46.4103 C   0  0  0  0  0  0  0  0  0  0  0  0
    7.5678   10.3431   44.1139 C   0  0  0  0  0  0  0  0  0  0  0  0
    6.2211   11.3336   45.9740 C   0  0  0  0  0  0  0  0  0  0  0  0
    5.2059   13.2467   44.0864 C   0  0  0  0  0  0  0  0  0  0  0  0
    8.9221    8.3265   45.1371 C   0  0  0  0  0  0  0  0  0  0  0  0
    7.6000    9.5676   46.4138 C   0  0  0  0  0  0  0  0  0  0  0  0
    4.8222   12.3779   47.8747 C   0  0  0  0  0  0  0  0  0  0  0  0
    9.7601    7.7851   44.0294 C   0  0  0  0  0  0  0  0  0  0  0  0
    6.6809   10.4485   46.8896 N   0  0  0  0  0  0  0  0  0  0  0  0
    8.2116    8.5994   47.1269 N   0  0  0  0  0  0  0  0  0  0  0  0
    9.0198    7.8379   46.3953 N   0  0  0  0  0  0  0  0  0  0  0  0
    8.0733    8.4695   48.0929 H   0  0  0  0  0  0  0  0  0  0  0  0
    4.2008   13.7681   41.9768 C   0  0  0  0  0  0  0  0  0  0  0  0
    4.6783   14.2128   43.2516 O   0  0  0  0  0  0  0  0  0  0  0  0
    8.1004   10.3846   42.6813 C   0  0  0  0  0  0  0  0  0  0  0  0
    7.7453    8.3339   41.2888 C   0  0  0  0  0  0  0  0  0  0  0  0
    6.4823   10.3711   40.7413 C   0  0  0  0  0  0  0  0  0  0  0  0
    6.6435    7.4858   40.6542 C   0  0  0  0  0  0  0  0  0  0  0  0
    5.4230    9.4822   40.1084 C   0  0  0  0  0  0  0  0  0  0  0  0
    7.1851    9.5984   41.7753 N   0  0  0  0  0  0  0  0  0  0  0  0
    5.9664    8.2167   39.6373 O   0  0  0  0  0  0  0  0  0  0  0  0
  1  3  1  0  0  0
  1  8  2  0  0  0
  2  5  2  0  0  0
  2  8  1  0  0  0
  3  6  2  0  0  0
  3  7  1  0  0  0
  4  6  1  0  0  0
  4  9  1  0  0  0
  4 10  2  0  0  0
  5  7  1  0  0  0
  5 11  1  0  0  0
  6 19  1  0  0  0
  7 13  2  0  0  0
  8 18  1  0  0  0
  9 12  1  0  0  0
  9 15  2  0  0  0
 10 13  1  0  0  0
 10 14  1  0  0  0
 20 22  1  0  0  0
 20 24  1  0  0  0
 21 23  1  0  0  0
 21 24  1  0  0  0
 22 25  1  0  0  0
 23 25  1  0  0  0
 17 18  1  0  0  0
 19 24  1  0  0  0
 14 15  1  0  0  0
 14 16  1  0  0  0
M  END
> <minimizedAffinity>
-7.63354

$$$$
3UI7_C1L_A_1


 25 28  0  0  0  0  0  0  0  0999 V2000
    7.6798   10.5402   43.1479 C   0  0  0  0  0  0  0  0  0  0  0  0
    7.1542   10.9334   45.4786 C   0  0  0  0  0  0  0  0  0  0  0  0
    8.3776    9.3696   43.5055 C   0  0  0  0  0  0  0  0  0  0  0  0
    9.6580    7.3956   42.9306 C   0  0  0  0  0  0  0  0  0  0  0  0
    7.8549    9.7588   45.8975 C   0  0  0  0  0  0  0  0  0  0  0  0
    8.9762    8.5609   42.4901 C   0  0  0  0  0  0  0  0  0  0  0  0
    8.4674    8.9600   44.9061 C   0  0  0  0  0  0  0  0  0  0  0  0
    7.0862   11.3524   44.1168 C   0  0  0  0  0  0  0  0  0  0  0  0
   10.3660    6.3251   42.3583 C   0  0  0  0  0  0  0  0  0  0  0  0
    9.7081    7.1367   44.3144 C   0  0  0  0  0  0  0  0  0  0  0  0
    7.9298    9.3987   47.3918 C   0  0  0  0  0  0  0  0  0  0  0  0
   10.7080    6.1335   40.9200 C   0  0  0  0  0  0  0  0  0  0  0  0
    9.1117    7.8407   45.3124 N   0  0  0  0  0  0  0  0  0  0  0  0
   10.4153    5.9975   44.4628 N   0  0  0  0  0  0  0  0  0  0  0  0
   10.8339    5.4842   43.3097 N   0  0  0  0  0  0  0  0  0  0  0  0
   10.6029    5.5870   45.3377 H   0  0  0  0  0  0  0  0  0  0  0  0
    5.0526   12.3984   43.4079 C   0  0  0  0  0  0  0  0  0  0  0  0
    6.4154   12.5254   43.8293 O   0  0  0  0  0  0  0  0  0  0  0  0
    8.9868    9.0239   41.0330 C   0  0  0  0  0  0  0  0  0  0  0  0
    8.3928    8.1585   38.7595 C   0  0  0  0  0  0  0  0  0  0  0  0
    6.6988    8.0732   40.5395 C   0  0  0  0  0  0  0  0  0  0  0  0
    7.7093    6.9844   38.0591 C   0  0  0  0  0  0  0  0  0  0  0  0
    6.0485    6.9180   39.7942 C   0  0  0  0  0  0  0  0  0  0  0  0
    8.1286    8.1033   40.2006 N   0  0  0  0  0  0  0  0  0  0  0  0
    6.3191    6.9544   38.3645 O   0  0  0  0  0  0  0  0  0  0  0  0
  1  3  1  0  0  0
  1  8  2  0  0  0
  2  5  2  0  0  0
  2  8  1  0  0  0
  3  6  2  0  0  0
  3  7  1  0  0  0
  4  6  1  0  0  0
  4  9  1  0  0  0
  4 10  2  0  0  0
  5  7  1  0  0  0
  5 11  1  0  0  0
  6 19  1  0  0  0
  7 13  2  0  0  0
  8 18  1  0  0  0
  9 12  1  0  0  0
  9 15  2  0  0  0
 10 13  1  0  0  0
 10 14  1  0  0  0
 20 22  1  0  0  0
 20 24  1  0  0  0
 21 23  1  0  0  0
 21 24  1  0  0  0
 22 25  1  0  0  0
 23 25  1  0  0  0
 17 18  1  0  0  0
 19 24  1  0  0  0
 14 15  1  0  0  0
 14 16  1  0  0  0
M  END
> <minimizedAffinity>
-7.37789

$$$$
