3E3C_HHG_A_150


 20 19  0  0  0  0  0  0  0  0999 V2000
    4.1954   25.1736   33.0272 C   0  0  0  0  0  0  0  0  0  0  0  0
    3.2742   24.1480   32.5995 O   0  0  0  0  0  0  0  0  0  0  0  0
    3.1818   24.1785   31.6343 H   0  0  0  0  0  0  0  0  0  0  0  0
    3.6746   26.5427   32.5966 C   0  0  0  0  0  0  0  0  0  0  0  0
    2.4833   26.8437   33.3166 O   0  0  0  0  0  0  0  0  0  0  0  0
    3.2599   29.2084   33.2700 O   0  0  0  0  0  0  0  0  0  0  0  0
    2.0628   28.3712   33.6599 P   0  0  0  0  0  0  0  0  0  0  0  0
    0.8306   28.6710   32.8379 O   0  0  0  0  0  0  0  0  0  0  0  0
    1.7508   28.4398   35.1435 O   0  0  0  0  0  0  0  0  0  0  0  0
    3.0737   30.1430   33.4513 H   0  0  0  0  0  0  0  0  0  0  0  0
    1.4952   29.3455   35.3786 H   0  0  0  0  0  0  0  0  0  0  0  0
    5.5726   24.9687   32.4022 C   0  0  0  0  0  0  0  0  0  0  0  0
    5.6606   25.6990   31.1760 O   0  0  0  0  0  0  0  0  0  0  0  0
    5.9278   25.0594   29.8893 C   0  0  0  0  0  0  0  0  0  0  0  0
    5.2360   24.1125   29.5039 O   0  0  0  0  0  0  0  0  0  0  0  0
    7.0791   25.6056   29.0641 C   0  0  0  0  0  0  0  0  0  0  0  0
    8.2101   26.1632   29.9216 C   0  0  0  0  0  0  0  0  0  0  0  0
    9.4051   25.2246   29.8810 C   0  0  0  0  0  0  0  0  0  0  0  0
   10.6480   25.9444   29.3807 C   0  0  0  0  0  0  0  0  0  0  0  0
   10.5125   27.4507   29.2931 C   0  0  0  0  0  0  0  0  0  0  0  0
  6  7  1  0  0  0
  7  8  2  0  0  0
  7  9  1  0  0  0
  7  5  1  0  0  0
  5  4  1  0  0  0
  4  1  1  0  0  0
  1  2  1  0  0  0
  1 12  1  0  0  0
 12 13  1  0  0  0
 13 14  1  0  0  0
 14 15  2  0  0  0
 14 16  1  0  0  0
 16 17  1  0  0  0
 17 18  1  0  0  0
 18 19  1  0  0  0
 19 20  1  0  0  0
  6 10  1  0  0  0
  9 11  1  0  0  0
  2  3  1  0  0  0
M  END
> <minimizedAffinity>
-7.43913

$$$$
3E3C_HHG_A_150


 20 19  0  0  0  0  0  0  0  0999 V2000
    5.6634   25.1574   32.4363 C   0  0  0  0  0  0  0  0  0  0  0  0
    5.2431   23.9267   33.0624 O   0  0  0  0  0  0  0  0  0  0  0  0
    4.8336   23.3497   32.3988 H   0  0  0  0  0  0  0  0  0  0  0  0
    4.4561   25.8545   31.8137 C   0  0  0  0  0  0  0  0  0  0  0  0
    3.9764   26.8562   32.7052 O   0  0  0  0  0  0  0  0  0  0  0  0
    1.8275   27.4166   33.8301 O   0  0  0  0  0  0  0  0  0  0  0  0
    3.0138   26.4876   33.9563 P   0  0  0  0  0  0  0  0  0  0  0  0
    2.6497   25.0291   33.8011 O   0  0  0  0  0  0  0  0  0  0  0  0
    3.8083   26.7123   35.2296 O   0  0  0  0  0  0  0  0  0  0  0  0
    1.2058   27.2474   34.5552 H   0  0  0  0  0  0  0  0  0  0  0  0
    3.2555   26.4989   35.9976 H   0  0  0  0  0  0  0  0  0  0  0  0
    6.6823   24.8904   31.3318 C   0  0  0  0  0  0  0  0  0  0  0  0
    6.7255   26.0030   30.4345 O   0  0  0  0  0  0  0  0  0  0  0  0
    7.7213   26.1268   29.3719 C   0  0  0  0  0  0  0  0  0  0  0  0
    7.3816   26.0836   28.1860 O   0  0  0  0  0  0  0  0  0  0  0  0
    9.1696   26.3064   29.7901 C   0  0  0  0  0  0  0  0  0  0  0  0
    9.9015   27.3521   28.9557 C   0  0  0  0  0  0  0  0  0  0  0  0
   11.1296   26.7339   28.3073 C   0  0  0  0  0  0  0  0  0  0  0  0
   12.1245   26.2656   29.3580 C   0  0  0  0  0  0  0  0  0  0  0  0
   13.2221   25.3645   28.8305 C   0  0  0  0  0  0  0  0  0  0  0  0
  6  7  1  0  0  0
  7  8  2  0  0  0
  7  9  1  0  0  0
  7  5  1  0  0  0
  5  4  1  0  0  0
  4  1  1  0  0  0
  1  2  1  0  0  0
  1 12  1  0  0  0
 12 13  1  0  0  0
 13 14  1  0  0  0
 14 15  2  0  0  0
 14 16  1  0  0  0
 16 17  1  0  0  0
 17 18  1  0  0  0
 18 19  1  0  0  0
 19 20  1  0  0  0
  6 10  1  0  0  0
  9 11  1  0  0  0
  2  3  1  0  0  0
M  END
> <minimizedAffinity>
-7.14215

$$$$
3E3C_HHG_A_150


 20 19  0  0  0  0  0  0  0  0999 V2000
    6.0546   24.8981   30.3454 C   0  0  0  0  0  0  0  0  0  0  0  0
    5.6765   25.6790   29.1919 O   0  0  0  0  0  0  0  0  0  0  0  0
    6.0315   26.5774   29.2791 H   0  0  0  0  0  0  0  0  0  0  0  0
    5.5069   25.5543   31.6107 C   0  0  0  0  0  0  0  0  0  0  0  0
    5.1346   24.5449   32.5438 O   0  0  0  0  0  0  0  0  0  0  0  0
    3.8048   25.8158   34.2212 O   0  0  0  0  0  0  0  0  0  0  0  0
    3.7178   24.5976   33.3299 P   0  0  0  0  0  0  0  0  0  0  0  0
    2.6448   24.7071   32.2713 O   0  0  0  0  0  0  0  0  0  0  0  0
    3.5760   23.3032   34.1093 O   0  0  0  0  0  0  0  0  0  0  0  0
    2.9810   25.9073   34.7250 H   0  0  0  0  0  0  0  0  0  0  0  0
    2.7342   23.3067   34.5913 H   0  0  0  0  0  0  0  0  0  0  0  0
    7.5729   24.8087   30.4732 C   0  0  0  0  0  0  0  0  0  0  0  0
    8.1478   26.1100   30.3286 O   0  0  0  0  0  0  0  0  0  0  0  0
    8.8601   26.5331   29.1246 C   0  0  0  0  0  0  0  0  0  0  0  0
    8.3461   26.3951   28.0108 O   0  0  0  0  0  0  0  0  0  0  0  0
   10.2402   27.1388   29.3066 C   0  0  0  0  0  0  0  0  0  0  0  0
   11.3297   26.3595   28.5781 C   0  0  0  0  0  0  0  0  0  0  0  0
   11.9059   25.2913   29.4932 C   0  0  0  0  0  0  0  0  0  0  0  0
   13.4263   25.3328   29.4914 C   0  0  0  0  0  0  0  0  0  0  0  0
   14.0639   25.0394   28.1489 C   0  0  0  0  0  0  0  0  0  0  0  0
  6  7  1  0  0  0
  7  8  2  0  0  0
  7  9  1  0  0  0
  7  5  1  0  0  0
  5  4  1  0  0  0
  4  1  1  0  0  0
  1  2  1  0  0  0
  1 12  1  0  0  0
 12 13  1  0  0  0
 13 14  1  0  0  0
 14 15  2  0  0  0
 14 16  1  0  0  0
 16 17  1  0  0  0
 17 18  1  0  0  0
 18 19  1  0  0  0
 19 20  1  0  0  0
  6 10  1  0  0  0
  9 11  1  0  0  0
  2  3  1  0  0  0
M  END
> <minimizedAffinity>
-6.96320

$$$$
3E3C_HHG_A_150


 20 19  0  0  0  0  0  0  0  0999 V2000
    4.8658   25.7073   31.8423 C   0  0  0  0  0  0  0  0  0  0  0  0
    6.0350   26.2566   32.4862 O   0  0  0  0  0  0  0  0  0  0  0  0
    6.6439   25.5380   32.7183 H   0  0  0  0  0  0  0  0  0  0  0  0
    4.1760   24.7235   32.7844 C   0  0  0  0  0  0  0  0  0  0  0  0
    2.9035   25.2412   33.1599 O   0  0  0  0  0  0  0  0  0  0  0  0
    4.1506   26.6833   34.7608 O   0  0  0  0  0  0  0  0  0  0  0  0
    2.7406   26.2766   34.3966 P   0  0  0  0  0  0  0  0  0  0  0  0
    1.9006   27.4245   33.8861 O   0  0  0  0  0  0  0  0  0  0  0  0
    2.0277   25.5443   35.5185 O   0  0  0  0  0  0  0  0  0  0  0  0
    4.1256   27.3087   35.5018 H   0  0  0  0  0  0  0  0  0  0  0  0
    1.9160   26.1415   36.2747 H   0  0  0  0  0  0  0  0  0  0  0  0
    5.2430   24.9608   30.5656 C   0  0  0  0  0  0  0  0  0  0  0  0
    5.9947   25.8216   29.7062 O   0  0  0  0  0  0  0  0  0  0  0  0
    7.4411   25.7036   29.5334 C   0  0  0  0  0  0  0  0  0  0  0  0
    8.1365   25.1794   30.4082 O   0  0  0  0  0  0  0  0  0  0  0  0
    8.0374   26.2494   28.2483 C   0  0  0  0  0  0  0  0  0  0  0  0
    9.5050   25.8753   28.0708 C   0  0  0  0  0  0  0  0  0  0  0  0
   10.3712   27.1230   28.1323 C   0  0  0  0  0  0  0  0  0  0  0  0
   11.2569   27.1123   29.3687 C   0  0  0  0  0  0  0  0  0  0  0  0
   12.3731   26.0887   29.3365 C   0  0  0  0  0  0  0  0  0  0  0  0
  6  7  1  0  0  0
  7  8  2  0  0  0
  7  9  1  0  0  0
  7  5  1  0  0  0
  5  4  1  0  0  0
  4  1  1  0  0  0
  1  2  1  0  0  0
  1 12  1  0  0  0
 12 13  1  0  0  0
 13 14  1  0  0  0
 14 15  2  0  0  0
 14 16  1  0  0  0
 16 17  1  0  0  0
 17 18  1  0  0  0
 18 19  1  0  0  0
 19 20  1  0  0  0
  6 10  1  0  0  0
  9 11  1  0  0  0
  2  3  1  0  0  0
M  END
> <minimizedAffinity>
-6.82318

$$$$
3E3C_HHG_A_150


 20 19  0  0  0  0  0  0  0  0999 V2000
    8.0804   25.7739   29.7955 C   0  0  0  0  0  0  0  0  0  0  0  0
    8.7038   24.5832   30.3216 O   0  0  0  0  0  0  0  0  0  0  0  0
    8.3971   23.8101   29.8225 H   0  0  0  0  0  0  0  0  0  0  0  0
    6.5627   25.6502   29.9071 C   0  0  0  0  0  0  0  0  0  0  0  0
    6.1426   26.1186   31.1848 O   0  0  0  0  0  0  0  0  0  0  0  0
    4.2171   24.6936   31.8626 O   0  0  0  0  0  0  0  0  0  0  0  0
    5.5980   25.1018   32.3238 P   0  0  0  0  0  0  0  0  0  0  0  0
    6.5760   23.9508   32.3732 O   0  0  0  0  0  0  0  0  0  0  0  0
    5.5832   25.8534   33.6421 O   0  0  0  0  0  0  0  0  0  0  0  0
    3.8301   24.0789   32.5054 H   0  0  0  0  0  0  0  0  0  0  0  0
    5.2605   25.2676   34.3447 H   0  0  0  0  0  0  0  0  0  0  0  0
    8.4359   25.9746   28.3248 C   0  0  0  0  0  0  0  0  0  0  0  0
    9.2306   27.1540   28.1760 O   0  0  0  0  0  0  0  0  0  0  0  0
   10.4477   27.3930   28.9489 C   0  0  0  0  0  0  0  0  0  0  0  0
   10.4375   28.1648   29.9123 O   0  0  0  0  0  0  0  0  0  0  0  0
   11.7047   26.6600   28.5160 C   0  0  0  0  0  0  0  0  0  0  0  0
   12.1029   25.5474   29.4798 C   0  0  0  0  0  0  0  0  0  0  0  0
   13.5781   25.2196   29.3151 C   0  0  0  0  0  0  0  0  0  0  0  0
   13.9600   25.1448   27.8448 C   0  0  0  0  0  0  0  0  0  0  0  0
   15.0827   24.1767   27.5328 C   0  0  0  0  0  0  0  0  0  0  0  0
  6  7  1  0  0  0
  7  8  2  0  0  0
  7  9  1  0  0  0
  7  5  1  0  0  0
  5  4  1  0  0  0
  4  1  1  0  0  0
  1  2  1  0  0  0
  1 12  1  0  0  0
 12 13  1  0  0  0
 13 14  1  0  0  0
 14 15  2  0  0  0
 14 16  1  0  0  0
 16 17  1  0  0  0
 17 18  1  0  0  0
 18 19  1  0  0  0
 19 20  1  0  0  0
  6 10  1  0  0  0
  9 11  1  0  0  0
  2  3  1  0  0  0
M  END
> <minimizedAffinity>
-6.44398

$$$$
3E3C_HHG_A_150


 20 19  0  0  0  0  0  0  0  0999 V2000
    8.8631   26.2805   28.5913 C   0  0  0  0  0  0  0  0  0  0  0  0
    9.0378   26.8642   29.8998 O   0  0  0  0  0  0  0  0  0  0  0  0
    8.9738   26.1702   30.5745 H   0  0  0  0  0  0  0  0  0  0  0  0
    7.4986   25.6001   28.5113 C   0  0  0  0  0  0  0  0  0  0  0  0
    6.6543   26.1107   29.5383 O   0  0  0  0  0  0  0  0  0  0  0  0
    5.0422   24.4714   30.4928 O   0  0  0  0  0  0  0  0  0  0  0  0
    6.2958   25.2354   30.8548 P   0  0  0  0  0  0  0  0  0  0  0  0
    7.4869   24.3417   31.1122 O   0  0  0  0  0  0  0  0  0  0  0  0
    6.0878   26.2014   32.0066 O   0  0  0  0  0  0  0  0  0  0  0  0
    4.7702   23.9217   31.2443 H   0  0  0  0  0  0  0  0  0  0  0  0
    5.8711   25.7040   32.8107 H   0  0  0  0  0  0  0  0  0  0  0  0
    9.9362   25.2321   28.3110 C   0  0  0  0  0  0  0  0  0  0  0  0
   10.8908   25.2205   29.3757 O   0  0  0  0  0  0  0  0  0  0  0  0
   12.1084   26.0286   29.3581 C   0  0  0  0  0  0  0  0  0  0  0  0
   12.0504   27.2534   29.5002 O   0  0  0  0  0  0  0  0  0  0  0  0
   13.4259   25.3012   29.1582 C   0  0  0  0  0  0  0  0  0  0  0  0
   13.7409   25.0393   27.6893 C   0  0  0  0  0  0  0  0  0  0  0  0
   15.0111   24.2130   27.5688 C   0  0  0  0  0  0  0  0  0  0  0  0
   15.7026   24.4657   26.2379 C   0  0  0  0  0  0  0  0  0  0  0  0
   15.6294   25.8983   25.7508 C   0  0  0  0  0  0  0  0  0  0  0  0
  6  7  1  0  0  0
  7  8  2  0  0  0
  7  9  1  0  0  0
  7  5  1  0  0  0
  5  4  1  0  0  0
  4  1  1  0  0  0
  1  2  1  0  0  0
  1 12  1  0  0  0
 12 13  1  0  0  0
 13 14  1  0  0  0
 14 15  2  0  0  0
 14 16  1  0  0  0
 16 17  1  0  0  0
 17 18  1  0  0  0
 18 19  1  0  0  0
 19 20  1  0  0  0
  6 10  1  0  0  0
  9 11  1  0  0  0
  2  3  1  0  0  0
M  END
> <minimizedAffinity>
-6.28894

$$$$
3E3C_HHG_A_150


 20 19  0  0  0  0  0  0  0  0999 V2000
    6.2332   25.8219   30.9054 C   0  0  0  0  0  0  0  0  0  0  0  0
    7.0434   26.5973   31.8141 O   0  0  0  0  0  0  0  0  0  0  0  0
    7.3523   26.0291   32.5370 H   0  0  0  0  0  0  0  0  0  0  0  0
    5.0387   25.2369   31.6551 C   0  0  0  0  0  0  0  0  0  0  0  0
    4.9718   25.8082   32.9579 O   0  0  0  0  0  0  0  0  0  0  0  0
    2.6468   26.6948   32.8847 O   0  0  0  0  0  0  0  0  0  0  0  0
    3.5740   25.8977   33.7740 P   0  0  0  0  0  0  0  0  0  0  0  0
    3.1146   24.4748   33.9935 O   0  0  0  0  0  0  0  0  0  0  0  0
    3.8577   26.5828   35.0981 O   0  0  0  0  0  0  0  0  0  0  0  0
    1.7835   26.7868   33.3175 H   0  0  0  0  0  0  0  0  0  0  0  0
    3.0363   26.6504   35.6097 H   0  0  0  0  0  0  0  0  0  0  0  0
    7.0326   24.6678   30.3067 C   0  0  0  0  0  0  0  0  0  0  0  0
    8.4319   24.9416   30.4144 O   0  0  0  0  0  0  0  0  0  0  0  0
    9.1394   25.8300   29.4944 C   0  0  0  0  0  0  0  0  0  0  0  0
    9.4323   26.9800   29.8339 O   0  0  0  0  0  0  0  0  0  0  0  0
    9.4892   25.2798   28.1234 C   0  0  0  0  0  0  0  0  0  0  0  0
   10.9821   25.0196   27.9530 C   0  0  0  0  0  0  0  0  0  0  0  0
   11.4518   25.5467   26.6068 C   0  0  0  0  0  0  0  0  0  0  0  0
   12.9455   25.8327   26.6234 C   0  0  0  0  0  0  0  0  0  0  0  0
   13.3686   27.0269   25.7929 C   0  0  0  0  0  0  0  0  0  0  0  0
  6  7  1  0  0  0
  7  8  2  0  0  0
  7  9  1  0  0  0
  7  5  1  0  0  0
  5  4  1  0  0  0
  4  1  1  0  0  0
  1  2  1  0  0  0
  1 12  1  0  0  0
 12 13  1  0  0  0
 13 14  1  0  0  0
 14 15  2  0  0  0
 14 16  1  0  0  0
 16 17  1  0  0  0
 17 18  1  0  0  0
 18 19  1  0  0  0
 19 20  1  0  0  0
  6 10  1  0  0  0
  9 11  1  0  0  0
  2  3  1  0  0  0
M  END
> <minimizedAffinity>
-6.17758

$$$$
3E3C_HHG_A_150


 20 19  0  0  0  0  0  0  0  0999 V2000
    8.8187   26.1537   29.2770 C   0  0  0  0  0  0  0  0  0  0  0  0
    9.3235   27.3353   29.9345 O   0  0  0  0  0  0  0  0  0  0  0  0
    9.1176   27.2914   30.8814 H   0  0  0  0  0  0  0  0  0  0  0  0
    7.3080   26.0609   29.4779 C   0  0  0  0  0  0  0  0  0  0  0  0
    7.0074   26.1742   30.8654 O   0  0  0  0  0  0  0  0  0  0  0  0
    4.9665   26.3549   32.2794 O   0  0  0  0  0  0  0  0  0  0  0  0
    5.8004   25.3307   31.5433 P   0  0  0  0  0  0  0  0  0  0  0  0
    5.0590   24.6587   30.4108 O   0  0  0  0  0  0  0  0  0  0  0  0
    6.4223   24.2997   32.4672 O   0  0  0  0  0  0  0  0  0  0  0  0
    4.2195   25.9128   32.7123 H   0  0  0  0  0  0  0  0  0  0  0  0
    5.7212   23.7783   32.8883 H   0  0  0  0  0  0  0  0  0  0  0  0
    9.4551   24.8917   29.8530 C   0  0  0  0  0  0  0  0  0  0  0  0
   10.8769   25.0398   29.8880 O   0  0  0  0  0  0  0  0  0  0  0  0
   11.7308   24.7731   28.7322 C   0  0  0  0  0  0  0  0  0  0  0  0
   11.2660   24.2464   27.7172 O   0  0  0  0  0  0  0  0  0  0  0  0
   13.1931   25.1669   28.8392 C   0  0  0  0  0  0  0  0  0  0  0  0
   13.8426   25.4071   27.4806 C   0  0  0  0  0  0  0  0  0  0  0  0
   15.1462   24.6313   27.3826 C   0  0  0  0  0  0  0  0  0  0  0  0
   15.7010   24.6727   25.9670 C   0  0  0  0  0  0  0  0  0  0  0  0
   16.2168   26.0287   25.5308 C   0  0  0  0  0  0  0  0  0  0  0  0
  6  7  1  0  0  0
  7  8  2  0  0  0
  7  9  1  0  0  0
  7  5  1  0  0  0
  5  4  1  0  0  0
  4  1  1  0  0  0
  1  2  1  0  0  0
  1 12  1  0  0  0
 12 13  1  0  0  0
 13 14  1  0  0  0
 14 15  2  0  0  0
 14 16  1  0  0  0
 16 17  1  0  0  0
 17 18  1  0  0  0
 18 19  1  0  0  0
 19 20  1  0  0  0
  6 10  1  0  0  0
  9 11  1  0  0  0
  2  3  1  0  0  0
M  END
> <minimizedAffinity>
-6.14149

$$$$
3E3C_HHG_A_150


 20 19  0  0  0  0  0  0  0  0999 V2000
    9.7995   26.8721   28.8595 C   0  0  0  0  0  0  0  0  0  0  0  0
    9.7955   27.8566   29.9151 O   0  0  0  0  0  0  0  0  0  0  0  0
   10.4383   27.6033   30.5959 H   0  0  0  0  0  0  0  0  0  0  0  0
    9.4391   25.5038   29.4332 C   0  0  0  0  0  0  0  0  0  0  0  0
    8.1343   25.1364   28.9963 O   0  0  0  0  0  0  0  0  0  0  0  0
    6.6742   23.8881   30.5797 O   0  0  0  0  0  0  0  0  0  0  0  0
    6.8464   25.2621   29.9727 P   0  0  0  0  0  0  0  0  0  0  0  0
    7.1832   26.3271   30.9906 O   0  0  0  0  0  0  0  0  0  0  0  0
    5.6635   25.6852   29.1213 O   0  0  0  0  0  0  0  0  0  0  0  0
    5.9128   23.8932   31.1806 H   0  0  0  0  0  0  0  0  0  0  0  0
    4.8757   25.7687   29.6810 H   0  0  0  0  0  0  0  0  0  0  0  0
   11.1771   26.7697   28.2107 C   0  0  0  0  0  0  0  0  0  0  0  0
   12.1756   26.5990   29.2200 O   0  0  0  0  0  0  0  0  0  0  0  0
   13.1958   25.5544   29.1578 C   0  0  0  0  0  0  0  0  0  0  0  0
   13.8258   25.2320   30.1692 O   0  0  0  0  0  0  0  0  0  0  0  0
   13.4406   24.8971   27.8114 C   0  0  0  0  0  0  0  0  0  0  0  0
   14.9203   24.8162   27.4521 C   0  0  0  0  0  0  0  0  0  0  0  0
   15.1018   24.9860   25.9525 C   0  0  0  0  0  0  0  0  0  0  0  0
   16.1489   26.0455   25.6457 C   0  0  0  0  0  0  0  0  0  0  0  0
   15.5851   27.3810   25.2057 C   0  0  0  0  0  0  0  0  0  0  0  0
  6  7  1  0  0  0
  7  8  2  0  0  0
  7  9  1  0  0  0
  7  5  1  0  0  0
  5  4  1  0  0  0
  4  1  1  0  0  0
  1  2  1  0  0  0
  1 12  1  0  0  0
 12 13  1  0  0  0
 13 14  1  0  0  0
 14 15  2  0  0  0
 14 16  1  0  0  0
 16 17  1  0  0  0
 17 18  1  0  0  0
 18 19  1  0  0  0
 19 20  1  0  0  0
  6 10  1  0  0  0
  9 11  1  0  0  0
  2  3  1  0  0  0
M  END
> <minimizedAffinity>
-6.11408

$$$$
3E3C_HHG_A_150


 20 19  0  0  0  0  0  0  0  0999 V2000
    9.7340   25.9280   29.6337 C   0  0  0  0  0  0  0  0  0  0  0  0
    9.8395   24.5204   29.9348 O   0  0  0  0  0  0  0  0  0  0  0  0
    9.1583   24.0331   29.4455 H   0  0  0  0  0  0  0  0  0  0  0  0
    8.3479   26.4340   30.0263 C   0  0  0  0  0  0  0  0  0  0  0  0
    7.3551   25.6154   29.4159 O   0  0  0  0  0  0  0  0  0  0  0  0
    7.0149   23.8861   31.1741 O   0  0  0  0  0  0  0  0  0  0  0  0
    6.2364   24.8401   30.2965 P   0  0  0  0  0  0  0  0  0  0  0  0
    5.4955   25.9009   31.0773 O   0  0  0  0  0  0  0  0  0  0  0  0
    5.3037   24.1300   29.3328 O   0  0  0  0  0  0  0  0  0  0  0  0
    6.3997   23.3855   31.7325 H   0  0  0  0  0  0  0  0  0  0  0  0
    4.6214   23.6558   29.8334 H   0  0  0  0  0  0  0  0  0  0  0  0
    9.9312   26.1858   28.1423 C   0  0  0  0  0  0  0  0  0  0  0  0
   11.2875   26.5634   27.8921 O   0  0  0  0  0  0  0  0  0  0  0  0
   12.2356   25.6983   27.1930 C   0  0  0  0  0  0  0  0  0  0  0  0
   12.3763   25.7817   25.9695 O   0  0  0  0  0  0  0  0  0  0  0  0
   13.0247   24.7076   28.0301 C   0  0  0  0  0  0  0  0  0  0  0  0
   14.5086   25.0497   28.1101 C   0  0  0  0  0  0  0  0  0  0  0  0
   15.3206   24.0294   27.3288 C   0  0  0  0  0  0  0  0  0  0  0  0
   15.6703   24.5541   25.9447 C   0  0  0  0  0  0  0  0  0  0  0  0
   15.8919   26.0510   25.8748 C   0  0  0  0  0  0  0  0  0  0  0  0
  6  7  1  0  0  0
  7  8  2  0  0  0
  7  9  1  0  0  0
  7  5  1  0  0  0
  5  4  1  0  0  0
  4  1  1  0  0  0
  1  2  1  0  0  0
  1 12  1  0  0  0
 12 13  1  0  0  0
 13 14  1  0  0  0
 14 15  2  0  0  0
 14 16  1  0  0  0
 16 17  1  0  0  0
 17 18  1  0  0  0
 18 19  1  0  0  0
 19 20  1  0  0  0
  6 10  1  0  0  0
  9 11  1  0  0  0
  2  3  1  0  0  0
M  END
> <minimizedAffinity>
-6.05292

$$$$
