4B5T_2KT_A_4000


  8  7  0  0  0  0  0  0  0  0999 V2000
  -19.6117   -6.5176    9.3362 C   0  0  0  0  0  0  0  0  0  0  0  0
  -19.0440   -5.4294    9.4006 O   0  0  0  0  0  0  0  0  0  0  0  0
  -19.0036   -7.7805    8.7654 C   0  0  0  0  0  0  0  0  0  0  0  0
  -17.8062   -8.1344    8.9760 O   0  0  0  0  0  0  0  0  0  0  0  0
  -19.6768   -8.4754    7.9617 O   0  0  0  0  0  0  0  0  0  0  0  0
  -17.2700   -7.6442    9.5677 H   0  0  0  0  0  0  0  0  0  0  0  0
  -21.1485   -7.4251   11.0936 C   0  0  0  0  0  0  0  0  0  0  0  0
  -20.9859   -6.5750    9.8818 C   0  0  0  0  0  0  0  0  0  0  0  0
  7  8  1  0  0  0
  8  1  1  0  0  0
  1  2  2  0  0  0
  1  3  1  0  0  0
  3  4  1  0  0  0
  3  5  2  0  0  0
  4  6  1  0  0  0
M  END
> <minimizedAffinity>
-5.10009

$$$$
4B5T_2KT_A_4000


  8  7  0  0  0  0  0  0  0  0999 V2000
  -19.5683   -6.4322    9.7719 C   0  0  0  0  0  0  0  0  0  0  0  0
  -18.9781   -5.4427    9.3441 O   0  0  0  0  0  0  0  0  0  0  0  0
  -19.2752   -7.1140   11.0909 C   0  0  0  0  0  0  0  0  0  0  0  0
  -18.1038   -7.2973   11.5355 O   0  0  0  0  0  0  0  0  0  0  0  0
  -20.2249   -7.6156   11.7455 O   0  0  0  0  0  0  0  0  0  0  0  0
  -17.3679   -6.9406   11.0782 H   0  0  0  0  0  0  0  0  0  0  0  0
  -20.3192   -8.2084    8.1733 C   0  0  0  0  0  0  0  0  0  0  0  0
  -20.6560   -6.9665    8.9228 C   0  0  0  0  0  0  0  0  0  0  0  0
  7  8  1  0  0  0
  8  1  1  0  0  0
  1  2  2  0  0  0
  1  3  1  0  0  0
  3  4  1  0  0  0
  3  5  2  0  0  0
  4  6  1  0  0  0
M  END
> <minimizedAffinity>
-5.07139

$$$$
4B5T_2KT_A_4000


  8  7  0  0  0  0  0  0  0  0999 V2000
  -19.6361   -6.4708    9.3643 C   0  0  0  0  0  0  0  0  0  0  0  0
  -19.0657   -5.3930    9.5182 O   0  0  0  0  0  0  0  0  0  0  0  0
  -19.1091   -7.6198    8.5320 C   0  0  0  0  0  0  0  0  0  0  0  0
  -19.8480   -8.5294    8.0526 O   0  0  0  0  0  0  0  0  0  0  0  0
  -17.8670   -7.7465    8.3796 O   0  0  0  0  0  0  0  0  0  0  0  0
  -20.7789   -8.4737    8.1441 H   0  0  0  0  0  0  0  0  0  0  0  0
  -20.8673   -7.4904   11.2927 C   0  0  0  0  0  0  0  0  0  0  0  0
  -20.9245   -6.6392   10.0721 C   0  0  0  0  0  0  0  0  0  0  0  0
  7  8  1  0  0  0
  8  1  1  0  0  0
  1  2  2  0  0  0
  1  3  1  0  0  0
  3  4  1  0  0  0
  3  5  2  0  0  0
  4  6  1  0  0  0
M  END
> <minimizedAffinity>
-4.95365

$$$$
4B5T_2KT_A_4000


  8  7  0  0  0  0  0  0  0  0999 V2000
  -18.9855   -7.7469    8.7913 C   0  0  0  0  0  0  0  0  0  0  0  0
  -17.8516   -7.7500    8.3170 O   0  0  0  0  0  0  0  0  0  0  0  0
  -19.6713   -6.5385    9.3912 C   0  0  0  0  0  0  0  0  0  0  0  0
  -20.8737   -6.5451    9.7884 O   0  0  0  0  0  0  0  0  0  0  0  0
  -19.0626   -5.4381    9.4158 O   0  0  0  0  0  0  0  0  0  0  0  0
  -21.3633   -7.3440    9.7864 H   0  0  0  0  0  0  0  0  0  0  0  0
  -20.5141   -9.2555    7.5022 C   0  0  0  0  0  0  0  0  0  0  0  0
  -19.7215   -9.0296    8.7425 C   0  0  0  0  0  0  0  0  0  0  0  0
  7  8  1  0  0  0
  8  1  1  0  0  0
  1  2  2  0  0  0
  1  3  1  0  0  0
  3  4  1  0  0  0
  3  5  2  0  0  0
  4  6  1  0  0  0
M  END
> <minimizedAffinity>
-4.94098

$$$$
4B5T_2KT_A_4000


  8  7  0  0  0  0  0  0  0  0999 V2000
  -18.9585   -7.8125    8.9765 C   0  0  0  0  0  0  0  0  0  0  0  0
  -17.9896   -7.5560    8.2650 O   0  0  0  0  0  0  0  0  0  0  0  0
  -18.9062   -8.0045   10.4768 C   0  0  0  0  0  0  0  0  0  0  0  0
  -17.8285   -8.0091   11.1417 O   0  0  0  0  0  0  0  0  0  0  0  0
  -19.9673   -8.2700   11.0976 O   0  0  0  0  0  0  0  0  0  0  0  0
  -17.0155   -7.8165   10.7175 H   0  0  0  0  0  0  0  0  0  0  0  0
  -20.4881   -9.1875    7.5469 C   0  0  0  0  0  0  0  0  0  0  0  0
  -20.2663   -7.9176    8.2924 C   0  0  0  0  0  0  0  0  0  0  0  0
  7  8  1  0  0  0
  8  1  1  0  0  0
  1  2  2  0  0  0
  1  3  1  0  0  0
  3  4  1  0  0  0
  3  5  2  0  0  0
  4  6  1  0  0  0
M  END
> <minimizedAffinity>
-4.79638

$$$$
4B5T_2KT_A_4000


  8  7  0  0  0  0  0  0  0  0999 V2000
  -19.1700   -7.7507   10.3124 C   0  0  0  0  0  0  0  0  0  0  0  0
  -18.2625   -7.5764   11.1229 O   0  0  0  0  0  0  0  0  0  0  0  0
  -19.4592   -6.8540    9.1281 C   0  0  0  0  0  0  0  0  0  0  0  0
  -20.0302   -7.2566    8.0720 O   0  0  0  0  0  0  0  0  0  0  0  0
  -19.0321   -5.6710    9.1369 O   0  0  0  0  0  0  0  0  0  0  0  0
  -20.3628   -8.1312    8.0236 H   0  0  0  0  0  0  0  0  0  0  0  0
  -21.2578   -8.7081   11.3117 C   0  0  0  0  0  0  0  0  0  0  0  0
  -20.0176   -8.9453   10.5223 C   0  0  0  0  0  0  0  0  0  0  0  0
  7  8  1  0  0  0
  8  1  1  0  0  0
  1  2  2  0  0  0
  1  3  1  0  0  0
  3  4  1  0  0  0
  3  5  2  0  0  0
  4  6  1  0  0  0
M  END
> <minimizedAffinity>
-4.70514

$$$$
4B5T_2KT_A_4000


  8  7  0  0  0  0  0  0  0  0999 V2000
  -20.2545   -7.6246   11.0219 C   0  0  0  0  0  0  0  0  0  0  0  0
  -20.9107   -8.5096   11.5668 O   0  0  0  0  0  0  0  0  0  0  0  0
  -18.7450   -7.5200   11.0535 C   0  0  0  0  0  0  0  0  0  0  0  0
  -17.9838   -8.1902   10.2953 O   0  0  0  0  0  0  0  0  0  0  0  0
  -18.1987   -6.8090   11.9356 O   0  0  0  0  0  0  0  0  0  0  0  0
  -18.3500   -8.7328    9.6250 H   0  0  0  0  0  0  0  0  0  0  0  0
  -20.6957   -6.5183    8.8184 C   0  0  0  0  0  0  0  0  0  0  0  0
  -21.0211   -6.6075   10.2688 C   0  0  0  0  0  0  0  0  0  0  0  0
  7  8  1  0  0  0
  8  1  1  0  0  0
  1  2  2  0  0  0
  1  3  1  0  0  0
  3  4  1  0  0  0
  3  5  2  0  0  0
  4  6  1  0  0  0
M  END
> <minimizedAffinity>
-4.53833

$$$$
4B5T_2KT_A_4000


  8  7  0  0  0  0  0  0  0  0999 V2000
  -19.9184   -8.7205    8.2780 C   0  0  0  0  0  0  0  0  0  0  0  0
  -20.4734   -8.6987    7.1816 O   0  0  0  0  0  0  0  0  0  0  0  0
  -18.8049   -7.7887    8.7052 C   0  0  0  0  0  0  0  0  0  0  0  0
  -17.6148   -8.1713    8.9067 O   0  0  0  0  0  0  0  0  0  0  0  0
  -19.0776   -6.5900    8.9711 O   0  0  0  0  0  0  0  0  0  0  0  0
  -17.3695   -9.0565    8.7217 H   0  0  0  0  0  0  0  0  0  0  0  0
  -20.5960   -9.2365   10.6336 C   0  0  0  0  0  0  0  0  0  0  0  0
  -20.4074   -9.7312    9.2418 C   0  0  0  0  0  0  0  0  0  0  0  0
  7  8  1  0  0  0
  8  1  1  0  0  0
  1  2  2  0  0  0
  1  3  1  0  0  0
  3  4  1  0  0  0
  3  5  2  0  0  0
  4  6  1  0  0  0
M  END
> <minimizedAffinity>
-4.48552

$$$$
4B5T_2KT_A_4000


  8  7  0  0  0  0  0  0  0  0999 V2000
  -19.2737   -7.8749    8.7537 C   0  0  0  0  0  0  0  0  0  0  0  0
  -18.1737   -7.4230    8.4430 O   0  0  0  0  0  0  0  0  0  0  0  0
  -19.5433   -9.3139    9.1373 C   0  0  0  0  0  0  0  0  0  0  0  0
  -19.1312   -9.8371   10.2142 O   0  0  0  0  0  0  0  0  0  0  0  0
  -20.1210  -10.0692    8.3140 O   0  0  0  0  0  0  0  0  0  0  0  0
  -18.6955   -9.3097   10.8545 H   0  0  0  0  0  0  0  0  0  0  0  0
  -20.9405   -6.5912   10.1130 C   0  0  0  0  0  0  0  0  0  0  0  0
  -20.3993   -6.9145    8.7639 C   0  0  0  0  0  0  0  0  0  0  0  0
  7  8  1  0  0  0
  8  1  1  0  0  0
  1  2  2  0  0  0
  1  3  1  0  0  0
  3  4  1  0  0  0
  3  5  2  0  0  0
  4  6  1  0  0  0
M  END
> <minimizedAffinity>
-4.47969

$$$$
4B5T_2KT_A_4000


  8  7  0  0  0  0  0  0  0  0999 V2000
  -19.7794   -8.5765    9.5010 C   0  0  0  0  0  0  0  0  0  0  0  0
  -20.2807   -8.5532   10.6230 O   0  0  0  0  0  0  0  0  0  0  0  0
  -18.8296   -7.5331    8.9536 C   0  0  0  0  0  0  0  0  0  0  0  0
  -17.7463   -7.8180    8.3631 O   0  0  0  0  0  0  0  0  0  0  0  0
  -19.0642   -6.3168    9.1717 O   0  0  0  0  0  0  0  0  0  0  0  0
  -17.5329   -8.7121    8.1813 H   0  0  0  0  0  0  0  0  0  0  0  0
  -20.6674   -9.3838    7.3024 C   0  0  0  0  0  0  0  0  0  0  0  0
  -20.1325   -9.7326    8.6477 C   0  0  0  0  0  0  0  0  0  0  0  0
  7  8  1  0  0  0
  8  1  1  0  0  0
  1  2  2  0  0  0
  1  3  1  0  0  0
  3  4  1  0  0  0
  3  5  2  0  0  0
  4  6  1  0  0  0
M  END
> <minimizedAffinity>
-4.34640

$$$$
