6F1N_C8W_A_302


 38 40  0  0  0  0  0  0  0  0999 V2000
   63.3718   33.6674   25.1491 C   0  0  0  0  0  0  0  0  0  0  0  0
   64.6982   33.7627   25.6593 C   0  0  0  0  0  0  0  0  0  0  0  0
   63.8978   35.0024   23.3126 C   0  0  0  0  0  0  0  0  0  0  0  0
   65.2215   35.2166   23.7449 C   0  0  0  0  0  0  0  0  0  0  0  0
   65.9518   36.0881   22.8159 C   0  0  0  0  0  0  0  0  0  0  0  0
   63.5922   35.8641   21.8170 S   0  0  0  0  0  0  0  0  0  0  0  0
   65.2221   36.5065   21.7339 C   0  0  0  0  0  0  0  0  0  0  0  0
   62.3941   32.9507   25.7984 N   0  0  0  0  0  0  0  0  0  0  0  0
   63.0385   34.2452   24.0160 N   0  0  0  0  0  0  0  0  0  0  0  0
   67.2838   36.4708   22.9870 N   0  0  0  0  0  0  0  0  0  0  0  0
   65.6385   34.5563   24.9568 C   0  0  0  0  0  0  0  0  0  0  0  0
   61.4860   32.9031   25.4210 H   0  0  0  0  0  0  0  0  0  0  0  0
   62.6022   32.4853   26.6405 H   0  0  0  0  0  0  0  0  0  0  0  0
   67.7159   37.0586   22.3259 H   0  0  0  0  0  0  0  0  0  0  0  0
   67.7908   36.1529   23.7687 H   0  0  0  0  0  0  0  0  0  0  0  0
   69.2497   33.9362   25.9603 C   0  0  0  0  0  0  0  0  0  0  0  0
   67.9872   33.7175   25.4202 C   0  0  0  0  0  0  0  0  0  0  0  0
   67.0138   34.7281   25.4946 C   0  0  0  0  0  0  0  0  0  0  0  0
   67.3279   35.9305   26.1425 C   0  0  0  0  0  0  0  0  0  0  0  0
   68.5992   36.1541   26.6718 C   0  0  0  0  0  0  0  0  0  0  0  0
   69.5803   35.1511   26.5737 C   0  0  0  0  0  0  0  0  0  0  0  0
   70.8300   35.3870   27.1028 O   0  0  0  0  0  0  0  0  0  0  0  0
   71.8361   34.3669   27.1826 C   0  0  0  0  0  0  0  0  0  0  0  0
   68.8930   37.3351   27.2946 O   0  0  0  0  0  0  0  0  0  0  0  0
   67.8759   38.3429   27.4664 C   0  0  0  0  0  0  0  0  0  0  0  0
   68.3880   39.7290   27.0508 C   0  0  0  0  0  0  0  0  0  0  0  0
   67.4830   40.3750   25.9895 C   0  0  0  0  0  0  0  0  0  0  0  0
   67.1570   39.4289   24.8518 C   0  0  0  0  0  0  0  0  0  0  0  0
   67.9989   39.1631   24.0190 O   0  0  0  0  0  0  0  0  0  0  0  0
   65.9324   38.8723   24.7651 O   0  0  0  0  0  0  0  0  0  0  0  0
   68.8515   39.5477   24.0754 H   0  0  0  0  0  0  0  0  0  0  0  0
   65.2627   37.1199   19.4009 N   0  0  0  0  0  0  0  0  0  0  0  0
   65.6941   37.3317   20.6592 C   0  0  0  0  0  0  0  0  0  0  0  0
   66.5327   38.2055   20.8400 O   0  0  0  0  0  0  0  0  0  0  0  0
   65.5891   37.6883   18.6663 H   0  0  0  0  0  0  0  0  0  0  0  0
   64.6211   36.3966   19.2157 H   0  0  0  0  0  0  0  0  0  0  0  0
   65.0864   33.0942   26.8831 C   0  0  0  0  0  0  0  0  0  0  0  0
   65.4011   32.5342   27.8249 N   0  0  0  0  0  0  0  0  0  0  0  0
 32 33  1  0  0  0
 34 33  2  0  0  0
 33  7  1  0  0  0
  7  6  1  0  0  0
  7  5  2  0  0  0
  6  3  1  0  0  0
  5 10  1  0  0  0
  5  4  1  0  0  0
  3  4  2  0  0  0
  3  9  1  0  0  0
  4 11  1  0  0  0
  9  1  2  0  0  0
 11 18  1  0  0  0
 11  2  2  0  0  0
  1  2  1  0  0  0
  1  8  1  0  0  0
 30 28  2  0  0  0
 17 18  2  0  0  0
 17 16  1  0  0  0
 18 19  1  0  0  0
  2 37  1  0  0  0
 16 21  2  0  0  0
 19 20  2  0  0  0
 21 20  1  0  0  0
 21 22  1  0  0  0
 20 24  1  0  0  0
 28 29  1  0  0  0
 28 27  1  0  0  0
 37 38  3  0  0  0
 23 22  1  0  0  0
 24 25  1  0  0  0
 25 26  1  0  0  0
 27 26  1  0  0  0
 32 35  1  0  0  0
 32 36  1  0  0  0
  8 12  1  0  0  0
  8 13  1  0  0  0
 10 14  1  0  0  0
 10 15  1  0  0  0
 29 31  1  0  0  0
M  END
> <minimizedAffinity>
-8.72431

$$$$
6F1N_C8W_A_302


 38 40  0  0  0  0  0  0  0  0999 V2000
   69.3642   36.8383   28.1661 C   0  0  0  0  0  0  0  0  0  0  0  0
   68.6252   36.5084   26.9941 C   0  0  0  0  0  0  0  0  0  0  0  0
   68.5767   39.0317   28.1408 C   0  0  0  0  0  0  0  0  0  0  0  0
   67.8482   38.8422   26.9499 C   0  0  0  0  0  0  0  0  0  0  0  0
   67.1673   40.0765   26.5388 C   0  0  0  0  0  0  0  0  0  0  0  0
   68.4155   40.6837   28.7042 S   0  0  0  0  0  0  0  0  0  0  0  0
   67.3642   41.1425   27.3774 C   0  0  0  0  0  0  0  0  0  0  0  0
   70.1599   35.9171   28.8058 N   0  0  0  0  0  0  0  0  0  0  0  0
   69.2914   38.0388   28.6975 N   0  0  0  0  0  0  0  0  0  0  0  0
   66.3699   40.1862   25.3977 N   0  0  0  0  0  0  0  0  0  0  0  0
   67.8625   37.5240   26.3662 C   0  0  0  0  0  0  0  0  0  0  0  0
   70.6590   36.1748   29.6144 H   0  0  0  0  0  0  0  0  0  0  0  0
   70.2305   34.9999   28.4552 H   0  0  0  0  0  0  0  0  0  0  0  0
   65.9405   41.0444   25.1778 H   0  0  0  0  0  0  0  0  0  0  0  0
   66.2372   39.4053   24.8130 H   0  0  0  0  0  0  0  0  0  0  0  0
   66.9146   37.2328   22.6989 C   0  0  0  0  0  0  0  0  0  0  0  0
   67.6611   37.5151   23.8375 C   0  0  0  0  0  0  0  0  0  0  0  0
   67.1294   37.2304   25.1067 C   0  0  0  0  0  0  0  0  0  0  0  0
   65.8382   36.6934   25.1997 C   0  0  0  0  0  0  0  0  0  0  0  0
   65.0956   36.3977   24.0563 C   0  0  0  0  0  0  0  0  0  0  0  0
   65.6397   36.6596   22.7860 C   0  0  0  0  0  0  0  0  0  0  0  0
   64.8930   36.3633   21.6670 O   0  0  0  0  0  0  0  0  0  0  0  0
   65.0434   37.0773   20.4314 C   0  0  0  0  0  0  0  0  0  0  0  0
   63.8402   35.8674   24.1628 O   0  0  0  0  0  0  0  0  0  0  0  0
   63.5105   34.9847   25.2545 C   0  0  0  0  0  0  0  0  0  0  0  0
   63.9544   33.5447   24.9615 C   0  0  0  0  0  0  0  0  0  0  0  0
   64.1406   32.7329   26.2533 C   0  0  0  0  0  0  0  0  0  0  0  0
   62.8536   32.5925   27.0405 C   0  0  0  0  0  0  0  0  0  0  0  0
   62.7435   33.1189   28.1287 O   0  0  0  0  0  0  0  0  0  0  0  0
   61.8227   31.8889   26.5313 O   0  0  0  0  0  0  0  0  0  0  0  0
   63.4575   33.6089   28.4865 H   0  0  0  0  0  0  0  0  0  0  0  0
   66.6101   43.2327   28.3170 N   0  0  0  0  0  0  0  0  0  0  0  0
   66.7934   42.4512   27.2354 C   0  0  0  0  0  0  0  0  0  0  0  0
   66.4101   42.8713   26.1510 O   0  0  0  0  0  0  0  0  0  0  0  0
   66.2181   44.1300   28.2152 H   0  0  0  0  0  0  0  0  0  0  0  0
   66.8681   42.9066   29.2094 H   0  0  0  0  0  0  0  0  0  0  0  0
   68.6644   35.1775   26.4263 C   0  0  0  0  0  0  0  0  0  0  0  0
   68.7363   34.1309   25.9800 N   0  0  0  0  0  0  0  0  0  0  0  0
 32 33  1  0  0  0
 34 33  2  0  0  0
 33  7  1  0  0  0
  7  6  1  0  0  0
  7  5  2  0  0  0
  6  3  1  0  0  0
  5 10  1  0  0  0
  5  4  1  0  0  0
  3  4  2  0  0  0
  3  9  1  0  0  0
  4 11  1  0  0  0
  9  1  2  0  0  0
 11 18  1  0  0  0
 11  2  2  0  0  0
  1  2  1  0  0  0
  1  8  1  0  0  0
 30 28  2  0  0  0
 17 18  2  0  0  0
 17 16  1  0  0  0
 18 19  1  0  0  0
  2 37  1  0  0  0
 16 21  2  0  0  0
 19 20  2  0  0  0
 21 20  1  0  0  0
 21 22  1  0  0  0
 20 24  1  0  0  0
 28 29  1  0  0  0
 28 27  1  0  0  0
 37 38  3  0  0  0
 23 22  1  0  0  0
 24 25  1  0  0  0
 25 26  1  0  0  0
 27 26  1  0  0  0
 32 35  1  0  0  0
 32 36  1  0  0  0
  8 12  1  0  0  0
  8 13  1  0  0  0
 10 14  1  0  0  0
 10 15  1  0  0  0
 29 31  1  0  0  0
M  END
> <minimizedAffinity>
-7.19471

$$$$
6F1N_C8W_A_302


 38 40  0  0  0  0  0  0  0  0999 V2000
   69.3606   36.6499   27.8119 C   0  0  0  0  0  0  0  0  0  0  0  0
   68.4312   36.2806   26.7977 C   0  0  0  0  0  0  0  0  0  0  0  0
   68.6166   38.8586   27.7999 C   0  0  0  0  0  0  0  0  0  0  0  0
   67.6968   38.6282   26.7578 C   0  0  0  0  0  0  0  0  0  0  0  0
   66.9777   39.8573   26.3996 C   0  0  0  0  0  0  0  0  0  0  0  0
   68.5792   40.5402   28.2929 S   0  0  0  0  0  0  0  0  0  0  0  0
   67.3294   40.9586   27.1358 C   0  0  0  0  0  0  0  0  0  0  0  0
   70.2363   35.7419   28.3594 N   0  0  0  0  0  0  0  0  0  0  0  0
   69.3974   37.8769   28.2830 N   0  0  0  0  0  0  0  0  0  0  0  0
   66.0033   39.9300   25.4020 N   0  0  0  0  0  0  0  0  0  0  0  0
   67.5917   37.2825   26.2512 C   0  0  0  0  0  0  0  0  0  0  0  0
   70.8673   36.0270   29.0592 H   0  0  0  0  0  0  0  0  0  0  0  0
   70.2322   34.8068   28.0516 H   0  0  0  0  0  0  0  0  0  0  0  0
   65.5576   40.7867   25.2107 H   0  0  0  0  0  0  0  0  0  0  0  0
   65.7619   39.1244   24.8901 H   0  0  0  0  0  0  0  0  0  0  0  0
   64.5116   36.2117   24.3022 C   0  0  0  0  0  0  0  0  0  0  0  0
   65.3313   36.5311   25.3790 C   0  0  0  0  0  0  0  0  0  0  0  0
   66.6541   36.9450   25.1480 C   0  0  0  0  0  0  0  0  0  0  0  0
   67.1315   36.9978   23.8314 C   0  0  0  0  0  0  0  0  0  0  0  0
   66.3041   36.6905   22.7510 C   0  0  0  0  0  0  0  0  0  0  0  0
   64.9726   36.3011   22.9827 C   0  0  0  0  0  0  0  0  0  0  0  0
   64.1691   35.9995   21.9053 O   0  0  0  0  0  0  0  0  0  0  0  0
   63.2084   34.9340   21.9372 C   0  0  0  0  0  0  0  0  0  0  0  0
   66.7820   36.7537   21.4718 O   0  0  0  0  0  0  0  0  0  0  0  0
   67.0651   38.0285   20.8600 C   0  0  0  0  0  0  0  0  0  0  0  0
   67.3193   37.8804   19.3535 C   0  0  0  0  0  0  0  0  0  0  0  0
   66.7109   39.0456   18.5567 C   0  0  0  0  0  0  0  0  0  0  0  0
   65.4200   38.6617   17.8623 C   0  0  0  0  0  0  0  0  0  0  0  0
   64.9789   37.5364   17.9731 O   0  0  0  0  0  0  0  0  0  0  0  0
   64.7522   39.5716   17.1252 O   0  0  0  0  0  0  0  0  0  0  0  0
   65.4398   36.9008   18.4844 H   0  0  0  0  0  0  0  0  0  0  0  0
   66.6979   43.0795   28.0968 N   0  0  0  0  0  0  0  0  0  0  0  0
   66.7648   42.2726   27.0204 C   0  0  0  0  0  0  0  0  0  0  0  0
   66.2834   42.6755   25.9690 O   0  0  0  0  0  0  0  0  0  0  0  0
   66.3098   43.9804   28.0133 H   0  0  0  0  0  0  0  0  0  0  0  0
   67.0371   42.7683   28.9670 H   0  0  0  0  0  0  0  0  0  0  0  0
   68.3530   34.9224   26.3033 C   0  0  0  0  0  0  0  0  0  0  0  0
   68.2990   33.8392   25.9520 N   0  0  0  0  0  0  0  0  0  0  0  0
 32 33  1  0  0  0
 34 33  2  0  0  0
 33  7  1  0  0  0
  7  6  1  0  0  0
  7  5  2  0  0  0
  6  3  1  0  0  0
  5 10  1  0  0  0
  5  4  1  0  0  0
  3  4  2  0  0  0
  3  9  1  0  0  0
  4 11  1  0  0  0
  9  1  2  0  0  0
 11 18  1  0  0  0
 11  2  2  0  0  0
  1  2  1  0  0  0
  1  8  1  0  0  0
 30 28  2  0  0  0
 17 18  2  0  0  0
 17 16  1  0  0  0
 18 19  1  0  0  0
  2 37  1  0  0  0
 16 21  2  0  0  0
 19 20  2  0  0  0
 21 20  1  0  0  0
 21 22  1  0  0  0
 20 24  1  0  0  0
 28 29  1  0  0  0
 28 27  1  0  0  0
 37 38  3  0  0  0
 23 22  1  0  0  0
 24 25  1  0  0  0
 25 26  1  0  0  0
 27 26  1  0  0  0
 32 35  1  0  0  0
 32 36  1  0  0  0
  8 12  1  0  0  0
  8 13  1  0  0  0
 10 14  1  0  0  0
 10 15  1  0  0  0
 29 31  1  0  0  0
M  END
> <minimizedAffinity>
-6.55255

$$$$
6F1N_C8W_A_302


 38 40  0  0  0  0  0  0  0  0999 V2000
   67.5542   38.8674   27.7240 C   0  0  0  0  0  0  0  0  0  0  0  0
   66.8023   38.4008   26.6079 C   0  0  0  0  0  0  0  0  0  0  0  0
   69.0689   37.1056   27.5405 C   0  0  0  0  0  0  0  0  0  0  0  0
   68.3774   36.5165   26.4635 C   0  0  0  0  0  0  0  0  0  0  0  0
   69.0327   35.2790   26.0218 C   0  0  0  0  0  0  0  0  0  0  0  0
   70.4664   36.1411   27.9755 S   0  0  0  0  0  0  0  0  0  0  0  0
   70.1641   34.9515   26.7227 C   0  0  0  0  0  0  0  0  0  0  0  0
   67.1960   39.9988   28.4187 N   0  0  0  0  0  0  0  0  0  0  0  0
   68.6417   38.2418   28.1177 N   0  0  0  0  0  0  0  0  0  0  0  0
   68.5717   34.4827   24.9714 N   0  0  0  0  0  0  0  0  0  0  0  0
   67.2089   37.2024   25.9709 C   0  0  0  0  0  0  0  0  0  0  0  0
   67.7357   40.2967   29.1863 H   0  0  0  0  0  0  0  0  0  0  0  0
   66.3998   40.5109   28.1484 H   0  0  0  0  0  0  0  0  0  0  0  0
   69.0583   33.6632   24.7246 H   0  0  0  0  0  0  0  0  0  0  0  0
   67.7601   34.7408   24.4775 H   0  0  0  0  0  0  0  0  0  0  0  0
   65.7967   36.5344   22.5080 C   0  0  0  0  0  0  0  0  0  0  0  0
   66.5899   37.0745   23.5142 C   0  0  0  0  0  0  0  0  0  0  0  0
   66.4111   36.6537   24.8429 C   0  0  0  0  0  0  0  0  0  0  0  0
   65.4105   35.7158   25.1318 C   0  0  0  0  0  0  0  0  0  0  0  0
   64.6246   35.1643   24.1196 C   0  0  0  0  0  0  0  0  0  0  0  0
   64.8223   35.5678   22.7869 C   0  0  0  0  0  0  0  0  0  0  0  0
   64.0370   35.0149   21.7994 O   0  0  0  0  0  0  0  0  0  0  0  0
   62.6294   35.2756   21.7005 C   0  0  0  0  0  0  0  0  0  0  0  0
   63.6572   34.2450   24.4161 O   0  0  0  0  0  0  0  0  0  0  0  0
   62.9177   34.3353   25.6508 C   0  0  0  0  0  0  0  0  0  0  0  0
   62.9406   33.0035   26.4137 C   0  0  0  0  0  0  0  0  0  0  0  0
   64.2642   32.2506   26.2043 C   0  0  0  0  0  0  0  0  0  0  0  0
   65.3149   32.6291   27.2284 C   0  0  0  0  0  0  0  0  0  0  0  0
   65.0876   32.4966   28.4133 O   0  0  0  0  0  0  0  0  0  0  0  0
   66.5096   33.1069   26.8266 O   0  0  0  0  0  0  0  0  0  0  0  0
   64.2585   32.1649   28.6971 H   0  0  0  0  0  0  0  0  0  0  0  0
   72.3510   33.9403   26.5997 N   0  0  0  0  0  0  0  0  0  0  0  0
   71.0145   33.8212   26.4820 C   0  0  0  0  0  0  0  0  0  0  0  0
   70.5635   32.7439   26.1143 O   0  0  0  0  0  0  0  0  0  0  0  0
   72.9310   33.1623   26.4337 H   0  0  0  0  0  0  0  0  0  0  0  0
   72.7479   34.8053   26.8517 H   0  0  0  0  0  0  0  0  0  0  0  0
   65.6286   39.1068   26.1398 C   0  0  0  0  0  0  0  0  0  0  0  0
   64.7130   39.6507   25.7328 N   0  0  0  0  0  0  0  0  0  0  0  0
 32 33  1  0  0  0
 34 33  2  0  0  0
 33  7  1  0  0  0
  7  6  1  0  0  0
  7  5  2  0  0  0
  6  3  1  0  0  0
  5 10  1  0  0  0
  5  4  1  0  0  0
  3  4  2  0  0  0
  3  9  1  0  0  0
  4 11  1  0  0  0
  9  1  2  0  0  0
 11 18  1  0  0  0
 11  2  2  0  0  0
  1  2  1  0  0  0
  1  8  1  0  0  0
 30 28  2  0  0  0
 17 18  2  0  0  0
 17 16  1  0  0  0
 18 19  1  0  0  0
  2 37  1  0  0  0
 16 21  2  0  0  0
 19 20  2  0  0  0
 21 20  1  0  0  0
 21 22  1  0  0  0
 20 24  1  0  0  0
 28 29  1  0  0  0
 28 27  1  0  0  0
 37 38  3  0  0  0
 23 22  1  0  0  0
 24 25  1  0  0  0
 25 26  1  0  0  0
 27 26  1  0  0  0
 32 35  1  0  0  0
 32 36  1  0  0  0
  8 12  1  0  0  0
  8 13  1  0  0  0
 10 14  1  0  0  0
 10 15  1  0  0  0
 29 31  1  0  0  0
M  END
> <minimizedAffinity>
-6.52916

$$$$
6F1N_C8W_A_302


 38 40  0  0  0  0  0  0  0  0999 V2000
   69.5624   42.3613   28.5091 C   0  0  0  0  0  0  0  0  0  0  0  0
   68.6422   41.3091   28.2354 C   0  0  0  0  0  0  0  0  0  0  0  0
   70.1421   42.5461   26.2593 C   0  0  0  0  0  0  0  0  0  0  0  0
   69.3071   41.4791   25.8729 C   0  0  0  0  0  0  0  0  0  0  0  0
   69.3946   41.2292   24.4286 C   0  0  0  0  0  0  0  0  0  0  0  0
   70.9972   43.1915   24.8720 S   0  0  0  0  0  0  0  0  0  0  0  0
   70.2456   42.0667   23.7557 C   0  0  0  0  0  0  0  0  0  0  0  0
   69.7697   42.8306   29.7849 N   0  0  0  0  0  0  0  0  0  0  0  0
   70.2336   42.9437   27.5400 N   0  0  0  0  0  0  0  0  0  0  0  0
   68.6762   40.2339   23.7629 N   0  0  0  0  0  0  0  0  0  0  0  0
   68.5162   40.8498   26.9010 C   0  0  0  0  0  0  0  0  0  0  0  0
   70.4125   43.5593   29.9430 H   0  0  0  0  0  0  0  0  0  0  0  0
   69.2752   42.4380   30.5403 H   0  0  0  0  0  0  0  0  0  0  0  0
   68.7804   40.1183   22.7907 H   0  0  0  0  0  0  0  0  0  0  0  0
   68.0655   39.6478   24.2656 H   0  0  0  0  0  0  0  0  0  0  0  0
   65.5019   38.7864   25.8574 C   0  0  0  0  0  0  0  0  0  0  0  0
   66.3032   39.8942   26.1107 C   0  0  0  0  0  0  0  0  0  0  0  0
   67.6116   39.7118   26.5899 C   0  0  0  0  0  0  0  0  0  0  0  0
   68.0731   38.4111   26.8329 C   0  0  0  0  0  0  0  0  0  0  0  0
   67.2732   37.2999   26.5653 C   0  0  0  0  0  0  0  0  0  0  0  0
   65.9729   37.4834   26.0615 C   0  0  0  0  0  0  0  0  0  0  0  0
   65.1952   36.3759   25.8040 O   0  0  0  0  0  0  0  0  0  0  0  0
   64.6905   36.0787   24.4940 C   0  0  0  0  0  0  0  0  0  0  0  0
   67.7399   36.0367   26.8007 O   0  0  0  0  0  0  0  0  0  0  0  0
   68.6555   35.4127   25.8778 C   0  0  0  0  0  0  0  0  0  0  0  0
   68.5572   33.8822   25.9430 C   0  0  0  0  0  0  0  0  0  0  0  0
   67.3873   33.3509   25.0994 C   0  0  0  0  0  0  0  0  0  0  0  0
   66.2267   32.8775   25.9507 C   0  0  0  0  0  0  0  0  0  0  0  0
   65.7659   33.5999   26.8103 O   0  0  0  0  0  0  0  0  0  0  0  0
   65.6959   31.6546   25.7507 O   0  0  0  0  0  0  0  0  0  0  0  0
   66.1317   34.4508   26.9527 H   0  0  0  0  0  0  0  0  0  0  0  0
   71.5977   41.4742   21.8475 N   0  0  0  0  0  0  0  0  0  0  0  0
   70.4947   42.0678   22.3427 C   0  0  0  0  0  0  0  0  0  0  0  0
   69.7525   42.6466   21.5594 O   0  0  0  0  0  0  0  0  0  0  0  0
   71.7649   41.4772   20.8773 H   0  0  0  0  0  0  0  0  0  0  0  0
   72.2368   41.0373   22.4558 H   0  0  0  0  0  0  0  0  0  0  0  0
   67.8663   40.6911   29.2896 C   0  0  0  0  0  0  0  0  0  0  0  0
   67.2876   40.2079   30.1448 N   0  0  0  0  0  0  0  0  0  0  0  0
 32 33  1  0  0  0
 34 33  2  0  0  0
 33  7  1  0  0  0
  7  6  1  0  0  0
  7  5  2  0  0  0
  6  3  1  0  0  0
  5 10  1  0  0  0
  5  4  1  0  0  0
  3  4  2  0  0  0
  3  9  1  0  0  0
  4 11  1  0  0  0
  9  1  2  0  0  0
 11 18  1  0  0  0
 11  2  2  0  0  0
  1  2  1  0  0  0
  1  8  1  0  0  0
 30 28  2  0  0  0
 17 18  2  0  0  0
 17 16  1  0  0  0
 18 19  1  0  0  0
  2 37  1  0  0  0
 16 21  2  0  0  0
 19 20  2  0  0  0
 21 20  1  0  0  0
 21 22  1  0  0  0
 20 24  1  0  0  0
 28 29  1  0  0  0
 28 27  1  0  0  0
 37 38  3  0  0  0
 23 22  1  0  0  0
 24 25  1  0  0  0
 25 26  1  0  0  0
 27 26  1  0  0  0
 32 35  1  0  0  0
 32 36  1  0  0  0
  8 12  1  0  0  0
  8 13  1  0  0  0
 10 14  1  0  0  0
 10 15  1  0  0  0
 29 31  1  0  0  0
M  END
> <minimizedAffinity>
-6.26317

$$$$
6F1N_C8W_A_302


 38 40  0  0  0  0  0  0  0  0999 V2000
   69.8339   42.5527   28.4230 C   0  0  0  0  0  0  0  0  0  0  0  0
   68.8574   41.5472   28.1696 C   0  0  0  0  0  0  0  0  0  0  0  0
   70.3918   42.6918   26.1644 C   0  0  0  0  0  0  0  0  0  0  0  0
   69.4981   41.6663   25.7973 C   0  0  0  0  0  0  0  0  0  0  0  0
   69.5531   41.4022   24.3539 C   0  0  0  0  0  0  0  0  0  0  0  0
   71.2600   43.2828   24.7611 S   0  0  0  0  0  0  0  0  0  0  0  0
   70.4367   42.1903   23.6635 C   0  0  0  0  0  0  0  0  0  0  0  0
   70.0822   43.0198   29.6924 N   0  0  0  0  0  0  0  0  0  0  0  0
   70.5208   43.0931   27.4407 N   0  0  0  0  0  0  0  0  0  0  0  0
   68.7758   40.4404   23.7054 N   0  0  0  0  0  0  0  0  0  0  0  0
   68.6900   41.0857   26.8405 C   0  0  0  0  0  0  0  0  0  0  0  0
   70.7636   43.7156   29.8363 H   0  0  0  0  0  0  0  0  0  0  0  0
   69.5786   42.6583   30.4572 H   0  0  0  0  0  0  0  0  0  0  0  0
   68.8608   40.3128   22.7329 H   0  0  0  0  0  0  0  0  0  0  0  0
   68.1428   39.8899   24.2206 H   0  0  0  0  0  0  0  0  0  0  0  0
   65.5614   39.1723   25.8491 C   0  0  0  0  0  0  0  0  0  0  0  0
   66.4218   40.2391   26.0831 C   0  0  0  0  0  0  0  0  0  0  0  0
   67.7242   39.9935   26.5501 C   0  0  0  0  0  0  0  0  0  0  0  0
   68.1203   38.6727   26.8008 C   0  0  0  0  0  0  0  0  0  0  0  0
   67.2610   37.6022   26.5525 C   0  0  0  0  0  0  0  0  0  0  0  0
   65.9665   37.8484   26.0608 C   0  0  0  0  0  0  0  0  0  0  0  0
   65.1296   36.7805   25.8223 O   0  0  0  0  0  0  0  0  0  0  0  0
   64.4959   36.5691   24.5523 C   0  0  0  0  0  0  0  0  0  0  0  0
   67.6642   36.3187   26.7951 O   0  0  0  0  0  0  0  0  0  0  0  0
   68.1705   35.4974   25.7234 C   0  0  0  0  0  0  0  0  0  0  0  0
   68.9928   34.3192   26.2639 C   0  0  0  0  0  0  0  0  0  0  0  0
   70.5033   34.5721   26.1327 C   0  0  0  0  0  0  0  0  0  0  0  0
   71.0804   35.2777   27.3430 C   0  0  0  0  0  0  0  0  0  0  0  0
   70.3468   35.8470   28.1247 O   0  0  0  0  0  0  0  0  0  0  0  0
   72.4107   35.2688   27.5605 O   0  0  0  0  0  0  0  0  0  0  0  0
   69.4215   35.8557   27.9775 H   0  0  0  0  0  0  0  0  0  0  0  0
   71.5541   41.3057   21.7168 N   0  0  0  0  0  0  0  0  0  0  0  0
   70.6663   42.1686   22.2473 C   0  0  0  0  0  0  0  0  0  0  0  0
   70.1120   42.9588   21.4939 O   0  0  0  0  0  0  0  0  0  0  0  0
   71.7087   41.2941   20.7446 H   0  0  0  0  0  0  0  0  0  0  0  0
   72.0484   40.6866   22.3013 H   0  0  0  0  0  0  0  0  0  0  0  0
   68.0653   40.9773   29.2386 C   0  0  0  0  0  0  0  0  0  0  0  0
   67.4504   40.5610   30.1037 N   0  0  0  0  0  0  0  0  0  0  0  0
 32 33  1  0  0  0
 34 33  2  0  0  0
 33  7  1  0  0  0
  7  6  1  0  0  0
  7  5  2  0  0  0
  6  3  1  0  0  0
  5 10  1  0  0  0
  5  4  1  0  0  0
  3  4  2  0  0  0
  3  9  1  0  0  0
  4 11  1  0  0  0
  9  1  2  0  0  0
 11 18  1  0  0  0
 11  2  2  0  0  0
  1  2  1  0  0  0
  1  8  1  0  0  0
 30 28  2  0  0  0
 17 18  2  0  0  0
 17 16  1  0  0  0
 18 19  1  0  0  0
  2 37  1  0  0  0
 16 21  2  0  0  0
 19 20  2  0  0  0
 21 20  1  0  0  0
 21 22  1  0  0  0
 20 24  1  0  0  0
 28 29  1  0  0  0
 28 27  1  0  0  0
 37 38  3  0  0  0
 23 22  1  0  0  0
 24 25  1  0  0  0
 25 26  1  0  0  0
 27 26  1  0  0  0
 32 35  1  0  0  0
 32 36  1  0  0  0
  8 12  1  0  0  0
  8 13  1  0  0  0
 10 14  1  0  0  0
 10 15  1  0  0  0
 29 31  1  0  0  0
M  END
> <minimizedAffinity>
-6.12061

$$$$
6F1N_C8W_A_302


 38 40  0  0  0  0  0  0  0  0999 V2000
   69.2849   42.8008   25.3815 C   0  0  0  0  0  0  0  0  0  0  0  0
   68.5790   41.6105   25.0442 C   0  0  0  0  0  0  0  0  0  0  0  0
   68.9405   42.4535   27.6602 C   0  0  0  0  0  0  0  0  0  0  0  0
   68.1759   41.2890   27.4498 C   0  0  0  0  0  0  0  0  0  0  0  0
   67.7085   40.7208   28.7205 C   0  0  0  0  0  0  0  0  0  0  0  0
   69.0539   42.8140   29.3718 S   0  0  0  0  0  0  0  0  0  0  0  0
   68.1035   41.4144   29.8346 C   0  0  0  0  0  0  0  0  0  0  0  0
   69.8327   43.6170   24.4198 N   0  0  0  0  0  0  0  0  0  0  0  0
   69.4614   43.1514   26.6364 N   0  0  0  0  0  0  0  0  0  0  0  0
   66.9314   39.5650   28.8207 N   0  0  0  0  0  0  0  0  0  0  0  0
   68.0047   40.8448   26.0889 C   0  0  0  0  0  0  0  0  0  0  0  0
   70.3152   44.4335   24.6838 H   0  0  0  0  0  0  0  0  0  0  0  0
   69.7424   43.3847   23.4674 H   0  0  0  0  0  0  0  0  0  0  0  0
   66.6503   39.2359   29.7050 H   0  0  0  0  0  0  0  0  0  0  0  0
   66.6646   39.0791   28.0070 H   0  0  0  0  0  0  0  0  0  0  0  0
   65.1200   38.4706   25.4007 C   0  0  0  0  0  0  0  0  0  0  0  0
   65.8058   39.6460   25.6860 C   0  0  0  0  0  0  0  0  0  0  0  0
   67.2085   39.6311   25.7683 C   0  0  0  0  0  0  0  0  0  0  0  0
   67.8885   38.4186   25.5906 C   0  0  0  0  0  0  0  0  0  0  0  0
   67.2005   37.2426   25.2908 C   0  0  0  0  0  0  0  0  0  0  0  0
   65.7983   37.2647   25.1834 C   0  0  0  0  0  0  0  0  0  0  0  0
   65.1338   36.0947   24.8883 O   0  0  0  0  0  0  0  0  0  0  0  0
   64.6727   35.7852   23.5652 C   0  0  0  0  0  0  0  0  0  0  0  0
   67.8784   36.0689   25.1130 O   0  0  0  0  0  0  0  0  0  0  0  0
   68.6028   35.4709   26.2071 C   0  0  0  0  0  0  0  0  0  0  0  0
   68.4487   33.9437   26.2102 C   0  0  0  0  0  0  0  0  0  0  0  0
   67.3762   33.4782   25.2123 C   0  0  0  0  0  0  0  0  0  0  0  0
   66.1720   32.8663   25.8988 C   0  0  0  0  0  0  0  0  0  0  0  0
   65.4915   32.0449   25.3196 O   0  0  0  0  0  0  0  0  0  0  0  0
   65.8566   33.2261   27.1590 O   0  0  0  0  0  0  0  0  0  0  0  0
   65.7070   31.7918   24.4435 H   0  0  0  0  0  0  0  0  0  0  0  0
   67.6305   42.0290   32.1191 N   0  0  0  0  0  0  0  0  0  0  0  0
   67.8192   41.0655   31.1970 C   0  0  0  0  0  0  0  0  0  0  0  0
   67.7938   39.8996   31.5703 O   0  0  0  0  0  0  0  0  0  0  0  0
   67.4356   41.7854   33.0529 H   0  0  0  0  0  0  0  0  0  0  0  0
   67.6874   42.9769   31.8593 H   0  0  0  0  0  0  0  0  0  0  0  0
   68.4170   41.1930   23.6678 C   0  0  0  0  0  0  0  0  0  0  0  0
   68.2515   40.8509   22.5929 N   0  0  0  0  0  0  0  0  0  0  0  0
 32 33  1  0  0  0
 34 33  2  0  0  0
 33  7  1  0  0  0
  7  6  1  0  0  0
  7  5  2  0  0  0
  6  3  1  0  0  0
  5 10  1  0  0  0
  5  4  1  0  0  0
  3  4  2  0  0  0
  3  9  1  0  0  0
  4 11  1  0  0  0
  9  1  2  0  0  0
 11 18  1  0  0  0
 11  2  2  0  0  0
  1  2  1  0  0  0
  1  8  1  0  0  0
 30 28  2  0  0  0
 17 18  2  0  0  0
 17 16  1  0  0  0
 18 19  1  0  0  0
  2 37  1  0  0  0
 16 21  2  0  0  0
 19 20  2  0  0  0
 21 20  1  0  0  0
 21 22  1  0  0  0
 20 24  1  0  0  0
 28 29  1  0  0  0
 28 27  1  0  0  0
 37 38  3  0  0  0
 23 22  1  0  0  0
 24 25  1  0  0  0
 25 26  1  0  0  0
 27 26  1  0  0  0
 32 35  1  0  0  0
 32 36  1  0  0  0
  8 12  1  0  0  0
  8 13  1  0  0  0
 10 14  1  0  0  0
 10 15  1  0  0  0
 29 31  1  0  0  0
M  END
> <minimizedAffinity>
-5.76776

$$$$
