5MXF_MFU_A_401


 15 15  0  0  0  0  0  0  0  0999 V2000
   -2.5535   15.3073   -8.7118 C   0  0  0  0  0  0  0  0  0  0  0  0
   -2.7186   15.4227  -10.2370 C   0  0  0  0  0  0  0  0  0  0  0  0
   -4.0465   16.0795  -10.6288 C   0  0  0  0  0  0  0  0  0  0  0  0
   -4.2778   17.3881   -9.8648 C   0  0  0  0  0  0  0  0  0  0  0  0
   -4.1245   17.1189   -8.3604 C   0  0  0  0  0  0  0  0  0  0  0  0
   -4.3145   18.3488   -7.4723 C   0  0  0  0  0  0  0  0  0  0  0  0
   -2.6138   14.1262  -10.8407 O   0  0  0  0  0  0  0  0  0  0  0  0
   -4.0524   16.3665  -12.0297 O   0  0  0  0  0  0  0  0  0  0  0  0
   -3.3891   18.4083  -10.3764 O   0  0  0  0  0  0  0  0  0  0  0  0
   -2.8231   16.5848   -8.1083 O   0  0  0  0  0  0  0  0  0  0  0  0
   -3.3276   13.5576  -10.5117 H   0  0  0  0  0  0  0  0  0  0  0  0
   -3.3383   16.9901  -12.2349 H   0  0  0  0  0  0  0  0  0  0  0  0
   -2.4693   18.1201  -10.2675 H   0  0  0  0  0  0  0  0  0  0  0  0
   -3.3947   14.2805   -8.1423 O   0  0  0  0  0  0  0  0  0  0  0  0
   -2.8807   13.7489   -6.9133 C   0  0  0  0  0  0  0  0  0  0  0  0
  1  2  1  0  0  0
  1 14  1  0  0  0
  1 10  1  0  0  0
  2  3  1  0  0  0
  2  7  1  0  0  0
  3  4  1  0  0  0
  3  8  1  0  0  0
  4  5  1  0  0  0
  4  9  1  0  0  0
  5  6  1  0  0  0
  5 10  1  0  0  0
 14 15  1  0  0  0
  7 11  1  0  0  0
  8 12  1  0  0  0
  9 13  1  0  0  0
M  END
> <minimizedAffinity>
-5.14259

$$$$
5MXF_MFU_A_401


 15 15  0  0  0  0  0  0  0  0999 V2000
   -4.2033   16.8238   -8.8554 C   0  0  0  0  0  0  0  0  0  0  0  0
   -3.6726   17.0917  -10.2743 C   0  0  0  0  0  0  0  0  0  0  0  0
   -2.4826   16.1934  -10.6279 C   0  0  0  0  0  0  0  0  0  0  0  0
   -2.7777   14.7193  -10.3289 C   0  0  0  0  0  0  0  0  0  0  0  0
   -3.2555   14.5934   -8.8745 C   0  0  0  0  0  0  0  0  0  0  0  0
   -3.6036   13.1691   -8.4412 C   0  0  0  0  0  0  0  0  0  0  0  0
   -3.3045   18.4713  -10.4074 O   0  0  0  0  0  0  0  0  0  0  0  0
   -2.1742   16.3199  -12.0185 O   0  0  0  0  0  0  0  0  0  0  0  0
   -3.7143   14.2076  -11.3052 O   0  0  0  0  0  0  0  0  0  0  0  0
   -4.4129   15.4107   -8.6872 O   0  0  0  0  0  0  0  0  0  0  0  0
   -2.5899   18.6769   -9.7845 H   0  0  0  0  0  0  0  0  0  0  0  0
   -2.9348   16.0300  -12.5460 H   0  0  0  0  0  0  0  0  0  0  0  0
   -4.5350   14.7233  -11.2673 H   0  0  0  0  0  0  0  0  0  0  0  0
   -3.3249   17.3400   -7.8316 O   0  0  0  0  0  0  0  0  0  0  0  0
   -4.0235   17.7723   -6.6558 C   0  0  0  0  0  0  0  0  0  0  0  0
  1  2  1  0  0  0
  1 14  1  0  0  0
  1 10  1  0  0  0
  2  3  1  0  0  0
  2  7  1  0  0  0
  3  4  1  0  0  0
  3  8  1  0  0  0
  4  5  1  0  0  0
  4  9  1  0  0  0
  5  6  1  0  0  0
  5 10  1  0  0  0
 14 15  1  0  0  0
  7 11  1  0  0  0
  8 12  1  0  0  0
  9 13  1  0  0  0
M  END
> <minimizedAffinity>
-4.94046

$$$$
5MXF_MFU_A_401


 15 15  0  0  0  0  0  0  0  0999 V2000
   -1.8746   15.7286  -10.0321 C   0  0  0  0  0  0  0  0  0  0  0  0
   -2.5802   16.7525  -10.9377 C   0  0  0  0  0  0  0  0  0  0  0  0
   -4.0868   16.8251  -10.6675 C   0  0  0  0  0  0  0  0  0  0  0  0
   -4.3866   16.9874   -9.1731 C   0  0  0  0  0  0  0  0  0  0  0  0
   -3.6570   15.8806   -8.3970 C   0  0  0  0  0  0  0  0  0  0  0  0
   -3.8555   15.9305   -6.8819 C   0  0  0  0  0  0  0  0  0  0  0  0
   -2.3421   16.4342  -12.3156 O   0  0  0  0  0  0  0  0  0  0  0  0
   -4.6530   17.9372  -11.3657 O   0  0  0  0  0  0  0  0  0  0  0  0
   -4.0415   18.3284   -8.7551 O   0  0  0  0  0  0  0  0  0  0  0  0
   -2.2557   15.9636   -8.6651 O   0  0  0  0  0  0  0  0  0  0  0  0
   -2.7156   15.5614  -12.5150 H   0  0  0  0  0  0  0  0  0  0  0  0
   -4.2516   18.7595  -11.0438 H   0  0  0  0  0  0  0  0  0  0  0  0
   -3.0992   18.4868   -8.9223 H   0  0  0  0  0  0  0  0  0  0  0  0
   -2.1552   14.3653  -10.4182 O   0  0  0  0  0  0  0  0  0  0  0  0
   -1.1747   13.4324   -9.9434 C   0  0  0  0  0  0  0  0  0  0  0  0
  1  2  1  0  0  0
  1 14  1  0  0  0
  1 10  1  0  0  0
  2  3  1  0  0  0
  2  7  1  0  0  0
  3  4  1  0  0  0
  3  8  1  0  0  0
  4  5  1  0  0  0
  4  9  1  0  0  0
  5  6  1  0  0  0
  5 10  1  0  0  0
 14 15  1  0  0  0
  7 11  1  0  0  0
  8 12  1  0  0  0
  9 13  1  0  0  0
M  END
> <minimizedAffinity>
-4.85122

$$$$
5MXF_MFU_A_401


 15 15  0  0  0  0  0  0  0  0999 V2000
   -3.9751   15.4825   -8.0200 C   0  0  0  0  0  0  0  0  0  0  0  0
   -3.9134   16.9236   -8.5550 C   0  0  0  0  0  0  0  0  0  0  0  0
   -3.0672   17.0344   -9.8277 C   0  0  0  0  0  0  0  0  0  0  0  0
   -3.4740   15.9874  -10.8707 C   0  0  0  0  0  0  0  0  0  0  0  0
   -3.4522   14.5985  -10.2152 C   0  0  0  0  0  0  0  0  0  0  0  0
   -3.8555   13.4519  -11.1427 C   0  0  0  0  0  0  0  0  0  0  0  0
   -3.3983   17.8000   -7.5436 O   0  0  0  0  0  0  0  0  0  0  0  0
   -3.2250   18.3331  -10.4050 O   0  0  0  0  0  0  0  0  0  0  0  0
   -4.7510   16.3501  -11.4450 O   0  0  0  0  0  0  0  0  0  0  0  0
   -4.3364   14.5944   -9.0923 O   0  0  0  0  0  0  0  0  0  0  0  0
   -2.4938   17.5341   -7.3153 H   0  0  0  0  0  0  0  0  0  0  0  0
   -4.1537   18.4669  -10.6509 H   0  0  0  0  0  0  0  0  0  0  0  0
   -5.4198   16.3953  -10.7438 H   0  0  0  0  0  0  0  0  0  0  0  0
   -2.7355   15.0694   -7.4043 O   0  0  0  0  0  0  0  0  0  0  0  0
   -2.8527   13.8426   -6.6704 C   0  0  0  0  0  0  0  0  0  0  0  0
  1  2  1  0  0  0
  1 14  1  0  0  0
  1 10  1  0  0  0
  2  3  1  0  0  0
  2  7  1  0  0  0
  3  4  1  0  0  0
  3  8  1  0  0  0
  4  5  1  0  0  0
  4  9  1  0  0  0
  5  6  1  0  0  0
  5 10  1  0  0  0
 14 15  1  0  0  0
  7 11  1  0  0  0
  8 12  1  0  0  0
  9 13  1  0  0  0
M  END
> <minimizedAffinity>
-4.77927

$$$$
5MXF_MFU_A_401


 15 15  0  0  0  0  0  0  0  0999 V2000
   -2.8146   15.8003  -10.2269 C   0  0  0  0  0  0  0  0  0  0  0  0
   -3.0129   17.1879   -9.5929 C   0  0  0  0  0  0  0  0  0  0  0  0
   -4.2351   17.2349   -8.6699 C   0  0  0  0  0  0  0  0  0  0  0  0
   -4.2330   16.0744   -7.6684 C   0  0  0  0  0  0  0  0  0  0  0  0
   -4.0712   14.7547   -8.4376 C   0  0  0  0  0  0  0  0  0  0  0  0
   -4.0361   13.5059   -7.5563 C   0  0  0  0  0  0  0  0  0  0  0  0
   -3.1324   18.1828  -10.6188 O   0  0  0  0  0  0  0  0  0  0  0  0
   -4.2451   18.4635   -7.9383 O   0  0  0  0  0  0  0  0  0  0  0  0
   -3.2147   16.3037   -6.6671 O   0  0  0  0  0  0  0  0  0  0  0  0
   -2.8608   14.7979   -9.1963 O   0  0  0  0  0  0  0  0  0  0  0  0
   -3.9140   17.9952  -11.1617 H   0  0  0  0  0  0  0  0  0  0  0  0
   -3.4503   18.5168   -7.3849 H   0  0  0  0  0  0  0  0  0  0  0  0
   -2.3477   16.3709   -7.0971 H   0  0  0  0  0  0  0  0  0  0  0  0
   -3.7851   15.5224  -11.2599 O   0  0  0  0  0  0  0  0  0  0  0  0
   -3.1865   15.1658  -12.5137 C   0  0  0  0  0  0  0  0  0  0  0  0
  1  2  1  0  0  0
  1 14  1  0  0  0
  1 10  1  0  0  0
  2  3  1  0  0  0
  2  7  1  0  0  0
  3  4  1  0  0  0
  3  8  1  0  0  0
  4  5  1  0  0  0
  4  9  1  0  0  0
  5  6  1  0  0  0
  5 10  1  0  0  0
 14 15  1  0  0  0
  7 11  1  0  0  0
  8 12  1  0  0  0
  9 13  1  0  0  0
M  END
> <minimizedAffinity>
-4.73115

$$$$
5MXF_MFU_A_401


 15 15  0  0  0  0  0  0  0  0999 V2000
   -3.1646   13.9994   -7.5050 C   0  0  0  0  0  0  0  0  0  0  0  0
   -3.0118   14.1216   -9.0308 C   0  0  0  0  0  0  0  0  0  0  0  0
   -3.9655   15.1617   -9.6281 C   0  0  0  0  0  0  0  0  0  0  0  0
   -3.8930   16.4946   -8.8746 C   0  0  0  0  0  0  0  0  0  0  0  0
   -4.1029   16.2303   -7.3762 C   0  0  0  0  0  0  0  0  0  0  0  0
   -4.0393   17.4787   -6.4959 C   0  0  0  0  0  0  0  0  0  0  0  0
   -3.2262   12.8452   -9.6485 O   0  0  0  0  0  0  0  0  0  0  0  0
   -3.6311   15.3979  -10.9982 O   0  0  0  0  0  0  0  0  0  0  0  0
   -2.6471   17.1588   -9.1890 O   0  0  0  0  0  0  0  0  0  0  0  0
   -3.1095   15.3111   -6.9170 O   0  0  0  0  0  0  0  0  0  0  0  0
   -4.1314   12.5469   -9.4684 H   0  0  0  0  0  0  0  0  0  0  0  0
   -2.7297   15.7516  -11.0547 H   0  0  0  0  0  0  0  0  0  0  0  0
   -1.9041   16.5918   -8.9297 H   0  0  0  0  0  0  0  0  0  0  0  0
   -4.3787   13.3152   -7.1255 O   0  0  0  0  0  0  0  0  0  0  0  0
   -4.1395   12.1295   -6.3546 C   0  0  0  0  0  0  0  0  0  0  0  0
  1  2  1  0  0  0
  1 14  1  0  0  0
  1 10  1  0  0  0
  2  3  1  0  0  0
  2  7  1  0  0  0
  3  4  1  0  0  0
  3  8  1  0  0  0
  4  5  1  0  0  0
  4  9  1  0  0  0
  5  6  1  0  0  0
  5 10  1  0  0  0
 14 15  1  0  0  0
  7 11  1  0  0  0
  8 12  1  0  0  0
  9 13  1  0  0  0
M  END
> <minimizedAffinity>
-4.56767

$$$$
5MXF_MFU_A_401


 15 15  0  0  0  0  0  0  0  0999 V2000
   -3.9724   16.1469   -7.8726 C   0  0  0  0  0  0  0  0  0  0  0  0
   -3.0920   16.1094   -9.1336 C   0  0  0  0  0  0  0  0  0  0  0  0
   -1.8491   15.2327   -8.9477 C   0  0  0  0  0  0  0  0  0  0  0  0
   -2.2087   13.8534   -8.3838 C   0  0  0  0  0  0  0  0  0  0  0  0
   -3.0474   14.0404   -7.1107 C   0  0  0  0  0  0  0  0  0  0  0  0
   -3.4930   12.7374   -6.4464 C   0  0  0  0  0  0  0  0  0  0  0  0
   -2.7049   17.4406   -9.5007 O   0  0  0  0  0  0  0  0  0  0  0  0
   -1.1905   15.0501  -10.2037 O   0  0  0  0  0  0  0  0  0  0  0  0
   -2.8585   13.0677   -9.4098 O   0  0  0  0  0  0  0  0  0  0  0  0
   -4.2155   14.8018   -7.4245 O   0  0  0  0  0  0  0  0  0  0  0  0
   -2.1770   17.8321   -8.7873 H   0  0  0  0  0  0  0  0  0  0  0  0
   -1.7874   14.5960  -10.8188 H   0  0  0  0  0  0  0  0  0  0  0  0
   -3.6620   13.5235   -9.7058 H   0  0  0  0  0  0  0  0  0  0  0  0
   -3.3911   16.9443   -6.8178 O   0  0  0  0  0  0  0  0  0  0  0  0
   -4.1714   18.1031   -6.4926 C   0  0  0  0  0  0  0  0  0  0  0  0
  1  2  1  0  0  0
  1 14  1  0  0  0
  1 10  1  0  0  0
  2  3  1  0  0  0
  2  7  1  0  0  0
  3  4  1  0  0  0
  3  8  1  0  0  0
  4  5  1  0  0  0
  4  9  1  0  0  0
  5  6  1  0  0  0
  5 10  1  0  0  0
 14 15  1  0  0  0
  7 11  1  0  0  0
  8 12  1  0  0  0
  9 13  1  0  0  0
M  END
> <minimizedAffinity>
-4.39284

$$$$
5MXF_MFU_A_401


 15 15  0  0  0  0  0  0  0  0999 V2000
   -3.8627   14.4311   -9.8607 C   0  0  0  0  0  0  0  0  0  0  0  0
   -4.0878   15.5692   -8.8504 C   0  0  0  0  0  0  0  0  0  0  0  0
   -2.8745   16.4992   -8.7441 C   0  0  0  0  0  0  0  0  0  0  0  0
   -2.3935   16.9618  -10.1240 C   0  0  0  0  0  0  0  0  0  0  0  0
   -2.1695   15.7283  -11.0114 C   0  0  0  0  0  0  0  0  0  0  0  0
   -1.7003   16.0442  -12.4318 C   0  0  0  0  0  0  0  0  0  0  0  0
   -4.4052   15.0252   -7.5621 O   0  0  0  0  0  0  0  0  0  0  0  0
   -3.2134   17.6545   -7.9725 O   0  0  0  0  0  0  0  0  0  0  0  0
   -3.3337   17.9176  -10.6667 O   0  0  0  0  0  0  0  0  0  0  0  0
   -3.3871   14.9852  -11.1000 O   0  0  0  0  0  0  0  0  0  0  0  0
   -3.6590   14.4942   -7.2426 H   0  0  0  0  0  0  0  0  0  0  0  0
   -3.9256   18.1417   -8.4156 H   0  0  0  0  0  0  0  0  0  0  0  0
   -4.2077   17.5039  -10.7430 H   0  0  0  0  0  0  0  0  0  0  0  0
   -2.9537   13.4246   -9.3638 O   0  0  0  0  0  0  0  0  0  0  0  0
   -3.4937   12.0973   -9.4278 C   0  0  0  0  0  0  0  0  0  0  0  0
  1  2  1  0  0  0
  1 14  1  0  0  0
  1 10  1  0  0  0
  2  3  1  0  0  0
  2  7  1  0  0  0
  3  4  1  0  0  0
  3  8  1  0  0  0
  4  5  1  0  0  0
  4  9  1  0  0  0
  5  6  1  0  0  0
  5 10  1  0  0  0
 14 15  1  0  0  0
  7 11  1  0  0  0
  8 12  1  0  0  0
  9 13  1  0  0  0
M  END
> <minimizedAffinity>
-4.06277

$$$$
5MXF_MFU_A_401


 15 15  0  0  0  0  0  0  0  0999 V2000
   -3.1061   16.4358   -7.8024 C   0  0  0  0  0  0  0  0  0  0  0  0
   -2.8912   14.9189   -7.9422 C   0  0  0  0  0  0  0  0  0  0  0  0
   -3.9745   14.2560   -8.7996 C   0  0  0  0  0  0  0  0  0  0  0  0
   -4.1744   14.9934  -10.1285 C   0  0  0  0  0  0  0  0  0  0  0  0
   -4.4194   16.4818   -9.8388 C   0  0  0  0  0  0  0  0  0  0  0  0
   -4.6207   17.3465  -11.0835 C   0  0  0  0  0  0  0  0  0  0  0  0
   -2.8482   14.3086   -6.6452 O   0  0  0  0  0  0  0  0  0  0  0  0
   -3.6094   12.9029   -9.0837 O   0  0  0  0  0  0  0  0  0  0  0  0
   -3.0456   14.7380  -10.9961 O   0  0  0  0  0  0  0  0  0  0  0  0
   -3.3102   17.0073   -9.1066 O   0  0  0  0  0  0  0  0  0  0  0  0
   -3.6974   14.4433   -6.1961 H   0  0  0  0  0  0  0  0  0  0  0  0
   -2.7804   12.8905   -9.5872 H   0  0  0  0  0  0  0  0  0  0  0  0
   -2.2318   15.0452  -10.5667 H   0  0  0  0  0  0  0  0  0  0  0  0
   -4.2039   16.7583   -6.9210 O   0  0  0  0  0  0  0  0  0  0  0  0
   -4.1452   18.0994   -6.4158 C   0  0  0  0  0  0  0  0  0  0  0  0
  1  2  1  0  0  0
  1 14  1  0  0  0
  1 10  1  0  0  0
  2  3  1  0  0  0
  2  7  1  0  0  0
  3  4  1  0  0  0
  3  8  1  0  0  0
  4  5  1  0  0  0
  4  9  1  0  0  0
  5  6  1  0  0  0
  5 10  1  0  0  0
 14 15  1  0  0  0
  7 11  1  0  0  0
  8 12  1  0  0  0
  9 13  1  0  0  0
M  END
> <minimizedAffinity>
-3.96697

$$$$
5MXF_MFU_A_401


 15 15  0  0  0  0  0  0  0  0999 V2000
   -3.2901   17.0601   -9.8367 C   0  0  0  0  0  0  0  0  0  0  0  0
   -2.2197   15.9580   -9.9154 C   0  0  0  0  0  0  0  0  0  0  0  0
   -2.7613   14.6664  -10.5372 C   0  0  0  0  0  0  0  0  0  0  0  0
   -3.4915   14.9368  -11.8576 C   0  0  0  0  0  0  0  0  0  0  0  0
   -4.5543   16.0211  -11.6245 C   0  0  0  0  0  0  0  0  0  0  0  0
   -5.3541   16.4047  -12.8697 C   0  0  0  0  0  0  0  0  0  0  0  0
   -1.6935   15.6918   -8.6082 O   0  0  0  0  0  0  0  0  0  0  0  0
   -1.6844   13.7611  -10.7932 O   0  0  0  0  0  0  0  0  0  0  0  0
   -2.5264   15.2658  -12.8835 O   0  0  0  0  0  0  0  0  0  0  0  0
   -3.9213   17.1997  -11.1217 O   0  0  0  0  0  0  0  0  0  0  0  0
   -2.4044   15.3682   -8.0332 H   0  0  0  0  0  0  0  0  0  0  0  0
   -1.0683   14.1622  -11.4260 H   0  0  0  0  0  0  0  0  0  0  0  0
   -2.0253   16.0521  -12.6159 H   0  0  0  0  0  0  0  0  0  0  0  0
   -4.2697   16.8048   -8.8065 O   0  0  0  0  0  0  0  0  0  0  0  0
   -4.2982   17.8192   -7.7928 C   0  0  0  0  0  0  0  0  0  0  0  0
  1  2  1  0  0  0
  1 14  1  0  0  0
  1 10  1  0  0  0
  2  3  1  0  0  0
  2  7  1  0  0  0
  3  4  1  0  0  0
  3  8  1  0  0  0
  4  5  1  0  0  0
  4  9  1  0  0  0
  5  6  1  0  0  0
  5 10  1  0  0  0
 14 15  1  0  0  0
  7 11  1  0  0  0
  8 12  1  0  0  0
  9 13  1  0  0  0
M  END
> <minimizedAffinity>
-3.82314

$$$$
