3MJL_2AI_A_5001


  9  9  0  0  0  0  0  0  0  0999 V2000
   -0.3929  -24.3249   -5.4570 C   0  0  0  0  0  0  0  0  0  0  0  0
   -1.1189  -23.3801   -6.0954 C   0  0  0  0  0  0  0  0  0  0  0  0
   -0.2204  -22.4264   -6.4841 N   0  0  0  0  0  0  0  0  0  0  0  0
    0.9965  -22.7610   -6.1117 C   0  0  0  0  0  0  0  0  0  0  0  0
    0.9179  -23.9131   -5.4613 N   0  0  0  0  0  0  0  0  0  0  0  0
    2.1289  -21.9748   -6.3822 N   0  0  0  0  0  0  0  0  0  0  0  0
    1.6725  -24.3934   -5.0501 H   0  0  0  0  0  0  0  0  0  0  0  0
    2.0350  -21.1320   -6.8823 H   0  0  0  0  0  0  0  0  0  0  0  0
    3.0164  -22.2666   -6.0718 H   0  0  0  0  0  0  0  0  0  0  0  0
  1  2  2  0  0  0
  1  5  1  0  0  0
  2  3  1  0  0  0
  3  4  2  0  0  0
  4  5  1  0  0  0
  4  6  1  0  0  0
  5  7  1  0  0  0
  6  8  1  0  0  0
  6  9  1  0  0  0
M  END
> <minimizedAffinity>
-4.95383

$$$$
3MJL_2AI_A_5001


  9  9  0  0  0  0  0  0  0  0999 V2000
   -1.6702  -23.0201   -6.5960 C   0  0  0  0  0  0  0  0  0  0  0  0
   -1.7827  -24.2417   -6.0283 C   0  0  0  0  0  0  0  0  0  0  0  0
   -0.5455  -24.5275   -5.5228 N   0  0  0  0  0  0  0  0  0  0  0  0
    0.2887  -23.5378   -5.7596 C   0  0  0  0  0  0  0  0  0  0  0  0
   -0.3698  -22.6067   -6.4348 N   0  0  0  0  0  0  0  0  0  0  0  0
    1.6318  -23.5466   -5.3477 N   0  0  0  0  0  0  0  0  0  0  0  0
    0.0094  -21.7604   -6.7654 H   0  0  0  0  0  0  0  0  0  0  0  0
    1.9881  -24.3157   -4.8469 H   0  0  0  0  0  0  0  0  0  0  0  0
    2.2168  -22.7836   -5.5598 H   0  0  0  0  0  0  0  0  0  0  0  0
  1  2  2  0  0  0
  1  5  1  0  0  0
  2  3  1  0  0  0
  3  4  2  0  0  0
  4  5  1  0  0  0
  4  6  1  0  0  0
  5  7  1  0  0  0
  6  8  1  0  0  0
  6  9  1  0  0  0
M  END
> <minimizedAffinity>
-4.34721

$$$$
3MJL_2AI_A_5001


  9  9  0  0  0  0  0  0  0  0999 V2000
   -3.3770  -24.7875   -3.1629 C   0  0  0  0  0  0  0  0  0  0  0  0
   -3.9662  -25.5079   -4.1433 C   0  0  0  0  0  0  0  0  0  0  0  0
   -5.1252  -24.8468   -4.4393 N   0  0  0  0  0  0  0  0  0  0  0  0
   -5.2483  -23.7737   -3.6877 C   0  0  0  0  0  0  0  0  0  0  0  0
   -4.1984  -23.7230   -2.8804 N   0  0  0  0  0  0  0  0  0  0  0  0
   -6.3382  -22.8917   -3.7759 N   0  0  0  0  0  0  0  0  0  0  0  0
   -4.0345  -23.0372   -2.1933 H   0  0  0  0  0  0  0  0  0  0  0  0
   -7.0538  -23.0575   -4.4314 H   0  0  0  0  0  0  0  0  0  0  0  0
   -6.3864  -22.1079   -3.1822 H   0  0  0  0  0  0  0  0  0  0  0  0
  1  2  2  0  0  0
  1  5  1  0  0  0
  2  3  1  0  0  0
  3  4  2  0  0  0
  4  5  1  0  0  0
  4  6  1  0  0  0
  5  7  1  0  0  0
  6  8  1  0  0  0
  6  9  1  0  0  0
M  END
> <minimizedAffinity>
-4.07342

$$$$
3MJL_2AI_A_5001


  9  9  0  0  0  0  0  0  0  0999 V2000
   -3.0620  -25.3434   -5.3181 C   0  0  0  0  0  0  0  0  0  0  0  0
   -4.0306  -26.1750   -4.8734 C   0  0  0  0  0  0  0  0  0  0  0  0
   -4.4951  -25.6133   -3.7173 N   0  0  0  0  0  0  0  0  0  0  0  0
   -3.8541  -24.4935   -3.4592 C   0  0  0  0  0  0  0  0  0  0  0  0
   -2.9543  -24.3131   -4.4155 N   0  0  0  0  0  0  0  0  0  0  0  0
   -4.1248  -23.6911   -2.3383 N   0  0  0  0  0  0  0  0  0  0  0  0
   -2.3157  -23.5658   -4.4700 H   0  0  0  0  0  0  0  0  0  0  0  0
   -4.8312  -23.9530   -1.7045 H   0  0  0  0  0  0  0  0  0  0  0  0
   -3.6081  -22.8670   -2.1865 H   0  0  0  0  0  0  0  0  0  0  0  0
  1  2  2  0  0  0
  1  5  1  0  0  0
  2  3  1  0  0  0
  3  4  2  0  0  0
  4  5  1  0  0  0
  4  6  1  0  0  0
  5  7  1  0  0  0
  6  8  1  0  0  0
  6  9  1  0  0  0
M  END
> <minimizedAffinity>
-3.85189

$$$$
3MJL_2AI_A_5001


  9  9  0  0  0  0  0  0  0  0999 V2000
   -3.4572  -27.0810   -5.5859 C   0  0  0  0  0  0  0  0  0  0  0  0
   -3.4993  -28.3973   -5.2809 C   0  0  0  0  0  0  0  0  0  0  0  0
   -4.8218  -28.7402   -5.3145 N   0  0  0  0  0  0  0  0  0  0  0  0
   -5.5605  -27.6969   -5.6263 C   0  0  0  0  0  0  0  0  0  0  0  0
   -4.7504  -26.6592   -5.7793 N   0  0  0  0  0  0  0  0  0  0  0  0
   -6.9594  -27.7505   -5.7445 N   0  0  0  0  0  0  0  0  0  0  0  0
   -5.0287  -25.7399   -5.9953 H   0  0  0  0  0  0  0  0  0  0  0  0
   -7.4332  -28.6015   -5.6014 H   0  0  0  0  0  0  0  0  0  0  0  0
   -7.4658  -26.9370   -5.9705 H   0  0  0  0  0  0  0  0  0  0  0  0
  1  2  2  0  0  0
  1  5  1  0  0  0
  2  3  1  0  0  0
  3  4  2  0  0  0
  4  5  1  0  0  0
  4  6  1  0  0  0
  5  7  1  0  0  0
  6  8  1  0  0  0
  6  9  1  0  0  0
M  END
> <minimizedAffinity>
-3.83302

$$$$
3MJL_2AI_A_5001


  9  9  0  0  0  0  0  0  0  0999 V2000
   -5.1895  -24.8784   -4.8611 C   0  0  0  0  0  0  0  0  0  0  0  0
   -4.1240  -24.8532   -5.6927 C   0  0  0  0  0  0  0  0  0  0  0  0
   -3.0293  -25.0252   -4.8928 N   0  0  0  0  0  0  0  0  0  0  0  0
   -3.3935  -25.1537   -3.6348 C   0  0  0  0  0  0  0  0  0  0  0  0
   -4.7136  -25.0478   -3.5833 N   0  0  0  0  0  0  0  0  0  0  0  0
   -2.4816  -25.3529   -2.5849 N   0  0  0  0  0  0  0  0  0  0  0  0
   -5.2615  -25.0843   -2.7662 H   0  0  0  0  0  0  0  0  0  0  0  0
   -1.5175  -25.4126   -2.7749 H   0  0  0  0  0  0  0  0  0  0  0  0
   -2.8067  -25.4327   -1.6590 H   0  0  0  0  0  0  0  0  0  0  0  0
  1  2  2  0  0  0
  1  5  1  0  0  0
  2  3  1  0  0  0
  3  4  2  0  0  0
  4  5  1  0  0  0
  4  6  1  0  0  0
  5  7  1  0  0  0
  6  8  1  0  0  0
  6  9  1  0  0  0
M  END
> <minimizedAffinity>
-3.78720

$$$$
3MJL_2AI_A_5001


  9  9  0  0  0  0  0  0  0  0999 V2000
   -4.0367  -25.6827   -4.3263 C   0  0  0  0  0  0  0  0  0  0  0  0
   -3.3145  -24.9587   -3.4423 C   0  0  0  0  0  0  0  0  0  0  0  0
   -4.0738  -23.8575   -3.1616 N   0  0  0  0  0  0  0  0  0  0  0  0
   -5.2062  -23.8961   -3.8308 C   0  0  0  0  0  0  0  0  0  0  0  0
   -5.2020  -24.9964   -4.5696 N   0  0  0  0  0  0  0  0  0  0  0  0
   -6.1923  -22.9001   -3.7352 N   0  0  0  0  0  0  0  0  0  0  0  0
   -5.9145  -25.2753   -5.1891 H   0  0  0  0  0  0  0  0  0  0  0  0
   -6.0574  -22.1296   -3.1374 H   0  0  0  0  0  0  0  0  0  0  0  0
   -7.0182  -22.9725   -4.2661 H   0  0  0  0  0  0  0  0  0  0  0  0
  1  2  2  0  0  0
  1  5  1  0  0  0
  2  3  1  0  0  0
  3  4  2  0  0  0
  4  5  1  0  0  0
  4  6  1  0  0  0
  5  7  1  0  0  0
  6  8  1  0  0  0
  6  9  1  0  0  0
M  END
> <minimizedAffinity>
-3.77597

$$$$
3MJL_2AI_A_5001


  9  9  0  0  0  0  0  0  0  0999 V2000
   -3.0934  -25.0054   -6.2502 C   0  0  0  0  0  0  0  0  0  0  0  0
   -3.1596  -24.4781   -5.0073 C   0  0  0  0  0  0  0  0  0  0  0  0
   -1.8743  -24.1498   -4.6784 N   0  0  0  0  0  0  0  0  0  0  0  0
   -1.0552  -24.4525   -5.6628 C   0  0  0  0  0  0  0  0  0  0  0  0
   -1.7740  -24.9978   -6.6335 N   0  0  0  0  0  0  0  0  0  0  0  0
    0.3293  -24.2193   -5.6128 N   0  0  0  0  0  0  0  0  0  0  0  0
   -1.4215  -25.3402   -7.4866 H   0  0  0  0  0  0  0  0  0  0  0  0
    0.7296  -23.8009   -4.8166 H   0  0  0  0  0  0  0  0  0  0  0  0
    0.8992  -24.4744   -6.3740 H   0  0  0  0  0  0  0  0  0  0  0  0
  1  2  2  0  0  0
  1  5  1  0  0  0
  2  3  1  0  0  0
  3  4  2  0  0  0
  4  5  1  0  0  0
  4  6  1  0  0  0
  5  7  1  0  0  0
  6  8  1  0  0  0
  6  9  1  0  0  0
M  END
> <minimizedAffinity>
-3.72652

$$$$
3MJL_2AI_A_5001


  9  9  0  0  0  0  0  0  0  0999 V2000
   -2.5469  -24.5470   -4.4378 C   0  0  0  0  0  0  0  0  0  0  0  0
   -2.9677  -25.1369   -3.2967 C   0  0  0  0  0  0  0  0  0  0  0  0
   -3.6078  -26.2794   -3.6878 N   0  0  0  0  0  0  0  0  0  0  0  0
   -3.5834  -26.3954   -4.9983 C   0  0  0  0  0  0  0  0  0  0  0  0
   -2.9553  -25.3354   -5.4865 N   0  0  0  0  0  0  0  0  0  0  0  0
   -4.1567  -27.4774   -5.6871 N   0  0  0  0  0  0  0  0  0  0  0  0
   -2.8064  -25.1447   -6.4408 H   0  0  0  0  0  0  0  0  0  0  0  0
   -4.5958  -28.2025   -5.1866 H   0  0  0  0  0  0  0  0  0  0  0  0
   -4.1193  -27.5104   -6.6704 H   0  0  0  0  0  0  0  0  0  0  0  0
  1  2  2  0  0  0
  1  5  1  0  0  0
  2  3  1  0  0  0
  3  4  2  0  0  0
  4  5  1  0  0  0
  4  6  1  0  0  0
  5  7  1  0  0  0
  6  8  1  0  0  0
  6  9  1  0  0  0
M  END
> <minimizedAffinity>
-3.69982

$$$$
3MJL_2AI_A_5001


  9  9  0  0  0  0  0  0  0  0999 V2000
   -4.6956  -24.4371   -3.8342 C   0  0  0  0  0  0  0  0  0  0  0  0
   -3.6139  -25.1218   -3.4000 C   0  0  0  0  0  0  0  0  0  0  0  0
   -3.5659  -26.2551   -4.1624 N   0  0  0  0  0  0  0  0  0  0  0  0
   -4.5597  -26.2727   -5.0247 C   0  0  0  0  0  0  0  0  0  0  0  0
   -5.2812  -25.1777   -4.8324 N   0  0  0  0  0  0  0  0  0  0  0  0
   -4.7611  -27.3125   -5.9477 N   0  0  0  0  0  0  0  0  0  0  0  0
   -6.0999  -24.9356   -5.3227 H   0  0  0  0  0  0  0  0  0  0  0  0
   -4.1359  -28.0724   -5.9773 H   0  0  0  0  0  0  0  0  0  0  0  0
   -5.5275  -27.2813   -6.5649 H   0  0  0  0  0  0  0  0  0  0  0  0
  1  2  2  0  0  0
  1  5  1  0  0  0
  2  3  1  0  0  0
  3  4  2  0  0  0
  4  5  1  0  0  0
  4  6  1  0  0  0
  5  7  1  0  0  0
  6  8  1  0  0  0
  6  9  1  0  0  0
M  END
> <minimizedAffinity>
-3.56977

$$$$
