3QT6_2P0_A_328


 24 24  0  0  0  0  0  0  0  0999 V2000
  -25.0165  -20.8366  -19.9660 C   0  0  0  0  0  0  0  0  0  0  0  0
  -26.9206  -22.5318  -20.1743 N   0  0  0  0  0  0  0  0  0  0  0  0
  -26.8408  -23.0500  -18.8479 C   0  0  0  0  0  0  0  0  0  0  0  0
  -28.0892  -23.8312  -18.6231 C   0  0  0  0  0  0  0  0  0  0  0  0
  -27.9513  -23.1831  -20.9098 C   0  0  0  0  0  0  0  0  0  0  0  0
  -28.9024  -23.7082  -19.8847 C   0  0  0  0  0  0  0  0  0  0  0  0
  -26.2994  -21.1856  -21.8936 O   0  0  0  0  0  0  0  0  0  0  0  0
  -26.1004  -21.5139  -20.7356 C   0  0  0  0  0  0  0  0  0  0  0  0
  -25.6732  -23.9400  -18.6901 C   0  0  0  0  0  0  0  0  0  0  0  0
  -24.7732  -23.6477  -17.8600 O   0  0  0  0  0  0  0  0  0  0  0  0
  -25.5444  -24.9907  -19.3833 O   0  0  0  0  0  0  0  0  0  0  0  0
  -24.8511  -22.8736  -17.3378 H   0  0  0  0  0  0  0  0  0  0  0  0
  -25.1222  -19.4562  -19.9718 O   0  0  0  0  0  0  0  0  0  0  0  0
  -23.2497  -19.2489  -21.5823 O   0  0  0  0  0  0  0  0  0  0  0  0
  -23.1390  -18.0623  -19.3785 O   0  0  0  0  0  0  0  0  0  0  0  0
  -24.0267  -18.4945  -20.5343 P   0  0  0  0  0  0  0  0  0  0  0  0
  -22.6724  -18.8347  -19.0228 H   0  0  0  0  0  0  0  0  0  0  0  0
  -24.7916  -17.2419  -21.1211 O   0  0  0  0  0  0  0  0  0  0  0  0
  -25.5072  -15.1004  -20.0177 O   0  0  0  0  0  0  0  0  0  0  0  0
  -23.0920  -15.5330  -20.3033 O   0  0  0  0  0  0  0  0  0  0  0  0
  -24.4024  -15.0333  -22.2499 O   0  0  0  0  0  0  0  0  0  0  0  0
  -24.4618  -15.7141  -20.9067 P   0  0  0  0  0  0  0  0  0  0  0  0
  -25.3069  -14.1608  -19.8841 H   0  0  0  0  0  0  0  0  0  0  0  0
  -22.9146  -14.5871  -20.1822 H   0  0  0  0  0  0  0  0  0  0  0  0
 11  9  2  0  0  0
  3  9  1  0  0  0
  9 10  1  0  0  0
  8  2  1  0  0  0
  5  2  1  0  0  0
  2  3  1  0  0  0
  3  4  1  0  0  0
  6  4  1  0  0  0
  5  6  1  0  0  0
  7  8  2  0  0  0
 19 22  1  0  0  0
 14 16  2  0  0  0
 22 20  1  0  0  0
 21 22  2  0  0  0
 16 15  1  0  0  0
 13  1  1  0  0  0
  8  1  1  0  0  0
 13 16  1  0  0  0
 16 18  1  0  0  0
 18 22  1  0  0  0
 10 12  1  0  0  0
 19 23  1  0  0  0
 20 24  1  0  0  0
 15 17  1  0  0  0
M  END
> <minimizedAffinity>
-8.68310

$$$$
3QT6_2P0_A_328


 24 24  0  0  0  0  0  0  0  0999 V2000
  -24.7849  -18.5085  -20.1070 C   0  0  0  0  0  0  0  0  0  0  0  0
  -25.0679  -20.6869  -21.4173 N   0  0  0  0  0  0  0  0  0  0  0  0
  -26.3613  -21.0246  -20.9201 C   0  0  0  0  0  0  0  0  0  0  0  0
  -26.8868  -22.1016  -21.8051 C   0  0  0  0  0  0  0  0  0  0  0  0
  -24.6046  -21.6750  -22.3319 C   0  0  0  0  0  0  0  0  0  0  0  0
  -25.8342  -22.3427  -22.8549 C   0  0  0  0  0  0  0  0  0  0  0  0
  -23.2053  -19.4002  -21.5879 O   0  0  0  0  0  0  0  0  0  0  0  0
  -24.3012  -19.5399  -21.0704 C   0  0  0  0  0  0  0  0  0  0  0  0
  -26.2879  -21.5254  -19.5330 C   0  0  0  0  0  0  0  0  0  0  0  0
  -27.1658  -21.1831  -18.6985 O   0  0  0  0  0  0  0  0  0  0  0  0
  -25.3495  -22.2846  -19.1532 O   0  0  0  0  0  0  0  0  0  0  0  0
  -27.8682  -20.6214  -18.9612 H   0  0  0  0  0  0  0  0  0  0  0  0
  -23.8966  -17.4603  -19.9363 O   0  0  0  0  0  0  0  0  0  0  0  0
  -23.7165  -15.4012  -18.5685 O   0  0  0  0  0  0  0  0  0  0  0  0
  -25.8380  -15.8977  -19.8053 O   0  0  0  0  0  0  0  0  0  0  0  0
  -24.3195  -15.9598  -19.8317 P   0  0  0  0  0  0  0  0  0  0  0  0
  -26.1656  -16.3337  -19.0031 H   0  0  0  0  0  0  0  0  0  0  0  0
  -23.7759  -15.2514  -21.1361 O   0  0  0  0  0  0  0  0  0  0  0  0
  -23.6375  -14.5380  -23.5418 O   0  0  0  0  0  0  0  0  0  0  0  0
  -23.1451  -16.8918  -22.9770 O   0  0  0  0  0  0  0  0  0  0  0  0
  -25.4148  -16.1295  -22.8233 O   0  0  0  0  0  0  0  0  0  0  0  0
  -23.9860  -15.6873  -22.6377 P   0  0  0  0  0  0  0  0  0  0  0  0
  -23.7658  -14.8033  -24.4660 H   0  0  0  0  0  0  0  0  0  0  0  0
  -23.2926  -17.1385  -23.9034 H   0  0  0  0  0  0  0  0  0  0  0  0
 11  9  2  0  0  0
  3  9  1  0  0  0
  9 10  1  0  0  0
  8  2  1  0  0  0
  5  2  1  0  0  0
  2  3  1  0  0  0
  3  4  1  0  0  0
  6  4  1  0  0  0
  5  6  1  0  0  0
  7  8  2  0  0  0
 19 22  1  0  0  0
 14 16  2  0  0  0
 22 20  1  0  0  0
 21 22  2  0  0  0
 16 15  1  0  0  0
 13  1  1  0  0  0
  8  1  1  0  0  0
 13 16  1  0  0  0
 16 18  1  0  0  0
 18 22  1  0  0  0
 10 12  1  0  0  0
 19 23  1  0  0  0
 20 24  1  0  0  0
 15 17  1  0  0  0
M  END
> <minimizedAffinity>
-8.41804

$$$$
3QT6_2P0_A_328


 24 24  0  0  0  0  0  0  0  0999 V2000
  -25.1605  -20.9176  -19.2636 C   0  0  0  0  0  0  0  0  0  0  0  0
  -24.7361  -23.3721  -19.8445 N   0  0  0  0  0  0  0  0  0  0  0  0
  -25.1428  -23.3028  -21.2098 C   0  0  0  0  0  0  0  0  0  0  0  0
  -24.6630  -24.5552  -21.8582 C   0  0  0  0  0  0  0  0  0  0  0  0
  -24.3303  -24.6941  -19.5049 C   0  0  0  0  0  0  0  0  0  0  0  0
  -23.9335  -25.3336  -20.7951 C   0  0  0  0  0  0  0  0  0  0  0  0
  -24.3511  -22.5304  -17.7714 O   0  0  0  0  0  0  0  0  0  0  0  0
  -24.7290  -22.3008  -18.9085 C   0  0  0  0  0  0  0  0  0  0  0  0
  -26.6126  -23.2245  -21.3275 C   0  0  0  0  0  0  0  0  0  0  0  0
  -27.1303  -22.7245  -22.3600 O   0  0  0  0  0  0  0  0  0  0  0  0
  -27.3725  -23.6370  -20.4037 O   0  0  0  0  0  0  0  0  0  0  0  0
  -26.5837  -22.4136  -23.0547 H   0  0  0  0  0  0  0  0  0  0  0  0
  -24.1013  -20.0510  -19.4730 O   0  0  0  0  0  0  0  0  0  0  0  0
  -25.5911  -18.6433  -20.8665 O   0  0  0  0  0  0  0  0  0  0  0  0
  -23.2077  -18.9986  -21.5519 O   0  0  0  0  0  0  0  0  0  0  0  0
  -24.1680  -18.7894  -20.3924 P   0  0  0  0  0  0  0  0  0  0  0  0
  -23.5079  -19.7484  -22.0892 H   0  0  0  0  0  0  0  0  0  0  0  0
  -23.6870  -17.5690  -19.5105 O   0  0  0  0  0  0  0  0  0  0  0  0
  -23.2651  -15.4452  -20.7860 O   0  0  0  0  0  0  0  0  0  0  0  0
  -25.5436  -15.8812  -19.9375 O   0  0  0  0  0  0  0  0  0  0  0  0
  -23.8192  -15.3418  -18.3591 O   0  0  0  0  0  0  0  0  0  0  0  0
  -24.0695  -16.0465  -19.6675 P   0  0  0  0  0  0  0  0  0  0  0  0
  -23.4982  -14.5089  -20.8849 H   0  0  0  0  0  0  0  0  0  0  0  0
  -25.7517  -14.9383  -20.0297 H   0  0  0  0  0  0  0  0  0  0  0  0
 11  9  2  0  0  0
  3  9  1  0  0  0
  9 10  1  0  0  0
  8  2  1  0  0  0
  5  2  1  0  0  0
  2  3  1  0  0  0
  3  4  1  0  0  0
  6  4  1  0  0  0
  5  6  1  0  0  0
  7  8  2  0  0  0
 19 22  1  0  0  0
 14 16  2  0  0  0
 22 20  1  0  0  0
 21 22  2  0  0  0
 16 15  1  0  0  0
 13  1  1  0  0  0
  8  1  1  0  0  0
 13 16  1  0  0  0
 16 18  1  0  0  0
 18 22  1  0  0  0
 10 12  1  0  0  0
 19 23  1  0  0  0
 20 24  1  0  0  0
 15 17  1  0  0  0
M  END
> <minimizedAffinity>
-8.29298

$$$$
3QT6_2P0_A_328


 24 24  0  0  0  0  0  0  0  0999 V2000
  -24.3905  -21.0511  -21.9200 C   0  0  0  0  0  0  0  0  0  0  0  0
  -23.8045  -23.2545  -20.7606 N   0  0  0  0  0  0  0  0  0  0  0  0
  -25.0151  -23.3906  -20.0190 C   0  0  0  0  0  0  0  0  0  0  0  0
  -25.0465  -24.7918  -19.5138 C   0  0  0  0  0  0  0  0  0  0  0  0
  -22.9244  -24.3419  -20.4949 C   0  0  0  0  0  0  0  0  0  0  0  0
  -23.7999  -25.4598  -20.0313 C   0  0  0  0  0  0  0  0  0  0  0  0
  -22.3857  -22.2270  -22.2048 O   0  0  0  0  0  0  0  0  0  0  0  0
  -23.4703  -22.1933  -21.6471 C   0  0  0  0  0  0  0  0  0  0  0  0
  -25.0496  -22.4584  -18.8744 C   0  0  0  0  0  0  0  0  0  0  0  0
  -25.8013  -21.4495  -18.9136 O   0  0  0  0  0  0  0  0  0  0  0  0
  -24.3266  -22.6400  -17.8520 O   0  0  0  0  0  0  0  0  0  0  0  0
  -26.3439  -21.2983  -19.6623 H   0  0  0  0  0  0  0  0  0  0  0  0
  -23.8100  -19.8148  -21.6928 O   0  0  0  0  0  0  0  0  0  0  0  0
  -23.6067  -19.1694  -19.3084 O   0  0  0  0  0  0  0  0  0  0  0  0
  -25.8034  -18.9197  -20.4871 O   0  0  0  0  0  0  0  0  0  0  0  0
  -24.2918  -18.8064  -20.6008 P   0  0  0  0  0  0  0  0  0  0  0  0
  -26.0382  -19.8053  -20.1684 H   0  0  0  0  0  0  0  0  0  0  0  0
  -23.8990  -17.3659  -21.1197 O   0  0  0  0  0  0  0  0  0  0  0  0
  -25.3295  -16.1661  -19.4375 O   0  0  0  0  0  0  0  0  0  0  0  0
  -23.0543  -15.3110  -19.8781 O   0  0  0  0  0  0  0  0  0  0  0  0
  -24.7267  -15.0401  -21.5768 O   0  0  0  0  0  0  0  0  0  0  0  0
  -24.2676  -15.9702  -20.4834 P   0  0  0  0  0  0  0  0  0  0  0  0
  -25.5582  -15.3093  -19.0445 H   0  0  0  0  0  0  0  0  0  0  0  0
  -23.3078  -14.4568  -19.4948 H   0  0  0  0  0  0  0  0  0  0  0  0
 11  9  2  0  0  0
  3  9  1  0  0  0
  9 10  1  0  0  0
  8  2  1  0  0  0
  5  2  1  0  0  0
  2  3  1  0  0  0
  3  4  1  0  0  0
  6  4  1  0  0  0
  5  6  1  0  0  0
  7  8  2  0  0  0
 19 22  1  0  0  0
 14 16  2  0  0  0
 22 20  1  0  0  0
 21 22  2  0  0  0
 16 15  1  0  0  0
 13  1  1  0  0  0
  8  1  1  0  0  0
 13 16  1  0  0  0
 16 18  1  0  0  0
 18 22  1  0  0  0
 10 12  1  0  0  0
 19 23  1  0  0  0
 20 24  1  0  0  0
 15 17  1  0  0  0
M  END
> <minimizedAffinity>
-8.26658

$$$$
3QT6_2P0_A_328


 24 24  0  0  0  0  0  0  0  0999 V2000
  -26.4466  -22.4024  -22.2348 C   0  0  0  0  0  0  0  0  0  0  0  0
  -26.7582  -23.3646  -19.8854 N   0  0  0  0  0  0  0  0  0  0  0  0
  -25.3831  -23.3547  -19.5073 C   0  0  0  0  0  0  0  0  0  0  0  0
  -25.3483  -23.5635  -18.0327 C   0  0  0  0  0  0  0  0  0  0  0  0
  -27.5674  -23.8818  -18.8342 C   0  0  0  0  0  0  0  0  0  0  0  0
  -26.7818  -23.6651  -17.5823 C   0  0  0  0  0  0  0  0  0  0  0  0
  -28.5024  -23.0148  -21.2960 O   0  0  0  0  0  0  0  0  0  0  0  0
  -27.2960  -22.9381  -21.1316 C   0  0  0  0  0  0  0  0  0  0  0  0
  -24.6371  -24.4420  -20.1718 C   0  0  0  0  0  0  0  0  0  0  0  0
  -24.6966  -25.6119  -19.7115 O   0  0  0  0  0  0  0  0  0  0  0  0
  -23.9214  -24.2247  -21.1925 O   0  0  0  0  0  0  0  0  0  0  0  0
  -25.2214  -25.7921  -18.9564 H   0  0  0  0  0  0  0  0  0  0  0  0
  -25.9685  -21.1269  -21.9870 O   0  0  0  0  0  0  0  0  0  0  0  0
  -24.6049  -19.7446  -23.5275 O   0  0  0  0  0  0  0  0  0  0  0  0
  -23.6728  -21.8816  -22.6102 O   0  0  0  0  0  0  0  0  0  0  0  0
  -24.5194  -20.6514  -22.3267 P   0  0  0  0  0  0  0  0  0  0  0  0
  -24.0092  -22.3303  -23.4017 H   0  0  0  0  0  0  0  0  0  0  0  0
  -23.9787  -19.9130  -21.0379 O   0  0  0  0  0  0  0  0  0  0  0  0
  -23.1671  -18.1044  -19.4933 O   0  0  0  0  0  0  0  0  0  0  0  0
  -23.4006  -17.5883  -21.8977 O   0  0  0  0  0  0  0  0  0  0  0  0
  -25.3921  -17.8862  -20.5933 O   0  0  0  0  0  0  0  0  0  0  0  0
  -23.9701  -18.3644  -20.7373 P   0  0  0  0  0  0  0  0  0  0  0  0
  -23.1601  -17.1527  -19.3060 H   0  0  0  0  0  0  0  0  0  0  0  0
  -23.4068  -16.6414  -21.6875 H   0  0  0  0  0  0  0  0  0  0  0  0
 11  9  2  0  0  0
  3  9  1  0  0  0
  9 10  1  0  0  0
  8  2  1  0  0  0
  5  2  1  0  0  0
  2  3  1  0  0  0
  3  4  1  0  0  0
  6  4  1  0  0  0
  5  6  1  0  0  0
  7  8  2  0  0  0
 19 22  1  0  0  0
 14 16  2  0  0  0
 22 20  1  0  0  0
 21 22  2  0  0  0
 16 15  1  0  0  0
 13  1  1  0  0  0
  8  1  1  0  0  0
 13 16  1  0  0  0
 16 18  1  0  0  0
 18 22  1  0  0  0
 10 12  1  0  0  0
 19 23  1  0  0  0
 20 24  1  0  0  0
 15 17  1  0  0  0
M  END
> <minimizedAffinity>
-8.03897

$$$$
3QT6_2P0_A_328


 24 24  0  0  0  0  0  0  0  0999 V2000
  -25.3158  -20.4846  -19.9147 C   0  0  0  0  0  0  0  0  0  0  0  0
  -26.9734  -22.4093  -19.6133 N   0  0  0  0  0  0  0  0  0  0  0  0
  -26.2122  -23.1497  -18.6612 C   0  0  0  0  0  0  0  0  0  0  0  0
  -27.1358  -24.1613  -18.0758 C   0  0  0  0  0  0  0  0  0  0  0  0
  -28.1968  -23.0748  -19.9093 C   0  0  0  0  0  0  0  0  0  0  0  0
  -28.4768  -23.9408  -18.7249 C   0  0  0  0  0  0  0  0  0  0  0  0
  -27.3705  -20.6736  -21.0219 O   0  0  0  0  0  0  0  0  0  0  0  0
  -26.6009  -21.1779  -20.2207 C   0  0  0  0  0  0  0  0  0  0  0  0
  -25.0763  -23.8401  -19.3040 C   0  0  0  0  0  0  0  0  0  0  0  0
  -25.2916  -24.6789  -20.2175 O   0  0  0  0  0  0  0  0  0  0  0  0
  -23.8821  -23.6202  -18.9482 O   0  0  0  0  0  0  0  0  0  0  0  0
  -26.1693  -24.8550  -20.4944 H   0  0  0  0  0  0  0  0  0  0  0  0
  -25.2818  -19.1741  -20.3602 O   0  0  0  0  0  0  0  0  0  0  0  0
  -23.1988  -19.1765  -21.7034 O   0  0  0  0  0  0  0  0  0  0  0  0
  -23.1863  -18.2372  -19.3808 O   0  0  0  0  0  0  0  0  0  0  0  0
  -23.9687  -18.3881  -20.6753 P   0  0  0  0  0  0  0  0  0  0  0  0
  -22.9150  -19.1126  -19.0630 H   0  0  0  0  0  0  0  0  0  0  0  0
  -24.4156  -16.9661  -21.2013 O   0  0  0  0  0  0  0  0  0  0  0  0
  -24.7027  -17.1038  -23.6941 O   0  0  0  0  0  0  0  0  0  0  0  0
  -24.5810  -14.8731  -22.6400 O   0  0  0  0  0  0  0  0  0  0  0  0
  -22.5854  -16.2010  -22.7403 O   0  0  0  0  0  0  0  0  0  0  0  0
  -24.0819  -16.2949  -22.5895 P   0  0  0  0  0  0  0  0  0  0  0  0
  -24.4991  -16.6933  -24.5491 H   0  0  0  0  0  0  0  0  0  0  0  0
  -24.3636  -14.4845  -23.5018 H   0  0  0  0  0  0  0  0  0  0  0  0
 11  9  2  0  0  0
  3  9  1  0  0  0
  9 10  1  0  0  0
  8  2  1  0  0  0
  5  2  1  0  0  0
  2  3  1  0  0  0
  3  4  1  0  0  0
  6  4  1  0  0  0
  5  6  1  0  0  0
  7  8  2  0  0  0
 19 22  1  0  0  0
 14 16  2  0  0  0
 22 20  1  0  0  0
 21 22  2  0  0  0
 16 15  1  0  0  0
 13  1  1  0  0  0
  8  1  1  0  0  0
 13 16  1  0  0  0
 16 18  1  0  0  0
 18 22  1  0  0  0
 10 12  1  0  0  0
 19 23  1  0  0  0
 20 24  1  0  0  0
 15 17  1  0  0  0
M  END
> <minimizedAffinity>
-7.99364

$$$$
3QT6_2P0_A_328


 24 24  0  0  0  0  0  0  0  0999 V2000
  -24.6063  -20.7927  -23.0845 C   0  0  0  0  0  0  0  0  0  0  0  0
  -24.2744  -23.1882  -22.2514 N   0  0  0  0  0  0  0  0  0  0  0  0
  -23.1165  -22.9395  -21.4569 C   0  0  0  0  0  0  0  0  0  0  0  0
  -22.9304  -24.1389  -20.5931 C   0  0  0  0  0  0  0  0  0  0  0  0
  -24.6399  -24.5632  -22.1948 C   0  0  0  0  0  0  0  0  0  0  0  0
  -24.0631  -25.0773  -20.9164 C   0  0  0  0  0  0  0  0  0  0  0  0
  -25.9678  -22.6121  -23.6496 O   0  0  0  0  0  0  0  0  0  0  0  0
  -24.9939  -22.2320  -23.0208 C   0  0  0  0  0  0  0  0  0  0  0  0
  -21.9183  -22.7545  -22.2997 C   0  0  0  0  0  0  0  0  0  0  0  0
  -21.5184  -21.5920  -22.5697 O   0  0  0  0  0  0  0  0  0  0  0  0
  -21.2852  -23.7420  -22.7743 O   0  0  0  0  0  0  0  0  0  0  0  0
  -21.9743  -20.8484  -22.2274 H   0  0  0  0  0  0  0  0  0  0  0  0
  -25.1809  -20.0267  -22.0846 O   0  0  0  0  0  0  0  0  0  0  0  0
  -22.9509  -19.0912  -21.5418 O   0  0  0  0  0  0  0  0  0  0  0  0
  -24.4450  -19.9059  -19.7030 O   0  0  0  0  0  0  0  0  0  0  0  0
  -24.3694  -19.1917  -21.0427 P   0  0  0  0  0  0  0  0  0  0  0  0
  -24.0042  -20.7673  -19.7705 H   0  0  0  0  0  0  0  0  0  0  0  0
  -25.0855  -17.7861  -20.9429 O   0  0  0  0  0  0  0  0  0  0  0  0
  -25.4881  -16.0154  -19.2056 O   0  0  0  0  0  0  0  0  0  0  0  0
  -23.1599  -16.6699  -19.7083 O   0  0  0  0  0  0  0  0  0  0  0  0
  -24.3748  -15.4130  -21.3516 O   0  0  0  0  0  0  0  0  0  0  0  0
  -24.5386  -16.4620  -20.2820 P   0  0  0  0  0  0  0  0  0  0  0  0
  -25.1543  -15.2013  -18.7974 H   0  0  0  0  0  0  0  0  0  0  0  0
  -22.8477  -15.8428  -19.3091 H   0  0  0  0  0  0  0  0  0  0  0  0
 11  9  2  0  0  0
  3  9  1  0  0  0
  9 10  1  0  0  0
  8  2  1  0  0  0
  5  2  1  0  0  0
  2  3  1  0  0  0
  3  4  1  0  0  0
  6  4  1  0  0  0
  5  6  1  0  0  0
  7  8  2  0  0  0
 19 22  1  0  0  0
 14 16  2  0  0  0
 22 20  1  0  0  0
 21 22  2  0  0  0
 16 15  1  0  0  0
 13  1  1  0  0  0
  8  1  1  0  0  0
 13 16  1  0  0  0
 16 18  1  0  0  0
 18 22  1  0  0  0
 10 12  1  0  0  0
 19 23  1  0  0  0
 20 24  1  0  0  0
 15 17  1  0  0  0
M  END
> <minimizedAffinity>
-7.94383

$$$$
3QT6_2P0_A_328


 24 24  0  0  0  0  0  0  0  0999 V2000
  -25.9828  -20.2222  -20.2073 C   0  0  0  0  0  0  0  0  0  0  0  0
  -25.5402  -22.7291  -19.9572 N   0  0  0  0  0  0  0  0  0  0  0  0
  -24.2804  -22.7530  -20.6254 C   0  0  0  0  0  0  0  0  0  0  0  0
  -23.6590  -24.0696  -20.3097 C   0  0  0  0  0  0  0  0  0  0  0  0
  -25.9044  -24.0340  -19.5192 C   0  0  0  0  0  0  0  0  0  0  0  0
  -24.6203  -24.7878  -19.3997 C   0  0  0  0  0  0  0  0  0  0  0  0
  -27.4184  -21.7408  -19.1509 O   0  0  0  0  0  0  0  0  0  0  0  0
  -26.3623  -21.5881  -19.7423 C   0  0  0  0  0  0  0  0  0  0  0  0
  -24.4472  -22.6301  -22.0873 C   0  0  0  0  0  0  0  0  0  0  0  0
  -24.1687  -21.5435  -22.6582 O   0  0  0  0  0  0  0  0  0  0  0  0
  -24.8803  -23.5919  -22.7863 O   0  0  0  0  0  0  0  0  0  0  0  0
  -23.8468  -20.8200  -22.1572 H   0  0  0  0  0  0  0  0  0  0  0  0
  -24.7027  -19.8525  -19.8312 O   0  0  0  0  0  0  0  0  0  0  0  0
  -23.2048  -19.0517  -21.6363 O   0  0  0  0  0  0  0  0  0  0  0  0
  -22.9957  -18.1033  -19.3268 O   0  0  0  0  0  0  0  0  0  0  0  0
  -23.9452  -18.6099  -20.4002 P   0  0  0  0  0  0  0  0  0  0  0  0
  -22.3228  -18.7780  -19.1456 H   0  0  0  0  0  0  0  0  0  0  0  0
  -25.0461  -17.5166  -20.7025 O   0  0  0  0  0  0  0  0  0  0  0  0
  -25.3827  -15.0796  -20.1895 O   0  0  0  0  0  0  0  0  0  0  0  0
  -23.3737  -15.7534  -21.4591 O   0  0  0  0  0  0  0  0  0  0  0  0
  -25.5086  -15.8769  -22.5467 O   0  0  0  0  0  0  0  0  0  0  0  0
  -24.8332  -16.0378  -21.2091 P   0  0  0  0  0  0  0  0  0  0  0  0
  -25.2532  -14.1693  -20.4985 H   0  0  0  0  0  0  0  0  0  0  0  0
  -23.2707  -14.8400  -21.7689 H   0  0  0  0  0  0  0  0  0  0  0  0
 11  9  2  0  0  0
  3  9  1  0  0  0
  9 10  1  0  0  0
  8  2  1  0  0  0
  5  2  1  0  0  0
  2  3  1  0  0  0
  3  4  1  0  0  0
  6  4  1  0  0  0
  5  6  1  0  0  0
  7  8  2  0  0  0
 19 22  1  0  0  0
 14 16  2  0  0  0
 22 20  1  0  0  0
 21 22  2  0  0  0
 16 15  1  0  0  0
 13  1  1  0  0  0
  8  1  1  0  0  0
 13 16  1  0  0  0
 16 18  1  0  0  0
 18 22  1  0  0  0
 10 12  1  0  0  0
 19 23  1  0  0  0
 20 24  1  0  0  0
 15 17  1  0  0  0
M  END
> <minimizedAffinity>
-7.94262

$$$$
3QT6_2P0_A_328


 24 24  0  0  0  0  0  0  0  0999 V2000
  -24.8769  -19.7004  -20.1814 C   0  0  0  0  0  0  0  0  0  0  0  0
  -26.2254  -21.8606  -20.4221 N   0  0  0  0  0  0  0  0  0  0  0  0
  -26.2558  -22.2042  -19.0382 C   0  0  0  0  0  0  0  0  0  0  0  0
  -27.2874  -23.2687  -18.8892 C   0  0  0  0  0  0  0  0  0  0  0  0
  -26.9111  -22.8363  -21.2000 C   0  0  0  0  0  0  0  0  0  0  0  0
  -27.8669  -23.4960  -20.2606 C   0  0  0  0  0  0  0  0  0  0  0  0
  -25.6658  -20.5728  -22.2062 O   0  0  0  0  0  0  0  0  0  0  0  0
  -25.6007  -20.7189  -20.9967 C   0  0  0  0  0  0  0  0  0  0  0  0
  -24.9496  -22.7239  -18.5866 C   0  0  0  0  0  0  0  0  0  0  0  0
  -24.1491  -23.2141  -19.4251 O   0  0  0  0  0  0  0  0  0  0  0  0
  -24.6161  -22.7028  -17.3662 O   0  0  0  0  0  0  0  0  0  0  0  0
  -24.3786  -23.2384  -20.3332 H   0  0  0  0  0  0  0  0  0  0  0  0
  -25.4264  -18.4332  -20.2758 O   0  0  0  0  0  0  0  0  0  0  0  0
  -23.2089  -17.4726  -19.7253 O   0  0  0  0  0  0  0  0  0  0  0  0
  -25.2947  -16.2061  -19.1574 O   0  0  0  0  0  0  0  0  0  0  0  0
  -24.6036  -17.1094  -20.1659 P   0  0  0  0  0  0  0  0  0  0  0  0
  -25.2692  -16.6209  -18.2810 H   0  0  0  0  0  0  0  0  0  0  0  0
  -24.6400  -16.4416  -21.5981 O   0  0  0  0  0  0  0  0  0  0  0  0
  -22.6395  -16.1504  -23.0910 O   0  0  0  0  0  0  0  0  0  0  0  0
  -23.6265  -18.4034  -22.8637 O   0  0  0  0  0  0  0  0  0  0  0  0
  -24.8487  -16.7371  -24.0826 O   0  0  0  0  0  0  0  0  0  0  0  0
  -23.9159  -16.9245  -22.9139 P   0  0  0  0  0  0  0  0  0  0  0  0
  -22.1921  -16.4454  -23.8995 H   0  0  0  0  0  0  0  0  0  0  0  0
  -23.1823  -18.6739  -23.6825 H   0  0  0  0  0  0  0  0  0  0  0  0
 11  9  2  0  0  0
  3  9  1  0  0  0
  9 10  1  0  0  0
  8  2  1  0  0  0
  5  2  1  0  0  0
  2  3  1  0  0  0
  3  4  1  0  0  0
  6  4  1  0  0  0
  5  6  1  0  0  0
  7  8  2  0  0  0
 19 22  1  0  0  0
 14 16  2  0  0  0
 22 20  1  0  0  0
 21 22  2  0  0  0
 16 15  1  0  0  0
 13  1  1  0  0  0
  8  1  1  0  0  0
 13 16  1  0  0  0
 16 18  1  0  0  0
 18 22  1  0  0  0
 10 12  1  0  0  0
 19 23  1  0  0  0
 20 24  1  0  0  0
 15 17  1  0  0  0
M  END
> <minimizedAffinity>
-7.80809

$$$$
3QT6_2P0_A_328


 24 24  0  0  0  0  0  0  0  0999 V2000
  -25.3375  -20.6173  -19.5419 C   0  0  0  0  0  0  0  0  0  0  0  0
  -27.0085  -22.5479  -19.3892 N   0  0  0  0  0  0  0  0  0  0  0  0
  -26.3267  -23.2916  -18.3810 C   0  0  0  0  0  0  0  0  0  0  0  0
  -27.2927  -24.3088  -17.8796 C   0  0  0  0  0  0  0  0  0  0  0  0
  -28.2012  -23.2150  -19.7891 C   0  0  0  0  0  0  0  0  0  0  0  0
  -28.5758  -24.0882  -18.6366 C   0  0  0  0  0  0  0  0  0  0  0  0
  -27.2926  -20.8057  -20.8168 O   0  0  0  0  0  0  0  0  0  0  0  0
  -26.5907  -21.3123  -19.9571 C   0  0  0  0  0  0  0  0  0  0  0  0
  -25.1393  -23.9756  -18.9310 C   0  0  0  0  0  0  0  0  0  0  0  0
  -25.2635  -25.1075  -19.4673 O   0  0  0  0  0  0  0  0  0  0  0  0
  -23.9873  -23.4563  -18.8641 O   0  0  0  0  0  0  0  0  0  0  0  0
  -26.1086  -25.5079  -19.5260 H   0  0  0  0  0  0  0  0  0  0  0  0
  -25.2681  -19.3062  -19.9809 O   0  0  0  0  0  0  0  0  0  0  0  0
  -23.1257  -18.1188  -19.6020 O   0  0  0  0  0  0  0  0  0  0  0  0
  -24.5021  -17.5959  -21.6291 O   0  0  0  0  0  0  0  0  0  0  0  0
  -24.0186  -18.6794  -20.6790 P   0  0  0  0  0  0  0  0  0  0  0  0
  -24.9211  -16.8837  -21.1210 H   0  0  0  0  0  0  0  0  0  0  0  0
  -23.3339  -19.8451  -21.4981 O   0  0  0  0  0  0  0  0  0  0  0  0
  -25.3474  -20.2321  -22.9511 O   0  0  0  0  0  0  0  0  0  0  0  0
  -23.1042  -20.3912  -23.9733 O   0  0  0  0  0  0  0  0  0  0  0  0
  -23.7959  -22.1184  -22.4585 O   0  0  0  0  0  0  0  0  0  0  0  0
  -23.9180  -20.6407  -22.7288 P   0  0  0  0  0  0  0  0  0  0  0  0
  -25.7092  -20.7198  -23.7075 H   0  0  0  0  0  0  0  0  0  0  0  0
  -23.4836  -20.8907  -24.7132 H   0  0  0  0  0  0  0  0  0  0  0  0
 11  9  2  0  0  0
  3  9  1  0  0  0
  9 10  1  0  0  0
  8  2  1  0  0  0
  5  2  1  0  0  0
  2  3  1  0  0  0
  3  4  1  0  0  0
  6  4  1  0  0  0
  5  6  1  0  0  0
  7  8  2  0  0  0
 19 22  1  0  0  0
 14 16  2  0  0  0
 22 20  1  0  0  0
 21 22  2  0  0  0
 16 15  1  0  0  0
 13  1  1  0  0  0
  8  1  1  0  0  0
 13 16  1  0  0  0
 16 18  1  0  0  0
 18 22  1  0  0  0
 10 12  1  0  0  0
 19 23  1  0  0  0
 20 24  1  0  0  0
 15 17  1  0  0  0
M  END
> <minimizedAffinity>
-7.66513

$$$$
