4CLJ_5P8_A_2402


 32 35  0  0  0  0  0  0  0  0999 V2000
  -34.5222  -18.9935   61.3338 C   0  0  0  0  0  0  0  0  0  0  0  0
  -34.9741  -18.7980   62.6551 C   0  0  0  0  0  0  0  0  0  0  0  0
  -30.1562  -17.3810   60.9140 C   0  0  0  0  0  0  0  0  0  0  0  0
  -33.8790  -16.5889   62.7121 C   0  0  0  0  0  0  0  0  0  0  0  0
  -28.0200  -17.7682   61.8529 C   0  0  0  0  0  0  0  0  0  0  0  0
  -27.9002  -20.2141   59.7392 C   0  0  0  0  0  0  0  0  0  0  0  0
  -29.0408  -18.2327   61.0013 C   0  0  0  0  0  0  0  0  0  0  0  0
  -29.0262  -19.5137   60.2332 C   0  0  0  0  0  0  0  0  0  0  0  0
  -33.7369  -17.9869   60.6798 C   0  0  0  0  0  0  0  0  0  0  0  0
  -33.3975  -16.7488   61.3649 C   0  0  0  0  0  0  0  0  0  0  0  0
  -30.2846  -16.1575   61.6090 C   0  0  0  0  0  0  0  0  0  0  0  0
  -34.6511  -17.6030   63.3300 C   0  0  0  0  0  0  0  0  0  0  0  0
  -30.1490  -20.3533   59.8121 C   0  0  0  0  0  0  0  0  0  0  0  0
  -29.2000  -15.7868   62.4395 C   0  0  0  0  0  0  0  0  0  0  0  0
  -33.3054  -18.2929   59.2763 C   0  0  0  0  0  0  0  0  0  0  0  0
  -31.6504  -20.2017   60.0069 C   0  0  0  0  0  0  0  0  0  0  0  0
  -32.5482  -15.6194   60.7294 C   0  0  0  0  0  0  0  0  0  0  0  0
  -33.3502  -14.3157   60.5957 C   0  0  0  0  0  0  0  0  0  0  0  0
  -27.6557  -22.3808   58.4364 C   0  0  0  0  0  0  0  0  0  0  0  0
  -32.0076  -19.5362   57.5784 C   0  0  0  0  0  0  0  0  0  0  0  0
  -28.0823  -16.5815   62.5561 N   0  0  0  0  0  0  0  0  0  0  0  0
  -29.7360  -21.4336   59.1427 N   0  0  0  0  0  0  0  0  0  0  0  0
  -28.4026  -21.3321   59.1103 N   0  0  0  0  0  0  0  0  0  0  0  0
  -32.3422  -19.3213   58.9978 N   0  0  0  0  0  0  0  0  0  0  0  0
  -29.2478  -14.5936   63.1691 N   0  0  0  0  0  0  0  0  0  0  0  0
  -33.8473  -17.5926   58.4133 O   0  0  0  0  0  0  0  0  0  0  0  0
  -31.3792  -15.3041   61.5501 O   0  0  0  0  0  0  0  0  0  0  0  0
  -35.0805  -17.4225   64.5770 F   0  0  0  0  0  0  0  0  0  0  0  0
  -30.0361  -14.0075   63.1031 H   0  0  0  0  0  0  0  0  0  0  0  0
  -28.4932  -14.3402   63.7484 H   0  0  0  0  0  0  0  0  0  0  0  0
  -26.4964  -19.9138   59.8210 C   0  0  0  0  0  0  0  0  0  0  0  0
  -25.3621  -19.6954   59.8877 N   0  0  0  0  0  0  0  0  0  0  0  0
 20 24  1  0  0  0
 26 15  2  0  0  0
 19 23  1  0  0  0
 24 15  1  0  0  0
 24 16  1  0  0  0
 22 23  1  0  0  0
 22 13  2  0  0  0
 23  6  1  0  0  0
 15  9  1  0  0  0
  6 31  1  0  0  0
  6  8  2  0  0  0
 13 16  1  0  0  0
 13  8  1  0  0  0
 31 32  3  0  0  0
  8  7  1  0  0  0
  9  1  2  0  0  0
  9 10  1  0  0  0
 18 17  1  0  0  0
 17 10  1  0  0  0
 17 27  1  0  0  0
  3  7  2  0  0  0
  3 11  1  0  0  0
  7  5  1  0  0  0
  1  2  1  0  0  0
 10  4  2  0  0  0
 27 11  1  0  0  0
 11 14  2  0  0  0
  5 21  2  0  0  0
 14 21  1  0  0  0
 14 25  1  0  0  0
  2 12  2  0  0  0
  4 12  1  0  0  0
 12 28  1  0  0  0
 25 29  1  0  0  0
 25 30  1  0  0  0
M  END
> <minimizedAffinity>
-10.90742

$$$$
4CLJ_5P8_A_2402


 32 35  0  0  0  0  0  0  0  0999 V2000
  -36.1930  -17.1303   57.8886 C   0  0  0  0  0  0  0  0  0  0  0  0
  -36.2808  -17.5893   56.5582 C   0  0  0  0  0  0  0  0  0  0  0  0
  -32.6595  -19.2828   60.0610 C   0  0  0  0  0  0  0  0  0  0  0  0
  -35.7869  -19.8861   57.3086 C   0  0  0  0  0  0  0  0  0  0  0  0
  -30.3167  -19.5210   59.8387 C   0  0  0  0  0  0  0  0  0  0  0  0
  -30.2165  -16.6597   61.3444 C   0  0  0  0  0  0  0  0  0  0  0  0
  -31.3938  -18.6838   60.1882 C   0  0  0  0  0  0  0  0  0  0  0  0
  -31.2887  -17.2667   60.6485 C   0  0  0  0  0  0  0  0  0  0  0  0
  -35.8975  -18.0454   58.9531 C   0  0  0  0  0  0  0  0  0  0  0  0
  -35.6878  -19.4591   58.6799 C   0  0  0  0  0  0  0  0  0  0  0  0
  -32.8769  -20.6069   59.6184 C   0  0  0  0  0  0  0  0  0  0  0  0
  -36.0787  -18.9567   56.2804 C   0  0  0  0  0  0  0  0  0  0  0  0
  -32.2458  -16.1698   60.4935 C   0  0  0  0  0  0  0  0  0  0  0  0
  -31.7239  -21.3601   59.2913 C   0  0  0  0  0  0  0  0  0  0  0  0
  -35.8254  -17.4563   60.3306 C   0  0  0  0  0  0  0  0  0  0  0  0
  -33.6181  -16.1136   59.8389 C   0  0  0  0  0  0  0  0  0  0  0  0
  -35.3574  -20.5064   59.7730 C   0  0  0  0  0  0  0  0  0  0  0  0
  -36.4560  -21.5749   59.8828 C   0  0  0  0  0  0  0  0  0  0  0  0
  -29.8363  -14.2986   62.2003 C   0  0  0  0  0  0  0  0  0  0  0  0
  -34.8068  -16.0446   62.0863 C   0  0  0  0  0  0  0  0  0  0  0  0
  -30.4616  -20.8234   59.4036 N   0  0  0  0  0  0  0  0  0  0  0  0
  -31.7921  -15.0362   61.0364 N   0  0  0  0  0  0  0  0  0  0  0  0
  -30.5905  -15.3475   61.5347 N   0  0  0  0  0  0  0  0  0  0  0  0
  -34.7624  -16.5674   60.7087 N   0  0  0  0  0  0  0  0  0  0  0  0
  -31.8494  -22.6781   58.8380 N   0  0  0  0  0  0  0  0  0  0  0  0
  -36.7451  -17.8028   61.0808 O   0  0  0  0  0  0  0  0  0  0  0  0
  -34.1156  -21.2185   59.4724 O   0  0  0  0  0  0  0  0  0  0  0  0
  -36.1632  -19.3855   55.0230 F   0  0  0  0  0  0  0  0  0  0  0  0
  -32.7413  -23.0853   58.7489 H   0  0  0  0  0  0  0  0  0  0  0  0
  -31.0457  -23.1982   58.6082 H   0  0  0  0  0  0  0  0  0  0  0  0
  -28.9652  -17.2018   61.8004 C   0  0  0  0  0  0  0  0  0  0  0  0
  -27.9469  -17.6207   62.1556 N   0  0  0  0  0  0  0  0  0  0  0  0
 20 24  1  0  0  0
 26 15  2  0  0  0
 19 23  1  0  0  0
 24 15  1  0  0  0
 24 16  1  0  0  0
 22 23  1  0  0  0
 22 13  2  0  0  0
 23  6  1  0  0  0
 15  9  1  0  0  0
  6 31  1  0  0  0
  6  8  2  0  0  0
 13 16  1  0  0  0
 13  8  1  0  0  0
 31 32  3  0  0  0
  8  7  1  0  0  0
  9  1  2  0  0  0
  9 10  1  0  0  0
 18 17  1  0  0  0
 17 10  1  0  0  0
 17 27  1  0  0  0
  3  7  2  0  0  0
  3 11  1  0  0  0
  7  5  1  0  0  0
  1  2  1  0  0  0
 10  4  2  0  0  0
 27 11  1  0  0  0
 11 14  2  0  0  0
  5 21  2  0  0  0
 14 21  1  0  0  0
 14 25  1  0  0  0
  2 12  2  0  0  0
  4 12  1  0  0  0
 12 28  1  0  0  0
 25 29  1  0  0  0
 25 30  1  0  0  0
M  END
> <minimizedAffinity>
-8.41141

$$$$
4CLJ_5P8_A_2402


 32 35  0  0  0  0  0  0  0  0999 V2000
  -36.8804  -15.7455   59.6084 C   0  0  0  0  0  0  0  0  0  0  0  0
  -37.3245  -15.5234   58.2886 C   0  0  0  0  0  0  0  0  0  0  0  0
  -33.0129  -18.3678   59.5418 C   0  0  0  0  0  0  0  0  0  0  0  0
  -36.7616  -17.8507   57.6979 C   0  0  0  0  0  0  0  0  0  0  0  0
  -30.8171  -18.2755   58.6674 C   0  0  0  0  0  0  0  0  0  0  0  0
  -30.2066  -16.4751   61.2847 C   0  0  0  0  0  0  0  0  0  0  0  0
  -31.7304  -17.7978   59.6270 C   0  0  0  0  0  0  0  0  0  0  0  0
  -31.4471  -16.7660   60.6692 C   0  0  0  0  0  0  0  0  0  0  0  0
  -36.3661  -17.0280   59.9939 C   0  0  0  0  0  0  0  0  0  0  0  0
  -36.2977  -18.1194   59.0340 C   0  0  0  0  0  0  0  0  0  0  0  0
  -33.3961  -19.3360   58.5867 C   0  0  0  0  0  0  0  0  0  0  0  0
  -37.2624  -16.5726   57.3490 C   0  0  0  0  0  0  0  0  0  0  0  0
  -32.3608  -15.8113   61.2990 C   0  0  0  0  0  0  0  0  0  0  0  0
  -32.3999  -19.7444   57.6677 C   0  0  0  0  0  0  0  0  0  0  0  0
  -35.9192  -17.1599   61.4196 C   0  0  0  0  0  0  0  0  0  0  0  0
  -33.8505  -15.5658   61.1099 C   0  0  0  0  0  0  0  0  0  0  0  0
  -35.7485  -19.5284   59.3717 C   0  0  0  0  0  0  0  0  0  0  0  0
  -36.8307  -20.6084   59.2200 C   0  0  0  0  0  0  0  0  0  0  0  0
  -29.5136  -14.7811   63.0460 C   0  0  0  0  0  0  0  0  0  0  0  0
  -34.4242  -16.6715   63.3273 C   0  0  0  0  0  0  0  0  0  0  0  0
  -31.1273  -19.2221   57.7112 N   0  0  0  0  0  0  0  0  0  0  0  0
  -31.7327  -15.0380   62.1895 N   0  0  0  0  0  0  0  0  0  0  0  0
  -30.4594  -15.4470   62.1662 N   0  0  0  0  0  0  0  0  0  0  0  0
  -34.7555  -16.4719   61.9048 N   0  0  0  0  0  0  0  0  0  0  0  0
  -32.6967  -20.6944   56.6839 N   0  0  0  0  0  0  0  0  0  0  0  0
  -36.6328  -17.8964   62.1103 O   0  0  0  0  0  0  0  0  0  0  0  0
  -34.6579  -19.9059   58.4730 O   0  0  0  0  0  0  0  0  0  0  0  0
  -37.6834  -16.3584   56.1044 F   0  0  0  0  0  0  0  0  0  0  0  0
  -33.5996  -21.0833   56.6316 H   0  0  0  0  0  0  0  0  0  0  0  0
  -32.0025  -20.9739   56.0442 H   0  0  0  0  0  0  0  0  0  0  0  0
  -28.9066  -17.0621   61.1028 C   0  0  0  0  0  0  0  0  0  0  0  0
  -27.8558  -17.5304   60.9794 N   0  0  0  0  0  0  0  0  0  0  0  0
 20 24  1  0  0  0
 26 15  2  0  0  0
 19 23  1  0  0  0
 24 15  1  0  0  0
 24 16  1  0  0  0
 22 23  1  0  0  0
 22 13  2  0  0  0
 23  6  1  0  0  0
 15  9  1  0  0  0
  6 31  1  0  0  0
  6  8  2  0  0  0
 13 16  1  0  0  0
 13  8  1  0  0  0
 31 32  3  0  0  0
  8  7  1  0  0  0
  9  1  2  0  0  0
  9 10  1  0  0  0
 18 17  1  0  0  0
 17 10  1  0  0  0
 17 27  1  0  0  0
  3  7  2  0  0  0
  3 11  1  0  0  0
  7  5  1  0  0  0
  1  2  1  0  0  0
 10  4  2  0  0  0
 27 11  1  0  0  0
 11 14  2  0  0  0
  5 21  2  0  0  0
 14 21  1  0  0  0
 14 25  1  0  0  0
  2 12  2  0  0  0
  4 12  1  0  0  0
 12 28  1  0  0  0
 25 29  1  0  0  0
 25 30  1  0  0  0
M  END
> <minimizedAffinity>
-8.18987

$$$$
4CLJ_5P8_A_2402


 32 35  0  0  0  0  0  0  0  0999 V2000
  -31.3274  -15.9858   61.2713 C   0  0  0  0  0  0  0  0  0  0  0  0
  -30.5370  -14.9346   60.7629 C   0  0  0  0  0  0  0  0  0  0  0  0
  -35.1248  -16.5261   58.6019 C   0  0  0  0  0  0  0  0  0  0  0  0
  -32.5714  -13.6283   60.2761 C   0  0  0  0  0  0  0  0  0  0  0  0
  -35.6606  -17.0218   56.3520 C   0  0  0  0  0  0  0  0  0  0  0  0
  -35.1989  -20.0904   57.2656 C   0  0  0  0  0  0  0  0  0  0  0  0
  -35.1852  -17.4991   57.5886 C   0  0  0  0  0  0  0  0  0  0  0  0
  -34.7480  -18.8975   57.8788 C   0  0  0  0  0  0  0  0  0  0  0  0
  -32.7575  -15.8748   61.2879 C   0  0  0  0  0  0  0  0  0  0  0  0
  -33.4150  -14.6777   60.7857 C   0  0  0  0  0  0  0  0  0  0  0  0
  -35.4946  -15.1727   58.4342 C   0  0  0  0  0  0  0  0  0  0  0  0
  -31.1621  -13.7700   60.2725 C   0  0  0  0  0  0  0  0  0  0  0  0
  -33.7589  -19.3763   58.8461 C   0  0  0  0  0  0  0  0  0  0  0  0
  -35.9573  -14.7995   57.1496 C   0  0  0  0  0  0  0  0  0  0  0  0
  -33.5055  -17.0481   61.8479 C   0  0  0  0  0  0  0  0  0  0  0  0
  -32.8829  -18.6337   59.8442 C   0  0  0  0  0  0  0  0  0  0  0  0
  -34.9524  -14.4865   60.7628 C   0  0  0  0  0  0  0  0  0  0  0  0
  -35.3892  -13.3100   61.6493 C   0  0  0  0  0  0  0  0  0  0  0  0
  -34.5897  -22.5339   57.5975 C   0  0  0  0  0  0  0  0  0  0  0  0
  -34.3016  -19.3886   61.8154 C   0  0  0  0  0  0  0  0  0  0  0  0
  -36.0412  -15.7141   56.1245 N   0  0  0  0  0  0  0  0  0  0  0  0
  -33.6351  -20.7063   58.8110 N   0  0  0  0  0  0  0  0  0  0  0  0
  -34.4958  -21.1094   57.8697 N   0  0  0  0  0  0  0  0  0  0  0  0
  -33.5436  -18.3079   61.1592 N   0  0  0  0  0  0  0  0  0  0  0  0
  -36.3375  -13.4770   56.8951 N   0  0  0  0  0  0  0  0  0  0  0  0
  -34.0657  -16.8260   62.9275 O   0  0  0  0  0  0  0  0  0  0  0  0
  -35.4335  -14.1895   59.4138 O   0  0  0  0  0  0  0  0  0  0  0  0
  -30.4118  -12.7799   59.7941 F   0  0  0  0  0  0  0  0  0  0  0  0
  -36.2868  -12.8037   57.6115 H   0  0  0  0  0  0  0  0  0  0  0  0
  -36.6558  -13.2200   55.9996 H   0  0  0  0  0  0  0  0  0  0  0  0
  -36.1724  -20.3045   56.2292 C   0  0  0  0  0  0  0  0  0  0  0  0
  -36.9502  -20.4555   55.3860 N   0  0  0  0  0  0  0  0  0  0  0  0
 20 24  1  0  0  0
 26 15  2  0  0  0
 19 23  1  0  0  0
 24 15  1  0  0  0
 24 16  1  0  0  0
 22 23  1  0  0  0
 22 13  2  0  0  0
 23  6  1  0  0  0
 15  9  1  0  0  0
  6 31  1  0  0  0
  6  8  2  0  0  0
 13 16  1  0  0  0
 13  8  1  0  0  0
 31 32  3  0  0  0
  8  7  1  0  0  0
  9  1  2  0  0  0
  9 10  1  0  0  0
 18 17  1  0  0  0
 17 10  1  0  0  0
 17 27  1  0  0  0
  3  7  2  0  0  0
  3 11  1  0  0  0
  7  5  1  0  0  0
  1  2  1  0  0  0
 10  4  2  0  0  0
 27 11  1  0  0  0
 11 14  2  0  0  0
  5 21  2  0  0  0
 14 21  1  0  0  0
 14 25  1  0  0  0
  2 12  2  0  0  0
  4 12  1  0  0  0
 12 28  1  0  0  0
 25 29  1  0  0  0
 25 30  1  0  0  0
M  END
> <minimizedAffinity>
-8.11396

$$$$
4CLJ_5P8_A_2402


 32 35  0  0  0  0  0  0  0  0999 V2000
  -35.6210  -14.5525   58.9503 C   0  0  0  0  0  0  0  0  0  0  0  0
  -35.9571  -14.2498   57.6147 C   0  0  0  0  0  0  0  0  0  0  0  0
  -33.2717  -18.5893   59.1006 C   0  0  0  0  0  0  0  0  0  0  0  0
  -36.4711  -16.6253   57.1963 C   0  0  0  0  0  0  0  0  0  0  0  0
  -31.2740  -19.5170   58.2382 C   0  0  0  0  0  0  0  0  0  0  0  0
  -29.8813  -17.9862   60.7245 C   0  0  0  0  0  0  0  0  0  0  0  0
  -31.8672  -18.6270   59.1543 C   0  0  0  0  0  0  0  0  0  0  0  0
  -31.1401  -17.7519   60.1221 C   0  0  0  0  0  0  0  0  0  0  0  0
  -35.7030  -15.9017   59.4304 C   0  0  0  0  0  0  0  0  0  0  0  0
  -36.1369  -16.9773   58.5516 C   0  0  0  0  0  0  0  0  0  0  0  0
  -34.0591  -19.3581   58.2143 C   0  0  0  0  0  0  0  0  0  0  0  0
  -36.3780  -15.2833   56.7531 C   0  0  0  0  0  0  0  0  0  0  0  0
  -31.5352  -16.4552   60.6751 C   0  0  0  0  0  0  0  0  0  0  0  0
  -33.3603  -20.2190   57.3344 C   0  0  0  0  0  0  0  0  0  0  0  0
  -35.3227  -16.1173   60.8652 C   0  0  0  0  0  0  0  0  0  0  0  0
  -32.7761  -15.6020   60.4578 C   0  0  0  0  0  0  0  0  0  0  0  0
  -36.2433  -18.4586   58.9934 C   0  0  0  0  0  0  0  0  0  0  0  0
  -37.6896  -18.9706   58.9114 C   0  0  0  0  0  0  0  0  0  0  0  0
  -28.4810  -16.6447   62.3651 C   0  0  0  0  0  0  0  0  0  0  0  0
  -33.7177  -16.1970   62.7442 C   0  0  0  0  0  0  0  0  0  0  0  0
  -31.9864  -20.2981   57.3499 N   0  0  0  0  0  0  0  0  0  0  0  0
  -30.6129  -15.9721   61.5126 N   0  0  0  0  0  0  0  0  0  0  0  0
  -29.6429  -16.8930   61.5281 N   0  0  0  0  0  0  0  0  0  0  0  0
  -33.9645  -15.9703   61.3087 N   0  0  0  0  0  0  0  0  0  0  0  0
  -34.0627  -21.0109   56.4190 N   0  0  0  0  0  0  0  0  0  0  0  0
  -36.2677  -16.4232   61.6015 O   0  0  0  0  0  0  0  0  0  0  0  0
  -35.4456  -19.3313   58.1322 O   0  0  0  0  0  0  0  0  0  0  0  0
  -36.6949  -14.9927   55.4932 F   0  0  0  0  0  0  0  0  0  0  0  0
  -35.0460  -20.9727   56.3878 H   0  0  0  0  0  0  0  0  0  0  0  0
  -33.5736  -21.6062   55.8061 H   0  0  0  0  0  0  0  0  0  0  0  0
  -28.9681  -19.0893   60.5947 C   0  0  0  0  0  0  0  0  0  0  0  0
  -28.2214  -19.9648   60.4737 N   0  0  0  0  0  0  0  0  0  0  0  0
 20 24  1  0  0  0
 26 15  2  0  0  0
 19 23  1  0  0  0
 24 15  1  0  0  0
 24 16  1  0  0  0
 22 23  1  0  0  0
 22 13  2  0  0  0
 23  6  1  0  0  0
 15  9  1  0  0  0
  6 31  1  0  0  0
  6  8  2  0  0  0
 13 16  1  0  0  0
 13  8  1  0  0  0
 31 32  3  0  0  0
  8  7  1  0  0  0
  9  1  2  0  0  0
  9 10  1  0  0  0
 18 17  1  0  0  0
 17 10  1  0  0  0
 17 27  1  0  0  0
  3  7  2  0  0  0
  3 11  1  0  0  0
  7  5  1  0  0  0
  1  2  1  0  0  0
 10  4  2  0  0  0
 27 11  1  0  0  0
 11 14  2  0  0  0
  5 21  2  0  0  0
 14 21  1  0  0  0
 14 25  1  0  0  0
  2 12  2  0  0  0
  4 12  1  0  0  0
 12 28  1  0  0  0
 25 29  1  0  0  0
 25 30  1  0  0  0
M  END
> <minimizedAffinity>
-8.00111

$$$$
