1Q54_BHI_A_301


 20 19  0  0  0  0  0  0  0  0999 V2000
   11.8220    4.6855   10.9607 O   0  0  0  0  0  0  0  0  0  0  0  0
   11.3480    4.5976   13.3132 O   0  0  0  0  0  0  0  0  0  0  0  0
   10.9000    4.8786   11.9011 P   0  0  0  0  0  0  0  0  0  0  0  0
   12.1256    3.7647   10.9899 H   0  0  0  0  0  0  0  0  0  0  0  0
    9.6564    3.9612   11.7479 O   0  0  0  0  0  0  0  0  0  0  0  0
   10.1166    1.7560   12.4421 O   0  0  0  0  0  0  0  0  0  0  0  0
   10.7929    2.2886   10.2568 O   0  0  0  0  0  0  0  0  0  0  0  0
    8.4947    1.9794   10.7966 O   0  0  0  0  0  0  0  0  0  0  0  0
    9.7906    2.4842   11.3598 P   0  0  0  0  0  0  0  0  0  0  0  0
   10.2002    0.8229   12.1908 H   0  0  0  0  0  0  0  0  0  0  0  0
    8.5896    1.0450   10.5543 H   0  0  0  0  0  0  0  0  0  0  0  0
   10.3236    6.2859   11.9803 O   0  0  0  0  0  0  0  0  0  0  0  0
    9.4327    6.4903   13.0798 C   0  0  0  0  0  0  0  0  0  0  0  0
    9.1682    7.9871   13.3270 C   0  0  0  0  0  0  0  0  0  0  0  0
   11.6127    7.5421   14.2380 O   0  0  0  0  0  0  0  0  0  0  0  0
   10.0023    9.3385   15.2588 C   0  0  0  0  0  0  0  0  0  0  0  0
   10.4480    8.6175   13.9557 C   0  0  0  0  0  0  0  0  0  0  0  0
   12.3797    7.9907   14.6272 H   0  0  0  0  0  0  0  0  0  0  0  0
   10.8885    9.7737   13.0146 C   0  0  0  0  0  0  0  0  0  0  0  0
   12.7228    9.6561   13.2079 Br  0  0  0  0  0  0  0  0  0  0  0  0
 15 17  1  0  0  0
  6  9  1  0  0  0
  7  9  2  0  0  0
  8  9  1  0  0  0
  9  5  1  0  0  0
  5  3  1  0  0  0
  1  3  1  0  0  0
  2  3  2  0  0  0
  3 12  1  0  0  0
 19 17  1  0  0  0
 19 20  1  0  0  0
 16 17  1  0  0  0
 13 14  1  0  0  0
 13 12  1  0  0  0
 14 17  1  0  0  0
 15 18  1  0  0  0
  6 10  1  0  0  0
  8 11  1  0  0  0
  1  4  1  0  0  0
M  END
> <minimizedAffinity>
-7.72047

$$$$
1Q54_BHI_A_301


 20 19  0  0  0  0  0  0  0  0999 V2000
   11.5038    5.0653   10.8569 O   0  0  0  0  0  0  0  0  0  0  0  0
   11.5616    4.2912   13.1294 O   0  0  0  0  0  0  0  0  0  0  0  0
   10.8020    4.8947   11.9749 P   0  0  0  0  0  0  0  0  0  0  0  0
   11.8505    4.2098   10.5591 H   0  0  0  0  0  0  0  0  0  0  0  0
    9.6009    3.9242   11.8112 O   0  0  0  0  0  0  0  0  0  0  0  0
   10.1111    1.7138   12.4519 O   0  0  0  0  0  0  0  0  0  0  0  0
   10.8461    2.3397   10.3107 O   0  0  0  0  0  0  0  0  0  0  0  0
    8.5420    1.9373   10.7560 O   0  0  0  0  0  0  0  0  0  0  0  0
    9.7991    2.4658   11.3819 P   0  0  0  0  0  0  0  0  0  0  0  0
   10.2353    0.7926   12.1746 H   0  0  0  0  0  0  0  0  0  0  0  0
    8.6773    1.0149   10.4880 H   0  0  0  0  0  0  0  0  0  0  0  0
   10.1898    6.1565   12.5682 O   0  0  0  0  0  0  0  0  0  0  0  0
   11.0202    7.3152   12.4578 C   0  0  0  0  0  0  0  0  0  0  0  0
   11.1969    8.0199   13.8157 C   0  0  0  0  0  0  0  0  0  0  0  0
    8.5556    8.1754   13.7602 O   0  0  0  0  0  0  0  0  0  0  0  0
   10.1273   10.1955   13.2018 C   0  0  0  0  0  0  0  0  0  0  0  0
    9.9494    8.9193   14.0714 C   0  0  0  0  0  0  0  0  0  0  0  0
    7.8191    8.7815   13.9368 H   0  0  0  0  0  0  0  0  0  0  0  0
   10.0610    9.4380   15.5326 C   0  0  0  0  0  0  0  0  0  0  0  0
   11.8415    9.0686   15.8631 Br  0  0  0  0  0  0  0  0  0  0  0  0
 15 17  1  0  0  0
  6  9  1  0  0  0
  7  9  2  0  0  0
  8  9  1  0  0  0
  9  5  1  0  0  0
  5  3  1  0  0  0
  1  3  1  0  0  0
  2  3  2  0  0  0
  3 12  1  0  0  0
 19 17  1  0  0  0
 19 20  1  0  0  0
 16 17  1  0  0  0
 13 14  1  0  0  0
 13 12  1  0  0  0
 14 17  1  0  0  0
 15 18  1  0  0  0
  6 10  1  0  0  0
  8 11  1  0  0  0
  1  4  1  0  0  0
M  END
> <minimizedAffinity>
-7.63833

$$$$
1Q54_BHI_A_301


 20 19  0  0  0  0  0  0  0  0999 V2000
   11.6700    5.0110   11.0282 O   0  0  0  0  0  0  0  0  0  0  0  0
   11.4148    4.6471   13.3881 O   0  0  0  0  0  0  0  0  0  0  0  0
   10.8040    4.9007   12.0329 P   0  0  0  0  0  0  0  0  0  0  0  0
   12.1933    4.1970   10.9616 H   0  0  0  0  0  0  0  0  0  0  0  0
    9.8180    3.7116   11.8741 O   0  0  0  0  0  0  0  0  0  0  0  0
   10.5572    2.5802    9.9427 O   0  0  0  0  0  0  0  0  0  0  0  0
    9.2007    1.3244   11.3917 O   0  0  0  0  0  0  0  0  0  0  0  0
   11.4561    1.8426   11.9517 O   0  0  0  0  0  0  0  0  0  0  0  0
   10.2534    2.3863   11.2381 P   0  0  0  0  0  0  0  0  0  0  0  0
   10.8318    1.7389    9.5456 H   0  0  0  0  0  0  0  0  0  0  0  0
   11.7236    1.0049   11.5424 H   0  0  0  0  0  0  0  0  0  0  0  0
    9.9053    6.1081   12.2641 O   0  0  0  0  0  0  0  0  0  0  0  0
   10.3987    7.0230   13.2459 C   0  0  0  0  0  0  0  0  0  0  0  0
   11.2063    8.1660   12.6033 C   0  0  0  0  0  0  0  0  0  0  0  0
    9.7142   10.3042   13.0560 O   0  0  0  0  0  0  0  0  0  0  0  0
   12.3200   10.2858   13.3247 C   0  0  0  0  0  0  0  0  0  0  0  0
   11.0165    9.4506   13.4661 C   0  0  0  0  0  0  0  0  0  0  0  0
    9.6489   11.0876   13.6243 H   0  0  0  0  0  0  0  0  0  0  0  0
   11.0161    8.9975   14.9531 C   0  0  0  0  0  0  0  0  0  0  0  0
    9.3665    9.6440   15.4792 Br  0  0  0  0  0  0  0  0  0  0  0  0
 15 17  1  0  0  0
  6  9  1  0  0  0
  7  9  2  0  0  0
  8  9  1  0  0  0
  9  5  1  0  0  0
  5  3  1  0  0  0
  1  3  1  0  0  0
  2  3  2  0  0  0
  3 12  1  0  0  0
 19 17  1  0  0  0
 19 20  1  0  0  0
 16 17  1  0  0  0
 13 14  1  0  0  0
 13 12  1  0  0  0
 14 17  1  0  0  0
 15 18  1  0  0  0
  6 10  1  0  0  0
  8 11  1  0  0  0
  1  4  1  0  0  0
M  END
> <minimizedAffinity>
-7.40270

$$$$
1Q54_BHI_A_301


 20 19  0  0  0  0  0  0  0  0999 V2000
   11.2400    4.6490   13.5817 O   0  0  0  0  0  0  0  0  0  0  0  0
    9.2289    5.6571   12.7416 O   0  0  0  0  0  0  0  0  0  0  0  0
   10.7079    5.3920   12.6141 P   0  0  0  0  0  0  0  0  0  0  0  0
   10.7935    3.7883   13.6112 H   0  0  0  0  0  0  0  0  0  0  0  0
   10.8198    4.7483   11.2053 O   0  0  0  0  0  0  0  0  0  0  0  0
   11.3882    2.5449   11.8206 O   0  0  0  0  0  0  0  0  0  0  0  0
   10.8382    2.8514    9.5578 O   0  0  0  0  0  0  0  0  0  0  0  0
    9.1649    2.8931   11.2511 O   0  0  0  0  0  0  0  0  0  0  0  0
   10.5992    3.2468   10.9883 P   0  0  0  0  0  0  0  0  0  0  0  0
   11.2445    1.5961   11.6790 H   0  0  0  0  0  0  0  0  0  0  0  0
    9.0356    1.9420   11.1113 H   0  0  0  0  0  0  0  0  0  0  0  0
   11.3085    6.7809   12.4434 O   0  0  0  0  0  0  0  0  0  0  0  0
   10.6006    7.8117   13.1368 C   0  0  0  0  0  0  0  0  0  0  0  0
   11.5462    8.9307   13.6115 C   0  0  0  0  0  0  0  0  0  0  0  0
   12.2757    7.0792   15.3561 O   0  0  0  0  0  0  0  0  0  0  0  0
   10.8096    9.1554   15.9908 C   0  0  0  0  0  0  0  0  0  0  0  0
   11.9608    8.6349   15.0851 C   0  0  0  0  0  0  0  0  0  0  0  0
   12.5268    6.9572   16.2850 H   0  0  0  0  0  0  0  0  0  0  0  0
   13.1553    9.5741   15.4131 C   0  0  0  0  0  0  0  0  0  0  0  0
   13.6408   10.0761   13.7019 Br  0  0  0  0  0  0  0  0  0  0  0  0
 15 17  1  0  0  0
  6  9  1  0  0  0
  7  9  2  0  0  0
  8  9  1  0  0  0
  9  5  1  0  0  0
  5  3  1  0  0  0
  1  3  1  0  0  0
  2  3  2  0  0  0
  3 12  1  0  0  0
 19 17  1  0  0  0
 19 20  1  0  0  0
 16 17  1  0  0  0
 13 14  1  0  0  0
 13 12  1  0  0  0
 14 17  1  0  0  0
 15 18  1  0  0  0
  6 10  1  0  0  0
  8 11  1  0  0  0
  1  4  1  0  0  0
M  END
> <minimizedAffinity>
-7.25054

$$$$
1Q54_BHI_A_301


 20 19  0  0  0  0  0  0  0  0999 V2000
    9.1072    5.3567   12.1988 O   0  0  0  0  0  0  0  0  0  0  0  0
   11.1669    5.9487   11.1154 O   0  0  0  0  0  0  0  0  0  0  0  0
   10.4343    5.3701   12.2996 P   0  0  0  0  0  0  0  0  0  0  0  0
    8.8474    4.8423   11.4186 H   0  0  0  0  0  0  0  0  0  0  0  0
   11.0605    3.9552   12.4312 O   0  0  0  0  0  0  0  0  0  0  0  0
   11.0893    3.2373   10.1861 O   0  0  0  0  0  0  0  0  0  0  0  0
    9.3027    2.4321   11.4809 O   0  0  0  0  0  0  0  0  0  0  0  0
   11.5139    1.5999   11.7758 O   0  0  0  0  0  0  0  0  0  0  0  0
   10.7480    2.8415   11.4250 P   0  0  0  0  0  0  0  0  0  0  0  0
   10.8895    2.5292    9.5540 H   0  0  0  0  0  0  0  0  0  0  0  0
   11.3096    0.9019   11.1341 H   0  0  0  0  0  0  0  0  0  0  0  0
   10.9978    6.1441   13.4839 O   0  0  0  0  0  0  0  0  0  0  0  0
   10.6396    7.5282   13.4998 C   0  0  0  0  0  0  0  0  0  0  0  0
   11.7571    8.3981   14.1048 C   0  0  0  0  0  0  0  0  0  0  0  0
   10.7289   10.5835   13.0229 O   0  0  0  0  0  0  0  0  0  0  0  0
   12.4342    9.0298   11.7817 C   0  0  0  0  0  0  0  0  0  0  0  0
   12.0056    9.6116   13.1580 C   0  0  0  0  0  0  0  0  0  0  0  0
   10.9423   11.3164   12.4244 H   0  0  0  0  0  0  0  0  0  0  0  0
   13.2804   10.3337   13.6778 C   0  0  0  0  0  0  0  0  0  0  0  0
   13.5720    9.3781   15.2328 Br  0  0  0  0  0  0  0  0  0  0  0  0
 15 17  1  0  0  0
  6  9  1  0  0  0
  7  9  2  0  0  0
  8  9  1  0  0  0
  9  5  1  0  0  0
  5  3  1  0  0  0
  1  3  1  0  0  0
  2  3  2  0  0  0
  3 12  1  0  0  0
 19 17  1  0  0  0
 19 20  1  0  0  0
 16 17  1  0  0  0
 13 14  1  0  0  0
 13 12  1  0  0  0
 14 17  1  0  0  0
 15 18  1  0  0  0
  6 10  1  0  0  0
  8 11  1  0  0  0
  1  4  1  0  0  0
M  END
> <minimizedAffinity>
-6.71869

$$$$
1Q54_BHI_A_301


 20 19  0  0  0  0  0  0  0  0999 V2000
   10.3846   10.1272   13.7211 O   0  0  0  0  0  0  0  0  0  0  0  0
    8.7283    9.9201   15.4474 O   0  0  0  0  0  0  0  0  0  0  0  0
    9.9537    9.3930   14.7442 P   0  0  0  0  0  0  0  0  0  0  0  0
   10.5917   11.0229   14.0305 H   0  0  0  0  0  0  0  0  0  0  0  0
   10.9851    9.2721   15.8988 O   0  0  0  0  0  0  0  0  0  0  0  0
   12.5002    8.2590   14.4038 O   0  0  0  0  0  0  0  0  0  0  0  0
   12.7625    7.6686   16.6620 O   0  0  0  0  0  0  0  0  0  0  0  0
   13.4110    9.8162   15.8645 O   0  0  0  0  0  0  0  0  0  0  0  0
   12.3984    8.7282   15.6598 P   0  0  0  0  0  0  0  0  0  0  0  0
   13.3959    7.9163   14.2583 H   0  0  0  0  0  0  0  0  0  0  0  0
   14.3011    9.4626   15.7111 H   0  0  0  0  0  0  0  0  0  0  0  0
    9.5864    7.9525   14.4136 O   0  0  0  0  0  0  0  0  0  0  0  0
    9.1848    7.7498   13.0564 C   0  0  0  0  0  0  0  0  0  0  0  0
    8.9549    6.2586   12.7479 C   0  0  0  0  0  0  0  0  0  0  0  0
   11.2896    5.5976   13.8043 O   0  0  0  0  0  0  0  0  0  0  0  0
   10.9963    6.3254   11.3049 C   0  0  0  0  0  0  0  0  0  0  0  0
   10.3398    5.5854   12.5041 C   0  0  0  0  0  0  0  0  0  0  0  0
   12.1328    5.1674   13.5929 H   0  0  0  0  0  0  0  0  0  0  0  0
   10.0559    4.1576   11.9588 C   0  0  0  0  0  0  0  0  0  0  0  0
   11.0656    4.2046   10.4115 Br  0  0  0  0  0  0  0  0  0  0  0  0
 15 17  1  0  0  0
  6  9  1  0  0  0
  7  9  2  0  0  0
  8  9  1  0  0  0
  9  5  1  0  0  0
  5  3  1  0  0  0
  1  3  1  0  0  0
  2  3  2  0  0  0
  3 12  1  0  0  0
 19 17  1  0  0  0
 19 20  1  0  0  0
 16 17  1  0  0  0
 13 14  1  0  0  0
 13 12  1  0  0  0
 14 17  1  0  0  0
 15 18  1  0  0  0
  6 10  1  0  0  0
  8 11  1  0  0  0
  1  4  1  0  0  0
M  END
> <minimizedAffinity>
-6.69726

$$$$
1Q54_BHI_A_301


 20 19  0  0  0  0  0  0  0  0999 V2000
   12.2634    3.9629   11.6709 O   0  0  0  0  0  0  0  0  0  0  0  0
    9.8897    4.1117   12.0023 O   0  0  0  0  0  0  0  0  0  0  0  0
   11.1469    4.6019   11.3293 P   0  0  0  0  0  0  0  0  0  0  0  0
   12.1729    3.0199   11.4625 H   0  0  0  0  0  0  0  0  0  0  0  0
   10.7981    4.4781    9.8212 O   0  0  0  0  0  0  0  0  0  0  0  0
   10.7866    6.6381    8.8772 O   0  0  0  0  0  0  0  0  0  0  0  0
   11.2630    4.8869    7.3862 O   0  0  0  0  0  0  0  0  0  0  0  0
   12.8596    5.6010    9.0017 O   0  0  0  0  0  0  0  0  0  0  0  0
   11.3847    5.4378    8.7795 P   0  0  0  0  0  0  0  0  0  0  0  0
   11.1615    7.2409    8.2162 H   0  0  0  0  0  0  0  0  0  0  0  0
   13.2212    6.2093    8.3384 H   0  0  0  0  0  0  0  0  0  0  0  0
   11.1368    6.1009   11.5974 O   0  0  0  0  0  0  0  0  0  0  0  0
   10.6323    6.4596   12.8863 C   0  0  0  0  0  0  0  0  0  0  0  0
   11.2185    7.7973   13.3745 C   0  0  0  0  0  0  0  0  0  0  0  0
    8.6972    8.3547   12.7946 O   0  0  0  0  0  0  0  0  0  0  0  0
   10.5680   10.1793   12.9781 C   0  0  0  0  0  0  0  0  0  0  0  0
   10.0522    8.8204   13.5293 C   0  0  0  0  0  0  0  0  0  0  0  0
    8.0110    9.0277   12.9249 H   0  0  0  0  0  0  0  0  0  0  0  0
    9.8745    9.0724   15.0530 C   0  0  0  0  0  0  0  0  0  0  0  0
   11.6473    9.1199   15.5735 Br  0  0  0  0  0  0  0  0  0  0  0  0
 15 17  1  0  0  0
  6  9  1  0  0  0
  7  9  2  0  0  0
  8  9  1  0  0  0
  9  5  1  0  0  0
  5  3  1  0  0  0
  1  3  1  0  0  0
  2  3  2  0  0  0
  3 12  1  0  0  0
 19 17  1  0  0  0
 19 20  1  0  0  0
 16 17  1  0  0  0
 13 14  1  0  0  0
 13 12  1  0  0  0
 14 17  1  0  0  0
 15 18  1  0  0  0
  6 10  1  0  0  0
  8 11  1  0  0  0
  1  4  1  0  0  0
M  END
> <minimizedAffinity>
-6.55128

$$$$
1Q54_BHI_A_301


 20 19  0  0  0  0  0  0  0  0999 V2000
   12.7482    5.7133   18.0078 O   0  0  0  0  0  0  0  0  0  0  0  0
   12.2951    5.2308   15.6994 O   0  0  0  0  0  0  0  0  0  0  0  0
   13.1900    5.8257   16.7573 P   0  0  0  0  0  0  0  0  0  0  0  0
   12.6275    4.7757   18.2250 H   0  0  0  0  0  0  0  0  0  0  0  0
   14.5410    5.1011   16.5094 O   0  0  0  0  0  0  0  0  0  0  0  0
   15.7134    3.1546   17.1364 O   0  0  0  0  0  0  0  0  0  0  0  0
   14.6665    3.0702   15.0356 O   0  0  0  0  0  0  0  0  0  0  0  0
   13.4021    2.9580   17.0500 O   0  0  0  0  0  0  0  0  0  0  0  0
   14.6338    3.5719   16.4522 P   0  0  0  0  0  0  0  0  0  0  0  0
   15.7671    2.1869   17.0968 H   0  0  0  0  0  0  0  0  0  0  0  0
   13.4703    1.9912   17.0091 H   0  0  0  0  0  0  0  0  0  0  0  0
   13.4289    7.2478   16.2677 O   0  0  0  0  0  0  0  0  0  0  0  0
   12.2972    8.1104   16.4072 C   0  0  0  0  0  0  0  0  0  0  0  0
   12.4144    9.3529   15.5049 C   0  0  0  0  0  0  0  0  0  0  0  0
   11.6975    7.4918   13.7653 O   0  0  0  0  0  0  0  0  0  0  0  0
   12.3858    9.9220   13.0699 C   0  0  0  0  0  0  0  0  0  0  0  0
   11.6913    9.0538   14.1564 C   0  0  0  0  0  0  0  0  0  0  0  0
   11.2357    7.3680   12.9213 H   0  0  0  0  0  0  0  0  0  0  0  0
   10.2633    9.6578   14.2684 C   0  0  0  0  0  0  0  0  0  0  0  0
    9.2612    8.1984   13.7373 Br  0  0  0  0  0  0  0  0  0  0  0  0
 15 17  1  0  0  0
  6  9  1  0  0  0
  7  9  2  0  0  0
  8  9  1  0  0  0
  9  5  1  0  0  0
  5  3  1  0  0  0
  1  3  1  0  0  0
  2  3  2  0  0  0
  3 12  1  0  0  0
 19 17  1  0  0  0
 19 20  1  0  0  0
 16 17  1  0  0  0
 13 14  1  0  0  0
 13 12  1  0  0  0
 14 17  1  0  0  0
 15 18  1  0  0  0
  6 10  1  0  0  0
  8 11  1  0  0  0
  1  4  1  0  0  0
M  END
> <minimizedAffinity>
-6.50293

$$$$
1Q54_BHI_A_301


 20 19  0  0  0  0  0  0  0  0999 V2000
   13.4109    7.5312   15.8765 O   0  0  0  0  0  0  0  0  0  0  0  0
   14.0294    9.8514   15.8533 O   0  0  0  0  0  0  0  0  0  0  0  0
   13.0745    8.7512   15.4642 P   0  0  0  0  0  0  0  0  0  0  0  0
   13.4807    7.5246   16.8440 H   0  0  0  0  0  0  0  0  0  0  0  0
   11.7229    9.2507   16.0432 O   0  0  0  0  0  0  0  0  0  0  0  0
   11.7882    8.0203   18.0528 O   0  0  0  0  0  0  0  0  0  0  0  0
    9.9870    9.5128   17.8407 O   0  0  0  0  0  0  0  0  0  0  0  0
   12.1979   10.2967   18.2483 O   0  0  0  0  0  0  0  0  0  0  0  0
   11.4309    9.2141   17.5478 P   0  0  0  0  0  0  0  0  0  0  0  0
   11.6013    8.0028   19.0045 H   0  0  0  0  0  0  0  0  0  0  0  0
   12.0067   10.2654   19.1988 H   0  0  0  0  0  0  0  0  0  0  0  0
   12.9257    8.9205   13.9582 O   0  0  0  0  0  0  0  0  0  0  0  0
   11.6507    9.4233   13.5509 C   0  0  0  0  0  0  0  0  0  0  0  0
   11.0208    8.5511   12.4490 C   0  0  0  0  0  0  0  0  0  0  0  0
    8.6791    7.3990   12.0101 O   0  0  0  0  0  0  0  0  0  0  0  0
    9.2980    8.5869   14.2614 C   0  0  0  0  0  0  0  0  0  0  0  0
    9.8394    7.7462   13.0712 C   0  0  0  0  0  0  0  0  0  0  0  0
    7.9748    6.9002   12.4528 H   0  0  0  0  0  0  0  0  0  0  0  0
   10.4575    6.4891   13.7453 C   0  0  0  0  0  0  0  0  0  0  0  0
   10.1724    5.2433   12.4102 Br  0  0  0  0  0  0  0  0  0  0  0  0
 15 17  1  0  0  0
  6  9  1  0  0  0
  7  9  2  0  0  0
  8  9  1  0  0  0
  9  5  1  0  0  0
  5  3  1  0  0  0
  1  3  1  0  0  0
  2  3  2  0  0  0
  3 12  1  0  0  0
 19 17  1  0  0  0
 19 20  1  0  0  0
 16 17  1  0  0  0
 13 14  1  0  0  0
 13 12  1  0  0  0
 14 17  1  0  0  0
 15 18  1  0  0  0
  6 10  1  0  0  0
  8 11  1  0  0  0
  1  4  1  0  0  0
M  END
> <minimizedAffinity>
-6.47348

$$$$
1Q54_BHI_A_301


 20 19  0  0  0  0  0  0  0  0999 V2000
   12.4410    8.5260   12.7961 O   0  0  0  0  0  0  0  0  0  0  0  0
   10.3869    9.7684   12.8540 O   0  0  0  0  0  0  0  0  0  0  0  0
   11.3258    8.7687   13.4809 P   0  0  0  0  0  0  0  0  0  0  0  0
   12.9350    9.3525   12.6790 H   0  0  0  0  0  0  0  0  0  0  0  0
   11.5813    9.3749   14.8876 O   0  0  0  0  0  0  0  0  0  0  0  0
   12.9251    9.9063   16.7500 O   0  0  0  0  0  0  0  0  0  0  0  0
   13.9122   10.2828   14.6523 O   0  0  0  0  0  0  0  0  0  0  0  0
   13.6126    8.0771   15.4972 O   0  0  0  0  0  0  0  0  0  0  0  0
   12.9896    9.4420   15.4897 P   0  0  0  0  0  0  0  0  0  0  0  0
   13.8184    9.9467   17.1258 H   0  0  0  0  0  0  0  0  0  0  0  0
   14.5025    8.1299   15.8797 H   0  0  0  0  0  0  0  0  0  0  0  0
   10.4386    7.5598   13.7461 O   0  0  0  0  0  0  0  0  0  0  0  0
    9.4809    7.3019   12.7162 C   0  0  0  0  0  0  0  0  0  0  0  0
    9.0908    5.8132   12.6620 C   0  0  0  0  0  0  0  0  0  0  0  0
   11.3882    4.8433   13.5481 O   0  0  0  0  0  0  0  0  0  0  0  0
   11.0280    5.6663   11.0873 C   0  0  0  0  0  0  0  0  0  0  0  0
   10.3630    4.9816   12.3142 C   0  0  0  0  0  0  0  0  0  0  0  0
   12.1562    4.3185   13.2731 H   0  0  0  0  0  0  0  0  0  0  0  0
    9.8695    3.6141   11.7637 C   0  0  0  0  0  0  0  0  0  0  0  0
   10.6556    3.6454   10.0913 Br  0  0  0  0  0  0  0  0  0  0  0  0
 15 17  1  0  0  0
  6  9  1  0  0  0
  7  9  2  0  0  0
  8  9  1  0  0  0
  9  5  1  0  0  0
  5  3  1  0  0  0
  1  3  1  0  0  0
  2  3  2  0  0  0
  3 12  1  0  0  0
 19 17  1  0  0  0
 19 20  1  0  0  0
 16 17  1  0  0  0
 13 14  1  0  0  0
 13 12  1  0  0  0
 14 17  1  0  0  0
 15 18  1  0  0  0
  6 10  1  0  0  0
  8 11  1  0  0  0
  1  4  1  0  0  0
M  END
> <minimizedAffinity>
-6.44775

$$$$
