1ZGI_382_A_1001


 34 38  0  0  0  0  0  0  0  0999 V2000
   17.5396  -14.9435   22.3559 C   0  0  0  0  0  0  0  0  0  0  0  0
   16.7358  -13.8879   21.8087 C   0  0  0  0  0  0  0  0  0  0  0  0
   17.2612  -13.0644   20.7732 C   0  0  0  0  0  0  0  0  0  0  0  0
   18.6356  -13.3407   20.2899 C   0  0  0  0  0  0  0  0  0  0  0  0
   19.4535  -14.4294   20.8615 C   0  0  0  0  0  0  0  0  0  0  0  0
   18.8538  -15.1850   21.8875 N   0  0  0  0  0  0  0  0  0  0  0  0
   15.4505  -13.4248   22.0548 N   0  0  0  0  0  0  0  0  0  0  0  0
   15.2601  -12.3593   21.1795 C   0  0  0  0  0  0  0  0  0  0  0  0
   16.3770  -12.0961   20.3908 O   0  0  0  0  0  0  0  0  0  0  0  0
   17.0360  -15.7754   23.3872 N   0  0  0  0  0  0  0  0  0  0  0  0
   16.0926  -15.6742   23.6499 H   0  0  0  0  0  0  0  0  0  0  0  0
   17.8579  -16.7916   24.0916 C   0  0  0  0  0  0  0  0  0  0  0  0
   18.1705  -16.4242   25.5479 C   0  0  0  0  0  0  0  0  0  0  0  0
   18.5551  -17.5771   26.1549 F   0  0  0  0  0  0  0  0  0  0  0  0
   17.0353  -15.9839   26.1537 F   0  0  0  0  0  0  0  0  0  0  0  0
   21.9566  -14.1586   25.7603 C   0  0  0  0  0  0  0  0  0  0  0  0
   21.3037  -14.4770   24.4057 C   0  0  0  0  0  0  0  0  0  0  0  0
   20.3377  -15.6019   24.5621 N   0  0  0  0  0  0  0  0  0  0  0  0
   19.2663  -15.3257   25.5630 C   0  0  0  0  0  0  0  0  0  0  0  0
   19.9019  -15.0704   26.9340 C   0  0  0  0  0  0  0  0  0  0  0  0
   20.8816  -13.8764   26.8266 C   0  0  0  0  0  0  0  0  0  0  0  0
   20.8520  -16.4312   24.8590 H   0  0  0  0  0  0  0  0  0  0  0  0
   13.9703  -11.5382   21.0189 C   0  0  0  0  0  0  0  0  0  0  0  0
   12.8483  -11.6131   22.0606 C   0  0  0  0  0  0  0  0  0  0  0  0
   12.7743  -10.4233   22.9288 C   0  0  0  0  0  0  0  0  0  0  0  0
   11.7294  -10.3526   23.9571 C   0  0  0  0  0  0  0  0  0  0  0  0
   10.7787  -11.4791   24.0469 C   0  0  0  0  0  0  0  0  0  0  0  0
   10.8669  -12.6668   23.1699 C   0  0  0  0  0  0  0  0  0  0  0  0
   11.9308  -12.7623   22.1603 C   0  0  0  0  0  0  0  0  0  0  0  0
   12.0818  -13.9837   21.4202 N   0  0  0  0  0  0  0  0  0  0  0  0
   11.9062  -14.1127   20.0708 N   0  0  0  0  0  0  0  0  0  0  0  0
   12.1676  -15.4114   19.7167 C   0  0  0  0  0  0  0  0  0  0  0  0
   12.5115  -16.0832   20.8546 N   0  0  0  0  0  0  0  0  0  0  0  0
   12.4588  -15.2000   21.9049 C   0  0  0  0  0  0  0  0  0  0  0  0
 16 17  1  0  0  0
 16 21  1  0  0  0
 17 18  1  0  0  0
 18 19  1  0  0  0
 19 20  1  0  0  0
 19 13  1  0  0  0
 20 21  1  0  0  0
 13 14  1  0  0  0
 13 15  1  0  0  0
 13 12  1  0  0  0
 12 10  1  0  0  0
 10  1  1  0  0  0
  1  2  1  0  0  0
  1  6  2  0  0  0
  2  3  2  0  0  0
  2  7  1  0  0  0
  3  4  1  0  0  0
  3  9  1  0  0  0
  4  5  2  0  0  0
  5  6  1  0  0  0
  7  8  2  0  0  0
  8  9  1  0  0  0
  8 23  1  0  0  0
 23 24  1  0  0  0
 24 25  2  0  0  0
 24 29  1  0  0  0
 25 26  1  0  0  0
 26 27  2  0  0  0
 27 28  1  0  0  0
 28 29  2  0  0  0
 29 30  1  0  0  0
 30 31  1  0  0  0
 30 34  1  0  0  0
 31 32  2  0  0  0
 32 33  1  0  0  0
 33 34  2  0  0  0
 18 22  1  0  0  0
 10 11  1  0  0  0
M  END
> <minimizedAffinity>
-9.82292

$$$$
1ZGI_382_A_1001


 34 38  0  0  0  0  0  0  0  0999 V2000
   17.2761  -16.3956   23.2412 C   0  0  0  0  0  0  0  0  0  0  0  0
   16.6402  -15.5398   22.2805 C   0  0  0  0  0  0  0  0  0  0  0  0
   16.4990  -15.9740   20.9321 C   0  0  0  0  0  0  0  0  0  0  0  0
   17.0155  -17.3166   20.5725 C   0  0  0  0  0  0  0  0  0  0  0  0
   17.6688  -18.1881   21.5698 C   0  0  0  0  0  0  0  0  0  0  0  0
   17.7718  -17.6706   22.8755 N   0  0  0  0  0  0  0  0  0  0  0  0
   16.0698  -14.2756   22.3401 N   0  0  0  0  0  0  0  0  0  0  0  0
   15.6225  -14.0031   21.0505 C   0  0  0  0  0  0  0  0  0  0  0  0
   15.8994  -15.0283   20.1499 O   0  0  0  0  0  0  0  0  0  0  0  0
   17.4269  -15.9831   24.5889 N   0  0  0  0  0  0  0  0  0  0  0  0
   17.4874  -15.0189   24.7781 H   0  0  0  0  0  0  0  0  0  0  0  0
   17.4983  -16.9304   25.7300 C   0  0  0  0  0  0  0  0  0  0  0  0
   18.6544  -16.6400   26.6958 C   0  0  0  0  0  0  0  0  0  0  0  0
   19.3059  -17.8190   26.8716 F   0  0  0  0  0  0  0  0  0  0  0  0
   18.1491  -16.2510   27.8970 F   0  0  0  0  0  0  0  0  0  0  0  0
   22.0140  -14.1083   25.3482 C   0  0  0  0  0  0  0  0  0  0  0  0
   21.2810  -15.0342   24.3644 C   0  0  0  0  0  0  0  0  0  0  0  0
   20.5369  -16.0842   25.1172 N   0  0  0  0  0  0  0  0  0  0  0  0
   19.5485  -15.5279   26.0864 C   0  0  0  0  0  0  0  0  0  0  0  0
   20.2767  -14.6537   27.1132 C   0  0  0  0  0  0  0  0  0  0  0  0
   21.0280  -13.5193   26.3746 C   0  0  0  0  0  0  0  0  0  0  0  0
   21.2102  -16.6521   25.6316 H   0  0  0  0  0  0  0  0  0  0  0  0
   14.8641  -12.7432   20.6020 C   0  0  0  0  0  0  0  0  0  0  0  0
   13.6309  -12.2468   21.3651 C   0  0  0  0  0  0  0  0  0  0  0  0
   13.8119  -10.9127   21.9668 C   0  0  0  0  0  0  0  0  0  0  0  0
   12.6999  -10.3060   22.7081 C   0  0  0  0  0  0  0  0  0  0  0  0
   11.4342  -11.0628   22.7860 C   0  0  0  0  0  0  0  0  0  0  0  0
   11.2684  -12.4011   22.1787 C   0  0  0  0  0  0  0  0  0  0  0  0
   12.3873  -13.0318   21.4640 C   0  0  0  0  0  0  0  0  0  0  0  0
   12.2481  -14.3863   21.0077 N   0  0  0  0  0  0  0  0  0  0  0  0
   11.9117  -14.7574   19.7360 N   0  0  0  0  0  0  0  0  0  0  0  0
   11.9081  -16.1269   19.6651 C   0  0  0  0  0  0  0  0  0  0  0  0
   12.2500  -16.6002   20.8994 N   0  0  0  0  0  0  0  0  0  0  0  0
   12.4603  -15.5242   21.7266 C   0  0  0  0  0  0  0  0  0  0  0  0
 16 17  1  0  0  0
 16 21  1  0  0  0
 17 18  1  0  0  0
 18 19  1  0  0  0
 19 20  1  0  0  0
 19 13  1  0  0  0
 20 21  1  0  0  0
 13 14  1  0  0  0
 13 15  1  0  0  0
 13 12  1  0  0  0
 12 10  1  0  0  0
 10  1  1  0  0  0
  1  2  1  0  0  0
  1  6  2  0  0  0
  2  3  2  0  0  0
  2  7  1  0  0  0
  3  4  1  0  0  0
  3  9  1  0  0  0
  4  5  2  0  0  0
  5  6  1  0  0  0
  7  8  2  0  0  0
  8  9  1  0  0  0
  8 23  1  0  0  0
 23 24  1  0  0  0
 24 25  2  0  0  0
 24 29  1  0  0  0
 25 26  1  0  0  0
 26 27  2  0  0  0
 27 28  1  0  0  0
 28 29  2  0  0  0
 29 30  1  0  0  0
 30 31  1  0  0  0
 30 34  1  0  0  0
 31 32  2  0  0  0
 32 33  1  0  0  0
 33 34  2  0  0  0
 18 22  1  0  0  0
 10 11  1  0  0  0
M  END
> <minimizedAffinity>
-8.67001

$$$$
1ZGI_382_A_1001


 34 38  0  0  0  0  0  0  0  0999 V2000
   17.7679  -14.7229   22.3577 C   0  0  0  0  0  0  0  0  0  0  0  0
   16.8921  -13.7554   21.7605 C   0  0  0  0  0  0  0  0  0  0  0  0
   17.3537  -12.9609   20.6733 C   0  0  0  0  0  0  0  0  0  0  0  0
   18.7392  -13.1748   20.1901 C   0  0  0  0  0  0  0  0  0  0  0  0
   19.6315  -14.1730   20.8131 C   0  0  0  0  0  0  0  0  0  0  0  0
   19.0912  -14.9053   21.8880 N   0  0  0  0  0  0  0  0  0  0  0  0
   15.5812  -13.3633   21.9952 N   0  0  0  0  0  0  0  0  0  0  0  0
   15.3140  -12.3650   21.0627 C   0  0  0  0  0  0  0  0  0  0  0  0
   16.4047  -12.0759   20.2467 O   0  0  0  0  0  0  0  0  0  0  0  0
   17.3286  -15.5246   23.4409 N   0  0  0  0  0  0  0  0  0  0  0  0
   16.7978  -16.3293   23.2411 H   0  0  0  0  0  0  0  0  0  0  0  0
   17.6275  -15.2132   24.8615 C   0  0  0  0  0  0  0  0  0  0  0  0
   18.6711  -16.1477   25.4870 C   0  0  0  0  0  0  0  0  0  0  0  0
   18.9026  -15.6728   26.7385 F   0  0  0  0  0  0  0  0  0  0  0  0
   19.8299  -16.0640   24.7801 F   0  0  0  0  0  0  0  0  0  0  0  0
   16.4421  -19.8863   26.2401 C   0  0  0  0  0  0  0  0  0  0  0  0
   16.1009  -18.9944   25.0356 C   0  0  0  0  0  0  0  0  0  0  0  0
   16.6424  -17.6224   25.2531 N   0  0  0  0  0  0  0  0  0  0  0  0
   18.1181  -17.5974   25.4714 C   0  0  0  0  0  0  0  0  0  0  0  0
   18.4652  -18.4312   26.7096 C   0  0  0  0  0  0  0  0  0  0  0  0
   17.9592  -19.8801   26.5059 C   0  0  0  0  0  0  0  0  0  0  0  0
   16.1872  -17.2209   26.0728 H   0  0  0  0  0  0  0  0  0  0  0  0
   13.9719  -11.6402   20.8709 C   0  0  0  0  0  0  0  0  0  0  0  0
   12.8757  -11.7061   21.9403 C   0  0  0  0  0  0  0  0  0  0  0  0
   12.8084  -10.4996   22.7856 C   0  0  0  0  0  0  0  0  0  0  0  0
   11.7873  -10.4194   23.8369 C   0  0  0  0  0  0  0  0  0  0  0  0
   10.8522  -11.5542   23.9722 C   0  0  0  0  0  0  0  0  0  0  0  0
   10.9334  -12.7587   23.1178 C   0  0  0  0  0  0  0  0  0  0  0  0
   11.9743  -12.8632   22.0852 C   0  0  0  0  0  0  0  0  0  0  0  0
   12.1220  -14.0978   21.3667 N   0  0  0  0  0  0  0  0  0  0  0  0
   11.8723  -14.2668   20.0335 N   0  0  0  0  0  0  0  0  0  0  0  0
   12.1552  -15.5654   19.6956 C   0  0  0  0  0  0  0  0  0  0  0  0
   12.5867  -16.1966   20.8268 N   0  0  0  0  0  0  0  0  0  0  0  0
   12.5663  -15.2889   21.8571 C   0  0  0  0  0  0  0  0  0  0  0  0
 16 17  1  0  0  0
 16 21  1  0  0  0
 17 18  1  0  0  0
 18 19  1  0  0  0
 19 20  1  0  0  0
 19 13  1  0  0  0
 20 21  1  0  0  0
 13 14  1  0  0  0
 13 15  1  0  0  0
 13 12  1  0  0  0
 12 10  1  0  0  0
 10  1  1  0  0  0
  1  2  1  0  0  0
  1  6  2  0  0  0
  2  3  2  0  0  0
  2  7  1  0  0  0
  3  4  1  0  0  0
  3  9  1  0  0  0
  4  5  2  0  0  0
  5  6  1  0  0  0
  7  8  2  0  0  0
  8  9  1  0  0  0
  8 23  1  0  0  0
 23 24  1  0  0  0
 24 25  2  0  0  0
 24 29  1  0  0  0
 25 26  1  0  0  0
 26 27  2  0  0  0
 27 28  1  0  0  0
 28 29  2  0  0  0
 29 30  1  0  0  0
 30 31  1  0  0  0
 30 34  1  0  0  0
 31 32  2  0  0  0
 32 33  1  0  0  0
 33 34  2  0  0  0
 18 22  1  0  0  0
 10 11  1  0  0  0
M  END
> <minimizedAffinity>
-8.53803

$$$$
1ZGI_382_A_1001


 34 38  0  0  0  0  0  0  0  0999 V2000
   16.3275  -17.2496   21.9270 C   0  0  0  0  0  0  0  0  0  0  0  0
   15.0213  -16.6977   21.7056 C   0  0  0  0  0  0  0  0  0  0  0  0
   13.8671  -17.4934   21.9527 C   0  0  0  0  0  0  0  0  0  0  0  0
   14.0652  -18.8785   22.4438 C   0  0  0  0  0  0  0  0  0  0  0  0
   15.4144  -19.4358   22.6671 C   0  0  0  0  0  0  0  0  0  0  0  0
   16.4958  -18.5782   22.3869 N   0  0  0  0  0  0  0  0  0  0  0  0
   14.5538  -15.4640   21.2736 N   0  0  0  0  0  0  0  0  0  0  0  0
   13.1656  -15.5668   21.2725 C   0  0  0  0  0  0  0  0  0  0  0  0
   12.7122  -16.8238   21.6639 O   0  0  0  0  0  0  0  0  0  0  0  0
   17.4900  -16.4747   21.6875 N   0  0  0  0  0  0  0  0  0  0  0  0
   17.9348  -16.5580   20.8132 H   0  0  0  0  0  0  0  0  0  0  0  0
   18.0715  -15.5439   22.6875 C   0  0  0  0  0  0  0  0  0  0  0  0
   19.2911  -14.7713   22.1686 C   0  0  0  0  0  0  0  0  0  0  0  0
   18.8009  -13.7021   21.4891 F   0  0  0  0  0  0  0  0  0  0  0  0
   19.9781  -15.5524   21.2925 F   0  0  0  0  0  0  0  0  0  0  0  0
   21.7382  -14.7201   25.8459 C   0  0  0  0  0  0  0  0  0  0  0  0
   22.4003  -14.7301   24.4587 C   0  0  0  0  0  0  0  0  0  0  0  0
   21.4244  -15.2043   23.4361 N   0  0  0  0  0  0  0  0  0  0  0  0
   20.1842  -14.3771   23.3747 C   0  0  0  0  0  0  0  0  0  0  0  0
   19.4794  -14.4119   24.7351 C   0  0  0  0  0  0  0  0  0  0  0  0
   20.4457  -13.8827   25.8229 C   0  0  0  0  0  0  0  0  0  0  0  0
   21.1623  -16.1644   23.6596 H   0  0  0  0  0  0  0  0  0  0  0  0
   12.1744  -14.4444   20.9241 C   0  0  0  0  0  0  0  0  0  0  0  0
   12.3089  -13.0482   21.5422 C   0  0  0  0  0  0  0  0  0  0  0  0
   11.3152  -12.7763   22.5974 C   0  0  0  0  0  0  0  0  0  0  0  0
   11.3445  -11.4830   23.2908 C   0  0  0  0  0  0  0  0  0  0  0  0
   12.4006  -10.5242   22.9087 C   0  0  0  0  0  0  0  0  0  0  0  0
   13.3895  -10.8107   21.8469 C   0  0  0  0  0  0  0  0  0  0  0  0
   13.3467  -12.0892   21.1230 C   0  0  0  0  0  0  0  0  0  0  0  0
   14.2241  -12.2861   20.0033 N   0  0  0  0  0  0  0  0  0  0  0  0
   13.8363  -12.2998   18.6927 N   0  0  0  0  0  0  0  0  0  0  0  0
   14.9469  -12.4787   17.9085 C   0  0  0  0  0  0  0  0  0  0  0  0
   16.0245  -12.5699   18.7420 N   0  0  0  0  0  0  0  0  0  0  0  0
   15.5765  -12.4498   20.0347 C   0  0  0  0  0  0  0  0  0  0  0  0
 16 17  1  0  0  0
 16 21  1  0  0  0
 17 18  1  0  0  0
 18 19  1  0  0  0
 19 20  1  0  0  0
 19 13  1  0  0  0
 20 21  1  0  0  0
 13 14  1  0  0  0
 13 15  1  0  0  0
 13 12  1  0  0  0
 12 10  1  0  0  0
 10  1  1  0  0  0
  1  2  1  0  0  0
  1  6  2  0  0  0
  2  3  2  0  0  0
  2  7  1  0  0  0
  3  4  1  0  0  0
  3  9  1  0  0  0
  4  5  2  0  0  0
  5  6  1  0  0  0
  7  8  2  0  0  0
  8  9  1  0  0  0
  8 23  1  0  0  0
 23 24  1  0  0  0
 24 25  2  0  0  0
 24 29  1  0  0  0
 25 26  1  0  0  0
 26 27  2  0  0  0
 27 28  1  0  0  0
 28 29  2  0  0  0
 29 30  1  0  0  0
 30 31  1  0  0  0
 30 34  1  0  0  0
 31 32  2  0  0  0
 32 33  1  0  0  0
 33 34  2  0  0  0
 18 22  1  0  0  0
 10 11  1  0  0  0
M  END
> <minimizedAffinity>
-8.40900

$$$$
1ZGI_382_A_1001


 34 38  0  0  0  0  0  0  0  0999 V2000
   16.1055  -15.0985   20.1668 C   0  0  0  0  0  0  0  0  0  0  0  0
   17.3524  -15.2390   20.8634 C   0  0  0  0  0  0  0  0  0  0  0  0
   18.4357  -14.3684   20.5552 C   0  0  0  0  0  0  0  0  0  0  0  0
   18.2250  -13.3311   19.5168 C   0  0  0  0  0  0  0  0  0  0  0  0
   16.9375  -13.1966   18.8061 C   0  0  0  0  0  0  0  0  0  0  0  0
   15.9274  -14.1076   19.1711 N   0  0  0  0  0  0  0  0  0  0  0  0
   17.8122  -16.0887   21.8603 N   0  0  0  0  0  0  0  0  0  0  0  0
   19.1286  -15.7067   22.1030 C   0  0  0  0  0  0  0  0  0  0  0  0
   19.5507  -14.6591   21.2886 O   0  0  0  0  0  0  0  0  0  0  0  0
   15.0140  -15.9545   20.4582 N   0  0  0  0  0  0  0  0  0  0  0  0
   14.8671  -16.7374   19.8795 H   0  0  0  0  0  0  0  0  0  0  0  0
   14.0806  -15.7314   21.5911 C   0  0  0  0  0  0  0  0  0  0  0  0
   12.7969  -14.9927   21.1908 C   0  0  0  0  0  0  0  0  0  0  0  0
   11.7671  -15.8058   21.5423 F   0  0  0  0  0  0  0  0  0  0  0  0
   12.7717  -14.8355   19.8402 F   0  0  0  0  0  0  0  0  0  0  0  0
   11.8602  -10.8967   22.5540 C   0  0  0  0  0  0  0  0  0  0  0  0
   11.4124  -12.1204   23.3694 C   0  0  0  0  0  0  0  0  0  0  0  0
   11.4296  -13.3364   22.5069 N   0  0  0  0  0  0  0  0  0  0  0  0
   12.7669  -13.6169   21.9076 C   0  0  0  0  0  0  0  0  0  0  0  0
   13.1961  -12.4297   21.0386 C   0  0  0  0  0  0  0  0  0  0  0  0
   13.2357  -11.1498   21.9088 C   0  0  0  0  0  0  0  0  0  0  0  0
   10.7571  -13.2067   21.7511 H   0  0  0  0  0  0  0  0  0  0  0  0
   20.0648  -16.3064   23.1648 C   0  0  0  0  0  0  0  0  0  0  0  0
   20.1662  -15.6962   24.5673 C   0  0  0  0  0  0  0  0  0  0  0  0
   21.1515  -14.6030   24.6609 C   0  0  0  0  0  0  0  0  0  0  0  0
   21.3344  -13.9132   25.9436 C   0  0  0  0  0  0  0  0  0  0  0  0
   20.4887  -14.3384   27.0770 C   0  0  0  0  0  0  0  0  0  0  0  0
   19.5058  -15.4381   26.9682 C   0  0  0  0  0  0  0  0  0  0  0  0
   19.3401  -16.1578   25.6973 C   0  0  0  0  0  0  0  0  0  0  0  0
   18.4853  -17.3110   25.6556 N   0  0  0  0  0  0  0  0  0  0  0  0
   17.1950  -17.3179   25.2048 N   0  0  0  0  0  0  0  0  0  0  0  0
   16.7097  -18.5980   25.2836 C   0  0  0  0  0  0  0  0  0  0  0  0
   17.7099  -19.3836   25.7806 N   0  0  0  0  0  0  0  0  0  0  0  0
   18.8054  -18.5875   26.0088 C   0  0  0  0  0  0  0  0  0  0  0  0
 16 17  1  0  0  0
 16 21  1  0  0  0
 17 18  1  0  0  0
 18 19  1  0  0  0
 19 20  1  0  0  0
 19 13  1  0  0  0
 20 21  1  0  0  0
 13 14  1  0  0  0
 13 15  1  0  0  0
 13 12  1  0  0  0
 12 10  1  0  0  0
 10  1  1  0  0  0
  1  2  1  0  0  0
  1  6  2  0  0  0
  2  3  2  0  0  0
  2  7  1  0  0  0
  3  4  1  0  0  0
  3  9  1  0  0  0
  4  5  2  0  0  0
  5  6  1  0  0  0
  7  8  2  0  0  0
  8  9  1  0  0  0
  8 23  1  0  0  0
 23 24  1  0  0  0
 24 25  2  0  0  0
 24 29  1  0  0  0
 25 26  1  0  0  0
 26 27  2  0  0  0
 27 28  1  0  0  0
 28 29  2  0  0  0
 29 30  1  0  0  0
 30 31  1  0  0  0
 30 34  1  0  0  0
 31 32  2  0  0  0
 32 33  1  0  0  0
 33 34  2  0  0  0
 18 22  1  0  0  0
 10 11  1  0  0  0
M  END
> <minimizedAffinity>
-8.24861

$$$$
1ZGI_382_A_1001


 34 38  0  0  0  0  0  0  0  0999 V2000
   20.0930  -15.9536   22.5503 C   0  0  0  0  0  0  0  0  0  0  0  0
   18.7218  -15.9259   22.1276 C   0  0  0  0  0  0  0  0  0  0  0  0
   18.0808  -17.1332   21.7299 C   0  0  0  0  0  0  0  0  0  0  0  0
   18.8663  -18.3900   21.7772 C   0  0  0  0  0  0  0  0  0  0  0  0
   20.2771  -18.4058   22.2132 C   0  0  0  0  0  0  0  0  0  0  0  0
   20.8291  -17.1629   22.5790 N   0  0  0  0  0  0  0  0  0  0  0  0
   17.7697  -14.9237   21.9999 N   0  0  0  0  0  0  0  0  0  0  0  0
   16.6193  -15.5543   21.5345 C   0  0  0  0  0  0  0  0  0  0  0  0
   16.7913  -16.9212   21.3323 O   0  0  0  0  0  0  0  0  0  0  0  0
   20.7504  -14.7633   22.9507 N   0  0  0  0  0  0  0  0  0  0  0  0
   20.7962  -14.0171   22.3101 H   0  0  0  0  0  0  0  0  0  0  0  0
   21.3734  -14.5839   24.2864 C   0  0  0  0  0  0  0  0  0  0  0  0
   20.3567  -14.3378   25.4085 C   0  0  0  0  0  0  0  0  0  0  0  0
   19.2253  -13.8921   24.8031 F   0  0  0  0  0  0  0  0  0  0  0  0
   20.8179  -13.3522   26.2243 F   0  0  0  0  0  0  0  0  0  0  0  0
   19.5278  -18.4929   26.6578 C   0  0  0  0  0  0  0  0  0  0  0  0
   20.9718  -17.9936   26.4903 C   0  0  0  0  0  0  0  0  0  0  0  0
   20.9871  -16.7649   25.6457 N   0  0  0  0  0  0  0  0  0  0  0  0
   20.1530  -15.6580   26.1979 C   0  0  0  0  0  0  0  0  0  0  0  0
   18.6967  -16.1225   26.3091 C   0  0  0  0  0  0  0  0  0  0  0  0
   18.6295  -17.3741   27.2179 C   0  0  0  0  0  0  0  0  0  0  0  0
   20.6343  -17.0047   24.7192 H   0  0  0  0  0  0  0  0  0  0  0  0
   15.2583  -14.8852   21.2825 C   0  0  0  0  0  0  0  0  0  0  0  0
   15.0208  -14.0138   20.0440 C   0  0  0  0  0  0  0  0  0  0  0  0
   15.9910  -14.2584   18.9606 C   0  0  0  0  0  0  0  0  0  0  0  0
   15.8659  -13.5070   17.7059 C   0  0  0  0  0  0  0  0  0  0  0  0
   14.7423  -12.5564   17.5854 C   0  0  0  0  0  0  0  0  0  0  0  0
   13.7781  -12.3206   18.6818 C   0  0  0  0  0  0  0  0  0  0  0  0
   13.9156  -13.0428   19.9546 C   0  0  0  0  0  0  0  0  0  0  0  0
   13.0559  -12.6936   21.0506 N   0  0  0  0  0  0  0  0  0  0  0  0
   13.2381  -11.6256   21.8840 N   0  0  0  0  0  0  0  0  0  0  0  0
   12.2050  -11.5912   22.7851 C   0  0  0  0  0  0  0  0  0  0  0  0
   11.3800  -12.6412   22.5002 N   0  0  0  0  0  0  0  0  0  0  0  0
   11.9064  -13.3200   21.4287 C   0  0  0  0  0  0  0  0  0  0  0  0
 16 17  1  0  0  0
 16 21  1  0  0  0
 17 18  1  0  0  0
 18 19  1  0  0  0
 19 20  1  0  0  0
 19 13  1  0  0  0
 20 21  1  0  0  0
 13 14  1  0  0  0
 13 15  1  0  0  0
 13 12  1  0  0  0
 12 10  1  0  0  0
 10  1  1  0  0  0
  1  2  1  0  0  0
  1  6  2  0  0  0
  2  3  2  0  0  0
  2  7  1  0  0  0
  3  4  1  0  0  0
  3  9  1  0  0  0
  4  5  2  0  0  0
  5  6  1  0  0  0
  7  8  2  0  0  0
  8  9  1  0  0  0
  8 23  1  0  0  0
 23 24  1  0  0  0
 24 25  2  0  0  0
 24 29  1  0  0  0
 25 26  1  0  0  0
 26 27  2  0  0  0
 27 28  1  0  0  0
 28 29  2  0  0  0
 29 30  1  0  0  0
 30 31  1  0  0  0
 30 34  1  0  0  0
 31 32  2  0  0  0
 32 33  1  0  0  0
 33 34  2  0  0  0
 18 22  1  0  0  0
 10 11  1  0  0  0
M  END
> <minimizedAffinity>
-8.13478

$$$$
1ZGI_382_A_1001


 34 38  0  0  0  0  0  0  0  0999 V2000
   14.8581  -12.7087   18.7244 C   0  0  0  0  0  0  0  0  0  0  0  0
   16.0894  -13.0878   19.3568 C   0  0  0  0  0  0  0  0  0  0  0  0
   17.2982  -13.0897   18.6050 C   0  0  0  0  0  0  0  0  0  0  0  0
   17.2354  -12.6860   17.1796 C   0  0  0  0  0  0  0  0  0  0  0  0
   15.9622  -12.2986   16.5395 C   0  0  0  0  0  0  0  0  0  0  0  0
   14.8175  -12.3358   17.3590 N   0  0  0  0  0  0  0  0  0  0  0  0
   16.4333  -13.4880   20.6409 N   0  0  0  0  0  0  0  0  0  0  0  0
   17.8062  -13.7155   20.6093 C   0  0  0  0  0  0  0  0  0  0  0  0
   18.3649  -13.5021   19.3519 O   0  0  0  0  0  0  0  0  0  0  0  0
   13.6431  -12.6996   19.4544 N   0  0  0  0  0  0  0  0  0  0  0  0
   13.2439  -11.8299   19.6856 H   0  0  0  0  0  0  0  0  0  0  0  0
   12.9416  -13.9341   19.8883 C   0  0  0  0  0  0  0  0  0  0  0  0
   12.7445  -14.0250   21.4070 C   0  0  0  0  0  0  0  0  0  0  0  0
   13.9367  -14.4257   21.9202 F   0  0  0  0  0  0  0  0  0  0  0  0
   11.8198  -14.9833   21.6834 F   0  0  0  0  0  0  0  0  0  0  0  0
   12.1447  -10.3075   23.7165 C   0  0  0  0  0  0  0  0  0  0  0  0
   13.0162  -10.3168   22.4504 C   0  0  0  0  0  0  0  0  0  0  0  0
   13.4319  -11.7130   22.1330 N   0  0  0  0  0  0  0  0  0  0  0  0
   12.2810  -12.6416   21.9353 C   0  0  0  0  0  0  0  0  0  0  0  0
   11.4393  -12.6913   23.2152 C   0  0  0  0  0  0  0  0  0  0  0  0
   10.9476  -11.2635   23.5569 C   0  0  0  0  0  0  0  0  0  0  0  0
   14.0022  -12.0637   22.9024 H   0  0  0  0  0  0  0  0  0  0  0  0
   18.6844  -14.1245   21.8031 C   0  0  0  0  0  0  0  0  0  0  0  0
   18.8253  -15.5938   22.2166 C   0  0  0  0  0  0  0  0  0  0  0  0
   18.0481  -16.5179   21.3700 C   0  0  0  0  0  0  0  0  0  0  0  0
   18.1104  -17.9592   21.6408 C   0  0  0  0  0  0  0  0  0  0  0  0
   18.9831  -18.4125   22.7424 C   0  0  0  0  0  0  0  0  0  0  0  0
   19.7554  -17.4731   23.5842 C   0  0  0  0  0  0  0  0  0  0  0  0
   19.6725  -16.0255   23.3427 C   0  0  0  0  0  0  0  0  0  0  0  0
   20.3169  -15.1278   24.2599 N   0  0  0  0  0  0  0  0  0  0  0  0
   19.7005  -14.4885   25.2989 N   0  0  0  0  0  0  0  0  0  0  0  0
   20.6350  -13.7446   25.9725 C   0  0  0  0  0  0  0  0  0  0  0  0
   21.8341  -13.9325   25.3471 N   0  0  0  0  0  0  0  0  0  0  0  0
   21.6359  -14.7873   24.2907 C   0  0  0  0  0  0  0  0  0  0  0  0
 16 17  1  0  0  0
 16 21  1  0  0  0
 17 18  1  0  0  0
 18 19  1  0  0  0
 19 20  1  0  0  0
 19 13  1  0  0  0
 20 21  1  0  0  0
 13 14  1  0  0  0
 13 15  1  0  0  0
 13 12  1  0  0  0
 12 10  1  0  0  0
 10  1  1  0  0  0
  1  2  1  0  0  0
  1  6  2  0  0  0
  2  3  2  0  0  0
  2  7  1  0  0  0
  3  4  1  0  0  0
  3  9  1  0  0  0
  4  5  2  0  0  0
  5  6  1  0  0  0
  7  8  2  0  0  0
  8  9  1  0  0  0
  8 23  1  0  0  0
 23 24  1  0  0  0
 24 25  2  0  0  0
 24 29  1  0  0  0
 25 26  1  0  0  0
 26 27  2  0  0  0
 27 28  1  0  0  0
 28 29  2  0  0  0
 29 30  1  0  0  0
 30 31  1  0  0  0
 30 34  1  0  0  0
 31 32  2  0  0  0
 32 33  1  0  0  0
 33 34  2  0  0  0
 18 22  1  0  0  0
 10 11  1  0  0  0
M  END
> <minimizedAffinity>
-8.07100

$$$$
1ZGI_382_A_1001


 34 38  0  0  0  0  0  0  0  0999 V2000
   17.3884  -13.5166   21.1099 C   0  0  0  0  0  0  0  0  0  0  0  0
   18.4851  -13.8961   21.9542 C   0  0  0  0  0  0  0  0  0  0  0  0
   19.7967  -13.9898   21.4089 C   0  0  0  0  0  0  0  0  0  0  0  0
   19.9795  -13.6788   19.9706 C   0  0  0  0  0  0  0  0  0  0  0  0
   18.8430  -13.2902   19.1115 C   0  0  0  0  0  0  0  0  0  0  0  0
   17.5821  -13.2332   19.7362 N   0  0  0  0  0  0  0  0  0  0  0  0
   18.6023  -14.2225   23.2984 N   0  0  0  0  0  0  0  0  0  0  0  0
   19.9510  -14.4995   23.5025 C   0  0  0  0  0  0  0  0  0  0  0  0
   20.7115  -14.3891   22.3413 O   0  0  0  0  0  0  0  0  0  0  0  0
   16.0745  -13.4170   21.6324 N   0  0  0  0  0  0  0  0  0  0  0  0
   15.8521  -12.6375   22.1912 H   0  0  0  0  0  0  0  0  0  0  0  0
   15.0163  -14.4275   21.3802 C   0  0  0  0  0  0  0  0  0  0  0  0
   13.9722  -13.9772   20.3503 C   0  0  0  0  0  0  0  0  0  0  0  0
   13.2900  -15.0951   19.9894 F   0  0  0  0  0  0  0  0  0  0  0  0
   14.6071  -13.4934   19.2492 F   0  0  0  0  0  0  0  0  0  0  0  0
   12.2251  -10.8395   22.9223 C   0  0  0  0  0  0  0  0  0  0  0  0
   12.9321  -10.4767   21.6065 C   0  0  0  0  0  0  0  0  0  0  0  0
   13.8090  -11.6033   21.1766 N   0  0  0  0  0  0  0  0  0  0  0  0
   13.0729  -12.8879   20.9925 C   0  0  0  0  0  0  0  0  0  0  0  0
   12.4165  -13.2945   22.3164 C   0  0  0  0  0  0  0  0  0  0  0  0
   11.4595  -12.1681   22.7772 C   0  0  0  0  0  0  0  0  0  0  0  0
   14.5291  -11.7417   21.8856 H   0  0  0  0  0  0  0  0  0  0  0  0
   20.6090  -14.8594   24.8445 C   0  0  0  0  0  0  0  0  0  0  0  0
   20.1904  -16.1128   25.6214 C   0  0  0  0  0  0  0  0  0  0  0  0
   19.0565  -15.8838   26.5361 C   0  0  0  0  0  0  0  0  0  0  0  0
   18.5375  -17.0065   27.3263 C   0  0  0  0  0  0  0  0  0  0  0  0
   19.1690  -18.3279   27.1368 C   0  0  0  0  0  0  0  0  0  0  0  0
   20.3070  -18.5416   26.2167 C   0  0  0  0  0  0  0  0  0  0  0  0
   20.8561  -17.4162   25.4470 C   0  0  0  0  0  0  0  0  0  0  0  0
   22.0476  -17.6178   24.6711 N   0  0  0  0  0  0  0  0  0  0  0  0
   23.3189  -17.3553   25.0990 N   0  0  0  0  0  0  0  0  0  0  0  0
   24.1968  -17.7016   24.1042 C   0  0  0  0  0  0  0  0  0  0  0  0
   23.4609  -18.1852   23.0607 N   0  0  0  0  0  0  0  0  0  0  0  0
   22.1345  -18.1335   23.4128 C   0  0  0  0  0  0  0  0  0  0  0  0
 16 17  1  0  0  0
 16 21  1  0  0  0
 17 18  1  0  0  0
 18 19  1  0  0  0
 19 20  1  0  0  0
 19 13  1  0  0  0
 20 21  1  0  0  0
 13 14  1  0  0  0
 13 15  1  0  0  0
 13 12  1  0  0  0
 12 10  1  0  0  0
 10  1  1  0  0  0
  1  2  1  0  0  0
  1  6  2  0  0  0
  2  3  2  0  0  0
  2  7  1  0  0  0
  3  4  1  0  0  0
  3  9  1  0  0  0
  4  5  2  0  0  0
  5  6  1  0  0  0
  7  8  2  0  0  0
  8  9  1  0  0  0
  8 23  1  0  0  0
 23 24  1  0  0  0
 24 25  2  0  0  0
 24 29  1  0  0  0
 25 26  1  0  0  0
 26 27  2  0  0  0
 27 28  1  0  0  0
 28 29  2  0  0  0
 29 30  1  0  0  0
 30 31  1  0  0  0
 30 34  1  0  0  0
 31 32  2  0  0  0
 32 33  1  0  0  0
 33 34  2  0  0  0
 18 22  1  0  0  0
 10 11  1  0  0  0
M  END
> <minimizedAffinity>
-8.00501

$$$$
1ZGI_382_A_1001


 34 38  0  0  0  0  0  0  0  0999 V2000
   15.1659  -16.3884   21.4708 C   0  0  0  0  0  0  0  0  0  0  0  0
   16.5664  -16.4279   21.7819 C   0  0  0  0  0  0  0  0  0  0  0  0
   17.3756  -17.4785   21.2645 C   0  0  0  0  0  0  0  0  0  0  0  0
   16.7295  -18.5002   20.4056 C   0  0  0  0  0  0  0  0  0  0  0  0
   15.2871  -18.4495   20.0930 C   0  0  0  0  0  0  0  0  0  0  0  0
   14.5657  -17.3793   20.6565 N   0  0  0  0  0  0  0  0  0  0  0  0
   17.4138  -15.6206   22.5286 N   0  0  0  0  0  0  0  0  0  0  0  0
   18.6719  -16.2091   22.4372 C   0  0  0  0  0  0  0  0  0  0  0  0
   18.6726  -17.3783   21.6810 O   0  0  0  0  0  0  0  0  0  0  0  0
   14.3421  -15.3512   21.9752 N   0  0  0  0  0  0  0  0  0  0  0  0
   14.7445  -14.6886   22.5821 H   0  0  0  0  0  0  0  0  0  0  0  0
   12.9034  -15.2124   21.6354 C   0  0  0  0  0  0  0  0  0  0  0  0
   12.5425  -13.8426   21.0462 C   0  0  0  0  0  0  0  0  0  0  0  0
   11.4077  -14.0287   20.3232 F   0  0  0  0  0  0  0  0  0  0  0  0
   13.5271  -13.4459   20.1960 F   0  0  0  0  0  0  0  0  0  0  0  0
   11.1278  -10.7058   23.8160 C   0  0  0  0  0  0  0  0  0  0  0  0
   10.9572  -12.1946   24.1581 C   0  0  0  0  0  0  0  0  0  0  0  0
   11.0750  -13.0149   22.9186 N   0  0  0  0  0  0  0  0  0  0  0  0
   12.3729  -12.8272   22.2071 C   0  0  0  0  0  0  0  0  0  0  0  0
   12.5256  -11.3569   21.8027 C   0  0  0  0  0  0  0  0  0  0  0  0
   12.4545  -10.4703   23.0699 C   0  0  0  0  0  0  0  0  0  0  0  0
   10.3185  -12.7553   22.2856 H   0  0  0  0  0  0  0  0  0  0  0  0
   19.9733  -15.6646   23.0481 C   0  0  0  0  0  0  0  0  0  0  0  0
   20.0695  -15.3325   24.5415 C   0  0  0  0  0  0  0  0  0  0  0  0
   20.8038  -14.0839   24.8180 C   0  0  0  0  0  0  0  0  0  0  0  0
   20.9513  -13.6341   26.2073 C   0  0  0  0  0  0  0  0  0  0  0  0
   20.3221  -14.4525   27.2633 C   0  0  0  0  0  0  0  0  0  0  0  0
   19.5901  -15.7038   26.9703 C   0  0  0  0  0  0  0  0  0  0  0  0
   19.4667  -16.1806   25.5854 C   0  0  0  0  0  0  0  0  0  0  0  0
   18.8769  -17.4669   25.3410 N   0  0  0  0  0  0  0  0  0  0  0  0
   17.5350  -17.7260   25.3201 N   0  0  0  0  0  0  0  0  0  0  0  0
   17.3488  -19.0517   25.0232 C   0  0  0  0  0  0  0  0  0  0  0  0
   18.5837  -19.6095   24.8551 N   0  0  0  0  0  0  0  0  0  0  0  0
   19.5257  -18.6295   25.0508 C   0  0  0  0  0  0  0  0  0  0  0  0
 16 17  1  0  0  0
 16 21  1  0  0  0
 17 18  1  0  0  0
 18 19  1  0  0  0
 19 20  1  0  0  0
 19 13  1  0  0  0
 20 21  1  0  0  0
 13 14  1  0  0  0
 13 15  1  0  0  0
 13 12  1  0  0  0
 12 10  1  0  0  0
 10  1  1  0  0  0
  1  2  1  0  0  0
  1  6  2  0  0  0
  2  3  2  0  0  0
  2  7  1  0  0  0
  3  4  1  0  0  0
  3  9  1  0  0  0
  4  5  2  0  0  0
  5  6  1  0  0  0
  7  8  2  0  0  0
  8  9  1  0  0  0
  8 23  1  0  0  0
 23 24  1  0  0  0
 24 25  2  0  0  0
 24 29  1  0  0  0
 25 26  1  0  0  0
 26 27  2  0  0  0
 27 28  1  0  0  0
 28 29  2  0  0  0
 29 30  1  0  0  0
 30 31  1  0  0  0
 30 34  1  0  0  0
 31 32  2  0  0  0
 32 33  1  0  0  0
 33 34  2  0  0  0
 18 22  1  0  0  0
 10 11  1  0  0  0
M  END
> <minimizedAffinity>
-7.93804

$$$$
1ZGI_382_A_1001


 34 38  0  0  0  0  0  0  0  0999 V2000
   17.9773  -15.6789   23.6171 C   0  0  0  0  0  0  0  0  0  0  0  0
   17.1409  -15.1063   22.6010 C   0  0  0  0  0  0  0  0  0  0  0  0
   16.8903  -15.8307   21.4014 C   0  0  0  0  0  0  0  0  0  0  0  0
   17.5071  -17.1709   21.2525 C   0  0  0  0  0  0  0  0  0  0  0  0
   18.3667  -17.7494   22.3047 C   0  0  0  0  0  0  0  0  0  0  0  0
   18.5651  -16.9564   23.4515 N   0  0  0  0  0  0  0  0  0  0  0  0
   16.4442  -13.9114   22.4825 N   0  0  0  0  0  0  0  0  0  0  0  0
   15.8200  -13.9612   21.2394 C   0  0  0  0  0  0  0  0  0  0  0  0
   16.1009  -15.1292   20.5352 O   0  0  0  0  0  0  0  0  0  0  0  0
   18.2395  -14.9751   24.8192 N   0  0  0  0  0  0  0  0  0  0  0  0
   17.5889  -14.2982   25.1153 H   0  0  0  0  0  0  0  0  0  0  0  0
   19.4449  -15.2061   25.6547 C   0  0  0  0  0  0  0  0  0  0  0  0
   20.6355  -14.3178   25.2712 C   0  0  0  0  0  0  0  0  0  0  0  0
   20.6205  -13.2706   26.1363 F   0  0  0  0  0  0  0  0  0  0  0  0
   20.4477  -13.8329   24.0145 F   0  0  0  0  0  0  0  0  0  0  0  0
   23.9817  -17.1023   24.5212 C   0  0  0  0  0  0  0  0  0  0  0  0
   24.1407  -15.5940   24.2718 C   0  0  0  0  0  0  0  0  0  0  0  0
   22.7979  -14.9576   24.1489 N   0  0  0  0  0  0  0  0  0  0  0  0
   21.9353  -15.1617   25.3490 C   0  0  0  0  0  0  0  0  0  0  0  0
   21.7154  -16.6621   25.5706 C   0  0  0  0  0  0  0  0  0  0  0  0
   23.0874  -17.3569   25.7491 C   0  0  0  0  0  0  0  0  0  0  0  0
   22.3240  -15.3559   23.3382 H   0  0  0  0  0  0  0  0  0  0  0  0
   14.8783  -12.8956   20.6552 C   0  0  0  0  0  0  0  0  0  0  0  0
   13.6156  -12.4569   21.4054 C   0  0  0  0  0  0  0  0  0  0  0  0
   13.7022  -11.0886   21.9484 C   0  0  0  0  0  0  0  0  0  0  0  0
   12.5523  -10.5322   22.6712 C   0  0  0  0  0  0  0  0  0  0  0  0
   11.3450  -11.3741   22.7904 C   0  0  0  0  0  0  0  0  0  0  0  0
   11.2738  -12.7457   22.2419 C   0  0  0  0  0  0  0  0  0  0  0  0
   12.4324  -13.3244   21.5466 C   0  0  0  0  0  0  0  0  0  0  0  0
   12.3895  -14.7038   21.1495 N   0  0  0  0  0  0  0  0  0  0  0  0
   12.5617  -15.7695   21.9879 N   0  0  0  0  0  0  0  0  0  0  0  0
   12.4204  -16.9250   21.2631 C   0  0  0  0  0  0  0  0  0  0  0  0
   12.1542  -16.5672   19.9726 N   0  0  0  0  0  0  0  0  0  0  0  0
   12.1346  -15.1957   19.9046 C   0  0  0  0  0  0  0  0  0  0  0  0
 16 17  1  0  0  0
 16 21  1  0  0  0
 17 18  1  0  0  0
 18 19  1  0  0  0
 19 20  1  0  0  0
 19 13  1  0  0  0
 20 21  1  0  0  0
 13 14  1  0  0  0
 13 15  1  0  0  0
 13 12  1  0  0  0
 12 10  1  0  0  0
 10  1  1  0  0  0
  1  2  1  0  0  0
  1  6  2  0  0  0
  2  3  2  0  0  0
  2  7  1  0  0  0
  3  4  1  0  0  0
  3  9  1  0  0  0
  4  5  2  0  0  0
  5  6  1  0  0  0
  7  8  2  0  0  0
  8  9  1  0  0  0
  8 23  1  0  0  0
 23 24  1  0  0  0
 24 25  2  0  0  0
 24 29  1  0  0  0
 25 26  1  0  0  0
 26 27  2  0  0  0
 27 28  1  0  0  0
 28 29  2  0  0  0
 29 30  1  0  0  0
 30 31  1  0  0  0
 30 34  1  0  0  0
 31 32  2  0  0  0
 32 33  1  0  0  0
 33 34  2  0  0  0
 18 22  1  0  0  0
 10 11  1  0  0  0
M  END
> <minimizedAffinity>
-7.93484

$$$$
