4ABF_513_A_1252


 14 15  0  0  0  0  0  0  0  0999 V2000
    0.8728  -15.5269   16.0074 C   0  0  0  0  0  0  0  0  0  0  0  0
    0.6258  -14.8456   14.4752 S   0  0  0  0  0  0  0  0  0  0  0  0
    1.5253  -13.4340   14.9055 C   0  0  0  0  0  0  0  0  0  0  0  0
    1.9736  -13.5655   16.2076 C   0  0  0  0  0  0  0  0  0  0  0  0
    1.5937  -14.7380   16.8769 C   0  0  0  0  0  0  0  0  0  0  0  0
    1.8204  -12.3092   14.1117 C   0  0  0  0  0  0  0  0  0  0  0  0
    2.6150  -11.3414   14.6936 C   0  0  0  0  0  0  0  0  0  0  0  0
    3.1079  -11.4841   15.9769 C   0  0  0  0  0  0  0  0  0  0  0  0
    2.7839  -12.5905   16.8193 C   0  0  0  0  0  0  0  0  0  0  0  0
    4.2341  -10.1148   16.5943 Br  0  0  0  0  0  0  0  0  0  0  0  0
    1.9909  -16.4757   18.5298 N   0  0  0  0  0  0  0  0  0  0  0  0
    2.0119  -15.0526   18.2677 C   0  0  0  0  0  0  0  0  0  0  0  0
    2.2834  -16.6487   19.4915 H   0  0  0  0  0  0  0  0  0  0  0  0
    2.6292  -16.9487   17.8900 H   0  0  0  0  0  0  0  0  0  0  0  0
  6  7  2  0  0  0
  6  3  1  0  0  0
  7  8  1  0  0  0
  9  4  1  0  0  0
  9  8  2  0  0  0
  1  5  2  0  0  0
  1  2  1  0  0  0
  4  5  1  0  0  0
  4  3  2  0  0  0
  5 12  1  0  0  0
  3  2  1  0  0  0
  8 10  1  0  0  0
 12 11  1  0  0  0
 11 13  1  0  0  0
 11 14  1  0  0  0
M  END
> <minimizedAffinity>
-5.79766

$$$$
4ABF_513_A_1252


 14 15  0  0  0  0  0  0  0  0999 V2000
    2.3101  -10.7200   14.7290 C   0  0  0  0  0  0  0  0  0  0  0  0
    1.6315  -11.8204   13.6331 S   0  0  0  0  0  0  0  0  0  0  0  0
    1.6527  -13.0823   14.8137 C   0  0  0  0  0  0  0  0  0  0  0  0
    2.1774  -12.5860   15.9936 C   0  0  0  0  0  0  0  0  0  0  0  0
    2.5905  -11.2459   15.9711 C   0  0  0  0  0  0  0  0  0  0  0  0
    1.2033  -14.4102   14.6829 C   0  0  0  0  0  0  0  0  0  0  0  0
    1.2857  -15.1981   15.8138 C   0  0  0  0  0  0  0  0  0  0  0  0
    1.7639  -14.6993   17.0109 C   0  0  0  0  0  0  0  0  0  0  0  0
    2.2707  -13.3724   17.1573 C   0  0  0  0  0  0  0  0  0  0  0  0
    1.7412  -15.8767   18.4730 Br  0  0  0  0  0  0  0  0  0  0  0  0
    2.1213   -9.8691   17.9189 N   0  0  0  0  0  0  0  0  0  0  0  0
    3.1488  -10.5467   17.1577 C   0  0  0  0  0  0  0  0  0  0  0  0
    2.5444   -9.4035   18.7218 H   0  0  0  0  0  0  0  0  0  0  0  0
    1.4342  -10.5494   18.2435 H   0  0  0  0  0  0  0  0  0  0  0  0
  6  7  2  0  0  0
  6  3  1  0  0  0
  7  8  1  0  0  0
  9  4  1  0  0  0
  9  8  2  0  0  0
  1  5  2  0  0  0
  1  2  1  0  0  0
  4  5  1  0  0  0
  4  3  2  0  0  0
  5 12  1  0  0  0
  3  2  1  0  0  0
  8 10  1  0  0  0
 12 11  1  0  0  0
 11 13  1  0  0  0
 11 14  1  0  0  0
M  END
> <minimizedAffinity>
-5.10516

$$$$
4ABF_513_A_1252


 14 15  0  0  0  0  0  0  0  0999 V2000
    1.6128  -15.2711   16.5683 C   0  0  0  0  0  0  0  0  0  0  0  0
    2.2929  -14.3927   17.8483 S   0  0  0  0  0  0  0  0  0  0  0  0
    1.9333  -12.8913   17.0718 C   0  0  0  0  0  0  0  0  0  0  0  0
    1.3021  -13.1470   15.8677 C   0  0  0  0  0  0  0  0  0  0  0  0
    1.1290  -14.4986   15.5353 C   0  0  0  0  0  0  0  0  0  0  0  0
    2.1830  -11.5852   17.5347 C   0  0  0  0  0  0  0  0  0  0  0  0
    1.7354  -10.5554   16.7311 C   0  0  0  0  0  0  0  0  0  0  0  0
    1.0615  -10.7992   15.5493 C   0  0  0  0  0  0  0  0  0  0  0  0
    0.8389  -12.1120   15.0338 C   0  0  0  0  0  0  0  0  0  0  0  0
    0.4533   -9.2915   14.6103 Br  0  0  0  0  0  0  0  0  0  0  0  0
    1.3860  -15.2263   13.2301 N   0  0  0  0  0  0  0  0  0  0  0  0
    0.4459  -14.9502   14.2951 C   0  0  0  0  0  0  0  0  0  0  0  0
    0.8788  -15.5323   12.3997 H   0  0  0  0  0  0  0  0  0  0  0  0
    2.0288  -15.9609   13.5259 H   0  0  0  0  0  0  0  0  0  0  0  0
  6  7  2  0  0  0
  6  3  1  0  0  0
  7  8  1  0  0  0
  9  4  1  0  0  0
  9  8  2  0  0  0
  1  5  2  0  0  0
  1  2  1  0  0  0
  4  5  1  0  0  0
  4  3  2  0  0  0
  5 12  1  0  0  0
  3  2  1  0  0  0
  8 10  1  0  0  0
 12 11  1  0  0  0
 11 13  1  0  0  0
 11 14  1  0  0  0
M  END
> <minimizedAffinity>
-4.98762

$$$$
4ABF_513_A_1252


 14 15  0  0  0  0  0  0  0  0999 V2000
    2.0536  -13.7269   16.2386 C   0  0  0  0  0  0  0  0  0  0  0  0
    2.3400  -12.2563   17.0309 S   0  0  0  0  0  0  0  0  0  0  0  0
    1.1230  -11.4611   16.0965 C   0  0  0  0  0  0  0  0  0  0  0  0
    0.5556  -12.3743   15.2259 C   0  0  0  0  0  0  0  0  0  0  0  0
    1.0846  -13.6728   15.2607 C   0  0  0  0  0  0  0  0  0  0  0  0
    0.7014  -10.1197   16.1693 C   0  0  0  0  0  0  0  0  0  0  0  0
   -0.3408   -9.7601   15.3380 C   0  0  0  0  0  0  0  0  0  0  0  0
   -0.9468  -10.6757   14.4984 C   0  0  0  0  0  0  0  0  0  0  0  0
   -0.5069  -12.0280   14.3701 C   0  0  0  0  0  0  0  0  0  0  0  0
   -2.3982  -10.0463   13.4875 Br  0  0  0  0  0  0  0  0  0  0  0  0
    1.4372  -15.0410   13.2825 N   0  0  0  0  0  0  0  0  0  0  0  0
    0.5735  -14.7823   14.4146 C   0  0  0  0  0  0  0  0  0  0  0  0
    1.0523  -15.8066   12.7292 H   0  0  0  0  0  0  0  0  0  0  0  0
    2.3669  -15.2960   13.6155 H   0  0  0  0  0  0  0  0  0  0  0  0
  6  7  2  0  0  0
  6  3  1  0  0  0
  7  8  1  0  0  0
  9  4  1  0  0  0
  9  8  2  0  0  0
  1  5  2  0  0  0
  1  2  1  0  0  0
  4  5  1  0  0  0
  4  3  2  0  0  0
  5 12  1  0  0  0
  3  2  1  0  0  0
  8 10  1  0  0  0
 12 11  1  0  0  0
 11 13  1  0  0  0
 11 14  1  0  0  0
M  END
> <minimizedAffinity>
-4.86583

$$$$
4ABF_513_A_1252


 14 15  0  0  0  0  0  0  0  0999 V2000
    1.9662  -13.1909   17.0647 C   0  0  0  0  0  0  0  0  0  0  0  0
    2.4632  -11.5834   17.2681 S   0  0  0  0  0  0  0  0  0  0  0  0
    2.2952  -11.2675   15.5774 C   0  0  0  0  0  0  0  0  0  0  0  0
    1.8590  -12.4183   14.9456 C   0  0  0  0  0  0  0  0  0  0  0  0
    1.6885  -13.5455   15.7627 C   0  0  0  0  0  0  0  0  0  0  0  0
    2.5181  -10.0611   14.8865 C   0  0  0  0  0  0  0  0  0  0  0  0
    2.2490  -10.0731   13.5322 C   0  0  0  0  0  0  0  0  0  0  0  0
    1.7675  -11.2035   12.8993 C   0  0  0  0  0  0  0  0  0  0  0  0
    1.5796  -12.4518   13.5664 C   0  0  0  0  0  0  0  0  0  0  0  0
    1.3812  -11.0337   11.0699 Br  0  0  0  0  0  0  0  0  0  0  0  0
    1.8397  -15.9666   15.9194 N   0  0  0  0  0  0  0  0  0  0  0  0
    1.1992  -14.8529   15.2533 C   0  0  0  0  0  0  0  0  0  0  0  0
    1.4774  -16.8424   15.5423 H   0  0  0  0  0  0  0  0  0  0  0  0
    1.6461  -15.9214   16.9199 H   0  0  0  0  0  0  0  0  0  0  0  0
  6  7  2  0  0  0
  6  3  1  0  0  0
  7  8  1  0  0  0
  9  4  1  0  0  0
  9  8  2  0  0  0
  1  5  2  0  0  0
  1  2  1  0  0  0
  4  5  1  0  0  0
  4  3  2  0  0  0
  5 12  1  0  0  0
  3  2  1  0  0  0
  8 10  1  0  0  0
 12 11  1  0  0  0
 11 13  1  0  0  0
 11 14  1  0  0  0
M  END
> <minimizedAffinity>
-4.83995

$$$$
4ABF_513_A_1252


 14 15  0  0  0  0  0  0  0  0999 V2000
    0.5394  -13.6165   14.8789 C   0  0  0  0  0  0  0  0  0  0  0  0
    0.2186  -12.2924   13.8707 S   0  0  0  0  0  0  0  0  0  0  0  0
    1.6478  -11.4799   14.4035 C   0  0  0  0  0  0  0  0  0  0  0  0
    2.3003  -12.2761   15.3276 C   0  0  0  0  0  0  0  0  0  0  0  0
    1.6782  -13.4927   15.6442 C   0  0  0  0  0  0  0  0  0  0  0  0
    2.1475  -10.2291   13.9931 C   0  0  0  0  0  0  0  0  0  0  0  0
    3.3531   -9.8416   14.5435 C   0  0  0  0  0  0  0  0  0  0  0  0
    4.0373  -10.6502   15.4314 C   0  0  0  0  0  0  0  0  0  0  0  0
    3.5295  -11.8994   15.9007 C   0  0  0  0  0  0  0  0  0  0  0  0
    5.6980  -10.0116   16.0306 Br  0  0  0  0  0  0  0  0  0  0  0  0
    1.9438  -15.8406   16.2154 N   0  0  0  0  0  0  0  0  0  0  0  0
    2.2563  -14.4791   16.5935 C   0  0  0  0  0  0  0  0  0  0  0  0
    2.3573  -16.4842   16.8900 H   0  0  0  0  0  0  0  0  0  0  0  0
    2.3222  -16.0311   15.2875 H   0  0  0  0  0  0  0  0  0  0  0  0
  6  7  2  0  0  0
  6  3  1  0  0  0
  7  8  1  0  0  0
  9  4  1  0  0  0
  9  8  2  0  0  0
  1  5  2  0  0  0
  1  2  1  0  0  0
  4  5  1  0  0  0
  4  3  2  0  0  0
  5 12  1  0  0  0
  3  2  1  0  0  0
  8 10  1  0  0  0
 12 11  1  0  0  0
 11 13  1  0  0  0
 11 14  1  0  0  0
M  END
> <minimizedAffinity>
-4.75056

$$$$
4ABF_513_A_1252


 14 15  0  0  0  0  0  0  0  0999 V2000
    2.0038  -13.2358   15.7541 C   0  0  0  0  0  0  0  0  0  0  0  0
    1.2867  -13.5440   14.2497 S   0  0  0  0  0  0  0  0  0  0  0  0
    1.6932  -11.9643   13.6789 C   0  0  0  0  0  0  0  0  0  0  0  0
    2.3662  -11.2840   14.6780 C   0  0  0  0  0  0  0  0  0  0  0  0
    2.5354  -11.9720   15.8885 C   0  0  0  0  0  0  0  0  0  0  0  0
    1.4420  -11.3998   12.4137 C   0  0  0  0  0  0  0  0  0  0  0  0
    1.9318  -10.1260   12.2040 C   0  0  0  0  0  0  0  0  0  0  0  0
    2.6467   -9.4553   13.1784 C   0  0  0  0  0  0  0  0  0  0  0  0
    2.8728   -9.9851   14.4849 C   0  0  0  0  0  0  0  0  0  0  0  0
    3.3079   -7.7618   12.7099 Br  0  0  0  0  0  0  0  0  0  0  0  0
    2.3522  -10.8328   18.0281 N   0  0  0  0  0  0  0  0  0  0  0  0
    3.2592  -11.4012   17.0541 C   0  0  0  0  0  0  0  0  0  0  0  0
    2.8867  -10.4532   18.8095 H   0  0  0  0  0  0  0  0  0  0  0  0
    1.7208  -11.5580   18.3685 H   0  0  0  0  0  0  0  0  0  0  0  0
  6  7  2  0  0  0
  6  3  1  0  0  0
  7  8  1  0  0  0
  9  4  1  0  0  0
  9  8  2  0  0  0
  1  5  2  0  0  0
  1  2  1  0  0  0
  4  5  1  0  0  0
  4  3  2  0  0  0
  5 12  1  0  0  0
  3  2  1  0  0  0
  8 10  1  0  0  0
 12 11  1  0  0  0
 11 13  1  0  0  0
 11 14  1  0  0  0
M  END
> <minimizedAffinity>
-4.24484

$$$$
4ABF_513_A_1252


 14 15  0  0  0  0  0  0  0  0999 V2000
    0.7055  -13.2216   14.8599 C   0  0  0  0  0  0  0  0  0  0  0  0
    2.0174  -13.4767   15.9022 S   0  0  0  0  0  0  0  0  0  0  0  0
    2.7662  -12.0032   15.3974 C   0  0  0  0  0  0  0  0  0  0  0  0
    1.9611  -11.3890   14.4548 C   0  0  0  0  0  0  0  0  0  0  0  0
    0.7886  -12.0735   14.1029 C   0  0  0  0  0  0  0  0  0  0  0  0
    3.9769  -11.4397   15.8435 C   0  0  0  0  0  0  0  0  0  0  0  0
    4.3139  -10.2120   15.3088 C   0  0  0  0  0  0  0  0  0  0  0  0
    3.4939   -9.5671   14.4022 C   0  0  0  0  0  0  0  0  0  0  0  0
    2.2867  -10.1383   13.8971 C   0  0  0  0  0  0  0  0  0  0  0  0
    4.0584   -7.8714   13.8272 Br  0  0  0  0  0  0  0  0  0  0  0  0
   -1.5366  -11.4997   13.6864 N   0  0  0  0  0  0  0  0  0  0  0  0
   -0.2016  -11.5437   13.1297 C   0  0  0  0  0  0  0  0  0  0  0  0
   -2.1838  -11.1315   12.9893 H   0  0  0  0  0  0  0  0  0  0  0  0
   -1.5425  -10.8957   14.5083 H   0  0  0  0  0  0  0  0  0  0  0  0
  6  7  2  0  0  0
  6  3  1  0  0  0
  7  8  1  0  0  0
  9  4  1  0  0  0
  9  8  2  0  0  0
  1  5  2  0  0  0
  1  2  1  0  0  0
  4  5  1  0  0  0
  4  3  2  0  0  0
  5 12  1  0  0  0
  3  2  1  0  0  0
  8 10  1  0  0  0
 12 11  1  0  0  0
 11 13  1  0  0  0
 11 14  1  0  0  0
M  END
> <minimizedAffinity>
-4.19189

$$$$
4ABF_513_A_1252


 14 15  0  0  0  0  0  0  0  0999 V2000
    0.4799  -13.4899   14.5648 C   0  0  0  0  0  0  0  0  0  0  0  0
    1.5590  -13.8812   15.8118 S   0  0  0  0  0  0  0  0  0  0  0  0
    1.6830  -12.2247   16.2887 C   0  0  0  0  0  0  0  0  0  0  0  0
    0.8804  -11.4574   15.4635 C   0  0  0  0  0  0  0  0  0  0  0  0
    0.2006  -12.1459   14.4481 C   0  0  0  0  0  0  0  0  0  0  0  0
    2.4311  -11.6724   17.3459 C   0  0  0  0  0  0  0  0  0  0  0  0
    2.3016  -10.3117   17.5414 C   0  0  0  0  0  0  0  0  0  0  0  0
    1.4660   -9.5429   16.7532 C   0  0  0  0  0  0  0  0  0  0  0  0
    0.7351  -10.0692   15.6453 C   0  0  0  0  0  0  0  0  0  0  0  0
    1.3447   -7.7225   17.1959 Br  0  0  0  0  0  0  0  0  0  0  0  0
   -0.1555  -11.3895   12.1654 N   0  0  0  0  0  0  0  0  0  0  0  0
   -0.7241  -11.4815   13.4931 C   0  0  0  0  0  0  0  0  0  0  0  0
   -0.8192  -10.9290   11.5426 H   0  0  0  0  0  0  0  0  0  0  0  0
    0.0450  -12.3264   11.8158 H   0  0  0  0  0  0  0  0  0  0  0  0
  6  7  2  0  0  0
  6  3  1  0  0  0
  7  8  1  0  0  0
  9  4  1  0  0  0
  9  8  2  0  0  0
  1  5  2  0  0  0
  1  2  1  0  0  0
  4  5  1  0  0  0
  4  3  2  0  0  0
  5 12  1  0  0  0
  3  2  1  0  0  0
  8 10  1  0  0  0
 12 11  1  0  0  0
 11 13  1  0  0  0
 11 14  1  0  0  0
M  END
> <minimizedAffinity>
-4.17735

$$$$
4ABF_513_A_1252


 14 15  0  0  0  0  0  0  0  0999 V2000
    2.0893  -11.9986   14.7104 C   0  0  0  0  0  0  0  0  0  0  0  0
    1.1689  -11.7479   13.3094 S   0  0  0  0  0  0  0  0  0  0  0  0
   -0.0648  -10.9369   14.2077 C   0  0  0  0  0  0  0  0  0  0  0  0
    0.3014  -10.8974   15.5411 C   0  0  0  0  0  0  0  0  0  0  0  0
    1.5144  -11.5212   15.8678 C   0  0  0  0  0  0  0  0  0  0  0  0
   -1.2579  -10.3604   13.7315 C   0  0  0  0  0  0  0  0  0  0  0  0
   -2.0435   -9.7186   14.6682 C   0  0  0  0  0  0  0  0  0  0  0  0
   -1.6643   -9.6317   15.9945 C   0  0  0  0  0  0  0  0  0  0  0  0
   -0.4853  -10.2490   16.5117 C   0  0  0  0  0  0  0  0  0  0  0  0
   -2.8058   -8.6614   17.1258 Br  0  0  0  0  0  0  0  0  0  0  0  0
    2.0322  -12.8744   17.8198 N   0  0  0  0  0  0  0  0  0  0  0  0
    2.0708  -11.5466   17.2456 C   0  0  0  0  0  0  0  0  0  0  0  0
    2.4216  -12.8488   18.7622 H   0  0  0  0  0  0  0  0  0  0  0  0
    2.5816  -13.5107   17.2421 H   0  0  0  0  0  0  0  0  0  0  0  0
  6  7  2  0  0  0
  6  3  1  0  0  0
  7  8  1  0  0  0
  9  4  1  0  0  0
  9  8  2  0  0  0
  1  5  2  0  0  0
  1  2  1  0  0  0
  4  5  1  0  0  0
  4  3  2  0  0  0
  5 12  1  0  0  0
  3  2  1  0  0  0
  8 10  1  0  0  0
 12 11  1  0  0  0
 11 13  1  0  0  0
 11 14  1  0  0  0
M  END
> <minimizedAffinity>
-4.16749

$$$$
