3N4B_WWZ_A_263


 25 26  0  0  0  0  0  0  0  0999 V2000
   -3.1211    2.7539   12.4368 N   0  0  0  0  0  0  0  0  0  0  0  0
   -3.6996    3.3295   11.2731 C   0  0  0  0  0  0  0  0  0  0  0  0
   -4.9031    3.3342   11.0708 O   0  0  0  0  0  0  0  0  0  0  0  0
   -2.8322    3.8850   10.3083 N   0  0  0  0  0  0  0  0  0  0  0  0
   -2.1517    2.5832   12.4574 H   0  0  0  0  0  0  0  0  0  0  0  0
   -3.1589    4.0144    9.3886 H   0  0  0  0  0  0  0  0  0  0  0  0
   -1.5015    4.2624   10.6278 C   0  0  0  0  0  0  0  0  0  0  0  0
   -1.3471    5.4429   11.5031 C   0  0  0  0  0  0  0  0  0  0  0  0
   -0.1043    5.8032   11.9237 C   0  0  0  0  0  0  0  0  0  0  0  0
    1.0778    4.9989   11.5105 C   0  0  0  0  0  0  0  0  0  0  0  0
    2.2817    5.3349   11.9593 F   0  0  0  0  0  0  0  0  0  0  0  0
    0.9323    3.9038   10.7144 C   0  0  0  0  0  0  0  0  0  0  0  0
   -0.4282    3.5086   10.2499 C   0  0  0  0  0  0  0  0  0  0  0  0
   -5.3188    1.6082   15.7836 C   0  0  0  0  0  0  0  0  0  0  0  0
   -4.6512    0.6715   15.0160 C   0  0  0  0  0  0  0  0  0  0  0  0
   -3.9462    1.0827   13.9126 C   0  0  0  0  0  0  0  0  0  0  0  0
   -3.9057    2.4203   13.5669 C   0  0  0  0  0  0  0  0  0  0  0  0
   -4.5757    3.3661   14.3473 C   0  0  0  0  0  0  0  0  0  0  0  0
   -5.2756    2.9566   15.4698 C   0  0  0  0  0  0  0  0  0  0  0  0
   -5.7436    1.8683   18.4432 N   0  0  0  0  0  0  0  0  0  0  0  0
   -5.6222   -0.3641   17.3893 O   0  0  0  0  0  0  0  0  0  0  0  0
   -6.1317    0.9878   17.2214 S   0  0  0  0  0  0  0  0  0  0  0  0
   -7.5730    0.9827   17.0465 O   0  0  0  0  0  0  0  0  0  0  0  0
   -4.7299    1.8647   18.5566 H   0  0  0  0  0  0  0  0  0  0  0  0
   -6.1812    1.4936   19.2850 H   0  0  0  0  0  0  0  0  0  0  0  0
 19 14  2  0  0  0
 15 14  1  0  0  0
 14 22  1  0  0  0
 20 22  1  0  0  0
 21 22  2  0  0  0
 22 23  2  0  0  0
 16 15  2  0  0  0
 17 16  1  0  0  0
  1 17  1  0  0  0
 17 18  2  0  0  0
 18 19  1  0  0  0
  2  1  1  0  0  0
  3  2  2  0  0  0
  4  2  1  0  0  0
  4  7  1  0  0  0
  8  7  2  0  0  0
  7 13  1  0  0  0
  8  9  1  0  0  0
  9 10  2  0  0  0
 10 11  1  0  0  0
 10 12  1  0  0  0
 13 12  2  0  0  0
 20 24  1  0  0  0
 20 25  1  0  0  0
  1  5  1  0  0  0
  4  6  1  0  0  0
M  END
> <minimizedAffinity>
-7.48179

$$$$
3N4B_WWZ_A_263


 25 26  0  0  0  0  0  0  0  0999 V2000
   -3.1414    2.7923   12.4983 N   0  0  0  0  0  0  0  0  0  0  0  0
   -3.7047    3.2732   11.2852 C   0  0  0  0  0  0  0  0  0  0  0  0
   -4.8962    3.1886   11.0348 O   0  0  0  0  0  0  0  0  0  0  0  0
   -2.8340    3.8395   10.3298 N   0  0  0  0  0  0  0  0  0  0  0  0
   -2.1648    2.6875   12.5663 H   0  0  0  0  0  0  0  0  0  0  0  0
   -3.1281    3.9038    9.3925 H   0  0  0  0  0  0  0  0  0  0  0  0
   -1.5454    4.3190   10.6835 C   0  0  0  0  0  0  0  0  0  0  0  0
   -0.4002    3.4717   10.2909 C   0  0  0  0  0  0  0  0  0  0  0  0
    0.8661    3.9159   10.5163 C   0  0  0  0  0  0  0  0  0  0  0  0
    1.0812    5.2502   11.1395 C   0  0  0  0  0  0  0  0  0  0  0  0
    2.3209    5.6920   11.3180 F   0  0  0  0  0  0  0  0  0  0  0  0
    0.0248    6.0351   11.4888 C   0  0  0  0  0  0  0  0  0  0  0  0
   -1.3636    5.5495   11.2455 C   0  0  0  0  0  0  0  0  0  0  0  0
   -5.4071    1.6574   15.8031 C   0  0  0  0  0  0  0  0  0  0  0  0
   -4.6739    0.7269   15.0897 C   0  0  0  0  0  0  0  0  0  0  0  0
   -3.9479    1.1337   13.9984 C   0  0  0  0  0  0  0  0  0  0  0  0
   -3.9511    2.4605   13.6110 C   0  0  0  0  0  0  0  0  0  0  0  0
   -4.6875    3.4003   14.3369 C   0  0  0  0  0  0  0  0  0  0  0  0
   -5.4092    2.9960   15.4475 C   0  0  0  0  0  0  0  0  0  0  0  0
   -6.0053    2.0266   18.4161 N   0  0  0  0  0  0  0  0  0  0  0  0
   -5.6289   -0.2411   17.5080 O   0  0  0  0  0  0  0  0  0  0  0  0
   -6.2440    1.0474   17.2316 S   0  0  0  0  0  0  0  0  0  0  0  0
   -7.6669    0.9019   16.9822 O   0  0  0  0  0  0  0  0  0  0  0  0
   -5.0034    2.1212   18.5823 H   0  0  0  0  0  0  0  0  0  0  0  0
   -6.4562    1.6616   19.2551 H   0  0  0  0  0  0  0  0  0  0  0  0
 19 14  2  0  0  0
 15 14  1  0  0  0
 14 22  1  0  0  0
 20 22  1  0  0  0
 21 22  2  0  0  0
 22 23  2  0  0  0
 16 15  2  0  0  0
 17 16  1  0  0  0
  1 17  1  0  0  0
 17 18  2  0  0  0
 18 19  1  0  0  0
  2  1  1  0  0  0
  3  2  2  0  0  0
  4  2  1  0  0  0
  4  7  1  0  0  0
  8  7  2  0  0  0
  7 13  1  0  0  0
  8  9  1  0  0  0
  9 10  2  0  0  0
 10 11  1  0  0  0
 10 12  1  0  0  0
 13 12  2  0  0  0
 20 24  1  0  0  0
 20 25  1  0  0  0
  1  5  1  0  0  0
  4  6  1  0  0  0
M  END
> <minimizedAffinity>
-7.42673

$$$$
3N4B_WWZ_A_263


 25 26  0  0  0  0  0  0  0  0999 V2000
   -2.9147    5.0920   14.1824 N   0  0  0  0  0  0  0  0  0  0  0  0
   -3.2990    5.6866   12.9500 C   0  0  0  0  0  0  0  0  0  0  0  0
   -4.1881    5.2307   12.2492 O   0  0  0  0  0  0  0  0  0  0  0  0
   -2.5937    6.8303   12.5185 N   0  0  0  0  0  0  0  0  0  0  0  0
   -2.0659    5.3616   14.6020 H   0  0  0  0  0  0  0  0  0  0  0  0
   -2.6244    7.0812   11.5670 H   0  0  0  0  0  0  0  0  0  0  0  0
   -1.8410    7.6288   13.4191 C   0  0  0  0  0  0  0  0  0  0  0  0
   -0.5025    8.0525   12.9582 C   0  0  0  0  0  0  0  0  0  0  0  0
    0.2335    8.8953   13.7324 C   0  0  0  0  0  0  0  0  0  0  0  0
   -0.3222    9.3895   15.0215 C   0  0  0  0  0  0  0  0  0  0  0  0
    0.3871   10.2436   15.7503 F   0  0  0  0  0  0  0  0  0  0  0  0
   -1.5611    9.0082   15.4386 C   0  0  0  0  0  0  0  0  0  0  0  0
   -2.3684    8.0826   14.5934 C   0  0  0  0  0  0  0  0  0  0  0  0
   -5.1339    2.1783   16.1645 C   0  0  0  0  0  0  0  0  0  0  0  0
   -3.7651    2.0508   16.0149 C   0  0  0  0  0  0  0  0  0  0  0  0
   -3.0665    3.0241   15.3456 C   0  0  0  0  0  0  0  0  0  0  0  0
   -3.7234    4.1212   14.8209 C   0  0  0  0  0  0  0  0  0  0  0  0
   -5.1057    4.2514   14.9785 C   0  0  0  0  0  0  0  0  0  0  0  0
   -5.8117    3.2788   15.6663 C   0  0  0  0  0  0  0  0  0  0  0  0
   -7.4669    1.0366   16.9232 N   0  0  0  0  0  0  0  0  0  0  0  0
   -5.5570    1.1808   18.4854 O   0  0  0  0  0  0  0  0  0  0  0  0
   -5.9272    0.9133   17.1046 S   0  0  0  0  0  0  0  0  0  0  0  0
   -5.4791   -0.4045   16.6917 O   0  0  0  0  0  0  0  0  0  0  0  0
   -7.7705    1.9653   17.2159 H   0  0  0  0  0  0  0  0  0  0  0  0
   -7.9339    0.3310   17.4928 H   0  0  0  0  0  0  0  0  0  0  0  0
 19 14  2  0  0  0
 15 14  1  0  0  0
 14 22  1  0  0  0
 20 22  1  0  0  0
 21 22  2  0  0  0
 22 23  2  0  0  0
 16 15  2  0  0  0
 17 16  1  0  0  0
  1 17  1  0  0  0
 17 18  2  0  0  0
 18 19  1  0  0  0
  2  1  1  0  0  0
  3  2  2  0  0  0
  4  2  1  0  0  0
  4  7  1  0  0  0
  8  7  2  0  0  0
  7 13  1  0  0  0
  8  9  1  0  0  0
  9 10  2  0  0  0
 10 11  1  0  0  0
 10 12  1  0  0  0
 13 12  2  0  0  0
 20 24  1  0  0  0
 20 25  1  0  0  0
  1  5  1  0  0  0
  4  6  1  0  0  0
M  END
> <minimizedAffinity>
-7.36877

$$$$
3N4B_WWZ_A_263


 25 26  0  0  0  0  0  0  0  0999 V2000
   -3.7432    4.7212   13.1740 N   0  0  0  0  0  0  0  0  0  0  0  0
   -2.9027    5.8002   13.5608 C   0  0  0  0  0  0  0  0  0  0  0  0
   -2.9268    6.2833   14.6812 O   0  0  0  0  0  0  0  0  0  0  0  0
   -2.0345    6.3437   12.5899 N   0  0  0  0  0  0  0  0  0  0  0  0
   -3.8428    4.5084   12.2180 H   0  0  0  0  0  0  0  0  0  0  0  0
   -1.6720    7.2491   12.7248 H   0  0  0  0  0  0  0  0  0  0  0  0
   -1.6694    5.6205   11.4242 C   0  0  0  0  0  0  0  0  0  0  0  0
   -0.6741    4.5434   11.6057 C   0  0  0  0  0  0  0  0  0  0  0  0
   -0.3491    3.7508   10.5486 C   0  0  0  0  0  0  0  0  0  0  0  0
   -1.0078    3.9681    9.2319 C   0  0  0  0  0  0  0  0  0  0  0  0
   -0.7136    3.1633    8.2173 F   0  0  0  0  0  0  0  0  0  0  0  0
   -1.9342    4.9527    9.0698 C   0  0  0  0  0  0  0  0  0  0  0  0
   -2.2901    5.8244   10.2258 C   0  0  0  0  0  0  0  0  0  0  0  0
   -5.6190    2.3766   16.0598 C   0  0  0  0  0  0  0  0  0  0  0  0
   -4.3473    2.0705   15.6109 C   0  0  0  0  0  0  0  0  0  0  0  0
   -3.7637    2.8578   14.6502 C   0  0  0  0  0  0  0  0  0  0  0  0
   -4.4405    3.9453   14.1309 C   0  0  0  0  0  0  0  0  0  0  0  0
   -5.7230    4.2567   14.5902 C   0  0  0  0  0  0  0  0  0  0  0  0
   -6.3089    3.4734   15.5703 C   0  0  0  0  0  0  0  0  0  0  0  0
   -5.5135   -0.0206   17.3106 N   0  0  0  0  0  0  0  0  0  0  0  0
   -7.6592    1.1753   17.0369 O   0  0  0  0  0  0  0  0  0  0  0  0
   -6.2492    1.3491   17.3483 S   0  0  0  0  0  0  0  0  0  0  0  0
   -6.0765    1.9738   18.6475 O   0  0  0  0  0  0  0  0  0  0  0  0
   -5.6413   -0.4501   16.3943 H   0  0  0  0  0  0  0  0  0  0  0  0
   -5.8981   -0.6331   18.0298 H   0  0  0  0  0  0  0  0  0  0  0  0
 19 14  2  0  0  0
 15 14  1  0  0  0
 14 22  1  0  0  0
 20 22  1  0  0  0
 21 22  2  0  0  0
 22 23  2  0  0  0
 16 15  2  0  0  0
 17 16  1  0  0  0
  1 17  1  0  0  0
 17 18  2  0  0  0
 18 19  1  0  0  0
  2  1  1  0  0  0
  3  2  2  0  0  0
  4  2  1  0  0  0
  4  7  1  0  0  0
  8  7  2  0  0  0
  7 13  1  0  0  0
  8  9  1  0  0  0
  9 10  2  0  0  0
 10 11  1  0  0  0
 10 12  1  0  0  0
 13 12  2  0  0  0
 20 24  1  0  0  0
 20 25  1  0  0  0
  1  5  1  0  0  0
  4  6  1  0  0  0
M  END
> <minimizedAffinity>
-7.28283

$$$$
3N4B_WWZ_A_263


 25 26  0  0  0  0  0  0  0  0999 V2000
   -3.7652    4.2315   12.7992 N   0  0  0  0  0  0  0  0  0  0  0  0
   -4.2064    4.1559   11.4502 C   0  0  0  0  0  0  0  0  0  0  0  0
   -5.0279    3.3364   11.0723 O   0  0  0  0  0  0  0  0  0  0  0  0
   -3.6390    5.0499   10.5171 N   0  0  0  0  0  0  0  0  0  0  0  0
   -2.9588    4.7544   13.0125 H   0  0  0  0  0  0  0  0  0  0  0  0
   -3.6906    4.8368    9.5574 H   0  0  0  0  0  0  0  0  0  0  0  0
   -2.9958    6.2479   10.9248 C   0  0  0  0  0  0  0  0  0  0  0  0
   -1.5182    6.2361   10.9111 C   0  0  0  0  0  0  0  0  0  0  0  0
   -0.8395    7.3793   11.2007 C   0  0  0  0  0  0  0  0  0  0  0  0
   -1.5905    8.6258   11.5122 C   0  0  0  0  0  0  0  0  0  0  0  0
   -0.9192    9.7460   11.7536 F   0  0  0  0  0  0  0  0  0  0  0  0
   -2.9521    8.6381   11.5118 C   0  0  0  0  0  0  0  0  0  0  0  0
   -3.6981    7.3861   11.1975 C   0  0  0  0  0  0  0  0  0  0  0  0
   -5.6345    2.1972   15.9154 C   0  0  0  0  0  0  0  0  0  0  0  0
   -4.5230    1.6677   15.2857 C   0  0  0  0  0  0  0  0  0  0  0  0
   -3.9391    2.3594   14.2542 C   0  0  0  0  0  0  0  0  0  0  0  0
   -4.4579    3.5729   13.8434 C   0  0  0  0  0  0  0  0  0  0  0  0
   -5.5773    4.1093   14.4851 C   0  0  0  0  0  0  0  0  0  0  0  0
   -6.1600    3.4213   15.5361 C   0  0  0  0  0  0  0  0  0  0  0  0
   -5.5438   -0.1093   17.3274 N   0  0  0  0  0  0  0  0  0  0  0  0
   -7.6787    1.0896   16.9900 O   0  0  0  0  0  0  0  0  0  0  0  0
   -6.2641    1.2681   17.2769 S   0  0  0  0  0  0  0  0  0  0  0  0
   -6.0726    1.9786   18.5285 O   0  0  0  0  0  0  0  0  0  0  0  0
   -5.6848   -0.5993   16.4440 H   0  0  0  0  0  0  0  0  0  0  0  0
   -5.9285   -0.6664   18.0903 H   0  0  0  0  0  0  0  0  0  0  0  0
 19 14  2  0  0  0
 15 14  1  0  0  0
 14 22  1  0  0  0
 20 22  1  0  0  0
 21 22  2  0  0  0
 22 23  2  0  0  0
 16 15  2  0  0  0
 17 16  1  0  0  0
  1 17  1  0  0  0
 17 18  2  0  0  0
 18 19  1  0  0  0
  2  1  1  0  0  0
  3  2  2  0  0  0
  4  2  1  0  0  0
  4  7  1  0  0  0
  8  7  2  0  0  0
  7 13  1  0  0  0
  8  9  1  0  0  0
  9 10  2  0  0  0
 10 11  1  0  0  0
 10 12  1  0  0  0
 13 12  2  0  0  0
 20 24  1  0  0  0
 20 25  1  0  0  0
  1  5  1  0  0  0
  4  6  1  0  0  0
M  END
> <minimizedAffinity>
-7.15812

$$$$
3N4B_WWZ_A_263


 25 26  0  0  0  0  0  0  0  0999 V2000
   -4.2481    4.5188   12.6524 N   0  0  0  0  0  0  0  0  0  0  0  0
   -4.4919    4.0612   11.3290 C   0  0  0  0  0  0  0  0  0  0  0  0
   -4.7812    2.9027   11.0769 O   0  0  0  0  0  0  0  0  0  0  0  0
   -4.3593    4.9882   10.2732 N   0  0  0  0  0  0  0  0  0  0  0  0
   -3.8154    5.3929   12.7865 H   0  0  0  0  0  0  0  0  0  0  0  0
   -4.2271    4.6542    9.3565 H   0  0  0  0  0  0  0  0  0  0  0  0
   -4.4112    6.3891   10.4969 C   0  0  0  0  0  0  0  0  0  0  0  0
   -3.1155    7.0993   10.5104 C   0  0  0  0  0  0  0  0  0  0  0  0
   -3.0992    8.4549   10.6268 C   0  0  0  0  0  0  0  0  0  0  0  0
   -4.3817    9.2037   10.7240 C   0  0  0  0  0  0  0  0  0  0  0  0
   -4.3564   10.5295   10.7964 F   0  0  0  0  0  0  0  0  0  0  0  0
   -5.5752    8.5487   10.6984 C   0  0  0  0  0  0  0  0  0  0  0  0
   -5.5956    7.0632   10.5737 C   0  0  0  0  0  0  0  0  0  0  0  0
   -5.5112    2.2888   15.9349 C   0  0  0  0  0  0  0  0  0  0  0  0
   -6.2962    3.3041   15.4200 C   0  0  0  0  0  0  0  0  0  0  0  0
   -5.8437    4.0270   14.3448 C   0  0  0  0  0  0  0  0  0  0  0  0
   -4.6125    3.7475   13.7821 C   0  0  0  0  0  0  0  0  0  0  0  0
   -3.8234    2.7170   14.2999 C   0  0  0  0  0  0  0  0  0  0  0  0
   -4.2835    1.9757   15.3752 C   0  0  0  0  0  0  0  0  0  0  0  0
   -5.5247   -0.0201   17.3458 N   0  0  0  0  0  0  0  0  0  0  0  0
   -7.6197    1.2208   16.9218 O   0  0  0  0  0  0  0  0  0  0  0  0
   -6.2151    1.3713   17.2675 S   0  0  0  0  0  0  0  0  0  0  0  0
   -6.0620    2.0769   18.5272 O   0  0  0  0  0  0  0  0  0  0  0  0
   -5.6383   -0.5066   16.4565 H   0  0  0  0  0  0  0  0  0  0  0  0
   -5.9517   -0.5701   18.0912 H   0  0  0  0  0  0  0  0  0  0  0  0
 19 14  2  0  0  0
 15 14  1  0  0  0
 14 22  1  0  0  0
 20 22  1  0  0  0
 21 22  2  0  0  0
 22 23  2  0  0  0
 16 15  2  0  0  0
 17 16  1  0  0  0
  1 17  1  0  0  0
 17 18  2  0  0  0
 18 19  1  0  0  0
  2  1  1  0  0  0
  3  2  2  0  0  0
  4  2  1  0  0  0
  4  7  1  0  0  0
  8  7  2  0  0  0
  7 13  1  0  0  0
  8  9  1  0  0  0
  9 10  2  0  0  0
 10 11  1  0  0  0
 10 12  1  0  0  0
 13 12  2  0  0  0
 20 24  1  0  0  0
 20 25  1  0  0  0
  1  5  1  0  0  0
  4  6  1  0  0  0
M  END
> <minimizedAffinity>
-7.14303

$$$$
3N4B_WWZ_A_263


 25 26  0  0  0  0  0  0  0  0999 V2000
   -2.7762    3.6301   12.3700 N   0  0  0  0  0  0  0  0  0  0  0  0
   -3.8661    3.1257   11.6097 C   0  0  0  0  0  0  0  0  0  0  0  0
   -3.8398    3.0524   10.3918 O   0  0  0  0  0  0  0  0  0  0  0  0
   -5.0290    2.7278   12.3033 N   0  0  0  0  0  0  0  0  0  0  0  0
   -2.9187    3.8682   13.3146 H   0  0  0  0  0  0  0  0  0  0  0  0
   -5.8801    2.6619   11.8129 H   0  0  0  0  0  0  0  0  0  0  0  0
   -5.0049    2.4199   13.6889 C   0  0  0  0  0  0  0  0  0  0  0  0
   -5.7933    3.3053   14.5710 C   0  0  0  0  0  0  0  0  0  0  0  0
   -5.8890    3.0125   15.8964 C   0  0  0  0  0  0  0  0  0  0  0  0
   -5.2135    1.8013   16.4363 C   0  0  0  0  0  0  0  0  0  0  0  0
   -5.3466    1.5021   17.7234 F   0  0  0  0  0  0  0  0  0  0  0  0
   -4.4981    0.9795   15.6197 C   0  0  0  0  0  0  0  0  0  0  0  0
   -4.3893    1.2996   14.1676 C   0  0  0  0  0  0  0  0  0  0  0  0
    1.0368    4.2745   10.8243 C   0  0  0  0  0  0  0  0  0  0  0  0
    0.3421    5.2923   11.4518 C   0  0  0  0  0  0  0  0  0  0  0  0
   -0.9175    5.0482   11.9390 C   0  0  0  0  0  0  0  0  0  0  0  0
   -1.4908    3.7981   11.8013 C   0  0  0  0  0  0  0  0  0  0  0  0
   -0.7849    2.7692   11.1725 C   0  0  0  0  0  0  0  0  0  0  0  0
    0.4922    3.0077   10.6931 C   0  0  0  0  0  0  0  0  0  0  0  0
    3.1881    3.5479    9.3527 N   0  0  0  0  0  0  0  0  0  0  0  0
    3.4642    4.6985   11.5226 O   0  0  0  0  0  0  0  0  0  0  0  0
    2.6751    4.6685   10.3013 S   0  0  0  0  0  0  0  0  0  0  0  0
    2.7141    5.9527    9.6250 O   0  0  0  0  0  0  0  0  0  0  0  0
    3.1565    2.6511    9.8376 H   0  0  0  0  0  0  0  0  0  0  0  0
    4.1485    3.7506    9.0751 H   0  0  0  0  0  0  0  0  0  0  0  0
 19 14  2  0  0  0
 15 14  1  0  0  0
 14 22  1  0  0  0
 20 22  1  0  0  0
 21 22  2  0  0  0
 22 23  2  0  0  0
 16 15  2  0  0  0
 17 16  1  0  0  0
  1 17  1  0  0  0
 17 18  2  0  0  0
 18 19  1  0  0  0
  2  1  1  0  0  0
  3  2  2  0  0  0
  4  2  1  0  0  0
  4  7  1  0  0  0
  8  7  2  0  0  0
  7 13  1  0  0  0
  8  9  1  0  0  0
  9 10  2  0  0  0
 10 11  1  0  0  0
 10 12  1  0  0  0
 13 12  2  0  0  0
 20 24  1  0  0  0
 20 25  1  0  0  0
  1  5  1  0  0  0
  4  6  1  0  0  0
M  END
> <minimizedAffinity>
-7.13765

$$$$
3N4B_WWZ_A_263


 25 26  0  0  0  0  0  0  0  0999 V2000
   -3.8090    4.6638   13.1031 N   0  0  0  0  0  0  0  0  0  0  0  0
   -3.3430    4.0727   11.8975 C   0  0  0  0  0  0  0  0  0  0  0  0
   -3.0703    2.8864   11.8096 O   0  0  0  0  0  0  0  0  0  0  0  0
   -3.1637    4.9103   10.7759 N   0  0  0  0  0  0  0  0  0  0  0  0
   -3.8112    5.6446   13.1879 H   0  0  0  0  0  0  0  0  0  0  0  0
   -2.5790    4.6103   10.0428 H   0  0  0  0  0  0  0  0  0  0  0  0
   -3.8034    6.1736   10.6759 C   0  0  0  0  0  0  0  0  0  0  0  0
   -5.2649    6.1530   10.4586 C   0  0  0  0  0  0  0  0  0  0  0  0
   -5.9538    7.3263   10.4464 C   0  0  0  0  0  0  0  0  0  0  0  0
   -5.2322    8.6094   10.6655 C   0  0  0  0  0  0  0  0  0  0  0  0
   -5.9195    9.7454   10.6921 F   0  0  0  0  0  0  0  0  0  0  0  0
   -3.8874    8.6254   10.8784 C   0  0  0  0  0  0  0  0  0  0  0  0
   -3.1298    7.3414   10.8895 C   0  0  0  0  0  0  0  0  0  0  0  0
   -5.3443    2.3380   16.1979 C   0  0  0  0  0  0  0  0  0  0  0  0
   -6.1736    3.1270   15.4220 C   0  0  0  0  0  0  0  0  0  0  0  0
   -5.6324    3.8903   14.4180 C   0  0  0  0  0  0  0  0  0  0  0  0
   -4.2701    3.8756   14.1849 C   0  0  0  0  0  0  0  0  0  0  0  0
   -3.4344    3.0729   14.9658 C   0  0  0  0  0  0  0  0  0  0  0  0
   -3.9789    2.2900   15.9699 C   0  0  0  0  0  0  0  0  0  0  0  0
   -6.1673    2.1038   18.7649 N   0  0  0  0  0  0  0  0  0  0  0  0
   -5.3240    0.1433   17.5181 O   0  0  0  0  0  0  0  0  0  0  0  0
   -6.1457    1.3386   17.4111 S   0  0  0  0  0  0  0  0  0  0  0  0
   -7.4988    1.0050   17.0037 O   0  0  0  0  0  0  0  0  0  0  0  0
   -5.2125    2.3329   19.0412 H   0  0  0  0  0  0  0  0  0  0  0  0
   -6.5968    1.5171   19.4802 H   0  0  0  0  0  0  0  0  0  0  0  0
 19 14  2  0  0  0
 15 14  1  0  0  0
 14 22  1  0  0  0
 20 22  1  0  0  0
 21 22  2  0  0  0
 22 23  2  0  0  0
 16 15  2  0  0  0
 17 16  1  0  0  0
  1 17  1  0  0  0
 17 18  2  0  0  0
 18 19  1  0  0  0
  2  1  1  0  0  0
  3  2  2  0  0  0
  4  2  1  0  0  0
  4  7  1  0  0  0
  8  7  2  0  0  0
  7 13  1  0  0  0
  8  9  1  0  0  0
  9 10  2  0  0  0
 10 11  1  0  0  0
 10 12  1  0  0  0
 13 12  2  0  0  0
 20 24  1  0  0  0
 20 25  1  0  0  0
  1  5  1  0  0  0
  4  6  1  0  0  0
M  END
> <minimizedAffinity>
-7.04324

$$$$
3N4B_WWZ_A_263


 25 26  0  0  0  0  0  0  0  0999 V2000
   -3.9815    5.2367   11.4754 N   0  0  0  0  0  0  0  0  0  0  0  0
   -3.9187    4.9889   10.0772 C   0  0  0  0  0  0  0  0  0  0  0  0
   -3.6704    3.8869    9.6155 O   0  0  0  0  0  0  0  0  0  0  0  0
   -4.1224    6.0774    9.2024 N   0  0  0  0  0  0  0  0  0  0  0  0
   -3.9715    6.1662   11.7997 H   0  0  0  0  0  0  0  0  0  0  0  0
   -3.7999    6.0128    8.2744 H   0  0  0  0  0  0  0  0  0  0  0  0
   -4.7798    7.2629    9.6239 C   0  0  0  0  0  0  0  0  0  0  0  0
   -3.9174    8.4356    9.8787 C   0  0  0  0  0  0  0  0  0  0  0  0
   -4.4904    9.6285   10.1952 C   0  0  0  0  0  0  0  0  0  0  0  0
   -5.9727    9.7406   10.2663 C   0  0  0  0  0  0  0  0  0  0  0  0
   -6.5233   10.9186   10.5361 F   0  0  0  0  0  0  0  0  0  0  0  0
   -6.7662    8.6621   10.0186 C   0  0  0  0  0  0  0  0  0  0  0  0
   -6.1408    7.3532    9.6744 C   0  0  0  0  0  0  0  0  0  0  0  0
   -4.1959    2.2591   14.3791 C   0  0  0  0  0  0  0  0  0  0  0  0
   -3.5984    3.4762   14.6509 C   0  0  0  0  0  0  0  0  0  0  0  0
   -3.5345    4.4307   13.6669 C   0  0  0  0  0  0  0  0  0  0  0  0
   -4.0581    4.1786   12.4128 C   0  0  0  0  0  0  0  0  0  0  0  0
   -4.6670    2.9505   12.1418 C   0  0  0  0  0  0  0  0  0  0  0  0
   -4.7467    1.9907   13.1369 C   0  0  0  0  0  0  0  0  0  0  0  0
   -5.4731    1.5478   16.6560 N   0  0  0  0  0  0  0  0  0  0  0  0
   -3.0275    1.2692   16.4322 O   0  0  0  0  0  0  0  0  0  0  0  0
   -4.2943    1.1302   15.7315 S   0  0  0  0  0  0  0  0  0  0  0  0
   -4.4837   -0.2313   15.2640 O   0  0  0  0  0  0  0  0  0  0  0  0
   -5.3299    2.5049   16.9782 H   0  0  0  0  0  0  0  0  0  0  0  0
   -5.5135    0.9209   17.4597 H   0  0  0  0  0  0  0  0  0  0  0  0
 19 14  2  0  0  0
 15 14  1  0  0  0
 14 22  1  0  0  0
 20 22  1  0  0  0
 21 22  2  0  0  0
 22 23  2  0  0  0
 16 15  2  0  0  0
 17 16  1  0  0  0
  1 17  1  0  0  0
 17 18  2  0  0  0
 18 19  1  0  0  0
  2  1  1  0  0  0
  3  2  2  0  0  0
  4  2  1  0  0  0
  4  7  1  0  0  0
  8  7  2  0  0  0
  7 13  1  0  0  0
  8  9  1  0  0  0
  9 10  2  0  0  0
 10 11  1  0  0  0
 10 12  1  0  0  0
 13 12  2  0  0  0
 20 24  1  0  0  0
 20 25  1  0  0  0
  1  5  1  0  0  0
  4  6  1  0  0  0
M  END
> <minimizedAffinity>
-6.76951

$$$$
3N4B_WWZ_A_263


 25 26  0  0  0  0  0  0  0  0999 V2000
   -3.2544    5.3876   13.8634 N   0  0  0  0  0  0  0  0  0  0  0  0
   -2.3836    4.2770   13.6947 C   0  0  0  0  0  0  0  0  0  0  0  0
   -1.2579    4.3880   13.2365 O   0  0  0  0  0  0  0  0  0  0  0  0
   -2.8662    2.9982   14.0461 N   0  0  0  0  0  0  0  0  0  0  0  0
   -4.2111    5.2270   14.0311 H   0  0  0  0  0  0  0  0  0  0  0  0
   -2.4234    2.2008   13.6755 H   0  0  0  0  0  0  0  0  0  0  0  0
   -3.9727    2.8303   14.9194 C   0  0  0  0  0  0  0  0  0  0  0  0
   -5.2395    3.4666   14.5024 C   0  0  0  0  0  0  0  0  0  0  0  0
   -6.3619    3.2676   15.2454 C   0  0  0  0  0  0  0  0  0  0  0  0
   -6.3035    2.4035   16.4556 C   0  0  0  0  0  0  0  0  0  0  0  0
   -7.4132    2.1827   17.1509 F   0  0  0  0  0  0  0  0  0  0  0  0
   -5.1382    1.8075   16.8312 C   0  0  0  0  0  0  0  0  0  0  0  0
   -3.9063    2.0262   16.0204 C   0  0  0  0  0  0  0  0  0  0  0  0
   -1.7580    9.2739   13.8362 C   0  0  0  0  0  0  0  0  0  0  0  0
   -1.9018    8.5752   15.0208 C   0  0  0  0  0  0  0  0  0  0  0  0
   -2.4095    7.3005   14.9944 C   0  0  0  0  0  0  0  0  0  0  0  0
   -2.7787    6.7192   13.7959 C   0  0  0  0  0  0  0  0  0  0  0  0
   -2.6268    7.4245   12.5992 C   0  0  0  0  0  0  0  0  0  0  0  0
   -2.1008    8.7053   12.6206 C   0  0  0  0  0  0  0  0  0  0  0  0
   -0.2148   11.1702   12.6767 N   0  0  0  0  0  0  0  0  0  0  0  0
   -0.1379   10.7885   15.1174 O   0  0  0  0  0  0  0  0  0  0  0  0
   -1.0269   10.8742   13.9696 S   0  0  0  0  0  0  0  0  0  0  0  0
   -2.0382   11.8966   14.1698 O   0  0  0  0  0  0  0  0  0  0  0  0
    0.4920   10.4465   12.5460 H   0  0  0  0  0  0  0  0  0  0  0  0
    0.2407   12.0789   12.7619 H   0  0  0  0  0  0  0  0  0  0  0  0
 19 14  2  0  0  0
 15 14  1  0  0  0
 14 22  1  0  0  0
 20 22  1  0  0  0
 21 22  2  0  0  0
 22 23  2  0  0  0
 16 15  2  0  0  0
 17 16  1  0  0  0
  1 17  1  0  0  0
 17 18  2  0  0  0
 18 19  1  0  0  0
  2  1  1  0  0  0
  3  2  2  0  0  0
  4  2  1  0  0  0
  4  7  1  0  0  0
  8  7  2  0  0  0
  7 13  1  0  0  0
  8  9  1  0  0  0
  9 10  2  0  0  0
 10 11  1  0  0  0
 10 12  1  0  0  0
 13 12  2  0  0  0
 20 24  1  0  0  0
 20 25  1  0  0  0
  1  5  1  0  0  0
  4  6  1  0  0  0
M  END
> <minimizedAffinity>
-6.53253

$$$$
