1QFT_HSM_A_176


 11 11  0  0  0  0  0  0  0  0999 V2000
   68.0470   43.9441   18.1111 C   0  0  0  0  0  0  0  0  0  0  0  0
   67.4179   42.7658   18.4396 N   0  0  0  0  0  0  0  0  0  0  0  0
   69.2204   43.9530   18.7896 C   0  0  0  0  0  0  0  0  0  0  0  0
   68.1751   42.0919   19.2962 C   0  0  0  0  0  0  0  0  0  0  0  0
   69.2752   42.7939   19.5241 N   0  0  0  0  0  0  0  0  0  0  0  0
   70.0110   42.5284   20.1218 H   0  0  0  0  0  0  0  0  0  0  0  0
   67.3775   44.9779   17.2695 C   0  0  0  0  0  0  0  0  0  0  0  0
   65.0660   44.2580   16.7440 N   0  0  0  0  0  0  0  0  0  0  0  0
   65.8876   45.1149   17.5916 C   0  0  0  0  0  0  0  0  0  0  0  0
   64.0833   44.3785   16.9895 H   0  0  0  0  0  0  0  0  0  0  0  0
   65.3343   43.2839   16.8835 H   0  0  0  0  0  0  0  0  0  0  0  0
  8  9  1  0  0  0
  9  7  1  0  0  0
  7  1  1  0  0  0
  1  2  1  0  0  0
  1  3  2  0  0  0
  2  4  2  0  0  0
  3  5  1  0  0  0
  4  5  1  0  0  0
  8 10  1  0  0  0
  8 11  1  0  0  0
  5  6  1  0  0  0
M  END
> <minimizedAffinity>
-5.13246

$$$$
1QFT_HSM_A_176


 11 11  0  0  0  0  0  0  0  0999 V2000
   68.2495   43.9913   18.6000 C   0  0  0  0  0  0  0  0  0  0  0  0
   67.6098   43.9291   17.3838 N   0  0  0  0  0  0  0  0  0  0  0  0
   67.8599   45.1539   19.1777 C   0  0  0  0  0  0  0  0  0  0  0  0
   66.8711   45.0198   17.2239 C   0  0  0  0  0  0  0  0  0  0  0  0
   67.0076   45.7791   18.3009 N   0  0  0  0  0  0  0  0  0  0  0  0
   66.5700   46.6486   18.4484 H   0  0  0  0  0  0  0  0  0  0  0  0
   69.2582   42.9694   19.0043 C   0  0  0  0  0  0  0  0  0  0  0  0
   68.6808   40.6269   18.4417 N   0  0  0  0  0  0  0  0  0  0  0  0
   68.6097   41.6625   19.4665 C   0  0  0  0  0  0  0  0  0  0  0  0
   68.2392   39.7751   18.7879 H   0  0  0  0  0  0  0  0  0  0  0  0
   69.6575   40.4367   18.2177 H   0  0  0  0  0  0  0  0  0  0  0  0
  8  9  1  0  0  0
  9  7  1  0  0  0
  7  1  1  0  0  0
  1  2  1  0  0  0
  1  3  2  0  0  0
  2  4  2  0  0  0
  3  5  1  0  0  0
  4  5  1  0  0  0
  8 10  1  0  0  0
  8 11  1  0  0  0
  5  6  1  0  0  0
M  END
> <minimizedAffinity>
-4.93375

$$$$
1QFT_HSM_A_176


 11 11  0  0  0  0  0  0  0  0999 V2000
   67.5918   44.2573   17.9096 C   0  0  0  0  0  0  0  0  0  0  0  0
   66.4188   43.5389   17.9034 N   0  0  0  0  0  0  0  0  0  0  0  0
   67.3956   45.3166   17.0871 C   0  0  0  0  0  0  0  0  0  0  0  0
   65.5487   44.1327   17.0964 C   0  0  0  0  0  0  0  0  0  0  0  0
   66.1200   45.2147   16.5886 N   0  0  0  0  0  0  0  0  0  0  0  0
   65.6994   45.8424   15.9575 H   0  0  0  0  0  0  0  0  0  0  0  0
   68.8061   43.7625   18.6210 C   0  0  0  0  0  0  0  0  0  0  0  0
   68.7411   41.2861   18.5991 N   0  0  0  0  0  0  0  0  0  0  0  0
   68.5355   42.4802   19.4113 C   0  0  0  0  0  0  0  0  0  0  0  0
   68.5512   40.4561   19.1607 H   0  0  0  0  0  0  0  0  0  0  0  0
   69.7063   41.2606   18.2703 H   0  0  0  0  0  0  0  0  0  0  0  0
  8  9  1  0  0  0
  9  7  1  0  0  0
  7  1  1  0  0  0
  1  2  1  0  0  0
  1  3  2  0  0  0
  2  4  2  0  0  0
  3  5  1  0  0  0
  4  5  1  0  0  0
  8 10  1  0  0  0
  8 11  1  0  0  0
  5  6  1  0  0  0
M  END
> <minimizedAffinity>
-4.81601

$$$$
1QFT_HSM_A_176


 11 11  0  0  0  0  0  0  0  0999 V2000
   68.1883   44.5139   18.2276 C   0  0  0  0  0  0  0  0  0  0  0  0
   67.4415   45.3839   18.9877 N   0  0  0  0  0  0  0  0  0  0  0  0
   67.7551   44.6533   16.9508 C   0  0  0  0  0  0  0  0  0  0  0  0
   66.5783   46.0168   18.2033 C   0  0  0  0  0  0  0  0  0  0  0  0
   66.7499   45.5889   16.9614 N   0  0  0  0  0  0  0  0  0  0  0  0
   66.2404   45.8917   16.1752 H   0  0  0  0  0  0  0  0  0  0  0  0
   69.1525   43.5622   18.8520 C   0  0  0  0  0  0  0  0  0  0  0  0
   68.8515   41.1098   18.6724 N   0  0  0  0  0  0  0  0  0  0  0  0
   68.4625   42.3116   19.4017 C   0  0  0  0  0  0  0  0  0  0  0  0
   68.3716   40.3015   19.0683 H   0  0  0  0  0  0  0  0  0  0  0  0
   69.8600   40.9773   18.7486 H   0  0  0  0  0  0  0  0  0  0  0  0
  8  9  1  0  0  0
  9  7  1  0  0  0
  7  1  1  0  0  0
  1  2  1  0  0  0
  1  3  2  0  0  0
  2  4  2  0  0  0
  3  5  1  0  0  0
  4  5  1  0  0  0
  8 10  1  0  0  0
  8 11  1  0  0  0
  5  6  1  0  0  0
M  END
> <minimizedAffinity>
-4.72222

$$$$
1QFT_HSM_A_176


 11 11  0  0  0  0  0  0  0  0999 V2000
   67.9215   44.0711   18.5839 C   0  0  0  0  0  0  0  0  0  0  0  0
   69.2251   44.0289   19.0210 N   0  0  0  0  0  0  0  0  0  0  0  0
   67.5163   42.7831   18.4651 C   0  0  0  0  0  0  0  0  0  0  0  0
   69.6008   42.7626   19.1488 C   0  0  0  0  0  0  0  0  0  0  0  0
   68.5793   41.9875   18.8160 N   0  0  0  0  0  0  0  0  0  0  0  0
   68.5817   41.0030   18.8197 H   0  0  0  0  0  0  0  0  0  0  0  0
   67.2624   45.3584   18.2180 C   0  0  0  0  0  0  0  0  0  0  0  0
   65.3677   44.7682   16.7350 N   0  0  0  0  0  0  0  0  0  0  0  0
   66.7072   45.3431   16.7919 C   0  0  0  0  0  0  0  0  0  0  0  0
   65.0349   44.7764   15.7709 H   0  0  0  0  0  0  0  0  0  0  0  0
   64.7365   45.3185   17.3173 H   0  0  0  0  0  0  0  0  0  0  0  0
  8  9  1  0  0  0
  9  7  1  0  0  0
  7  1  1  0  0  0
  1  2  1  0  0  0
  1  3  2  0  0  0
  2  4  2  0  0  0
  3  5  1  0  0  0
  4  5  1  0  0  0
  8 10  1  0  0  0
  8 11  1  0  0  0
  5  6  1  0  0  0
M  END
> <minimizedAffinity>
-4.31342

$$$$
1QFT_HSM_A_176


 11 11  0  0  0  0  0  0  0  0999 V2000
   68.2882   43.5573   18.6511 C   0  0  0  0  0  0  0  0  0  0  0  0
   68.3048   44.9319   18.6014 N   0  0  0  0  0  0  0  0  0  0  0  0
   67.1366   43.1671   18.0520 C   0  0  0  0  0  0  0  0  0  0  0  0
   67.1981   45.3596   18.0069 C   0  0  0  0  0  0  0  0  0  0  0  0
   66.4727   44.3052   17.6649 N   0  0  0  0  0  0  0  0  0  0  0  0
   65.6009   44.3330   17.2083 H   0  0  0  0  0  0  0  0  0  0  0  0
   69.3374   42.7902   19.3832 C   0  0  0  0  0  0  0  0  0  0  0  0
   69.2502   40.6983   18.0588 N   0  0  0  0  0  0  0  0  0  0  0  0
   69.0647   41.2842   19.3817 C   0  0  0  0  0  0  0  0  0  0  0  0
   69.0595   39.6972   18.1006 H   0  0  0  0  0  0  0  0  0  0  0  0
   70.2112   40.8489   17.7520 H   0  0  0  0  0  0  0  0  0  0  0  0
  8  9  1  0  0  0
  9  7  1  0  0  0
  7  1  1  0  0  0
  1  2  1  0  0  0
  1  3  2  0  0  0
  2  4  2  0  0  0
  3  5  1  0  0  0
  4  5  1  0  0  0
  8 10  1  0  0  0
  8 11  1  0  0  0
  5  6  1  0  0  0
M  END
> <minimizedAffinity>
-2.90881

$$$$
1QFT_HSM_A_176


 11 11  0  0  0  0  0  0  0  0999 V2000
   68.1104   43.2403   18.3860 C   0  0  0  0  0  0  0  0  0  0  0  0
   69.3987   42.9314   18.7561 N   0  0  0  0  0  0  0  0  0  0  0  0
   67.3656   42.1360   18.6368 C   0  0  0  0  0  0  0  0  0  0  0  0
   69.4363   41.6819   19.2015 C   0  0  0  0  0  0  0  0  0  0  0  0
   68.2127   41.1782   19.1379 N   0  0  0  0  0  0  0  0  0  0  0  0
   67.9532   40.2671   19.4058 H   0  0  0  0  0  0  0  0  0  0  0  0
   67.7787   44.5328   17.7193 C   0  0  0  0  0  0  0  0  0  0  0  0
   68.0297   45.4391   20.0112 N   0  0  0  0  0  0  0  0  0  0  0  0
   67.3735   45.6170   18.7206 C   0  0  0  0  0  0  0  0  0  0  0  0
   67.7340   46.1792   20.6478 H   0  0  0  0  0  0  0  0  0  0  0  0
   69.0412   45.4814   19.8870 H   0  0  0  0  0  0  0  0  0  0  0  0
  8  9  1  0  0  0
  9  7  1  0  0  0
  7  1  1  0  0  0
  1  2  1  0  0  0
  1  3  2  0  0  0
  2  4  2  0  0  0
  3  5  1  0  0  0
  4  5  1  0  0  0
  8 10  1  0  0  0
  8 11  1  0  0  0
  5  6  1  0  0  0
M  END
> <minimizedAffinity>
-2.58928

$$$$
