4KEQ_5PN_A_303


 13 14  0  0  0  0  0  0  0  0999 V2000
   -2.1422    4.1498  -10.9383 C   0  0  0  0  0  0  0  0  0  0  0  0
   -0.8115    4.2986  -11.3197 C   0  0  0  0  0  0  0  0  0  0  0  0
    0.0096    3.2473  -11.3890 N   0  0  0  0  0  0  0  0  0  0  0  0
    1.3404    3.4305  -11.7823 C   0  0  0  0  0  0  0  0  0  0  0  0
    1.7791    4.6547  -12.0807 C   0  0  0  0  0  0  0  0  0  0  0  0
    2.9673    5.0966  -12.4625 C   0  0  0  0  0  0  0  0  0  0  0  0
    3.9297    4.3408  -12.5576 O   0  0  0  0  0  0  0  0  0  0  0  0
    3.0143    6.4364  -12.6734 O   0  0  0  0  0  0  0  0  0  0  0  0
    1.6785    6.8696  -12.3816 C   0  0  0  0  0  0  0  0  0  0  0  0
    0.9692    5.7170  -12.0178 C   0  0  0  0  0  0  0  0  0  0  0  0
   -0.2944    5.5428  -11.6427 C   0  0  0  0  0  0  0  0  0  0  0  0
   -1.1129    6.6242  -11.5799 O   0  0  0  0  0  0  0  0  0  0  0  0
   -2.0065    6.5208  -11.3177 H   0  0  0  0  0  0  0  0  0  0  0  0
  1  2  1  0  0  0
  2 11  2  0  0  0
  2  3  1  0  0  0
 12 11  1  0  0  0
 11 10  1  0  0  0
  3  4  2  0  0  0
 10  5  2  0  0  0
 10  9  1  0  0  0
  4  5  1  0  0  0
  5  6  1  0  0  0
  9  8  1  0  0  0
  6  8  1  0  0  0
  6  7  2  0  0  0
 12 13  1  0  0  0
M  END
> <minimizedAffinity>
-7.97139

$$$$
4KEQ_5PN_A_303


 13 14  0  0  0  0  0  0  0  0999 V2000
   -2.3717    4.7335  -11.0929 C   0  0  0  0  0  0  0  0  0  0  0  0
   -1.0447    4.9819  -11.4331 C   0  0  0  0  0  0  0  0  0  0  0  0
   -0.5890    6.2295  -11.5743 N   0  0  0  0  0  0  0  0  0  0  0  0
    0.7526    6.4448  -11.9106 C   0  0  0  0  0  0  0  0  0  0  0  0
    1.5644    5.4016  -12.0918 C   0  0  0  0  0  0  0  0  0  0  0  0
    2.8456    5.3277  -12.4173 C   0  0  0  0  0  0  0  0  0  0  0  0
    3.5025    6.3359  -12.6588 O   0  0  0  0  0  0  0  0  0  0  0  0
    3.3182    4.0586  -12.5064 O   0  0  0  0  0  0  0  0  0  0  0  0
    2.1745    3.2514  -12.1945 C   0  0  0  0  0  0  0  0  0  0  0  0
    1.1238    4.1466  -11.9526 C   0  0  0  0  0  0  0  0  0  0  0  0
   -0.1509    3.9425  -11.6345 C   0  0  0  0  0  0  0  0  0  0  0  0
   -0.5937    2.6668  -11.4945 O   0  0  0  0  0  0  0  0  0  0  0  0
   -1.4888    2.5035  -11.2707 H   0  0  0  0  0  0  0  0  0  0  0  0
  1  2  1  0  0  0
  2 11  2  0  0  0
  2  3  1  0  0  0
 12 11  1  0  0  0
 11 10  1  0  0  0
  3  4  2  0  0  0
 10  5  2  0  0  0
 10  9  1  0  0  0
  4  5  1  0  0  0
  5  6  1  0  0  0
  9  8  1  0  0  0
  6  8  1  0  0  0
  6  7  2  0  0  0
 12 13  1  0  0  0
M  END
> <minimizedAffinity>
-7.93100

$$$$
4KEQ_5PN_A_303


 13 14  0  0  0  0  0  0  0  0999 V2000
    3.4892    6.2113  -12.4700 C   0  0  0  0  0  0  0  0  0  0  0  0
    2.4271    5.3821  -12.1199 C   0  0  0  0  0  0  0  0  0  0  0  0
    2.6095    4.0752  -11.9122 N   0  0  0  0  0  0  0  0  0  0  0  0
    1.5214    3.2704  -11.5550 C   0  0  0  0  0  0  0  0  0  0  0  0
    0.3098    3.8147  -11.4289 C   0  0  0  0  0  0  0  0  0  0  0  0
   -0.8648    3.2889  -11.1176 C   0  0  0  0  0  0  0  0  0  0  0  0
   -0.9944    2.0836  -10.9256 O   0  0  0  0  0  0  0  0  0  0  0  0
   -1.8808    4.1883  -11.0919 O   0  0  0  0  0  0  0  0  0  0  0  0
   -1.2422    5.4264  -11.4327 C   0  0  0  0  0  0  0  0  0  0  0  0
    0.1110    5.1215  -11.6319 C   0  0  0  0  0  0  0  0  0  0  0  0
    1.1446    5.8853  -11.9726 C   0  0  0  0  0  0  0  0  0  0  0  0
    0.9380    7.2113  -12.1779 O   0  0  0  0  0  0  0  0  0  0  0  0
    1.6544    7.7653  -12.4186 H   0  0  0  0  0  0  0  0  0  0  0  0
  1  2  1  0  0  0
  2 11  2  0  0  0
  2  3  1  0  0  0
 12 11  1  0  0  0
 11 10  1  0  0  0
  3  4  2  0  0  0
 10  5  2  0  0  0
 10  9  1  0  0  0
  4  5  1  0  0  0
  5  6  1  0  0  0
  9  8  1  0  0  0
  6  8  1  0  0  0
  6  7  2  0  0  0
 12 13  1  0  0  0
M  END
> <minimizedAffinity>
-7.35567

$$$$
4KEQ_5PN_A_303


 13 14  0  0  0  0  0  0  0  0999 V2000
    3.9125    5.8068  -12.4648 C   0  0  0  0  0  0  0  0  0  0  0  0
    2.5674    5.5970  -12.1731 C   0  0  0  0  0  0  0  0  0  0  0  0
    1.7114    6.6186  -12.0853 N   0  0  0  0  0  0  0  0  0  0  0  0
    0.3639    6.3725  -11.7969 C   0  0  0  0  0  0  0  0  0  0  0  0
   -0.0536    5.1195  -11.6077 C   0  0  0  0  0  0  0  0  0  0  0  0
   -1.2460    4.6217  -11.3192 C   0  0  0  0  0  0  0  0  0  0  0  0
   -2.2142    5.3518  -11.1297 O   0  0  0  0  0  0  0  0  0  0  0  0
   -1.2646    3.2695  -11.2045 O   0  0  0  0  0  0  0  0  0  0  0  0
    0.0961    2.8922  -11.4559 C   0  0  0  0  0  0  0  0  0  0  0  0
    0.7906    4.0859  -11.6938 C   0  0  0  0  0  0  0  0  0  0  0  0
    2.0707    4.3202  -11.9664 C   0  0  0  0  0  0  0  0  0  0  0  0
    2.9241    3.2678  -12.0524 O   0  0  0  0  0  0  0  0  0  0  0  0
    3.8297    3.4134  -12.2437 H   0  0  0  0  0  0  0  0  0  0  0  0
  1  2  1  0  0  0
  2 11  2  0  0  0
  2  3  1  0  0  0
 12 11  1  0  0  0
 11 10  1  0  0  0
  3  4  2  0  0  0
 10  5  2  0  0  0
 10  9  1  0  0  0
  4  5  1  0  0  0
  5  6  1  0  0  0
  9  8  1  0  0  0
  6  8  1  0  0  0
  6  7  2  0  0  0
 12 13  1  0  0  0
M  END
> <minimizedAffinity>
-7.10277

$$$$
4KEQ_5PN_A_303


 13 14  0  0  0  0  0  0  0  0999 V2000
    2.9230    3.7583  -12.4081 C   0  0  0  0  0  0  0  0  0  0  0  0
    1.5942    3.9148  -12.0230 C   0  0  0  0  0  0  0  0  0  0  0  0
    0.8719    2.8766  -11.5934 N   0  0  0  0  0  0  0  0  0  0  0  0
   -0.4597    3.0693  -11.2075 C   0  0  0  0  0  0  0  0  0  0  0  0
   -0.9981    4.2882  -11.2760 C   0  0  0  0  0  0  0  0  0  0  0  0
   -2.2111    4.7336  -10.9876 C   0  0  0  0  0  0  0  0  0  0  0  0
   -3.0996    3.9725  -10.6166 O   0  0  0  0  0  0  0  0  0  0  0  0
   -2.3719    6.0652  -11.1947 O   0  0  0  0  0  0  0  0  0  0  0  0
   -1.0877    6.4883  -11.6730 C   0  0  0  0  0  0  0  0  0  0  0  0
   -0.2878    5.3380  -11.7024 C   0  0  0  0  0  0  0  0  0  0  0  0
    0.9766    5.1542  -12.0702 C   0  0  0  0  0  0  0  0  0  0  0  0
    1.6937    6.2228  -12.5027 O   0  0  0  0  0  0  0  0  0  0  0  0
    2.5861    6.1126  -12.7661 H   0  0  0  0  0  0  0  0  0  0  0  0
  1  2  1  0  0  0
  2 11  2  0  0  0
  2  3  1  0  0  0
 12 11  1  0  0  0
 11 10  1  0  0  0
  3  4  2  0  0  0
 10  5  2  0  0  0
 10  9  1  0  0  0
  4  5  1  0  0  0
  5  6  1  0  0  0
  9  8  1  0  0  0
  6  8  1  0  0  0
  6  7  2  0  0  0
 12 13  1  0  0  0
M  END
> <minimizedAffinity>
-6.00486

$$$$
4KEQ_5PN_A_303


 13 14  0  0  0  0  0  0  0  0999 V2000
   -1.6147    1.5830  -10.4622 C   0  0  0  0  0  0  0  0  0  0  0  0
   -0.7907    2.6276  -10.8724 C   0  0  0  0  0  0  0  0  0  0  0  0
    0.5090    2.4309  -11.1094 N   0  0  0  0  0  0  0  0  0  0  0  0
    1.3084    3.5013  -11.5271 C   0  0  0  0  0  0  0  0  0  0  0  0
    0.7663    4.7107  -11.6809 C   0  0  0  0  0  0  0  0  0  0  0  0
    1.2884    5.8707  -12.0481 C   0  0  0  0  0  0  0  0  0  0  0  0
    2.4885    5.9869  -12.2778 O   0  0  0  0  0  0  0  0  0  0  0  0
    0.3931    6.8900  -12.0850 O   0  0  0  0  0  0  0  0  0  0  0  0
   -0.8379    6.2705  -11.6878 C   0  0  0  0  0  0  0  0  0  0  0  0
   -0.5335    4.9235  -11.4493 C   0  0  0  0  0  0  0  0  0  0  0  0
   -1.2922    3.9068  -11.0512 C   0  0  0  0  0  0  0  0  0  0  0  0
   -2.6111    4.1276  -10.8168 O   0  0  0  0  0  0  0  0  0  0  0  0
   -3.1614    3.4232  -10.5357 H   0  0  0  0  0  0  0  0  0  0  0  0
  1  2  1  0  0  0
  2 11  2  0  0  0
  2  3  1  0  0  0
 12 11  1  0  0  0
 11 10  1  0  0  0
  3  4  2  0  0  0
 10  5  2  0  0  0
 10  9  1  0  0  0
  4  5  1  0  0  0
  5  6  1  0  0  0
  9  8  1  0  0  0
  6  8  1  0  0  0
  6  7  2  0  0  0
 12 13  1  0  0  0
M  END
> <minimizedAffinity>
-5.87909

$$$$
4KEQ_5PN_A_303


 13 14  0  0  0  0  0  0  0  0999 V2000
    2.6884    3.7824  -12.3658 C   0  0  0  0  0  0  0  0  0  0  0  0
    1.5031    4.4438  -12.0557 C   0  0  0  0  0  0  0  0  0  0  0  0
    1.4155    5.7748  -12.1250 N   0  0  0  0  0  0  0  0  0  0  0  0
    0.2069    6.4083  -11.8128 C   0  0  0  0  0  0  0  0  0  0  0  0
   -0.8467    5.6774  -11.4444 C   0  0  0  0  0  0  0  0  0  0  0  0
   -2.0771    6.0185  -11.0941 C   0  0  0  0  0  0  0  0  0  0  0  0
   -2.4174    7.1954  -11.0207 O   0  0  0  0  0  0  0  0  0  0  0  0
   -2.8726    4.9641  -10.7820 O   0  0  0  0  0  0  0  0  0  0  0  0
   -2.0144    3.8297  -10.9657 C   0  0  0  0  0  0  0  0  0  0  0  0
   -0.7756    4.3440  -11.3717 C   0  0  0  0  0  0  0  0  0  0  0  0
    0.3730    3.7427  -11.6669 C   0  0  0  0  0  0  0  0  0  0  0  0
    0.4406    2.3889  -11.5915 O   0  0  0  0  0  0  0  0  0  0  0  0
    1.2416    1.9477  -11.7958 H   0  0  0  0  0  0  0  0  0  0  0  0
  1  2  1  0  0  0
  2 11  2  0  0  0
  2  3  1  0  0  0
 12 11  1  0  0  0
 11 10  1  0  0  0
  3  4  2  0  0  0
 10  5  2  0  0  0
 10  9  1  0  0  0
  4  5  1  0  0  0
  5  6  1  0  0  0
  9  8  1  0  0  0
  6  8  1  0  0  0
  6  7  2  0  0  0
 12 13  1  0  0  0
M  END
> <minimizedAffinity>
-5.29041

$$$$
