5FSC_G8Z_A_302


 19 19  0  0  0  0  0  0  0  0999 V2000
    1.7539   30.6091   22.8858 C   0  0  0  0  0  0  0  0  0  0  0  0
    2.1167   29.1902   22.2971 C   0  0  0  0  0  0  0  0  0  0  0  0
    1.4102   27.9861   22.9150 C   0  0  0  0  0  0  0  0  0  0  0  0
    1.6492   26.8089   22.1863 O   0  0  0  0  0  0  0  0  0  0  0  0
   -0.1151   28.3020   23.0006 C   0  0  0  0  0  0  0  0  0  0  0  0
   -0.7161   28.2598   21.7384 O   0  0  0  0  0  0  0  0  0  0  0  0
    0.3379   30.7378   23.0770 O   0  0  0  0  0  0  0  0  0  0  0  0
   -0.2839   29.6627   23.7471 C   0  0  0  0  0  0  0  0  0  0  0  0
    1.3125   26.9140   21.2827 H   0  0  0  0  0  0  0  0  0  0  0  0
   -0.3003   28.9182   21.1601 H   0  0  0  0  0  0  0  0  0  0  0  0
    3.3314   31.5165   21.2289 O   0  0  0  0  0  0  0  0  0  0  0  0
    2.2469   31.8124   22.0398 C   0  0  0  0  0  0  0  0  0  0  0  0
    3.5875   32.3080   20.7299 H   0  0  0  0  0  0  0  0  0  0  0  0
    3.4995   28.9470   22.4150 O   0  0  0  0  0  0  0  0  0  0  0  0
    3.9010   28.8693   23.7435 C   0  0  0  0  0  0  0  0  0  0  0  0
    0.2314   29.4312   24.9788 O   0  0  0  0  0  0  0  0  0  0  0  0
   -0.1640   30.1974   26.0826 C   0  0  0  0  0  0  0  0  0  0  0  0
    0.4052   29.5663   27.3706 C   0  0  0  0  0  0  0  0  0  0  0  0
    0.1546   28.3071   27.8665 C   0  0  0  0  0  0  0  0  0  0  0  0
 11 12  1  0  0  0
 12  1  1  0  0  0
  1  2  1  0  0  0
  1  7  1  0  0  0
  2 14  1  0  0  0
  2  3  1  0  0  0
 14 15  1  0  0  0
  3  4  1  0  0  0
  3  5  1  0  0  0
  5  6  1  0  0  0
  5  8  1  0  0  0
  7  8  1  0  0  0
  8 16  1  0  0  0
 16 17  1  0  0  0
 17 18  1  0  0  0
 18 19  2  0  0  0
 11 13  1  0  0  0
  4  9  1  0  0  0
  6 10  1  0  0  0
M  END
> <minimizedAffinity>
-4.80583

$$$$
5FSC_G8Z_A_302


 19 19  0  0  0  0  0  0  0  0999 V2000
    0.5866   29.4591   26.2076 C   0  0  0  0  0  0  0  0  0  0  0  0
    0.2394   30.9988   26.1962 C   0  0  0  0  0  0  0  0  0  0  0  0
    0.3540   31.7216   24.8563 C   0  0  0  0  0  0  0  0  0  0  0  0
   -0.1705   33.0235   24.9180 O   0  0  0  0  0  0  0  0  0  0  0  0
   -0.3732   30.8664   23.7731 C   0  0  0  0  0  0  0  0  0  0  0  0
   -1.7626   30.9340   23.9180 O   0  0  0  0  0  0  0  0  0  0  0  0
    0.0015   28.7934   25.0795 O   0  0  0  0  0  0  0  0  0  0  0  0
    0.2089   29.4189   23.8316 C   0  0  0  0  0  0  0  0  0  0  0  0
   -1.1117   32.9823   25.1489 H   0  0  0  0  0  0  0  0  0  0  0  0
   -2.0133   30.5963   24.7921 H   0  0  0  0  0  0  0  0  0  0  0  0
    1.2079   28.4956   28.3856 O   0  0  0  0  0  0  0  0  0  0  0  0
    0.1655   28.7045   27.4961 C   0  0  0  0  0  0  0  0  0  0  0  0
    0.8779   28.0216   29.1649 H   0  0  0  0  0  0  0  0  0  0  0  0
    1.0655   31.6967   27.0994 O   0  0  0  0  0  0  0  0  0  0  0  0
    0.3255   32.3824   28.0556 C   0  0  0  0  0  0  0  0  0  0  0  0
    1.5192   29.5759   23.5239 O   0  0  0  0  0  0  0  0  0  0  0  0
    2.3254   28.4731   23.2148 C   0  0  0  0  0  0  0  0  0  0  0  0
    3.7774   28.7669   23.6469 C   0  0  0  0  0  0  0  0  0  0  0  0
    4.4289   29.9790   23.6208 C   0  0  0  0  0  0  0  0  0  0  0  0
 11 12  1  0  0  0
 12  1  1  0  0  0
  1  2  1  0  0  0
  1  7  1  0  0  0
  2 14  1  0  0  0
  2  3  1  0  0  0
 14 15  1  0  0  0
  3  4  1  0  0  0
  3  5  1  0  0  0
  5  6  1  0  0  0
  5  8  1  0  0  0
  7  8  1  0  0  0
  8 16  1  0  0  0
 16 17  1  0  0  0
 17 18  1  0  0  0
 18 19  2  0  0  0
 11 13  1  0  0  0
  4  9  1  0  0  0
  6 10  1  0  0  0
M  END
> <minimizedAffinity>
-4.70760

$$$$
5FSC_G8Z_A_302


 19 19  0  0  0  0  0  0  0  0999 V2000
    0.6126   29.9824   21.5804 C   0  0  0  0  0  0  0  0  0  0  0  0
    2.0654   29.5656   21.1248 C   0  0  0  0  0  0  0  0  0  0  0  0
    2.8699   28.7008   22.0922 C   0  0  0  0  0  0  0  0  0  0  0  0
    4.0536   28.2227   21.5056 O   0  0  0  0  0  0  0  0  0  0  0  0
    1.9610   27.5287   22.5756 C   0  0  0  0  0  0  0  0  0  0  0  0
    1.7746   26.5785   21.5664 O   0  0  0  0  0  0  0  0  0  0  0  0
   -0.0824   28.8685   22.1587 O   0  0  0  0  0  0  0  0  0  0  0  0
    0.6378   28.1430   23.1316 C   0  0  0  0  0  0  0  0  0  0  0  0
    3.8344   27.6747   20.7358 H   0  0  0  0  0  0  0  0  0  0  0  0
    1.3503   26.9980   20.8017 H   0  0  0  0  0  0  0  0  0  0  0  0
    0.3673   31.5543   19.7025 O   0  0  0  0  0  0  0  0  0  0  0  0
   -0.2743   30.5873   20.4605 C   0  0  0  0  0  0  0  0  0  0  0  0
   -0.2400   31.8891   19.0243 H   0  0  0  0  0  0  0  0  0  0  0  0
    2.8469   30.7088   20.8649 O   0  0  0  0  0  0  0  0  0  0  0  0
    3.0210   31.4877   22.0029 C   0  0  0  0  0  0  0  0  0  0  0  0
    1.0401   28.9054   24.1772 O   0  0  0  0  0  0  0  0  0  0  0  0
    0.1340   29.3125   25.1646 C   0  0  0  0  0  0  0  0  0  0  0  0
    0.7963   29.1742   26.5515 C   0  0  0  0  0  0  0  0  0  0  0  0
    0.2604   28.5978   27.6806 C   0  0  0  0  0  0  0  0  0  0  0  0
 11 12  1  0  0  0
 12  1  1  0  0  0
  1  2  1  0  0  0
  1  7  1  0  0  0
  2 14  1  0  0  0
  2  3  1  0  0  0
 14 15  1  0  0  0
  3  4  1  0  0  0
  3  5  1  0  0  0
  5  6  1  0  0  0
  5  8  1  0  0  0
  7  8  1  0  0  0
  8 16  1  0  0  0
 16 17  1  0  0  0
 17 18  1  0  0  0
 18 19  2  0  0  0
 11 13  1  0  0  0
  4  9  1  0  0  0
  6 10  1  0  0  0
M  END
> <minimizedAffinity>
-4.47165

$$$$
5FSC_G8Z_A_302


 19 19  0  0  0  0  0  0  0  0999 V2000
    0.9679   29.0855   21.9615 C   0  0  0  0  0  0  0  0  0  0  0  0
    2.3569   29.8056   21.7521 C   0  0  0  0  0  0  0  0  0  0  0  0
    2.9959   30.4427   22.9836 C   0  0  0  0  0  0  0  0  0  0  0  0
    4.3098   30.8701   22.7288 O   0  0  0  0  0  0  0  0  0  0  0  0
    2.9504   29.4090   24.1510 C   0  0  0  0  0  0  0  0  0  0  0  0
    3.8762   28.3789   23.9563 O   0  0  0  0  0  0  0  0  0  0  0  0
    0.9801   28.2848   23.1519 O   0  0  0  0  0  0  0  0  0  0  0  0
    1.4746   28.9248   24.3084 C   0  0  0  0  0  0  0  0  0  0  0  0
    4.8547   30.1080   22.4774 H   0  0  0  0  0  0  0  0  0  0  0  0
    3.6736   27.9141   23.1294 H   0  0  0  0  0  0  0  0  0  0  0  0
    1.0763   26.9324   20.7743 O   0  0  0  0  0  0  0  0  0  0  0  0
    0.5080   28.1966   20.7761 C   0  0  0  0  0  0  0  0  0  0  0  0
    0.7481   26.4315   20.0111 H   0  0  0  0  0  0  0  0  0  0  0  0
    2.2420   30.8260   20.7873 O   0  0  0  0  0  0  0  0  0  0  0  0
    1.3179   31.7938   21.1636 C   0  0  0  0  0  0  0  0  0  0  0  0
    0.7897   30.0487   24.6311 O   0  0  0  0  0  0  0  0  0  0  0  0
    0.2378   30.2164   25.9075 C   0  0  0  0  0  0  0  0  0  0  0  0
    0.1255   28.8412   26.5983 C   0  0  0  0  0  0  0  0  0  0  0  0
    0.3760   28.5455   27.9190 C   0  0  0  0  0  0  0  0  0  0  0  0
 11 12  1  0  0  0
 12  1  1  0  0  0
  1  2  1  0  0  0
  1  7  1  0  0  0
  2 14  1  0  0  0
  2  3  1  0  0  0
 14 15  1  0  0  0
  3  4  1  0  0  0
  3  5  1  0  0  0
  5  6  1  0  0  0
  5  8  1  0  0  0
  7  8  1  0  0  0
  8 16  1  0  0  0
 16 17  1  0  0  0
 17 18  1  0  0  0
 18 19  2  0  0  0
 11 13  1  0  0  0
  4  9  1  0  0  0
  6 10  1  0  0  0
M  END
> <minimizedAffinity>
-4.44568

$$$$
5FSC_G8Z_A_302


 19 19  0  0  0  0  0  0  0  0999 V2000
    1.5387   28.4738   22.9421 C   0  0  0  0  0  0  0  0  0  0  0  0
    1.1914   29.5433   21.8343 C   0  0  0  0  0  0  0  0  0  0  0  0
    0.7250   30.9133   22.3206 C   0  0  0  0  0  0  0  0  0  0  0  0
    0.6425   31.8412   21.2689 O   0  0  0  0  0  0  0  0  0  0  0  0
    1.7051   31.3997   23.4325 C   0  0  0  0  0  0  0  0  0  0  0  0
    2.9358   31.7878   22.8933 O   0  0  0  0  0  0  0  0  0  0  0  0
    2.3076   29.0632   24.0002 O   0  0  0  0  0  0  0  0  0  0  0  0
    1.8028   30.2771   24.5132 C   0  0  0  0  0  0  0  0  0  0  0  0
    1.5187   31.9552   20.8689 H   0  0  0  0  0  0  0  0  0  0  0  0
    3.3415   31.0336   22.4378 H   0  0  0  0  0  0  0  0  0  0  0  0
    1.6193   26.5365   21.4262 O   0  0  0  0  0  0  0  0  0  0  0  0
    2.2934   27.2205   22.4257 C   0  0  0  0  0  0  0  0  0  0  0  0
    2.1432   25.7683   21.1502 H   0  0  0  0  0  0  0  0  0  0  0  0
    0.1823   29.0570   20.9796 O   0  0  0  0  0  0  0  0  0  0  0  0
   -1.0092   28.8323   21.6591 C   0  0  0  0  0  0  0  0  0  0  0  0
    0.5406   30.1699   24.9946 O   0  0  0  0  0  0  0  0  0  0  0  0
    0.1160   29.0100   25.6550 C   0  0  0  0  0  0  0  0  0  0  0  0
    0.2833   29.2006   27.1771 C   0  0  0  0  0  0  0  0  0  0  0  0
    0.4438   28.2206   28.1302 C   0  0  0  0  0  0  0  0  0  0  0  0
 11 12  1  0  0  0
 12  1  1  0  0  0
  1  2  1  0  0  0
  1  7  1  0  0  0
  2 14  1  0  0  0
  2  3  1  0  0  0
 14 15  1  0  0  0
  3  4  1  0  0  0
  3  5  1  0  0  0
  5  6  1  0  0  0
  5  8  1  0  0  0
  7  8  1  0  0  0
  8 16  1  0  0  0
 16 17  1  0  0  0
 17 18  1  0  0  0
 18 19  2  0  0  0
 11 13  1  0  0  0
  4  9  1  0  0  0
  6 10  1  0  0  0
M  END
> <minimizedAffinity>
-4.43708

$$$$
5FSC_G8Z_A_302


 19 19  0  0  0  0  0  0  0  0999 V2000
    1.6747   31.6143   25.5365 C   0  0  0  0  0  0  0  0  0  0  0  0
    0.8362   31.8384   26.8549 C   0  0  0  0  0  0  0  0  0  0  0  0
   -0.2969   30.8523   27.1274 C   0  0  0  0  0  0  0  0  0  0  0  0
   -0.8371   31.0189   28.4136 O   0  0  0  0  0  0  0  0  0  0  0  0
    0.2509   29.4059   26.9238 C   0  0  0  0  0  0  0  0  0  0  0  0
    1.0987   29.0297   27.9705 O   0  0  0  0  0  0  0  0  0  0  0  0
    1.9901   30.2260   25.3595 O   0  0  0  0  0  0  0  0  0  0  0  0
    0.9067   29.3341   25.5088 C   0  0  0  0  0  0  0  0  0  0  0  0
   -0.1469   30.8624   29.0770 H   0  0  0  0  0  0  0  0  0  0  0  0
    1.8527   29.6386   28.0107 H   0  0  0  0  0  0  0  0  0  0  0  0
    3.1323   33.3653   26.4676 O   0  0  0  0  0  0  0  0  0  0  0  0
    2.9907   32.4317   25.4529 C   0  0  0  0  0  0  0  0  0  0  0  0
    3.9716   33.8388   26.3565 H   0  0  0  0  0  0  0  0  0  0  0  0
    0.2583   33.1234   26.8585 O   0  0  0  0  0  0  0  0  0  0  0  0
   -0.5984   33.3098   25.7799 C   0  0  0  0  0  0  0  0  0  0  0  0
   -0.1157   29.5881   24.6564 O   0  0  0  0  0  0  0  0  0  0  0  0
   -0.3879   28.7336   23.5805 C   0  0  0  0  0  0  0  0  0  0  0  0
    0.8460   28.6699   22.6561 C   0  0  0  0  0  0  0  0  0  0  0  0
    1.6730   27.5915   22.4379 C   0  0  0  0  0  0  0  0  0  0  0  0
 11 12  1  0  0  0
 12  1  1  0  0  0
  1  2  1  0  0  0
  1  7  1  0  0  0
  2 14  1  0  0  0
  2  3  1  0  0  0
 14 15  1  0  0  0
  3  4  1  0  0  0
  3  5  1  0  0  0
  5  6  1  0  0  0
  5  8  1  0  0  0
  7  8  1  0  0  0
  8 16  1  0  0  0
 16 17  1  0  0  0
 17 18  1  0  0  0
 18 19  2  0  0  0
 11 13  1  0  0  0
  4  9  1  0  0  0
  6 10  1  0  0  0
M  END
> <minimizedAffinity>
-4.40126

$$$$
5FSC_G8Z_A_302


 19 19  0  0  0  0  0  0  0  0999 V2000
    1.8707   29.9448   23.9662 C   0  0  0  0  0  0  0  0  0  0  0  0
    1.0918   28.9741   22.9952 C   0  0  0  0  0  0  0  0  0  0  0  0
   -0.4158   28.8539   23.2038 C   0  0  0  0  0  0  0  0  0  0  0  0
   -1.0313   28.1328   22.1670 O   0  0  0  0  0  0  0  0  0  0  0  0
   -1.0106   30.2907   23.3281 C   0  0  0  0  0  0  0  0  0  0  0  0
   -1.0318   30.9426   22.0909 O   0  0  0  0  0  0  0  0  0  0  0  0
    1.1573   31.1774   24.1393 O   0  0  0  0  0  0  0  0  0  0  0  0
   -0.2156   31.0467   24.4388 C   0  0  0  0  0  0  0  0  0  0  0  0
   -0.8879   28.5917   21.3245 H   0  0  0  0  0  0  0  0  0  0  0  0
   -0.1272   31.0155   21.7484 H   0  0  0  0  0  0  0  0  0  0  0  0
    4.2255   29.2527   23.7838 O   0  0  0  0  0  0  0  0  0  0  0  0
    3.3233   30.2745   23.5325 C   0  0  0  0  0  0  0  0  0  0  0  0
    5.1098   29.5227   23.4904 H   0  0  0  0  0  0  0  0  0  0  0  0
    1.6134   27.6680   23.0820 O   0  0  0  0  0  0  0  0  0  0  0  0
    2.0941   27.2192   21.8574 C   0  0  0  0  0  0  0  0  0  0  0  0
   -0.4510   30.3273   25.5628 O   0  0  0  0  0  0  0  0  0  0  0  0
   -0.2480   30.8840   26.8319 C   0  0  0  0  0  0  0  0  0  0  0  0
    0.0103   29.7524   27.8488 C   0  0  0  0  0  0  0  0  0  0  0  0
    0.2279   28.4201   27.5803 C   0  0  0  0  0  0  0  0  0  0  0  0
 11 12  1  0  0  0
 12  1  1  0  0  0
  1  2  1  0  0  0
  1  7  1  0  0  0
  2 14  1  0  0  0
  2  3  1  0  0  0
 14 15  1  0  0  0
  3  4  1  0  0  0
  3  5  1  0  0  0
  5  6  1  0  0  0
  5  8  1  0  0  0
  7  8  1  0  0  0
  8 16  1  0  0  0
 16 17  1  0  0  0
 17 18  1  0  0  0
 18 19  2  0  0  0
 11 13  1  0  0  0
  4  9  1  0  0  0
  6 10  1  0  0  0
M  END
> <minimizedAffinity>
-4.37626

$$$$
5FSC_G8Z_A_302


 19 19  0  0  0  0  0  0  0  0999 V2000
    1.5598   29.4586   24.5284 C   0  0  0  0  0  0  0  0  0  0  0  0
    0.4008   28.9702   23.5745 C   0  0  0  0  0  0  0  0  0  0  0  0
    0.7509   28.7924   22.0992 C   0  0  0  0  0  0  0  0  0  0  0  0
   -0.2854   28.1646   21.3879 O   0  0  0  0  0  0  0  0  0  0  0  0
    2.0792   27.9800   22.0040 C   0  0  0  0  0  0  0  0  0  0  0  0
    1.8778   26.6337   22.3248 O   0  0  0  0  0  0  0  0  0  0  0  0
    2.7816   28.7603   24.2494 O   0  0  0  0  0  0  0  0  0  0  0  0
    3.1472   28.6979   22.8878 C   0  0  0  0  0  0  0  0  0  0  0  0
   -0.4446   27.2828   21.7595 H   0  0  0  0  0  0  0  0  0  0  0  0
    1.5422   26.5643   23.2323 H   0  0  0  0  0  0  0  0  0  0  0  0
   -0.0256   28.8779   26.3191 O   0  0  0  0  0  0  0  0  0  0  0  0
    1.2555   29.3301   26.0442 C   0  0  0  0  0  0  0  0  0  0  0  0
   -0.1492   28.8207   27.2795 H   0  0  0  0  0  0  0  0  0  0  0  0
   -0.6867   29.8648   23.6230 O   0  0  0  0  0  0  0  0  0  0  0  0
   -0.3226   31.1458   23.2249 C   0  0  0  0  0  0  0  0  0  0  0  0
    3.2851   29.9184   22.3153 O   0  0  0  0  0  0  0  0  0  0  0  0
    4.4023   30.2245   21.5279 C   0  0  0  0  0  0  0  0  0  0  0  0
    5.3817   31.0898   22.3483 C   0  0  0  0  0  0  0  0  0  0  0  0
    5.4437   31.2129   23.7178 C   0  0  0  0  0  0  0  0  0  0  0  0
 11 12  1  0  0  0
 12  1  1  0  0  0
  1  2  1  0  0  0
  1  7  1  0  0  0
  2 14  1  0  0  0
  2  3  1  0  0  0
 14 15  1  0  0  0
  3  4  1  0  0  0
  3  5  1  0  0  0
  5  6  1  0  0  0
  5  8  1  0  0  0
  7  8  1  0  0  0
  8 16  1  0  0  0
 16 17  1  0  0  0
 17 18  1  0  0  0
 18 19  2  0  0  0
 11 13  1  0  0  0
  4  9  1  0  0  0
  6 10  1  0  0  0
M  END
> <minimizedAffinity>
-4.08768

$$$$
5FSC_G8Z_A_302


 19 19  0  0  0  0  0  0  0  0999 V2000
    0.0730   29.7127   26.7251 C   0  0  0  0  0  0  0  0  0  0  0  0
    1.2812   30.0027   25.7516 C   0  0  0  0  0  0  0  0  0  0  0  0
    1.3534   31.3992   25.1390 C   0  0  0  0  0  0  0  0  0  0  0  0
    2.5654   31.6107   24.4608 O   0  0  0  0  0  0  0  0  0  0  0  0
    1.1484   32.4461   26.2772 C   0  0  0  0  0  0  0  0  0  0  0  0
    2.2756   32.5312   27.1007 O   0  0  0  0  0  0  0  0  0  0  0  0
   -0.1327   30.8090   27.6273 O   0  0  0  0  0  0  0  0  0  0  0  0
   -0.1713   32.0870   27.0300 C   0  0  0  0  0  0  0  0  0  0  0  0
    3.3038   31.5259   25.0841 H   0  0  0  0  0  0  0  0  0  0  0  0
    2.4445   31.6671   27.5079 H   0  0  0  0  0  0  0  0  0  0  0  0
    1.2099   28.4539   28.5083 O   0  0  0  0  0  0  0  0  0  0  0  0
    0.2030   28.4096   27.5569 C   0  0  0  0  0  0  0  0  0  0  0  0
    1.2368   27.6124   28.9901 H   0  0  0  0  0  0  0  0  0  0  0  0
    1.2758   29.0931   24.6755 O   0  0  0  0  0  0  0  0  0  0  0  0
    0.0702   29.1149   23.9841 C   0  0  0  0  0  0  0  0  0  0  0  0
   -1.1349   32.2061   26.0847 O   0  0  0  0  0  0  0  0  0  0  0  0
   -1.6905   33.4535   25.7732 C   0  0  0  0  0  0  0  0  0  0  0  0
   -2.3849   33.3723   24.3975 C   0  0  0  0  0  0  0  0  0  0  0  0
   -2.4823   34.3657   23.4498 C   0  0  0  0  0  0  0  0  0  0  0  0
 11 12  1  0  0  0
 12  1  1  0  0  0
  1  2  1  0  0  0
  1  7  1  0  0  0
  2 14  1  0  0  0
  2  3  1  0  0  0
 14 15  1  0  0  0
  3  4  1  0  0  0
  3  5  1  0  0  0
  5  6  1  0  0  0
  5  8  1  0  0  0
  7  8  1  0  0  0
  8 16  1  0  0  0
 16 17  1  0  0  0
 17 18  1  0  0  0
 18 19  2  0  0  0
 11 13  1  0  0  0
  4  9  1  0  0  0
  6 10  1  0  0  0
M  END
> <minimizedAffinity>
-4.02400

$$$$
5FSC_G8Z_A_302


 19 19  0  0  0  0  0  0  0  0999 V2000
    0.7799   29.9514   25.4090 C   0  0  0  0  0  0  0  0  0  0  0  0
   -0.5711   30.4170   24.7384 C   0  0  0  0  0  0  0  0  0  0  0  0
   -0.6024   30.4670   23.2128 C   0  0  0  0  0  0  0  0  0  0  0  0
   -1.8999   30.6926   22.7236 O   0  0  0  0  0  0  0  0  0  0  0  0
   -0.0126   29.1306   22.6654 C   0  0  0  0  0  0  0  0  0  0  0  0
   -0.9028   28.0675   22.8484 O   0  0  0  0  0  0  0  0  0  0  0  0
    1.3230   28.8109   24.7289 O   0  0  0  0  0  0  0  0  0  0  0  0
    1.3870   28.9166   23.3231 C   0  0  0  0  0  0  0  0  0  0  0  0
   -2.4818   29.9693   23.0048 H   0  0  0  0  0  0  0  0  0  0  0  0
   -1.0832   27.9562   23.7949 H   0  0  0  0  0  0  0  0  0  0  0  0
    0.6178   30.7396   27.7349 O   0  0  0  0  0  0  0  0  0  0  0  0
    0.6777   29.6193   26.9209 C   0  0  0  0  0  0  0  0  0  0  0  0
    0.5554   30.4625   28.6623 H   0  0  0  0  0  0  0  0  0  0  0  0
   -0.9262   31.7041   25.1885 O   0  0  0  0  0  0  0  0  0  0  0  0
    0.0219   32.6571   24.8350 C   0  0  0  0  0  0  0  0  0  0  0  0
    2.1176   29.9765   22.8998 O   0  0  0  0  0  0  0  0  0  0  0  0
    3.4857   29.8481   22.6281 C   0  0  0  0  0  0  0  0  0  0  0  0
    3.7566   28.4529   22.0271 C   0  0  0  0  0  0  0  0  0  0  0  0
    3.8880   28.1264   20.6965 C   0  0  0  0  0  0  0  0  0  0  0  0
 11 12  1  0  0  0
 12  1  1  0  0  0
  1  2  1  0  0  0
  1  7  1  0  0  0
  2 14  1  0  0  0
  2  3  1  0  0  0
 14 15  1  0  0  0
  3  4  1  0  0  0
  3  5  1  0  0  0
  5  6  1  0  0  0
  5  8  1  0  0  0
  7  8  1  0  0  0
  8 16  1  0  0  0
 16 17  1  0  0  0
 17 18  1  0  0  0
 18 19  2  0  0  0
 11 13  1  0  0  0
  4  9  1  0  0  0
  6 10  1  0  0  0
M  END
> <minimizedAffinity>
-3.97415

$$$$
