3VW2_BER_A_301


 25 29  0  0  0  0  0  0  0  0999 V2000
    2.9320   14.4025  -34.3597 C   0  0  0  0  0  0  0  0  0  0  0  0
    2.7292   13.0937  -34.9053 C   0  0  0  0  0  0  0  0  0  0  0  0
    1.9285   15.2595  -34.3120 N   0  0  0  0  0  0  0  0  0  0  0  0
    4.3209   14.6275  -33.9341 C   0  0  0  0  0  0  0  0  0  0  0  0
    1.3811   12.7663  -35.3507 C   0  0  0  0  0  0  0  0  0  0  0  0
    3.7866   12.2375  -34.9831 C   0  0  0  0  0  0  0  0  0  0  0  0
    2.0748   16.4730  -33.7908 C   0  0  0  0  0  0  0  0  0  0  0  0
    0.7029   14.9518  -34.7225 C   0  0  0  0  0  0  0  0  0  0  0  0
    4.4460   15.9112  -33.2415 C   0  0  0  0  0  0  0  0  0  0  0  0
    1.1097   11.5406  -35.8738 C   0  0  0  0  0  0  0  0  0  0  0  0
    0.4027   13.7228  -35.2455 C   0  0  0  0  0  0  0  0  0  0  0  0
    3.4729   11.0358  -35.5104 C   0  0  0  0  0  0  0  0  0  0  0  0
    3.4115   16.9621  -33.3648 C   0  0  0  0  0  0  0  0  0  0  0  0
    5.5424   16.1524  -32.5634 C   0  0  0  0  0  0  0  0  0  0  0  0
    2.1595   10.6870  -35.9552 C   0  0  0  0  0  0  0  0  0  0  0  0
    4.2493    9.9896  -35.6960 O   0  0  0  0  0  0  0  0  0  0  0  0
    3.2441   17.7385  -32.0997 C   0  0  0  0  0  0  0  0  0  0  0  0
    5.6666   17.4281  -31.8942 C   0  0  0  0  0  0  0  0  0  0  0  0
    2.1742    9.4384  -36.4207 O   0  0  0  0  0  0  0  0  0  0  0  0
    3.4734    8.9253  -36.2212 C   0  0  0  0  0  0  0  0  0  0  0  0
    4.5936   18.1820  -31.6969 C   0  0  0  0  0  0  0  0  0  0  0  0
    2.5096   18.8729  -32.4919 O   0  0  0  0  0  0  0  0  0  0  0  0
    1.4485   19.1944  -31.6371 C   0  0  0  0  0  0  0  0  0  0  0  0
    4.7665   19.4548  -31.0781 O   0  0  0  0  0  0  0  0  0  0  0  0
    4.5511   19.4331  -29.7001 C   0  0  0  0  0  0  0  0  0  0  0  0
  1  2  1  0  0  0
  1  3  2  0  0  0
  1  4  1  0  0  0
  2  5  2  0  0  0
  2  6  1  0  0  0
  3  7  1  0  0  0
  3  8  1  0  0  0
  4  9  2  0  0  0
  5 10  1  0  0  0
  5 11  1  0  0  0
  6 12  2  0  0  0
  7 13  2  0  0  0
  8 11  1  0  0  0
  9 13  1  0  0  0
  9 14  1  0  0  0
 10 15  2  0  0  0
 12 15  1  0  0  0
 12 16  1  0  0  0
 13 17  1  0  0  0
 14 18  2  0  0  0
 15 19  1  0  0  0
 16 20  1  0  0  0
 17 21  2  0  0  0
 17 22  1  0  0  0
 18 21  1  0  0  0
 19 20  1  0  0  0
 21 24  1  0  0  0
 22 23  1  0  0  0
 24 25  1  0  0  0
M  CHG 1   3   1
M  END
> <minimizedAffinity>
-10.32002

$$$$
3VW2_BER_A_301


 25 29  0  0  0  0  0  0  0  0999 V2000
    3.3499   15.5459  -33.4831 C   0  0  0  0  0  0  0  0  0  0  0  0
    3.5380   16.6725  -32.6189 C   0  0  0  0  0  0  0  0  0  0  0  0
    4.3560   14.7256  -33.7252 N   0  0  0  0  0  0  0  0  0  0  0  0
    1.9890   15.4788  -34.0347 C   0  0  0  0  0  0  0  0  0  0  0  0
    4.8540   16.8262  -32.0124 C   0  0  0  0  0  0  0  0  0  0  0  0
    2.4992   17.5303  -32.4133 C   0  0  0  0  0  0  0  0  0  0  0  0
    4.2107   13.6576  -34.5025 C   0  0  0  0  0  0  0  0  0  0  0  0
    5.5530   14.8754  -33.1685 C   0  0  0  0  0  0  0  0  0  0  0  0
    1.7960   14.2335  -34.7800 C   0  0  0  0  0  0  0  0  0  0  0  0
    5.1064   17.8678  -31.1751 C   0  0  0  0  0  0  0  0  0  0  0  0
    5.8299   15.9108  -32.3167 C   0  0  0  0  0  0  0  0  0  0  0  0
    2.7948   18.5491  -31.5795 C   0  0  0  0  0  0  0  0  0  0  0  0
    2.9434   13.4205  -35.2406 C   0  0  0  0  0  0  0  0  0  0  0  0
    0.5754   13.8835  -35.1085 C   0  0  0  0  0  0  0  0  0  0  0  0
    4.0764   18.7247  -30.9702 C   0  0  0  0  0  0  0  0  0  0  0  0
    2.0148   19.5218  -31.1585 O   0  0  0  0  0  0  0  0  0  0  0  0
    2.6471   11.9568  -35.2033 C   0  0  0  0  0  0  0  0  0  0  0  0
    0.3925   12.6604  -35.8577 C   0  0  0  0  0  0  0  0  0  0  0  0
    4.0497   19.8159  -30.2057 O   0  0  0  0  0  0  0  0  0  0  0  0
    2.7359   20.3291  -30.2425 C   0  0  0  0  0  0  0  0  0  0  0  0
    1.3709   11.7676  -35.9214 C   0  0  0  0  0  0  0  0  0  0  0  0
    3.6734   11.3827  -35.9762 O   0  0  0  0  0  0  0  0  0  0  0  0
    4.4396   10.4284  -35.2964 C   0  0  0  0  0  0  0  0  0  0  0  0
    1.1685   10.5983  -36.7115 O   0  0  0  0  0  0  0  0  0  0  0  0
    1.2545    9.4145  -35.9786 C   0  0  0  0  0  0  0  0  0  0  0  0
  1  2  1  0  0  0
  1  3  2  0  0  0
  1  4  1  0  0  0
  2  5  2  0  0  0
  2  6  1  0  0  0
  3  7  1  0  0  0
  3  8  1  0  0  0
  4  9  2  0  0  0
  5 10  1  0  0  0
  5 11  1  0  0  0
  6 12  2  0  0  0
  7 13  2  0  0  0
  8 11  1  0  0  0
  9 13  1  0  0  0
  9 14  1  0  0  0
 10 15  2  0  0  0
 12 15  1  0  0  0
 12 16  1  0  0  0
 13 17  1  0  0  0
 14 18  2  0  0  0
 15 19  1  0  0  0
 16 20  1  0  0  0
 17 21  2  0  0  0
 17 22  1  0  0  0
 18 21  1  0  0  0
 19 20  1  0  0  0
 21 24  1  0  0  0
 22 23  1  0  0  0
 24 25  1  0  0  0
M  CHG 1   3   1
M  END
> <minimizedAffinity>
-9.17199

$$$$
3VW2_BER_A_301


 25 29  0  0  0  0  0  0  0  0999 V2000
    4.3076   15.4774  -33.1981 C   0  0  0  0  0  0  0  0  0  0  0  0
    4.0046   16.7268  -32.5666 C   0  0  0  0  0  0  0  0  0  0  0  0
    5.4790   14.9028  -32.9943 N   0  0  0  0  0  0  0  0  0  0  0  0
    3.2159   15.0011  -34.0595 C   0  0  0  0  0  0  0  0  0  0  0  0
    5.0210   17.2828  -31.6828 C   0  0  0  0  0  0  0  0  0  0  0  0
    2.8064   17.3241  -32.8209 C   0  0  0  0  0  0  0  0  0  0  0  0
    5.7844   13.7325  -33.5447 C   0  0  0  0  0  0  0  0  0  0  0  0
    6.4000   15.4190  -32.1878 C   0  0  0  0  0  0  0  0  0  0  0  0
    3.5015   13.6536  -34.5556 C   0  0  0  0  0  0  0  0  0  0  0  0
    4.8026   18.4626  -31.0424 C   0  0  0  0  0  0  0  0  0  0  0  0
    6.2014   16.6008  -31.5260 C   0  0  0  0  0  0  0  0  0  0  0  0
    2.6338   18.4921  -32.1679 C   0  0  0  0  0  0  0  0  0  0  0  0
    4.8692   13.0896  -34.5226 C   0  0  0  0  0  0  0  0  0  0  0  0
    2.5287   12.9722  -35.1118 C   0  0  0  0  0  0  0  0  0  0  0  0
    3.6130   19.0611  -31.2950 C   0  0  0  0  0  0  0  0  0  0  0  0
    1.5901   19.2936  -32.1753 O   0  0  0  0  0  0  0  0  0  0  0  0
    4.8653   11.6186  -34.2626 C   0  0  0  0  0  0  0  0  0  0  0  0
    2.8206   11.6479  -35.6135 C   0  0  0  0  0  0  0  0  0  0  0  0
    3.1464   20.2097  -30.8063 O   0  0  0  0  0  0  0  0  0  0  0  0
    1.8311   20.3747  -31.2900 C   0  0  0  0  0  0  0  0  0  0  0  0
    3.9266   11.0224  -35.2339 C   0  0  0  0  0  0  0  0  0  0  0  0
    6.1676   11.2097  -34.6050 O   0  0  0  0  0  0  0  0  0  0  0  0
    6.8817   10.6247  -33.5525 C   0  0  0  0  0  0  0  0  0  0  0  0
    4.2022    9.7390  -35.7904 O   0  0  0  0  0  0  0  0  0  0  0  0
    4.1337    9.7145  -37.1834 C   0  0  0  0  0  0  0  0  0  0  0  0
  1  2  1  0  0  0
  1  3  2  0  0  0
  1  4  1  0  0  0
  2  5  2  0  0  0
  2  6  1  0  0  0
  3  7  1  0  0  0
  3  8  1  0  0  0
  4  9  2  0  0  0
  5 10  1  0  0  0
  5 11  1  0  0  0
  6 12  2  0  0  0
  7 13  2  0  0  0
  8 11  1  0  0  0
  9 13  1  0  0  0
  9 14  1  0  0  0
 10 15  2  0  0  0
 12 15  1  0  0  0
 12 16  1  0  0  0
 13 17  1  0  0  0
 14 18  2  0  0  0
 15 19  1  0  0  0
 16 20  1  0  0  0
 17 21  2  0  0  0
 17 22  1  0  0  0
 18 21  1  0  0  0
 19 20  1  0  0  0
 21 24  1  0  0  0
 22 23  1  0  0  0
 24 25  1  0  0  0
M  CHG 1   3   1
M  END
> <minimizedAffinity>
-9.08922

$$$$
3VW2_BER_A_301


 25 29  0  0  0  0  0  0  0  0999 V2000
    2.4094   15.1525  -33.7985 C   0  0  0  0  0  0  0  0  0  0  0  0
    1.6703   14.2213  -34.5974 C   0  0  0  0  0  0  0  0  0  0  0  0
    3.7049   14.9775  -33.6113 N   0  0  0  0  0  0  0  0  0  0  0  0
    1.5614   16.2165  -33.2423 C   0  0  0  0  0  0  0  0  0  0  0  0
    2.4218   13.1298  -35.2031 C   0  0  0  0  0  0  0  0  0  0  0  0
    0.3269   14.3962  -34.7458 C   0  0  0  0  0  0  0  0  0  0  0  0
    4.4260   15.8345  -32.8962 C   0  0  0  0  0  0  0  0  0  0  0  0
    4.3808   13.9777  -34.1668 C   0  0  0  0  0  0  0  0  0  0  0  0
    2.3786   17.2276  -32.5690 C   0  0  0  0  0  0  0  0  0  0  0  0
    1.7899   12.2099  -35.9805 C   0  0  0  0  0  0  0  0  0  0  0  0
    3.7694   13.0436  -34.9591 C   0  0  0  0  0  0  0  0  0  0  0  0
   -0.2588   13.4602  -35.5212 C   0  0  0  0  0  0  0  0  0  0  0  0
    3.7749   16.9514  -32.1642 C   0  0  0  0  0  0  0  0  0  0  0  0
    1.8226   18.3726  -32.2529 C   0  0  0  0  0  0  0  0  0  0  0  0
    0.4532   12.3790  -36.1283 C   0  0  0  0  0  0  0  0  0  0  0  0
   -1.5210   13.3597  -35.8798 O   0  0  0  0  0  0  0  0  0  0  0  0
    4.6451   18.1596  -32.2842 C   0  0  0  0  0  0  0  0  0  0  0  0
    2.6305   19.3615  -31.5744 C   0  0  0  0  0  0  0  0  0  0  0  0
   -0.4010   11.6330  -36.8281 O   0  0  0  0  0  0  0  0  0  0  0  0
   -1.6668   12.2516  -36.7525 C   0  0  0  0  0  0  0  0  0  0  0  0
    3.9519   19.2498  -31.5693 C   0  0  0  0  0  0  0  0  0  0  0  0
    5.7988   17.8211  -31.5529 O   0  0  0  0  0  0  0  0  0  0  0  0
    6.9883   17.8999  -32.2870 C   0  0  0  0  0  0  0  0  0  0  0  0
    4.7092   20.2179  -30.8468 O   0  0  0  0  0  0  0  0  0  0  0  0
    4.5469   20.1269  -29.4643 C   0  0  0  0  0  0  0  0  0  0  0  0
  1  2  1  0  0  0
  1  3  2  0  0  0
  1  4  1  0  0  0
  2  5  2  0  0  0
  2  6  1  0  0  0
  3  7  1  0  0  0
  3  8  1  0  0  0
  4  9  2  0  0  0
  5 10  1  0  0  0
  5 11  1  0  0  0
  6 12  2  0  0  0
  7 13  2  0  0  0
  8 11  1  0  0  0
  9 13  1  0  0  0
  9 14  1  0  0  0
 10 15  2  0  0  0
 12 15  1  0  0  0
 12 16  1  0  0  0
 13 17  1  0  0  0
 14 18  2  0  0  0
 15 19  1  0  0  0
 16 20  1  0  0  0
 17 21  2  0  0  0
 17 22  1  0  0  0
 18 21  1  0  0  0
 19 20  1  0  0  0
 21 24  1  0  0  0
 22 23  1  0  0  0
 24 25  1  0  0  0
M  CHG 1   3   1
M  END
> <minimizedAffinity>
-9.01457

$$$$
3VW2_BER_A_301


 25 29  0  0  0  0  0  0  0  0999 V2000
    4.7941   16.1906  -36.0384 C   0  0  0  0  0  0  0  0  0  0  0  0
    5.7913   17.2141  -36.1356 C   0  0  0  0  0  0  0  0  0  0  0  0
    4.8194   15.3392  -35.0293 N   0  0  0  0  0  0  0  0  0  0  0  0
    3.8464   16.2176  -37.1618 C   0  0  0  0  0  0  0  0  0  0  0  0
    6.7767   17.2789  -35.0641 C   0  0  0  0  0  0  0  0  0  0  0  0
    5.7723   18.0579  -37.2056 C   0  0  0  0  0  0  0  0  0  0  0  0
    3.8965   14.3927  -34.8949 C   0  0  0  0  0  0  0  0  0  0  0  0
    5.7235   15.4056  -34.0580 C   0  0  0  0  0  0  0  0  0  0  0  0
    2.7585   15.2631  -36.9412 C   0  0  0  0  0  0  0  0  0  0  0  0
    7.7506   18.2281  -35.0837 C   0  0  0  0  0  0  0  0  0  0  0  0
    6.7088   16.3560  -34.0509 C   0  0  0  0  0  0  0  0  0  0  0  0
    6.7569   18.9803  -37.1856 C   0  0  0  0  0  0  0  0  0  0  0  0
    2.8763   14.1691  -35.9516 C   0  0  0  0  0  0  0  0  0  0  0  0
    1.6921   15.3431  -37.7004 C   0  0  0  0  0  0  0  0  0  0  0  0
    7.7366   19.0676  -36.1478 C   0  0  0  0  0  0  0  0  0  0  0  0
    6.9982   19.9463  -38.0460 O   0  0  0  0  0  0  0  0  0  0  0  0
    1.5727   13.8684  -35.2871 C   0  0  0  0  0  0  0  0  0  0  0  0
    0.6274   14.3880  -37.4879 C   0  0  0  0  0  0  0  0  0  0  0  0
    8.5651   20.0767  -36.4142 O   0  0  0  0  0  0  0  0  0  0  0  0
    8.1003   20.7107  -37.5859 C   0  0  0  0  0  0  0  0  0  0  0  0
    0.5837   13.6803  -36.3672 C   0  0  0  0  0  0  0  0  0  0  0  0
    1.7865   12.6229  -34.6679 O   0  0  0  0  0  0  0  0  0  0  0  0
    2.2956   11.6366  -35.5211 C   0  0  0  0  0  0  0  0  0  0  0  0
   -0.4537   12.7136  -36.2184 O   0  0  0  0  0  0  0  0  0  0  0  0
   -1.7190   13.2077  -36.5360 C   0  0  0  0  0  0  0  0  0  0  0  0
  1  2  1  0  0  0
  1  3  2  0  0  0
  1  4  1  0  0  0
  2  5  2  0  0  0
  2  6  1  0  0  0
  3  7  1  0  0  0
  3  8  1  0  0  0
  4  9  2  0  0  0
  5 10  1  0  0  0
  5 11  1  0  0  0
  6 12  2  0  0  0
  7 13  2  0  0  0
  8 11  1  0  0  0
  9 13  1  0  0  0
  9 14  1  0  0  0
 10 15  2  0  0  0
 12 15  1  0  0  0
 12 16  1  0  0  0
 13 17  1  0  0  0
 14 18  2  0  0  0
 15 19  1  0  0  0
 16 20  1  0  0  0
 17 21  2  0  0  0
 17 22  1  0  0  0
 18 21  1  0  0  0
 19 20  1  0  0  0
 21 24  1  0  0  0
 22 23  1  0  0  0
 24 25  1  0  0  0
M  CHG 1   3   1
M  END
> <minimizedAffinity>
-8.37470

$$$$
3VW2_BER_A_301


 25 29  0  0  0  0  0  0  0  0999 V2000
    3.7336   16.0040  -35.9086 C   0  0  0  0  0  0  0  0  0  0  0  0
    2.5290   15.2290  -35.9059 C   0  0  0  0  0  0  0  0  0  0  0  0
    4.7359   15.6671  -35.1175 N   0  0  0  0  0  0  0  0  0  0  0  0
    3.6644   17.1514  -36.8247 C   0  0  0  0  0  0  0  0  0  0  0  0
    2.4977   14.0614  -35.0349 C   0  0  0  0  0  0  0  0  0  0  0  0
    1.4907   15.6160  -36.6994 C   0  0  0  0  0  0  0  0  0  0  0  0
    5.8764   16.3489  -35.1116 C   0  0  0  0  0  0  0  0  0  0  0  0
    4.6968   14.6012  -34.3253 C   0  0  0  0  0  0  0  0  0  0  0  0
    4.9645   17.8186  -36.9140 C   0  0  0  0  0  0  0  0  0  0  0  0
    1.3908   13.2728  -34.9835 C   0  0  0  0  0  0  0  0  0  0  0  0
    3.5976   13.7876  -34.2613 C   0  0  0  0  0  0  0  0  0  0  0  0
    0.4136   14.8078  -36.6146 C   0  0  0  0  0  0  0  0  0  0  0  0
    6.0180   17.6017  -35.8976 C   0  0  0  0  0  0  0  0  0  0  0  0
    5.1579   18.6863  -37.8783 C   0  0  0  0  0  0  0  0  0  0  0  0
    0.3550   13.6560  -35.7694 C   0  0  0  0  0  0  0  0  0  0  0  0
   -0.7286   14.8869  -37.2633 O   0  0  0  0  0  0  0  0  0  0  0  0
    7.3880   17.6283  -36.4925 C   0  0  0  0  0  0  0  0  0  0  0  0
    6.4387   19.3532  -37.9521 C   0  0  0  0  0  0  0  0  0  0  0  0
   -0.8343   13.0717  -35.9108 O   0  0  0  0  0  0  0  0  0  0  0  0
   -1.5433   13.7843  -36.9010 C   0  0  0  0  0  0  0  0  0  0  0  0
    7.4783   18.8710  -37.2848 C   0  0  0  0  0  0  0  0  0  0  0  0
    8.2392   17.7563  -35.3792 O   0  0  0  0  0  0  0  0  0  0  0  0
    7.8166   18.7031  -34.4385 C   0  0  0  0  0  0  0  0  0  0  0  0
    8.7103   19.5862  -37.3441 O   0  0  0  0  0  0  0  0  0  0  0  0
    8.5462   20.9714  -37.3301 C   0  0  0  0  0  0  0  0  0  0  0  0
  1  2  1  0  0  0
  1  3  2  0  0  0
  1  4  1  0  0  0
  2  5  2  0  0  0
  2  6  1  0  0  0
  3  7  1  0  0  0
  3  8  1  0  0  0
  4  9  2  0  0  0
  5 10  1  0  0  0
  5 11  1  0  0  0
  6 12  2  0  0  0
  7 13  2  0  0  0
  8 11  1  0  0  0
  9 13  1  0  0  0
  9 14  1  0  0  0
 10 15  2  0  0  0
 12 15  1  0  0  0
 12 16  1  0  0  0
 13 17  1  0  0  0
 14 18  2  0  0  0
 15 19  1  0  0  0
 16 20  1  0  0  0
 17 21  2  0  0  0
 17 22  1  0  0  0
 18 21  1  0  0  0
 19 20  1  0  0  0
 21 24  1  0  0  0
 22 23  1  0  0  0
 24 25  1  0  0  0
M  CHG 1   3   1
M  END
> <minimizedAffinity>
-8.17515

$$$$
3VW2_BER_A_301


 25 29  0  0  0  0  0  0  0  0999 V2000
    4.0845   13.9832  -33.9963 C   0  0  0  0  0  0  0  0  0  0  0  0
    4.0285   12.6897  -34.6091 C   0  0  0  0  0  0  0  0  0  0  0  0
    5.1982   14.3892  -33.4143 N   0  0  0  0  0  0  0  0  0  0  0  0
    2.8063   14.7039  -34.0817 C   0  0  0  0  0  0  0  0  0  0  0  0
    5.2497   11.8953  -34.5857 C   0  0  0  0  0  0  0  0  0  0  0  0
    2.8584   12.2723  -35.1692 C   0  0  0  0  0  0  0  0  0  0  0  0
    5.2930   15.5919  -32.8573 C   0  0  0  0  0  0  0  0  0  0  0  0
    6.3062   13.6563  -33.3968 C   0  0  0  0  0  0  0  0  0  0  0  0
    2.9534   16.0742  -33.5875 C   0  0  0  0  0  0  0  0  0  0  0  0
    5.2757   10.6597  -35.1534 C   0  0  0  0  0  0  0  0  0  0  0  0
    6.3601   12.4132  -33.9677 C   0  0  0  0  0  0  0  0  0  0  0  0
    2.9288   11.0414  -35.7172 C   0  0  0  0  0  0  0  0  0  0  0  0
    4.1037   16.4756  -32.7477 C   0  0  0  0  0  0  0  0  0  0  0  0
    1.9960   16.9354  -33.8364 C   0  0  0  0  0  0  0  0  0  0  0  0
    4.1129   10.2399  -35.7093 C   0  0  0  0  0  0  0  0  0  0  0  0
    1.9939   10.3679  -36.3529 O   0  0  0  0  0  0  0  0  0  0  0  0
    4.5370   17.8789  -33.0203 C   0  0  0  0  0  0  0  0  0  0  0  0
    2.1400   18.2831  -33.3327 C   0  0  0  0  0  0  0  0  0  0  0  0
    3.8620    9.0855  -36.3259 O   0  0  0  0  0  0  0  0  0  0  0  0
    2.5381    9.1412  -36.8107 C   0  0  0  0  0  0  0  0  0  0  0  0
    3.3257   18.7183  -32.9288 C   0  0  0  0  0  0  0  0  0  0  0  0
    5.3712   18.1944  -31.9318 O   0  0  0  0  0  0  0  0  0  0  0  0
    4.8345   17.8639  -30.6817 C   0  0  0  0  0  0  0  0  0  0  0  0
    3.4152   20.0363  -32.3924 O   0  0  0  0  0  0  0  0  0  0  0  0
    2.3269   20.3816  -31.5909 C   0  0  0  0  0  0  0  0  0  0  0  0
  1  2  1  0  0  0
  1  3  2  0  0  0
  1  4  1  0  0  0
  2  5  2  0  0  0
  2  6  1  0  0  0
  3  7  1  0  0  0
  3  8  1  0  0  0
  4  9  2  0  0  0
  5 10  1  0  0  0
  5 11  1  0  0  0
  6 12  2  0  0  0
  7 13  2  0  0  0
  8 11  1  0  0  0
  9 13  1  0  0  0
  9 14  1  0  0  0
 10 15  2  0  0  0
 12 15  1  0  0  0
 12 16  1  0  0  0
 13 17  1  0  0  0
 14 18  2  0  0  0
 15 19  1  0  0  0
 16 20  1  0  0  0
 17 21  2  0  0  0
 17 22  1  0  0  0
 18 21  1  0  0  0
 19 20  1  0  0  0
 21 24  1  0  0  0
 22 23  1  0  0  0
 24 25  1  0  0  0
M  CHG 1   3   1
M  END
> <minimizedAffinity>
-8.02585

$$$$
