2VO5_VBZ_A_1865


 24 26  0  0  0  0  0  0  0  0999 V2000
   28.2858   44.5893   -0.3965 O   0  0  0  0  0  0  0  0  0  0  0  0
   27.6548   45.8152   -0.7392 C   0  0  0  0  0  0  0  0  0  0  0  0
   28.0415   46.9232    0.2123 C   0  0  0  0  0  0  0  0  0  0  0  0
   29.2884   46.5828    0.7570 O   0  0  0  0  0  0  0  0  0  0  0  0
   28.1046   48.1973   -0.6376 C   0  0  0  0  0  0  0  0  0  0  0  0
   28.1758   49.3346    0.2611 O   0  0  0  0  0  0  0  0  0  0  0  0
   26.7848   48.2725   -1.4381 C   0  0  0  0  0  0  0  0  0  0  0  0
   26.8112   47.2278   -2.5588 C   0  0  0  0  0  0  0  0  0  0  0  0
   29.3472   48.1296   -1.5414 C   0  0  0  0  0  0  0  0  0  0  0  0
   29.2488   46.9381   -2.4192 N   0  0  0  0  0  0  0  0  0  0  0  0
   27.9293   46.2728   -2.1959 C   0  0  0  0  0  0  0  0  0  0  0  0
   28.0740   44.3625    0.5226 H   0  0  0  0  0  0  0  0  0  0  0  0
   29.9273   46.4443    0.0404 H   0  0  0  0  0  0  0  0  0  0  0  0
   27.3829   49.3558    0.8194 H   0  0  0  0  0  0  0  0  0  0  0  0
   26.3349   49.6546   -1.9188 C   0  0  0  0  0  0  0  0  0  0  0  0
   27.1166   50.0162   -3.0459 O   0  0  0  0  0  0  0  0  0  0  0  0
   28.0538   50.0353   -2.7967 H   0  0  0  0  0  0  0  0  0  0  0  0
   29.3880   47.2364   -3.8917 C   0  0  0  0  0  0  0  0  0  0  0  0
   30.6414   47.9932   -4.3074 C   0  0  0  0  0  0  0  0  0  0  0  0
   31.9181   47.4655   -4.0992 C   0  0  0  0  0  0  0  0  0  0  0  0
   33.0690   48.1805   -4.4965 C   0  0  0  0  0  0  0  0  0  0  0  0
   30.5356   49.2655   -4.8881 C   0  0  0  0  0  0  0  0  0  0  0  0
   31.6750   49.9961   -5.2724 C   0  0  0  0  0  0  0  0  0  0  0  0
   32.9476   49.4483   -5.0851 C   0  0  0  0  0  0  0  0  0  0  0  0
  1  2  1  0  0  0
  2  3  1  0  0  0
  2 11  1  0  0  0
  3  4  1  0  0  0
  3  5  1  0  0  0
  5  6  1  0  0  0
  5  7  1  0  0  0
  5  9  1  0  0  0
  7 15  1  0  0  0
  7  8  1  0  0  0
 15 16  1  0  0  0
  8 11  1  0  0  0
  9 10  1  0  0  0
 10 11  1  0  0  0
 10 18  1  0  0  0
 18 19  1  0  0  0
 19 20  1  0  0  0
 19 22  2  0  0  0
 20 21  2  0  0  0
 21 24  1  0  0  0
 22 23  1  0  0  0
 23 24  2  0  0  0
  1 12  1  0  0  0
  4 13  1  0  0  0
  6 14  1  0  0  0
 16 17  1  0  0  0
M  END
> <minimizedAffinity>
-10.22717

$$$$
2VO5_VBZ_A_1865


 24 26  0  0  0  0  0  0  0  0999 V2000
   28.2905   44.5991   -0.3560 O   0  0  0  0  0  0  0  0  0  0  0  0
   27.6860   45.8614   -0.6006 C   0  0  0  0  0  0  0  0  0  0  0  0
   28.5080   46.9908   -0.0251 C   0  0  0  0  0  0  0  0  0  0  0  0
   29.8335   46.5388    0.0523 O   0  0  0  0  0  0  0  0  0  0  0  0
   28.3471   48.1612   -1.0019 C   0  0  0  0  0  0  0  0  0  0  0  0
   28.8617   49.3569   -0.3603 O   0  0  0  0  0  0  0  0  0  0  0  0
   26.8320   48.3377   -1.2502 C   0  0  0  0  0  0  0  0  0  0  0  0
   26.3288   47.1998   -2.1447 C   0  0  0  0  0  0  0  0  0  0  0  0
   29.1293   47.8449   -2.2878 C   0  0  0  0  0  0  0  0  0  0  0  0
   28.5932   46.6013   -2.8928 N   0  0  0  0  0  0  0  0  0  0  0  0
   27.4115   46.1417   -2.1015 C   0  0  0  0  0  0  0  0  0  0  0  0
   28.4338   44.4885    0.5970 H   0  0  0  0  0  0  0  0  0  0  0  0
   30.1286   46.2506   -0.8256 H   0  0  0  0  0  0  0  0  0  0  0  0
   28.3535   49.5352    0.4465 H   0  0  0  0  0  0  0  0  0  0  0  0
   26.3538   49.7172   -1.7107 C   0  0  0  0  0  0  0  0  0  0  0  0
   27.0449   50.0595   -2.9012 O   0  0  0  0  0  0  0  0  0  0  0  0
   27.9992   50.0748   -2.7280 H   0  0  0  0  0  0  0  0  0  0  0  0
   28.1744   46.7411   -4.3356 C   0  0  0  0  0  0  0  0  0  0  0  0
   29.2666   46.5316   -5.3746 C   0  0  0  0  0  0  0  0  0  0  0  0
   30.0260   47.5974   -5.8637 C   0  0  0  0  0  0  0  0  0  0  0  0
   31.0386   47.3823   -6.8239 C   0  0  0  0  0  0  0  0  0  0  0  0
   29.5130   45.2501   -5.8885 C   0  0  0  0  0  0  0  0  0  0  0  0
   30.5071   45.0247   -6.8584 C   0  0  0  0  0  0  0  0  0  0  0  0
   31.2805   46.0931   -7.3220 C   0  0  0  0  0  0  0  0  0  0  0  0
  1  2  1  0  0  0
  2  3  1  0  0  0
  2 11  1  0  0  0
  3  4  1  0  0  0
  3  5  1  0  0  0
  5  6  1  0  0  0
  5  7  1  0  0  0
  5  9  1  0  0  0
  7 15  1  0  0  0
  7  8  1  0  0  0
 15 16  1  0  0  0
  8 11  1  0  0  0
  9 10  1  0  0  0
 10 11  1  0  0  0
 10 18  1  0  0  0
 18 19  1  0  0  0
 19 20  1  0  0  0
 19 22  2  0  0  0
 20 21  2  0  0  0
 21 24  1  0  0  0
 22 23  1  0  0  0
 23 24  2  0  0  0
  1 12  1  0  0  0
  4 13  1  0  0  0
  6 14  1  0  0  0
 16 17  1  0  0  0
M  END
> <minimizedAffinity>
-9.96663

$$$$
2VO5_VBZ_A_1865


 24 26  0  0  0  0  0  0  0  0999 V2000
   27.1010   50.2113   -2.9606 O   0  0  0  0  0  0  0  0  0  0  0  0
   27.6007   49.2122   -2.0827 C   0  0  0  0  0  0  0  0  0  0  0  0
   26.5051   48.2784   -1.6241 C   0  0  0  0  0  0  0  0  0  0  0  0
   25.5010   48.3081   -2.6030 O   0  0  0  0  0  0  0  0  0  0  0  0
   27.1600   46.8979   -1.5023 C   0  0  0  0  0  0  0  0  0  0  0  0
   26.2456   46.0276   -0.7861 O   0  0  0  0  0  0  0  0  0  0  0  0
   28.4431   47.0790   -0.6602 C   0  0  0  0  0  0  0  0  0  0  0  0
   29.5094   47.7833   -1.5059 C   0  0  0  0  0  0  0  0  0  0  0  0
   27.4443   46.3575   -2.9139 C   0  0  0  0  0  0  0  0  0  0  0  0
   28.3551   47.2910   -3.6203 N   0  0  0  0  0  0  0  0  0  0  0  0
   28.7646   48.3798   -2.6820 C   0  0  0  0  0  0  0  0  0  0  0  0
   26.3792   50.6919   -2.5261 H   0  0  0  0  0  0  0  0  0  0  0  0
   25.8808   48.0700   -3.4632 H   0  0  0  0  0  0  0  0  0  0  0  0
   26.0822   46.3887    0.0992 H   0  0  0  0  0  0  0  0  0  0  0  0
   28.9790   45.8471    0.0738 C   0  0  0  0  0  0  0  0  0  0  0  0
   28.3467   44.6945   -0.4590 O   0  0  0  0  0  0  0  0  0  0  0  0
   27.3870   44.7672   -0.3380 H   0  0  0  0  0  0  0  0  0  0  0  0
   29.6019   46.6455   -4.1730 C   0  0  0  0  0  0  0  0  0  0  0  0
   29.8243   46.7900   -5.6718 C   0  0  0  0  0  0  0  0  0  0  0  0
   30.5614   47.8510   -6.2036 C   0  0  0  0  0  0  0  0  0  0  0  0
   30.7612   47.9652   -7.5966 C   0  0  0  0  0  0  0  0  0  0  0  0
   29.2594   45.8631   -6.5600 C   0  0  0  0  0  0  0  0  0  0  0  0
   29.4361   45.9753   -7.9514 C   0  0  0  0  0  0  0  0  0  0  0  0
   30.1981   47.0251   -8.4727 C   0  0  0  0  0  0  0  0  0  0  0  0
  1  2  1  0  0  0
  2  3  1  0  0  0
  2 11  1  0  0  0
  3  4  1  0  0  0
  3  5  1  0  0  0
  5  6  1  0  0  0
  5  7  1  0  0  0
  5  9  1  0  0  0
  7 15  1  0  0  0
  7  8  1  0  0  0
 15 16  1  0  0  0
  8 11  1  0  0  0
  9 10  1  0  0  0
 10 11  1  0  0  0
 10 18  1  0  0  0
 18 19  1  0  0  0
 19 20  1  0  0  0
 19 22  2  0  0  0
 20 21  2  0  0  0
 21 24  1  0  0  0
 22 23  1  0  0  0
 23 24  2  0  0  0
  1 12  1  0  0  0
  4 13  1  0  0  0
  6 14  1  0  0  0
 16 17  1  0  0  0
M  END
> <minimizedAffinity>
-8.24563

$$$$
2VO5_VBZ_A_1865


 24 26  0  0  0  0  0  0  0  0999 V2000
   27.1433   50.1012   -3.0050 O   0  0  0  0  0  0  0  0  0  0  0  0
   27.4657   48.9941   -2.1749 C   0  0  0  0  0  0  0  0  0  0  0  0
   26.9172   47.7026   -2.7350 C   0  0  0  0  0  0  0  0  0  0  0  0
   26.7763   47.8800   -4.1192 O   0  0  0  0  0  0  0  0  0  0  0  0
   27.9520   46.6265   -2.3873 C   0  0  0  0  0  0  0  0  0  0  0  0
   27.3504   45.3284   -2.6307 O   0  0  0  0  0  0  0  0  0  0  0  0
   28.2567   46.7632   -0.8784 C   0  0  0  0  0  0  0  0  0  0  0  0
   29.1131   48.0124   -0.6452 C   0  0  0  0  0  0  0  0  0  0  0  0
   29.1960   46.8319   -3.2680 C   0  0  0  0  0  0  0  0  0  0  0  0
   29.7594   48.1797   -3.0115 N   0  0  0  0  0  0  0  0  0  0  0  0
   28.9860   48.8327   -1.9119 C   0  0  0  0  0  0  0  0  0  0  0  0
   26.1821   50.1437   -3.1284 H   0  0  0  0  0  0  0  0  0  0  0  0
   27.6300   48.1383   -4.5006 H   0  0  0  0  0  0  0  0  0  0  0  0
   26.5696   45.2227   -2.0649 H   0  0  0  0  0  0  0  0  0  0  0  0
   28.7960   45.5248   -0.1578 C   0  0  0  0  0  0  0  0  0  0  0  0
   27.7005   44.8090    0.3893 O   0  0  0  0  0  0  0  0  0  0  0  0
   27.2207   45.3779    1.0113 H   0  0  0  0  0  0  0  0  0  0  0  0
   31.2199   48.1823   -2.6324 C   0  0  0  0  0  0  0  0  0  0  0  0
   32.2117   48.0794   -3.7823 C   0  0  0  0  0  0  0  0  0  0  0  0
   33.5432   48.4774   -3.6384 C   0  0  0  0  0  0  0  0  0  0  0  0
   34.4498   48.3695   -4.7154 C   0  0  0  0  0  0  0  0  0  0  0  0
   31.7925   47.6042   -5.0334 C   0  0  0  0  0  0  0  0  0  0  0  0
   32.6814   47.5082   -6.1198 C   0  0  0  0  0  0  0  0  0  0  0  0
   34.0186   47.8832   -5.9588 C   0  0  0  0  0  0  0  0  0  0  0  0
  1  2  1  0  0  0
  2  3  1  0  0  0
  2 11  1  0  0  0
  3  4  1  0  0  0
  3  5  1  0  0  0
  5  6  1  0  0  0
  5  7  1  0  0  0
  5  9  1  0  0  0
  7 15  1  0  0  0
  7  8  1  0  0  0
 15 16  1  0  0  0
  8 11  1  0  0  0
  9 10  1  0  0  0
 10 11  1  0  0  0
 10 18  1  0  0  0
 18 19  1  0  0  0
 19 20  1  0  0  0
 19 22  2  0  0  0
 20 21  2  0  0  0
 21 24  1  0  0  0
 22 23  1  0  0  0
 23 24  2  0  0  0
  1 12  1  0  0  0
  4 13  1  0  0  0
  6 14  1  0  0  0
 16 17  1  0  0  0
M  END
> <minimizedAffinity>
-7.64731

$$$$
2VO5_VBZ_A_1865


 24 26  0  0  0  0  0  0  0  0999 V2000
   30.5073   52.1535   -4.8928 O   0  0  0  0  0  0  0  0  0  0  0  0
   31.3715   51.0913   -5.2718 C   0  0  0  0  0  0  0  0  0  0  0  0
   32.5941   51.0282   -4.3865 C   0  0  0  0  0  0  0  0  0  0  0  0
   32.2482   51.6194   -3.1625 O   0  0  0  0  0  0  0  0  0  0  0  0
   32.9254   49.5385   -4.2416 C   0  0  0  0  0  0  0  0  0  0  0  0
   34.2491   49.4267   -3.6573 O   0  0  0  0  0  0  0  0  0  0  0  0
   32.9540   48.9412   -5.6666 C   0  0  0  0  0  0  0  0  0  0  0  0
   31.5209   48.8240   -6.1963 C   0  0  0  0  0  0  0  0  0  0  0  0
   31.8670   48.8805   -3.3403 C   0  0  0  0  0  0  0  0  0  0  0  0
   30.5285   49.0452   -3.9577 N   0  0  0  0  0  0  0  0  0  0  0  0
   30.6817   49.7019   -5.2914 C   0  0  0  0  0  0  0  0  0  0  0  0
   30.9994   52.9893   -4.9012 H   0  0  0  0  0  0  0  0  0  0  0  0
   31.4750   51.1661   -2.7915 H   0  0  0  0  0  0  0  0  0  0  0  0
   34.8976   49.8480   -4.2427 H   0  0  0  0  0  0  0  0  0  0  0  0
   33.7752   47.6661   -5.8752 C   0  0  0  0  0  0  0  0  0  0  0  0
   35.1328   48.0305   -6.0659 O   0  0  0  0  0  0  0  0  0  0  0  0
   35.2065   48.6087   -6.8412 H   0  0  0  0  0  0  0  0  0  0  0  0
   29.7671   47.7564   -4.1467 C   0  0  0  0  0  0  0  0  0  0  0  0
   28.6815   47.4618   -3.1214 C   0  0  0  0  0  0  0  0  0  0  0  0
   27.3764   47.9345   -3.2807 C   0  0  0  0  0  0  0  0  0  0  0  0
   26.3816   47.6465   -2.3211 C   0  0  0  0  0  0  0  0  0  0  0  0
   28.9843   46.7251   -1.9671 C   0  0  0  0  0  0  0  0  0  0  0  0
   28.0067   46.4461   -0.9945 C   0  0  0  0  0  0  0  0  0  0  0  0
   26.6968   46.9000   -1.1757 C   0  0  0  0  0  0  0  0  0  0  0  0
  1  2  1  0  0  0
  2  3  1  0  0  0
  2 11  1  0  0  0
  3  4  1  0  0  0
  3  5  1  0  0  0
  5  6  1  0  0  0
  5  7  1  0  0  0
  5  9  1  0  0  0
  7 15  1  0  0  0
  7  8  1  0  0  0
 15 16  1  0  0  0
  8 11  1  0  0  0
  9 10  1  0  0  0
 10 11  1  0  0  0
 10 18  1  0  0  0
 18 19  1  0  0  0
 19 20  1  0  0  0
 19 22  2  0  0  0
 20 21  2  0  0  0
 21 24  1  0  0  0
 22 23  1  0  0  0
 23 24  2  0  0  0
  1 12  1  0  0  0
  4 13  1  0  0  0
  6 14  1  0  0  0
 16 17  1  0  0  0
M  END
> <minimizedAffinity>
-7.53019

$$$$
2VO5_VBZ_A_1865


 24 26  0  0  0  0  0  0  0  0999 V2000
   31.5490   46.1956   -6.4904 O   0  0  0  0  0  0  0  0  0  0  0  0
   32.1738   47.3125   -5.8733 C   0  0  0  0  0  0  0  0  0  0  0  0
   31.7550   48.6109   -6.5222 C   0  0  0  0  0  0  0  0  0  0  0  0
   30.5006   48.3926   -7.1104 O   0  0  0  0  0  0  0  0  0  0  0  0
   31.6962   49.6415   -5.3889 C   0  0  0  0  0  0  0  0  0  0  0  0
   31.5936   50.9607   -5.9852 O   0  0  0  0  0  0  0  0  0  0  0  0
   33.0318   49.5421   -4.6178 C   0  0  0  0  0  0  0  0  0  0  0  0
   33.0404   48.2577   -3.7821 C   0  0  0  0  0  0  0  0  0  0  0  0
   30.4739   49.3385   -4.5060 C   0  0  0  0  0  0  0  0  0  0  0  0
   30.6037   47.9722   -3.9436 N   0  0  0  0  0  0  0  0  0  0  0  0
   31.9253   47.4011   -4.3445 C   0  0  0  0  0  0  0  0  0  0  0  0
   31.7436   46.2005   -7.4407 H   0  0  0  0  0  0  0  0  0  0  0  0
   29.8785   48.0754   -6.4371 H   0  0  0  0  0  0  0  0  0  0  0  0
   32.3743   51.1281   -6.5360 H   0  0  0  0  0  0  0  0  0  0  0  0
   33.4768   50.7744   -3.8259 C   0  0  0  0  0  0  0  0  0  0  0  0
   32.4290   51.1467   -2.9453 O   0  0  0  0  0  0  0  0  0  0  0  0
   31.6308   51.3470   -3.4588 H   0  0  0  0  0  0  0  0  0  0  0  0
   30.4925   47.9046   -2.4404 C   0  0  0  0  0  0  0  0  0  0  0  0
   29.1623   47.4135   -1.8874 C   0  0  0  0  0  0  0  0  0  0  0  0
   28.0137   47.3619   -2.6811 C   0  0  0  0  0  0  0  0  0  0  0  0
   26.7897   46.8984   -2.1514 C   0  0  0  0  0  0  0  0  0  0  0  0
   29.0582   47.0269   -0.5433 C   0  0  0  0  0  0  0  0  0  0  0  0
   27.8405   46.5799    0.0017 C   0  0  0  0  0  0  0  0  0  0  0  0
   26.7027   46.5057   -0.8073 C   0  0  0  0  0  0  0  0  0  0  0  0
  1  2  1  0  0  0
  2  3  1  0  0  0
  2 11  1  0  0  0
  3  4  1  0  0  0
  3  5  1  0  0  0
  5  6  1  0  0  0
  5  7  1  0  0  0
  5  9  1  0  0  0
  7 15  1  0  0  0
  7  8  1  0  0  0
 15 16  1  0  0  0
  8 11  1  0  0  0
  9 10  1  0  0  0
 10 11  1  0  0  0
 10 18  1  0  0  0
 18 19  1  0  0  0
 19 20  1  0  0  0
 19 22  2  0  0  0
 20 21  2  0  0  0
 21 24  1  0  0  0
 22 23  1  0  0  0
 23 24  2  0  0  0
  1 12  1  0  0  0
  4 13  1  0  0  0
  6 14  1  0  0  0
 16 17  1  0  0  0
M  END
> <minimizedAffinity>
-7.24541

$$$$
