6H37_FKQ_A_302


 28 30  0  0  0  0  0  0  0  0999 V2000
   16.8100   24.3980    3.3084 C   0  0  0  0  0  0  0  0  0  0  0  0
   16.2059   24.6779    2.2879 O   0  0  0  0  0  0  0  0  0  0  0  0
   17.6786   23.3744    3.3602 N   0  0  0  0  0  0  0  0  0  0  0  0
   18.8390   23.4108    4.2617 C   0  0  0  0  0  0  0  0  0  0  0  0
   20.0585   24.0100    3.5800 C   0  0  0  0  0  0  0  0  0  0  0  0
   17.9857   22.6188    2.1356 C   0  0  0  0  0  0  0  0  0  0  0  0
   19.1842   23.2052    1.4064 C   0  0  0  0  0  0  0  0  0  0  0  0
   20.4184   23.2416    2.3080 C   0  0  0  0  0  0  0  0  0  0  0  0
   20.7063   21.8974    2.6889 O   0  0  0  0  0  0  0  0  0  0  0  0
   20.9394   21.3811    1.9015 H   0  0  0  0  0  0  0  0  0  0  0  0
   16.5258   26.5616    4.5441 C   0  0  0  0  0  0  0  0  0  0  0  0
   16.2541   27.2831    5.6936 C   0  0  0  0  0  0  0  0  0  0  0  0
   15.9984   26.6115    6.8776 C   0  0  0  0  0  0  0  0  0  0  0  0
   16.0050   25.2260    6.9169 C   0  0  0  0  0  0  0  0  0  0  0  0
   16.2765   24.5149    5.7604 C   0  0  0  0  0  0  0  0  0  0  0  0
   16.5418   25.1722    4.5642 C   0  0  0  0  0  0  0  0  0  0  0  0
   15.7001   27.5331    8.3578 S   0  0  0  0  0  0  0  0  0  0  0  0
   14.6519   28.4659    8.0706 O   0  0  0  0  0  0  0  0  0  0  0  0
   15.4998   26.5865    9.4145 O   0  0  0  0  0  0  0  0  0  0  0  0
   17.0133   28.3755    8.7120 N   0  0  0  0  0  0  0  0  0  0  0  0
   17.7805   27.7370    8.9220 H   0  0  0  0  0  0  0  0  0  0  0  0
   16.8301   28.9656    9.5235 H   0  0  0  0  0  0  0  0  0  0  0  0
   21.6143   23.8677    1.5958 C   0  0  0  0  0  0  0  0  0  0  0  0
   22.5539   24.6167    2.2932 C   0  0  0  0  0  0  0  0  0  0  0  0
   23.6405   25.1803    1.6442 C   0  0  0  0  0  0  0  0  0  0  0  0
   23.8046   25.0026    0.2861 C   0  0  0  0  0  0  0  0  0  0  0  0
   22.8826   24.2627   -0.4226 C   0  0  0  0  0  0  0  0  0  0  0  0
   21.7960   23.6991    0.2264 C   0  0  0  0  0  0  0  0  0  0  0  0
 26 25  2  0  0  0
 26 27  1  0  0  0
 25 24  1  0  0  0
 27 28  2  0  0  0
  7  6  1  0  0  0
  7  8  1  0  0  0
 24 23  2  0  0  0
 28 23  1  0  0  0
  6  3  1  0  0  0
 23  8  1  0  0  0
  2  1  2  0  0  0
  8  9  1  0  0  0
  8  5  1  0  0  0
  1  3  1  0  0  0
  1 16  1  0  0  0
  3  4  1  0  0  0
  5  4  1  0  0  0
 16 11  2  0  0  0
 16 15  1  0  0  0
 11 12  1  0  0  0
 15 14  2  0  0  0
 12 13  2  0  0  0
 14 13  1  0  0  0
 13 17  1  0  0  0
 19 17  2  0  0  0
 17 18  2  0  0  0
 17 20  1  0  0  0
  9 10  1  0  0  0
 20 21  1  0  0  0
 20 22  1  0  0  0
M  END
> <minimizedAffinity>
-8.48105

$$$$
6H37_FKQ_A_302


 28 30  0  0  0  0  0  0  0  0999 V2000
   16.1170   23.2921    4.5726 C   0  0  0  0  0  0  0  0  0  0  0  0
   15.0886   22.9221    4.0340 O   0  0  0  0  0  0  0  0  0  0  0  0
   17.2795   22.6396    4.4054 N   0  0  0  0  0  0  0  0  0  0  0  0
   18.5630   23.3545    4.4542 C   0  0  0  0  0  0  0  0  0  0  0  0
   18.9881   23.8358    3.0764 C   0  0  0  0  0  0  0  0  0  0  0  0
   17.3462   21.4990    3.4783 C   0  0  0  0  0  0  0  0  0  0  0  0
   17.7404   21.9426    2.0784 C   0  0  0  0  0  0  0  0  0  0  0  0
   19.0827   22.6746    2.0862 C   0  0  0  0  0  0  0  0  0  0  0  0
   20.0601   21.7649    2.5881 O   0  0  0  0  0  0  0  0  0  0  0  0
   20.1447   21.0135    1.9804 H   0  0  0  0  0  0  0  0  0  0  0  0
   16.2199   25.7615    4.9969 C   0  0  0  0  0  0  0  0  0  0  0  0
   16.1671   26.8573    5.8408 C   0  0  0  0  0  0  0  0  0  0  0  0
   15.9820   26.6650    7.1999 C   0  0  0  0  0  0  0  0  0  0  0  0
   15.8418   25.3869    7.7176 C   0  0  0  0  0  0  0  0  0  0  0  0
   15.8946   24.2985    6.8635 C   0  0  0  0  0  0  0  0  0  0  0  0
   16.0861   24.4720    5.4973 C   0  0  0  0  0  0  0  0  0  0  0  0
   15.9643   28.0616    8.2854 S   0  0  0  0  0  0  0  0  0  0  0  0
   14.6581   28.6435    8.2037 O   0  0  0  0  0  0  0  0  0  0  0  0
   16.4319   27.6126    9.5632 O   0  0  0  0  0  0  0  0  0  0  0  0
   17.0108   29.1448    7.7461 N   0  0  0  0  0  0  0  0  0  0  0  0
   17.9538   28.7587    7.7918 H   0  0  0  0  0  0  0  0  0  0  0  0
   16.9588   29.9844    8.3229 H   0  0  0  0  0  0  0  0  0  0  0  0
   19.4646   23.1595    0.6903 C   0  0  0  0  0  0  0  0  0  0  0  0
   20.5851   23.9556    0.4883 C   0  0  0  0  0  0  0  0  0  0  0  0
   20.9311   24.3907   -0.7807 C   0  0  0  0  0  0  0  0  0  0  0  0
   20.1611   24.0353   -1.8687 C   0  0  0  0  0  0  0  0  0  0  0  0
   19.0456   23.2461   -1.6878 C   0  0  0  0  0  0  0  0  0  0  0  0
   18.6996   22.8110   -0.4187 C   0  0  0  0  0  0  0  0  0  0  0  0
 26 25  2  0  0  0
 26 27  1  0  0  0
 25 24  1  0  0  0
 27 28  2  0  0  0
  7  6  1  0  0  0
  7  8  1  0  0  0
 24 23  2  0  0  0
 28 23  1  0  0  0
  6  3  1  0  0  0
 23  8  1  0  0  0
  2  1  2  0  0  0
  8  9  1  0  0  0
  8  5  1  0  0  0
  1  3  1  0  0  0
  1 16  1  0  0  0
  3  4  1  0  0  0
  5  4  1  0  0  0
 16 11  2  0  0  0
 16 15  1  0  0  0
 11 12  1  0  0  0
 15 14  2  0  0  0
 12 13  2  0  0  0
 14 13  1  0  0  0
 13 17  1  0  0  0
 19 17  2  0  0  0
 17 18  2  0  0  0
 17 20  1  0  0  0
  9 10  1  0  0  0
 20 21  1  0  0  0
 20 22  1  0  0  0
M  END
> <minimizedAffinity>
-7.99646

$$$$
6H37_FKQ_A_302


 28 30  0  0  0  0  0  0  0  0999 V2000
   17.8837   24.8140    3.4732 C   0  0  0  0  0  0  0  0  0  0  0  0
   18.9145   25.2255    2.9705 O   0  0  0  0  0  0  0  0  0  0  0  0
   17.1848   23.8029    2.9310 N   0  0  0  0  0  0  0  0  0  0  0  0
   16.3963   22.8908    3.7721 C   0  0  0  0  0  0  0  0  0  0  0  0
   17.2134   21.6857    4.2091 C   0  0  0  0  0  0  0  0  0  0  0  0
   17.7139   23.1050    1.7487 C   0  0  0  0  0  0  0  0  0  0  0  0
   18.5634   21.9075    2.1439 C   0  0  0  0  0  0  0  0  0  0  0  0
   17.7698   20.9247    3.0053 C   0  0  0  0  0  0  0  0  0  0  0  0
   16.6576   20.4818    2.2297 O   0  0  0  0  0  0  0  0  0  0  0  0
   16.9775   19.9934    1.4551 H   0  0  0  0  0  0  0  0  0  0  0  0
   17.7025   25.0427    5.9639 C   0  0  0  0  0  0  0  0  0  0  0  0
   17.2226   25.6724    7.0992 C   0  0  0  0  0  0  0  0  0  0  0  0
   16.3663   26.7535    6.9709 C   0  0  0  0  0  0  0  0  0  0  0  0
   15.9944   27.2122    5.7169 C   0  0  0  0  0  0  0  0  0  0  0  0
   16.4821   26.5754    4.5884 C   0  0  0  0  0  0  0  0  0  0  0  0
   17.3375   25.4847    4.6980 C   0  0  0  0  0  0  0  0  0  0  0  0
   15.7131   27.5275    8.4212 S   0  0  0  0  0  0  0  0  0  0  0  0
   14.6580   28.3980    7.9965 O   0  0  0  0  0  0  0  0  0  0  0  0
   15.4035   26.4864    9.3556 O   0  0  0  0  0  0  0  0  0  0  0  0
   16.8549   28.4360    9.0773 N   0  0  0  0  0  0  0  0  0  0  0  0
   17.6231   27.8427    9.3908 H   0  0  0  0  0  0  0  0  0  0  0  0
   16.4699   28.9431    9.8741 H   0  0  0  0  0  0  0  0  0  0  0  0
   18.6289   19.7406    3.4404 C   0  0  0  0  0  0  0  0  0  0  0  0
   18.0501   18.5502    3.8621 C   0  0  0  0  0  0  0  0  0  0  0  0
   18.8330   17.4759    4.2527 C   0  0  0  0  0  0  0  0  0  0  0  0
   20.2086   17.5757    4.2267 C   0  0  0  0  0  0  0  0  0  0  0  0
   20.8008   18.7490    3.8114 C   0  0  0  0  0  0  0  0  0  0  0  0
   20.0179   19.8232    3.4209 C   0  0  0  0  0  0  0  0  0  0  0  0
 26 25  2  0  0  0
 26 27  1  0  0  0
 25 24  1  0  0  0
 27 28  2  0  0  0
  7  6  1  0  0  0
  7  8  1  0  0  0
 24 23  2  0  0  0
 28 23  1  0  0  0
  6  3  1  0  0  0
 23  8  1  0  0  0
  2  1  2  0  0  0
  8  9  1  0  0  0
  8  5  1  0  0  0
  1  3  1  0  0  0
  1 16  1  0  0  0
  3  4  1  0  0  0
  5  4  1  0  0  0
 16 11  2  0  0  0
 16 15  1  0  0  0
 11 12  1  0  0  0
 15 14  2  0  0  0
 12 13  2  0  0  0
 14 13  1  0  0  0
 13 17  1  0  0  0
 19 17  2  0  0  0
 17 18  2  0  0  0
 17 20  1  0  0  0
  9 10  1  0  0  0
 20 21  1  0  0  0
 20 22  1  0  0  0
M  END
> <minimizedAffinity>
-7.88987

$$$$
6H37_FKQ_A_302


 28 30  0  0  0  0  0  0  0  0999 V2000
   15.7823   22.9296    5.0204 C   0  0  0  0  0  0  0  0  0  0  0  0
   14.7811   22.2353    5.0055 O   0  0  0  0  0  0  0  0  0  0  0  0
   16.9032   22.5717    4.3720 N   0  0  0  0  0  0  0  0  0  0  0  0
   17.8181   23.5842    3.8256 C   0  0  0  0  0  0  0  0  0  0  0  0
   17.4670   23.9388    2.3897 C   0  0  0  0  0  0  0  0  0  0  0  0
   16.9073   21.3556    3.5437 C   0  0  0  0  0  0  0  0  0  0  0  0
   16.5314   21.6631    2.1029 C   0  0  0  0  0  0  0  0  0  0  0  0
   17.4747   22.7004    1.4930 C   0  0  0  0  0  0  0  0  0  0  0  0
   18.7914   22.1531    1.5332 O   0  0  0  0  0  0  0  0  0  0  0  0
   18.8302   21.3627    0.9722 H   0  0  0  0  0  0  0  0  0  0  0  0
   15.8025   24.1371    7.2182 C   0  0  0  0  0  0  0  0  0  0  0  0
   15.8413   25.2972    7.9721 C   0  0  0  0  0  0  0  0  0  0  0  0
   15.8713   26.5263    7.3341 C   0  0  0  0  0  0  0  0  0  0  0  0
   15.8708   26.6015    5.9501 C   0  0  0  0  0  0  0  0  0  0  0  0
   15.8336   25.4342    5.2064 C   0  0  0  0  0  0  0  0  0  0  0  0
   15.7966   24.1918    5.8296 C   0  0  0  0  0  0  0  0  0  0  0  0
   15.8705   28.0104    8.2967 S   0  0  0  0  0  0  0  0  0  0  0  0
   14.6128   28.6583    8.0729 O   0  0  0  0  0  0  0  0  0  0  0  0
   16.2213   27.6473    9.6376 O   0  0  0  0  0  0  0  0  0  0  0  0
   17.0183   28.9799    7.7472 N   0  0  0  0  0  0  0  0  0  0  0  0
   17.9293   28.5448    7.8927 H   0  0  0  0  0  0  0  0  0  0  0  0
   16.9818   29.8679    8.2476 H   0  0  0  0  0  0  0  0  0  0  0  0
   17.0778   23.0448    0.0601 C   0  0  0  0  0  0  0  0  0  0  0  0
   15.8182   23.5518   -0.2339 C   0  0  0  0  0  0  0  0  0  0  0  0
   15.4626   23.8671   -1.5353 C   0  0  0  0  0  0  0  0  0  0  0  0
   16.3627   23.6806   -2.5639 C   0  0  0  0  0  0  0  0  0  0  0  0
   17.6171   23.1785   -2.2914 C   0  0  0  0  0  0  0  0  0  0  0  0
   17.9727   22.8631   -0.9900 C   0  0  0  0  0  0  0  0  0  0  0  0
 26 25  2  0  0  0
 26 27  1  0  0  0
 25 24  1  0  0  0
 27 28  2  0  0  0
  7  6  1  0  0  0
  7  8  1  0  0  0
 24 23  2  0  0  0
 28 23  1  0  0  0
  6  3  1  0  0  0
 23  8  1  0  0  0
  2  1  2  0  0  0
  8  9  1  0  0  0
  8  5  1  0  0  0
  1  3  1  0  0  0
  1 16  1  0  0  0
  3  4  1  0  0  0
  5  4  1  0  0  0
 16 11  2  0  0  0
 16 15  1  0  0  0
 11 12  1  0  0  0
 15 14  2  0  0  0
 12 13  2  0  0  0
 14 13  1  0  0  0
 13 17  1  0  0  0
 19 17  2  0  0  0
 17 18  2  0  0  0
 17 20  1  0  0  0
  9 10  1  0  0  0
 20 21  1  0  0  0
 20 22  1  0  0  0
M  END
> <minimizedAffinity>
-7.65984

$$$$
6H37_FKQ_A_302


 28 30  0  0  0  0  0  0  0  0999 V2000
   17.7469   21.9793    3.0863 C   0  0  0  0  0  0  0  0  0  0  0  0
   16.6479   21.4632    2.9845 O   0  0  0  0  0  0  0  0  0  0  0  0
   17.9359   23.2926    2.8757 N   0  0  0  0  0  0  0  0  0  0  0  0
   18.9894   24.0299    3.5881 C   0  0  0  0  0  0  0  0  0  0  0  0
   18.4741   24.6252    4.8885 C   0  0  0  0  0  0  0  0  0  0  0  0
   16.7786   24.1591    2.6024 C   0  0  0  0  0  0  0  0  0  0  0  0
   16.2136   24.7526    3.8832 C   0  0  0  0  0  0  0  0  0  0  0  0
   17.2774   25.5449    4.6436 C   0  0  0  0  0  0  0  0  0  0  0  0
   17.7168   26.5974    3.7869 O   0  0  0  0  0  0  0  0  0  0  0  0
   16.9781   27.2010    3.6112 H   0  0  0  0  0  0  0  0  0  0  0  0
   18.9963   20.3984    4.5792 C   0  0  0  0  0  0  0  0  0  0  0  0
   20.0829   19.5888    4.8614 C   0  0  0  0  0  0  0  0  0  0  0  0
   21.1272   19.5062    3.9553 C   0  0  0  0  0  0  0  0  0  0  0  0
   21.0877   20.2205    2.7681 C   0  0  0  0  0  0  0  0  0  0  0  0
   19.9948   21.0258    2.4960 C   0  0  0  0  0  0  0  0  0  0  0  0
   18.9403   21.1261    3.3966 C   0  0  0  0  0  0  0  0  0  0  0  0
   22.5387   18.5108    4.3375 S   0  0  0  0  0  0  0  0  0  0  0  0
   22.0555   17.2074    4.6823 O   0  0  0  0  0  0  0  0  0  0  0  0
   23.4529   18.6310    3.2408 O   0  0  0  0  0  0  0  0  0  0  0  0
   23.2598   19.1168    5.6307 N   0  0  0  0  0  0  0  0  0  0  0  0
   23.6160   20.0482    5.4162 H   0  0  0  0  0  0  0  0  0  0  0  0
   24.0339   18.5112    5.9035 H   0  0  0  0  0  0  0  0  0  0  0  0
   16.7282   26.1084    5.9514 C   0  0  0  0  0  0  0  0  0  0  0  0
   16.1208   27.3571    5.9962 C   0  0  0  0  0  0  0  0  0  0  0  0
   15.6198   27.8639    7.1843 C   0  0  0  0  0  0  0  0  0  0  0  0
   15.7180   27.1284    8.3472 C   0  0  0  0  0  0  0  0  0  0  0  0
   16.3175   25.8875    8.3222 C   0  0  0  0  0  0  0  0  0  0  0  0
   16.8185   25.3807    7.1341 C   0  0  0  0  0  0  0  0  0  0  0  0
 26 25  2  0  0  0
 26 27  1  0  0  0
 25 24  1  0  0  0
 27 28  2  0  0  0
  7  6  1  0  0  0
  7  8  1  0  0  0
 24 23  2  0  0  0
 28 23  1  0  0  0
  6  3  1  0  0  0
 23  8  1  0  0  0
  2  1  2  0  0  0
  8  9  1  0  0  0
  8  5  1  0  0  0
  1  3  1  0  0  0
  1 16  1  0  0  0
  3  4  1  0  0  0
  5  4  1  0  0  0
 16 11  2  0  0  0
 16 15  1  0  0  0
 11 12  1  0  0  0
 15 14  2  0  0  0
 12 13  2  0  0  0
 14 13  1  0  0  0
 13 17  1  0  0  0
 19 17  2  0  0  0
 17 18  2  0  0  0
 17 20  1  0  0  0
  9 10  1  0  0  0
 20 21  1  0  0  0
 20 22  1  0  0  0
M  END
> <minimizedAffinity>
-7.24316

$$$$
6H37_FKQ_A_302


 28 30  0  0  0  0  0  0  0  0999 V2000
   18.7822   22.5134    4.1217 C   0  0  0  0  0  0  0  0  0  0  0  0
   19.0802   21.7961    5.0605 O   0  0  0  0  0  0  0  0  0  0  0  0
   17.5423   23.0089    3.9735 N   0  0  0  0  0  0  0  0  0  0  0  0
   17.3184   24.3065    3.3201 C   0  0  0  0  0  0  0  0  0  0  0  0
   17.3228   25.4470    4.3251 C   0  0  0  0  0  0  0  0  0  0  0  0
   16.5309   22.7604    5.0128 C   0  0  0  0  0  0  0  0  0  0  0  0
   16.5230   23.8661    6.0565 C   0  0  0  0  0  0  0  0  0  0  0  0
   16.2731   25.2316    5.4157 C   0  0  0  0  0  0  0  0  0  0  0  0
   14.9993   25.1742    4.7761 O   0  0  0  0  0  0  0  0  0  0  0  0
   14.3084   25.0377    5.4431 H   0  0  0  0  0  0  0  0  0  0  0  0
   19.8289   22.0746    1.8855 C   0  0  0  0  0  0  0  0  0  0  0  0
   20.7509   22.3597    0.8933 C   0  0  0  0  0  0  0  0  0  0  0  0
   21.6590   23.3889    1.0794 C   0  0  0  0  0  0  0  0  0  0  0  0
   21.6451   24.1379    2.2455 C   0  0  0  0  0  0  0  0  0  0  0  0
   20.7171   23.8447    3.2303 C   0  0  0  0  0  0  0  0  0  0  0  0
   19.8022   22.8111    3.0637 C   0  0  0  0  0  0  0  0  0  0  0  0
   22.8698   23.7216   -0.1666 S   0  0  0  0  0  0  0  0  0  0  0  0
   23.9543   22.8102    0.0443 O   0  0  0  0  0  0  0  0  0  0  0  0
   22.1958   23.6985   -1.4308 O   0  0  0  0  0  0  0  0  0  0  0  0
   23.4344   25.2030    0.0481 N   0  0  0  0  0  0  0  0  0  0  0  0
   22.6829   25.8775   -0.0958 H   0  0  0  0  0  0  0  0  0  0  0  0
   24.1839   25.3814   -0.6203 H   0  0  0  0  0  0  0  0  0  0  0  0
   16.3054   26.3513    6.4523 C   0  0  0  0  0  0  0  0  0  0  0  0
   16.4763   26.0747    7.8030 C   0  0  0  0  0  0  0  0  0  0  0  0
   16.5093   27.0939    8.7409 C   0  0  0  0  0  0  0  0  0  0  0  0
   16.3723   28.4072    8.3417 C   0  0  0  0  0  0  0  0  0  0  0  0
   16.2017   28.7010    7.0059 C   0  0  0  0  0  0  0  0  0  0  0  0
   16.1688   27.6818    6.0680 C   0  0  0  0  0  0  0  0  0  0  0  0
 26 25  2  0  0  0
 26 27  1  0  0  0
 25 24  1  0  0  0
 27 28  2  0  0  0
  7  6  1  0  0  0
  7  8  1  0  0  0
 24 23  2  0  0  0
 28 23  1  0  0  0
  6  3  1  0  0  0
 23  8  1  0  0  0
  2  1  2  0  0  0
  8  9  1  0  0  0
  8  5  1  0  0  0
  1  3  1  0  0  0
  1 16  1  0  0  0
  3  4  1  0  0  0
  5  4  1  0  0  0
 16 11  2  0  0  0
 16 15  1  0  0  0
 11 12  1  0  0  0
 15 14  2  0  0  0
 12 13  2  0  0  0
 14 13  1  0  0  0
 13 17  1  0  0  0
 19 17  2  0  0  0
 17 18  2  0  0  0
 17 20  1  0  0  0
  9 10  1  0  0  0
 20 21  1  0  0  0
 20 22  1  0  0  0
M  END
> <minimizedAffinity>
-7.22602

$$$$
6H37_FKQ_A_302


 28 30  0  0  0  0  0  0  0  0999 V2000
   16.4628   23.3331    3.3519 C   0  0  0  0  0  0  0  0  0  0  0  0
   15.6885   23.4100    2.4144 O   0  0  0  0  0  0  0  0  0  0  0  0
   17.4092   22.3815    3.4138 N   0  0  0  0  0  0  0  0  0  0  0  0
   18.6876   22.6280    4.0963 C   0  0  0  0  0  0  0  0  0  0  0  0
   19.7352   23.1763    3.1409 C   0  0  0  0  0  0  0  0  0  0  0  0
   17.5849   21.4561    2.2834 C   0  0  0  0  0  0  0  0  0  0  0  0
   18.6055   21.9830    1.2871 C   0  0  0  0  0  0  0  0  0  0  0  0
   19.9565   22.2337    1.9575 C   0  0  0  0  0  0  0  0  0  0  0  0
   20.4076   20.9871    2.4840 O   0  0  0  0  0  0  0  0  0  0  0  0
   20.5580   20.3640    1.7559 H   0  0  0  0  0  0  0  0  0  0  0  0
   16.6832   25.6197    4.3577 C   0  0  0  0  0  0  0  0  0  0  0  0
   16.5387   26.5091    5.4083 C   0  0  0  0  0  0  0  0  0  0  0  0
   16.0380   26.0609    6.6194 C   0  0  0  0  0  0  0  0  0  0  0  0
   15.6744   24.7334    6.7831 C   0  0  0  0  0  0  0  0  0  0  0  0
   15.8219   23.8532    5.7245 C   0  0  0  0  0  0  0  0  0  0  0  0
   16.3288   24.2839    4.5036 C   0  0  0  0  0  0  0  0  0  0  0  0
   15.8997   27.1857    7.9776 S   0  0  0  0  0  0  0  0  0  0  0  0
   17.1966   27.7563    8.1872 O   0  0  0  0  0  0  0  0  0  0  0  0
   14.8059   28.0657    7.6908 O   0  0  0  0  0  0  0  0  0  0  0  0
   15.5169   26.3588    9.2926 N   0  0  0  0  0  0  0  0  0  0  0  0
   14.5951   25.9388    9.1739 H   0  0  0  0  0  0  0  0  0  0  0  0
   15.5037   26.9861   10.0969 H   0  0  0  0  0  0  0  0  0  0  0  0
   20.9741   22.8023    0.9722 C   0  0  0  0  0  0  0  0  0  0  0  0
   21.4307   22.0498   -0.1026 C   0  0  0  0  0  0  0  0  0  0  0  0
   22.3514   22.5705   -0.9974 C   0  0  0  0  0  0  0  0  0  0  0  0
   22.8296   23.8537   -0.8312 C   0  0  0  0  0  0  0  0  0  0  0  0
   22.3882   24.6153    0.2295 C   0  0  0  0  0  0  0  0  0  0  0  0
   21.4675   24.0946    1.1243 C   0  0  0  0  0  0  0  0  0  0  0  0
 26 25  2  0  0  0
 26 27  1  0  0  0
 25 24  1  0  0  0
 27 28  2  0  0  0
  7  6  1  0  0  0
  7  8  1  0  0  0
 24 23  2  0  0  0
 28 23  1  0  0  0
  6  3  1  0  0  0
 23  8  1  0  0  0
  2  1  2  0  0  0
  8  9  1  0  0  0
  8  5  1  0  0  0
  1  3  1  0  0  0
  1 16  1  0  0  0
  3  4  1  0  0  0
  5  4  1  0  0  0
 16 11  2  0  0  0
 16 15  1  0  0  0
 11 12  1  0  0  0
 15 14  2  0  0  0
 12 13  2  0  0  0
 14 13  1  0  0  0
 13 17  1  0  0  0
 19 17  2  0  0  0
 17 18  2  0  0  0
 17 20  1  0  0  0
  9 10  1  0  0  0
 20 21  1  0  0  0
 20 22  1  0  0  0
M  END
> <minimizedAffinity>
-6.98926

$$$$
6H37_FKQ_A_302


 28 30  0  0  0  0  0  0  0  0999 V2000
   18.4678   23.1298    1.0574 C   0  0  0  0  0  0  0  0  0  0  0  0
   17.9391   22.3140    0.3229 O   0  0  0  0  0  0  0  0  0  0  0  0
   17.7476   23.9850    1.8024 N   0  0  0  0  0  0  0  0  0  0  0  0
   18.2489   24.4694    3.0965 C   0  0  0  0  0  0  0  0  0  0  0  0
   17.8000   23.5748    4.2407 C   0  0  0  0  0  0  0  0  0  0  0  0
   16.2797   23.8848    1.8095 C   0  0  0  0  0  0  0  0  0  0  0  0
   15.7901   22.9732    2.9235 C   0  0  0  0  0  0  0  0  0  0  0  0
   16.2763   23.4570    4.2899 C   0  0  0  0  0  0  0  0  0  0  0  0
   15.7533   24.7695    4.4869 O   0  0  0  0  0  0  0  0  0  0  0  0
   14.7848   24.7296    4.5228 H   0  0  0  0  0  0  0  0  0  0  0  0
   20.6132   24.2776    0.4503 C   0  0  0  0  0  0  0  0  0  0  0  0
   21.9915   24.3938    0.5022 C   0  0  0  0  0  0  0  0  0  0  0  0
   22.7305   23.4553    1.2033 C   0  0  0  0  0  0  0  0  0  0  0  0
   22.1003   22.4086    1.8578 C   0  0  0  0  0  0  0  0  0  0  0  0
   20.7209   22.3036    1.8002 C   0  0  0  0  0  0  0  0  0  0  0  0
   19.9632   23.2326    1.0959 C   0  0  0  0  0  0  0  0  0  0  0  0
   24.4953   23.5748    1.2287 S   0  0  0  0  0  0  0  0  0  0  0  0
   24.8231   24.8850    1.7055 O   0  0  0  0  0  0  0  0  0  0  0  0
   24.9873   22.4420    1.9551 O   0  0  0  0  0  0  0  0  0  0  0  0
   25.0399   23.4557   -0.2708 N   0  0  0  0  0  0  0  0  0  0  0  0
   24.8210   22.5302   -0.6395 H   0  0  0  0  0  0  0  0  0  0  0  0
   26.0505   23.5940   -0.2775 H   0  0  0  0  0  0  0  0  0  0  0  0
   15.8234   22.5230    5.4088 C   0  0  0  0  0  0  0  0  0  0  0  0
   14.7489   22.8503    6.2265 C   0  0  0  0  0  0  0  0  0  0  0  0
   14.3379   21.9982    7.2386 C   0  0  0  0  0  0  0  0  0  0  0  0
   14.9955   20.8039    7.4485 C   0  0  0  0  0  0  0  0  0  0  0  0
   16.0638   20.4623    6.6473 C   0  0  0  0  0  0  0  0  0  0  0  0
   16.4749   21.3143    5.6351 C   0  0  0  0  0  0  0  0  0  0  0  0
 26 25  2  0  0  0
 26 27  1  0  0  0
 25 24  1  0  0  0
 27 28  2  0  0  0
  7  6  1  0  0  0
  7  8  1  0  0  0
 24 23  2  0  0  0
 28 23  1  0  0  0
  6  3  1  0  0  0
 23  8  1  0  0  0
  2  1  2  0  0  0
  8  9  1  0  0  0
  8  5  1  0  0  0
  1  3  1  0  0  0
  1 16  1  0  0  0
  3  4  1  0  0  0
  5  4  1  0  0  0
 16 11  2  0  0  0
 16 15  1  0  0  0
 11 12  1  0  0  0
 15 14  2  0  0  0
 12 13  2  0  0  0
 14 13  1  0  0  0
 13 17  1  0  0  0
 19 17  2  0  0  0
 17 18  2  0  0  0
 17 20  1  0  0  0
  9 10  1  0  0  0
 20 21  1  0  0  0
 20 22  1  0  0  0
M  END
> <minimizedAffinity>
-6.54106

$$$$
6H37_FKQ_A_302


 28 30  0  0  0  0  0  0  0  0999 V2000
   19.6385   25.0360    2.3032 C   0  0  0  0  0  0  0  0  0  0  0  0
   20.0966   26.1558    2.4472 O   0  0  0  0  0  0  0  0  0  0  0  0
   20.0410   24.2276    1.3085 N   0  0  0  0  0  0  0  0  0  0  0  0
   20.0433   22.7670    1.4736 C   0  0  0  0  0  0  0  0  0  0  0  0
   21.3759   22.2663    2.0070 C   0  0  0  0  0  0  0  0  0  0  0  0
   21.1282   24.6590    0.4159 C   0  0  0  0  0  0  0  0  0  0  0  0
   22.4842   24.2026    0.9305 C   0  0  0  0  0  0  0  0  0  0  0  0
   22.5315   22.6835    1.0969 C   0  0  0  0  0  0  0  0  0  0  0  0
   22.2930   22.1077   -0.1862 O   0  0  0  0  0  0  0  0  0  0  0  0
   23.0112   22.3543   -0.7898 H   0  0  0  0  0  0  0  0  0  0  0  0
   18.7209   24.6064    4.5972 C   0  0  0  0  0  0  0  0  0  0  0  0
   17.7131   24.1893    5.4493 C   0  0  0  0  0  0  0  0  0  0  0  0
   16.5243   23.7140    4.9208 C   0  0  0  0  0  0  0  0  0  0  0  0
   16.3350   23.6609    3.5488 C   0  0  0  0  0  0  0  0  0  0  0  0
   17.3496   24.0824    2.7063 C   0  0  0  0  0  0  0  0  0  0  0  0
   18.5521   24.5565    3.2187 C   0  0  0  0  0  0  0  0  0  0  0  0
   15.2550   23.1342    6.0080 S   0  0  0  0  0  0  0  0  0  0  0  0
   15.4793   21.7342    6.2105 O   0  0  0  0  0  0  0  0  0  0  0  0
   15.2493   23.9963    7.1523 O   0  0  0  0  0  0  0  0  0  0  0  0
   13.8402   23.2967    5.2789 N   0  0  0  0  0  0  0  0  0  0  0  0
   13.6512   24.2864    5.1202 H   0  0  0  0  0  0  0  0  0  0  0  0
   13.1071   22.9005    5.8671 H   0  0  0  0  0  0  0  0  0  0  0  0
   23.8760   22.2223    1.6530 C   0  0  0  0  0  0  0  0  0  0  0  0
   23.9935   21.0238    2.3457 C   0  0  0  0  0  0  0  0  0  0  0  0
   25.2163   20.6063    2.8456 C   0  0  0  0  0  0  0  0  0  0  0  0
   26.3419   21.3816    2.6596 C   0  0  0  0  0  0  0  0  0  0  0  0
   26.2447   22.5740    1.9749 C   0  0  0  0  0  0  0  0  0  0  0  0
   25.0219   22.9916    1.4750 C   0  0  0  0  0  0  0  0  0  0  0  0
 26 25  2  0  0  0
 26 27  1  0  0  0
 25 24  1  0  0  0
 27 28  2  0  0  0
  7  6  1  0  0  0
  7  8  1  0  0  0
 24 23  2  0  0  0
 28 23  1  0  0  0
  6  3  1  0  0  0
 23  8  1  0  0  0
  2  1  2  0  0  0
  8  9  1  0  0  0
  8  5  1  0  0  0
  1  3  1  0  0  0
  1 16  1  0  0  0
  3  4  1  0  0  0
  5  4  1  0  0  0
 16 11  2  0  0  0
 16 15  1  0  0  0
 11 12  1  0  0  0
 15 14  2  0  0  0
 12 13  2  0  0  0
 14 13  1  0  0  0
 13 17  1  0  0  0
 19 17  2  0  0  0
 17 18  2  0  0  0
 17 20  1  0  0  0
  9 10  1  0  0  0
 20 21  1  0  0  0
 20 22  1  0  0  0
M  END
> <minimizedAffinity>
-6.52400

$$$$
6H37_FKQ_A_302


 28 30  0  0  0  0  0  0  0  0999 V2000
   18.1316   18.7847    2.8077 C   0  0  0  0  0  0  0  0  0  0  0  0
   18.0462   18.7203    1.5939 O   0  0  0  0  0  0  0  0  0  0  0  0
   19.0418   18.0730    3.4933 N   0  0  0  0  0  0  0  0  0  0  0  0
   19.6044   18.5777    4.7540 C   0  0  0  0  0  0  0  0  0  0  0  0
   20.8680   19.3891    4.5177 C   0  0  0  0  0  0  0  0  0  0  0  0
   20.0273   17.2588    2.7646 C   0  0  0  0  0  0  0  0  0  0  0  0
   21.2976   18.0450    2.4817 C   0  0  0  0  0  0  0  0  0  0  0  0
   21.9237   18.5707    3.7737 C   0  0  0  0  0  0  0  0  0  0  0  0
   22.2365   17.4401    4.5852 O   0  0  0  0  0  0  0  0  0  0  0  0
   22.9063   16.8979    4.1398 H   0  0  0  0  0  0  0  0  0  0  0  0
   17.1601   21.0136    3.4217 C   0  0  0  0  0  0  0  0  0  0  0  0
   16.2511   21.8008    4.1070 C   0  0  0  0  0  0  0  0  0  0  0  0
   15.3347   21.2043    4.9572 C   0  0  0  0  0  0  0  0  0  0  0  0
   15.3170   19.8279    5.1196 C   0  0  0  0  0  0  0  0  0  0  0  0
   16.2301   19.0505    4.4276 C   0  0  0  0  0  0  0  0  0  0  0  0
   17.1614   19.6323    3.5748 C   0  0  0  0  0  0  0  0  0  0  0  0
   14.2055   22.2135    5.8713 S   0  0  0  0  0  0  0  0  0  0  0  0
   14.5650   22.1042    7.2534 O   0  0  0  0  0  0  0  0  0  0  0  0
   14.2107   23.5122    5.2661 O   0  0  0  0  0  0  0  0  0  0  0  0
   12.7314   21.6141    5.7063 N   0  0  0  0  0  0  0  0  0  0  0  0
   12.4458   21.6779    4.7292 H   0  0  0  0  0  0  0  0  0  0  0  0
   12.0815   22.1453    6.2859 H   0  0  0  0  0  0  0  0  0  0  0  0
   23.1765   19.3963    3.4937 C   0  0  0  0  0  0  0  0  0  0  0  0
   23.2362   20.2664    2.4124 C   0  0  0  0  0  0  0  0  0  0  0  0
   24.3736   21.0173    2.1635 C   0  0  0  0  0  0  0  0  0  0  0  0
   25.4700   20.9098    2.9938 C   0  0  0  0  0  0  0  0  0  0  0  0
   25.4293   20.0515    4.0716 C   0  0  0  0  0  0  0  0  0  0  0  0
   24.2918   19.3007    4.3205 C   0  0  0  0  0  0  0  0  0  0  0  0
 26 25  2  0  0  0
 26 27  1  0  0  0
 25 24  1  0  0  0
 27 28  2  0  0  0
  7  6  1  0  0  0
  7  8  1  0  0  0
 24 23  2  0  0  0
 28 23  1  0  0  0
  6  3  1  0  0  0
 23  8  1  0  0  0
  2  1  2  0  0  0
  8  9  1  0  0  0
  8  5  1  0  0  0
  1  3  1  0  0  0
  1 16  1  0  0  0
  3  4  1  0  0  0
  5  4  1  0  0  0
 16 11  2  0  0  0
 16 15  1  0  0  0
 11 12  1  0  0  0
 15 14  2  0  0  0
 12 13  2  0  0  0
 14 13  1  0  0  0
 13 17  1  0  0  0
 19 17  2  0  0  0
 17 18  2  0  0  0
 17 20  1  0  0  0
  9 10  1  0  0  0
 20 21  1  0  0  0
 20 22  1  0  0  0
M  END
> <minimizedAffinity>
-6.39108

$$$$
