1C86_OPA_A_301


 21 22  0  0  0  0  0  0  0  0999 V2000
   13.7880   44.6548   17.1871 O   0  0  0  0  0  0  0  0  0  0  0  0
   13.8587   45.4316   18.3821 C   0  0  0  0  0  0  0  0  0  0  0  0
   12.5317   45.7558   18.8744 C   0  0  0  0  0  0  0  0  0  0  0  0
   11.2793   45.3313   18.1496 C   0  0  0  0  0  0  0  0  0  0  0  0
   11.3158   44.4566   16.9982 C   0  0  0  0  0  0  0  0  0  0  0  0
   12.6665   43.7591   17.0575 C   0  0  0  0  0  0  0  0  0  0  0  0
   12.1790   46.6461   20.3115 S   0  0  0  0  0  0  0  0  0  0  0  0
   10.4758   46.4086   20.0855 C   0  0  0  0  0  0  0  0  0  0  0  0
   10.1451   45.8937   18.8043 C   0  0  0  0  0  0  0  0  0  0  0  0
    8.8137   45.8381   18.4447 C   0  0  0  0  0  0  0  0  0  0  0  0
    7.7438   45.4128   19.2296 O   0  0  0  0  0  0  0  0  0  0  0  0
    8.3117   45.9575   17.1732 O   0  0  0  0  0  0  0  0  0  0  0  0
    7.8652   45.2653   20.1469 H   0  0  0  0  0  0  0  0  0  0  0  0
    9.5296   47.1026   20.8267 N   0  0  0  0  0  0  0  0  0  0  0  0
    9.4134   47.2652   22.2001 C   0  0  0  0  0  0  0  0  0  0  0  0
   10.4903   46.8186   23.0634 O   0  0  0  0  0  0  0  0  0  0  0  0
    8.8317   47.5494   20.2950 H   0  0  0  0  0  0  0  0  0  0  0  0
    8.2326   47.8236   22.7593 C   0  0  0  0  0  0  0  0  0  0  0  0
    8.2127   49.1487   23.3255 O   0  0  0  0  0  0  0  0  0  0  0  0
    6.9970   47.2325   22.6911 O   0  0  0  0  0  0  0  0  0  0  0  0
    9.0102   49.6328   23.4132 H   0  0  0  0  0  0  0  0  0  0  0  0
  1  2  1  0  0  0
  1  6  1  0  0  0
  2  3  1  0  0  0
  3  4  2  0  0  0
  3  7  1  0  0  0
  4  5  1  0  0  0
  4  9  1  0  0  0
  5  6  1  0  0  0
  7  8  1  0  0  0
  8  9  2  0  0  0
  8 14  1  0  0  0
  9 10  1  0  0  0
 10 11  1  0  0  0
 10 12  2  0  0  0
 14 15  1  0  0  0
 15 18  1  0  0  0
 15 16  2  0  0  0
 18 19  1  0  0  0
 18 20  2  0  0  0
 11 13  1  0  0  0
 14 17  1  0  0  0
 19 21  1  0  0  0
M  END
> <minimizedAffinity>
-7.70597

$$$$
1C86_OPA_A_301


 21 22  0  0  0  0  0  0  0  0999 V2000
    9.3552   47.1404   20.8791 O   0  0  0  0  0  0  0  0  0  0  0  0
    9.1118   46.3050   19.7480 C   0  0  0  0  0  0  0  0  0  0  0  0
   10.3571   45.8442   19.1604 C   0  0  0  0  0  0  0  0  0  0  0  0
   11.7027   46.2617   19.6980 C   0  0  0  0  0  0  0  0  0  0  0  0
   11.8399   47.0314   20.9150 C   0  0  0  0  0  0  0  0  0  0  0  0
   10.5282   46.8490   21.6639 C   0  0  0  0  0  0  0  0  0  0  0  0
   10.5009   44.7862   17.8033 S   0  0  0  0  0  0  0  0  0  0  0  0
   12.2286   44.7650   17.9553 C   0  0  0  0  0  0  0  0  0  0  0  0
   12.7263   45.7499   18.8487 C   0  0  0  0  0  0  0  0  0  0  0  0
   14.0908   45.9496   18.9089 C   0  0  0  0  0  0  0  0  0  0  0  0
   14.8406   46.8808   18.1932 O   0  0  0  0  0  0  0  0  0  0  0  0
   15.0070   45.1149   19.4978 O   0  0  0  0  0  0  0  0  0  0  0  0
   14.4091   47.5556   17.7069 H   0  0  0  0  0  0  0  0  0  0  0  0
   13.0494   44.2351   16.9695 N   0  0  0  0  0  0  0  0  0  0  0  0
   13.2368   44.6331   15.6531 C   0  0  0  0  0  0  0  0  0  0  0  0
   12.6560   45.8819   15.1974 O   0  0  0  0  0  0  0  0  0  0  0  0
   13.5819   43.4551   17.2474 H   0  0  0  0  0  0  0  0  0  0  0  0
   13.9533   43.8047   14.7481 C   0  0  0  0  0  0  0  0  0  0  0  0
   15.3350   44.0526   14.4217 O   0  0  0  0  0  0  0  0  0  0  0  0
   13.4605   42.6391   14.2195 O   0  0  0  0  0  0  0  0  0  0  0  0
   15.7598   44.8253   14.7384 H   0  0  0  0  0  0  0  0  0  0  0  0
  1  2  1  0  0  0
  1  6  1  0  0  0
  2  3  1  0  0  0
  3  4  2  0  0  0
  3  7  1  0  0  0
  4  5  1  0  0  0
  4  9  1  0  0  0
  5  6  1  0  0  0
  7  8  1  0  0  0
  8  9  2  0  0  0
  8 14  1  0  0  0
  9 10  1  0  0  0
 10 11  1  0  0  0
 10 12  2  0  0  0
 14 15  1  0  0  0
 15 18  1  0  0  0
 15 16  2  0  0  0
 18 19  1  0  0  0
 18 20  2  0  0  0
 11 13  1  0  0  0
 14 17  1  0  0  0
 19 21  1  0  0  0
M  END
> <minimizedAffinity>
-5.64789

$$$$
1C86_OPA_A_301


 21 22  0  0  0  0  0  0  0  0999 V2000
   11.6846   43.5555   14.0936 O   0  0  0  0  0  0  0  0  0  0  0  0
   10.4427   43.9162   14.6971 C   0  0  0  0  0  0  0  0  0  0  0  0
   10.6504   44.5122   16.0048 C   0  0  0  0  0  0  0  0  0  0  0  0
   12.0233   44.6666   16.6092 C   0  0  0  0  0  0  0  0  0  0  0  0
   13.2283   44.3615   15.8696 C   0  0  0  0  0  0  0  0  0  0  0  0
   12.8238   44.3820   14.4031 C   0  0  0  0  0  0  0  0  0  0  0  0
    9.4121   45.1180   17.0449 S   0  0  0  0  0  0  0  0  0  0  0  0
   10.5919   45.6662   18.1922 C   0  0  0  0  0  0  0  0  0  0  0  0
   11.8974   45.1698   17.9367 C   0  0  0  0  0  0  0  0  0  0  0  0
   12.8775   45.3873   18.8839 C   0  0  0  0  0  0  0  0  0  0  0  0
   12.9503   46.4359   19.7987 O   0  0  0  0  0  0  0  0  0  0  0  0
   14.0939   44.7558   18.9515 O   0  0  0  0  0  0  0  0  0  0  0  0
   12.2165   47.0064   19.9168 H   0  0  0  0  0  0  0  0  0  0  0  0
   10.2405   46.0887   19.4667 N   0  0  0  0  0  0  0  0  0  0  0  0
    9.0048   46.0920   20.0985 C   0  0  0  0  0  0  0  0  0  0  0  0
    7.8833   45.4176   19.4722 O   0  0  0  0  0  0  0  0  0  0  0  0
   10.9842   46.4413   20.0070 H   0  0  0  0  0  0  0  0  0  0  0  0
    8.8278   46.7863   21.3254 C   0  0  0  0  0  0  0  0  0  0  0  0
    9.5130   48.0231   21.6045 O   0  0  0  0  0  0  0  0  0  0  0  0
    7.9078   46.4358   22.2802 O   0  0  0  0  0  0  0  0  0  0  0  0
   10.1606   48.3447   21.0086 H   0  0  0  0  0  0  0  0  0  0  0  0
  1  2  1  0  0  0
  1  6  1  0  0  0
  2  3  1  0  0  0
  3  4  2  0  0  0
  3  7  1  0  0  0
  4  5  1  0  0  0
  4  9  1  0  0  0
  5  6  1  0  0  0
  7  8  1  0  0  0
  8  9  2  0  0  0
  8 14  1  0  0  0
  9 10  1  0  0  0
 10 11  1  0  0  0
 10 12  2  0  0  0
 14 15  1  0  0  0
 15 18  1  0  0  0
 15 16  2  0  0  0
 18 19  1  0  0  0
 18 20  2  0  0  0
 11 13  1  0  0  0
 14 17  1  0  0  0
 19 21  1  0  0  0
M  END
> <minimizedAffinity>
-5.38994

$$$$
1C86_OPA_A_301


 21 22  0  0  0  0  0  0  0  0999 V2000
    8.7165   45.2287   18.8538 O   0  0  0  0  0  0  0  0  0  0  0  0
    9.6046   45.7724   19.8296 C   0  0  0  0  0  0  0  0  0  0  0  0
   10.9519   45.8921   19.3016 C   0  0  0  0  0  0  0  0  0  0  0  0
   11.3115   45.4453   17.9069 C   0  0  0  0  0  0  0  0  0  0  0  0
   10.3127   45.0009   16.9598 C   0  0  0  0  0  0  0  0  0  0  0  0
    8.9894   45.5471   17.4751 C   0  0  0  0  0  0  0  0  0  0  0  0
   12.3124   46.5380   20.1466 S   0  0  0  0  0  0  0  0  0  0  0  0
   13.3160   46.3600   18.7432 C   0  0  0  0  0  0  0  0  0  0  0  0
   12.7183   45.5774   17.7203 C   0  0  0  0  0  0  0  0  0  0  0  0
   13.4925   45.2144   16.6368 C   0  0  0  0  0  0  0  0  0  0  0  0
   13.5925   43.9521   16.0551 O   0  0  0  0  0  0  0  0  0  0  0  0
   14.4967   45.9597   16.0720 O   0  0  0  0  0  0  0  0  0  0  0  0
   12.9936   43.2745   16.3002 H   0  0  0  0  0  0  0  0  0  0  0  0
   14.6954   46.5023   18.8000 N   0  0  0  0  0  0  0  0  0  0  0  0
   15.6471   45.7345   19.4567 C   0  0  0  0  0  0  0  0  0  0  0  0
   15.2521   44.4775   20.0638 O   0  0  0  0  0  0  0  0  0  0  0  0
   15.0551   47.2675   18.2957 H   0  0  0  0  0  0  0  0  0  0  0  0
   16.9861   46.1955   19.5719 C   0  0  0  0  0  0  0  0  0  0  0  0
   17.9120   46.1241   18.4699 O   0  0  0  0  0  0  0  0  0  0  0  0
   17.4766   46.8642   20.6642 O   0  0  0  0  0  0  0  0  0  0  0  0
   17.6660   45.6861   17.6789 H   0  0  0  0  0  0  0  0  0  0  0  0
  1  2  1  0  0  0
  1  6  1  0  0  0
  2  3  1  0  0  0
  3  4  2  0  0  0
  3  7  1  0  0  0
  4  5  1  0  0  0
  4  9  1  0  0  0
  5  6  1  0  0  0
  7  8  1  0  0  0
  8  9  2  0  0  0
  8 14  1  0  0  0
  9 10  1  0  0  0
 10 11  1  0  0  0
 10 12  2  0  0  0
 14 15  1  0  0  0
 15 18  1  0  0  0
 15 16  2  0  0  0
 18 19  1  0  0  0
 18 20  2  0  0  0
 11 13  1  0  0  0
 14 17  1  0  0  0
 19 21  1  0  0  0
M  END
> <minimizedAffinity>
-5.15933

$$$$
1C86_OPA_A_301


 21 22  0  0  0  0  0  0  0  0999 V2000
   11.7060   50.0934   13.4923 O   0  0  0  0  0  0  0  0  0  0  0  0
   12.2306   48.7851   13.7154 C   0  0  0  0  0  0  0  0  0  0  0  0
   13.1624   48.7782   14.8291 C   0  0  0  0  0  0  0  0  0  0  0  0
   13.5186   50.0322   15.5871 C   0  0  0  0  0  0  0  0  0  0  0  0
   12.8514   51.2927   15.3462 C   0  0  0  0  0  0  0  0  0  0  0  0
   11.5464   50.9375   14.6493 C   0  0  0  0  0  0  0  0  0  0  0  0
   13.9858   47.3914   15.4462 S   0  0  0  0  0  0  0  0  0  0  0  0
   14.6971   48.3329   16.7175 C   0  0  0  0  0  0  0  0  0  0  0  0
   14.5378   49.7322   16.5372 C   0  0  0  0  0  0  0  0  0  0  0  0
   15.2187   50.5832   17.3841 C   0  0  0  0  0  0  0  0  0  0  0  0
   14.8921   50.9052   18.6999 O   0  0  0  0  0  0  0  0  0  0  0  0
   16.2073   51.4645   17.0250 O   0  0  0  0  0  0  0  0  0  0  0  0
   14.2284   50.4204   19.1499 H   0  0  0  0  0  0  0  0  0  0  0  0
   15.7221   47.8418   17.5140 N   0  0  0  0  0  0  0  0  0  0  0  0
   15.7650   46.7132   18.3207 C   0  0  0  0  0  0  0  0  0  0  0  0
   14.6815   45.7505   18.2561 O   0  0  0  0  0  0  0  0  0  0  0  0
   16.5478   48.3779   17.5056 H   0  0  0  0  0  0  0  0  0  0  0  0
   16.8375   46.5235   19.2331 C   0  0  0  0  0  0  0  0  0  0  0  0
   17.4386   47.6265   19.9395 O   0  0  0  0  0  0  0  0  0  0  0  0
   17.3005   45.2948   19.6290 O   0  0  0  0  0  0  0  0  0  0  0  0
   17.1854   48.5058   19.7377 H   0  0  0  0  0  0  0  0  0  0  0  0
  1  2  1  0  0  0
  1  6  1  0  0  0
  2  3  1  0  0  0
  3  4  2  0  0  0
  3  7  1  0  0  0
  4  5  1  0  0  0
  4  9  1  0  0  0
  5  6  1  0  0  0
  7  8  1  0  0  0
  8  9  2  0  0  0
  8 14  1  0  0  0
  9 10  1  0  0  0
 10 11  1  0  0  0
 10 12  2  0  0  0
 14 15  1  0  0  0
 15 18  1  0  0  0
 15 16  2  0  0  0
 18 19  1  0  0  0
 18 20  2  0  0  0
 11 13  1  0  0  0
 14 17  1  0  0  0
 19 21  1  0  0  0
M  END
> <minimizedAffinity>
-5.12302

$$$$
1C86_OPA_A_301


 21 22  0  0  0  0  0  0  0  0999 V2000
   10.1749   45.1014   14.6343 O   0  0  0  0  0  0  0  0  0  0  0  0
   11.0904   46.1089   14.2063 C   0  0  0  0  0  0  0  0  0  0  0  0
   12.0896   46.3747   15.2257 C   0  0  0  0  0  0  0  0  0  0  0  0
   12.0836   45.6721   16.5600 C   0  0  0  0  0  0  0  0  0  0  0  0
   11.1700   44.5905   16.8559 C   0  0  0  0  0  0  0  0  0  0  0  0
   10.6935   44.0772   15.5053 C   0  0  0  0  0  0  0  0  0  0  0  0
   13.3974   47.4941   15.0882 S   0  0  0  0  0  0  0  0  0  0  0  0
   14.0121   47.0244   16.6406 C   0  0  0  0  0  0  0  0  0  0  0  0
   13.1058   46.2245   17.3855 C   0  0  0  0  0  0  0  0  0  0  0  0
   13.4085   45.9464   18.7031 C   0  0  0  0  0  0  0  0  0  0  0  0
   12.7825   46.4552   19.8392 O   0  0  0  0  0  0  0  0  0  0  0  0
   14.5349   45.3087   19.1589 O   0  0  0  0  0  0  0  0  0  0  0  0
   11.9820   46.9353   19.7577 H   0  0  0  0  0  0  0  0  0  0  0  0
   15.0066   47.7436   17.2885 N   0  0  0  0  0  0  0  0  0  0  0  0
   16.3668   47.4897   17.3975 C   0  0  0  0  0  0  0  0  0  0  0  0
   16.9576   46.4251   16.6088 O   0  0  0  0  0  0  0  0  0  0  0  0
   14.6993   48.5618   17.7417 H   0  0  0  0  0  0  0  0  0  0  0  0
   17.1656   48.2358   18.3053 C   0  0  0  0  0  0  0  0  0  0  0  0
   17.3722   47.8070   19.6656 O   0  0  0  0  0  0  0  0  0  0  0  0
   17.9132   49.3294   17.9503 O   0  0  0  0  0  0  0  0  0  0  0  0
   16.9046   47.0669   19.9996 H   0  0  0  0  0  0  0  0  0  0  0  0
  1  2  1  0  0  0
  1  6  1  0  0  0
  2  3  1  0  0  0
  3  4  2  0  0  0
  3  7  1  0  0  0
  4  5  1  0  0  0
  4  9  1  0  0  0
  5  6  1  0  0  0
  7  8  1  0  0  0
  8  9  2  0  0  0
  8 14  1  0  0  0
  9 10  1  0  0  0
 10 11  1  0  0  0
 10 12  2  0  0  0
 14 15  1  0  0  0
 15 18  1  0  0  0
 15 16  2  0  0  0
 18 19  1  0  0  0
 18 20  2  0  0  0
 11 13  1  0  0  0
 14 17  1  0  0  0
 19 21  1  0  0  0
M  END
> <minimizedAffinity>
-5.03326

$$$$
1C86_OPA_A_301


 21 22  0  0  0  0  0  0  0  0999 V2000
   15.1921   44.2290   13.3772 O   0  0  0  0  0  0  0  0  0  0  0  0
   13.9344   43.6215   13.6700 C   0  0  0  0  0  0  0  0  0  0  0  0
   13.3096   44.2428   14.8241 C   0  0  0  0  0  0  0  0  0  0  0  0
   13.9727   45.3560   15.5954 C   0  0  0  0  0  0  0  0  0  0  0  0
   15.2053   45.9703   15.1533 C   0  0  0  0  0  0  0  0  0  0  0  0
   15.3223   45.6331   13.6743 C   0  0  0  0  0  0  0  0  0  0  0  0
   11.7673   43.8280   15.4810 S   0  0  0  0  0  0  0  0  0  0  0  0
   11.8816   45.1023   16.6521 C   0  0  0  0  0  0  0  0  0  0  0  0
   13.1781   45.6753   16.7346 C   0  0  0  0  0  0  0  0  0  0  0  0
   13.4358   46.5673   17.7559 C   0  0  0  0  0  0  0  0  0  0  0  0
   14.1965   47.7328   17.6876 O   0  0  0  0  0  0  0  0  0  0  0  0
   13.2003   46.3602   19.0918 O   0  0  0  0  0  0  0  0  0  0  0  0
   14.4737   48.0633   16.8558 H   0  0  0  0  0  0  0  0  0  0  0  0
   11.0027   45.2021   17.7216 N   0  0  0  0  0  0  0  0  0  0  0  0
    9.6390   45.4601   17.7371 C   0  0  0  0  0  0  0  0  0  0  0  0
    8.9035   45.4765   16.4867 O   0  0  0  0  0  0  0  0  0  0  0  0
   11.4102   45.0691   18.6079 H   0  0  0  0  0  0  0  0  0  0  0  0
    8.9771   45.7490   18.9606 C   0  0  0  0  0  0  0  0  0  0  0  0
    7.5905   45.4174   19.1714 O   0  0  0  0  0  0  0  0  0  0  0  0
    9.6077   46.2280   20.0803 O   0  0  0  0  0  0  0  0  0  0  0  0
    7.0761   45.0821   18.4636 H   0  0  0  0  0  0  0  0  0  0  0  0
  1  2  1  0  0  0
  1  6  1  0  0  0
  2  3  1  0  0  0
  3  4  2  0  0  0
  3  7  1  0  0  0
  4  5  1  0  0  0
  4  9  1  0  0  0
  5  6  1  0  0  0
  7  8  1  0  0  0
  8  9  2  0  0  0
  8 14  1  0  0  0
  9 10  1  0  0  0
 10 11  1  0  0  0
 10 12  2  0  0  0
 14 15  1  0  0  0
 15 18  1  0  0  0
 15 16  2  0  0  0
 18 19  1  0  0  0
 18 20  2  0  0  0
 11 13  1  0  0  0
 14 17  1  0  0  0
 19 21  1  0  0  0
M  END
> <minimizedAffinity>
-4.95673

$$$$
1C86_OPA_A_301


 21 22  0  0  0  0  0  0  0  0999 V2000
    8.3438   45.6372   19.3121 O   0  0  0  0  0  0  0  0  0  0  0  0
    9.3829   46.0185   20.2128 C   0  0  0  0  0  0  0  0  0  0  0  0
   10.6821   45.9606   19.5671 C   0  0  0  0  0  0  0  0  0  0  0  0
   10.8503   45.5095   18.1380 C   0  0  0  0  0  0  0  0  0  0  0  0
    9.7189   45.2414   17.2776 C   0  0  0  0  0  0  0  0  0  0  0  0
    8.5388   45.9550   17.9201 C   0  0  0  0  0  0  0  0  0  0  0  0
   12.1903   46.3795   20.2965 S   0  0  0  0  0  0  0  0  0  0  0  0
   13.0313   46.1027   18.8051 C   0  0  0  0  0  0  0  0  0  0  0  0
   12.2397   45.4450   17.8270 C   0  0  0  0  0  0  0  0  0  0  0  0
   12.8557   45.0082   16.6717 C   0  0  0  0  0  0  0  0  0  0  0  0
   13.4143   43.7538   16.4345 O   0  0  0  0  0  0  0  0  0  0  0  0
   13.2563   45.7933   15.6200 O   0  0  0  0  0  0  0  0  0  0  0  0
   13.2659   43.0531   17.0386 H   0  0  0  0  0  0  0  0  0  0  0  0
   14.4165   46.0448   18.7392 N   0  0  0  0  0  0  0  0  0  0  0  0
   15.3132   46.8501   18.0509 C   0  0  0  0  0  0  0  0  0  0  0  0
   14.8358   48.0614   17.4109 O   0  0  0  0  0  0  0  0  0  0  0  0
   14.8271   45.3189   19.2624 H   0  0  0  0  0  0  0  0  0  0  0  0
   16.6775   46.4701   17.9365 C   0  0  0  0  0  0  0  0  0  0  0  0
   17.4091   45.9198   19.0495 O   0  0  0  0  0  0  0  0  0  0  0  0
   17.3740   46.4561   16.7552 O   0  0  0  0  0  0  0  0  0  0  0  0
   17.0149   45.8865   19.8988 H   0  0  0  0  0  0  0  0  0  0  0  0
  1  2  1  0  0  0
  1  6  1  0  0  0
  2  3  1  0  0  0
  3  4  2  0  0  0
  3  7  1  0  0  0
  4  5  1  0  0  0
  4  9  1  0  0  0
  5  6  1  0  0  0
  7  8  1  0  0  0
  8  9  2  0  0  0
  8 14  1  0  0  0
  9 10  1  0  0  0
 10 11  1  0  0  0
 10 12  2  0  0  0
 14 15  1  0  0  0
 15 18  1  0  0  0
 15 16  2  0  0  0
 18 19  1  0  0  0
 18 20  2  0  0  0
 11 13  1  0  0  0
 14 17  1  0  0  0
 19 21  1  0  0  0
M  END
> <minimizedAffinity>
-4.89437

$$$$
1C86_OPA_A_301


 21 22  0  0  0  0  0  0  0  0999 V2000
   13.4169   45.6273   20.3068 O   0  0  0  0  0  0  0  0  0  0  0  0
   13.5334   45.0123   19.0243 C   0  0  0  0  0  0  0  0  0  0  0  0
   12.2693   45.0474   18.3107 C   0  0  0  0  0  0  0  0  0  0  0  0
   11.0202   45.6364   18.9164 C   0  0  0  0  0  0  0  0  0  0  0  0
   11.0335   46.3285   20.1864 C   0  0  0  0  0  0  0  0  0  0  0  0
   12.4845   46.7199   20.4232 C   0  0  0  0  0  0  0  0  0  0  0  0
   11.9946   44.4448   16.7159 S   0  0  0  0  0  0  0  0  0  0  0  0
   10.3562   45.0135   16.7427 C   0  0  0  0  0  0  0  0  0  0  0  0
    9.9234   45.4201   18.0324 C   0  0  0  0  0  0  0  0  0  0  0  0
    8.5871   45.7154   18.2116 C   0  0  0  0  0  0  0  0  0  0  0  0
    7.8298   46.6576   17.5184 O   0  0  0  0  0  0  0  0  0  0  0  0
    7.8030   45.3172   19.2650 O   0  0  0  0  0  0  0  0  0  0  0  0
    8.1789   47.0663   16.7509 H   0  0  0  0  0  0  0  0  0  0  0  0
    9.4301   44.6402   15.7788 N   0  0  0  0  0  0  0  0  0  0  0  0
    9.2190   45.1395   14.5011 C   0  0  0  0  0  0  0  0  0  0  0  0
   10.1687   46.0812   13.9389 O   0  0  0  0  0  0  0  0  0  0  0  0
    8.8288   43.9067   16.0426 H   0  0  0  0  0  0  0  0  0  0  0  0
    8.0611   44.7665   13.7670 C   0  0  0  0  0  0  0  0  0  0  0  0
    6.8231   45.4959   13.8778 O   0  0  0  0  0  0  0  0  0  0  0  0
    8.0447   43.7923   12.8019 O   0  0  0  0  0  0  0  0  0  0  0  0
    6.7386   46.1819   14.5104 H   0  0  0  0  0  0  0  0  0  0  0  0
  1  2  1  0  0  0
  1  6  1  0  0  0
  2  3  1  0  0  0
  3  4  2  0  0  0
  3  7  1  0  0  0
  4  5  1  0  0  0
  4  9  1  0  0  0
  5  6  1  0  0  0
  7  8  1  0  0  0
  8  9  2  0  0  0
  8 14  1  0  0  0
  9 10  1  0  0  0
 10 11  1  0  0  0
 10 12  2  0  0  0
 14 15  1  0  0  0
 15 18  1  0  0  0
 15 16  2  0  0  0
 18 19  1  0  0  0
 18 20  2  0  0  0
 11 13  1  0  0  0
 14 17  1  0  0  0
 19 21  1  0  0  0
M  END
> <minimizedAffinity>
-4.77733

$$$$
