2Y5F_XWG_A_1244


 36 41  0  0  0  0  0  0  0  0999 V2000
   -3.4290   13.1747   23.9254 C   0  0  0  0  0  0  0  0  0  0  0  0
   -4.7902   13.4121   24.4553 N   0  0  0  0  0  0  0  0  0  0  0  0
   -5.4571   14.2074   23.4036 C   0  0  0  0  0  0  0  0  0  0  0  0
   -5.1314   15.6655   23.7237 C   0  0  0  0  0  0  0  0  0  0  0  0
   -4.8223   15.6895   25.2168 C   0  0  0  0  0  0  0  0  0  0  0  0
   -4.7750   14.2311   25.6765 C   0  0  0  0  0  0  0  0  0  0  0  0
   -4.9119   13.7064   22.0725 C   0  0  0  0  0  0  0  0  0  0  0  0
   -3.6827   12.8825   22.4369 C   0  0  0  0  0  0  0  0  0  0  0  0
   -4.1035   11.4640   22.1468 C   0  0  0  0  0  0  0  0  0  0  0  0
   -3.4058   10.4417   22.2529 O   0  0  0  0  0  0  0  0  0  0  0  0
   -5.8344   12.6936   21.4700 C   0  0  0  0  0  0  0  0  0  0  0  0
   -6.8409   12.9393   20.8073 O   0  0  0  0  0  0  0  0  0  0  0  0
   -5.4436   11.4215   21.8284 N   0  0  0  0  0  0  0  0  0  0  0  0
   -1.9528   10.4695   25.8897 C   0  0  0  0  0  0  0  0  0  0  0  0
   -3.0725   11.1553   25.5192 C   0  0  0  0  0  0  0  0  0  0  0  0
   -0.8731   10.9111   25.2321 O   0  0  0  0  0  0  0  0  0  0  0  0
   -1.2622   11.9971   24.4430 N   0  0  0  0  0  0  0  0  0  0  0  0
   -2.5669   12.1360   24.5978 C   0  0  0  0  0  0  0  0  0  0  0  0
   -0.3591    5.7717   28.0404 Cl  0  0  0  0  0  0  0  0  0  0  0  0
   -1.2345    7.2958   27.6553 C   0  0  0  0  0  0  0  0  0  0  0  0
   -2.3909    7.7404   28.2426 C   0  0  0  0  0  0  0  0  0  0  0  0
   -2.7835    8.9441   27.6611 C   0  0  0  0  0  0  0  0  0  0  0  0
   -0.5327    8.2928   26.4629 S   0  0  0  0  0  0  0  0  0  0  0  0
   -1.8711    9.3472   26.7047 C   0  0  0  0  0  0  0  0  0  0  0  0
   -6.0498   10.2147   21.2149 C   0  0  0  0  0  0  0  0  0  0  0  0
   -5.6958    9.9006   19.7762 C   0  0  0  0  0  0  0  0  0  0  0  0
   -6.6835    8.8339   19.3179 C   0  0  0  0  0  0  0  0  0  0  0  0
   -6.3879    8.1976   18.0180 N   0  0  0  0  0  0  0  0  0  0  0  0
   -7.2580    7.0061   17.8733 C   0  0  0  0  0  0  0  0  0  0  0  0
   -6.5025    5.8307   18.4738 C   0  0  0  0  0  0  0  0  0  0  0  0
   -5.0510    6.1640   18.2147 C   0  0  0  0  0  0  0  0  0  0  0  0
   -5.0069    7.6696   18.0513 C   0  0  0  0  0  0  0  0  0  0  0  0
   -6.5446    9.1075   16.8453 C   0  0  0  0  0  0  0  0  0  0  0  0
   -5.3457    9.1351   15.8944 C   0  0  0  0  0  0  0  0  0  0  0  0
   -5.7908    8.8361   14.5768 O   0  0  0  0  0  0  0  0  0  0  0  0
   -6.1996    7.9566   14.5654 H   0  0  0  0  0  0  0  0  0  0  0  0
  1  8  1  0  0  0
  1  2  1  0  0  0
  1 18  1  0  0  0
 23 24  1  0  0  0
 23 20  1  0  0  0
 19 20  1  0  0  0
  8  7  1  0  0  0
  8  9  1  0  0  0
  2  3  1  0  0  0
  2  6  1  0  0  0
 18 17  2  0  0  0
 18 15  1  0  0  0
  7  3  1  0  0  0
  7 11  1  0  0  0
  9 13  1  0  0  0
  9 10  2  0  0  0
  3  4  1  0  0  0
  6  5  1  0  0  0
 17 16  1  0  0  0
 16 14  1  0  0  0
 11 13  1  0  0  0
 11 12  2  0  0  0
 13 25  1  0  0  0
  4  5  1  0  0  0
 15 14  2  0  0  0
 14 24  1  0  0  0
 25 26  1  0  0  0
 24 22  2  0  0  0
 26 27  1  0  0  0
 22 21  1  0  0  0
 27 28  1  0  0  0
 21 20  2  0  0  0
 28 32  1  0  0  0
 28 29  1  0  0  0
 28 33  1  0  0  0
 32 31  1  0  0  0
 29 30  1  0  0  0
 31 30  1  0  0  0
 33 34  1  0  0  0
 34 35  1  0  0  0
 35 36  1  0  0  0
M  CHG 1  28   1
M  END
> <minimizedAffinity>
-9.91362

$$$$
2Y5F_XWG_A_1244


 36 41  0  0  0  0  0  0  0  0999 V2000
   -5.0476   13.7472   23.6231 C   0  0  0  0  0  0  0  0  0  0  0  0
   -6.1219   13.6716   24.6380 N   0  0  0  0  0  0  0  0  0  0  0  0
   -7.2816   14.3186   23.9898 C   0  0  0  0  0  0  0  0  0  0  0  0
   -7.1520   15.8072   24.3092 C   0  0  0  0  0  0  0  0  0  0  0  0
   -6.3084   15.8738   25.5779 C   0  0  0  0  0  0  0  0  0  0  0  0
   -5.8038   14.4538   25.8419 C   0  0  0  0  0  0  0  0  0  0  0  0
   -7.1979   13.9713   22.5092 C   0  0  0  0  0  0  0  0  0  0  0  0
   -5.7866   13.4310   22.3118 C   0  0  0  0  0  0  0  0  0  0  0  0
   -5.9986   11.9598   22.0592 C   0  0  0  0  0  0  0  0  0  0  0  0
   -5.1268   11.1137   21.7995 O   0  0  0  0  0  0  0  0  0  0  0  0
   -8.0618   12.7911   22.1925 C   0  0  0  0  0  0  0  0  0  0  0  0
   -9.2719   12.8210   21.9751 O   0  0  0  0  0  0  0  0  0  0  0  0
   -7.3222   11.6298   22.2546 N   0  0  0  0  0  0  0  0  0  0  0  0
   -2.4206   11.4245   24.6527 C   0  0  0  0  0  0  0  0  0  0  0  0
   -3.7009   11.8694   24.8087 C   0  0  0  0  0  0  0  0  0  0  0  0
   -1.8063   12.0565   23.6445 O   0  0  0  0  0  0  0  0  0  0  0  0
   -2.6793   13.0289   23.1486 N   0  0  0  0  0  0  0  0  0  0  0  0
   -3.8083   12.9118   23.8247 C   0  0  0  0  0  0  0  0  0  0  0  0
   -1.2458    7.5585   28.2455 Cl  0  0  0  0  0  0  0  0  0  0  0  0
   -1.2377    8.6818   26.8399 C   0  0  0  0  0  0  0  0  0  0  0  0
   -0.2784    8.7557   25.8631 C   0  0  0  0  0  0  0  0  0  0  0  0
   -0.6007    9.7666   24.9601 C   0  0  0  0  0  0  0  0  0  0  0  0
   -2.5736    9.7328   26.7016 S   0  0  0  0  0  0  0  0  0  0  0  0
   -1.8050   10.3566   25.2939 C   0  0  0  0  0  0  0  0  0  0  0  0
   -7.8664   10.3298   21.7921 C   0  0  0  0  0  0  0  0  0  0  0  0
   -7.7310    9.9905   20.3223 C   0  0  0  0  0  0  0  0  0  0  0  0
   -7.0999    8.6043   20.2618 C   0  0  0  0  0  0  0  0  0  0  0  0
   -6.4620    8.2419   18.9797 N   0  0  0  0  0  0  0  0  0  0  0  0
   -4.9975    8.1583   19.1945 C   0  0  0  0  0  0  0  0  0  0  0  0
   -4.4322    9.5461   18.9348 C   0  0  0  0  0  0  0  0  0  0  0  0
   -5.3531   10.1201   17.8824 C   0  0  0  0  0  0  0  0  0  0  0  0
   -6.6525    9.3541   18.0238 C   0  0  0  0  0  0  0  0  0  0  0  0
   -6.9775    6.9763   18.3797 C   0  0  0  0  0  0  0  0  0  0  0  0
   -5.8975    5.9501   18.0291 C   0  0  0  0  0  0  0  0  0  0  0  0
   -6.4367    4.6413   18.1708 O   0  0  0  0  0  0  0  0  0  0  0  0
   -6.7306    4.5100   19.0858 H   0  0  0  0  0  0  0  0  0  0  0  0
  1  8  1  0  0  0
  1  2  1  0  0  0
  1 18  1  0  0  0
 23 24  1  0  0  0
 23 20  1  0  0  0
 19 20  1  0  0  0
  8  7  1  0  0  0
  8  9  1  0  0  0
  2  3  1  0  0  0
  2  6  1  0  0  0
 18 17  2  0  0  0
 18 15  1  0  0  0
  7  3  1  0  0  0
  7 11  1  0  0  0
  9 13  1  0  0  0
  9 10  2  0  0  0
  3  4  1  0  0  0
  6  5  1  0  0  0
 17 16  1  0  0  0
 16 14  1  0  0  0
 11 13  1  0  0  0
 11 12  2  0  0  0
 13 25  1  0  0  0
  4  5  1  0  0  0
 15 14  2  0  0  0
 14 24  1  0  0  0
 25 26  1  0  0  0
 24 22  2  0  0  0
 26 27  1  0  0  0
 22 21  1  0  0  0
 27 28  1  0  0  0
 21 20  2  0  0  0
 28 32  1  0  0  0
 28 29  1  0  0  0
 28 33  1  0  0  0
 32 31  1  0  0  0
 29 30  1  0  0  0
 31 30  1  0  0  0
 33 34  1  0  0  0
 34 35  1  0  0  0
 35 36  1  0  0  0
M  CHG 1  28   1
M  END
> <minimizedAffinity>
-8.18909

$$$$
2Y5F_XWG_A_1244


 36 41  0  0  0  0  0  0  0  0999 V2000
   -2.9009   12.5888   19.5537 C   0  0  0  0  0  0  0  0  0  0  0  0
   -3.7256   13.7693   19.8948 N   0  0  0  0  0  0  0  0  0  0  0  0
   -4.4932   14.0457   18.6627 C   0  0  0  0  0  0  0  0  0  0  0  0
   -3.6075   14.9676   17.8260 C   0  0  0  0  0  0  0  0  0  0  0  0
   -2.6776   15.6471   18.8255 C   0  0  0  0  0  0  0  0  0  0  0  0
   -2.9052   14.9577   20.1722 C   0  0  0  0  0  0  0  0  0  0  0  0
   -4.7916   12.6939   18.0276 C   0  0  0  0  0  0  0  0  0  0  0  0
   -3.8690   11.7127   18.7409 C   0  0  0  0  0  0  0  0  0  0  0  0
   -4.8082   10.8840   19.5803 C   0  0  0  0  0  0  0  0  0  0  0  0
   -4.5086    9.9212   20.3059 O   0  0  0  0  0  0  0  0  0  0  0  0
   -6.1574   12.2182   18.4119 C   0  0  0  0  0  0  0  0  0  0  0  0
   -7.2134   12.5481   17.8747 O   0  0  0  0  0  0  0  0  0  0  0  0
   -6.0829   11.4041   19.5215 N   0  0  0  0  0  0  0  0  0  0  0  0
   -1.7254   11.1167   22.6853 C   0  0  0  0  0  0  0  0  0  0  0  0
   -2.6372   11.9042   22.0451 C   0  0  0  0  0  0  0  0  0  0  0  0
   -0.8693   10.5616   21.8181 O   0  0  0  0  0  0  0  0  0  0  0  0
   -1.1615   11.0584   20.5447 N   0  0  0  0  0  0  0  0  0  0  0  0
   -2.2175   11.8421   20.6716 C   0  0  0  0  0  0  0  0  0  0  0  0
   -0.5038    8.6299   27.3284 Cl  0  0  0  0  0  0  0  0  0  0  0  0
   -1.2315    9.6800   26.0613 C   0  0  0  0  0  0  0  0  0  0  0  0
   -2.2832   10.5440   26.2261 C   0  0  0  0  0  0  0  0  0  0  0  0
   -2.5830   11.1600   25.0129 C   0  0  0  0  0  0  0  0  0  0  0  0
   -0.5162    9.6088   24.5148 S   0  0  0  0  0  0  0  0  0  0  0  0
   -1.7070   10.7507   24.0255 C   0  0  0  0  0  0  0  0  0  0  0  0
   -7.2522   10.6291   20.0033 C   0  0  0  0  0  0  0  0  0  0  0  0
   -7.9464    9.7125   19.0173 C   0  0  0  0  0  0  0  0  0  0  0  0
   -7.2361    8.3673   19.1138 C   0  0  0  0  0  0  0  0  0  0  0  0
   -6.6269    7.8689   17.8639 N   0  0  0  0  0  0  0  0  0  0  0  0
   -7.3019    6.6036   17.4881 C   0  0  0  0  0  0  0  0  0  0  0  0
   -6.5339    5.4758   18.1597 C   0  0  0  0  0  0  0  0  0  0  0  0
   -5.1114    5.9855   18.2067 C   0  0  0  0  0  0  0  0  0  0  0  0
   -5.2225    7.4948   18.1368 C   0  0  0  0  0  0  0  0  0  0  0  0
   -6.6718    8.8433   16.7342 C   0  0  0  0  0  0  0  0  0  0  0  0
   -5.3723    8.9517   15.9331 C   0  0  0  0  0  0  0  0  0  0  0  0
   -5.6727    8.8590   14.5456 O   0  0  0  0  0  0  0  0  0  0  0  0
   -6.1013    8.0081   14.3638 H   0  0  0  0  0  0  0  0  0  0  0  0
  1  8  1  0  0  0
  1  2  1  0  0  0
  1 18  1  0  0  0
 23 24  1  0  0  0
 23 20  1  0  0  0
 19 20  1  0  0  0
  8  7  1  0  0  0
  8  9  1  0  0  0
  2  3  1  0  0  0
  2  6  1  0  0  0
 18 17  2  0  0  0
 18 15  1  0  0  0
  7  3  1  0  0  0
  7 11  1  0  0  0
  9 13  1  0  0  0
  9 10  2  0  0  0
  3  4  1  0  0  0
  6  5  1  0  0  0
 17 16  1  0  0  0
 16 14  1  0  0  0
 11 13  1  0  0  0
 11 12  2  0  0  0
 13 25  1  0  0  0
  4  5  1  0  0  0
 15 14  2  0  0  0
 14 24  1  0  0  0
 25 26  1  0  0  0
 24 22  2  0  0  0
 26 27  1  0  0  0
 22 21  1  0  0  0
 27 28  1  0  0  0
 21 20  2  0  0  0
 28 32  1  0  0  0
 28 29  1  0  0  0
 28 33  1  0  0  0
 32 31  1  0  0  0
 29 30  1  0  0  0
 31 30  1  0  0  0
 33 34  1  0  0  0
 34 35  1  0  0  0
 35 36  1  0  0  0
M  CHG 1  28   1
M  END
> <minimizedAffinity>
-8.11677

$$$$
2Y5F_XWG_A_1244


 36 41  0  0  0  0  0  0  0  0999 V2000
   -7.7298   14.3160   23.5228 C   0  0  0  0  0  0  0  0  0  0  0  0
   -6.9840   15.2747   22.6776 N   0  0  0  0  0  0  0  0  0  0  0  0
   -6.5204   16.3107   23.6238 C   0  0  0  0  0  0  0  0  0  0  0  0
   -7.6529   17.3336   23.6991 C   0  0  0  0  0  0  0  0  0  0  0  0
   -8.4246   17.1751   22.3934 C   0  0  0  0  0  0  0  0  0  0  0  0
   -7.8523   15.9401   21.6949 C   0  0  0  0  0  0  0  0  0  0  0  0
   -6.2159   15.5943   24.9330 C   0  0  0  0  0  0  0  0  0  0  0  0
   -6.8613   14.2213   24.7886 C   0  0  0  0  0  0  0  0  0  0  0  0
   -5.6863   13.2846   24.6653 C   0  0  0  0  0  0  0  0  0  0  0  0
   -5.7253   12.0465   24.5708 O   0  0  0  0  0  0  0  0  0  0  0  0
   -4.7572   15.2759   25.0356 C   0  0  0  0  0  0  0  0  0  0  0  0
   -3.8759   16.0463   25.4127 O   0  0  0  0  0  0  0  0  0  0  0  0
   -4.5142   14.0026   24.5675 N   0  0  0  0  0  0  0  0  0  0  0  0
   -8.1734   11.2643   21.5616 C   0  0  0  0  0  0  0  0  0  0  0  0
   -7.5630   12.4770   21.6964 C   0  0  0  0  0  0  0  0  0  0  0  0
   -8.9376   10.9844   22.6249 O   0  0  0  0  0  0  0  0  0  0  0  0
   -8.9094   12.0897   23.4800 N   0  0  0  0  0  0  0  0  0  0  0  0
   -8.0846   12.9703   22.9419 C   0  0  0  0  0  0  0  0  0  0  0  0
   -6.7636    6.7065   19.0172 Cl  0  0  0  0  0  0  0  0  0  0  0  0
   -7.3432    8.3621   19.4184 C   0  0  0  0  0  0  0  0  0  0  0  0
   -7.7609    9.3161   18.5267 C   0  0  0  0  0  0  0  0  0  0  0  0
   -8.1054   10.4813   19.2084 C   0  0  0  0  0  0  0  0  0  0  0  0
   -7.4037    8.7636   21.0747 S   0  0  0  0  0  0  0  0  0  0  0  0
   -7.9657   10.3106   20.5727 C   0  0  0  0  0  0  0  0  0  0  0  0
   -3.1946   13.3461   24.7345 C   0  0  0  0  0  0  0  0  0  0  0  0
   -2.7946   12.2968   23.7182 C   0  0  0  0  0  0  0  0  0  0  0  0
   -2.8367   12.9835   22.3581 C   0  0  0  0  0  0  0  0  0  0  0  0
   -2.3912   12.1677   21.2101 N   0  0  0  0  0  0  0  0  0  0  0  0
   -3.3526   12.3624   20.0985 C   0  0  0  0  0  0  0  0  0  0  0  0
   -4.4365   11.3081   20.2610 C   0  0  0  0  0  0  0  0  0  0  0  0
   -3.7124   10.1396   20.8899 C   0  0  0  0  0  0  0  0  0  0  0  0
   -2.4999   10.7383   21.5731 C   0  0  0  0  0  0  0  0  0  0  0  0
   -0.9995   12.4619   20.7580 C   0  0  0  0  0  0  0  0  0  0  0  0
    0.0947   12.0213   21.7331 C   0  0  0  0  0  0  0  0  0  0  0  0
    1.3666   12.3150   21.1677 O   0  0  0  0  0  0  0  0  0  0  0  0
    1.4643   11.8404   20.3274 H   0  0  0  0  0  0  0  0  0  0  0  0
  1  8  1  0  0  0
  1  2  1  0  0  0
  1 18  1  0  0  0
 23 24  1  0  0  0
 23 20  1  0  0  0
 19 20  1  0  0  0
  8  7  1  0  0  0
  8  9  1  0  0  0
  2  3  1  0  0  0
  2  6  1  0  0  0
 18 17  2  0  0  0
 18 15  1  0  0  0
  7  3  1  0  0  0
  7 11  1  0  0  0
  9 13  1  0  0  0
  9 10  2  0  0  0
  3  4  1  0  0  0
  6  5  1  0  0  0
 17 16  1  0  0  0
 16 14  1  0  0  0
 11 13  1  0  0  0
 11 12  2  0  0  0
 13 25  1  0  0  0
  4  5  1  0  0  0
 15 14  2  0  0  0
 14 24  1  0  0  0
 25 26  1  0  0  0
 24 22  2  0  0  0
 26 27  1  0  0  0
 22 21  1  0  0  0
 27 28  1  0  0  0
 21 20  2  0  0  0
 28 32  1  0  0  0
 28 29  1  0  0  0
 28 33  1  0  0  0
 32 31  1  0  0  0
 29 30  1  0  0  0
 31 30  1  0  0  0
 33 34  1  0  0  0
 34 35  1  0  0  0
 35 36  1  0  0  0
M  CHG 1  28   1
M  END
> <minimizedAffinity>
-7.72494

$$$$
2Y5F_XWG_A_1244


 36 41  0  0  0  0  0  0  0  0999 V2000
   -5.8524   14.4268   21.0262 C   0  0  0  0  0  0  0  0  0  0  0  0
   -4.4050   14.7342   21.0003 N   0  0  0  0  0  0  0  0  0  0  0  0
   -4.2755   15.9482   21.8326 C   0  0  0  0  0  0  0  0  0  0  0  0
   -4.4920   17.1233   20.8803 C   0  0  0  0  0  0  0  0  0  0  0  0
   -4.1431   16.5877   19.4957 C   0  0  0  0  0  0  0  0  0  0  0  0
   -3.9354   15.0799   19.6504 C   0  0  0  0  0  0  0  0  0  0  0  0
   -5.3113   15.8235   22.9423 C   0  0  0  0  0  0  0  0  0  0  0  0
   -6.2392   14.7027   22.4890 C   0  0  0  0  0  0  0  0  0  0  0  0
   -5.9252   13.5728   23.4366 C   0  0  0  0  0  0  0  0  0  0  0  0
   -6.4729   12.4584   23.4772 O   0  0  0  0  0  0  0  0  0  0  0  0
   -4.6906   15.2696   24.1863 C   0  0  0  0  0  0  0  0  0  0  0  0
   -4.0679   15.9131   25.0294 O   0  0  0  0  0  0  0  0  0  0  0  0
   -4.8440   13.9006   24.2256 N   0  0  0  0  0  0  0  0  0  0  0  0
   -6.2522   11.0119   19.7875 C   0  0  0  0  0  0  0  0  0  0  0  0
   -5.4129   11.9993   20.2140 C   0  0  0  0  0  0  0  0  0  0  0  0
   -7.5338   11.3865   19.8887 O   0  0  0  0  0  0  0  0  0  0  0  0
   -7.5625   12.7141   20.3250 N   0  0  0  0  0  0  0  0  0  0  0  0
   -6.3094   13.0767   20.5337 C   0  0  0  0  0  0  0  0  0  0  0  0
   -6.6205    5.7438   18.6274 Cl  0  0  0  0  0  0  0  0  0  0  0  0
   -6.0301    7.4125   18.9505 C   0  0  0  0  0  0  0  0  0  0  0  0
   -4.7217    7.8213   18.9789 C   0  0  0  0  0  0  0  0  0  0  0  0
   -4.6572    9.1774   19.2917 C   0  0  0  0  0  0  0  0  0  0  0  0
   -7.2240    8.6010   19.2161 S   0  0  0  0  0  0  0  0  0  0  0  0
   -5.9251    9.7086   19.4342 C   0  0  0  0  0  0  0  0  0  0  0  0
   -4.5068   13.1098   25.4343 C   0  0  0  0  0  0  0  0  0  0  0  0
   -3.0723   12.6538   25.6021 C   0  0  0  0  0  0  0  0  0  0  0  0
   -2.9710   11.3021   24.9048 C   0  0  0  0  0  0  0  0  0  0  0  0
   -1.7433   11.0743   24.1157 N   0  0  0  0  0  0  0  0  0  0  0  0
   -1.3932   12.3371   23.4225 C   0  0  0  0  0  0  0  0  0  0  0  0
   -2.1054   12.3167   22.0789 C   0  0  0  0  0  0  0  0  0  0  0  0
   -2.1574   10.8492   21.7200 C   0  0  0  0  0  0  0  0  0  0  0  0
   -2.0450   10.1087   23.0369 C   0  0  0  0  0  0  0  0  0  0  0  0
   -0.5870   10.5782   24.9185 C   0  0  0  0  0  0  0  0  0  0  0  0
   -0.8922    9.3579   25.7902 C   0  0  0  0  0  0  0  0  0  0  0  0
   -0.0588    8.2781   25.3861 O   0  0  0  0  0  0  0  0  0  0  0  0
   -0.2304    8.0683   24.4547 H   0  0  0  0  0  0  0  0  0  0  0  0
  1  8  1  0  0  0
  1  2  1  0  0  0
  1 18  1  0  0  0
 23 24  1  0  0  0
 23 20  1  0  0  0
 19 20  1  0  0  0
  8  7  1  0  0  0
  8  9  1  0  0  0
  2  3  1  0  0  0
  2  6  1  0  0  0
 18 17  2  0  0  0
 18 15  1  0  0  0
  7  3  1  0  0  0
  7 11  1  0  0  0
  9 13  1  0  0  0
  9 10  2  0  0  0
  3  4  1  0  0  0
  6  5  1  0  0  0
 17 16  1  0  0  0
 16 14  1  0  0  0
 11 13  1  0  0  0
 11 12  2  0  0  0
 13 25  1  0  0  0
  4  5  1  0  0  0
 15 14  2  0  0  0
 14 24  1  0  0  0
 25 26  1  0  0  0
 24 22  2  0  0  0
 26 27  1  0  0  0
 22 21  1  0  0  0
 27 28  1  0  0  0
 21 20  2  0  0  0
 28 32  1  0  0  0
 28 29  1  0  0  0
 28 33  1  0  0  0
 32 31  1  0  0  0
 29 30  1  0  0  0
 31 30  1  0  0  0
 33 34  1  0  0  0
 34 35  1  0  0  0
 35 36  1  0  0  0
M  CHG 1  28   1
M  END
> <minimizedAffinity>
-7.71075

$$$$
2Y5F_XWG_A_1244


 36 41  0  0  0  0  0  0  0  0999 V2000
   -8.3588   14.3139   23.3505 C   0  0  0  0  0  0  0  0  0  0  0  0
   -7.7529   15.3417   22.4750 N   0  0  0  0  0  0  0  0  0  0  0  0
   -7.4483   16.4636   23.3872 C   0  0  0  0  0  0  0  0  0  0  0  0
   -8.7162   17.3155   23.4270 C   0  0  0  0  0  0  0  0  0  0  0  0
   -9.4492   17.0056   22.1262 C   0  0  0  0  0  0  0  0  0  0  0  0
   -8.7016   15.8434   21.4697 C   0  0  0  0  0  0  0  0  0  0  0  0
   -7.0524   15.8414   24.7198 C   0  0  0  0  0  0  0  0  0  0  0  0
   -7.4935   14.3860   24.6199 C   0  0  0  0  0  0  0  0  0  0  0  0
   -6.1956   13.6239   24.5293 C   0  0  0  0  0  0  0  0  0  0  0  0
   -6.0562   12.3907   24.4757 O   0  0  0  0  0  0  0  0  0  0  0  0
   -5.5638   15.7389   24.8349 C   0  0  0  0  0  0  0  0  0  0  0  0
   -4.8043   16.6396   25.1876 O   0  0  0  0  0  0  0  0  0  0  0  0
   -5.1379   14.4991   24.4095 N   0  0  0  0  0  0  0  0  0  0  0  0
   -8.3836   11.1788   21.4726 C   0  0  0  0  0  0  0  0  0  0  0  0
   -7.9757   12.4782   21.5536 C   0  0  0  0  0  0  0  0  0  0  0  0
   -9.0415   10.8066   22.5779 O   0  0  0  0  0  0  0  0  0  0  0  0
   -9.1564   11.9243   23.4092 N   0  0  0  0  0  0  0  0  0  0  0  0
   -8.5135   12.9130   22.8139 C   0  0  0  0  0  0  0  0  0  0  0  0
   -6.4857    6.7733   18.9778 Cl  0  0  0  0  0  0  0  0  0  0  0  0
   -7.2355    8.3637   19.3602 C   0  0  0  0  0  0  0  0  0  0  0  0
   -7.7363    9.2652   18.4567 C   0  0  0  0  0  0  0  0  0  0  0  0
   -8.2061   10.3932   19.1260 C   0  0  0  0  0  0  0  0  0  0  0  0
   -7.3578    8.7664   21.0128 S   0  0  0  0  0  0  0  0  0  0  0  0
   -8.0674   10.2455   20.4931 C   0  0  0  0  0  0  0  0  0  0  0  0
   -3.7389   14.0445   24.6000 C   0  0  0  0  0  0  0  0  0  0  0  0
   -3.0980   13.2461   23.4838 C   0  0  0  0  0  0  0  0  0  0  0  0
   -1.9373   12.4868   24.1158 C   0  0  0  0  0  0  0  0  0  0  0  0
   -2.0096   11.0138   24.0335 N   0  0  0  0  0  0  0  0  0  0  0  0
   -3.0736   10.5467   24.9541 C   0  0  0  0  0  0  0  0  0  0  0  0
   -2.4172   10.3096   26.3053 C   0  0  0  0  0  0  0  0  0  0  0  0
   -1.0099    9.8842   25.9535 C   0  0  0  0  0  0  0  0  0  0  0  0
   -0.7538   10.4463   24.5701 C   0  0  0  0  0  0  0  0  0  0  0  0
   -2.2422   10.4919   22.6547 C   0  0  0  0  0  0  0  0  0  0  0  0
   -1.1930   10.9187   21.6255 C   0  0  0  0  0  0  0  0  0  0  0  0
   -0.4886    9.7676   21.1753 O   0  0  0  0  0  0  0  0  0  0  0  0
   -0.0545    9.3388   21.9293 H   0  0  0  0  0  0  0  0  0  0  0  0
  1  8  1  0  0  0
  1  2  1  0  0  0
  1 18  1  0  0  0
 23 24  1  0  0  0
 23 20  1  0  0  0
 19 20  1  0  0  0
  8  7  1  0  0  0
  8  9  1  0  0  0
  2  3  1  0  0  0
  2  6  1  0  0  0
 18 17  2  0  0  0
 18 15  1  0  0  0
  7  3  1  0  0  0
  7 11  1  0  0  0
  9 13  1  0  0  0
  9 10  2  0  0  0
  3  4  1  0  0  0
  6  5  1  0  0  0
 17 16  1  0  0  0
 16 14  1  0  0  0
 11 13  1  0  0  0
 11 12  2  0  0  0
 13 25  1  0  0  0
  4  5  1  0  0  0
 15 14  2  0  0  0
 14 24  1  0  0  0
 25 26  1  0  0  0
 24 22  2  0  0  0
 26 27  1  0  0  0
 22 21  1  0  0  0
 27 28  1  0  0  0
 21 20  2  0  0  0
 28 32  1  0  0  0
 28 29  1  0  0  0
 28 33  1  0  0  0
 32 31  1  0  0  0
 29 30  1  0  0  0
 31 30  1  0  0  0
 33 34  1  0  0  0
 34 35  1  0  0  0
 35 36  1  0  0  0
M  CHG 1  28   1
M  END
> <minimizedAffinity>
-7.60961

$$$$
2Y5F_XWG_A_1244


 36 41  0  0  0  0  0  0  0  0999 V2000
   -2.9836   11.8666   21.1157 C   0  0  0  0  0  0  0  0  0  0  0  0
   -3.1582   11.3310   22.4841 N   0  0  0  0  0  0  0  0  0  0  0  0
   -2.7333   12.4381   23.3656 C   0  0  0  0  0  0  0  0  0  0  0  0
   -1.2256   12.2653   23.5433 C   0  0  0  0  0  0  0  0  0  0  0  0
   -0.9562   10.7886   23.2746 C   0  0  0  0  0  0  0  0  0  0  0  0
   -2.2655   10.1937   22.7528 C   0  0  0  0  0  0  0  0  0  0  0  0
   -3.1532   13.7276   22.6722 C   0  0  0  0  0  0  0  0  0  0  0  0
   -3.4861   13.3146   21.2435 C   0  0  0  0  0  0  0  0  0  0  0  0
   -4.9851   13.4591   21.1691 C   0  0  0  0  0  0  0  0  0  0  0  0
   -5.7047   13.2722   20.1738 O   0  0  0  0  0  0  0  0  0  0  0  0
   -4.4669   14.2103   23.2021 C   0  0  0  0  0  0  0  0  0  0  0  0
   -4.6325   14.8704   24.2265 O   0  0  0  0  0  0  0  0  0  0  0  0
   -5.4979   13.7417   22.4166 N   0  0  0  0  0  0  0  0  0  0  0  0
   -4.7772    9.6320   18.8473 C   0  0  0  0  0  0  0  0  0  0  0  0
   -4.4962    9.9990   20.1310 C   0  0  0  0  0  0  0  0  0  0  0  0
   -4.1978   10.4589   17.9679 O   0  0  0  0  0  0  0  0  0  0  0  0
   -3.4238   11.3769   18.6834 N   0  0  0  0  0  0  0  0  0  0  0  0
   -3.6094   11.1183   19.9656 C   0  0  0  0  0  0  0  0  0  0  0  0
   -6.9148    4.8458   17.5215 Cl  0  0  0  0  0  0  0  0  0  0  0  0
   -6.6243    6.5997   17.7988 C   0  0  0  0  0  0  0  0  0  0  0  0
   -7.4708    7.6267   17.4692 C   0  0  0  0  0  0  0  0  0  0  0  0
   -6.8896    8.8460   17.8105 C   0  0  0  0  0  0  0  0  0  0  0  0
   -5.1635    7.0128   18.5758 S   0  0  0  0  0  0  0  0  0  0  0  0
   -5.6622    8.6519   18.4153 C   0  0  0  0  0  0  0  0  0  0  0  0
   -6.8905   14.2240   22.5838 C   0  0  0  0  0  0  0  0  0  0  0  0
   -7.8166   13.4145   23.4676 C   0  0  0  0  0  0  0  0  0  0  0  0
   -7.8474   12.0093   22.8778 C   0  0  0  0  0  0  0  0  0  0  0  0
   -9.1660   11.5353   22.4103 N   0  0  0  0  0  0  0  0  0  0  0  0
   -9.0041   10.1643   21.8697 C   0  0  0  0  0  0  0  0  0  0  0  0
   -8.6759   10.3072   20.3917 C   0  0  0  0  0  0  0  0  0  0  0  0
   -9.4030   11.5671   19.9804 C   0  0  0  0  0  0  0  0  0  0  0  0
   -9.5857   12.3612   21.2576 C   0  0  0  0  0  0  0  0  0  0  0  0
  -10.2295   11.5646   23.4570 C   0  0  0  0  0  0  0  0  0  0  0  0
  -11.5432   12.2126   23.0138 C   0  0  0  0  0  0  0  0  0  0  0  0
  -11.9191   13.1997   23.9669 O   0  0  0  0  0  0  0  0  0  0  0  0
  -12.0342   12.7833   24.8354 H   0  0  0  0  0  0  0  0  0  0  0  0
  1  8  1  0  0  0
  1  2  1  0  0  0
  1 18  1  0  0  0
 23 24  1  0  0  0
 23 20  1  0  0  0
 19 20  1  0  0  0
  8  7  1  0  0  0
  8  9  1  0  0  0
  2  3  1  0  0  0
  2  6  1  0  0  0
 18 17  2  0  0  0
 18 15  1  0  0  0
  7  3  1  0  0  0
  7 11  1  0  0  0
  9 13  1  0  0  0
  9 10  2  0  0  0
  3  4  1  0  0  0
  6  5  1  0  0  0
 17 16  1  0  0  0
 16 14  1  0  0  0
 11 13  1  0  0  0
 11 12  2  0  0  0
 13 25  1  0  0  0
  4  5  1  0  0  0
 15 14  2  0  0  0
 14 24  1  0  0  0
 25 26  1  0  0  0
 24 22  2  0  0  0
 26 27  1  0  0  0
 22 21  1  0  0  0
 27 28  1  0  0  0
 21 20  2  0  0  0
 28 32  1  0  0  0
 28 29  1  0  0  0
 28 33  1  0  0  0
 32 31  1  0  0  0
 29 30  1  0  0  0
 31 30  1  0  0  0
 33 34  1  0  0  0
 34 35  1  0  0  0
 35 36  1  0  0  0
M  CHG 1  28   1
M  END
> <minimizedAffinity>
-7.59540

$$$$
2Y5F_XWG_A_1244


 36 41  0  0  0  0  0  0  0  0999 V2000
   -5.7832   13.6543   22.3050 C   0  0  0  0  0  0  0  0  0  0  0  0
   -6.8802   12.6644   22.2234 N   0  0  0  0  0  0  0  0  0  0  0  0
   -7.7558   13.1786   21.1499 C   0  0  0  0  0  0  0  0  0  0  0  0
   -8.7325   14.1309   21.8382 C   0  0  0  0  0  0  0  0  0  0  0  0
   -8.7757   13.6787   23.2940 C   0  0  0  0  0  0  0  0  0  0  0  0
   -7.6816   12.6215   23.4556 C   0  0  0  0  0  0  0  0  0  0  0  0
   -6.8408   13.8317   20.1222 C   0  0  0  0  0  0  0  0  0  0  0  0
   -5.4986   13.9788   20.8289 C   0  0  0  0  0  0  0  0  0  0  0  0
   -4.6155   12.9743   20.1327 C   0  0  0  0  0  0  0  0  0  0  0  0
   -3.4090   12.7676   20.3445 O   0  0  0  0  0  0  0  0  0  0  0  0
   -6.5358   12.8828   19.0059 C   0  0  0  0  0  0  0  0  0  0  0  0
   -7.2498   12.6665   18.0281 O   0  0  0  0  0  0  0  0  0  0  0  0
   -5.3605   12.2098   19.2613 N   0  0  0  0  0  0  0  0  0  0  0  0
   -3.0323   12.0993   24.1409 C   0  0  0  0  0  0  0  0  0  0  0  0
   -4.1796   11.9420   23.4196 C   0  0  0  0  0  0  0  0  0  0  0  0
   -2.6687   13.3867   24.2005 O   0  0  0  0  0  0  0  0  0  0  0  0
   -3.6551   14.1440   23.5623 N   0  0  0  0  0  0  0  0  0  0  0  0
   -4.5444   13.2917   23.0848 C   0  0  0  0  0  0  0  0  0  0  0  0
   -0.7105    8.5148   27.4569 Cl  0  0  0  0  0  0  0  0  0  0  0  0
   -1.1390    9.5581   26.0549 C   0  0  0  0  0  0  0  0  0  0  0  0
   -0.4646    9.6375   24.8638 C   0  0  0  0  0  0  0  0  0  0  0  0
   -1.0771   10.5758   24.0358 C   0  0  0  0  0  0  0  0  0  0  0  0
   -2.5401   10.5157   26.2226 S   0  0  0  0  0  0  0  0  0  0  0  0
   -2.1985   11.1079   24.6433 C   0  0  0  0  0  0  0  0  0  0  0  0
   -4.7091   11.3566   18.2377 C   0  0  0  0  0  0  0  0  0  0  0  0
   -4.5275    9.8868   18.5554 C   0  0  0  0  0  0  0  0  0  0  0  0
   -5.9291    9.3098   18.7164 C   0  0  0  0  0  0  0  0  0  0  0  0
   -6.4064    8.4573   17.6085 N   0  0  0  0  0  0  0  0  0  0  0  0
   -7.3203    7.4330   18.1683 C   0  0  0  0  0  0  0  0  0  0  0  0
   -6.4634    6.2356   18.5486 C   0  0  0  0  0  0  0  0  0  0  0  0
   -5.3363    6.2637   17.5416 C   0  0  0  0  0  0  0  0  0  0  0  0
   -5.2588    7.6996   17.0645 C   0  0  0  0  0  0  0  0  0  0  0  0
   -7.0737    9.2096   16.5056 C   0  0  0  0  0  0  0  0  0  0  0  0
   -6.2449    9.3329   15.2249 C   0  0  0  0  0  0  0  0  0  0  0  0
   -6.9823    8.7833   14.1395 O   0  0  0  0  0  0  0  0  0  0  0  0
   -7.1738    7.8494   14.3188 H   0  0  0  0  0  0  0  0  0  0  0  0
  1  8  1  0  0  0
  1  2  1  0  0  0
  1 18  1  0  0  0
 23 24  1  0  0  0
 23 20  1  0  0  0
 19 20  1  0  0  0
  8  7  1  0  0  0
  8  9  1  0  0  0
  2  3  1  0  0  0
  2  6  1  0  0  0
 18 17  2  0  0  0
 18 15  1  0  0  0
  7  3  1  0  0  0
  7 11  1  0  0  0
  9 13  1  0  0  0
  9 10  2  0  0  0
  3  4  1  0  0  0
  6  5  1  0  0  0
 17 16  1  0  0  0
 16 14  1  0  0  0
 11 13  1  0  0  0
 11 12  2  0  0  0
 13 25  1  0  0  0
  4  5  1  0  0  0
 15 14  2  0  0  0
 14 24  1  0  0  0
 25 26  1  0  0  0
 24 22  2  0  0  0
 26 27  1  0  0  0
 22 21  1  0  0  0
 27 28  1  0  0  0
 21 20  2  0  0  0
 28 32  1  0  0  0
 28 29  1  0  0  0
 28 33  1  0  0  0
 32 31  1  0  0  0
 29 30  1  0  0  0
 31 30  1  0  0  0
 33 34  1  0  0  0
 34 35  1  0  0  0
 35 36  1  0  0  0
M  CHG 1  28   1
M  END
> <minimizedAffinity>
-7.55149

$$$$
2Y5F_XWG_A_1244


 36 41  0  0  0  0  0  0  0  0999 V2000
   -2.7669   12.0606   21.6095 C   0  0  0  0  0  0  0  0  0  0  0  0
   -2.9347   11.2446   22.8325 N   0  0  0  0  0  0  0  0  0  0  0  0
   -2.6471   12.1818   23.9381 C   0  0  0  0  0  0  0  0  0  0  0  0
   -1.1364   12.1082   24.1556 C   0  0  0  0  0  0  0  0  0  0  0  0
   -0.7183   10.7462   23.6117 C   0  0  0  0  0  0  0  0  0  0  0  0
   -1.9468   10.1584   22.9146 C   0  0  0  0  0  0  0  0  0  0  0  0
   -3.1651   13.5439   23.4953 C   0  0  0  0  0  0  0  0  0  0  0  0
   -3.4095   13.4029   21.9976 C   0  0  0  0  0  0  0  0  0  0  0  0
   -4.9121   13.4287   21.8761 C   0  0  0  0  0  0  0  0  0  0  0  0
   -5.5772   13.3864   20.8276 O   0  0  0  0  0  0  0  0  0  0  0  0
   -4.5358   13.7925   24.0421 C   0  0  0  0  0  0  0  0  0  0  0  0
   -4.7975   14.2133   25.1677 O   0  0  0  0  0  0  0  0  0  0  0  0
   -5.4906   13.4058   23.1266 N   0  0  0  0  0  0  0  0  0  0  0  0
   -4.3034   10.2125   18.8564 C   0  0  0  0  0  0  0  0  0  0  0  0
   -4.1268   10.3534   20.2019 C   0  0  0  0  0  0  0  0  0  0  0  0
   -3.7014   11.2000   18.1816 O   0  0  0  0  0  0  0  0  0  0  0  0
   -3.0184   11.9989   19.1030 N   0  0  0  0  0  0  0  0  0  0  0  0
   -3.2798   11.5105   20.3024 C   0  0  0  0  0  0  0  0  0  0  0  0
   -8.2855    8.0535   15.9040 Cl  0  0  0  0  0  0  0  0  0  0  0  0
   -6.8396    8.3114   16.9436 C   0  0  0  0  0  0  0  0  0  0  0  0
   -6.0579    7.3358   17.5065 C   0  0  0  0  0  0  0  0  0  0  0  0
   -5.0496    7.9203   18.2699 C   0  0  0  0  0  0  0  0  0  0  0  0
   -6.3877    9.9315   17.2255 S   0  0  0  0  0  0  0  0  0  0  0  0
   -5.1138    9.2987   18.1940 C   0  0  0  0  0  0  0  0  0  0  0  0
   -6.9278   13.7210   23.3144 C   0  0  0  0  0  0  0  0  0  0  0  0
   -7.9023   12.5632   23.3755 C   0  0  0  0  0  0  0  0  0  0  0  0
   -8.8004   12.6977   22.1514 C   0  0  0  0  0  0  0  0  0  0  0  0
   -9.0359   11.4569   21.3852 N   0  0  0  0  0  0  0  0  0  0  0  0
   -9.9934   11.7572   20.2938 C   0  0  0  0  0  0  0  0  0  0  0  0
  -11.3885   11.5235   20.8523 C   0  0  0  0  0  0  0  0  0  0  0  0
  -11.1924   10.4161   21.8625 C   0  0  0  0  0  0  0  0  0  0  0  0
   -9.7313   10.4857   22.2570 C   0  0  0  0  0  0  0  0  0  0  0  0
   -7.7946   10.8347   20.8379 C   0  0  0  0  0  0  0  0  0  0  0  0
   -7.8342    9.3076   20.7443 C   0  0  0  0  0  0  0  0  0  0  0  0
   -6.7819    8.7662   21.5337 O   0  0  0  0  0  0  0  0  0  0  0  0
   -5.9300    9.0940   21.2055 H   0  0  0  0  0  0  0  0  0  0  0  0
  1  8  1  0  0  0
  1  2  1  0  0  0
  1 18  1  0  0  0
 23 24  1  0  0  0
 23 20  1  0  0  0
 19 20  1  0  0  0
  8  7  1  0  0  0
  8  9  1  0  0  0
  2  3  1  0  0  0
  2  6  1  0  0  0
 18 17  2  0  0  0
 18 15  1  0  0  0
  7  3  1  0  0  0
  7 11  1  0  0  0
  9 13  1  0  0  0
  9 10  2  0  0  0
  3  4  1  0  0  0
  6  5  1  0  0  0
 17 16  1  0  0  0
 16 14  1  0  0  0
 11 13  1  0  0  0
 11 12  2  0  0  0
 13 25  1  0  0  0
  4  5  1  0  0  0
 15 14  2  0  0  0
 14 24  1  0  0  0
 25 26  1  0  0  0
 24 22  2  0  0  0
 26 27  1  0  0  0
 22 21  1  0  0  0
 27 28  1  0  0  0
 21 20  2  0  0  0
 28 32  1  0  0  0
 28 29  1  0  0  0
 28 33  1  0  0  0
 32 31  1  0  0  0
 29 30  1  0  0  0
 31 30  1  0  0  0
 33 34  1  0  0  0
 34 35  1  0  0  0
 35 36  1  0  0  0
M  CHG 1  28   1
M  END
> <minimizedAffinity>
-7.38289

$$$$
2Y5F_XWG_A_1244


 36 41  0  0  0  0  0  0  0  0999 V2000
   -6.1582    9.1093   18.9304 C   0  0  0  0  0  0  0  0  0  0  0  0
   -5.4641    8.1392   18.0547 N   0  0  0  0  0  0  0  0  0  0  0  0
   -6.4253    7.8818   16.9622 C   0  0  0  0  0  0  0  0  0  0  0  0
   -7.3060    6.7337   17.4531 C   0  0  0  0  0  0  0  0  0  0  0  0
   -6.4684    6.0029   18.4970 C   0  0  0  0  0  0  0  0  0  0  0  0
   -5.2204    6.8564   18.7312 C   0  0  0  0  0  0  0  0  0  0  0  0
   -7.1601    9.1930   16.7159 C   0  0  0  0  0  0  0  0  0  0  0  0
   -6.8358   10.0584   17.9277 C   0  0  0  0  0  0  0  0  0  0  0  0
   -5.9264   11.1253   17.3727 C   0  0  0  0  0  0  0  0  0  0  0  0
   -5.4398   12.0870   17.9904 O   0  0  0  0  0  0  0  0  0  0  0  0
   -6.5354    9.9454   15.5831 C   0  0  0  0  0  0  0  0  0  0  0  0
   -6.7529    9.7591   14.3870 O   0  0  0  0  0  0  0  0  0  0  0  0
   -5.6050   10.8417   16.0630 N   0  0  0  0  0  0  0  0  0  0  0  0
   -3.6431   10.5458   21.1589 C   0  0  0  0  0  0  0  0  0  0  0  0
   -3.9191    9.7987   20.0512 C   0  0  0  0  0  0  0  0  0  0  0  0
   -4.7612   11.0522   21.6941 O   0  0  0  0  0  0  0  0  0  0  0  0
   -5.8490   10.5607   20.9669 N   0  0  0  0  0  0  0  0  0  0  0  0
   -5.3547    9.8301   19.9835 C   0  0  0  0  0  0  0  0  0  0  0  0
    1.2522   12.8007   21.5902 Cl  0  0  0  0  0  0  0  0  0  0  0  0
   -0.2530   11.8544   21.8665 C   0  0  0  0  0  0  0  0  0  0  0  0
   -0.4996   11.0058   22.9148 C   0  0  0  0  0  0  0  0  0  0  0  0
   -1.7606   10.4312   22.7708 C   0  0  0  0  0  0  0  0  0  0  0  0
   -1.5007   12.0635   20.7229 S   0  0  0  0  0  0  0  0  0  0  0  0
   -2.3968   10.9204   21.6457 C   0  0  0  0  0  0  0  0  0  0  0  0
   -4.9766   11.8612   15.1878 C   0  0  0  0  0  0  0  0  0  0  0  0
   -3.4821   11.7710   14.9593 C   0  0  0  0  0  0  0  0  0  0  0  0
   -3.0449   13.1417   14.4560 C   0  0  0  0  0  0  0  0  0  0  0  0
   -1.9592   13.7920   15.2178 N   0  0  0  0  0  0  0  0  0  0  0  0
   -2.1203   13.4432   16.6497 C   0  0  0  0  0  0  0  0  0  0  0  0
   -3.0148   14.5072   17.2665 C   0  0  0  0  0  0  0  0  0  0  0  0
   -2.6941   15.7532   16.4729 C   0  0  0  0  0  0  0  0  0  0  0  0
   -2.1445   15.2576   15.1509 C   0  0  0  0  0  0  0  0  0  0  0  0
   -0.5883   13.4415   14.7432 C   0  0  0  0  0  0  0  0  0  0  0  0
   -0.3067   11.9396   14.6591 C   0  0  0  0  0  0  0  0  0  0  0  0
    0.7665   11.6182   15.5360 O   0  0  0  0  0  0  0  0  0  0  0  0
    1.5571   12.1163   15.2755 H   0  0  0  0  0  0  0  0  0  0  0  0
  1  8  1  0  0  0
  1  2  1  0  0  0
  1 18  1  0  0  0
 23 24  1  0  0  0
 23 20  1  0  0  0
 19 20  1  0  0  0
  8  7  1  0  0  0
  8  9  1  0  0  0
  2  3  1  0  0  0
  2  6  1  0  0  0
 18 17  2  0  0  0
 18 15  1  0  0  0
  7  3  1  0  0  0
  7 11  1  0  0  0
  9 13  1  0  0  0
  9 10  2  0  0  0
  3  4  1  0  0  0
  6  5  1  0  0  0
 17 16  1  0  0  0
 16 14  1  0  0  0
 11 13  1  0  0  0
 11 12  2  0  0  0
 13 25  1  0  0  0
  4  5  1  0  0  0
 15 14  2  0  0  0
 14 24  1  0  0  0
 25 26  1  0  0  0
 24 22  2  0  0  0
 26 27  1  0  0  0
 22 21  1  0  0  0
 27 28  1  0  0  0
 21 20  2  0  0  0
 28 32  1  0  0  0
 28 29  1  0  0  0
 28 33  1  0  0  0
 32 31  1  0  0  0
 29 30  1  0  0  0
 31 30  1  0  0  0
 33 34  1  0  0  0
 34 35  1  0  0  0
 35 36  1  0  0  0
M  CHG 1  28   1
M  END
> <minimizedAffinity>
-7.34216

$$$$
