1SR7_MOF_A_301


 36 40  0  0  0  0  0  0  0  0999 V2000
   -4.9628  -11.5076   30.2686 O   0  0  0  0  0  0  0  0  0  0  0  0
   -4.5654  -10.5973   29.5677 C   0  0  0  0  0  0  0  0  0  0  0  0
   -5.5526   -9.6148   29.0521 C   0  0  0  0  0  0  0  0  0  0  0  0
   -3.1719  -10.5675   29.0797 C   0  0  0  0  0  0  0  0  0  0  0  0
   -2.6890   -9.6489   28.1561 C   0  0  0  0  0  0  0  0  0  0  0  0
   -1.2113   -9.6918   27.7142 C   0  0  0  0  0  0  0  0  0  0  0  0
   -3.5734   -8.5096   27.6675 C   0  0  0  0  0  0  0  0  0  0  0  0
   -5.0289   -8.5927   28.1075 C   0  0  0  0  0  0  0  0  0  0  0  0
   -3.0354   -7.2056   28.2958 C   0  0  0  0  0  0  0  0  0  0  0  0
   -3.4683   -8.5497   26.1127 C   0  0  0  0  0  0  0  0  0  0  0  0
   -4.1020  -10.1825   25.5320 Cl  0  0  0  0  0  0  0  0  0  0  0  0
   -4.4058   -7.5607   25.3746 C   0  0  0  0  0  0  0  0  0  0  0  0
   -4.4470   -6.2259   25.7952 O   0  0  0  0  0  0  0  0  0  0  0  0
   -1.9967   -8.4371   25.6230 C   0  0  0  0  0  0  0  0  0  0  0  0
   -1.2077   -9.6208   26.1649 C   0  0  0  0  0  0  0  0  0  0  0  0
   -1.9693   -8.3543   24.1036 C   0  0  0  0  0  0  0  0  0  0  0  0
   -0.6583   -8.3856   23.2566 C   0  0  0  0  0  0  0  0  0  0  0  0
   -1.1143   -8.0522   21.8876 C   0  0  0  0  0  0  0  0  0  0  0  0
   -0.4056   -8.9648   20.8828 C   0  0  0  0  0  0  0  0  0  0  0  0
   -2.9513   -7.4138   23.3864 C   0  0  0  0  0  0  0  0  0  0  0  0
   -4.4109   -7.6454   23.9003 C   0  0  0  0  0  0  0  0  0  0  0  0
   -2.5404   -5.9562   23.7569 C   0  0  0  0  0  0  0  0  0  0  0  0
   -2.6061   -7.7017   21.9097 C   0  0  0  0  0  0  0  0  0  0  0  0
   -3.6391   -5.7717   25.5090 H   0  0  0  0  0  0  0  0  0  0  0  0
   -3.1480   -6.7061   21.0066 C   0  0  0  0  0  0  0  0  0  0  0  0
   -2.3345   -6.0593   20.3182 O   0  0  0  0  0  0  0  0  0  0  0  0
   -4.5720   -6.4226   21.0288 C   0  0  0  0  0  0  0  0  0  0  0  0
   -5.0241   -5.6240   19.5612 Cl  0  0  0  0  0  0  0  0  0  0  0  0
   -3.2830   -9.0048   21.7330 O   0  0  0  0  0  0  0  0  0  0  0  0
   -3.4209   -9.4452   20.4351 C   0  0  0  0  0  0  0  0  0  0  0  0
   -3.2823   -8.7753   19.4185 O   0  0  0  0  0  0  0  0  0  0  0  0
   -3.5971  -10.8981   20.4865 C   0  0  0  0  0  0  0  0  0  0  0  0
   -4.1622  -11.5762   19.5155 C   0  0  0  0  0  0  0  0  0  0  0  0
   -4.1779  -12.9320   19.9012 C   0  0  0  0  0  0  0  0  0  0  0  0
   -3.6349  -12.9821   21.1894 C   0  0  0  0  0  0  0  0  0  0  0  0
   -3.2500  -11.7092   21.5884 O   0  0  0  0  0  0  0  0  0  0  0  0
  1  2  2  0  0  0
  2  3  1  0  0  0
  2  4  1  0  0  0
  3  8  2  0  0  0
  4  5  2  0  0  0
  5  6  1  0  0  0
  5  7  1  0  0  0
  6 15  1  0  0  0
  7  8  1  0  0  0
  7  9  1  0  0  0
  7 10  1  0  0  0
 10 11  1  0  0  0
 10 12  1  0  0  0
 10 14  1  0  0  0
 12 13  1  0  0  0
 12 21  1  0  0  0
 14 15  1  0  0  0
 14 16  1  0  0  0
 16 17  1  0  0  0
 16 20  1  0  0  0
 17 18  1  0  0  0
 18 19  1  0  0  0
 18 23  1  0  0  0
 20 21  1  0  0  0
 20 22  1  0  0  0
 20 23  1  0  0  0
 23 25  1  0  0  0
 23 29  1  0  0  0
 25 26  2  0  0  0
 25 27  1  0  0  0
 27 28  1  0  0  0
 29 30  1  0  0  0
 30 31  2  0  0  0
 30 32  1  0  0  0
 32 33  2  0  0  0
 32 36  1  0  0  0
 33 34  1  0  0  0
 34 35  2  0  0  0
 35 36  1  0  0  0
 13 24  1  0  0  0
M  END
> <minimizedAffinity>
-13.22318

$$$$
