1C1V_BAB_H_410


 36 39  0  0  0  0  0  0  0  0999 V2000
   14.8978  -13.6324   18.5046 C   0  0  0  0  0  0  0  0  0  0  0  0
   12.0465  -11.5183   23.3175 C   0  0  0  0  0  0  0  0  0  0  0  0
   12.8372  -10.4020   22.9130 C   0  0  0  0  0  0  0  0  0  0  0  0
   13.6417  -10.4263   21.7841 C   0  0  0  0  0  0  0  0  0  0  0  0
   13.6366  -11.5897   21.0736 C   0  0  0  0  0  0  0  0  0  0  0  0
   12.9124  -12.6894   21.3956 C   0  0  0  0  0  0  0  0  0  0  0  0
   12.0951  -12.7032   22.5132 C   0  0  0  0  0  0  0  0  0  0  0  0
   14.0815  -13.0574   19.6787 C   0  0  0  0  0  0  0  0  0  0  0  0
   14.3390  -11.8381   20.0162 N   0  0  0  0  0  0  0  0  0  0  0  0
   13.2042  -13.6103   20.4963 N   0  0  0  0  0  0  0  0  0  0  0  0
   14.9511  -11.2179   19.5579 H   0  0  0  0  0  0  0  0  0  0  0  0
   12.8414  -14.5241   20.4454 H   0  0  0  0  0  0  0  0  0  0  0  0
   11.2786  -11.4289   24.4804 C   0  0  0  0  0  0  0  0  0  0  0  0
   10.9513  -10.2457   24.9498 N   0  0  0  0  0  0  0  0  0  0  0  0
   10.8809  -12.5415   25.0670 N   0  0  0  0  0  0  0  0  0  0  0  0
   11.2619   -9.4314   24.4921 H   0  0  0  0  0  0  0  0  0  0  0  0
   10.3955  -10.1738   25.7593 H   0  0  0  0  0  0  0  0  0  0  0  0
   11.1407  -13.4148   24.6939 H   0  0  0  0  0  0  0  0  0  0  0  0
   10.3243  -12.4987   25.8779 H   0  0  0  0  0  0  0  0  0  0  0  0
   20.1793  -14.9777   21.0091 C   0  0  0  0  0  0  0  0  0  0  0  0
   20.7377  -14.2095   19.9643 C   0  0  0  0  0  0  0  0  0  0  0  0
   19.9069  -13.5951   18.9911 C   0  0  0  0  0  0  0  0  0  0  0  0
   18.5406  -13.7867   19.1300 C   0  0  0  0  0  0  0  0  0  0  0  0
   18.0308  -14.5192   20.1286 C   0  0  0  0  0  0  0  0  0  0  0  0
   18.7856  -15.1221   21.0742 C   0  0  0  0  0  0  0  0  0  0  0  0
   16.4051  -13.8411   18.9847 C   0  0  0  0  0  0  0  0  0  0  0  0
   17.5147  -13.3699   18.4221 N   0  0  0  0  0  0  0  0  0  0  0  0
   16.7291  -14.5495   20.0390 N   0  0  0  0  0  0  0  0  0  0  0  0
   16.1097  -15.0149   20.6465 H   0  0  0  0  0  0  0  0  0  0  0  0
   20.9073  -15.6150   21.9810 C   0  0  0  0  0  0  0  0  0  0  0  0
   21.1071  -16.8841   21.7925 N   0  0  0  0  0  0  0  0  0  0  0  0
   21.3789  -14.9463   23.0052 N   0  0  0  0  0  0  0  0  0  0  0  0
   20.7258  -17.3304   21.0022 H   0  0  0  0  0  0  0  0  0  0  0  0
   21.6399  -17.4000   22.4400 H   0  0  0  0  0  0  0  0  0  0  0  0
   21.1927  -13.9836   23.0925 H   0  0  0  0  0  0  0  0  0  0  0  0
   21.9194  -15.4069   23.6871 H   0  0  0  0  0  0  0  0  0  0  0  0
 20 21  1  0  0  0
 20 25  2  0  0  0
 20 30  1  0  0  0
 21 22  2  0  0  0
 22 23  1  0  0  0
 23 24  2  0  0  0
 23 27  1  0  0  0
 24 25  1  0  0  0
 24 28  1  0  0  0
 30 31  2  0  0  0
 30 32  1  0  0  0
 26  1  1  0  0  0
 26 27  2  0  0  0
 26 28  1  0  0  0
  1  8  1  0  0  0
  2  3  1  0  0  0
  2  7  2  0  0  0
  2 13  1  0  0  0
  3  4  2  0  0  0
  4  5  1  0  0  0
  5  6  2  0  0  0
  5  9  1  0  0  0
  6  7  1  0  0  0
  6 10  1  0  0  0
 13 14  2  0  0  0
 13 15  1  0  0  0
  8  9  2  0  0  0
  8 10  1  0  0  0
 31 33  1  0  0  0
 31 34  1  0  0  0
 32 35  1  0  0  0
 32 36  1  0  0  0
 28 29  1  0  0  0
 14 16  1  0  0  0
 14 17  1  0  0  0
 15 18  1  0  0  0
 15 19  1  0  0  0
  9 11  1  0  0  0
 10 12  1  0  0  0
M  CHG 1   9   1
M  CHG 1  14   1
M  CHG 1  31   1
M  END
> <minimizedAffinity>
-9.35241

$$$$
1C1V_BAB_H_410


 36 39  0  0  0  0  0  0  0  0999 V2000
   16.0734  -14.4713   19.4686 C   0  0  0  0  0  0  0  0  0  0  0  0
   16.2623  -12.5482   13.8091 C   0  0  0  0  0  0  0  0  0  0  0  0
   15.1256  -11.8613   14.3299 C   0  0  0  0  0  0  0  0  0  0  0  0
   14.7267  -11.9732   15.6531 C   0  0  0  0  0  0  0  0  0  0  0  0
   15.4888  -12.7860   16.4385 C   0  0  0  0  0  0  0  0  0  0  0  0
   16.5805  -13.4688   16.0150 C   0  0  0  0  0  0  0  0  0  0  0  0
   17.0121  -13.3808   14.7023 C   0  0  0  0  0  0  0  0  0  0  0  0
   16.1890  -13.8959   18.0434 C   0  0  0  0  0  0  0  0  0  0  0  0
   15.2734  -13.0595   17.6843 N   0  0  0  0  0  0  0  0  0  0  0  0
   17.0148  -14.1652   17.0486 N   0  0  0  0  0  0  0  0  0  0  0  0
   14.5516  -12.6997   18.2489 H   0  0  0  0  0  0  0  0  0  0  0  0
   17.7960  -14.7639   17.0731 H   0  0  0  0  0  0  0  0  0  0  0  0
   16.5897  -12.4061   12.4591 C   0  0  0  0  0  0  0  0  0  0  0  0
   16.9867  -11.2366   12.0095 N   0  0  0  0  0  0  0  0  0  0  0  0
   16.5132  -13.4617   11.6716 N   0  0  0  0  0  0  0  0  0  0  0  0
   17.0345  -10.4652   12.6193 H   0  0  0  0  0  0  0  0  0  0  0  0
   17.2361  -11.1319   11.0629 H   0  0  0  0  0  0  0  0  0  0  0  0
   16.2126  -14.3259   12.0348 H   0  0  0  0  0  0  0  0  0  0  0  0
   16.7566  -13.3851   10.7208 H   0  0  0  0  0  0  0  0  0  0  0  0
   12.3385  -11.5721   23.1593 C   0  0  0  0  0  0  0  0  0  0  0  0
   12.9177  -10.3971   22.6326 C   0  0  0  0  0  0  0  0  0  0  0  0
   13.9360  -10.4691   21.6463 C   0  0  0  0  0  0  0  0  0  0  0  0
   14.3152  -11.7381   21.2359 C   0  0  0  0  0  0  0  0  0  0  0  0
   13.7532  -12.8405   21.7481 C   0  0  0  0  0  0  0  0  0  0  0  0
   12.7827  -12.8167   22.6890 C   0  0  0  0  0  0  0  0  0  0  0  0
   15.1791  -13.4838   20.3467 C   0  0  0  0  0  0  0  0  0  0  0  0
   15.2051  -12.1538   20.3626 N   0  0  0  0  0  0  0  0  0  0  0  0
   14.2800  -13.9032   21.2036 N   0  0  0  0  0  0  0  0  0  0  0  0
   14.0469  -14.8396   21.3987 H   0  0  0  0  0  0  0  0  0  0  0  0
   11.3614  -11.5940   24.1213 C   0  0  0  0  0  0  0  0  0  0  0  0
   10.6174  -12.6580   24.1430 N   0  0  0  0  0  0  0  0  0  0  0  0
   11.2358  -10.5986   24.9651 N   0  0  0  0  0  0  0  0  0  0  0  0
   10.7609  -13.3725   23.4811 H   0  0  0  0  0  0  0  0  0  0  0  0
    9.9099  -12.7502   24.8214 H   0  0  0  0  0  0  0  0  0  0  0  0
   11.8314   -9.8176   24.8972 H   0  0  0  0  0  0  0  0  0  0  0  0
   10.5461  -10.6322   25.6668 H   0  0  0  0  0  0  0  0  0  0  0  0
 20 21  1  0  0  0
 20 25  2  0  0  0
 20 30  1  0  0  0
 21 22  2  0  0  0
 22 23  1  0  0  0
 23 24  2  0  0  0
 23 27  1  0  0  0
 24 25  1  0  0  0
 24 28  1  0  0  0
 30 31  2  0  0  0
 30 32  1  0  0  0
 26  1  1  0  0  0
 26 27  2  0  0  0
 26 28  1  0  0  0
  1  8  1  0  0  0
  2  3  1  0  0  0
  2  7  2  0  0  0
  2 13  1  0  0  0
  3  4  2  0  0  0
  4  5  1  0  0  0
  5  6  2  0  0  0
  5  9  1  0  0  0
  6  7  1  0  0  0
  6 10  1  0  0  0
 13 14  2  0  0  0
 13 15  1  0  0  0
  8  9  2  0  0  0
  8 10  1  0  0  0
 31 33  1  0  0  0
 31 34  1  0  0  0
 32 35  1  0  0  0
 32 36  1  0  0  0
 28 29  1  0  0  0
 14 16  1  0  0  0
 14 17  1  0  0  0
 15 18  1  0  0  0
 15 19  1  0  0  0
  9 11  1  0  0  0
 10 12  1  0  0  0
M  CHG 1   9   1
M  CHG 1  14   1
M  CHG 1  31   1
M  END
> <minimizedAffinity>
-9.15805

$$$$
1C1V_BAB_H_410


 36 39  0  0  0  0  0  0  0  0999 V2000
   16.1365  -14.3761   19.5584 C   0  0  0  0  0  0  0  0  0  0  0  0
   16.0353  -12.7338   13.8090 C   0  0  0  0  0  0  0  0  0  0  0  0
   16.7454  -13.9702   13.7635 C   0  0  0  0  0  0  0  0  0  0  0  0
   16.9671  -14.7462   14.8909 C   0  0  0  0  0  0  0  0  0  0  0  0
   16.4642  -14.2567   16.0595 C   0  0  0  0  0  0  0  0  0  0  0  0
   15.7801  -13.0926   16.1798 C   0  0  0  0  0  0  0  0  0  0  0  0
   15.5359  -12.2916   15.0771 C   0  0  0  0  0  0  0  0  0  0  0  0
   16.0145  -14.0045   18.0675 C   0  0  0  0  0  0  0  0  0  0  0  0
   16.5894  -14.7986   17.2274 N   0  0  0  0  0  0  0  0  0  0  0  0
   15.4988  -12.9506   17.4614 N   0  0  0  0  0  0  0  0  0  0  0  0
   17.0362  -15.6509   17.4353 H   0  0  0  0  0  0  0  0  0  0  0  0
   15.0047  -12.2093   17.8806 H   0  0  0  0  0  0  0  0  0  0  0  0
   15.8714  -11.9941   12.6360 C   0  0  0  0  0  0  0  0  0  0  0  0
   16.9034  -11.3665   12.1177 N   0  0  0  0  0  0  0  0  0  0  0  0
   14.6831  -11.9637   12.0640 N   0  0  0  0  0  0  0  0  0  0  0  0
   17.7792  -11.4059   12.5656 H   0  0  0  0  0  0  0  0  0  0  0  0
   16.8006  -10.8571   11.2815 H   0  0  0  0  0  0  0  0  0  0  0  0
   13.9271  -12.4430   12.4739 H   0  0  0  0  0  0  0  0  0  0  0  0
   14.5523  -11.4619   11.2272 H   0  0  0  0  0  0  0  0  0  0  0  0
   12.3015  -11.5233   23.1820 C   0  0  0  0  0  0  0  0  0  0  0  0
   12.7971  -10.3439   22.5846 C   0  0  0  0  0  0  0  0  0  0  0  0
   13.7989  -10.4044   21.5807 C   0  0  0  0  0  0  0  0  0  0  0  0
   14.2475  -11.6675   21.2258 C   0  0  0  0  0  0  0  0  0  0  0  0
   13.7643  -12.7743   21.8048 C   0  0  0  0  0  0  0  0  0  0  0  0
   12.8125  -12.7611   22.7647 C   0  0  0  0  0  0  0  0  0  0  0  0
   15.2001  -13.4009   20.4059 C   0  0  0  0  0  0  0  0  0  0  0  0
   15.1444  -12.0727   20.3548 N   0  0  0  0  0  0  0  0  0  0  0  0
   14.3450  -13.8295   21.3023 N   0  0  0  0  0  0  0  0  0  0  0  0
   14.1738  -14.7671   21.5491 H   0  0  0  0  0  0  0  0  0  0  0  0
   11.3462  -11.5550   24.1655 C   0  0  0  0  0  0  0  0  0  0  0  0
   10.6775  -12.6637   24.2642 N   0  0  0  0  0  0  0  0  0  0  0  0
   11.1685  -10.5231   24.9541 N   0  0  0  0  0  0  0  0  0  0  0  0
   10.8573  -13.4041   23.6408 H   0  0  0  0  0  0  0  0  0  0  0  0
    9.9907  -12.7638   24.9624 H   0  0  0  0  0  0  0  0  0  0  0  0
   11.7077   -9.7090   24.8286 H   0  0  0  0  0  0  0  0  0  0  0  0
   10.4957  -10.5621   25.6718 H   0  0  0  0  0  0  0  0  0  0  0  0
 20 21  1  0  0  0
 20 25  2  0  0  0
 20 30  1  0  0  0
 21 22  2  0  0  0
 22 23  1  0  0  0
 23 24  2  0  0  0
 23 27  1  0  0  0
 24 25  1  0  0  0
 24 28  1  0  0  0
 30 31  2  0  0  0
 30 32  1  0  0  0
 26  1  1  0  0  0
 26 27  2  0  0  0
 26 28  1  0  0  0
  1  8  1  0  0  0
  2  3  1  0  0  0
  2  7  2  0  0  0
  2 13  1  0  0  0
  3  4  2  0  0  0
  4  5  1  0  0  0
  5  6  2  0  0  0
  5  9  1  0  0  0
  6  7  1  0  0  0
  6 10  1  0  0  0
 13 14  2  0  0  0
 13 15  1  0  0  0
  8  9  2  0  0  0
  8 10  1  0  0  0
 31 33  1  0  0  0
 31 34  1  0  0  0
 32 35  1  0  0  0
 32 36  1  0  0  0
 28 29  1  0  0  0
 14 16  1  0  0  0
 14 17  1  0  0  0
 15 18  1  0  0  0
 15 19  1  0  0  0
  9 11  1  0  0  0
 10 12  1  0  0  0
M  CHG 1   9   1
M  CHG 1  14   1
M  CHG 1  31   1
M  END
> <minimizedAffinity>
-9.07843

$$$$
1C1V_BAB_H_410


 36 39  0  0  0  0  0  0  0  0999 V2000
   16.1768  -14.1089   19.3938 C   0  0  0  0  0  0  0  0  0  0  0  0
   12.3221  -11.6203   23.2293 C   0  0  0  0  0  0  0  0  0  0  0  0
   12.9435  -10.4820   22.6353 C   0  0  0  0  0  0  0  0  0  0  0  0
   13.8928  -10.5885   21.6304 C   0  0  0  0  0  0  0  0  0  0  0  0
   14.2044  -11.8559   21.2370 C   0  0  0  0  0  0  0  0  0  0  0  0
   13.6564  -12.9829   21.7537 C   0  0  0  0  0  0  0  0  0  0  0  0
   12.7033  -12.9179   22.7560 C   0  0  0  0  0  0  0  0  0  0  0  0
   15.1081  -13.4712   20.3032 C   0  0  0  0  0  0  0  0  0  0  0  0
   15.0854  -12.1811   20.3474 N   0  0  0  0  0  0  0  0  0  0  0  0
   14.2392  -13.9992   21.1458 N   0  0  0  0  0  0  0  0  0  0  0  0
   15.6323  -11.5646   19.8088 H   0  0  0  0  0  0  0  0  0  0  0  0
   14.0621  -14.9567   21.2912 H   0  0  0  0  0  0  0  0  0  0  0  0
   11.3915  -11.4364   24.2541 C   0  0  0  0  0  0  0  0  0  0  0  0
   10.6545  -12.4508   24.6482 N   0  0  0  0  0  0  0  0  0  0  0  0
   11.2928  -10.2478   24.8178 N   0  0  0  0  0  0  0  0  0  0  0  0
   10.7486  -13.3273   24.2099 H   0  0  0  0  0  0  0  0  0  0  0  0
   10.0084  -12.3342   25.3818 H   0  0  0  0  0  0  0  0  0  0  0  0
   11.8572   -9.5052   24.5027 H   0  0  0  0  0  0  0  0  0  0  0  0
   10.6547  -10.1034   25.5535 H   0  0  0  0  0  0  0  0  0  0  0  0
   16.2849  -12.4935   13.6185 C   0  0  0  0  0  0  0  0  0  0  0  0
   15.1994  -11.6552   13.9540 C   0  0  0  0  0  0  0  0  0  0  0  0
   14.6974  -11.6139   15.2811 C   0  0  0  0  0  0  0  0  0  0  0  0
   15.3292  -12.4265   16.2101 C   0  0  0  0  0  0  0  0  0  0  0  0
   16.3576  -13.2147   15.8715 C   0  0  0  0  0  0  0  0  0  0  0  0
   16.8651  -13.2852   14.6204 C   0  0  0  0  0  0  0  0  0  0  0  0
   16.0125  -13.5177   17.9209 C   0  0  0  0  0  0  0  0  0  0  0  0
   15.1229  -12.6261   17.4927 N   0  0  0  0  0  0  0  0  0  0  0  0
   16.7736  -13.8775   16.9160 N   0  0  0  0  0  0  0  0  0  0  0  0
   17.5160  -14.5234   16.9438 H   0  0  0  0  0  0  0  0  0  0  0  0
   16.8228  -12.6042   12.3618 C   0  0  0  0  0  0  0  0  0  0  0  0
   16.5230  -11.6484   11.5357 N   0  0  0  0  0  0  0  0  0  0  0  0
   17.6078  -13.6099   12.0602 N   0  0  0  0  0  0  0  0  0  0  0  0
   15.9267  -10.9192   11.8220 H   0  0  0  0  0  0  0  0  0  0  0  0
   16.8920  -11.6529   10.6229 H   0  0  0  0  0  0  0  0  0  0  0  0
   17.7974  -14.3048   12.7313 H   0  0  0  0  0  0  0  0  0  0  0  0
   18.0076  -13.6702   11.1626 H   0  0  0  0  0  0  0  0  0  0  0  0
 20 21  1  0  0  0
 20 25  2  0  0  0
 20 30  1  0  0  0
 21 22  2  0  0  0
 22 23  1  0  0  0
 23 24  2  0  0  0
 23 27  1  0  0  0
 24 25  1  0  0  0
 24 28  1  0  0  0
 30 31  2  0  0  0
 30 32  1  0  0  0
 26  1  1  0  0  0
 26 27  2  0  0  0
 26 28  1  0  0  0
  1  8  1  0  0  0
  2  3  1  0  0  0
  2  7  2  0  0  0
  2 13  1  0  0  0
  3  4  2  0  0  0
  4  5  1  0  0  0
  5  6  2  0  0  0
  5  9  1  0  0  0
  6  7  1  0  0  0
  6 10  1  0  0  0
 13 14  2  0  0  0
 13 15  1  0  0  0
  8  9  2  0  0  0
  8 10  1  0  0  0
 31 33  1  0  0  0
 31 34  1  0  0  0
 32 35  1  0  0  0
 32 36  1  0  0  0
 28 29  1  0  0  0
 14 16  1  0  0  0
 14 17  1  0  0  0
 15 18  1  0  0  0
 15 19  1  0  0  0
  9 11  1  0  0  0
 10 12  1  0  0  0
M  CHG 1   9   1
M  CHG 1  14   1
M  CHG 1  31   1
M  END
> <minimizedAffinity>
-8.72936

$$$$
1C1V_BAB_H_410


 36 39  0  0  0  0  0  0  0  0999 V2000
   14.7407  -13.2114   19.6580 C   0  0  0  0  0  0  0  0  0  0  0  0
   19.9326  -15.5375   21.5013 C   0  0  0  0  0  0  0  0  0  0  0  0
   20.3343  -14.7180   20.4049 C   0  0  0  0  0  0  0  0  0  0  0  0
   19.4405  -13.9346   19.6910 C   0  0  0  0  0  0  0  0  0  0  0  0
   18.1409  -13.9916   20.0983 C   0  0  0  0  0  0  0  0  0  0  0  0
   17.6858  -14.7449   21.1292 C   0  0  0  0  0  0  0  0  0  0  0  0
   18.5474  -15.5380   21.8680 C   0  0  0  0  0  0  0  0  0  0  0  0
   16.0874  -13.7269   20.2026 C   0  0  0  0  0  0  0  0  0  0  0  0
   17.1447  -13.3738   19.5512 N   0  0  0  0  0  0  0  0  0  0  0  0
   16.3799  -14.5612   21.1835 N   0  0  0  0  0  0  0  0  0  0  0  0
   17.1850  -12.7547   18.7868 H   0  0  0  0  0  0  0  0  0  0  0  0
   15.7514  -14.9643   21.8252 H   0  0  0  0  0  0  0  0  0  0  0  0
   20.8854  -16.3187   22.1583 C   0  0  0  0  0  0  0  0  0  0  0  0
   21.2289  -17.4818   21.6516 N   0  0  0  0  0  0  0  0  0  0  0  0
   21.4350  -15.8551   23.2643 N   0  0  0  0  0  0  0  0  0  0  0  0
   20.8025  -17.8038   20.8247 H   0  0  0  0  0  0  0  0  0  0  0  0
   21.9126  -18.0311   22.0990 H   0  0  0  0  0  0  0  0  0  0  0  0
   21.1590  -14.9804   23.6219 H   0  0  0  0  0  0  0  0  0  0  0  0
   22.1213  -16.3838   23.7320 H   0  0  0  0  0  0  0  0  0  0  0  0
   11.9424  -10.2729   24.0752 C   0  0  0  0  0  0  0  0  0  0  0  0
   11.2503  -11.4855   24.2847 C   0  0  0  0  0  0  0  0  0  0  0  0
   11.5153  -12.6216   23.4761 C   0  0  0  0  0  0  0  0  0  0  0  0
   12.4802  -12.4723   22.4916 C   0  0  0  0  0  0  0  0  0  0  0  0
   13.1257  -11.3131   22.3090 C   0  0  0  0  0  0  0  0  0  0  0  0
   12.9027  -10.2079   23.0548 C   0  0  0  0  0  0  0  0  0  0  0  0
   13.8760  -12.6551   20.8782 C   0  0  0  0  0  0  0  0  0  0  0  0
   12.9574  -13.3019   21.5907 N   0  0  0  0  0  0  0  0  0  0  0  0
   13.9770  -11.4274   21.3264 N   0  0  0  0  0  0  0  0  0  0  0  0
   14.5792  -10.7263   20.9871 H   0  0  0  0  0  0  0  0  0  0  0  0
   11.7397   -9.1262   24.7996 C   0  0  0  0  0  0  0  0  0  0  0  0
   12.7714   -8.3468   24.9189 N   0  0  0  0  0  0  0  0  0  0  0  0
   10.5587   -8.8550   25.2998 N   0  0  0  0  0  0  0  0  0  0  0  0
   13.6332   -8.6064   24.5201 H   0  0  0  0  0  0  0  0  0  0  0  0
   12.6918   -7.4962   25.4082 H   0  0  0  0  0  0  0  0  0  0  0  0
    9.8145   -9.4874   25.1754 H   0  0  0  0  0  0  0  0  0  0  0  0
   10.4161   -8.0191   25.7998 H   0  0  0  0  0  0  0  0  0  0  0  0
 20 21  1  0  0  0
 20 25  2  0  0  0
 20 30  1  0  0  0
 21 22  2  0  0  0
 22 23  1  0  0  0
 23 24  2  0  0  0
 23 27  1  0  0  0
 24 25  1  0  0  0
 24 28  1  0  0  0
 30 31  2  0  0  0
 30 32  1  0  0  0
 26  1  1  0  0  0
 26 27  2  0  0  0
 26 28  1  0  0  0
  1  8  1  0  0  0
  2  3  1  0  0  0
  2  7  2  0  0  0
  2 13  1  0  0  0
  3  4  2  0  0  0
  4  5  1  0  0  0
  5  6  2  0  0  0
  5  9  1  0  0  0
  6  7  1  0  0  0
  6 10  1  0  0  0
 13 14  2  0  0  0
 13 15  1  0  0  0
  8  9  2  0  0  0
  8 10  1  0  0  0
 31 33  1  0  0  0
 31 34  1  0  0  0
 32 35  1  0  0  0
 32 36  1  0  0  0
 28 29  1  0  0  0
 14 16  1  0  0  0
 14 17  1  0  0  0
 15 18  1  0  0  0
 15 19  1  0  0  0
  9 11  1  0  0  0
 10 12  1  0  0  0
M  CHG 1   9   1
M  CHG 1  14   1
M  CHG 1  31   1
M  END
> <minimizedAffinity>
-8.56496

$$$$
1C1V_BAB_H_410


 36 39  0  0  0  0  0  0  0  0999 V2000
   15.4265  -13.6397   19.2427 C   0  0  0  0  0  0  0  0  0  0  0  0
   16.2842  -12.4488   13.4453 C   0  0  0  0  0  0  0  0  0  0  0  0
   17.0016  -13.6696   13.6183 C   0  0  0  0  0  0  0  0  0  0  0  0
   17.0360  -14.3514   14.8251 C   0  0  0  0  0  0  0  0  0  0  0  0
   16.3392  -13.7839   15.8501 C   0  0  0  0  0  0  0  0  0  0  0  0
   15.6353  -12.6288   15.7608 C   0  0  0  0  0  0  0  0  0  0  0  0
   15.5744  -11.9207   14.5725 C   0  0  0  0  0  0  0  0  0  0  0  0
   15.5550  -13.3869   17.7277 C   0  0  0  0  0  0  0  0  0  0  0  0
   16.2697  -14.2312   17.0619 N   0  0  0  0  0  0  0  0  0  0  0  0
   15.1406  -12.3942   16.9617 N   0  0  0  0  0  0  0  0  0  0  0  0
   16.6818  -15.0552   17.4089 H   0  0  0  0  0  0  0  0  0  0  0  0
   14.5770  -11.6335   17.2316 H   0  0  0  0  0  0  0  0  0  0  0  0
   16.3148  -11.8055   12.2063 C   0  0  0  0  0  0  0  0  0  0  0  0
   15.2994  -11.9396   11.3827 N   0  0  0  0  0  0  0  0  0  0  0  0
   17.3584  -11.0575   11.9037 N   0  0  0  0  0  0  0  0  0  0  0  0
   14.5331  -12.5043   11.6339 H   0  0  0  0  0  0  0  0  0  0  0  0
   15.3051  -11.4755   10.5145 H   0  0  0  0  0  0  0  0  0  0  0  0
   18.1056  -10.9746   12.5395 H   0  0  0  0  0  0  0  0  0  0  0  0
   17.3902  -10.5822   11.0421 H   0  0  0  0  0  0  0  0  0  0  0  0
   20.4804  -14.9454   22.1973 C   0  0  0  0  0  0  0  0  0  0  0  0
   21.1205  -14.1644   21.2104 C   0  0  0  0  0  0  0  0  0  0  0  0
   20.3722  -13.5523   20.1710 C   0  0  0  0  0  0  0  0  0  0  0  0
   19.0012  -13.7594   20.1874 C   0  0  0  0  0  0  0  0  0  0  0  0
   18.4133  -14.5039   21.1326 C   0  0  0  0  0  0  0  0  0  0  0  0
   19.0882  -15.1051   22.1380 C   0  0  0  0  0  0  0  0  0  0  0  0
   16.8877  -13.8356   19.8532 C   0  0  0  0  0  0  0  0  0  0  0  0
   18.0374  -13.3489   19.3937 N   0  0  0  0  0  0  0  0  0  0  0  0
   17.1251  -14.5475   20.9281 N   0  0  0  0  0  0  0  0  0  0  0  0
   16.4596  -15.0235   21.4756 H   0  0  0  0  0  0  0  0  0  0  0  0
   21.1268  -15.5814   23.2262 C   0  0  0  0  0  0  0  0  0  0  0  0
   21.4811  -16.8089   22.9943 N   0  0  0  0  0  0  0  0  0  0  0  0
   21.3783  -14.9486   24.3463 N   0  0  0  0  0  0  0  0  0  0  0  0
   21.2626  -17.2297   22.1315 H   0  0  0  0  0  0  0  0  0  0  0  0
   21.9681  -17.3188   23.6813 H   0  0  0  0  0  0  0  0  0  0  0  0
   21.0831  -14.0165   24.4621 H   0  0  0  0  0  0  0  0  0  0  0  0
   21.8623  -15.4054   25.0718 H   0  0  0  0  0  0  0  0  0  0  0  0
 20 21  1  0  0  0
 20 25  2  0  0  0
 20 30  1  0  0  0
 21 22  2  0  0  0
 22 23  1  0  0  0
 23 24  2  0  0  0
 23 27  1  0  0  0
 24 25  1  0  0  0
 24 28  1  0  0  0
 30 31  2  0  0  0
 30 32  1  0  0  0
 26  1  1  0  0  0
 26 27  2  0  0  0
 26 28  1  0  0  0
  1  8  1  0  0  0
  2  3  1  0  0  0
  2  7  2  0  0  0
  2 13  1  0  0  0
  3  4  2  0  0  0
  4  5  1  0  0  0
  5  6  2  0  0  0
  5  9  1  0  0  0
  6  7  1  0  0  0
  6 10  1  0  0  0
 13 14  2  0  0  0
 13 15  1  0  0  0
  8  9  2  0  0  0
  8 10  1  0  0  0
 31 33  1  0  0  0
 31 34  1  0  0  0
 32 35  1  0  0  0
 32 36  1  0  0  0
 28 29  1  0  0  0
 14 16  1  0  0  0
 14 17  1  0  0  0
 15 18  1  0  0  0
 15 19  1  0  0  0
  9 11  1  0  0  0
 10 12  1  0  0  0
M  CHG 1   9   1
M  CHG 1  14   1
M  CHG 1  31   1
M  END
> <minimizedAffinity>
-7.55549

$$$$
1C1V_BAB_H_410


 36 39  0  0  0  0  0  0  0  0999 V2000
   15.7290  -12.1618   11.2405 C   0  0  0  0  0  0  0  0  0  0  0  0
   17.0101  -13.3492   16.9599 C   0  0  0  0  0  0  0  0  0  0  0  0
   17.2014  -11.9374   16.8882 C   0  0  0  0  0  0  0  0  0  0  0  0
   16.9643  -11.2091   15.7325 C   0  0  0  0  0  0  0  0  0  0  0  0
   16.5340  -11.9248   14.6550 C   0  0  0  0  0  0  0  0  0  0  0  0
   16.3295  -13.2647   14.6482 C   0  0  0  0  0  0  0  0  0  0  0  0
   16.5522  -14.0262   15.7830 C   0  0  0  0  0  0  0  0  0  0  0  0
   15.9529  -12.4551   12.7370 C   0  0  0  0  0  0  0  0  0  0  0  0
   16.2913  -11.4518   13.4758 N   0  0  0  0  0  0  0  0  0  0  0  0
   15.9567  -13.5836   13.4228 N   0  0  0  0  0  0  0  0  0  0  0  0
   16.3525  -10.5099   13.1960 H   0  0  0  0  0  0  0  0  0  0  0  0
   15.7279  -14.4807   13.0881 H   0  0  0  0  0  0  0  0  0  0  0  0
   17.2927  -14.0195   18.1519 C   0  0  0  0  0  0  0  0  0  0  0  0
   16.4884  -14.9741   18.5634 N   0  0  0  0  0  0  0  0  0  0  0  0
   18.3782  -13.6898   18.8251 N   0  0  0  0  0  0  0  0  0  0  0  0
   15.6847  -15.1997   18.0414 H   0  0  0  0  0  0  0  0  0  0  0  0
   16.6896  -15.4635   19.3936 H   0  0  0  0  0  0  0  0  0  0  0  0
   18.9633  -12.9705   18.4939 H   0  0  0  0  0  0  0  0  0  0  0  0
   18.6033  -14.1630   19.6585 H   0  0  0  0  0  0  0  0  0  0  0  0
    9.7689  -12.1297   10.5677 C   0  0  0  0  0  0  0  0  0  0  0  0
    9.9797  -13.2152    9.6897 C   0  0  0  0  0  0  0  0  0  0  0  0
   11.2893  -13.7020    9.4388 C   0  0  0  0  0  0  0  0  0  0  0  0
   12.3272  -13.0629   10.0999 C   0  0  0  0  0  0  0  0  0  0  0  0
   12.1060  -12.0347   10.9290 C   0  0  0  0  0  0  0  0  0  0  0  0
   10.8763  -11.5395   11.1942 C   0  0  0  0  0  0  0  0  0  0  0  0
   14.1809  -12.3590   10.9077 C   0  0  0  0  0  0  0  0  0  0  0  0
   13.6274  -13.2547   10.0946 N   0  0  0  0  0  0  0  0  0  0  0  0
   13.2369  -11.6084   11.4215 N   0  0  0  0  0  0  0  0  0  0  0  0
   13.3578  -10.8660   12.0567 H   0  0  0  0  0  0  0  0  0  0  0  0
    8.5419  -11.5893   10.8559 C   0  0  0  0  0  0  0  0  0  0  0  0
    7.9851  -10.9148    9.8961 N   0  0  0  0  0  0  0  0  0  0  0  0
    7.9861  -11.7867   12.0266 N   0  0  0  0  0  0  0  0  0  0  0  0
    8.4541  -10.8013    9.0379 H   0  0  0  0  0  0  0  0  0  0  0  0
    7.0941  -10.5170   10.0265 H   0  0  0  0  0  0  0  0  0  0  0  0
    8.4595  -12.3079   12.7147 H   0  0  0  0  0  0  0  0  0  0  0  0
    7.0952  -11.4138   12.2177 H   0  0  0  0  0  0  0  0  0  0  0  0
 20 21  1  0  0  0
 20 25  2  0  0  0
 20 30  1  0  0  0
 21 22  2  0  0  0
 22 23  1  0  0  0
 23 24  2  0  0  0
 23 27  1  0  0  0
 24 25  1  0  0  0
 24 28  1  0  0  0
 30 31  2  0  0  0
 30 32  1  0  0  0
 26  1  1  0  0  0
 26 27  2  0  0  0
 26 28  1  0  0  0
  1  8  1  0  0  0
  2  3  1  0  0  0
  2  7  2  0  0  0
  2 13  1  0  0  0
  3  4  2  0  0  0
  4  5  1  0  0  0
  5  6  2  0  0  0
  5  9  1  0  0  0
  6  7  1  0  0  0
  6 10  1  0  0  0
 13 14  2  0  0  0
 13 15  1  0  0  0
  8  9  2  0  0  0
  8 10  1  0  0  0
 31 33  1  0  0  0
 31 34  1  0  0  0
 32 35  1  0  0  0
 32 36  1  0  0  0
 28 29  1  0  0  0
 14 16  1  0  0  0
 14 17  1  0  0  0
 15 18  1  0  0  0
 15 19  1  0  0  0
  9 11  1  0  0  0
 10 12  1  0  0  0
M  CHG 1   9   1
M  CHG 1  14   1
M  CHG 1  31   1
M  END
> <minimizedAffinity>
-7.38436

$$$$
1C1V_BAB_H_410


 36 39  0  0  0  0  0  0  0  0999 V2000
   16.0961  -13.0149   15.9934 C   0  0  0  0  0  0  0  0  0  0  0  0
   18.5753  -13.8695   10.6188 C   0  0  0  0  0  0  0  0  0  0  0  0
   19.0524  -14.9912   11.3598 C   0  0  0  0  0  0  0  0  0  0  0  0
   18.6816  -15.2307   12.6741 C   0  0  0  0  0  0  0  0  0  0  0  0
   17.8265  -14.3242   13.2266 C   0  0  0  0  0  0  0  0  0  0  0  0
   17.3320  -13.2369   12.5856 C   0  0  0  0  0  0  0  0  0  0  0  0
   17.6762  -12.9653   11.2723 C   0  0  0  0  0  0  0  0  0  0  0  0
   16.6445  -13.2892   14.5793 C   0  0  0  0  0  0  0  0  0  0  0  0
   17.3866  -14.3369   14.4430 N   0  0  0  0  0  0  0  0  0  0  0  0
   16.5799  -12.5935   13.4588 N   0  0  0  0  0  0  0  0  0  0  0  0
   17.5801  -15.0139   15.1311 H   0  0  0  0  0  0  0  0  0  0  0  0
   16.0735  -11.7632   13.3057 H   0  0  0  0  0  0  0  0  0  0  0  0
   19.0115  -13.6796    9.3059 C   0  0  0  0  0  0  0  0  0  0  0  0
   20.2923  -13.7811    9.0289 N   0  0  0  0  0  0  0  0  0  0  0  0
   18.1181  -13.4246    8.3695 N   0  0  0  0  0  0  0  0  0  0  0  0
   20.9377  -13.9721    9.7474 H   0  0  0  0  0  0  0  0  0  0  0  0
   20.6063  -13.6659    8.1029 H   0  0  0  0  0  0  0  0  0  0  0  0
   17.1647  -13.3539    8.6049 H   0  0  0  0  0  0  0  0  0  0  0  0
   18.4046  -13.3050    7.4352 H   0  0  0  0  0  0  0  0  0  0  0  0
   19.8309  -14.1512   20.5471 C   0  0  0  0  0  0  0  0  0  0  0  0
   20.8451  -13.7023   19.6734 C   0  0  0  0  0  0  0  0  0  0  0  0
   20.5315  -13.2716   18.3577 C   0  0  0  0  0  0  0  0  0  0  0  0
   19.1945  -13.3125   17.9925 C   0  0  0  0  0  0  0  0  0  0  0  0
   18.2474  -13.7419   18.8364 C   0  0  0  0  0  0  0  0  0  0  0  0
   18.5029  -14.1618   20.0958 C   0  0  0  0  0  0  0  0  0  0  0  0
   17.2749  -13.2255   17.0479 C   0  0  0  0  0  0  0  0  0  0  0  0
   18.5740  -12.9941   16.8785 N   0  0  0  0  0  0  0  0  0  0  0  0
   17.0782  -13.6864   18.2592 N   0  0  0  0  0  0  0  0  0  0  0  0
   16.2145  -13.9415   18.6571 H   0  0  0  0  0  0  0  0  0  0  0  0
   20.0468  -14.5958   21.8263 C   0  0  0  0  0  0  0  0  0  0  0  0
   21.2431  -15.0354   22.0744 N   0  0  0  0  0  0  0  0  0  0  0  0
   19.0905  -14.5382   22.7212 N   0  0  0  0  0  0  0  0  0  0  0  0
   21.9190  -15.0539   21.3588 H   0  0  0  0  0  0  0  0  0  0  0  0
   21.4743  -15.3503   22.9781 H   0  0  0  0  0  0  0  0  0  0  0  0
   18.2026  -14.1942   22.4712 H   0  0  0  0  0  0  0  0  0  0  0  0
   19.2603  -14.8388   23.6431 H   0  0  0  0  0  0  0  0  0  0  0  0
 20 21  1  0  0  0
 20 25  2  0  0  0
 20 30  1  0  0  0
 21 22  2  0  0  0
 22 23  1  0  0  0
 23 24  2  0  0  0
 23 27  1  0  0  0
 24 25  1  0  0  0
 24 28  1  0  0  0
 30 31  2  0  0  0
 30 32  1  0  0  0
 26  1  1  0  0  0
 26 27  2  0  0  0
 26 28  1  0  0  0
  1  8  1  0  0  0
  2  3  1  0  0  0
  2  7  2  0  0  0
  2 13  1  0  0  0
  3  4  2  0  0  0
  4  5  1  0  0  0
  5  6  2  0  0  0
  5  9  1  0  0  0
  6  7  1  0  0  0
  6 10  1  0  0  0
 13 14  2  0  0  0
 13 15  1  0  0  0
  8  9  2  0  0  0
  8 10  1  0  0  0
 31 33  1  0  0  0
 31 34  1  0  0  0
 32 35  1  0  0  0
 32 36  1  0  0  0
 28 29  1  0  0  0
 14 16  1  0  0  0
 14 17  1  0  0  0
 15 18  1  0  0  0
 15 19  1  0  0  0
  9 11  1  0  0  0
 10 12  1  0  0  0
M  CHG 1   9   1
M  CHG 1  14   1
M  CHG 1  31   1
M  END
> <minimizedAffinity>
-7.34108

$$$$
1C1V_BAB_H_410


 36 39  0  0  0  0  0  0  0  0999 V2000
   15.5590  -13.3071   17.2911 C   0  0  0  0  0  0  0  0  0  0  0  0
   16.8822  -13.0879   11.4632 C   0  0  0  0  0  0  0  0  0  0  0  0
   15.6113  -12.4422   11.5149 C   0  0  0  0  0  0  0  0  0  0  0  0
   14.9331  -12.2217   12.7039 C   0  0  0  0  0  0  0  0  0  0  0  0
   15.5544  -12.6619   13.8347 C   0  0  0  0  0  0  0  0  0  0  0  0
   16.7594  -13.2820   13.8636 C   0  0  0  0  0  0  0  0  0  0  0  0
   17.4686  -13.5175   12.6980 C   0  0  0  0  0  0  0  0  0  0  0  0
   15.9518  -13.1563   15.8084 C   0  0  0  0  0  0  0  0  0  0  0  0
   15.0835  -12.5918   15.0374 N   0  0  0  0  0  0  0  0  0  0  0  0
   16.9979  -13.5851   15.1259 N   0  0  0  0  0  0  0  0  0  0  0  0
   14.2291  -12.1868   15.3117 H   0  0  0  0  0  0  0  0  0  0  0  0
   17.7941  -14.0389   15.4856 H   0  0  0  0  0  0  0  0  0  0  0  0
   17.4948  -13.2972   10.2260 C   0  0  0  0  0  0  0  0  0  0  0  0
   18.8048  -13.2403   10.1350 N   0  0  0  0  0  0  0  0  0  0  0  0
   16.7388  -13.5707    9.1801 N   0  0  0  0  0  0  0  0  0  0  0  0
   19.3450  -13.0341   10.9318 H   0  0  0  0  0  0  0  0  0  0  0  0
   19.2458  -13.4039    9.2702 H   0  0  0  0  0  0  0  0  0  0  0  0
   15.7597  -13.6070    9.2765 H   0  0  0  0  0  0  0  0  0  0  0  0
   17.1537  -13.7384    8.3032 H   0  0  0  0  0  0  0  0  0  0  0  0
   19.9384  -14.5043   21.2108 C   0  0  0  0  0  0  0  0  0  0  0  0
   20.8117  -14.0786   20.1863 C   0  0  0  0  0  0  0  0  0  0  0  0
   20.3043  -13.6459   18.9333 C   0  0  0  0  0  0  0  0  0  0  0  0
   18.9260  -13.6609   18.7822 C   0  0  0  0  0  0  0  0  0  0  0  0
   18.1147  -14.0685   19.7667 C   0  0  0  0  0  0  0  0  0  0  0  0
   18.5561  -14.4895   20.9731 C   0  0  0  0  0  0  0  0  0  0  0  0
   16.8842  -13.5382   18.1493 C   0  0  0  0  0  0  0  0  0  0  0  0
   18.1449  -13.3335   17.7771 N   0  0  0  0  0  0  0  0  0  0  0  0
   16.8707  -13.9912   19.3794 N   0  0  0  0  0  0  0  0  0  0  0  0
   16.0753  -14.2276   19.9091 H   0  0  0  0  0  0  0  0  0  0  0  0
   20.3433  -14.9492   22.4432 C   0  0  0  0  0  0  0  0  0  0  0  0
   19.5207  -14.7210   23.4216 N   0  0  0  0  0  0  0  0  0  0  0  0
   21.4814  -15.5852   22.5803 N   0  0  0  0  0  0  0  0  0  0  0  0
   18.6797  -14.2369   23.2549 H   0  0  0  0  0  0  0  0  0  0  0  0
   19.7378  -15.0319   24.3301 H   0  0  0  0  0  0  0  0  0  0  0  0
   22.0631  -15.7273   21.7988 H   0  0  0  0  0  0  0  0  0  0  0  0
   21.7544  -15.9207   23.4647 H   0  0  0  0  0  0  0  0  0  0  0  0
 20 21  1  0  0  0
 20 25  2  0  0  0
 20 30  1  0  0  0
 21 22  2  0  0  0
 22 23  1  0  0  0
 23 24  2  0  0  0
 23 27  1  0  0  0
 24 25  1  0  0  0
 24 28  1  0  0  0
 30 31  2  0  0  0
 30 32  1  0  0  0
 26  1  1  0  0  0
 26 27  2  0  0  0
 26 28  1  0  0  0
  1  8  1  0  0  0
  2  3  1  0  0  0
  2  7  2  0  0  0
  2 13  1  0  0  0
  3  4  2  0  0  0
  4  5  1  0  0  0
  5  6  2  0  0  0
  5  9  1  0  0  0
  6  7  1  0  0  0
  6 10  1  0  0  0
 13 14  2  0  0  0
 13 15  1  0  0  0
  8  9  2  0  0  0
  8 10  1  0  0  0
 31 33  1  0  0  0
 31 34  1  0  0  0
 32 35  1  0  0  0
 32 36  1  0  0  0
 28 29  1  0  0  0
 14 16  1  0  0  0
 14 17  1  0  0  0
 15 18  1  0  0  0
 15 19  1  0  0  0
  9 11  1  0  0  0
 10 12  1  0  0  0
M  CHG 1   9   1
M  CHG 1  14   1
M  CHG 1  31   1
M  END
> <minimizedAffinity>
-7.21239

$$$$
1C1V_BAB_H_410


 36 39  0  0  0  0  0  0  0  0999 V2000
   16.9841  -14.2076   17.2764 C   0  0  0  0  0  0  0  0  0  0  0  0
   13.1603  -12.5553   21.5673 C   0  0  0  0  0  0  0  0  0  0  0  0
   14.1163  -13.3304   22.2886 C   0  0  0  0  0  0  0  0  0  0  0  0
   15.2347  -13.8863   21.6865 C   0  0  0  0  0  0  0  0  0  0  0  0
   15.3719  -13.6496   20.3510 C   0  0  0  0  0  0  0  0  0  0  0  0
   14.5067  -12.9240   19.6011 C   0  0  0  0  0  0  0  0  0  0  0  0
   13.3803  -12.3505   20.1664 C   0  0  0  0  0  0  0  0  0  0  0  0
   16.0583  -13.6911   18.3952 C   0  0  0  0  0  0  0  0  0  0  0  0
   16.3156  -14.1033   19.5914 N   0  0  0  0  0  0  0  0  0  0  0  0
   14.9606  -12.9576   18.3622 N   0  0  0  0  0  0  0  0  0  0  0  0
   17.0812  -14.6554   19.8710 H   0  0  0  0  0  0  0  0  0  0  0  0
   14.5618  -12.5238   17.5736 H   0  0  0  0  0  0  0  0  0  0  0  0
   12.0450  -12.0470   22.2364 C   0  0  0  0  0  0  0  0  0  0  0  0
   11.2298  -12.8723   22.8542 N   0  0  0  0  0  0  0  0  0  0  0  0
   11.8512  -10.7422   22.2494 N   0  0  0  0  0  0  0  0  0  0  0  0
   11.3981  -13.8420   22.8283 H   0  0  0  0  0  0  0  0  0  0  0  0
   10.4508  -12.5209   23.3430 H   0  0  0  0  0  0  0  0  0  0  0  0
   12.4777  -10.1468   21.7780 H   0  0  0  0  0  0  0  0  0  0  0  0
   11.0801  -10.3639   22.7305 H   0  0  0  0  0  0  0  0  0  0  0  0
   15.7046  -12.6584   11.6249 C   0  0  0  0  0  0  0  0  0  0  0  0
   14.5939  -11.9894   12.1838 C   0  0  0  0  0  0  0  0  0  0  0  0
   14.3638  -12.0096   13.5843 C   0  0  0  0  0  0  0  0  0  0  0  0
   15.2813  -12.7074   14.3549 C   0  0  0  0  0  0  0  0  0  0  0  0
   16.3287  -13.3354   13.8052 C   0  0  0  0  0  0  0  0  0  0  0  0
   16.5834  -13.3426   12.4776 C   0  0  0  0  0  0  0  0  0  0  0  0
   16.4450  -13.6643   15.8763 C   0  0  0  0  0  0  0  0  0  0  0  0
   15.3650  -12.9216   15.6489 N   0  0  0  0  0  0  0  0  0  0  0  0
   17.0374  -13.9164   14.7344 N   0  0  0  0  0  0  0  0  0  0  0  0
   17.8590  -14.4428   14.6030 H   0  0  0  0  0  0  0  0  0  0  0  0
   15.9938  -12.7008   10.2850 C   0  0  0  0  0  0  0  0  0  0  0  0
   17.1558  -13.1909    9.9759 N   0  0  0  0  0  0  0  0  0  0  0  0
   15.1166  -12.2904    9.4015 N   0  0  0  0  0  0  0  0  0  0  0  0
   17.7720  -13.4824   10.6863 H   0  0  0  0  0  0  0  0  0  0  0  0
   17.4208  -13.2709    9.0311 H   0  0  0  0  0  0  0  0  0  0  0  0
   14.2510  -11.9278    9.6991 H   0  0  0  0  0  0  0  0  0  0  0  0
   15.3234  -12.3448    8.4405 H   0  0  0  0  0  0  0  0  0  0  0  0
 20 21  1  0  0  0
 20 25  2  0  0  0
 20 30  1  0  0  0
 21 22  2  0  0  0
 22 23  1  0  0  0
 23 24  2  0  0  0
 23 27  1  0  0  0
 24 25  1  0  0  0
 24 28  1  0  0  0
 30 31  2  0  0  0
 30 32  1  0  0  0
 26  1  1  0  0  0
 26 27  2  0  0  0
 26 28  1  0  0  0
  1  8  1  0  0  0
  2  3  1  0  0  0
  2  7  2  0  0  0
  2 13  1  0  0  0
  3  4  2  0  0  0
  4  5  1  0  0  0
  5  6  2  0  0  0
  5  9  1  0  0  0
  6  7  1  0  0  0
  6 10  1  0  0  0
 13 14  2  0  0  0
 13 15  1  0  0  0
  8  9  2  0  0  0
  8 10  1  0  0  0
 31 33  1  0  0  0
 31 34  1  0  0  0
 32 35  1  0  0  0
 32 36  1  0  0  0
 28 29  1  0  0  0
 14 16  1  0  0  0
 14 17  1  0  0  0
 15 18  1  0  0  0
 15 19  1  0  0  0
  9 11  1  0  0  0
 10 12  1  0  0  0
M  CHG 1   9   1
M  CHG 1  14   1
M  CHG 1  31   1
M  END
> <minimizedAffinity>
-7.12736

$$$$
