4CWP_TV2_A_1224


 26 30  0  0  0  0  0  0  0  0999 V2000
    7.8126    9.2485   22.5772 N   0  0  0  0  0  0  0  0  0  0  0  0
    6.8727   10.1256   23.0160 C   0  0  0  0  0  0  0  0  0  0  0  0
    5.5417    9.8497   22.9558 N   0  0  0  0  0  0  0  0  0  0  0  0
    5.0606   11.0538   23.4680 N   0  0  0  0  0  0  0  0  0  0  0  0
    6.0382   11.9097   23.7955 C   0  0  0  0  0  0  0  0  0  0  0  0
    7.2317   11.3347   23.5156 N   0  0  0  0  0  0  0  0  0  0  0  0
    3.7619   11.3805   23.6312 C   0  0  0  0  0  0  0  0  0  0  0  0
    3.4355   12.5901   24.1565 N   0  0  0  0  0  0  0  0  0  0  0  0
    4.4252   13.4909   24.5031 C   0  0  0  0  0  0  0  0  0  0  0  0
    4.0947   14.7352   25.0504 C   0  0  0  0  0  0  0  0  0  0  0  0
    5.0956   15.6453   25.3958 C   0  0  0  0  0  0  0  0  0  0  0  0
    6.4386   15.3160   25.2085 C   0  0  0  0  0  0  0  0  0  0  0  0
    6.7832   14.0630   24.6856 C   0  0  0  0  0  0  0  0  0  0  0  0
    5.7770   13.1606   24.3386 C   0  0  0  0  0  0  0  0  0  0  0  0
    7.5396    8.3739   22.2168 H   0  0  0  0  0  0  0  0  0  0  0  0
    8.7667    9.4873   22.6196 H   0  0  0  0  0  0  0  0  0  0  0  0
    2.6578   10.4237   23.2687 C   0  0  0  0  0  0  0  0  0  0  0  0
    1.5105   10.5932   24.2385 C   0  0  0  0  0  0  0  0  0  0  0  0
    0.5228   11.5759   24.0087 C   0  0  0  0  0  0  0  0  0  0  0  0
   -0.5637   11.7219   24.8988 C   0  0  0  0  0  0  0  0  0  0  0  0
   -0.5856   10.8774   26.0074 C   0  0  0  0  0  0  0  0  0  0  0  0
    0.4004    9.9567   26.2241 C   0  0  0  0  0  0  0  0  0  0  0  0
    1.4718    9.7658   25.3624 C   0  0  0  0  0  0  0  0  0  0  0  0
   -1.5067   10.8055   27.0409 O   0  0  0  0  0  0  0  0  0  0  0  0
   -1.0768    9.7788   27.9566 C   0  0  0  0  0  0  0  0  0  0  0  0
    0.1411    9.2802   27.3663 O   0  0  0  0  0  0  0  0  0  0  0  0
  1  2  1  0  0  0
  2  3  2  0  0  0
  2  6  1  0  0  0
  3  4  1  0  0  0
  4  5  1  0  0  0
  4  7  1  0  0  0
  5  6  2  0  0  0
  5 14  1  0  0  0
  7  8  2  0  0  0
  7 17  1  0  0  0
  8  9  1  0  0  0
  9 10  1  0  0  0
  9 14  2  0  0  0
 10 11  2  0  0  0
 11 12  1  0  0  0
 12 13  2  0  0  0
 13 14  1  0  0  0
 17 18  1  0  0  0
 18 19  1  0  0  0
 18 23  2  0  0  0
 19 20  2  0  0  0
 20 21  1  0  0  0
 21 22  2  0  0  0
 21 24  1  0  0  0
 22 23  1  0  0  0
 22 26  1  0  0  0
 24 25  1  0  0  0
 25 26  1  0  0  0
  1 15  1  0  0  0
  1 16  1  0  0  0
M  END
> <minimizedAffinity>
-11.59112

$$$$
4CWP_TV2_A_1224


 26 30  0  0  0  0  0  0  0  0999 V2000
   -2.2482   12.1121   23.3354 N   0  0  0  0  0  0  0  0  0  0  0  0
   -1.1693   11.5504   23.9402 C   0  0  0  0  0  0  0  0  0  0  0  0
    0.0892   11.6794   23.4394 N   0  0  0  0  0  0  0  0  0  0  0  0
    0.7639   10.9046   24.3819 N   0  0  0  0  0  0  0  0  0  0  0  0
   -0.0469   10.4066   25.3254 C   0  0  0  0  0  0  0  0  0  0  0  0
   -1.3134   10.8105   25.0681 N   0  0  0  0  0  0  0  0  0  0  0  0
    2.0875   10.6434   24.3888 C   0  0  0  0  0  0  0  0  0  0  0  0
    2.6152    9.8794   25.3804 N   0  0  0  0  0  0  0  0  0  0  0  0
    1.8005    9.3542   26.3660 C   0  0  0  0  0  0  0  0  0  0  0  0
    2.3397    8.5722   27.3929 C   0  0  0  0  0  0  0  0  0  0  0  0
    1.5145    8.0390   28.3849 C   0  0  0  0  0  0  0  0  0  0  0  0
    0.1424    8.2920   28.3672 C   0  0  0  0  0  0  0  0  0  0  0  0
   -0.4059    9.0951   27.3588 C   0  0  0  0  0  0  0  0  0  0  0  0
    0.4247    9.6205   26.3684 C   0  0  0  0  0  0  0  0  0  0  0  0
   -2.1309   12.6470   22.5172 H   0  0  0  0  0  0  0  0  0  0  0  0
   -3.1474   11.9844   23.7153 H   0  0  0  0  0  0  0  0  0  0  0  0
    3.0056   11.2015   23.3344 C   0  0  0  0  0  0  0  0  0  0  0  0
    3.7814   12.3639   23.9110 C   0  0  0  0  0  0  0  0  0  0  0  0
    3.1021   13.5032   24.3956 C   0  0  0  0  0  0  0  0  0  0  0  0
    3.8209   14.5812   24.9570 C   0  0  0  0  0  0  0  0  0  0  0  0
    5.2100   14.4682   24.9762 C   0  0  0  0  0  0  0  0  0  0  0  0
    5.8445   13.3688   24.4707 C   0  0  0  0  0  0  0  0  0  0  0  0
    5.1748   12.2789   23.9319 C   0  0  0  0  0  0  0  0  0  0  0  0
    6.1594   15.3627   25.4452 O   0  0  0  0  0  0  0  0  0  0  0  0
    7.4641   14.7912   25.2252 C   0  0  0  0  0  0  0  0  0  0  0  0
    7.1819   13.5191   24.6067 O   0  0  0  0  0  0  0  0  0  0  0  0
  1  2  1  0  0  0
  2  3  2  0  0  0
  2  6  1  0  0  0
  3  4  1  0  0  0
  4  5  1  0  0  0
  4  7  1  0  0  0
  5  6  2  0  0  0
  5 14  1  0  0  0
  7  8  2  0  0  0
  7 17  1  0  0  0
  8  9  1  0  0  0
  9 10  1  0  0  0
  9 14  2  0  0  0
 10 11  2  0  0  0
 11 12  1  0  0  0
 12 13  2  0  0  0
 13 14  1  0  0  0
 17 18  1  0  0  0
 18 19  1  0  0  0
 18 23  2  0  0  0
 19 20  2  0  0  0
 20 21  1  0  0  0
 21 22  2  0  0  0
 21 24  1  0  0  0
 22 23  1  0  0  0
 22 26  1  0  0  0
 24 25  1  0  0  0
 25 26  1  0  0  0
  1 15  1  0  0  0
  1 16  1  0  0  0
M  END
> <minimizedAffinity>
-10.73437

$$$$
4CWP_TV2_A_1224


 26 30  0  0  0  0  0  0  0  0999 V2000
   -0.7361    9.9767   27.3934 N   0  0  0  0  0  0  0  0  0  0  0  0
   -0.3902   10.5264   26.2003 C   0  0  0  0  0  0  0  0  0  0  0  0
    0.8926   10.5226   25.7469 N   0  0  0  0  0  0  0  0  0  0  0  0
    0.6910   11.2241   24.5591 N   0  0  0  0  0  0  0  0  0  0  0  0
   -0.5894   11.5696   24.3675 C   0  0  0  0  0  0  0  0  0  0  0  0
   -1.3210   11.1279   25.4179 N   0  0  0  0  0  0  0  0  0  0  0  0
    1.6455   11.5550   23.6648 C   0  0  0  0  0  0  0  0  0  0  0  0
    1.3031   12.2324   22.5382 N   0  0  0  0  0  0  0  0  0  0  0  0
   -0.0110   12.6000   22.3165 C   0  0  0  0  0  0  0  0  0  0  0  0
   -0.3700   13.2920   21.1550 C   0  0  0  0  0  0  0  0  0  0  0  0
   -1.6969   13.6662   20.9351 C   0  0  0  0  0  0  0  0  0  0  0  0
   -2.6815   13.3420   21.8692 C   0  0  0  0  0  0  0  0  0  0  0  0
   -2.3390   12.6266   23.0238 C   0  0  0  0  0  0  0  0  0  0  0  0
   -1.0099   12.2601   23.2387 C   0  0  0  0  0  0  0  0  0  0  0  0
   -0.0516    9.5429   27.9524 H   0  0  0  0  0  0  0  0  0  0  0  0
   -1.6712   10.0122   27.6992 H   0  0  0  0  0  0  0  0  0  0  0  0
    3.0855   11.1681   23.8710 C   0  0  0  0  0  0  0  0  0  0  0  0
    3.8832   12.3944   24.2526 C   0  0  0  0  0  0  0  0  0  0  0  0
    3.2233   13.5811   24.6404 C   0  0  0  0  0  0  0  0  0  0  0  0
    3.9641   14.7215   25.0208 C   0  0  0  0  0  0  0  0  0  0  0  0
    5.3527   14.6169   24.9630 C   0  0  0  0  0  0  0  0  0  0  0  0
    5.9663   13.4671   24.5525 C   0  0  0  0  0  0  0  0  0  0  0  0
    5.2760   12.3178   24.1929 C   0  0  0  0  0  0  0  0  0  0  0  0
    6.3199   15.5649   25.2587 O   0  0  0  0  0  0  0  0  0  0  0  0
    7.6143   14.9760   25.0244 C   0  0  0  0  0  0  0  0  0  0  0  0
    7.3078   13.6377   24.5823 O   0  0  0  0  0  0  0  0  0  0  0  0
  1  2  1  0  0  0
  2  3  2  0  0  0
  2  6  1  0  0  0
  3  4  1  0  0  0
  4  5  1  0  0  0
  4  7  1  0  0  0
  5  6  2  0  0  0
  5 14  1  0  0  0
  7  8  2  0  0  0
  7 17  1  0  0  0
  8  9  1  0  0  0
  9 10  1  0  0  0
  9 14  2  0  0  0
 10 11  2  0  0  0
 11 12  1  0  0  0
 12 13  2  0  0  0
 13 14  1  0  0  0
 17 18  1  0  0  0
 18 19  1  0  0  0
 18 23  2  0  0  0
 19 20  2  0  0  0
 20 21  1  0  0  0
 21 22  2  0  0  0
 21 24  1  0  0  0
 22 23  1  0  0  0
 22 26  1  0  0  0
 24 25  1  0  0  0
 25 26  1  0  0  0
  1 15  1  0  0  0
  1 16  1  0  0  0
M  END
> <minimizedAffinity>
-10.37816

$$$$
4CWP_TV2_A_1224


 26 30  0  0  0  0  0  0  0  0999 V2000
    0.3274   11.2448   23.6302 N   0  0  0  0  0  0  0  0  0  0  0  0
    1.6494   11.5543   23.6716 C   0  0  0  0  0  0  0  0  0  0  0  0
    2.6024   10.7256   23.1652 N   0  0  0  0  0  0  0  0  0  0  0  0
    3.7267   11.4778   23.5026 N   0  0  0  0  0  0  0  0  0  0  0  0
    3.4204   12.6245   24.1246 C   0  0  0  0  0  0  0  0  0  0  0  0
    2.0745   12.7062   24.2485 N   0  0  0  0  0  0  0  0  0  0  0  0
    5.0089   11.1344   23.2614 C   0  0  0  0  0  0  0  0  0  0  0  0
    6.0097   11.9734   23.6355 N   0  0  0  0  0  0  0  0  0  0  0  0
    5.7204   13.1627   24.2782 C   0  0  0  0  0  0  0  0  0  0  0  0
    6.7468   14.0333   24.6597 C   0  0  0  0  0  0  0  0  0  0  0  0
    6.4527   15.2318   25.3125 C   0  0  0  0  0  0  0  0  0  0  0  0
    5.1279   15.5783   25.5804 C   0  0  0  0  0  0  0  0  0  0  0  0
    4.0897   14.7273   25.1802 C   0  0  0  0  0  0  0  0  0  0  0  0
    4.3919   13.5290   24.5323 C   0  0  0  0  0  0  0  0  0  0  0  0
    0.0311   10.4059   23.2088 H   0  0  0  0  0  0  0  0  0  0  0  0
   -0.3345   11.8596   24.0217 H   0  0  0  0  0  0  0  0  0  0  0  0
    5.3614    9.8496   22.5607 C   0  0  0  0  0  0  0  0  0  0  0  0
    5.5458    8.7546   23.5866 C   0  0  0  0  0  0  0  0  0  0  0  0
    6.8071    8.5456   24.1862 C   0  0  0  0  0  0  0  0  0  0  0  0
    6.9787    7.5398   25.1626 C   0  0  0  0  0  0  0  0  0  0  0  0
    5.8615    6.7649   25.4695 C   0  0  0  0  0  0  0  0  0  0  0  0
    4.6602    6.9663   24.8505 C   0  0  0  0  0  0  0  0  0  0  0  0
    4.4439    7.9579   23.9035 C   0  0  0  0  0  0  0  0  0  0  0  0
    5.7390    5.7127   26.3635 O   0  0  0  0  0  0  0  0  0  0  0  0
    4.3828    5.2282   26.3056 C   0  0  0  0  0  0  0  0  0  0  0  0
    3.7556    6.0795   25.3247 O   0  0  0  0  0  0  0  0  0  0  0  0
  1  2  1  0  0  0
  2  3  2  0  0  0
  2  6  1  0  0  0
  3  4  1  0  0  0
  4  5  1  0  0  0
  4  7  1  0  0  0
  5  6  2  0  0  0
  5 14  1  0  0  0
  7  8  2  0  0  0
  7 17  1  0  0  0
  8  9  1  0  0  0
  9 10  1  0  0  0
  9 14  2  0  0  0
 10 11  2  0  0  0
 11 12  1  0  0  0
 12 13  2  0  0  0
 13 14  1  0  0  0
 17 18  1  0  0  0
 18 19  1  0  0  0
 18 23  2  0  0  0
 19 20  2  0  0  0
 20 21  1  0  0  0
 21 22  2  0  0  0
 21 24  1  0  0  0
 22 23  1  0  0  0
 22 26  1  0  0  0
 24 25  1  0  0  0
 25 26  1  0  0  0
  1 15  1  0  0  0
  1 16  1  0  0  0
M  END
> <minimizedAffinity>
-10.00727

$$$$
4CWP_TV2_A_1224


 26 30  0  0  0  0  0  0  0  0999 V2000
   -0.8039   12.8552   23.7564 N   0  0  0  0  0  0  0  0  0  0  0  0
    0.5500   12.7574   23.8067 C   0  0  0  0  0  0  0  0  0  0  0  0
    1.2096   11.6366   23.4067 N   0  0  0  0  0  0  0  0  0  0  0  0
    2.5082   12.0469   23.7050 N   0  0  0  0  0  0  0  0  0  0  0  0
    2.5610   13.2873   24.2092 C   0  0  0  0  0  0  0  0  0  0  0  0
    1.3020   13.7796   24.2864 N   0  0  0  0  0  0  0  0  0  0  0  0
    3.6278   11.3139   23.5334 C   0  0  0  0  0  0  0  0  0  0  0  0
    4.8347   11.8472   23.8567 N   0  0  0  0  0  0  0  0  0  0  0  0
    4.9165   13.1249   24.3780 C   0  0  0  0  0  0  0  0  0  0  0  0
    6.1573   13.6812   24.7065 C   0  0  0  0  0  0  0  0  0  0  0  0
    6.2374   14.9702   25.2369 C   0  0  0  0  0  0  0  0  0  0  0  0
    5.0781   15.7214   25.4335 C   0  0  0  0  0  0  0  0  0  0  0  0
    3.8320   15.1854   25.0843 C   0  0  0  0  0  0  0  0  0  0  0  0
    3.7597   13.8948   24.5590 C   0  0  0  0  0  0  0  0  0  0  0  0
   -1.3389   12.1066   23.4061 H   0  0  0  0  0  0  0  0  0  0  0  0
   -1.2503   13.6747   24.0702 H   0  0  0  0  0  0  0  0  0  0  0  0
    3.5773    9.9210   22.9649 C   0  0  0  0  0  0  0  0  0  0  0  0
    2.8481    9.0133   23.9292 C   0  0  0  0  0  0  0  0  0  0  0  0
    1.8445    8.1367   23.4618 C   0  0  0  0  0  0  0  0  0  0  0  0
    1.1774    7.2698   24.3548 C   0  0  0  0  0  0  0  0  0  0  0  0
    1.5400    7.3510   25.6982 C   0  0  0  0  0  0  0  0  0  0  0  0
    2.4915    8.2315   26.1295 C   0  0  0  0  0  0  0  0  0  0  0  0
    3.1863    9.0834   25.2820 C   0  0  0  0  0  0  0  0  0  0  0  0
    1.0515    6.6441   26.7859 O   0  0  0  0  0  0  0  0  0  0  0  0
    1.7378    7.1039   27.9669 C   0  0  0  0  0  0  0  0  0  0  0  0
    2.6429    8.1102   27.4682 O   0  0  0  0  0  0  0  0  0  0  0  0
  1  2  1  0  0  0
  2  3  2  0  0  0
  2  6  1  0  0  0
  3  4  1  0  0  0
  4  5  1  0  0  0
  4  7  1  0  0  0
  5  6  2  0  0  0
  5 14  1  0  0  0
  7  8  2  0  0  0
  7 17  1  0  0  0
  8  9  1  0  0  0
  9 10  1  0  0  0
  9 14  2  0  0  0
 10 11  2  0  0  0
 11 12  1  0  0  0
 12 13  2  0  0  0
 13 14  1  0  0  0
 17 18  1  0  0  0
 18 19  1  0  0  0
 18 23  2  0  0  0
 19 20  2  0  0  0
 20 21  1  0  0  0
 21 22  2  0  0  0
 21 24  1  0  0  0
 22 23  1  0  0  0
 22 26  1  0  0  0
 24 25  1  0  0  0
 25 26  1  0  0  0
  1 15  1  0  0  0
  1 16  1  0  0  0
M  END
> <minimizedAffinity>
-10.00091

$$$$
4CWP_TV2_A_1224


 26 30  0  0  0  0  0  0  0  0999 V2000
    4.0998   15.7216   25.5851 N   0  0  0  0  0  0  0  0  0  0  0  0
    4.1472   14.5034   24.9858 C   0  0  0  0  0  0  0  0  0  0  0  0
    3.0276   13.8749   24.5354 N   0  0  0  0  0  0  0  0  0  0  0  0
    3.6234   12.7003   24.0781 N   0  0  0  0  0  0  0  0  0  0  0  0
    4.9527   12.6890   24.2468 C   0  0  0  0  0  0  0  0  0  0  0  0
    5.3266   13.8505   24.8338 N   0  0  0  0  0  0  0  0  0  0  0  0
    2.9802   11.6515   23.5244 C   0  0  0  0  0  0  0  0  0  0  0  0
    3.6919   10.5712   23.1098 N   0  0  0  0  0  0  0  0  0  0  0  0
    5.0643   10.5349   23.2719 C   0  0  0  0  0  0  0  0  0  0  0  0
    5.8026    9.4277   22.8408 C   0  0  0  0  0  0  0  0  0  0  0  0
    7.1881    9.3912   23.0094 C   0  0  0  0  0  0  0  0  0  0  0  0
    7.8517   10.4670   23.6003 C   0  0  0  0  0  0  0  0  0  0  0  0
    7.1268   11.5925   24.0125 C   0  0  0  0  0  0  0  0  0  0  0  0
    5.7418   11.6196   23.8448 C   0  0  0  0  0  0  0  0  0  0  0  0
    3.2378   16.1856   25.6896 H   0  0  0  0  0  0  0  0  0  0  0  0
    4.9275   16.1404   25.9150 H   0  0  0  0  0  0  0  0  0  0  0  0
    1.4877   11.6575   23.3286 C   0  0  0  0  0  0  0  0  0  0  0  0
    0.8197   11.0853   24.5581 C   0  0  0  0  0  0  0  0  0  0  0  0
   -0.4075   11.6151   25.0137 C   0  0  0  0  0  0  0  0  0  0  0  0
   -1.0474   11.0683   26.1476 C   0  0  0  0  0  0  0  0  0  0  0  0
   -0.3952   10.0185   26.7919 C   0  0  0  0  0  0  0  0  0  0  0  0
    0.8082    9.5459   26.3498 C   0  0  0  0  0  0  0  0  0  0  0  0
    1.4585   10.0396   25.2272 C   0  0  0  0  0  0  0  0  0  0  0  0
   -0.7733    9.3077   27.9204 O   0  0  0  0  0  0  0  0  0  0  0  0
    0.2486    8.3306   28.2006 C   0  0  0  0  0  0  0  0  0  0  0  0
    1.2194    8.5394   27.1545 O   0  0  0  0  0  0  0  0  0  0  0  0
  1  2  1  0  0  0
  2  3  2  0  0  0
  2  6  1  0  0  0
  3  4  1  0  0  0
  4  5  1  0  0  0
  4  7  1  0  0  0
  5  6  2  0  0  0
  5 14  1  0  0  0
  7  8  2  0  0  0
  7 17  1  0  0  0
  8  9  1  0  0  0
  9 10  1  0  0  0
  9 14  2  0  0  0
 10 11  2  0  0  0
 11 12  1  0  0  0
 12 13  2  0  0  0
 13 14  1  0  0  0
 17 18  1  0  0  0
 18 19  1  0  0  0
 18 23  2  0  0  0
 19 20  2  0  0  0
 20 21  1  0  0  0
 21 22  2  0  0  0
 21 24  1  0  0  0
 22 23  1  0  0  0
 22 26  1  0  0  0
 24 25  1  0  0  0
 25 26  1  0  0  0
  1 15  1  0  0  0
  1 16  1  0  0  0
M  END
> <minimizedAffinity>
-9.90914

$$$$
4CWP_TV2_A_1224


 26 30  0  0  0  0  0  0  0  0999 V2000
    0.2614    8.1885   26.9924 N   0  0  0  0  0  0  0  0  0  0  0  0
    0.4875    9.0490   25.9660 C   0  0  0  0  0  0  0  0  0  0  0  0
    1.7360    9.2783   25.4760 N   0  0  0  0  0  0  0  0  0  0  0  0
    1.4056   10.2330   24.5151 N   0  0  0  0  0  0  0  0  0  0  0  0
    0.0922   10.4946   24.4690 C   0  0  0  0  0  0  0  0  0  0  0  0
   -0.5351    9.7380   25.4003 N   0  0  0  0  0  0  0  0  0  0  0  0
    2.2733   10.8645   23.6975 C   0  0  0  0  0  0  0  0  0  0  0  0
    1.8085   11.7675   22.7951 N   0  0  0  0  0  0  0  0  0  0  0  0
    0.4581   12.0549   22.7269 C   0  0  0  0  0  0  0  0  0  0  0  0
   -0.0264   12.9791   21.7952 C   0  0  0  0  0  0  0  0  0  0  0  0
   -1.3902   13.2712   21.7309 C   0  0  0  0  0  0  0  0  0  0  0  0
   -2.2858   12.6333   22.5899 C   0  0  0  0  0  0  0  0  0  0  0  0
   -1.8163   11.6867   23.5095 C   0  0  0  0  0  0  0  0  0  0  0  0
   -0.4513   11.4035   23.5709 C   0  0  0  0  0  0  0  0  0  0  0  0
    1.0118    7.6942   27.3948 H   0  0  0  0  0  0  0  0  0  0  0  0
   -0.6528    8.0591   27.3340 H   0  0  0  0  0  0  0  0  0  0  0  0
    3.7497   10.5741   23.7409 C   0  0  0  0  0  0  0  0  0  0  0  0
    4.4981   11.8394   24.0939 C   0  0  0  0  0  0  0  0  0  0  0  0
    5.9030   11.8958   23.9631 C   0  0  0  0  0  0  0  0  0  0  0  0
    6.6041   13.0829   24.2686 C   0  0  0  0  0  0  0  0  0  0  0  0
    5.8466   14.1604   24.7246 C   0  0  0  0  0  0  0  0  0  0  0  0
    4.4915   14.0691   24.8736 C   0  0  0  0  0  0  0  0  0  0  0  0
    3.7625   12.9295   24.5628 C   0  0  0  0  0  0  0  0  0  0  0  0
    6.2596   15.4268   25.1085 O   0  0  0  0  0  0  0  0  0  0  0  0
    5.0976   16.1745   25.5182 C   0  0  0  0  0  0  0  0  0  0  0  0
    4.0094   15.2456   25.3352 O   0  0  0  0  0  0  0  0  0  0  0  0
  1  2  1  0  0  0
  2  3  2  0  0  0
  2  6  1  0  0  0
  3  4  1  0  0  0
  4  5  1  0  0  0
  4  7  1  0  0  0
  5  6  2  0  0  0
  5 14  1  0  0  0
  7  8  2  0  0  0
  7 17  1  0  0  0
  8  9  1  0  0  0
  9 10  1  0  0  0
  9 14  2  0  0  0
 10 11  2  0  0  0
 11 12  1  0  0  0
 12 13  2  0  0  0
 13 14  1  0  0  0
 17 18  1  0  0  0
 18 19  1  0  0  0
 18 23  2  0  0  0
 19 20  2  0  0  0
 20 21  1  0  0  0
 21 22  2  0  0  0
 21 24  1  0  0  0
 22 23  1  0  0  0
 22 26  1  0  0  0
 24 25  1  0  0  0
 25 26  1  0  0  0
  1 15  1  0  0  0
  1 16  1  0  0  0
M  END
> <minimizedAffinity>
-9.88508

$$$$
4CWP_TV2_A_1224


 26 30  0  0  0  0  0  0  0  0999 V2000
   -1.1959   10.7554   26.8232 N   0  0  0  0  0  0  0  0  0  0  0  0
   -0.0168   10.2049   26.4335 C   0  0  0  0  0  0  0  0  0  0  0  0
    0.6864   10.6793   25.3697 N   0  0  0  0  0  0  0  0  0  0  0  0
    1.7341    9.7597   25.3916 N   0  0  0  0  0  0  0  0  0  0  0  0
    1.6262    8.8688   26.3867 C   0  0  0  0  0  0  0  0  0  0  0  0
    0.4972    9.1323   27.0861 N   0  0  0  0  0  0  0  0  0  0  0  0
    2.7673    9.7179   24.5250 C   0  0  0  0  0  0  0  0  0  0  0  0
    3.7290    8.7700   24.6732 N   0  0  0  0  0  0  0  0  0  0  0  0
    3.6415    7.8397   25.6920 C   0  0  0  0  0  0  0  0  0  0  0  0
    4.6325    6.8655   25.8529 C   0  0  0  0  0  0  0  0  0  0  0  0
    4.5400    5.9241   26.8798 C   0  0  0  0  0  0  0  0  0  0  0  0
    3.4612    5.9541   27.7643 C   0  0  0  0  0  0  0  0  0  0  0  0
    2.4759    6.9407   27.6295 C   0  0  0  0  0  0  0  0  0  0  0  0
    2.5730    7.8752   26.5979 C   0  0  0  0  0  0  0  0  0  0  0  0
   -1.5588   11.5337   26.3416 H   0  0  0  0  0  0  0  0  0  0  0  0
   -1.6877   10.3762   27.5872 H   0  0  0  0  0  0  0  0  0  0  0  0
    2.8974   10.7168   23.4064 C   0  0  0  0  0  0  0  0  0  0  0  0
    3.7689   11.8656   23.8604 C   0  0  0  0  0  0  0  0  0  0  0  0
    5.1757   11.7600   23.7987 C   0  0  0  0  0  0  0  0  0  0  0  0
    5.9937   12.8393   24.1991 C   0  0  0  0  0  0  0  0  0  0  0  0
    5.3443   13.9769   24.6755 C   0  0  0  0  0  0  0  0  0  0  0  0
    3.9819   14.0411   24.7558 C   0  0  0  0  0  0  0  0  0  0  0  0
    3.1421   13.0125   24.3514 C   0  0  0  0  0  0  0  0  0  0  0  0
    5.8817   15.1654   25.1447 O   0  0  0  0  0  0  0  0  0  0  0  0
    4.7950   16.0265   25.5384 C   0  0  0  0  0  0  0  0  0  0  0  0
    3.6169   15.2438   25.2558 O   0  0  0  0  0  0  0  0  0  0  0  0
  1  2  1  0  0  0
  2  3  2  0  0  0
  2  6  1  0  0  0
  3  4  1  0  0  0
  4  5  1  0  0  0
  4  7  1  0  0  0
  5  6  2  0  0  0
  5 14  1  0  0  0
  7  8  2  0  0  0
  7 17  1  0  0  0
  8  9  1  0  0  0
  9 10  1  0  0  0
  9 14  2  0  0  0
 10 11  2  0  0  0
 11 12  1  0  0  0
 12 13  2  0  0  0
 13 14  1  0  0  0
 17 18  1  0  0  0
 18 19  1  0  0  0
 18 23  2  0  0  0
 19 20  2  0  0  0
 20 21  1  0  0  0
 21 22  2  0  0  0
 21 24  1  0  0  0
 22 23  1  0  0  0
 22 26  1  0  0  0
 24 25  1  0  0  0
 25 26  1  0  0  0
  1 15  1  0  0  0
  1 16  1  0  0  0
M  END
> <minimizedAffinity>
-9.51765

$$$$
4CWP_TV2_A_1224


 26 30  0  0  0  0  0  0  0  0999 V2000
    6.1931    6.4667   24.8867 N   0  0  0  0  0  0  0  0  0  0  0  0
    5.0819    7.2380   25.0116 C   0  0  0  0  0  0  0  0  0  0  0  0
    4.8495    8.3080   24.2039 N   0  0  0  0  0  0  0  0  0  0  0  0
    3.6538    8.7396   24.7765 N   0  0  0  0  0  0  0  0  0  0  0  0
    3.2553    7.9684   25.7973 C   0  0  0  0  0  0  0  0  0  0  0  0
    4.1627    6.9792   25.9752 N   0  0  0  0  0  0  0  0  0  0  0  0
    2.9362    9.8153   24.3916 C   0  0  0  0  0  0  0  0  0  0  0  0
    1.7770   10.1131   25.0343 N   0  0  0  0  0  0  0  0  0  0  0  0
    1.3435    9.3331   26.0900 C   0  0  0  0  0  0  0  0  0  0  0  0
    0.1474    9.6316   26.7511 C   0  0  0  0  0  0  0  0  0  0  0  0
   -0.2865    8.8451   27.8199 C   0  0  0  0  0  0  0  0  0  0  0  0
    0.4655    7.7442   28.2317 C   0  0  0  0  0  0  0  0  0  0  0  0
    1.6518    7.4195   27.5611 C   0  0  0  0  0  0  0  0  0  0  0  0
    2.0811    8.2131   26.4968 C   0  0  0  0  0  0  0  0  0  0  0  0
    6.8530    6.6646   24.1834 H   0  0  0  0  0  0  0  0  0  0  0  0
    6.3386    5.7100   25.4994 H   0  0  0  0  0  0  0  0  0  0  0  0
    3.3753   10.6850   23.2441 C   0  0  0  0  0  0  0  0  0  0  0  0
    4.1179   11.8866   23.7828 C   0  0  0  0  0  0  0  0  0  0  0  0
    5.5298   11.8996   23.8064 C   0  0  0  0  0  0  0  0  0  0  0  0
    6.2282   13.0293   24.2862 C   0  0  0  0  0  0  0  0  0  0  0  0
    5.4577   14.0933   24.7518 C   0  0  0  0  0  0  0  0  0  0  0  0
    4.0923   14.0422   24.7485 C   0  0  0  0  0  0  0  0  0  0  0  0
    3.3681   12.9613   24.2646 C   0  0  0  0  0  0  0  0  0  0  0  0
    5.8636   15.3064   25.2858 O   0  0  0  0  0  0  0  0  0  0  0  0
    4.6864   16.0617   25.6341 C   0  0  0  0  0  0  0  0  0  0  0  0
    3.5978   15.1938   25.2572 O   0  0  0  0  0  0  0  0  0  0  0  0
  1  2  1  0  0  0
  2  3  2  0  0  0
  2  6  1  0  0  0
  3  4  1  0  0  0
  4  5  1  0  0  0
  4  7  1  0  0  0
  5  6  2  0  0  0
  5 14  1  0  0  0
  7  8  2  0  0  0
  7 17  1  0  0  0
  8  9  1  0  0  0
  9 10  1  0  0  0
  9 14  2  0  0  0
 10 11  2  0  0  0
 11 12  1  0  0  0
 12 13  2  0  0  0
 13 14  1  0  0  0
 17 18  1  0  0  0
 18 19  1  0  0  0
 18 23  2  0  0  0
 19 20  2  0  0  0
 20 21  1  0  0  0
 21 22  2  0  0  0
 21 24  1  0  0  0
 22 23  1  0  0  0
 22 26  1  0  0  0
 24 25  1  0  0  0
 25 26  1  0  0  0
  1 15  1  0  0  0
  1 16  1  0  0  0
M  END
> <minimizedAffinity>
-9.43772

$$$$
4CWP_TV2_A_1224


 26 30  0  0  0  0  0  0  0  0999 V2000
   -2.5170   12.9398   23.1067 N   0  0  0  0  0  0  0  0  0  0  0  0
   -1.4883   12.2666   23.6843 C   0  0  0  0  0  0  0  0  0  0  0  0
   -0.2356   12.2653   23.1530 N   0  0  0  0  0  0  0  0  0  0  0  0
    0.3772   11.4213   24.0780 N   0  0  0  0  0  0  0  0  0  0  0  0
   -0.4579   11.0074   25.0407 C   0  0  0  0  0  0  0  0  0  0  0  0
   -1.6813   11.5420   24.8149 N   0  0  0  0  0  0  0  0  0  0  0  0
    1.6661   11.0235   24.0523 C   0  0  0  0  0  0  0  0  0  0  0  0
    2.1351   10.2052   25.0301 N   0  0  0  0  0  0  0  0  0  0  0  0
    1.2942    9.7645   26.0349 C   0  0  0  0  0  0  0  0  0  0  0  0
    1.7737    8.9271   27.0477 C   0  0  0  0  0  0  0  0  0  0  0  0
    0.9217    8.4796   28.0591 C   0  0  0  0  0  0  0  0  0  0  0  0
   -0.4165    8.8744   28.0752 C   0  0  0  0  0  0  0  0  0  0  0  0
   -0.9023    9.7336   27.0813 C   0  0  0  0  0  0  0  0  0  0  0  0
   -0.0458   10.1729   26.0712 C   0  0  0  0  0  0  0  0  0  0  0  0
   -2.3644   13.4623   22.2863 H   0  0  0  0  0  0  0  0  0  0  0  0
   -3.4152   12.9053   23.5084 H   0  0  0  0  0  0  0  0  0  0  0  0
    2.6115   11.4862   22.9761 C   0  0  0  0  0  0  0  0  0  0  0  0
    4.0174   11.0538   23.3255 C   0  0  0  0  0  0  0  0  0  0  0  0
    4.9337   11.9811   23.8682 C   0  0  0  0  0  0  0  0  0  0  0  0
    6.2404   11.5763   24.2185 C   0  0  0  0  0  0  0  0  0  0  0  0
    6.5724   10.2448   23.9744 C   0  0  0  0  0  0  0  0  0  0  0  0
    5.6771    9.3755   23.4177 C   0  0  0  0  0  0  0  0  0  0  0  0
    4.3773    9.7272   23.0808 C   0  0  0  0  0  0  0  0  0  0  0  0
    7.7679    9.5802   24.1997 O   0  0  0  0  0  0  0  0  0  0  0  0
    7.6136    8.2153   23.7634 C   0  0  0  0  0  0  0  0  0  0  0  0
    6.2546    8.1598   23.2834 O   0  0  0  0  0  0  0  0  0  0  0  0
  1  2  1  0  0  0
  2  3  2  0  0  0
  2  6  1  0  0  0
  3  4  1  0  0  0
  4  5  1  0  0  0
  4  7  1  0  0  0
  5  6  2  0  0  0
  5 14  1  0  0  0
  7  8  2  0  0  0
  7 17  1  0  0  0
  8  9  1  0  0  0
  9 10  1  0  0  0
  9 14  2  0  0  0
 10 11  2  0  0  0
 11 12  1  0  0  0
 12 13  2  0  0  0
 13 14  1  0  0  0
 17 18  1  0  0  0
 18 19  1  0  0  0
 18 23  2  0  0  0
 19 20  2  0  0  0
 20 21  1  0  0  0
 21 22  2  0  0  0
 21 24  1  0  0  0
 22 23  1  0  0  0
 22 26  1  0  0  0
 24 25  1  0  0  0
 25 26  1  0  0  0
  1 15  1  0  0  0
  1 16  1  0  0  0
M  END
> <minimizedAffinity>
-9.03542

$$$$
