2B07_598_A_301


 40 44  0  0  0  0  0  0  0  0999 V2000
   44.5249   13.5883   -0.0154 S   0  0  0  0  0  0  0  0  0  0  0  0
   44.5091   14.8632    1.1305 C   0  0  0  0  0  0  0  0  0  0  0  0
   45.2362   14.6109    2.2684 C   0  0  0  0  0  0  0  0  0  0  0  0
   45.8012   13.3084    2.2063 C   0  0  0  0  0  0  0  0  0  0  0  0
   45.5026   12.6460    1.0505 C   0  0  0  0  0  0  0  0  0  0  0  0
   46.8104   12.3626    3.2490 S   0  0  0  0  0  0  0  0  0  0  0  0
   46.7945   11.0706    2.0952 C   0  0  0  0  0  0  0  0  0  0  0  0
   46.0535   11.3424    0.9468 C   0  0  0  0  0  0  0  0  0  0  0  0
   47.4463    9.8261    2.2140 C   0  0  0  0  0  0  0  0  0  0  0  0
   47.3530    8.8486    1.1961 C   0  0  0  0  0  0  0  0  0  0  0  0
   46.6103    9.1475    0.0485 C   0  0  0  0  0  0  0  0  0  0  0  0
   45.9574   10.3838   -0.0917 C   0  0  0  0  0  0  0  0  0  0  0  0
   43.7281   16.1698    0.7674 C   0  0  0  0  0  0  0  0  0  0  0  0
   43.5504   17.0519    1.6630 O   0  0  0  0  0  0  0  0  0  0  0  0
   43.3535   16.2025   -0.4380 O   0  0  0  0  0  0  0  0  0  0  0  0
   43.8782   16.9123    2.5296 H   0  0  0  0  0  0  0  0  0  0  0  0
   48.0200    7.6483    1.3931 N   0  0  0  0  0  0  0  0  0  0  0  0
   47.8772    6.9309    0.7343 H   0  0  0  0  0  0  0  0  0  0  0  0
   48.9149    7.3775    2.5051 C   0  0  0  0  0  0  0  0  0  0  0  0
   48.7738    5.8953    2.9237 C   0  0  0  0  0  0  0  0  0  0  0  0
   49.7293    5.5616    4.0645 C   0  0  0  0  0  0  0  0  0  0  0  0
   51.1230    5.9180    3.6157 N   0  0  0  0  0  0  0  0  0  0  0  0
   51.2967    7.3837    3.2925 C   0  0  0  0  0  0  0  0  0  0  0  0
   50.3634    7.7271    2.1334 C   0  0  0  0  0  0  0  0  0  0  0  0
   52.4300    5.0852    4.3884 S   0  0  0  0  0  0  0  0  0  0  0  0
   53.4025    6.0584    4.8454 O   0  0  0  0  0  0  0  0  0  0  0  0
   52.8413    4.0097    3.4990 O   0  0  0  0  0  0  0  0  0  0  0  0
   51.5853    4.3829    5.8102 C   0  0  0  0  0  0  0  0  0  0  0  0
   52.0139    2.9496    6.0066 C   0  0  0  0  0  0  0  0  0  0  0  0
   51.1443    1.8935    5.6704 C   0  0  0  0  0  0  0  0  0  0  0  0
   51.5333    0.5556    5.8467 C   0  0  0  0  0  0  0  0  0  0  0  0
   52.8007    0.2627    6.3579 C   0  0  0  0  0  0  0  0  0  0  0  0
   53.6806    1.3029    6.6968 C   0  0  0  0  0  0  0  0  0  0  0  0
   53.2897    2.6398    6.5234 C   0  0  0  0  0  0  0  0  0  0  0  0
   45.3909   15.4496    3.3245 O   0  0  0  0  0  0  0  0  0  0  0  0
   46.6314   16.1702    3.3493 C   0  0  0  0  0  0  0  0  0  0  0  0
   46.4369   17.3266    4.3292 C   0  0  0  0  0  0  0  0  0  0  0  0
   47.4296   18.0810    4.5115 O   0  0  0  0  0  0  0  0  0  0  0  0
   45.3000   17.4117    4.8364 O   0  0  0  0  0  0  0  0  0  0  0  0
   48.2366   17.9090    4.0673 H   0  0  0  0  0  0  0  0  0  0  0  0
  1  2  1  0  0  0
  1  5  1  0  0  0
  2  3  2  0  0  0
  2 13  1  0  0  0
  3  4  1  0  0  0
  3 35  1  0  0  0
  4  5  2  0  0  0
  4  6  1  0  0  0
  5  8  1  0  0  0
 13 14  1  0  0  0
 13 15  2  0  0  0
 35 36  1  0  0  0
 36 37  1  0  0  0
 37 38  1  0  0  0
 37 39  2  0  0  0
  6  7  1  0  0  0
  7  8  2  0  0  0
  7  9  1  0  0  0
  8 12  1  0  0  0
  9 10  2  0  0  0
 10 11  1  0  0  0
 10 17  1  0  0  0
 11 12  2  0  0  0
 17 19  1  0  0  0
 19 20  1  0  0  0
 19 24  1  0  0  0
 20 21  1  0  0  0
 21 22  1  0  0  0
 22 23  1  0  0  0
 22 25  1  0  0  0
 23 24  1  0  0  0
 25 28  1  0  0  0
 25 26  2  0  0  0
 25 27  2  0  0  0
 28 29  1  0  0  0
 29 30  2  0  0  0
 29 34  1  0  0  0
 30 31  1  0  0  0
 31 32  2  0  0  0
 32 33  1  0  0  0
 33 34  2  0  0  0
 14 16  1  0  0  0
 38 40  1  0  0  0
 17 18  1  0  0  0
M  END
> <minimizedAffinity>
-8.98164

$$$$
2B07_598_A_301


 40 44  0  0  0  0  0  0  0  0999 V2000
   44.4005   14.1164    0.6723 S   0  0  0  0  0  0  0  0  0  0  0  0
   44.7075   15.2195    1.9483 C   0  0  0  0  0  0  0  0  0  0  0  0
   45.5897   14.7587    2.8950 C   0  0  0  0  0  0  0  0  0  0  0  0
   46.0037   13.4380    2.5730 C   0  0  0  0  0  0  0  0  0  0  0  0
   45.4476   12.9651    1.4193 C   0  0  0  0  0  0  0  0  0  0  0  0
   47.0774   12.2839    3.2911 S   0  0  0  0  0  0  0  0  0  0  0  0
   46.7363   11.1676    2.0112 C   0  0  0  0  0  0  0  0  0  0  0  0
   45.8405   11.6500    1.0591 C   0  0  0  0  0  0  0  0  0  0  0  0
   47.2720    9.8726    1.8569 C   0  0  0  0  0  0  0  0  0  0  0  0
   46.9095    9.0541    0.7620 C   0  0  0  0  0  0  0  0  0  0  0  0
   46.0149    9.5633   -0.1858 C   0  0  0  0  0  0  0  0  0  0  0  0
   45.4736   10.8532   -0.0532 C   0  0  0  0  0  0  0  0  0  0  0  0
   44.0095   16.6190    1.8953 C   0  0  0  0  0  0  0  0  0  0  0  0
   44.4482   17.5559    2.6312 O   0  0  0  0  0  0  0  0  0  0  0  0
   43.0473   16.6606    1.0786 O   0  0  0  0  0  0  0  0  0  0  0  0
   45.1753   17.4021    3.2019 H   0  0  0  0  0  0  0  0  0  0  0  0
   47.4779    7.7909    0.6866 N   0  0  0  0  0  0  0  0  0  0  0  0
   47.1364    7.1747   -0.0011 H   0  0  0  0  0  0  0  0  0  0  0  0
   48.5426    7.3150    1.5529 C   0  0  0  0  0  0  0  0  0  0  0  0
   48.5623    5.7686    1.5341 C   0  0  0  0  0  0  0  0  0  0  0  0
   49.6953    5.2310    2.4019 C   0  0  0  0  0  0  0  0  0  0  0  0
   50.9812    5.8436    1.9101 N   0  0  0  0  0  0  0  0  0  0  0  0
   51.0089    7.3509    2.0106 C   0  0  0  0  0  0  0  0  0  0  0  0
   49.8945    7.9053    1.1256 C   0  0  0  0  0  0  0  0  0  0  0  0
   52.4396    4.9700    2.2401 S   0  0  0  0  0  0  0  0  0  0  0  0
   53.4309    5.3156    1.2402 O   0  0  0  0  0  0  0  0  0  0  0  0
   52.0705    3.5778    2.4461 O   0  0  0  0  0  0  0  0  0  0  0  0
   52.9135    5.6928    3.8153 C   0  0  0  0  0  0  0  0  0  0  0  0
   52.6506    4.7117    4.9310 C   0  0  0  0  0  0  0  0  0  0  0  0
   51.4473    4.7691    5.6613 C   0  0  0  0  0  0  0  0  0  0  0  0
   51.1907    3.8598    6.7004 C   0  0  0  0  0  0  0  0  0  0  0  0
   52.1364    2.8800    7.0149 C   0  0  0  0  0  0  0  0  0  0  0  0
   53.3403    2.8074    6.2963 C   0  0  0  0  0  0  0  0  0  0  0  0
   53.5975    3.7188    5.2602 C   0  0  0  0  0  0  0  0  0  0  0  0
   46.0052   15.4303    3.9991 O   0  0  0  0  0  0  0  0  0  0  0  0
   47.3638   15.8895    3.9535 C   0  0  0  0  0  0  0  0  0  0  0  0
   47.3934   17.2187    4.7069 C   0  0  0  0  0  0  0  0  0  0  0  0
   48.5174   17.5982    5.1319 O   0  0  0  0  0  0  0  0  0  0  0  0
   46.2942   17.8006    4.8073 O   0  0  0  0  0  0  0  0  0  0  0  0
   49.2755   17.0657    4.9916 H   0  0  0  0  0  0  0  0  0  0  0  0
  1  2  1  0  0  0
  1  5  1  0  0  0
  2  3  2  0  0  0
  2 13  1  0  0  0
  3  4  1  0  0  0
  3 35  1  0  0  0
  4  5  2  0  0  0
  4  6  1  0  0  0
  5  8  1  0  0  0
 13 14  1  0  0  0
 13 15  2  0  0  0
 35 36  1  0  0  0
 36 37  1  0  0  0
 37 38  1  0  0  0
 37 39  2  0  0  0
  6  7  1  0  0  0
  7  8  2  0  0  0
  7  9  1  0  0  0
  8 12  1  0  0  0
  9 10  2  0  0  0
 10 11  1  0  0  0
 10 17  1  0  0  0
 11 12  2  0  0  0
 17 19  1  0  0  0
 19 20  1  0  0  0
 19 24  1  0  0  0
 20 21  1  0  0  0
 21 22  1  0  0  0
 22 23  1  0  0  0
 22 25  1  0  0  0
 23 24  1  0  0  0
 25 28  1  0  0  0
 25 26  2  0  0  0
 25 27  2  0  0  0
 28 29  1  0  0  0
 29 30  2  0  0  0
 29 34  1  0  0  0
 30 31  1  0  0  0
 31 32  2  0  0  0
 32 33  1  0  0  0
 33 34  2  0  0  0
 14 16  1  0  0  0
 38 40  1  0  0  0
 17 18  1  0  0  0
M  END
> <minimizedAffinity>
-8.88741

$$$$
2B07_598_A_301


 40 44  0  0  0  0  0  0  0  0999 V2000
   44.5806   13.4675   -0.0681 S   0  0  0  0  0  0  0  0  0  0  0  0
   44.5024   14.7881    1.0223 C   0  0  0  0  0  0  0  0  0  0  0  0
   45.2038   14.6016    2.1886 C   0  0  0  0  0  0  0  0  0  0  0  0
   45.8017   13.3124    2.1964 C   0  0  0  0  0  0  0  0  0  0  0  0
   45.5512   12.5953    1.0620 C   0  0  0  0  0  0  0  0  0  0  0  0
   46.8045   12.4365    3.3044 S   0  0  0  0  0  0  0  0  0  0  0  0
   46.8517   11.0978    2.2060 C   0  0  0  0  0  0  0  0  0  0  0  0
   46.1361   11.3029    1.0279 C   0  0  0  0  0  0  0  0  0  0  0  0
   47.5299    9.8763    2.3944 C   0  0  0  0  0  0  0  0  0  0  0  0
   47.4884    8.8554    1.4164 C   0  0  0  0  0  0  0  0  0  0  0  0
   46.7706    9.0875    0.2380 C   0  0  0  0  0  0  0  0  0  0  0  0
   46.0920   10.3000    0.0286 C   0  0  0  0  0  0  0  0  0  0  0  0
   43.7003   16.0582    0.5840 C   0  0  0  0  0  0  0  0  0  0  0  0
   43.0354   16.6995    1.4548 O   0  0  0  0  0  0  0  0  0  0  0  0
   43.8200   16.3179   -0.6460 O   0  0  0  0  0  0  0  0  0  0  0  0
   43.0230   16.4059    2.3446 H   0  0  0  0  0  0  0  0  0  0  0  0
   48.1787    7.6817    1.6814 N   0  0  0  0  0  0  0  0  0  0  0  0
   48.1022    6.9477    1.0297 H   0  0  0  0  0  0  0  0  0  0  0  0
   49.0065    7.4613    2.8547 C   0  0  0  0  0  0  0  0  0  0  0  0
   48.5710    6.1484    3.5467 C   0  0  0  0  0  0  0  0  0  0  0  0
   49.4458    5.8613    4.7625 C   0  0  0  0  0  0  0  0  0  0  0  0
   50.8801    5.8376    4.3013 N   0  0  0  0  0  0  0  0  0  0  0  0
   51.3448    7.1468    3.7072 C   0  0  0  0  0  0  0  0  0  0  0  0
   50.4937    7.4353    2.4723 C   0  0  0  0  0  0  0  0  0  0  0  0
   51.9961    4.9290    5.2646 S   0  0  0  0  0  0  0  0  0  0  0  0
   51.4792    4.8309    6.6155 O   0  0  0  0  0  0  0  0  0  0  0  0
   53.3195    5.4868    5.0319 O   0  0  0  0  0  0  0  0  0  0  0  0
   51.8881    3.3195    4.4732 C   0  0  0  0  0  0  0  0  0  0  0  0
   51.6713    3.4894    2.9898 C   0  0  0  0  0  0  0  0  0  0  0  0
   50.4324    3.1557    2.4081 C   0  0  0  0  0  0  0  0  0  0  0  0
   50.2183    3.3118    1.0289 C   0  0  0  0  0  0  0  0  0  0  0  0
   51.2433    3.8089    0.2191 C   0  0  0  0  0  0  0  0  0  0  0  0
   52.4837    4.1479    0.7825 C   0  0  0  0  0  0  0  0  0  0  0  0
   52.6980    3.9884    2.1605 C   0  0  0  0  0  0  0  0  0  0  0  0
   45.3090   15.4870    3.2122 O   0  0  0  0  0  0  0  0  0  0  0  0
   46.5393   16.2243    3.2515 C   0  0  0  0  0  0  0  0  0  0  0  0
   46.3508   17.3188    4.3011 C   0  0  0  0  0  0  0  0  0  0  0  0
   45.2177   17.3820    4.8490 O   0  0  0  0  0  0  0  0  0  0  0  0
   47.3533   18.0293    4.5184 O   0  0  0  0  0  0  0  0  0  0  0  0
   44.5409   16.7857    4.5956 H   0  0  0  0  0  0  0  0  0  0  0  0
  1  2  1  0  0  0
  1  5  1  0  0  0
  2  3  2  0  0  0
  2 13  1  0  0  0
  3  4  1  0  0  0
  3 35  1  0  0  0
  4  5  2  0  0  0
  4  6  1  0  0  0
  5  8  1  0  0  0
 13 14  1  0  0  0
 13 15  2  0  0  0
 35 36  1  0  0  0
 36 37  1  0  0  0
 37 38  1  0  0  0
 37 39  2  0  0  0
  6  7  1  0  0  0
  7  8  2  0  0  0
  7  9  1  0  0  0
  8 12  1  0  0  0
  9 10  2  0  0  0
 10 11  1  0  0  0
 10 17  1  0  0  0
 11 12  2  0  0  0
 17 19  1  0  0  0
 19 20  1  0  0  0
 19 24  1  0  0  0
 20 21  1  0  0  0
 21 22  1  0  0  0
 22 23  1  0  0  0
 22 25  1  0  0  0
 23 24  1  0  0  0
 25 28  1  0  0  0
 25 26  2  0  0  0
 25 27  2  0  0  0
 28 29  1  0  0  0
 29 30  2  0  0  0
 29 34  1  0  0  0
 30 31  1  0  0  0
 31 32  2  0  0  0
 32 33  1  0  0  0
 33 34  2  0  0  0
 14 16  1  0  0  0
 38 40  1  0  0  0
 17 18  1  0  0  0
M  END
> <minimizedAffinity>
-8.63086

$$$$
2B07_598_A_301


 40 44  0  0  0  0  0  0  0  0999 V2000
   45.9430   14.5325    3.3639 S   0  0  0  0  0  0  0  0  0  0  0  0
   44.9147   15.6355    2.5484 C   0  0  0  0  0  0  0  0  0  0  0  0
   44.3903   15.1571    1.3724 C   0  0  0  0  0  0  0  0  0  0  0  0
   44.8775   13.8463    1.1196 C   0  0  0  0  0  0  0  0  0  0  0  0
   45.7176   13.3866    2.0926 C   0  0  0  0  0  0  0  0  0  0  0  0
   44.6354   12.6719   -0.1305 S   0  0  0  0  0  0  0  0  0  0  0  0
   45.6992   11.5777    0.6891 C   0  0  0  0  0  0  0  0  0  0  0  0
   46.2222   12.0775    1.8802 C   0  0  0  0  0  0  0  0  0  0  0  0
   46.0572   10.2792    0.2727 C   0  0  0  0  0  0  0  0  0  0  0  0
   46.9425    9.4820    1.0349 C   0  0  0  0  0  0  0  0  0  0  0  0
   47.4482   10.0019    2.2315 C   0  0  0  0  0  0  0  0  0  0  0  0
   47.0997   11.2916    2.6669 C   0  0  0  0  0  0  0  0  0  0  0  0
   44.6446   17.0234    3.2188 C   0  0  0  0  0  0  0  0  0  0  0  0
   44.0210   17.9144    2.5639 O   0  0  0  0  0  0  0  0  0  0  0  0
   45.0925   17.0984    4.3971 O   0  0  0  0  0  0  0  0  0  0  0  0
   43.7363   17.7393    1.6886 H   0  0  0  0  0  0  0  0  0  0  0  0
   47.2477    8.2177    0.5525 N   0  0  0  0  0  0  0  0  0  0  0  0
   46.6363    7.8191   -0.1082 H   0  0  0  0  0  0  0  0  0  0  0  0
   48.4077    7.4414    0.9555 C   0  0  0  0  0  0  0  0  0  0  0  0
   49.6513    8.3606    0.9844 C   0  0  0  0  0  0  0  0  0  0  0  0
   50.8842    7.5892    1.4434 C   0  0  0  0  0  0  0  0  0  0  0  0
   50.5708    6.9779    2.7846 N   0  0  0  0  0  0  0  0  0  0  0  0
   49.4146    6.0059    2.7496 C   0  0  0  0  0  0  0  0  0  0  0  0
   48.1658    6.7706    2.3157 C   0  0  0  0  0  0  0  0  0  0  0  0
   51.9166    6.6191    3.8137 S   0  0  0  0  0  0  0  0  0  0  0  0
   52.3474    7.8397    4.4667 O   0  0  0  0  0  0  0  0  0  0  0  0
   52.8637    5.8419    3.0290 O   0  0  0  0  0  0  0  0  0  0  0  0
   51.1352    5.5462    5.0247 C   0  0  0  0  0  0  0  0  0  0  0  0
   51.7970    4.1904    5.0135 C   0  0  0  0  0  0  0  0  0  0  0  0
   52.9043    3.9313    5.8449 C   0  0  0  0  0  0  0  0  0  0  0  0
   53.5269    2.6724    5.8447 C   0  0  0  0  0  0  0  0  0  0  0  0
   53.0424    1.6584    5.0138 C   0  0  0  0  0  0  0  0  0  0  0  0
   51.9389    1.8989    4.1799 C   0  0  0  0  0  0  0  0  0  0  0  0
   51.3192    3.1584    4.1783 C   0  0  0  0  0  0  0  0  0  0  0  0
   43.5492   15.8217    0.5397 O   0  0  0  0  0  0  0  0  0  0  0  0
   44.1545   16.3192   -0.6624 C   0  0  0  0  0  0  0  0  0  0  0  0
   43.3067   15.7928   -1.8198 C   0  0  0  0  0  0  0  0  0  0  0  0
   43.9301   15.2489   -2.7703 O   0  0  0  0  0  0  0  0  0  0  0  0
   42.0747   15.9437   -1.6916 O   0  0  0  0  0  0  0  0  0  0  0  0
   44.8654   15.1972   -2.7484 H   0  0  0  0  0  0  0  0  0  0  0  0
  1  2  1  0  0  0
  1  5  1  0  0  0
  2  3  2  0  0  0
  2 13  1  0  0  0
  3  4  1  0  0  0
  3 35  1  0  0  0
  4  5  2  0  0  0
  4  6  1  0  0  0
  5  8  1  0  0  0
 13 14  1  0  0  0
 13 15  2  0  0  0
 35 36  1  0  0  0
 36 37  1  0  0  0
 37 38  1  0  0  0
 37 39  2  0  0  0
  6  7  1  0  0  0
  7  8  2  0  0  0
  7  9  1  0  0  0
  8 12  1  0  0  0
  9 10  2  0  0  0
 10 11  1  0  0  0
 10 17  1  0  0  0
 11 12  2  0  0  0
 17 19  1  0  0  0
 19 20  1  0  0  0
 19 24  1  0  0  0
 20 21  1  0  0  0
 21 22  1  0  0  0
 22 23  1  0  0  0
 22 25  1  0  0  0
 23 24  1  0  0  0
 25 28  1  0  0  0
 25 26  2  0  0  0
 25 27  2  0  0  0
 28 29  1  0  0  0
 29 30  2  0  0  0
 29 34  1  0  0  0
 30 31  1  0  0  0
 31 32  2  0  0  0
 32 33  1  0  0  0
 33 34  2  0  0  0
 14 16  1  0  0  0
 38 40  1  0  0  0
 17 18  1  0  0  0
M  END
> <minimizedAffinity>
-8.06350

$$$$
2B07_598_A_301


 40 44  0  0  0  0  0  0  0  0999 V2000
   53.1600    2.8018    2.4013 S   0  0  0  0  0  0  0  0  0  0  0  0
   53.5650    2.3976    4.0174 C   0  0  0  0  0  0  0  0  0  0  0  0
   53.2719    3.3758    4.9361 C   0  0  0  0  0  0  0  0  0  0  0  0
   52.7220    4.5105    4.2806 C   0  0  0  0  0  0  0  0  0  0  0  0
   52.6079    4.3497    2.9297 C   0  0  0  0  0  0  0  0  0  0  0  0
   52.1324    6.0549    4.7980 S   0  0  0  0  0  0  0  0  0  0  0  0
   51.7545    6.4621    3.1572 C   0  0  0  0  0  0  0  0  0  0  0  0
   52.0571    5.4595    2.2379 C   0  0  0  0  0  0  0  0  0  0  0  0
   51.1849    7.6670    2.6974 C   0  0  0  0  0  0  0  0  0  0  0  0
   50.9256    7.8788    1.3233 C   0  0  0  0  0  0  0  0  0  0  0  0
   51.2300    6.8544    0.4200 C   0  0  0  0  0  0  0  0  0  0  0  0
   51.7933    5.6441    0.8584 C   0  0  0  0  0  0  0  0  0  0  0  0
   54.1722    0.9817    4.2920 C   0  0  0  0  0  0  0  0  0  0  0  0
   55.2057    0.8844    5.0228 O   0  0  0  0  0  0  0  0  0  0  0  0
   53.5264    0.0507    3.7346 O   0  0  0  0  0  0  0  0  0  0  0  0
   55.5991    1.6548    5.3829 H   0  0  0  0  0  0  0  0  0  0  0  0
   50.3685    9.0941    0.9531 N   0  0  0  0  0  0  0  0  0  0  0  0
   50.8602    9.9142    1.1873 H   0  0  0  0  0  0  0  0  0  0  0  0
   49.1092    9.2395    0.2435 C   0  0  0  0  0  0  0  0  0  0  0  0
   47.9449    9.2174    1.2615 C   0  0  0  0  0  0  0  0  0  0  0  0
   46.6060    9.4088    0.5568 C   0  0  0  0  0  0  0  0  0  0  0  0
   46.6793   10.6930   -0.2282 N   0  0  0  0  0  0  0  0  0  0  0  0
   47.7543   10.6909   -1.2898 C   0  0  0  0  0  0  0  0  0  0  0  0
   49.1049   10.5254   -0.5962 C   0  0  0  0  0  0  0  0  0  0  0  0
   45.1779   11.4814   -0.5790 S   0  0  0  0  0  0  0  0  0  0  0  0
   44.3545   10.5917   -1.3741 O   0  0  0  0  0  0  0  0  0  0  0  0
   45.4955   12.8126   -1.0730 O   0  0  0  0  0  0  0  0  0  0  0  0
   44.4778   11.6171    1.0701 C   0  0  0  0  0  0  0  0  0  0  0  0
   45.1505   12.7377    1.8238 C   0  0  0  0  0  0  0  0  0  0  0  0
   44.6045   14.0362    1.8066 C   0  0  0  0  0  0  0  0  0  0  0  0
   45.2206   15.0866    2.5062 C   0  0  0  0  0  0  0  0  0  0  0  0
   46.3886   14.8446    3.2346 C   0  0  0  0  0  0  0  0  0  0  0  0
   46.9455   13.5562    3.2639 C   0  0  0  0  0  0  0  0  0  0  0  0
   46.3310   12.5077    2.5616 C   0  0  0  0  0  0  0  0  0  0  0  0
   53.4867    3.3099    6.2748 O   0  0  0  0  0  0  0  0  0  0  0  0
   52.6079    2.4268    6.9867 C   0  0  0  0  0  0  0  0  0  0  0  0
   51.7243    3.3143    7.8625 C   0  0  0  0  0  0  0  0  0  0  0  0
   50.7180    2.7640    8.3844 O   0  0  0  0  0  0  0  0  0  0  0  0
   52.1061    4.4962    7.9825 O   0  0  0  0  0  0  0  0  0  0  0  0
   50.5376    1.8603    8.2148 H   0  0  0  0  0  0  0  0  0  0  0  0
  1  2  1  0  0  0
  1  5  1  0  0  0
  2  3  2  0  0  0
  2 13  1  0  0  0
  3  4  1  0  0  0
  3 35  1  0  0  0
  4  5  2  0  0  0
  4  6  1  0  0  0
  5  8  1  0  0  0
 13 14  1  0  0  0
 13 15  2  0  0  0
 35 36  1  0  0  0
 36 37  1  0  0  0
 37 38  1  0  0  0
 37 39  2  0  0  0
  6  7  1  0  0  0
  7  8  2  0  0  0
  7  9  1  0  0  0
  8 12  1  0  0  0
  9 10  2  0  0  0
 10 11  1  0  0  0
 10 17  1  0  0  0
 11 12  2  0  0  0
 17 19  1  0  0  0
 19 20  1  0  0  0
 19 24  1  0  0  0
 20 21  1  0  0  0
 21 22  1  0  0  0
 22 23  1  0  0  0
 22 25  1  0  0  0
 23 24  1  0  0  0
 25 28  1  0  0  0
 25 26  2  0  0  0
 25 27  2  0  0  0
 28 29  1  0  0  0
 29 30  2  0  0  0
 29 34  1  0  0  0
 30 31  1  0  0  0
 31 32  2  0  0  0
 32 33  1  0  0  0
 33 34  2  0  0  0
 14 16  1  0  0  0
 38 40  1  0  0  0
 17 18  1  0  0  0
M  END
> <minimizedAffinity>
-7.96160

$$$$
2B07_598_A_301


 40 44  0  0  0  0  0  0  0  0999 V2000
   51.7403    5.4405    5.4354 S   0  0  0  0  0  0  0  0  0  0  0  0
   51.1047    4.0259    6.1659 C   0  0  0  0  0  0  0  0  0  0  0  0
   50.0686    3.4477    5.4736 C   0  0  0  0  0  0  0  0  0  0  0  0
   49.7684    4.2152    4.3159 C   0  0  0  0  0  0  0  0  0  0  0  0
   50.5744    5.3073    4.1694 C   0  0  0  0  0  0  0  0  0  0  0  0
   48.6274    4.0776    3.0199 S   0  0  0  0  0  0  0  0  0  0  0  0
   49.2599    5.5243    2.3073 C   0  0  0  0  0  0  0  0  0  0  0  0
   50.3103    6.0980    3.0210 C   0  0  0  0  0  0  0  0  0  0  0  0
   48.8239    6.1369    1.1147 C   0  0  0  0  0  0  0  0  0  0  0  0
   49.4252    7.3247    0.6374 C   0  0  0  0  0  0  0  0  0  0  0  0
   50.4837    7.8776    1.3666 C   0  0  0  0  0  0  0  0  0  0  0  0
   50.9367    7.2798    2.5548 C   0  0  0  0  0  0  0  0  0  0  0  0
   51.7698    3.5178    7.4882 C   0  0  0  0  0  0  0  0  0  0  0  0
   52.2119    2.3288    7.5397 O   0  0  0  0  0  0  0  0  0  0  0  0
   51.8003    4.3961    8.3949 O   0  0  0  0  0  0  0  0  0  0  0  0
   52.1304    1.7661    6.7949 H   0  0  0  0  0  0  0  0  0  0  0  0
   48.9337    7.8664   -0.5413 N   0  0  0  0  0  0  0  0  0  0  0  0
   49.2529    7.4833   -1.3901 H   0  0  0  0  0  0  0  0  0  0  0  0
   47.9801    8.9603   -0.6089 C   0  0  0  0  0  0  0  0  0  0  0  0
   46.7526    8.6216    0.2689 C   0  0  0  0  0  0  0  0  0  0  0  0
   45.7451    9.7666    0.2558 C   0  0  0  0  0  0  0  0  0  0  0  0
   46.4624   11.0149    0.7006 N   0  0  0  0  0  0  0  0  0  0  0  0
   47.6074   11.4078   -0.2036 C   0  0  0  0  0  0  0  0  0  0  0  0
   48.6375   10.2805   -0.1806 C   0  0  0  0  0  0  0  0  0  0  0  0
   45.4904   12.2710    1.3907 S   0  0  0  0  0  0  0  0  0  0  0  0
   44.2327   11.7022    1.8339 O   0  0  0  0  0  0  0  0  0  0  0  0
   45.4941   13.3831    0.4524 O   0  0  0  0  0  0  0  0  0  0  0  0
   46.4786   12.7085    2.8260 C   0  0  0  0  0  0  0  0  0  0  0  0
   46.4159   14.1980    3.0589 C   0  0  0  0  0  0  0  0  0  0  0  0
   47.5112   14.8767    3.6284 C   0  0  0  0  0  0  0  0  0  0  0  0
   47.4652   16.2631    3.8476 C   0  0  0  0  0  0  0  0  0  0  0  0
   46.3217   16.9844    3.4934 C   0  0  0  0  0  0  0  0  0  0  0  0
   45.2216   16.3242    2.9233 C   0  0  0  0  0  0  0  0  0  0  0  0
   45.2671   14.9380    2.7076 C   0  0  0  0  0  0  0  0  0  0  0  0
   49.3939    2.3247    5.8288 O   0  0  0  0  0  0  0  0  0  0  0  0
   49.8757    1.1132    5.2296 C   0  0  0  0  0  0  0  0  0  0  0  0
   48.6499    0.3963    4.6650 C   0  0  0  0  0  0  0  0  0  0  0  0
   48.4909    0.4547    3.4163 O   0  0  0  0  0  0  0  0  0  0  0  0
   47.9394   -0.1905    5.5064 O   0  0  0  0  0  0  0  0  0  0  0  0
   49.1001    0.9323    2.8883 H   0  0  0  0  0  0  0  0  0  0  0  0
  1  2  1  0  0  0
  1  5  1  0  0  0
  2  3  2  0  0  0
  2 13  1  0  0  0
  3  4  1  0  0  0
  3 35  1  0  0  0
  4  5  2  0  0  0
  4  6  1  0  0  0
  5  8  1  0  0  0
 13 14  1  0  0  0
 13 15  2  0  0  0
 35 36  1  0  0  0
 36 37  1  0  0  0
 37 38  1  0  0  0
 37 39  2  0  0  0
  6  7  1  0  0  0
  7  8  2  0  0  0
  7  9  1  0  0  0
  8 12  1  0  0  0
  9 10  2  0  0  0
 10 11  1  0  0  0
 10 17  1  0  0  0
 11 12  2  0  0  0
 17 19  1  0  0  0
 19 20  1  0  0  0
 19 24  1  0  0  0
 20 21  1  0  0  0
 21 22  1  0  0  0
 22 23  1  0  0  0
 22 25  1  0  0  0
 23 24  1  0  0  0
 25 28  1  0  0  0
 25 26  2  0  0  0
 25 27  2  0  0  0
 28 29  1  0  0  0
 29 30  2  0  0  0
 29 34  1  0  0  0
 30 31  1  0  0  0
 31 32  2  0  0  0
 32 33  1  0  0  0
 33 34  2  0  0  0
 14 16  1  0  0  0
 38 40  1  0  0  0
 17 18  1  0  0  0
M  END
> <minimizedAffinity>
-7.86144

$$$$
2B07_598_A_301


 40 44  0  0  0  0  0  0  0  0999 V2000
   49.6836    3.0212    5.1288 S   0  0  0  0  0  0  0  0  0  0  0  0
   51.1451    2.2717    5.6201 C   0  0  0  0  0  0  0  0  0  0  0  0
   52.2820    2.9230    5.2075 C   0  0  0  0  0  0  0  0  0  0  0  0
   51.9360    4.0635    4.4334 C   0  0  0  0  0  0  0  0  0  0  0  0
   50.5882    4.2382    4.3038 C   0  0  0  0  0  0  0  0  0  0  0  0
   52.8281    5.3115    3.6290 S   0  0  0  0  0  0  0  0  0  0  0  0
   51.3444    6.0428    3.1147 C   0  0  0  0  0  0  0  0  0  0  0  0
   50.2008    5.3707    3.5416 C   0  0  0  0  0  0  0  0  0  0  0  0
   51.2052    7.2131    2.3410 C   0  0  0  0  0  0  0  0  0  0  0  0
   49.9298    7.7093    1.9837 C   0  0  0  0  0  0  0  0  0  0  0  0
   48.7960    7.0222    2.4310 C   0  0  0  0  0  0  0  0  0  0  0  0
   48.9130    5.8569    3.2073 C   0  0  0  0  0  0  0  0  0  0  0  0
   51.0508    0.9808    6.4996 C   0  0  0  0  0  0  0  0  0  0  0  0
   52.1061    0.5191    7.0334 O   0  0  0  0  0  0  0  0  0  0  0  0
   49.8751    0.5291    6.5895 O   0  0  0  0  0  0  0  0  0  0  0  0
   52.9281    0.9459    6.8918 H   0  0  0  0  0  0  0  0  0  0  0  0
   49.8801    8.8639    1.2162 N   0  0  0  0  0  0  0  0  0  0  0  0
   50.6625    9.4611    1.2353 H   0  0  0  0  0  0  0  0  0  0  0  0
   48.7527    9.2520    0.3863 C   0  0  0  0  0  0  0  0  0  0  0  0
   47.4661    9.2585    1.2448 C   0  0  0  0  0  0  0  0  0  0  0  0
   46.2647    9.7014    0.4163 C   0  0  0  0  0  0  0  0  0  0  0  0
   46.5864   11.0496   -0.1752 N   0  0  0  0  0  0  0  0  0  0  0  0
   47.7884   11.0358   -1.0906 C   0  0  0  0  0  0  0  0  0  0  0  0
   49.0055   10.6181   -0.2681 C   0  0  0  0  0  0  0  0  0  0  0  0
   45.2437   12.0593   -0.5953 S   0  0  0  0  0  0  0  0  0  0  0  0
   44.3784   11.3357   -1.5061 O   0  0  0  0  0  0  0  0  0  0  0  0
   45.7828   13.3547   -0.9804 O   0  0  0  0  0  0  0  0  0  0  0  0
   44.4279   12.2113    0.9983 C   0  0  0  0  0  0  0  0  0  0  0  0
   45.1298   13.2496    1.8384 C   0  0  0  0  0  0  0  0  0  0  0  0
   46.2704   12.9054    2.5902 C   0  0  0  0  0  0  0  0  0  0  0  0
   46.9333   13.8639    3.3739 C   0  0  0  0  0  0  0  0  0  0  0  0
   46.4619   15.1792    3.4081 C   0  0  0  0  0  0  0  0  0  0  0  0
   45.3275   15.5399    2.6638 C   0  0  0  0  0  0  0  0  0  0  0  0
   44.6635   14.5805    1.8834 C   0  0  0  0  0  0  0  0  0  0  0  0
   53.5606    2.5455    5.4628 O   0  0  0  0  0  0  0  0  0  0  0  0
   54.1334    1.6531    4.4962 C   0  0  0  0  0  0  0  0  0  0  0  0
   54.9570    0.6363    5.2855 C   0  0  0  0  0  0  0  0  0  0  0  0
   54.9867    0.7874    6.5362 O   0  0  0  0  0  0  0  0  0  0  0  0
   55.5038   -0.2538    4.6029 O   0  0  0  0  0  0  0  0  0  0  0  0
   54.5304    1.5034    6.9325 H   0  0  0  0  0  0  0  0  0  0  0  0
  1  2  1  0  0  0
  1  5  1  0  0  0
  2  3  2  0  0  0
  2 13  1  0  0  0
  3  4  1  0  0  0
  3 35  1  0  0  0
  4  5  2  0  0  0
  4  6  1  0  0  0
  5  8  1  0  0  0
 13 14  1  0  0  0
 13 15  2  0  0  0
 35 36  1  0  0  0
 36 37  1  0  0  0
 37 38  1  0  0  0
 37 39  2  0  0  0
  6  7  1  0  0  0
  7  8  2  0  0  0
  7  9  1  0  0  0
  8 12  1  0  0  0
  9 10  2  0  0  0
 10 11  1  0  0  0
 10 17  1  0  0  0
 11 12  2  0  0  0
 17 19  1  0  0  0
 19 20  1  0  0  0
 19 24  1  0  0  0
 20 21  1  0  0  0
 21 22  1  0  0  0
 22 23  1  0  0  0
 22 25  1  0  0  0
 23 24  1  0  0  0
 25 28  1  0  0  0
 25 26  2  0  0  0
 25 27  2  0  0  0
 28 29  1  0  0  0
 29 30  2  0  0  0
 29 34  1  0  0  0
 30 31  1  0  0  0
 31 32  2  0  0  0
 32 33  1  0  0  0
 33 34  2  0  0  0
 14 16  1  0  0  0
 38 40  1  0  0  0
 17 18  1  0  0  0
M  END
> <minimizedAffinity>
-7.80300

$$$$
2B07_598_A_301


 40 44  0  0  0  0  0  0  0  0999 V2000
   49.0602    3.1761    4.4938 S   0  0  0  0  0  0  0  0  0  0  0  0
   50.1273    2.8581    5.7973 C   0  0  0  0  0  0  0  0  0  0  0  0
   51.1274    3.7875    5.9499 C   0  0  0  0  0  0  0  0  0  0  0  0
   51.0281    4.7802    4.9379 C   0  0  0  0  0  0  0  0  0  0  0  0
   49.9779    4.5809    4.0886 C   0  0  0  0  0  0  0  0  0  0  0  0
   51.9177    6.2117    4.5382 S   0  0  0  0  0  0  0  0  0  0  0  0
   50.8492    6.5058    3.2067 C   0  0  0  0  0  0  0  0  0  0  0  0
   49.8404    5.5549    3.0659 C   0  0  0  0  0  0  0  0  0  0  0  0
   50.9095    7.5834    2.2996 C   0  0  0  0  0  0  0  0  0  0  0  0
   49.9732    7.7099    1.2471 C   0  0  0  0  0  0  0  0  0  0  0  0
   48.9642    6.7475    1.1308 C   0  0  0  0  0  0  0  0  0  0  0  0
   48.8835    5.6688    2.0276 C   0  0  0  0  0  0  0  0  0  0  0  0
   49.8472    1.6027    6.6885 C   0  0  0  0  0  0  0  0  0  0  0  0
   50.2675    1.5898    7.8864 O   0  0  0  0  0  0  0  0  0  0  0  0
   49.1943    0.7052    6.0864 O   0  0  0  0  0  0  0  0  0  0  0  0
   50.7452    2.3222    8.2232 H   0  0  0  0  0  0  0  0  0  0  0  0
   50.1054    8.7966    0.3951 N   0  0  0  0  0  0  0  0  0  0  0  0
   50.9947    9.2116    0.3158 H   0  0  0  0  0  0  0  0  0  0  0  0
   49.0216    9.3643   -0.3883 C   0  0  0  0  0  0  0  0  0  0  0  0
   47.6723    8.8278    0.1443 C   0  0  0  0  0  0  0  0  0  0  0  0
   46.5056    9.4342   -0.6285 C   0  0  0  0  0  0  0  0  0  0  0  0
   46.6227   10.9336   -0.5356 N   0  0  0  0  0  0  0  0  0  0  0  0
   47.8972   11.4780   -1.1373 C   0  0  0  0  0  0  0  0  0  0  0  0
   49.0749   10.8988   -0.3564 C   0  0  0  0  0  0  0  0  0  0  0  0
   45.1639   11.8453   -0.7344 S   0  0  0  0  0  0  0  0  0  0  0  0
   44.2710   11.1173   -1.6145 O   0  0  0  0  0  0  0  0  0  0  0  0
   45.5497   13.2103   -1.0583 O   0  0  0  0  0  0  0  0  0  0  0  0
   44.5101   11.7997    0.9385 C   0  0  0  0  0  0  0  0  0  0  0  0
   45.1650   12.8703    1.7760 C   0  0  0  0  0  0  0  0  0  0  0  0
   44.6189   14.1679    1.8277 C   0  0  0  0  0  0  0  0  0  0  0  0
   45.2185   15.1718    2.6055 C   0  0  0  0  0  0  0  0  0  0  0  0
   46.3698   14.8835    3.3437 C   0  0  0  0  0  0  0  0  0  0  0  0
   46.9265   13.5952    3.3048 C   0  0  0  0  0  0  0  0  0  0  0  0
   46.3285   12.5934    2.5245 C   0  0  0  0  0  0  0  0  0  0  0  0
   52.0968    3.7746    6.9000 O   0  0  0  0  0  0  0  0  0  0  0  0
   53.4131    3.4675    6.4185 C   0  0  0  0  0  0  0  0  0  0  0  0
   53.4834    1.9455    6.3012 C   0  0  0  0  0  0  0  0  0  0  0  0
   53.3008    1.2916    7.3628 O   0  0  0  0  0  0  0  0  0  0  0  0
   53.6992    1.5074    5.1529 O   0  0  0  0  0  0  0  0  0  0  0  0
   53.1469    1.7421    8.1699 H   0  0  0  0  0  0  0  0  0  0  0  0
  1  2  1  0  0  0
  1  5  1  0  0  0
  2  3  2  0  0  0
  2 13  1  0  0  0
  3  4  1  0  0  0
  3 35  1  0  0  0
  4  5  2  0  0  0
  4  6  1  0  0  0
  5  8  1  0  0  0
 13 14  1  0  0  0
 13 15  2  0  0  0
 35 36  1  0  0  0
 36 37  1  0  0  0
 37 38  1  0  0  0
 37 39  2  0  0  0
  6  7  1  0  0  0
  7  8  2  0  0  0
  7  9  1  0  0  0
  8 12  1  0  0  0
  9 10  2  0  0  0
 10 11  1  0  0  0
 10 17  1  0  0  0
 11 12  2  0  0  0
 17 19  1  0  0  0
 19 20  1  0  0  0
 19 24  1  0  0  0
 20 21  1  0  0  0
 21 22  1  0  0  0
 22 23  1  0  0  0
 22 25  1  0  0  0
 23 24  1  0  0  0
 25 28  1  0  0  0
 25 26  2  0  0  0
 25 27  2  0  0  0
 28 29  1  0  0  0
 29 30  2  0  0  0
 29 34  1  0  0  0
 30 31  1  0  0  0
 31 32  2  0  0  0
 32 33  1  0  0  0
 33 34  2  0  0  0
 14 16  1  0  0  0
 38 40  1  0  0  0
 17 18  1  0  0  0
M  END
> <minimizedAffinity>
-7.78292

$$$$
2B07_598_A_301


 40 44  0  0  0  0  0  0  0  0999 V2000
   51.3781    5.3090    5.2935 S   0  0  0  0  0  0  0  0  0  0  0  0
   50.7436    3.9258    6.0828 C   0  0  0  0  0  0  0  0  0  0  0  0
   49.8311    3.2181    5.3389 C   0  0  0  0  0  0  0  0  0  0  0  0
   49.6252    3.8558    4.0857 C   0  0  0  0  0  0  0  0  0  0  0  0
   50.3786    4.9829    3.9243 C   0  0  0  0  0  0  0  0  0  0  0  0
   48.6542    3.5243    2.6901 S   0  0  0  0  0  0  0  0  0  0  0  0
   49.2817    4.9407    1.9150 C   0  0  0  0  0  0  0  0  0  0  0  0
   50.2062    5.6469    2.6822 C   0  0  0  0  0  0  0  0  0  0  0  0
   48.9542    5.4122    0.6273 C   0  0  0  0  0  0  0  0  0  0  0  0
   49.5380    6.5905    0.1067 C   0  0  0  0  0  0  0  0  0  0  0  0
   50.4700    7.2779    0.8920 C   0  0  0  0  0  0  0  0  0  0  0  0
   50.8139    6.8220    2.1759 C   0  0  0  0  0  0  0  0  0  0  0  0
   51.2769    3.5857    7.5142 C   0  0  0  0  0  0  0  0  0  0  0  0
   50.9312    2.4918    8.0580 O   0  0  0  0  0  0  0  0  0  0  0  0
   52.0357    4.4790    7.9838 O   0  0  0  0  0  0  0  0  0  0  0  0
   50.3578    1.9046    7.6060 H   0  0  0  0  0  0  0  0  0  0  0  0
   49.1580    6.9889   -1.1666 N   0  0  0  0  0  0  0  0  0  0  0  0
   49.7540    6.7595   -1.9158 H   0  0  0  0  0  0  0  0  0  0  0  0
   47.9407    7.7214   -1.4702 C   0  0  0  0  0  0  0  0  0  0  0  0
   47.1691    7.9942   -0.1578 C   0  0  0  0  0  0  0  0  0  0  0  0
   45.9026    8.7985   -0.4315 C   0  0  0  0  0  0  0  0  0  0  0  0
   46.3057   10.0591   -1.1521 N   0  0  0  0  0  0  0  0  0  0  0  0
   46.9783    9.8058   -2.4811 C   0  0  0  0  0  0  0  0  0  0  0  0
   48.2629    9.0222   -2.2202 C   0  0  0  0  0  0  0  0  0  0  0  0
   45.2348   11.4133   -1.0167 S   0  0  0  0  0  0  0  0  0  0  0  0
   44.1215   11.2248   -1.9259 O   0  0  0  0  0  0  0  0  0  0  0  0
   46.0485   12.6163   -1.1042 O   0  0  0  0  0  0  0  0  0  0  0  0
   44.6568   11.2152    0.6729 C   0  0  0  0  0  0  0  0  0  0  0  0
   45.1929   12.3321    1.5341 C   0  0  0  0  0  0  0  0  0  0  0  0
   46.3157   12.1203    2.3581 C   0  0  0  0  0  0  0  0  0  0  0  0
   46.8249   13.1531    3.1621 C   0  0  0  0  0  0  0  0  0  0  0  0
   46.2160   14.4110    3.1446 C   0  0  0  0  0  0  0  0  0  0  0  0
   45.0971   14.6400    2.3281 C   0  0  0  0  0  0  0  0  0  0  0  0
   44.5868   13.6062    1.5274 C   0  0  0  0  0  0  0  0  0  0  0  0
   49.1851    2.0882    5.7243 O   0  0  0  0  0  0  0  0  0  0  0  0
   49.4843    0.9226    4.9427 C   0  0  0  0  0  0  0  0  0  0  0  0
   48.1672    0.1651    4.7797 C   0  0  0  0  0  0  0  0  0  0  0  0
   47.6587    0.1647    3.6267 O   0  0  0  0  0  0  0  0  0  0  0  0
   47.7400   -0.3920    5.8113 O   0  0  0  0  0  0  0  0  0  0  0  0
   48.0806    0.6256    2.9285 H   0  0  0  0  0  0  0  0  0  0  0  0
  1  2  1  0  0  0
  1  5  1  0  0  0
  2  3  2  0  0  0
  2 13  1  0  0  0
  3  4  1  0  0  0
  3 35  1  0  0  0
  4  5  2  0  0  0
  4  6  1  0  0  0
  5  8  1  0  0  0
 13 14  1  0  0  0
 13 15  2  0  0  0
 35 36  1  0  0  0
 36 37  1  0  0  0
 37 38  1  0  0  0
 37 39  2  0  0  0
  6  7  1  0  0  0
  7  8  2  0  0  0
  7  9  1  0  0  0
  8 12  1  0  0  0
  9 10  2  0  0  0
 10 11  1  0  0  0
 10 17  1  0  0  0
 11 12  2  0  0  0
 17 19  1  0  0  0
 19 20  1  0  0  0
 19 24  1  0  0  0
 20 21  1  0  0  0
 21 22  1  0  0  0
 22 23  1  0  0  0
 22 25  1  0  0  0
 23 24  1  0  0  0
 25 28  1  0  0  0
 25 26  2  0  0  0
 25 27  2  0  0  0
 28 29  1  0  0  0
 29 30  2  0  0  0
 29 34  1  0  0  0
 30 31  1  0  0  0
 31 32  2  0  0  0
 32 33  1  0  0  0
 33 34  2  0  0  0
 14 16  1  0  0  0
 38 40  1  0  0  0
 17 18  1  0  0  0
M  END
> <minimizedAffinity>
-7.60885

$$$$
2B07_598_A_301


 40 44  0  0  0  0  0  0  0  0999 V2000
   49.9844    7.3421    3.2452 S   0  0  0  0  0  0  0  0  0  0  0  0
   51.5355    6.8442    2.7112 C   0  0  0  0  0  0  0  0  0  0  0  0
   51.8727    7.2905    1.4566 C   0  0  0  0  0  0  0  0  0  0  0  0
   50.8022    8.0442    0.9039 C   0  0  0  0  0  0  0  0  0  0  0  0
   49.7295    8.1510    1.7416 C   0  0  0  0  0  0  0  0  0  0  0  0
   50.5434    8.8896   -0.5857 S   0  0  0  0  0  0  0  0  0  0  0  0
   48.9666    9.3618   -0.0457 C   0  0  0  0  0  0  0  0  0  0  0  0
   48.6401    8.9018    1.2285 C   0  0  0  0  0  0  0  0  0  0  0  0
   48.0320   10.1439   -0.7545 C   0  0  0  0  0  0  0  0  0  0  0  0
   46.7696   10.4601   -0.2007 C   0  0  0  0  0  0  0  0  0  0  0  0
   46.4675    9.9942    1.0837 C   0  0  0  0  0  0  0  0  0  0  0  0
   47.3871    9.2176    1.8088 C   0  0  0  0  0  0  0  0  0  0  0  0
   52.4113    5.9908    3.6877 C   0  0  0  0  0  0  0  0  0  0  0  0
   52.7240    4.8048    3.3600 O   0  0  0  0  0  0  0  0  0  0  0  0
   52.7304    6.6144    4.7383 O   0  0  0  0  0  0  0  0  0  0  0  0
   52.4242    4.4489    2.5467 H   0  0  0  0  0  0  0  0  0  0  0  0
   45.9058   11.2303   -0.9655 N   0  0  0  0  0  0  0  0  0  0  0  0
   45.9119   11.0947   -1.9406 H   0  0  0  0  0  0  0  0  0  0  0  0
   44.9927   12.2233   -0.4262 C   0  0  0  0  0  0  0  0  0  0  0  0
   45.2914   12.4271    1.0776 C   0  0  0  0  0  0  0  0  0  0  0  0
   44.3780   13.4944    1.6712 C   0  0  0  0  0  0  0  0  0  0  0  0
   44.5523   14.7518    0.8592 N   0  0  0  0  0  0  0  0  0  0  0  0
   44.1743   14.5887   -0.5946 C   0  0  0  0  0  0  0  0  0  0  0  0
   45.0986   13.5400   -1.2096 C   0  0  0  0  0  0  0  0  0  0  0  0
   44.1747   16.2482    1.6447 S   0  0  0  0  0  0  0  0  0  0  0  0
   42.7746   16.5538    1.4254 O   0  0  0  0  0  0  0  0  0  0  0  0
   45.1971   17.2081    1.2571 O   0  0  0  0  0  0  0  0  0  0  0  0
   44.4168   15.7930    3.3659 C   0  0  0  0  0  0  0  0  0  0  0  0
   45.8452   16.0594    3.7722 C   0  0  0  0  0  0  0  0  0  0  0  0
   46.8454   15.0967    3.5324 C   0  0  0  0  0  0  0  0  0  0  0  0
   48.1787   15.3346    3.9042 C   0  0  0  0  0  0  0  0  0  0  0  0
   48.5238   16.5427    4.5162 C   0  0  0  0  0  0  0  0  0  0  0  0
   47.5399   17.5138    4.7614 C   0  0  0  0  0  0  0  0  0  0  0  0
   46.2070   17.2739    4.3926 C   0  0  0  0  0  0  0  0  0  0  0  0
   53.0369    7.0446    0.8032 O   0  0  0  0  0  0  0  0  0  0  0  0
   53.1179    5.7581    0.1730 C   0  0  0  0  0  0  0  0  0  0  0  0
   54.5280    5.2351    0.4442 C   0  0  0  0  0  0  0  0  0  0  0  0
   55.4766    6.0309    0.2103 O   0  0  0  0  0  0  0  0  0  0  0  0
   54.5898    4.0707    0.8886 O   0  0  0  0  0  0  0  0  0  0  0  0
   55.2978    6.8871   -0.1259 H   0  0  0  0  0  0  0  0  0  0  0  0
  1  2  1  0  0  0
  1  5  1  0  0  0
  2  3  2  0  0  0
  2 13  1  0  0  0
  3  4  1  0  0  0
  3 35  1  0  0  0
  4  5  2  0  0  0
  4  6  1  0  0  0
  5  8  1  0  0  0
 13 14  1  0  0  0
 13 15  2  0  0  0
 35 36  1  0  0  0
 36 37  1  0  0  0
 37 38  1  0  0  0
 37 39  2  0  0  0
  6  7  1  0  0  0
  7  8  2  0  0  0
  7  9  1  0  0  0
  8 12  1  0  0  0
  9 10  2  0  0  0
 10 11  1  0  0  0
 10 17  1  0  0  0
 11 12  2  0  0  0
 17 19  1  0  0  0
 19 20  1  0  0  0
 19 24  1  0  0  0
 20 21  1  0  0  0
 21 22  1  0  0  0
 22 23  1  0  0  0
 22 25  1  0  0  0
 23 24  1  0  0  0
 25 28  1  0  0  0
 25 26  2  0  0  0
 25 27  2  0  0  0
 28 29  1  0  0  0
 29 30  2  0  0  0
 29 34  1  0  0  0
 30 31  1  0  0  0
 31 32  2  0  0  0
 32 33  1  0  0  0
 33 34  2  0  0  0
 14 16  1  0  0  0
 38 40  1  0  0  0
 17 18  1  0  0  0
M  END
> <minimizedAffinity>
-7.41443

$$$$
