5IHH_6B5_A_201


 25 27  0  0  0  0  0  0  0  0999 V2000
   19.7573   -3.4673   -1.5965 O   0  0  0  0  0  0  0  0  0  0  0  0
   20.4829   -4.1214   -0.8826 C   0  0  0  0  0  0  0  0  0  0  0  0
   21.4700   -3.4582    0.0303 C   0  0  0  0  0  0  0  0  0  0  0  0
   22.2824   -4.2724    0.8325 C   0  0  0  0  0  0  0  0  0  0  0  0
   22.1828   -5.6636    0.7885 O   0  0  0  0  0  0  0  0  0  0  0  0
   21.2127   -6.2947   -0.0166 C   0  0  0  0  0  0  0  0  0  0  0  0
   20.4402   -5.5980   -0.8743 C   0  0  0  0  0  0  0  0  0  0  0  0
   23.2130   -3.7063    1.6848 C   0  0  0  0  0  0  0  0  0  0  0  0
   23.3537   -2.3432    1.7682 C   0  0  0  0  0  0  0  0  0  0  0  0
   22.5725   -1.5169    0.9899 C   0  0  0  0  0  0  0  0  0  0  0  0
   21.6378   -2.0568    0.1266 C   0  0  0  0  0  0  0  0  0  0  0  0
   20.8686   -1.2324   -0.6187 O   0  0  0  0  0  0  0  0  0  0  0  0
   20.2324   -1.5894   -1.2066 H   0  0  0  0  0  0  0  0  0  0  0  0
   21.2268   -9.9114   -1.0245 C   0  0  0  0  0  0  0  0  0  0  0  0
   21.3393   -7.7510    0.0462 C   0  0  0  0  0  0  0  0  0  0  0  0
   21.1164   -8.5148   -1.0859 C   0  0  0  0  0  0  0  0  0  0  0  0
   21.5580  -10.5280    0.1785 C   0  0  0  0  0  0  0  0  0  0  0  0
   21.6596  -11.8747    0.2182 O   0  0  0  0  0  0  0  0  0  0  0  0
   21.7773   -9.7520    1.3302 C   0  0  0  0  0  0  0  0  0  0  0  0
   22.1038  -10.3623    2.5207 O   0  0  0  0  0  0  0  0  0  0  0  0
   21.6660   -8.3747    1.2631 C   0  0  0  0  0  0  0  0  0  0  0  0
   21.8818  -12.3043    1.0208 H   0  0  0  0  0  0  0  0  0  0  0  0
   22.2499   -9.8447    3.2880 H   0  0  0  0  0  0  0  0  0  0  0  0
   24.2922   -1.7942    2.6265 O   0  0  0  0  0  0  0  0  0  0  0  0
   25.6016   -1.5201    2.1326 C   0  0  0  0  0  0  0  0  0  0  0  0
 20 19  1  0  0  0
 19 21  2  0  0  0
 19 17  1  0  0  0
  1  2  2  0  0  0
 21 15  1  0  0  0
  7  2  1  0  0  0
  7  6  2  0  0  0
  2  3  1  0  0  0
 12 11  1  0  0  0
 18 17  1  0  0  0
 17 14  2  0  0  0
 15  6  1  0  0  0
 15 16  2  0  0  0
  6  5  1  0  0  0
  3 11  2  0  0  0
  3  4  1  0  0  0
 11 10  1  0  0  0
  5  4  1  0  0  0
  4  8  2  0  0  0
 10  9  2  0  0  0
 14 16  1  0  0  0
  8  9  1  0  0  0
  9 24  1  0  0  0
 25 24  1  0  0  0
 18 22  1  0  0  0
 20 23  1  0  0  0
 12 13  1  0  0  0
M  END
> <minimizedAffinity>
-8.40662

$$$$
5IHH_6B5_A_201


 25 27  0  0  0  0  0  0  0  0999 V2000
   23.1419   -3.5274    1.6410 O   0  0  0  0  0  0  0  0  0  0  0  0
   22.4218   -4.1803    0.9205 C   0  0  0  0  0  0  0  0  0  0  0  0
   21.4420   -3.5154    0.0008 C   0  0  0  0  0  0  0  0  0  0  0  0
   20.6357   -4.3281   -0.8090 C   0  0  0  0  0  0  0  0  0  0  0  0
   20.7345   -5.7195   -0.7661 O   0  0  0  0  0  0  0  0  0  0  0  0
   21.6980   -6.3520    0.0457 C   0  0  0  0  0  0  0  0  0  0  0  0
   22.4640   -5.6569    0.9104 C   0  0  0  0  0  0  0  0  0  0  0  0
   19.7121   -3.7605   -1.6678 C   0  0  0  0  0  0  0  0  0  0  0  0
   19.5724   -2.3973   -1.7503 C   0  0  0  0  0  0  0  0  0  0  0  0
   20.3478   -1.5723   -0.9647 C   0  0  0  0  0  0  0  0  0  0  0  0
   21.2755   -2.1138   -0.0949 C   0  0  0  0  0  0  0  0  0  0  0  0
   22.0391   -1.2907    0.6576 O   0  0  0  0  0  0  0  0  0  0  0  0
   22.6706   -1.6488    1.2500 H   0  0  0  0  0  0  0  0  0  0  0  0
   21.7140   -9.9731    1.0378 C   0  0  0  0  0  0  0  0  0  0  0  0
   21.5715   -7.8082   -0.0201 C   0  0  0  0  0  0  0  0  0  0  0  0
   21.8244   -8.5767    1.1024 C   0  0  0  0  0  0  0  0  0  0  0  0
   21.3524  -10.5849   -0.1589 C   0  0  0  0  0  0  0  0  0  0  0  0
   21.2512  -11.9315   -0.2019 O   0  0  0  0  0  0  0  0  0  0  0  0
   21.1024   -9.8041   -1.3011 C   0  0  0  0  0  0  0  0  0  0  0  0
   20.7458  -10.4097   -2.4854 O   0  0  0  0  0  0  0  0  0  0  0  0
   21.2140   -8.4270   -1.2309 C   0  0  0  0  0  0  0  0  0  0  0  0
   21.0088  -12.3578   -1.0002 H   0  0  0  0  0  0  0  0  0  0  0  0
   20.5793   -9.8889   -3.2464 H   0  0  0  0  0  0  0  0  0  0  0  0
   18.6409   -1.8467   -2.6152 O   0  0  0  0  0  0  0  0  0  0  0  0
   17.3465   -1.5170   -2.1159 C   0  0  0  0  0  0  0  0  0  0  0  0
 20 19  1  0  0  0
 19 21  2  0  0  0
 19 17  1  0  0  0
  1  2  2  0  0  0
 21 15  1  0  0  0
  7  2  1  0  0  0
  7  6  2  0  0  0
  2  3  1  0  0  0
 12 11  1  0  0  0
 18 17  1  0  0  0
 17 14  2  0  0  0
 15  6  1  0  0  0
 15 16  2  0  0  0
  6  5  1  0  0  0
  3 11  2  0  0  0
  3  4  1  0  0  0
 11 10  1  0  0  0
  5  4  1  0  0  0
  4  8  2  0  0  0
 10  9  2  0  0  0
 14 16  1  0  0  0
  8  9  1  0  0  0
  9 24  1  0  0  0
 25 24  1  0  0  0
 18 22  1  0  0  0
 20 23  1  0  0  0
 12 13  1  0  0  0
M  END
> <minimizedAffinity>
-8.40471

$$$$
5IHH_6B5_A_201


 25 27  0  0  0  0  0  0  0  0999 V2000
   19.7288   -3.3218   -1.6176 O   0  0  0  0  0  0  0  0  0  0  0  0
   20.4425   -4.0186   -0.9327 C   0  0  0  0  0  0  0  0  0  0  0  0
   21.4526   -3.4128   -0.0050 C   0  0  0  0  0  0  0  0  0  0  0  0
   22.2496   -4.2747    0.7619 C   0  0  0  0  0  0  0  0  0  0  0  0
   22.1143   -5.6606    0.6703 O   0  0  0  0  0  0  0  0  0  0  0  0
   21.1228   -6.2385   -0.1485 C   0  0  0  0  0  0  0  0  0  0  0  0
   20.3623   -5.4931   -0.9754 C   0  0  0  0  0  0  0  0  0  0  0  0
   23.2002   -3.7624    1.6261 C   0  0  0  0  0  0  0  0  0  0  0  0
   23.3762   -2.4071    1.7557 C   0  0  0  0  0  0  0  0  0  0  0  0
   22.6108   -1.5346    1.0127 C   0  0  0  0  0  0  0  0  0  0  0  0
   21.6567   -2.0203    0.1386 C   0  0  0  0  0  0  0  0  0  0  0  0
   20.9035   -1.1512   -0.5715 O   0  0  0  0  0  0  0  0  0  0  0  0
   20.2543   -1.4713   -1.1664 H   0  0  0  0  0  0  0  0  0  0  0  0
   21.6952   -9.7590    1.0241 C   0  0  0  0  0  0  0  0  0  0  0  0
   21.2127   -7.6989   -0.1374 C   0  0  0  0  0  0  0  0  0  0  0  0
   21.5982   -8.3601    1.0153 C   0  0  0  0  0  0  0  0  0  0  0  0
   21.4059  -10.4809   -0.1302 C   0  0  0  0  0  0  0  0  0  0  0  0
   21.5050  -11.8281   -0.1025 O   0  0  0  0  0  0  0  0  0  0  0  0
   21.0211   -9.8081   -1.3032 C   0  0  0  0  0  0  0  0  0  0  0  0
   20.7360  -10.5224   -2.4456 O   0  0  0  0  0  0  0  0  0  0  0  0
   20.9282   -8.4279   -1.3055 C   0  0  0  0  0  0  0  0  0  0  0  0
   21.3135  -12.3278   -0.8716 H   0  0  0  0  0  0  0  0  0  0  0  0
   20.4797  -10.0735   -3.2270 H   0  0  0  0  0  0  0  0  0  0  0  0
   24.3343   -1.9122    2.6251 O   0  0  0  0  0  0  0  0  0  0  0  0
   25.5927   -1.4950    2.0998 C   0  0  0  0  0  0  0  0  0  0  0  0
 20 19  1  0  0  0
 19 21  2  0  0  0
 19 17  1  0  0  0
  1  2  2  0  0  0
 21 15  1  0  0  0
  7  2  1  0  0  0
  7  6  2  0  0  0
  2  3  1  0  0  0
 12 11  1  0  0  0
 18 17  1  0  0  0
 17 14  2  0  0  0
 15  6  1  0  0  0
 15 16  2  0  0  0
  6  5  1  0  0  0
  3 11  2  0  0  0
  3  4  1  0  0  0
 11 10  1  0  0  0
  5  4  1  0  0  0
  4  8  2  0  0  0
 10  9  2  0  0  0
 14 16  1  0  0  0
  8  9  1  0  0  0
  9 24  1  0  0  0
 25 24  1  0  0  0
 18 22  1  0  0  0
 20 23  1  0  0  0
 12 13  1  0  0  0
M  END
> <minimizedAffinity>
-8.38441

$$$$
5IHH_6B5_A_201


 25 27  0  0  0  0  0  0  0  0999 V2000
   23.3365   -2.9207    1.8447 O   0  0  0  0  0  0  0  0  0  0  0  0
   22.6418   -3.6201    1.1431 C   0  0  0  0  0  0  0  0  0  0  0  0
   21.6547   -3.0180    0.1886 C   0  0  0  0  0  0  0  0  0  0  0  0
   20.8791   -3.8828   -0.5967 C   0  0  0  0  0  0  0  0  0  0  0  0
   21.0144   -5.2683   -0.4988 O   0  0  0  0  0  0  0  0  0  0  0  0
   21.9855   -5.8428    0.3464 C   0  0  0  0  0  0  0  0  0  0  0  0
   22.7233   -5.0943    1.1909 C   0  0  0  0  0  0  0  0  0  0  0  0
   19.9501   -3.3740   -1.4860 C   0  0  0  0  0  0  0  0  0  0  0  0
   19.7752   -2.0192   -1.6229 C   0  0  0  0  0  0  0  0  0  0  0  0
   20.5198   -1.1439   -0.8624 C   0  0  0  0  0  0  0  0  0  0  0  0
   21.4521   -1.6261    0.0369 C   0  0  0  0  0  0  0  0  0  0  0  0
   22.1853   -0.7543    0.7642 O   0  0  0  0  0  0  0  0  0  0  0  0
   22.8196   -1.0721    1.3763 H   0  0  0  0  0  0  0  0  0  0  0  0
   21.9361   -9.3955   -0.8672 C   0  0  0  0  0  0  0  0  0  0  0  0
   21.8984   -7.3034    0.3361 C   0  0  0  0  0  0  0  0  0  0  0  0
   22.0301   -7.9964   -0.8543 C   0  0  0  0  0  0  0  0  0  0  0  0
   21.7068  -10.0854    0.3197 C   0  0  0  0  0  0  0  0  0  0  0  0
   21.6191  -11.4333    0.2875 O   0  0  0  0  0  0  0  0  0  0  0  0
   21.5660   -9.3803    1.5278 C   0  0  0  0  0  0  0  0  0  0  0  0
   21.3380  -10.0630    2.7019 O   0  0  0  0  0  0  0  0  0  0  0  0
   21.6590   -8.0001    1.5335 C   0  0  0  0  0  0  0  0  0  0  0  0
   21.4651  -11.9118    1.0782 H   0  0  0  0  0  0  0  0  0  0  0  0
   21.2443   -9.5926    3.5068 H   0  0  0  0  0  0  0  0  0  0  0  0
   18.8388   -1.5278   -2.5176 O   0  0  0  0  0  0  0  0  0  0  0  0
   18.7675   -0.1207   -2.7380 C   0  0  0  0  0  0  0  0  0  0  0  0
 20 19  1  0  0  0
 19 21  2  0  0  0
 19 17  1  0  0  0
  1  2  2  0  0  0
 21 15  1  0  0  0
  7  2  1  0  0  0
  7  6  2  0  0  0
  2  3  1  0  0  0
 12 11  1  0  0  0
 18 17  1  0  0  0
 17 14  2  0  0  0
 15  6  1  0  0  0
 15 16  2  0  0  0
  6  5  1  0  0  0
  3 11  2  0  0  0
  3  4  1  0  0  0
 11 10  1  0  0  0
  5  4  1  0  0  0
  4  8  2  0  0  0
 10  9  2  0  0  0
 14 16  1  0  0  0
  8  9  1  0  0  0
  9 24  1  0  0  0
 25 24  1  0  0  0
 18 22  1  0  0  0
 20 23  1  0  0  0
 12 13  1  0  0  0
M  END
> <minimizedAffinity>
-7.73259

$$$$
5IHH_6B5_A_201


 25 27  0  0  0  0  0  0  0  0999 V2000
   22.5129   -2.1088    0.3578 O   0  0  0  0  0  0  0  0  0  0  0  0
   21.7416   -2.9123   -0.1150 C   0  0  0  0  0  0  0  0  0  0  0  0
   20.4920   -2.4651   -0.8123 C   0  0  0  0  0  0  0  0  0  0  0  0
   19.6390   -3.4457   -1.3386 C   0  0  0  0  0  0  0  0  0  0  0  0
   19.9363   -4.8041   -1.2206 O   0  0  0  0  0  0  0  0  0  0  0  0
   21.1406   -5.2325   -0.6260 C   0  0  0  0  0  0  0  0  0  0  0  0
   21.9838   -4.3669   -0.0280 C   0  0  0  0  0  0  0  0  0  0  0  0
   18.4710   -3.0818   -1.9837 C   0  0  0  0  0  0  0  0  0  0  0  0
   18.1291   -1.7600   -2.1281 C   0  0  0  0  0  0  0  0  0  0  0  0
   18.9449   -0.7733   -1.6184 C   0  0  0  0  0  0  0  0  0  0  0  0
   20.1158   -1.1099   -0.9655 C   0  0  0  0  0  0  0  0  0  0  0  0
   20.9128   -0.1299   -0.4848 O   0  0  0  0  0  0  0  0  0  0  0  0
   21.7084   -0.3487   -0.0408 H   0  0  0  0  0  0  0  0  0  0  0  0
   20.2730   -8.8583   -1.0704 C   0  0  0  0  0  0  0  0  0  0  0  0
   21.2045   -6.6925   -0.5531 C   0  0  0  0  0  0  0  0  0  0  0  0
   20.2187   -7.4593   -1.1488 C   0  0  0  0  0  0  0  0  0  0  0  0
   21.3190   -9.4740   -0.3892 C   0  0  0  0  0  0  0  0  0  0  0  0
   21.3544  -10.8230   -0.3242 O   0  0  0  0  0  0  0  0  0  0  0  0
   22.3166   -8.6942    0.2220 C   0  0  0  0  0  0  0  0  0  0  0  0
   23.3508   -9.3035    0.8969 O   0  0  0  0  0  0  0  0  0  0  0  0
   22.2567   -7.3145    0.1417 C   0  0  0  0  0  0  0  0  0  0  0  0
   22.0522  -11.2521    0.1307 H   0  0  0  0  0  0  0  0  0  0  0  0
   24.0154   -8.7834    1.3041 H   0  0  0  0  0  0  0  0  0  0  0  0
   16.9544   -1.4144   -2.7759 O   0  0  0  0  0  0  0  0  0  0  0  0
   16.3787   -0.1343   -2.5240 C   0  0  0  0  0  0  0  0  0  0  0  0
 20 19  1  0  0  0
 19 21  2  0  0  0
 19 17  1  0  0  0
  1  2  2  0  0  0
 21 15  1  0  0  0
  7  2  1  0  0  0
  7  6  2  0  0  0
  2  3  1  0  0  0
 12 11  1  0  0  0
 18 17  1  0  0  0
 17 14  2  0  0  0
 15  6  1  0  0  0
 15 16  2  0  0  0
  6  5  1  0  0  0
  3 11  2  0  0  0
  3  4  1  0  0  0
 11 10  1  0  0  0
  5  4  1  0  0  0
  4  8  2  0  0  0
 10  9  2  0  0  0
 14 16  1  0  0  0
  8  9  1  0  0  0
  9 24  1  0  0  0
 25 24  1  0  0  0
 18 22  1  0  0  0
 20 23  1  0  0  0
 12 13  1  0  0  0
M  END
> <minimizedAffinity>
-7.60938

$$$$
5IHH_6B5_A_201


 25 27  0  0  0  0  0  0  0  0999 V2000
   20.0654   -4.3904   -1.6100 O   0  0  0  0  0  0  0  0  0  0  0  0
   20.9230   -4.4975   -0.7631 C   0  0  0  0  0  0  0  0  0  0  0  0
   21.2591   -5.8325   -0.1693 C   0  0  0  0  0  0  0  0  0  0  0  0
   22.2628   -5.8899    0.8083 C   0  0  0  0  0  0  0  0  0  0  0  0
   22.9357   -4.7403    1.2245 O   0  0  0  0  0  0  0  0  0  0  0  0
   22.6739   -3.4914    0.6253 C   0  0  0  0  0  0  0  0  0  0  0  0
   21.6771   -3.3279   -0.2677 C   0  0  0  0  0  0  0  0  0  0  0  0
   22.6023   -7.0977    1.3902 C   0  0  0  0  0  0  0  0  0  0  0  0
   21.9726   -8.2597    1.0188 C   0  0  0  0  0  0  0  0  0  0  0  0
   20.9796   -8.2352    0.0636 C   0  0  0  0  0  0  0  0  0  0  0  0
   20.6181   -7.0408   -0.5307 C   0  0  0  0  0  0  0  0  0  0  0  0
   19.6531   -7.0359   -1.4769 O   0  0  0  0  0  0  0  0  0  0  0  0
   19.4015   -6.2309   -1.8853 H   0  0  0  0  0  0  0  0  0  0  0  0
   25.4872   -1.6400    2.2848 C   0  0  0  0  0  0  0  0  0  0  0  0
   23.4451   -2.4254    1.2655 C   0  0  0  0  0  0  0  0  0  0  0  0
   24.7505   -2.6573    1.6615 C   0  0  0  0  0  0  0  0  0  0  0  0
   24.9014   -0.3971    2.5073 C   0  0  0  0  0  0  0  0  0  0  0  0
   25.6268    0.5707    3.1094 O   0  0  0  0  0  0  0  0  0  0  0  0
   23.5727   -0.1643    2.1112 C   0  0  0  0  0  0  0  0  0  0  0  0
   22.9928    1.0651    2.3325 O   0  0  0  0  0  0  0  0  0  0  0  0
   22.8511   -1.1725    1.4975 C   0  0  0  0  0  0  0  0  0  0  0  0
   25.2463    1.4125    3.2661 H   0  0  0  0  0  0  0  0  0  0  0  0
   22.1073    1.2198    2.0683 H   0  0  0  0  0  0  0  0  0  0  0  0
   22.3249   -9.4600    1.6138 O   0  0  0  0  0  0  0  0  0  0  0  0
   21.9089   -9.7138    2.9539 C   0  0  0  0  0  0  0  0  0  0  0  0
 20 19  1  0  0  0
 19 21  2  0  0  0
 19 17  1  0  0  0
  1  2  2  0  0  0
 21 15  1  0  0  0
  7  2  1  0  0  0
  7  6  2  0  0  0
  2  3  1  0  0  0
 12 11  1  0  0  0
 18 17  1  0  0  0
 17 14  2  0  0  0
 15  6  1  0  0  0
 15 16  2  0  0  0
  6  5  1  0  0  0
  3 11  2  0  0  0
  3  4  1  0  0  0
 11 10  1  0  0  0
  5  4  1  0  0  0
  4  8  2  0  0  0
 10  9  2  0  0  0
 14 16  1  0  0  0
  8  9  1  0  0  0
  9 24  1  0  0  0
 25 24  1  0  0  0
 18 22  1  0  0  0
 20 23  1  0  0  0
 12 13  1  0  0  0
M  END
> <minimizedAffinity>
-7.50743

$$$$
5IHH_6B5_A_201


 25 27  0  0  0  0  0  0  0  0999 V2000
   19.4068   -2.1029   -2.0165 O   0  0  0  0  0  0  0  0  0  0  0  0
   20.1361   -2.7714   -1.3200 C   0  0  0  0  0  0  0  0  0  0  0  0
   21.0849   -2.1274   -0.3542 C   0  0  0  0  0  0  0  0  0  0  0  0
   21.9038   -2.9576    0.4246 C   0  0  0  0  0  0  0  0  0  0  0  0
   21.8452   -4.3472    0.3100 O   0  0  0  0  0  0  0  0  0  0  0  0
   20.9104   -4.9640   -0.5461 C   0  0  0  0  0  0  0  0  0  0  0  0
   20.1359   -4.2472   -1.3853 C   0  0  0  0  0  0  0  0  0  0  0  0
   22.8000   -2.4091    1.3239 C   0  0  0  0  0  0  0  0  0  0  0  0
   22.8998   -1.0485    1.4772 C   0  0  0  0  0  0  0  0  0  0  0  0
   22.1112   -0.2064    0.7236 C   0  0  0  0  0  0  0  0  0  0  0  0
   21.2103   -0.7283   -0.1854 C   0  0  0  0  0  0  0  0  0  0  0  0
   20.4331    0.1105   -0.9059 O   0  0  0  0  0  0  0  0  0  0  0  0
   19.8196   -0.2344   -1.5244 H   0  0  0  0  0  0  0  0  0  0  0  0
   20.2505   -8.6188   -1.0974 C   0  0  0  0  0  0  0  0  0  0  0  0
   21.0775   -6.4176   -0.5523 C   0  0  0  0  0  0  0  0  0  0  0  0
   20.0965   -7.2250   -1.1005 C   0  0  0  0  0  0  0  0  0  0  0  0
   21.3909   -9.1886   -0.5388 C   0  0  0  0  0  0  0  0  0  0  0  0
   21.5215  -10.5334   -0.5449 O   0  0  0  0  0  0  0  0  0  0  0  0
   22.3840   -8.3682    0.0245 C   0  0  0  0  0  0  0  0  0  0  0  0
   23.5117   -8.9322    0.5782 O   0  0  0  0  0  0  0  0  0  0  0  0
   22.2256   -6.9939    0.0189 C   0  0  0  0  0  0  0  0  0  0  0  0
   22.2835  -10.9318   -0.1726 H   0  0  0  0  0  0  0  0  0  0  0  0
   24.1733   -8.3850    0.9535 H   0  0  0  0  0  0  0  0  0  0  0  0
   23.8043   -0.5170    2.3818 O   0  0  0  0  0  0  0  0  0  0  0  0
   25.1891   -0.8231    2.2331 C   0  0  0  0  0  0  0  0  0  0  0  0
 20 19  1  0  0  0
 19 21  2  0  0  0
 19 17  1  0  0  0
  1  2  2  0  0  0
 21 15  1  0  0  0
  7  2  1  0  0  0
  7  6  2  0  0  0
  2  3  1  0  0  0
 12 11  1  0  0  0
 18 17  1  0  0  0
 17 14  2  0  0  0
 15  6  1  0  0  0
 15 16  2  0  0  0
  6  5  1  0  0  0
  3 11  2  0  0  0
  3  4  1  0  0  0
 11 10  1  0  0  0
  5  4  1  0  0  0
  4  8  2  0  0  0
 10  9  2  0  0  0
 14 16  1  0  0  0
  8  9  1  0  0  0
  9 24  1  0  0  0
 25 24  1  0  0  0
 18 22  1  0  0  0
 20 23  1  0  0  0
 12 13  1  0  0  0
M  END
> <minimizedAffinity>
-7.11134

$$$$
5IHH_6B5_A_201


 25 27  0  0  0  0  0  0  0  0999 V2000
   19.7463   -5.8116    2.7695 O   0  0  0  0  0  0  0  0  0  0  0  0
   20.5873   -5.4585    1.9746 C   0  0  0  0  0  0  0  0  0  0  0  0
   20.9265   -6.3031    0.7832 C   0  0  0  0  0  0  0  0  0  0  0  0
   21.9106   -5.8380   -0.1009 C   0  0  0  0  0  0  0  0  0  0  0  0
   22.5630   -4.6234    0.1146 O   0  0  0  0  0  0  0  0  0  0  0  0
   22.2048   -3.7909    1.1944 C   0  0  0  0  0  0  0  0  0  0  0  0
   21.3242   -4.1882    2.1349 C   0  0  0  0  0  0  0  0  0  0  0  0
   22.2626   -6.5860   -1.2097 C   0  0  0  0  0  0  0  0  0  0  0  0
   21.6533   -7.7884   -1.4701 C   0  0  0  0  0  0  0  0  0  0  0  0
   20.6853   -8.2738   -0.6179 C   0  0  0  0  0  0  0  0  0  0  0  0
   20.3178   -7.5483    0.4996 C   0  0  0  0  0  0  0  0  0  0  0  0
   19.3558   -8.0307    1.3173 O   0  0  0  0  0  0  0  0  0  0  0  0
   19.1002   -7.5458    2.0772 H   0  0  0  0  0  0  0  0  0  0  0  0
   25.2626   -1.6228    1.4086 C   0  0  0  0  0  0  0  0  0  0  0  0
   23.0644   -2.6086    1.2588 C   0  0  0  0  0  0  0  0  0  0  0  0
   24.4382   -2.7549    1.3360 C   0  0  0  0  0  0  0  0  0  0  0  0
   24.6958   -0.3516    1.4061 C   0  0  0  0  0  0  0  0  0  0  0  0
   25.5061    0.7271    1.4769 O   0  0  0  0  0  0  0  0  0  0  0  0
   23.2994   -0.2038    1.3348 C   0  0  0  0  0  0  0  0  0  0  0  0
   22.7387    1.0540    1.3334 O   0  0  0  0  0  0  0  0  0  0  0  0
   22.4918   -1.3247    1.2642 C   0  0  0  0  0  0  0  0  0  0  0  0
   25.1394    1.5894    1.4761 H   0  0  0  0  0  0  0  0  0  0  0  0
   21.8080    1.1520    1.2859 H   0  0  0  0  0  0  0  0  0  0  0  0
   22.0200   -8.5245   -2.5848 O   0  0  0  0  0  0  0  0  0  0  0  0
   21.1455   -9.5491   -3.0529 C   0  0  0  0  0  0  0  0  0  0  0  0
 20 19  1  0  0  0
 19 21  2  0  0  0
 19 17  1  0  0  0
  1  2  2  0  0  0
 21 15  1  0  0  0
  7  2  1  0  0  0
  7  6  2  0  0  0
  2  3  1  0  0  0
 12 11  1  0  0  0
 18 17  1  0  0  0
 17 14  2  0  0  0
 15  6  1  0  0  0
 15 16  2  0  0  0
  6  5  1  0  0  0
  3 11  2  0  0  0
  3  4  1  0  0  0
 11 10  1  0  0  0
  5  4  1  0  0  0
  4  8  2  0  0  0
 10  9  2  0  0  0
 14 16  1  0  0  0
  8  9  1  0  0  0
  9 24  1  0  0  0
 25 24  1  0  0  0
 18 22  1  0  0  0
 20 23  1  0  0  0
 12 13  1  0  0  0
M  END
> <minimizedAffinity>
-7.00044

$$$$
5IHH_6B5_A_201


 25 27  0  0  0  0  0  0  0  0999 V2000
   20.6118   -5.2551   -0.8216 O   0  0  0  0  0  0  0  0  0  0  0  0
   20.8358   -4.0827   -0.6230 C   0  0  0  0  0  0  0  0  0  0  0  0
   19.9397   -3.0196   -1.1838 C   0  0  0  0  0  0  0  0  0  0  0  0
   20.2537   -1.6792   -0.9178 C   0  0  0  0  0  0  0  0  0  0  0  0
   21.3690   -1.3340   -0.1533 O   0  0  0  0  0  0  0  0  0  0  0  0
   22.1795   -2.3268    0.4338 C   0  0  0  0  0  0  0  0  0  0  0  0
   21.9979   -3.6370    0.1727 C   0  0  0  0  0  0  0  0  0  0  0  0
   19.4608   -0.6634   -1.4202 C   0  0  0  0  0  0  0  0  0  0  0  0
   18.3517   -0.9458   -2.1785 C   0  0  0  0  0  0  0  0  0  0  0  0
   18.0192   -2.2531   -2.4603 C   0  0  0  0  0  0  0  0  0  0  0  0
   18.7971   -3.2869   -1.9741 C   0  0  0  0  0  0  0  0  0  0  0  0
   18.4488   -4.5642   -2.2464 O   0  0  0  0  0  0  0  0  0  0  0  0
   18.9702   -5.2715   -1.9210 H   0  0  0  0  0  0  0  0  0  0  0  0
   25.5577   -1.9177    2.0203 C   0  0  0  0  0  0  0  0  0  0  0  0
   23.3218   -1.7338    1.1299 C   0  0  0  0  0  0  0  0  0  0  0  0
   24.4664   -2.4814    1.3439 C   0  0  0  0  0  0  0  0  0  0  0  0
   25.4861   -0.6055    2.4788 C   0  0  0  0  0  0  0  0  0  0  0  0
   26.5476   -0.0797    3.1285 O   0  0  0  0  0  0  0  0  0  0  0  0
   24.3203    0.1513    2.2673 C   0  0  0  0  0  0  0  0  0  0  0  0
   24.2491    1.4493    2.7220 O   0  0  0  0  0  0  0  0  0  0  0  0
   23.2468   -0.4109    1.6000 C   0  0  0  0  0  0  0  0  0  0  0  0
   26.5145    0.8023    3.4431 H   0  0  0  0  0  0  0  0  0  0  0  0
   23.4719    1.9532    2.5808 H   0  0  0  0  0  0  0  0  0  0  0  0
   17.5702    0.0847   -2.6745 O   0  0  0  0  0  0  0  0  0  0  0  0
   16.1517   -0.0616   -2.6697 C   0  0  0  0  0  0  0  0  0  0  0  0
 20 19  1  0  0  0
 19 21  2  0  0  0
 19 17  1  0  0  0
  1  2  2  0  0  0
 21 15  1  0  0  0
  7  2  1  0  0  0
  7  6  2  0  0  0
  2  3  1  0  0  0
 12 11  1  0  0  0
 18 17  1  0  0  0
 17 14  2  0  0  0
 15  6  1  0  0  0
 15 16  2  0  0  0
  6  5  1  0  0  0
  3 11  2  0  0  0
  3  4  1  0  0  0
 11 10  1  0  0  0
  5  4  1  0  0  0
  4  8  2  0  0  0
 10  9  2  0  0  0
 14 16  1  0  0  0
  8  9  1  0  0  0
  9 24  1  0  0  0
 25 24  1  0  0  0
 18 22  1  0  0  0
 20 23  1  0  0  0
 12 13  1  0  0  0
M  END
> <minimizedAffinity>
-6.39947

$$$$
5IHH_6B5_A_201


 25 27  0  0  0  0  0  0  0  0999 V2000
   20.5297    0.1061   -0.8999 O   0  0  0  0  0  0  0  0  0  0  0  0
   21.1524   -0.7204   -0.2730 C   0  0  0  0  0  0  0  0  0  0  0  0
   22.2228   -0.3109    0.6937 C   0  0  0  0  0  0  0  0  0  0  0  0
   22.9083   -1.3170    1.3895 C   0  0  0  0  0  0  0  0  0  0  0  0
   22.6100   -2.6661    1.1934 O   0  0  0  0  0  0  0  0  0  0  0  0
   21.5609   -3.0584    0.3373 C   0  0  0  0  0  0  0  0  0  0  0  0
   20.8982   -2.1674   -0.4273 C   0  0  0  0  0  0  0  0  0  0  0  0
   23.9088   -0.9883    2.2860 C   0  0  0  0  0  0  0  0  0  0  0  0
   24.2437    0.3228    2.5175 C   0  0  0  0  0  0  0  0  0  0  0  0
   23.5907    1.3339    1.8463 C   0  0  0  0  0  0  0  0  0  0  0  0
   22.5899    1.0326    0.9419 C   0  0  0  0  0  0  0  0  0  0  0  0
   21.9485    2.0363    0.3032 O   0  0  0  0  0  0  0  0  0  0  0  0
   21.2688    1.8416   -0.3116 H   0  0  0  0  0  0  0  0  0  0  0  0
   21.8540   -6.5555   -0.9972 C   0  0  0  0  0  0  0  0  0  0  0  0
   21.4769   -4.5158    0.2370 C   0  0  0  0  0  0  0  0  0  0  0  0
   21.9438   -5.1599   -0.8952 C   0  0  0  0  0  0  0  0  0  0  0  0
   21.2913   -7.2914    0.0416 C   0  0  0  0  0  0  0  0  0  0  0  0
   21.2133   -8.6352   -0.0748 O   0  0  0  0  0  0  0  0  0  0  0  0
   20.8106   -6.6358    1.1887 C   0  0  0  0  0  0  0  0  0  0  0  0
   20.2528   -7.3639    2.2159 O   0  0  0  0  0  0  0  0  0  0  0  0
   20.9014   -5.2586    1.2827 C   0  0  0  0  0  0  0  0  0  0  0  0
   20.8371   -9.1442    0.6161 H   0  0  0  0  0  0  0  0  0  0  0  0
   19.9326   -6.9265    2.9802 H   0  0  0  0  0  0  0  0  0  0  0  0
   25.2496    0.6330    3.4179 O   0  0  0  0  0  0  0  0  0  0  0  0
   25.8402    1.9302    3.3724 C   0  0  0  0  0  0  0  0  0  0  0  0
 20 19  1  0  0  0
 19 21  2  0  0  0
 19 17  1  0  0  0
  1  2  2  0  0  0
 21 15  1  0  0  0
  7  2  1  0  0  0
  7  6  2  0  0  0
  2  3  1  0  0  0
 12 11  1  0  0  0
 18 17  1  0  0  0
 17 14  2  0  0  0
 15  6  1  0  0  0
 15 16  2  0  0  0
  6  5  1  0  0  0
  3 11  2  0  0  0
  3  4  1  0  0  0
 11 10  1  0  0  0
  5  4  1  0  0  0
  4  8  2  0  0  0
 10  9  2  0  0  0
 14 16  1  0  0  0
  8  9  1  0  0  0
  9 24  1  0  0  0
 25 24  1  0  0  0
 18 22  1  0  0  0
 20 23  1  0  0  0
 12 13  1  0  0  0
M  END
> <minimizedAffinity>
-6.29478

$$$$
