4X5Q_3XN_A_301


 34 37  0  0  0  0  0  0  0  0999 V2000
  -28.7305   -9.3512  -10.6166 C   0  0  0  0  0  0  0  0  0  0  0  0
  -29.5020  -10.4724  -10.6318 C   0  0  0  0  0  0  0  0  0  0  0  0
  -30.8313  -10.3450  -11.0663 C   0  0  0  0  0  0  0  0  0  0  0  0
  -31.3330   -9.0993  -11.4752 C   0  0  0  0  0  0  0  0  0  0  0  0
  -30.5162   -7.9882  -11.4405 C   0  0  0  0  0  0  0  0  0  0  0  0
  -29.2251   -8.1156  -11.0107 C   0  0  0  0  0  0  0  0  0  0  0  0
  -33.0259   -8.3245  -13.1508 C   0  0  0  0  0  0  0  0  0  0  0  0
  -34.4105   -8.4185  -13.3038 C   0  0  0  0  0  0  0  0  0  0  0  0
  -34.9324   -9.1277  -12.1330 C   0  0  0  0  0  0  0  0  0  0  0  0
  -33.8126   -9.4586  -11.3073 C   0  0  0  0  0  0  0  0  0  0  0  0
  -36.3904  -10.0634  -10.4645 C   0  0  0  0  0  0  0  0  0  0  0  0
  -36.2410   -9.4373  -11.7076 C   0  0  0  0  0  0  0  0  0  0  0  0
  -35.2850  -10.3966   -9.6327 C   0  0  0  0  0  0  0  0  0  0  0  0
  -33.9988  -10.1033  -10.0476 C   0  0  0  0  0  0  0  0  0  0  0  0
  -32.6743   -8.9688  -11.9422 N   0  0  0  0  0  0  0  0  0  0  0  0
  -37.7650  -10.3845   -9.9706 N   0  0  0  0  0  0  0  0  0  0  0  0
  -38.2303  -11.4837  -10.2648 O   0  0  0  0  0  0  0  0  0  0  0  0
  -38.3687   -9.5600   -9.2987 O   0  0  0  0  0  0  0  0  0  0  0  0
  -27.4224   -9.3664  -10.1675 O   0  0  0  0  0  0  0  0  0  0  0  0
  -23.9244   -9.5875   -7.9697 O   0  0  0  0  0  0  0  0  0  0  0  0
  -27.2125   -7.7736   -7.8724 C   0  0  0  0  0  0  0  0  0  0  0  0
  -24.3771   -7.5667   -9.8831 O   0  0  0  0  0  0  0  0  0  0  0  0
  -26.6566   -8.2283  -10.0987 C   0  0  0  0  0  0  0  0  0  0  0  0
  -27.1177   -7.2621   -9.2097 O   0  0  0  0  0  0  0  0  0  0  0  0
  -25.8345   -8.2372   -7.3927 C   0  0  0  0  0  0  0  0  0  0  0  0
  -25.9457   -8.8492   -6.1273 O   0  0  0  0  0  0  0  0  0  0  0  0
  -25.2476   -9.2454   -8.3709 C   0  0  0  0  0  0  0  0  0  0  0  0
  -25.2572   -8.6836   -9.7870 C   0  0  0  0  0  0  0  0  0  0  0  0
  -23.5530  -10.2298   -8.5945 H   0  0  0  0  0  0  0  0  0  0  0  0
  -24.3930   -7.2195  -10.7887 H   0  0  0  0  0  0  0  0  0  0  0  0
  -26.5267   -9.6232   -6.1924 H   0  0  0  0  0  0  0  0  0  0  0  0
  -27.8045   -6.6743   -7.0351 C   0  0  0  0  0  0  0  0  0  0  0  0
  -27.0675   -5.4589   -7.1694 O   0  0  0  0  0  0  0  0  0  0  0  0
  -26.1558   -5.5987   -6.8691 H   0  0  0  0  0  0  0  0  0  0  0  0
  8  7  2  0  0  0
  8  9  1  0  0  0
  7 15  1  0  0  0
  9 12  2  0  0  0
  9 10  1  0  0  0
 15  4  1  0  0  0
 15 10  1  0  0  0
 12 11  1  0  0  0
  3  4  2  0  0  0
  3  2  1  0  0  0
  4  5  1  0  0  0
 10 14  2  0  0  0
  2  1  2  0  0  0
  5  6  2  0  0  0
 18 16  1  0  0  0
  1  6  1  0  0  0
  1 19  1  0  0  0
 11 16  1  0  0  0
 11 13  2  0  0  0
 19 23  1  0  0  0
 14 13  1  0  0  0
 23 28  1  0  0  0
 23 24  1  0  0  0
 16 17  2  0  0  0
 28 22  1  0  0  0
 28 27  1  0  0  0
 24 21  1  0  0  0
 27 20  1  0  0  0
 27 25  1  0  0  0
 21 25  1  0  0  0
 21 32  1  0  0  0
 25 26  1  0  0  0
 32 33  1  0  0  0
 20 29  1  0  0  0
 22 30  1  0  0  0
 33 34  1  0  0  0
 26 31  1  0  0  0
M  CHG 1  16   1
M  CHG 1  18  -1
M  END
> <minimizedAffinity>
-9.52673

$$$$
4X5Q_3XN_A_301


 34 37  0  0  0  0  0  0  0  0999 V2000
  -28.5895   -8.6875  -10.9328 C   0  0  0  0  0  0  0  0  0  0  0  0
  -29.1607   -9.8118  -11.4448 C   0  0  0  0  0  0  0  0  0  0  0  0
  -30.5003   -9.7337  -11.8585 C   0  0  0  0  0  0  0  0  0  0  0  0
  -31.2128   -8.5291  -11.7492 C   0  0  0  0  0  0  0  0  0  0  0  0
  -30.5949   -7.4144  -11.2213 C   0  0  0  0  0  0  0  0  0  0  0  0
  -29.2929   -7.4968  -10.8138 C   0  0  0  0  0  0  0  0  0  0  0  0
  -32.9788   -7.6564  -13.2962 C   0  0  0  0  0  0  0  0  0  0  0  0
  -34.3540   -7.8335  -13.4601 C   0  0  0  0  0  0  0  0  0  0  0  0
  -34.8071   -8.7397  -12.4021 C   0  0  0  0  0  0  0  0  0  0  0  0
  -33.6559   -9.0976  -11.6326 C   0  0  0  0  0  0  0  0  0  0  0  0
  -36.1706  -10.0118  -10.8829 C   0  0  0  0  0  0  0  0  0  0  0  0
  -36.0834   -9.2060  -12.0243 C   0  0  0  0  0  0  0  0  0  0  0  0
  -35.0336  -10.3740  -10.1078 C   0  0  0  0  0  0  0  0  0  0  0  0
  -33.7782   -9.9270  -10.4774 C   0  0  0  0  0  0  0  0  0  0  0  0
  -32.5654   -8.4369  -12.1919 N   0  0  0  0  0  0  0  0  0  0  0  0
  -37.5111  -10.5042  -10.4389 N   0  0  0  0  0  0  0  0  0  0  0  0
  -38.3796   -9.6623  -10.2188 O   0  0  0  0  0  0  0  0  0  0  0  0
  -37.6977  -11.7065  -10.3157 O   0  0  0  0  0  0  0  0  0  0  0  0
  -27.2893   -8.6743  -10.4611 O   0  0  0  0  0  0  0  0  0  0  0  0
  -27.2186   -8.8090   -6.3268 O   0  0  0  0  0  0  0  0  0  0  0  0
  -24.7935   -8.6225   -9.1896 C   0  0  0  0  0  0  0  0  0  0  0  0
  -26.8692  -11.1116   -7.9160 O   0  0  0  0  0  0  0  0  0  0  0  0
  -26.7069   -9.7758   -9.8833 C   0  0  0  0  0  0  0  0  0  0  0  0
  -25.3154   -9.7695   -9.8761 O   0  0  0  0  0  0  0  0  0  0  0  0
  -25.2731   -8.6225   -7.7357 C   0  0  0  0  0  0  0  0  0  0  0  0
  -24.8615   -7.4369   -7.0927 O   0  0  0  0  0  0  0  0  0  0  0  0
  -26.7924   -8.7029   -7.6818 C   0  0  0  0  0  0  0  0  0  0  0  0
  -27.2942   -9.8841   -8.5027 C   0  0  0  0  0  0  0  0  0  0  0  0
  -28.1867   -8.8600   -6.2954 H   0  0  0  0  0  0  0  0  0  0  0  0
  -27.1952  -11.8542   -8.4481 H   0  0  0  0  0  0  0  0  0  0  0  0
  -25.2491   -6.6719   -7.5460 H   0  0  0  0  0  0  0  0  0  0  0  0
  -23.2981   -8.6829   -9.3317 C   0  0  0  0  0  0  0  0  0  0  0  0
  -22.6692   -7.5474   -8.7371 O   0  0  0  0  0  0  0  0  0  0  0  0
  -22.9744   -6.7400   -9.1798 H   0  0  0  0  0  0  0  0  0  0  0  0
  8  7  2  0  0  0
  8  9  1  0  0  0
  7 15  1  0  0  0
  9 12  2  0  0  0
  9 10  1  0  0  0
 15  4  1  0  0  0
 15 10  1  0  0  0
 12 11  1  0  0  0
  3  4  2  0  0  0
  3  2  1  0  0  0
  4  5  1  0  0  0
 10 14  2  0  0  0
  2  1  2  0  0  0
  5  6  2  0  0  0
 18 16  1  0  0  0
  1  6  1  0  0  0
  1 19  1  0  0  0
 11 16  1  0  0  0
 11 13  2  0  0  0
 19 23  1  0  0  0
 14 13  1  0  0  0
 23 28  1  0  0  0
 23 24  1  0  0  0
 16 17  2  0  0  0
 28 22  1  0  0  0
 28 27  1  0  0  0
 24 21  1  0  0  0
 27 20  1  0  0  0
 27 25  1  0  0  0
 21 25  1  0  0  0
 21 32  1  0  0  0
 25 26  1  0  0  0
 32 33  1  0  0  0
 20 29  1  0  0  0
 22 30  1  0  0  0
 33 34  1  0  0  0
 26 31  1  0  0  0
M  CHG 1  16   1
M  CHG 1  18  -1
M  END
> <minimizedAffinity>
-9.03248

$$$$
4X5Q_3XN_A_301


 34 37  0  0  0  0  0  0  0  0999 V2000
  -28.5681   -8.5539  -11.2114 C   0  0  0  0  0  0  0  0  0  0  0  0
  -28.9654   -9.3521  -12.2398 C   0  0  0  0  0  0  0  0  0  0  0  0
  -30.1894   -9.0564  -12.8612 C   0  0  0  0  0  0  0  0  0  0  0  0
  -30.9641   -7.9674  -12.4317 C   0  0  0  0  0  0  0  0  0  0  0  0
  -30.5242   -7.1864  -11.3831 C   0  0  0  0  0  0  0  0  0  0  0  0
  -29.3354   -7.4819  -10.7769 C   0  0  0  0  0  0  0  0  0  0  0  0
  -32.3124   -6.6978  -14.1180 C   0  0  0  0  0  0  0  0  0  0  0  0
  -33.6461   -6.6707  -14.5301 C   0  0  0  0  0  0  0  0  0  0  0  0
  -34.3812   -7.6228  -13.6940 C   0  0  0  0  0  0  0  0  0  0  0  0
  -33.4356   -8.2155  -12.7997 C   0  0  0  0  0  0  0  0  0  0  0  0
  -36.1303   -8.8664  -12.6077 C   0  0  0  0  0  0  0  0  0  0  0  0
  -35.7487   -7.9551  -13.5995 C   0  0  0  0  0  0  0  0  0  0  0  0
  -35.1999   -9.4621  -11.7108 C   0  0  0  0  0  0  0  0  0  0  0  0
  -33.8566   -9.1470  -11.8035 C   0  0  0  0  0  0  0  0  0  0  0  0
  -32.1953   -7.6465  -13.0761 N   0  0  0  0  0  0  0  0  0  0  0  0
  -37.5752   -9.2234  -12.4628 N   0  0  0  0  0  0  0  0  0  0  0  0
  -38.0641   -9.1610  -11.3365 O   0  0  0  0  0  0  0  0  0  0  0  0
  -38.2131   -9.5555  -13.4519 O   0  0  0  0  0  0  0  0  0  0  0  0
  -27.3992   -8.7877  -10.5100 O   0  0  0  0  0  0  0  0  0  0  0  0
  -24.2324   -9.7571   -8.0307 O   0  0  0  0  0  0  0  0  0  0  0  0
  -27.2371   -7.5026   -8.0259 C   0  0  0  0  0  0  0  0  0  0  0  0
  -24.1914   -7.4954   -9.7138 O   0  0  0  0  0  0  0  0  0  0  0  0
  -26.5002   -7.7885  -10.2276 C   0  0  0  0  0  0  0  0  0  0  0  0
  -26.9246   -6.8678   -9.2743 O   0  0  0  0  0  0  0  0  0  0  0  0
  -25.9967   -8.2126   -7.4772 C   0  0  0  0  0  0  0  0  0  0  0  0
  -26.3307   -8.9360   -6.3139 O   0  0  0  0  0  0  0  0  0  0  0  0
  -25.4440   -9.1832   -8.5117 C   0  0  0  0  0  0  0  0  0  0  0  0
  -25.2187   -8.4751   -9.8417 C   0  0  0  0  0  0  0  0  0  0  0  0
  -23.8826  -10.3749   -8.6917 H   0  0  0  0  0  0  0  0  0  0  0  0
  -24.0585   -7.0530  -10.5667 H   0  0  0  0  0  0  0  0  0  0  0  0
  -26.9993   -9.6048   -6.5298 H   0  0  0  0  0  0  0  0  0  0  0  0
  -27.7667   -6.4264   -7.1198 C   0  0  0  0  0  0  0  0  0  0  0  0
  -26.8531   -5.3342   -7.0141 O   0  0  0  0  0  0  0  0  0  0  0  0
  -26.0155   -5.6484   -6.6393 H   0  0  0  0  0  0  0  0  0  0  0  0
  8  7  2  0  0  0
  8  9  1  0  0  0
  7 15  1  0  0  0
  9 12  2  0  0  0
  9 10  1  0  0  0
 15  4  1  0  0  0
 15 10  1  0  0  0
 12 11  1  0  0  0
  3  4  2  0  0  0
  3  2  1  0  0  0
  4  5  1  0  0  0
 10 14  2  0  0  0
  2  1  2  0  0  0
  5  6  2  0  0  0
 18 16  1  0  0  0
  1  6  1  0  0  0
  1 19  1  0  0  0
 11 16  1  0  0  0
 11 13  2  0  0  0
 19 23  1  0  0  0
 14 13  1  0  0  0
 23 28  1  0  0  0
 23 24  1  0  0  0
 16 17  2  0  0  0
 28 22  1  0  0  0
 28 27  1  0  0  0
 24 21  1  0  0  0
 27 20  1  0  0  0
 27 25  1  0  0  0
 21 25  1  0  0  0
 21 32  1  0  0  0
 25 26  1  0  0  0
 32 33  1  0  0  0
 20 29  1  0  0  0
 22 30  1  0  0  0
 33 34  1  0  0  0
 26 31  1  0  0  0
M  CHG 1  16   1
M  CHG 1  18  -1
M  END
> <minimizedAffinity>
-8.48179

$$$$
4X5Q_3XN_A_301


 34 37  0  0  0  0  0  0  0  0999 V2000
  -28.7764   -8.8465  -10.6823 C   0  0  0  0  0  0  0  0  0  0  0  0
  -29.5021   -7.6975  -10.7569 C   0  0  0  0  0  0  0  0  0  0  0  0
  -30.8753   -7.8085  -11.0290 C   0  0  0  0  0  0  0  0  0  0  0  0
  -31.4685   -9.0681  -11.2087 C   0  0  0  0  0  0  0  0  0  0  0  0
  -30.6940  -10.2067  -11.1273 C   0  0  0  0  0  0  0  0  0  0  0  0
  -29.3567  -10.0936  -10.8688 C   0  0  0  0  0  0  0  0  0  0  0  0
  -33.7115  -10.0971  -10.7803 C   0  0  0  0  0  0  0  0  0  0  0  0
  -35.0126   -9.9136  -11.2522 C   0  0  0  0  0  0  0  0  0  0  0  0
  -34.9625   -8.8678  -12.2768 C   0  0  0  0  0  0  0  0  0  0  0  0
  -33.6021   -8.4373  -12.3728 C   0  0  0  0  0  0  0  0  0  0  0  0
  -35.5208   -7.3798  -14.0822 C   0  0  0  0  0  0  0  0  0  0  0  0
  -35.9377   -8.3292  -13.1417 C   0  0  0  0  0  0  0  0  0  0  0  0
  -34.1705   -6.9440  -14.1892 C   0  0  0  0  0  0  0  0  0  0  0  0
  -33.2109   -7.4620  -13.3388 C   0  0  0  0  0  0  0  0  0  0  0  0
  -32.8673   -9.1883  -11.4593 N   0  0  0  0  0  0  0  0  0  0  0  0
  -36.5233   -6.8053  -15.0316 N   0  0  0  0  0  0  0  0  0  0  0  0
  -36.2881   -6.9071  -16.2340 O   0  0  0  0  0  0  0  0  0  0  0  0
  -37.5282   -6.2666  -14.5893 O   0  0  0  0  0  0  0  0  0  0  0  0
  -27.4114   -8.8393  -10.4592 O   0  0  0  0  0  0  0  0  0  0  0  0
  -27.1799   -8.9907   -6.3314 O   0  0  0  0  0  0  0  0  0  0  0  0
  -24.8760   -8.6640   -9.2803 C   0  0  0  0  0  0  0  0  0  0  0  0
  -26.7710  -11.2640   -7.9483 O   0  0  0  0  0  0  0  0  0  0  0  0
  -26.7515   -9.9119   -9.9109 C   0  0  0  0  0  0  0  0  0  0  0  0
  -25.3629   -9.8332   -9.9550 O   0  0  0  0  0  0  0  0  0  0  0  0
  -25.3005   -8.6961   -7.8098 C   0  0  0  0  0  0  0  0  0  0  0  0
  -24.9273   -7.4940   -7.1743 O   0  0  0  0  0  0  0  0  0  0  0  0
  -26.8105   -8.8558   -7.7004 C   0  0  0  0  0  0  0  0  0  0  0  0
  -27.2807  -10.0575   -8.5103 C   0  0  0  0  0  0  0  0  0  0  0  0
  -28.1423   -9.0922   -6.2647 H   0  0  0  0  0  0  0  0  0  0  0  0
  -27.0777  -12.0200   -8.4731 H   0  0  0  0  0  0  0  0  0  0  0  0
  -25.3707   -6.7480   -7.6076 H   0  0  0  0  0  0  0  0  0  0  0  0
  -23.3859   -8.6457   -9.4780 C   0  0  0  0  0  0  0  0  0  0  0  0
  -22.7825   -7.5370   -8.8106 O   0  0  0  0  0  0  0  0  0  0  0  0
  -23.1373   -6.7099   -9.1723 H   0  0  0  0  0  0  0  0  0  0  0  0
  8  7  2  0  0  0
  8  9  1  0  0  0
  7 15  1  0  0  0
  9 12  2  0  0  0
  9 10  1  0  0  0
 15  4  1  0  0  0
 15 10  1  0  0  0
 12 11  1  0  0  0
  3  4  2  0  0  0
  3  2  1  0  0  0
  4  5  1  0  0  0
 10 14  2  0  0  0
  2  1  2  0  0  0
  5  6  2  0  0  0
 18 16  1  0  0  0
  1  6  1  0  0  0
  1 19  1  0  0  0
 11 16  1  0  0  0
 11 13  2  0  0  0
 19 23  1  0  0  0
 14 13  1  0  0  0
 23 28  1  0  0  0
 23 24  1  0  0  0
 16 17  2  0  0  0
 28 22  1  0  0  0
 28 27  1  0  0  0
 24 21  1  0  0  0
 27 20  1  0  0  0
 27 25  1  0  0  0
 21 25  1  0  0  0
 21 32  1  0  0  0
 25 26  1  0  0  0
 32 33  1  0  0  0
 20 29  1  0  0  0
 22 30  1  0  0  0
 33 34  1  0  0  0
 26 31  1  0  0  0
M  CHG 1  16   1
M  CHG 1  18  -1
M  END
> <minimizedAffinity>
-8.38525

$$$$
4X5Q_3XN_A_301


 34 37  0  0  0  0  0  0  0  0999 V2000
  -28.4694   -7.6787  -11.0479 C   0  0  0  0  0  0  0  0  0  0  0  0
  -29.6136   -8.2865  -10.6311 C   0  0  0  0  0  0  0  0  0  0  0  0
  -30.7990   -7.9935  -11.3244 C   0  0  0  0  0  0  0  0  0  0  0  0
  -30.7895   -7.1074  -12.4132 C   0  0  0  0  0  0  0  0  0  0  0  0
  -29.6071   -6.5113  -12.7996 C   0  0  0  0  0  0  0  0  0  0  0  0
  -28.4569   -6.7944  -12.1178 C   0  0  0  0  0  0  0  0  0  0  0  0
  -32.0899   -5.8132  -14.1184 C   0  0  0  0  0  0  0  0  0  0  0  0
  -33.3842   -5.8487  -14.6406 C   0  0  0  0  0  0  0  0  0  0  0  0
  -34.1101   -6.9091  -13.9374 C   0  0  0  0  0  0  0  0  0  0  0  0
  -33.1975   -7.4993  -13.0079 C   0  0  0  0  0  0  0  0  0  0  0  0
  -35.8419   -8.3489  -13.0926 C   0  0  0  0  0  0  0  0  0  0  0  0
  -35.4517   -7.3421  -13.9835 C   0  0  0  0  0  0  0  0  0  0  0  0
  -34.9443   -8.9433  -12.1619 C   0  0  0  0  0  0  0  0  0  0  0  0
  -33.6257   -8.5293  -12.1173 C   0  0  0  0  0  0  0  0  0  0  0  0
  -31.9856   -6.8262  -13.1374 N   0  0  0  0  0  0  0  0  0  0  0  0
  -37.2626   -8.8156  -13.0968 N   0  0  0  0  0  0  0  0  0  0  0  0
  -37.7793   -9.0484  -14.1878 O   0  0  0  0  0  0  0  0  0  0  0  0
  -37.8522   -8.9521  -12.0340 O   0  0  0  0  0  0  0  0  0  0  0  0
  -27.2599   -7.8712  -10.4052 O   0  0  0  0  0  0  0  0  0  0  0  0
  -27.6288  -10.8162   -7.5231 O   0  0  0  0  0  0  0  0  0  0  0  0
  -25.0026   -8.4898   -8.8655 C   0  0  0  0  0  0  0  0  0  0  0  0
  -26.5841  -11.3407  -10.0889 O   0  0  0  0  0  0  0  0  0  0  0  0
  -26.5101   -9.0090  -10.5773 C   0  0  0  0  0  0  0  0  0  0  0  0
  -25.1669   -8.8856  -10.2350 O   0  0  0  0  0  0  0  0  0  0  0  0
  -25.6309   -9.5363   -7.9415 C   0  0  0  0  0  0  0  0  0  0  0  0
  -25.5771   -9.0926   -6.6041 O   0  0  0  0  0  0  0  0  0  0  0  0
  -27.0876   -9.7665   -8.3194 C   0  0  0  0  0  0  0  0  0  0  0  0
  -27.2095  -10.0923   -9.8027 C   0  0  0  0  0  0  0  0  0  0  0  0
  -28.5567  -10.9607   -7.7660 H   0  0  0  0  0  0  0  0  0  0  0  0
  -26.6691  -11.5354  -11.0354 H   0  0  0  0  0  0  0  0  0  0  0  0
  -26.0756   -8.2650   -6.5177 H   0  0  0  0  0  0  0  0  0  0  0  0
  -23.5269   -8.3018   -8.6489 C   0  0  0  0  0  0  0  0  0  0  0  0
  -22.9905   -7.3119   -9.5269 O   0  0  0  0  0  0  0  0  0  0  0  0
  -23.1195   -7.5915  -10.4467 H   0  0  0  0  0  0  0  0  0  0  0  0
  8  7  2  0  0  0
  8  9  1  0  0  0
  7 15  1  0  0  0
  9 12  2  0  0  0
  9 10  1  0  0  0
 15  4  1  0  0  0
 15 10  1  0  0  0
 12 11  1  0  0  0
  3  4  2  0  0  0
  3  2  1  0  0  0
  4  5  1  0  0  0
 10 14  2  0  0  0
  2  1  2  0  0  0
  5  6  2  0  0  0
 18 16  1  0  0  0
  1  6  1  0  0  0
  1 19  1  0  0  0
 11 16  1  0  0  0
 11 13  2  0  0  0
 19 23  1  0  0  0
 14 13  1  0  0  0
 23 28  1  0  0  0
 23 24  1  0  0  0
 16 17  2  0  0  0
 28 22  1  0  0  0
 28 27  1  0  0  0
 24 21  1  0  0  0
 27 20  1  0  0  0
 27 25  1  0  0  0
 21 25  1  0  0  0
 21 32  1  0  0  0
 25 26  1  0  0  0
 32 33  1  0  0  0
 20 29  1  0  0  0
 22 30  1  0  0  0
 33 34  1  0  0  0
 26 31  1  0  0  0
M  CHG 1  16   1
M  CHG 1  18  -1
M  END
> <minimizedAffinity>
-8.09347

$$$$
4X5Q_3XN_A_301


 34 37  0  0  0  0  0  0  0  0999 V2000
  -28.0144   -7.6248  -11.4336 C   0  0  0  0  0  0  0  0  0  0  0  0
  -28.0964   -7.9823  -12.7443 C   0  0  0  0  0  0  0  0  0  0  0  0
  -29.3023   -7.7270  -13.4170 C   0  0  0  0  0  0  0  0  0  0  0  0
  -30.3767   -7.1166  -12.7507 C   0  0  0  0  0  0  0  0  0  0  0  0
  -30.2507   -6.7736  -11.4206 C   0  0  0  0  0  0  0  0  0  0  0  0
  -29.0775   -7.0299  -10.7681 C   0  0  0  0  0  0  0  0  0  0  0  0
  -32.4248   -7.8224  -14.0081 C   0  0  0  0  0  0  0  0  0  0  0  0
  -33.5400   -7.1876  -14.5581 C   0  0  0  0  0  0  0  0  0  0  0  0
  -33.3779   -5.7488  -14.3354 C   0  0  0  0  0  0  0  0  0  0  0  0
  -32.1494   -5.5683  -13.6258 C   0  0  0  0  0  0  0  0  0  0  0  0
  -33.6358   -3.3588  -14.4198 C   0  0  0  0  0  0  0  0  0  0  0  0
  -34.1347   -4.6280  -14.7359 C   0  0  0  0  0  0  0  0  0  0  0  0
  -32.4144   -3.1654  -13.7157 C   0  0  0  0  0  0  0  0  0  0  0  0
  -31.6717   -4.2601  -13.3129 C   0  0  0  0  0  0  0  0  0  0  0  0
  -31.5946   -6.8311  -13.4358 N   0  0  0  0  0  0  0  0  0  0  0  0
  -34.3998   -2.1473  -14.8500 N   0  0  0  0  0  0  0  0  0  0  0  0
  -34.0670   -1.6131  -15.9061 O   0  0  0  0  0  0  0  0  0  0  0  0
  -35.3168   -1.7375  -14.1524 O   0  0  0  0  0  0  0  0  0  0  0  0
  -26.8845   -7.8711  -10.6749 O   0  0  0  0  0  0  0  0  0  0  0  0
  -27.6401  -10.5552   -7.6187 O   0  0  0  0  0  0  0  0  0  0  0  0
  -24.7707   -8.5363   -8.9609 C   0  0  0  0  0  0  0  0  0  0  0  0
  -26.4995  -11.3472  -10.0725 O   0  0  0  0  0  0  0  0  0  0  0  0
  -26.2173   -9.0708  -10.7198 C   0  0  0  0  0  0  0  0  0  0  0  0
  -24.8895   -9.0211  -10.3063 O   0  0  0  0  0  0  0  0  0  0  0  0
  -25.5286   -9.4611   -8.0048 C   0  0  0  0  0  0  0  0  0  0  0  0
  -25.5142   -8.9229   -6.7015 O   0  0  0  0  0  0  0  0  0  0  0  0
  -26.9757   -9.6113   -8.4531 C   0  0  0  0  0  0  0  0  0  0  0  0
  -27.0406  -10.0381   -9.9142 C   0  0  0  0  0  0  0  0  0  0  0  0
  -28.5617  -10.6489   -7.9066 H   0  0  0  0  0  0  0  0  0  0  0  0
  -26.5471  -11.6060  -11.0062 H   0  0  0  0  0  0  0  0  0  0  0  0
  -25.9508   -8.0567   -6.7045 H   0  0  0  0  0  0  0  0  0  0  0  0
  -23.2990   -8.4417   -8.6690 C   0  0  0  0  0  0  0  0  0  0  0  0
  -22.6865   -7.3812   -9.4030 O   0  0  0  0  0  0  0  0  0  0  0  0
  -22.7878   -7.5453  -10.3536 H   0  0  0  0  0  0  0  0  0  0  0  0
  8  7  2  0  0  0
  8  9  1  0  0  0
  7 15  1  0  0  0
  9 12  2  0  0  0
  9 10  1  0  0  0
 15  4  1  0  0  0
 15 10  1  0  0  0
 12 11  1  0  0  0
  3  4  2  0  0  0
  3  2  1  0  0  0
  4  5  1  0  0  0
 10 14  2  0  0  0
  2  1  2  0  0  0
  5  6  2  0  0  0
 18 16  1  0  0  0
  1  6  1  0  0  0
  1 19  1  0  0  0
 11 16  1  0  0  0
 11 13  2  0  0  0
 19 23  1  0  0  0
 14 13  1  0  0  0
 23 28  1  0  0  0
 23 24  1  0  0  0
 16 17  2  0  0  0
 28 22  1  0  0  0
 28 27  1  0  0  0
 24 21  1  0  0  0
 27 20  1  0  0  0
 27 25  1  0  0  0
 21 25  1  0  0  0
 21 32  1  0  0  0
 25 26  1  0  0  0
 32 33  1  0  0  0
 20 29  1  0  0  0
 22 30  1  0  0  0
 33 34  1  0  0  0
 26 31  1  0  0  0
M  CHG 1  16   1
M  CHG 1  18  -1
M  END
> <minimizedAffinity>
-7.95210

$$$$
4X5Q_3XN_A_301


 34 37  0  0  0  0  0  0  0  0999 V2000
  -29.8895   -9.2128  -10.8174 C   0  0  0  0  0  0  0  0  0  0  0  0
  -30.5978  -10.3603  -10.6335 C   0  0  0  0  0  0  0  0  0  0  0  0
  -31.9665  -10.3406  -10.9468 C   0  0  0  0  0  0  0  0  0  0  0  0
  -32.5701   -9.1726  -11.4389 C   0  0  0  0  0  0  0  0  0  0  0  0
  -31.8143   -8.0309  -11.6070 C   0  0  0  0  0  0  0  0  0  0  0  0
  -30.4840   -8.0528  -11.2946 C   0  0  0  0  0  0  0  0  0  0  0  0
  -34.4576   -8.5966  -12.9814 C   0  0  0  0  0  0  0  0  0  0  0  0
  -35.8403   -8.7885  -12.9997 C   0  0  0  0  0  0  0  0  0  0  0  0
  -36.2034   -9.4698  -11.7547 C   0  0  0  0  0  0  0  0  0  0  0  0
  -34.9931   -9.6843  -11.0235 C   0  0  0  0  0  0  0  0  0  0  0  0
  -37.4356  -10.4127   -9.9166 C   0  0  0  0  0  0  0  0  0  0  0  0
  -37.4433   -9.8423  -11.1951 C   0  0  0  0  0  0  0  0  0  0  0  0
  -36.2389  -10.6300   -9.1781 C   0  0  0  0  0  0  0  0  0  0  0  0
  -35.0192  -10.2748   -9.7243 C   0  0  0  0  0  0  0  0  0  0  0  0
  -33.9539   -9.1541  -11.7835 N   0  0  0  0  0  0  0  0  0  0  0  0
  -38.7341  -10.7974   -9.2823 N   0  0  0  0  0  0  0  0  0  0  0  0
  -38.7196  -11.0735   -8.0843 O   0  0  0  0  0  0  0  0  0  0  0  0
  -39.7503  -10.8203   -9.9623 O   0  0  0  0  0  0  0  0  0  0  0  0
  -28.5464   -9.1204  -10.4999 O   0  0  0  0  0  0  0  0  0  0  0  0
  -25.7492   -8.0701   -7.6384 O   0  0  0  0  0  0  0  0  0  0  0  0
  -25.8576   -9.7161  -11.0133 C   0  0  0  0  0  0  0  0  0  0  0  0
  -26.8290  -10.6692   -7.8081 O   0  0  0  0  0  0  0  0  0  0  0  0
  -27.8642  -10.1445   -9.8899 C   0  0  0  0  0  0  0  0  0  0  0  0
  -26.8364  -10.6992  -10.6465 O   0  0  0  0  0  0  0  0  0  0  0  0
  -25.2388   -9.1018   -9.7550 C   0  0  0  0  0  0  0  0  0  0  0  0
  -24.3654   -8.0533  -10.1102 O   0  0  0  0  0  0  0  0  0  0  0  0
  -26.3284   -8.5421   -8.8511 C   0  0  0  0  0  0  0  0  0  0  0  0
  -27.3865   -9.6019   -8.5708 C   0  0  0  0  0  0  0  0  0  0  0  0
  -26.4456   -7.7142   -7.0646 H   0  0  0  0  0  0  0  0  0  0  0  0
  -27.5126  -11.3358   -7.6371 H   0  0  0  0  0  0  0  0  0  0  0  0
  -24.8616   -7.3639  -10.5787 H   0  0  0  0  0  0  0  0  0  0  0  0
  -24.8612  -10.4138  -11.8968 C   0  0  0  0  0  0  0  0  0  0  0  0
  -23.7924  -10.9783  -11.1369 O   0  0  0  0  0  0  0  0  0  0  0  0
  -23.3234  -10.2726  -10.6648 H   0  0  0  0  0  0  0  0  0  0  0  0
  8  7  2  0  0  0
  8  9  1  0  0  0
  7 15  1  0  0  0
  9 12  2  0  0  0
  9 10  1  0  0  0
 15  4  1  0  0  0
 15 10  1  0  0  0
 12 11  1  0  0  0
  3  4  2  0  0  0
  3  2  1  0  0  0
  4  5  1  0  0  0
 10 14  2  0  0  0
  2  1  2  0  0  0
  5  6  2  0  0  0
 18 16  1  0  0  0
  1  6  1  0  0  0
  1 19  1  0  0  0
 11 16  1  0  0  0
 11 13  2  0  0  0
 19 23  1  0  0  0
 14 13  1  0  0  0
 23 28  1  0  0  0
 23 24  1  0  0  0
 16 17  2  0  0  0
 28 22  1  0  0  0
 28 27  1  0  0  0
 24 21  1  0  0  0
 27 20  1  0  0  0
 27 25  1  0  0  0
 21 25  1  0  0  0
 21 32  1  0  0  0
 25 26  1  0  0  0
 32 33  1  0  0  0
 20 29  1  0  0  0
 22 30  1  0  0  0
 33 34  1  0  0  0
 26 31  1  0  0  0
M  CHG 1  16   1
M  CHG 1  18  -1
M  END
> <minimizedAffinity>
-7.58387

$$$$
4X5Q_3XN_A_301


 34 37  0  0  0  0  0  0  0  0999 V2000
  -32.7622   -9.4790  -11.3352 C   0  0  0  0  0  0  0  0  0  0  0  0
  -32.1384   -8.2958  -11.5870 C   0  0  0  0  0  0  0  0  0  0  0  0
  -30.7425   -8.3124  -11.7382 C   0  0  0  0  0  0  0  0  0  0  0  0
  -30.0272   -9.5161  -11.6379 C   0  0  0  0  0  0  0  0  0  0  0  0
  -30.7001  -10.6920  -11.3785 C   0  0  0  0  0  0  0  0  0  0  0  0
  -32.0581  -10.6702  -11.2255 C   0  0  0  0  0  0  0  0  0  0  0  0
  -27.9815   -9.8526  -13.0436 C   0  0  0  0  0  0  0  0  0  0  0  0
  -26.6017   -9.7465  -12.8591 C   0  0  0  0  0  0  0  0  0  0  0  0
  -26.3750   -9.3799  -11.4590 C   0  0  0  0  0  0  0  0  0  0  0  0
  -27.6595   -9.2581  -10.8422 C   0  0  0  0  0  0  0  0  0  0  0  0
  -25.3521   -8.9428   -9.3264 C   0  0  0  0  0  0  0  0  0  0  0  0
  -25.2032   -9.2167  -10.6911 C   0  0  0  0  0  0  0  0  0  0  0  0
  -26.6240   -8.8206   -8.7002 C   0  0  0  0  0  0  0  0  0  0  0  0
  -27.7768   -8.9713   -9.4489 C   0  0  0  0  0  0  0  0  0  0  0  0
  -28.6125   -9.5430  -11.8166 N   0  0  0  0  0  0  0  0  0  0  0  0
  -24.1313   -8.7877   -8.4766 N   0  0  0  0  0  0  0  0  0  0  0  0
  -23.9295   -9.6399   -7.6137 O   0  0  0  0  0  0  0  0  0  0  0  0
  -23.3846   -7.8380   -8.6671 O   0  0  0  0  0  0  0  0  0  0  0  0
  -34.1278   -9.5599  -11.1308 O   0  0  0  0  0  0  0  0  0  0  0  0
  -37.9723   -9.1338  -12.5982 O   0  0  0  0  0  0  0  0  0  0  0  0
  -36.2500  -10.4259   -9.5200 C   0  0  0  0  0  0  0  0  0  0  0  0
  -36.5413  -11.5547  -12.8012 O   0  0  0  0  0  0  0  0  0  0  0  0
  -34.8377  -10.7126  -11.3626 C   0  0  0  0  0  0  0  0  0  0  0  0
  -35.3711  -11.3133  -10.2264 O   0  0  0  0  0  0  0  0  0  0  0  0
  -37.4131  -10.0137  -10.4261 C   0  0  0  0  0  0  0  0  0  0  0  0
  -38.2116   -9.0499   -9.7767 O   0  0  0  0  0  0  0  0  0  0  0  0
  -36.8849   -9.4145  -11.7221 C   0  0  0  0  0  0  0  0  0  0  0  0
  -35.8878  -10.3599  -12.3803 C   0  0  0  0  0  0  0  0  0  0  0  0
  -37.6330   -8.7523  -13.4229 H   0  0  0  0  0  0  0  0  0  0  0  0
  -35.8957  -12.1467  -13.2179 H   0  0  0  0  0  0  0  0  0  0  0  0
  -37.6769   -8.2640   -9.5836 H   0  0  0  0  0  0  0  0  0  0  0  0
  -36.6819  -11.1520   -8.2765 C   0  0  0  0  0  0  0  0  0  0  0  0
  -37.1943  -12.4499   -8.5791 O   0  0  0  0  0  0  0  0  0  0  0  0
  -37.9705  -12.3649   -9.1547 H   0  0  0  0  0  0  0  0  0  0  0  0
  8  7  2  0  0  0
  8  9  1  0  0  0
  7 15  1  0  0  0
  9 12  2  0  0  0
  9 10  1  0  0  0
 15  4  1  0  0  0
 15 10  1  0  0  0
 12 11  1  0  0  0
  3  4  2  0  0  0
  3  2  1  0  0  0
  4  5  1  0  0  0
 10 14  2  0  0  0
  2  1  2  0  0  0
  5  6  2  0  0  0
 18 16  1  0  0  0
  1  6  1  0  0  0
  1 19  1  0  0  0
 11 16  1  0  0  0
 11 13  2  0  0  0
 19 23  1  0  0  0
 14 13  1  0  0  0
 23 28  1  0  0  0
 23 24  1  0  0  0
 16 17  2  0  0  0
 28 22  1  0  0  0
 28 27  1  0  0  0
 24 21  1  0  0  0
 27 20  1  0  0  0
 27 25  1  0  0  0
 21 25  1  0  0  0
 21 32  1  0  0  0
 25 26  1  0  0  0
 32 33  1  0  0  0
 20 29  1  0  0  0
 22 30  1  0  0  0
 33 34  1  0  0  0
 26 31  1  0  0  0
M  CHG 1  16   1
M  CHG 1  18  -1
M  END
> <minimizedAffinity>
-7.50452

$$$$
4X5Q_3XN_A_301


 34 37  0  0  0  0  0  0  0  0999 V2000
  -29.1423   -7.7969  -10.8211 C   0  0  0  0  0  0  0  0  0  0  0  0
  -30.0657   -8.7927  -10.9128 C   0  0  0  0  0  0  0  0  0  0  0  0
  -31.2229   -8.5431  -11.6681 C   0  0  0  0  0  0  0  0  0  0  0  0
  -31.4058   -7.3069  -12.3077 C   0  0  0  0  0  0  0  0  0  0  0  0
  -30.4450   -6.3247  -12.1853 C   0  0  0  0  0  0  0  0  0  0  0  0
  -29.3233   -6.5697  -11.4438 C   0  0  0  0  0  0  0  0  0  0  0  0
  -32.6186   -6.0994  -14.1366 C   0  0  0  0  0  0  0  0  0  0  0  0
  -33.8897   -6.1538  -14.7116 C   0  0  0  0  0  0  0  0  0  0  0  0
  -34.6559   -7.1678  -13.9831 C   0  0  0  0  0  0  0  0  0  0  0  0
  -33.7899   -7.7125  -12.9837 C   0  0  0  0  0  0  0  0  0  0  0  0
  -36.4367   -8.5449  -13.1360 C   0  0  0  0  0  0  0  0  0  0  0  0
  -35.9985   -7.5922  -14.0634 C   0  0  0  0  0  0  0  0  0  0  0  0
  -35.5860   -9.0936  -12.1359 C   0  0  0  0  0  0  0  0  0  0  0  0
  -34.2663   -8.6880  -12.0570 C   0  0  0  0  0  0  0  0  0  0  0  0
  -32.5668   -7.0571  -13.0975 N   0  0  0  0  0  0  0  0  0  0  0  0
  -37.8607   -9.0000  -13.1760 N   0  0  0  0  0  0  0  0  0  0  0  0
  -38.1059  -10.0413  -13.7819 O   0  0  0  0  0  0  0  0  0  0  0  0
  -38.7186   -8.3361  -12.6113 O   0  0  0  0  0  0  0  0  0  0  0  0
  -27.9900   -7.9315  -10.0680 O   0  0  0  0  0  0  0  0  0  0  0  0
  -25.3718   -7.6723   -6.8754 O   0  0  0  0  0  0  0  0  0  0  0  0
  -25.4917   -9.1747  -10.3162 C   0  0  0  0  0  0  0  0  0  0  0  0
  -27.0345   -9.9126   -7.2830 O   0  0  0  0  0  0  0  0  0  0  0  0
  -27.6584   -9.1056   -9.4370 C   0  0  0  0  0  0  0  0  0  0  0  0
  -26.7194   -9.8866  -10.1038 O   0  0  0  0  0  0  0  0  0  0  0  0
  -24.8905   -8.7594   -8.9709 C   0  0  0  0  0  0  0  0  0  0  0  0
  -23.7495   -7.9579   -9.1801 O   0  0  0  0  0  0  0  0  0  0  0  0
  -25.9049   -7.9607   -8.1643 C   0  0  0  0  0  0  0  0  0  0  0  0
  -27.2177   -8.7253   -8.0500 C   0  0  0  0  0  0  0  0  0  0  0  0
  -26.0200   -7.1635   -6.3637 H   0  0  0  0  0  0  0  0  0  0  0  0
  -27.8770  -10.3890   -7.2183 H   0  0  0  0  0  0  0  0  0  0  0  0
  -24.0015   -7.1572   -9.6662 H   0  0  0  0  0  0  0  0  0  0  0  0
  -24.6037  -10.0839  -11.1191 C   0  0  0  0  0  0  0  0  0  0  0  0
  -25.2214  -10.4685  -12.3476 O   0  0  0  0  0  0  0  0  0  0  0  0
  -26.0423  -10.9498  -12.1599 H   0  0  0  0  0  0  0  0  0  0  0  0
  8  7  2  0  0  0
  8  9  1  0  0  0
  7 15  1  0  0  0
  9 12  2  0  0  0
  9 10  1  0  0  0
 15  4  1  0  0  0
 15 10  1  0  0  0
 12 11  1  0  0  0
  3  4  2  0  0  0
  3  2  1  0  0  0
  4  5  1  0  0  0
 10 14  2  0  0  0
  2  1  2  0  0  0
  5  6  2  0  0  0
 18 16  1  0  0  0
  1  6  1  0  0  0
  1 19  1  0  0  0
 11 16  1  0  0  0
 11 13  2  0  0  0
 19 23  1  0  0  0
 14 13  1  0  0  0
 23 28  1  0  0  0
 23 24  1  0  0  0
 16 17  2  0  0  0
 28 22  1  0  0  0
 28 27  1  0  0  0
 24 21  1  0  0  0
 27 20  1  0  0  0
 27 25  1  0  0  0
 21 25  1  0  0  0
 21 32  1  0  0  0
 25 26  1  0  0  0
 32 33  1  0  0  0
 20 29  1  0  0  0
 22 30  1  0  0  0
 33 34  1  0  0  0
 26 31  1  0  0  0
M  CHG 1  16   1
M  CHG 1  18  -1
M  END
> <minimizedAffinity>
-7.40329

$$$$
4X5Q_3XN_A_301


 34 37  0  0  0  0  0  0  0  0999 V2000
  -32.7976  -10.4929  -11.0195 C   0  0  0  0  0  0  0  0  0  0  0  0
  -32.4017   -9.2265  -10.7161 C   0  0  0  0  0  0  0  0  0  0  0  0
  -31.0484   -8.9025  -10.9038 C   0  0  0  0  0  0  0  0  0  0  0  0
  -30.1461   -9.8592  -11.3950 C   0  0  0  0  0  0  0  0  0  0  0  0
  -30.5904  -11.1321  -11.6866 C   0  0  0  0  0  0  0  0  0  0  0  0
  -31.9071  -11.4450  -11.4962 C   0  0  0  0  0  0  0  0  0  0  0  0
  -28.2122   -9.3179  -12.8919 C   0  0  0  0  0  0  0  0  0  0  0  0
  -26.8687   -8.9781  -12.7220 C   0  0  0  0  0  0  0  0  0  0  0  0
  -26.5903   -9.0029  -11.2840 C   0  0  0  0  0  0  0  0  0  0  0  0
  -27.8116   -9.3473  -10.6244 C   0  0  0  0  0  0  0  0  0  0  0  0
  -25.4809   -9.0083   -9.1498 C   0  0  0  0  0  0  0  0  0  0  0  0
  -25.4075   -8.8272  -10.5360 C   0  0  0  0  0  0  0  0  0  0  0  0
  -26.6891   -9.3524   -8.4814 C   0  0  0  0  0  0  0  0  0  0  0  0
  -27.8541   -9.5180   -9.2079 C   0  0  0  0  0  0  0  0  0  0  0  0
  -28.7759   -9.5282  -11.6123 N   0  0  0  0  0  0  0  0  0  0  0  0
  -24.2411   -8.8539   -8.3278 N   0  0  0  0  0  0  0  0  0  0  0  0
  -23.9304   -9.7871   -7.5903 O   0  0  0  0  0  0  0  0  0  0  0  0
  -23.5862   -7.8250   -8.4176 O   0  0  0  0  0  0  0  0  0  0  0  0
  -34.0996  -10.9200  -10.8308 O   0  0  0  0  0  0  0  0  0  0  0  0
  -37.4953  -12.6610   -9.2328 O   0  0  0  0  0  0  0  0  0  0  0  0
  -36.5187  -10.5764  -12.2013 C   0  0  0  0  0  0  0  0  0  0  0  0
  -36.8379   -9.9552   -8.7899 O   0  0  0  0  0  0  0  0  0  0  0  0
  -35.0968  -10.0728  -10.4134 C   0  0  0  0  0  0  0  0  0  0  0  0
  -35.8844   -9.5446  -11.4318 O   0  0  0  0  0  0  0  0  0  0  0  0
  -37.4203  -11.4213  -11.2973 C   0  0  0  0  0  0  0  0  0  0  0  0
  -37.9503  -12.5068  -12.0246 O   0  0  0  0  0  0  0  0  0  0  0  0
  -36.6238  -11.9669  -10.1202 C   0  0  0  0  0  0  0  0  0  0  0  0
  -35.8988  -10.8389   -9.3971 C   0  0  0  0  0  0  0  0  0  0  0  0
  -36.9853  -13.0075   -8.4840 H   0  0  0  0  0  0  0  0  0  0  0  0
  -36.3632   -9.2428   -8.3337 H   0  0  0  0  0  0  0  0  0  0  0  0
  -37.2254  -13.0651  -12.3466 H   0  0  0  0  0  0  0  0  0  0  0  0
  -37.2567   -9.8869  -13.3148 C   0  0  0  0  0  0  0  0  0  0  0  0
  -37.5451  -10.7847  -14.3869 O   0  0  0  0  0  0  0  0  0  0  0  0
  -36.7151  -11.1285  -14.7528 H   0  0  0  0  0  0  0  0  0  0  0  0
  8  7  2  0  0  0
  8  9  1  0  0  0
  7 15  1  0  0  0
  9 12  2  0  0  0
  9 10  1  0  0  0
 15  4  1  0  0  0
 15 10  1  0  0  0
 12 11  1  0  0  0
  3  4  2  0  0  0
  3  2  1  0  0  0
  4  5  1  0  0  0
 10 14  2  0  0  0
  2  1  2  0  0  0
  5  6  2  0  0  0
 18 16  1  0  0  0
  1  6  1  0  0  0
  1 19  1  0  0  0
 11 16  1  0  0  0
 11 13  2  0  0  0
 19 23  1  0  0  0
 14 13  1  0  0  0
 23 28  1  0  0  0
 23 24  1  0  0  0
 16 17  2  0  0  0
 28 22  1  0  0  0
 28 27  1  0  0  0
 24 21  1  0  0  0
 27 20  1  0  0  0
 27 25  1  0  0  0
 21 25  1  0  0  0
 21 32  1  0  0  0
 25 26  1  0  0  0
 32 33  1  0  0  0
 20 29  1  0  0  0
 22 30  1  0  0  0
 33 34  1  0  0  0
 26 31  1  0  0  0
M  CHG 1  16   1
M  CHG 1  18  -1
M  END
> <minimizedAffinity>
-7.33006

$$$$
