1XUG_BAB_A_246


 36 39  0  0  0  0  0  0  0  0999 V2000
   40.9629   -1.2676   31.5500 C   0  0  0  0  0  0  0  0  0  0  0  0
   44.1009    1.6872   35.8315 C   0  0  0  0  0  0  0  0  0  0  0  0
   42.7587    2.0207   36.2067 C   0  0  0  0  0  0  0  0  0  0  0  0
   41.6412    1.5554   35.4999 C   0  0  0  0  0  0  0  0  0  0  0  0
   41.8998    0.7511   34.4140 C   0  0  0  0  0  0  0  0  0  0  0  0
   43.1392    0.4009   34.0118 C   0  0  0  0  0  0  0  0  0  0  0  0
   44.2773    0.8421   34.6874 C   0  0  0  0  0  0  0  0  0  0  0  0
   41.6984   -0.4670   32.7088 C   0  0  0  0  0  0  0  0  0  0  0  0
   41.0480    0.2097   33.6054 N   0  0  0  0  0  0  0  0  0  0  0  0
   42.9927   -0.3607   32.9439 N   0  0  0  0  0  0  0  0  0  0  0  0
   40.0689    0.2964   33.6606 H   0  0  0  0  0  0  0  0  0  0  0  0
   43.7160   -0.7738   32.4192 H   0  0  0  0  0  0  0  0  0  0  0  0
   45.1835    2.2022   36.5747 C   0  0  0  0  0  0  0  0  0  0  0  0
   46.3445    1.5852   36.6174 N   0  0  0  0  0  0  0  0  0  0  0  0
   44.9908    3.3349   37.2148 N   0  0  0  0  0  0  0  0  0  0  0  0
   46.4700    0.7381   36.1318 H   0  0  0  0  0  0  0  0  0  0  0  0
   47.0880    1.9707   37.1351 H   0  0  0  0  0  0  0  0  0  0  0  0
   44.1148    3.7822   37.1711 H   0  0  0  0  0  0  0  0  0  0  0  0
   45.7225    3.7355   37.7376 H   0  0  0  0  0  0  0  0  0  0  0  0
   43.7859   -2.6994   26.3390 C   0  0  0  0  0  0  0  0  0  0  0  0
   44.4457   -1.4636   26.6516 C   0  0  0  0  0  0  0  0  0  0  0  0
   44.1298   -0.7253   27.8059 C   0  0  0  0  0  0  0  0  0  0  0  0
   43.1552   -1.2591   28.6057 C   0  0  0  0  0  0  0  0  0  0  0  0
   42.5138   -2.4005   28.3575 C   0  0  0  0  0  0  0  0  0  0  0  0
   42.7864   -3.1626   27.2411 C   0  0  0  0  0  0  0  0  0  0  0  0
   41.7667   -1.5749   30.1809 C   0  0  0  0  0  0  0  0  0  0  0  0
   42.6815   -0.7871   29.7110 N   0  0  0  0  0  0  0  0  0  0  0  0
   41.6581   -2.5849   29.3396 N   0  0  0  0  0  0  0  0  0  0  0  0
   41.0416   -3.3470   29.4309 H   0  0  0  0  0  0  0  0  0  0  0  0
   44.1122   -3.4157   25.1851 C   0  0  0  0  0  0  0  0  0  0  0  0
   44.4778   -2.7662   24.1085 N   0  0  0  0  0  0  0  0  0  0  0  0
   44.0602   -4.7286   25.2017 N   0  0  0  0  0  0  0  0  0  0  0  0
   44.5109   -1.7823   24.1146 H   0  0  0  0  0  0  0  0  0  0  0  0
   44.7197   -3.2619   23.2930 H   0  0  0  0  0  0  0  0  0  0  0  0
   43.7829   -5.1999   26.0204 H   0  0  0  0  0  0  0  0  0  0  0  0
   44.2985   -5.2409   24.3955 H   0  0  0  0  0  0  0  0  0  0  0  0
 20 21  1  0  0  0
 20 25  2  0  0  0
 20 30  1  0  0  0
 21 22  2  0  0  0
 22 23  1  0  0  0
 23 24  2  0  0  0
 23 27  1  0  0  0
 24 25  1  0  0  0
 24 28  1  0  0  0
 30 31  2  0  0  0
 30 32  1  0  0  0
 26  1  1  0  0  0
 26 27  2  0  0  0
 26 28  1  0  0  0
  1  8  1  0  0  0
  2  3  1  0  0  0
  2  7  2  0  0  0
  2 13  1  0  0  0
  3  4  2  0  0  0
  4  5  1  0  0  0
  5  6  2  0  0  0
  5  9  1  0  0  0
  6  7  1  0  0  0
  6 10  1  0  0  0
 13 14  2  0  0  0
 13 15  1  0  0  0
  8  9  2  0  0  0
  8 10  1  0  0  0
 31 33  1  0  0  0
 31 34  1  0  0  0
 32 35  1  0  0  0
 32 36  1  0  0  0
 28 29  1  0  0  0
 14 16  1  0  0  0
 14 17  1  0  0  0
 15 18  1  0  0  0
 15 19  1  0  0  0
  9 11  1  0  0  0
 10 12  1  0  0  0
M  CHG 1   9   1
M  CHG 1  14   1
M  CHG 1  31   1
M  END
> <minimizedAffinity>
-8.75588

$$$$
1XUG_BAB_A_246


 36 39  0  0  0  0  0  0  0  0999 V2000
   41.4133   -1.4731   31.7436 C   0  0  0  0  0  0  0  0  0  0  0  0
   43.8064    2.3965   35.7695 C   0  0  0  0  0  0  0  0  0  0  0  0
   44.9786    1.6841   35.3550 C   0  0  0  0  0  0  0  0  0  0  0  0
   44.9385    0.6573   34.4016 C   0  0  0  0  0  0  0  0  0  0  0  0
   43.7015    0.3638   33.8754 C   0  0  0  0  0  0  0  0  0  0  0  0
   42.5629    0.9985   34.2235 C   0  0  0  0  0  0  0  0  0  0  0  0
   42.5596    2.0256   35.1677 C   0  0  0  0  0  0  0  0  0  0  0  0
   42.1271   -0.4982   32.7755 C   0  0  0  0  0  0  0  0  0  0  0  0
   43.4055   -0.5373   32.9962 N   0  0  0  0  0  0  0  0  0  0  0  0
   41.5891    0.4454   33.5251 N   0  0  0  0  0  0  0  0  0  0  0  0
   44.0439   -1.1509   32.5658 H   0  0  0  0  0  0  0  0  0  0  0  0
   40.6364    0.6914   33.5575 H   0  0  0  0  0  0  0  0  0  0  0  0
   43.9115    3.4084   36.7465 C   0  0  0  0  0  0  0  0  0  0  0  0
   44.8155    3.3529   37.7005 N   0  0  0  0  0  0  0  0  0  0  0  0
   43.0763    4.4207   36.6584 N   0  0  0  0  0  0  0  0  0  0  0  0
   45.4322    2.5871   37.7504 H   0  0  0  0  0  0  0  0  0  0  0  0
   44.8754    4.0772   38.3646 H   0  0  0  0  0  0  0  0  0  0  0  0
   42.4064    4.4448   35.9374 H   0  0  0  0  0  0  0  0  0  0  0  0
   43.1211    5.1542   37.3134 H   0  0  0  0  0  0  0  0  0  0  0  0
   43.8248   -2.7354   26.2878 C   0  0  0  0  0  0  0  0  0  0  0  0
   44.5122   -1.5121   26.5902 C   0  0  0  0  0  0  0  0  0  0  0  0
   44.2885   -0.8123   27.7891 C   0  0  0  0  0  0  0  0  0  0  0  0
   43.3751   -1.3706   28.6426 C   0  0  0  0  0  0  0  0  0  0  0  0
   42.7114   -2.5016   28.4062 C   0  0  0  0  0  0  0  0  0  0  0  0
   42.8947   -3.2264   27.2475 C   0  0  0  0  0  0  0  0  0  0  0  0
   42.1092   -1.7361   30.3077 C   0  0  0  0  0  0  0  0  0  0  0  0
   42.9892   -0.9349   29.7959 N   0  0  0  0  0  0  0  0  0  0  0  0
   41.9321   -2.7170   29.4439 N   0  0  0  0  0  0  0  0  0  0  0  0
   41.3207   -3.4805   29.5566 H   0  0  0  0  0  0  0  0  0  0  0  0
   44.0589   -3.4132   25.0891 C   0  0  0  0  0  0  0  0  0  0  0  0
   44.4751   -2.7435   24.0438 N   0  0  0  0  0  0  0  0  0  0  0  0
   43.8711   -4.7126   25.0328 N   0  0  0  0  0  0  0  0  0  0  0  0
   44.6103   -1.7702   24.1047 H   0  0  0  0  0  0  0  0  0  0  0  0
   44.6529   -3.2132   23.1971 H   0  0  0  0  0  0  0  0  0  0  0  0
   43.5577   -5.1996   25.8290 H   0  0  0  0  0  0  0  0  0  0  0  0
   44.0438   -5.1990   24.1945 H   0  0  0  0  0  0  0  0  0  0  0  0
 20 21  1  0  0  0
 20 25  2  0  0  0
 20 30  1  0  0  0
 21 22  2  0  0  0
 22 23  1  0  0  0
 23 24  2  0  0  0
 23 27  1  0  0  0
 24 25  1  0  0  0
 24 28  1  0  0  0
 30 31  2  0  0  0
 30 32  1  0  0  0
 26  1  1  0  0  0
 26 27  2  0  0  0
 26 28  1  0  0  0
  1  8  1  0  0  0
  2  3  1  0  0  0
  2  7  2  0  0  0
  2 13  1  0  0  0
  3  4  2  0  0  0
  4  5  1  0  0  0
  5  6  2  0  0  0
  5  9  1  0  0  0
  6  7  1  0  0  0
  6 10  1  0  0  0
 13 14  2  0  0  0
 13 15  1  0  0  0
  8  9  2  0  0  0
  8 10  1  0  0  0
 31 33  1  0  0  0
 31 34  1  0  0  0
 32 35  1  0  0  0
 32 36  1  0  0  0
 28 29  1  0  0  0
 14 16  1  0  0  0
 14 17  1  0  0  0
 15 18  1  0  0  0
 15 19  1  0  0  0
  9 11  1  0  0  0
 10 12  1  0  0  0
M  CHG 1   9   1
M  CHG 1  14   1
M  CHG 1  31   1
M  END
> <minimizedAffinity>
-8.69768

$$$$
1XUG_BAB_A_246


 36 39  0  0  0  0  0  0  0  0999 V2000
   41.2053   -1.3117   31.6611 C   0  0  0  0  0  0  0  0  0  0  0  0
   43.7167   -2.7398   26.3168 C   0  0  0  0  0  0  0  0  0  0  0  0
   44.1846   -1.3953   26.4805 C   0  0  0  0  0  0  0  0  0  0  0  0
   43.8635   -0.6171   27.6013 C   0  0  0  0  0  0  0  0  0  0  0  0
   43.0669   -1.2162   28.5498 C   0  0  0  0  0  0  0  0  0  0  0  0
   42.5966   -2.4771   28.4538 C   0  0  0  0  0  0  0  0  0  0  0  0
   42.8930   -3.2846   27.3554 C   0  0  0  0  0  0  0  0  0  0  0  0
   41.9039   -1.5969   30.2628 C   0  0  0  0  0  0  0  0  0  0  0  0
   42.6308   -0.7087   29.6566 N   0  0  0  0  0  0  0  0  0  0  0  0
   41.8713   -2.6969   29.5344 N   0  0  0  0  0  0  0  0  0  0  0  0
   42.8189    0.2002   29.9847 H   0  0  0  0  0  0  0  0  0  0  0  0
   41.3937   -3.5287   29.7562 H   0  0  0  0  0  0  0  0  0  0  0  0
   44.0616   -3.4642   25.1567 C   0  0  0  0  0  0  0  0  0  0  0  0
   43.9706   -4.7758   25.1115 N   0  0  0  0  0  0  0  0  0  0  0  0
   44.4663   -2.7738   24.1128 N   0  0  0  0  0  0  0  0  0  0  0  0
   43.6656   -5.2756   25.9030 H   0  0  0  0  0  0  0  0  0  0  0  0
   44.2074   -5.2575   24.2862 H   0  0  0  0  0  0  0  0  0  0  0  0
   44.5281   -1.7927   24.1655 H   0  0  0  0  0  0  0  0  0  0  0  0
   44.7074   -3.2382   23.2789 H   0  0  0  0  0  0  0  0  0  0  0  0
   43.6499    2.4843   35.7585 C   0  0  0  0  0  0  0  0  0  0  0  0
   44.8435    1.9533   35.1635 C   0  0  0  0  0  0  0  0  0  0  0  0
   44.7966    1.0051   34.1261 C   0  0  0  0  0  0  0  0  0  0  0  0
   43.5446    0.6226   33.7254 C   0  0  0  0  0  0  0  0  0  0  0  0
   42.4090    1.0851   34.2472 C   0  0  0  0  0  0  0  0  0  0  0  0
   42.3995    2.0159   35.2645 C   0  0  0  0  0  0  0  0  0  0  0  0
   41.9364   -0.3244   32.7127 C   0  0  0  0  0  0  0  0  0  0  0  0
   43.2248   -0.2245   32.8040 N   0  0  0  0  0  0  0  0  0  0  0  0
   41.4215    0.4920   33.6117 N   0  0  0  0  0  0  0  0  0  0  0  0
   40.4616    0.6334   33.7787 H   0  0  0  0  0  0  0  0  0  0  0  0
   43.7186    3.4229   36.7906 C   0  0  0  0  0  0  0  0  0  0  0  0
   44.6309    3.2891   37.7202 N   0  0  0  0  0  0  0  0  0  0  0  0
   42.8765    4.4316   36.8053 N   0  0  0  0  0  0  0  0  0  0  0  0
   45.2533    2.5268   37.6929 H   0  0  0  0  0  0  0  0  0  0  0  0
   44.6944    3.9507   38.4465 H   0  0  0  0  0  0  0  0  0  0  0  0
   42.1971    4.5160   36.0979 H   0  0  0  0  0  0  0  0  0  0  0  0
   42.9251    5.1030   37.5238 H   0  0  0  0  0  0  0  0  0  0  0  0
 20 21  1  0  0  0
 20 25  2  0  0  0
 20 30  1  0  0  0
 21 22  2  0  0  0
 22 23  1  0  0  0
 23 24  2  0  0  0
 23 27  1  0  0  0
 24 25  1  0  0  0
 24 28  1  0  0  0
 30 31  2  0  0  0
 30 32  1  0  0  0
 26  1  1  0  0  0
 26 27  2  0  0  0
 26 28  1  0  0  0
  1  8  1  0  0  0
  2  3  1  0  0  0
  2  7  2  0  0  0
  2 13  1  0  0  0
  3  4  2  0  0  0
  4  5  1  0  0  0
  5  6  2  0  0  0
  5  9  1  0  0  0
  6  7  1  0  0  0
  6 10  1  0  0  0
 13 14  2  0  0  0
 13 15  1  0  0  0
  8  9  2  0  0  0
  8 10  1  0  0  0
 31 33  1  0  0  0
 31 34  1  0  0  0
 32 35  1  0  0  0
 32 36  1  0  0  0
 28 29  1  0  0  0
 14 16  1  0  0  0
 14 17  1  0  0  0
 15 18  1  0  0  0
 15 19  1  0  0  0
  9 11  1  0  0  0
 10 12  1  0  0  0
M  CHG 1   9   1
M  CHG 1  14   1
M  CHG 1  31   1
M  END
> <minimizedAffinity>
-8.53815

$$$$
1XUG_BAB_A_246


 36 39  0  0  0  0  0  0  0  0999 V2000
   42.4023   -0.4560   33.2030 C   0  0  0  0  0  0  0  0  0  0  0  0
   47.5505    0.3987   36.3133 C   0  0  0  0  0  0  0  0  0  0  0  0
   46.6309    1.1609   37.1051 C   0  0  0  0  0  0  0  0  0  0  0  0
   45.2708    1.2699   36.7840 C   0  0  0  0  0  0  0  0  0  0  0  0
   44.8563    0.5992   35.6564 C   0  0  0  0  0  0  0  0  0  0  0  0
   45.6722   -0.1348   34.8717 C   0  0  0  0  0  0  0  0  0  0  0  0
   47.0315   -0.2690   35.1562 C   0  0  0  0  0  0  0  0  0  0  0  0
   43.6974   -0.1803   34.0813 C   0  0  0  0  0  0  0  0  0  0  0  0
   43.6662    0.5523   35.1523 N   0  0  0  0  0  0  0  0  0  0  0  0
   44.9293   -0.6141   33.8918 N   0  0  0  0  0  0  0  0  0  0  0  0
   42.8691    0.9981   35.5198 H   0  0  0  0  0  0  0  0  0  0  0  0
   45.2375   -1.1896   33.1549 H   0  0  0  0  0  0  0  0  0  0  0  0
   48.9111    0.3429   36.6811 C   0  0  0  0  0  0  0  0  0  0  0  0
   49.8616    0.1995   35.7831 N   0  0  0  0  0  0  0  0  0  0  0  0
   49.1948    0.4541   37.9606 N   0  0  0  0  0  0  0  0  0  0  0  0
   49.6299    0.1178   34.8297 H   0  0  0  0  0  0  0  0  0  0  0  0
   50.8047    0.1738   36.0644 H   0  0  0  0  0  0  0  0  0  0  0  0
   48.4699    0.5607   38.6181 H   0  0  0  0  0  0  0  0  0  0  0  0
   50.1321    0.4306   38.2608 H   0  0  0  0  0  0  0  0  0  0  0  0
   43.3991   -2.5722   27.5725 C   0  0  0  0  0  0  0  0  0  0  0  0
   42.1285   -3.1801   27.8489 C   0  0  0  0  0  0  0  0  0  0  0  0
   41.4601   -2.9797   29.0697 C   0  0  0  0  0  0  0  0  0  0  0  0
   42.0991   -2.1731   29.9727 C   0  0  0  0  0  0  0  0  0  0  0  0
   43.2780   -1.5883   29.7633 C   0  0  0  0  0  0  0  0  0  0  0  0
   43.9738   -1.7512   28.5840 C   0  0  0  0  0  0  0  0  0  0  0  0
   42.5826   -1.0544   31.7116 C   0  0  0  0  0  0  0  0  0  0  0  0
   41.7077   -1.8313   31.1554 N   0  0  0  0  0  0  0  0  0  0  0  0
   43.5657   -0.8988   30.8461 N   0  0  0  0  0  0  0  0  0  0  0  0
   44.3767   -0.3585   30.9865 H   0  0  0  0  0  0  0  0  0  0  0  0
   44.0482   -2.7871   26.3545 C   0  0  0  0  0  0  0  0  0  0  0  0
   44.0699   -3.9921   25.8427 N   0  0  0  0  0  0  0  0  0  0  0  0
   44.6144   -1.7757   25.7355 N   0  0  0  0  0  0  0  0  0  0  0  0
   43.6403   -4.7378   26.3209 H   0  0  0  0  0  0  0  0  0  0  0  0
   44.5158   -4.1524   24.9798 H   0  0  0  0  0  0  0  0  0  0  0  0
   44.5881   -0.8766   26.1355 H   0  0  0  0  0  0  0  0  0  0  0  0
   45.0650   -1.9172   24.8716 H   0  0  0  0  0  0  0  0  0  0  0  0
 20 21  1  0  0  0
 20 25  2  0  0  0
 20 30  1  0  0  0
 21 22  2  0  0  0
 22 23  1  0  0  0
 23 24  2  0  0  0
 23 27  1  0  0  0
 24 25  1  0  0  0
 24 28  1  0  0  0
 30 31  2  0  0  0
 30 32  1  0  0  0
 26  1  1  0  0  0
 26 27  2  0  0  0
 26 28  1  0  0  0
  1  8  1  0  0  0
  2  3  1  0  0  0
  2  7  2  0  0  0
  2 13  1  0  0  0
  3  4  2  0  0  0
  4  5  1  0  0  0
  5  6  2  0  0  0
  5  9  1  0  0  0
  6  7  1  0  0  0
  6 10  1  0  0  0
 13 14  2  0  0  0
 13 15  1  0  0  0
  8  9  2  0  0  0
  8 10  1  0  0  0
 31 33  1  0  0  0
 31 34  1  0  0  0
 32 35  1  0  0  0
 32 36  1  0  0  0
 28 29  1  0  0  0
 14 16  1  0  0  0
 14 17  1  0  0  0
 15 18  1  0  0  0
 15 19  1  0  0  0
  9 11  1  0  0  0
 10 12  1  0  0  0
M  CHG 1   9   1
M  CHG 1  14   1
M  CHG 1  31   1
M  END
> <minimizedAffinity>
-6.79587

$$$$
1XUG_BAB_A_246


 36 39  0  0  0  0  0  0  0  0999 V2000
   42.2524   -0.4410   33.1769 C   0  0  0  0  0  0  0  0  0  0  0  0
   43.3717   -2.5719   27.5988 C   0  0  0  0  0  0  0  0  0  0  0  0
   42.0668   -3.1151   27.8349 C   0  0  0  0  0  0  0  0  0  0  0  0
   41.3613   -2.8904   29.0251 C   0  0  0  0  0  0  0  0  0  0  0  0
   41.9915   -2.1113   29.9680 C   0  0  0  0  0  0  0  0  0  0  0  0
   43.2170   -1.5712   29.8046 C   0  0  0  0  0  0  0  0  0  0  0  0
   43.9520   -1.7702   28.6355 C   0  0  0  0  0  0  0  0  0  0  0  0
   42.4560   -1.0386   31.7188 C   0  0  0  0  0  0  0  0  0  0  0  0
   41.5558   -1.7707   31.1371 N   0  0  0  0  0  0  0  0  0  0  0  0
   43.4903   -0.9040   30.9101 N   0  0  0  0  0  0  0  0  0  0  0  0
   40.6859   -2.0245   31.5219 H   0  0  0  0  0  0  0  0  0  0  0  0
   44.3143   -0.3988   31.0971 H   0  0  0  0  0  0  0  0  0  0  0  0
   44.0362   -2.8497   26.3860 C   0  0  0  0  0  0  0  0  0  0  0  0
   44.0368   -4.0562   25.8620 N   0  0  0  0  0  0  0  0  0  0  0  0
   44.6461   -1.8484   25.7898 N   0  0  0  0  0  0  0  0  0  0  0  0
   43.5748   -4.7933   26.3229 H   0  0  0  0  0  0  0  0  0  0  0  0
   44.4993   -4.2221   25.0088 H   0  0  0  0  0  0  0  0  0  0  0  0
   44.6349   -0.9523   26.1972 H   0  0  0  0  0  0  0  0  0  0  0  0
   45.1139   -1.9952   24.9360 H   0  0  0  0  0  0  0  0  0  0  0  0
   47.3520    0.4736   36.3912 C   0  0  0  0  0  0  0  0  0  0  0  0
   46.4127    1.2016   37.1963 C   0  0  0  0  0  0  0  0  0  0  0  0
   45.0510    1.2845   36.8554 C   0  0  0  0  0  0  0  0  0  0  0  0
   44.6833    0.6306   35.7101 C   0  0  0  0  0  0  0  0  0  0  0  0
   45.5173   -0.0560   34.9299 C   0  0  0  0  0  0  0  0  0  0  0  0
   46.8607   -0.1692   35.2196 C   0  0  0  0  0  0  0  0  0  0  0  0
   43.5540   -0.1564   34.0934 C   0  0  0  0  0  0  0  0  0  0  0  0
   43.5089    0.5504   35.1780 N   0  0  0  0  0  0  0  0  0  0  0  0
   44.8063   -0.5384   33.9336 N   0  0  0  0  0  0  0  0  0  0  0  0
   45.1504   -1.0904   33.1947 H   0  0  0  0  0  0  0  0  0  0  0  0
   48.7014    0.4067   36.7458 C   0  0  0  0  0  0  0  0  0  0  0  0
   49.0279    0.2807   38.0075 N   0  0  0  0  0  0  0  0  0  0  0  0
   49.6204    0.4576   35.8080 N   0  0  0  0  0  0  0  0  0  0  0  0
   48.3256    0.2442   38.6964 H   0  0  0  0  0  0  0  0  0  0  0  0
   49.9757    0.2224   38.2672 H   0  0  0  0  0  0  0  0  0  0  0  0
   49.3561    0.5526   34.8644 H   0  0  0  0  0  0  0  0  0  0  0  0
   50.5733    0.4008   36.0489 H   0  0  0  0  0  0  0  0  0  0  0  0
 20 21  1  0  0  0
 20 25  2  0  0  0
 20 30  1  0  0  0
 21 22  2  0  0  0
 22 23  1  0  0  0
 23 24  2  0  0  0
 23 27  1  0  0  0
 24 25  1  0  0  0
 24 28  1  0  0  0
 30 31  2  0  0  0
 30 32  1  0  0  0
 26  1  1  0  0  0
 26 27  2  0  0  0
 26 28  1  0  0  0
  1  8  1  0  0  0
  2  3  1  0  0  0
  2  7  2  0  0  0
  2 13  1  0  0  0
  3  4  2  0  0  0
  4  5  1  0  0  0
  5  6  2  0  0  0
  5  9  1  0  0  0
  6  7  1  0  0  0
  6 10  1  0  0  0
 13 14  2  0  0  0
 13 15  1  0  0  0
  8  9  2  0  0  0
  8 10  1  0  0  0
 31 33  1  0  0  0
 31 34  1  0  0  0
 32 35  1  0  0  0
 32 36  1  0  0  0
 28 29  1  0  0  0
 14 16  1  0  0  0
 14 17  1  0  0  0
 15 18  1  0  0  0
 15 19  1  0  0  0
  9 11  1  0  0  0
 10 12  1  0  0  0
M  CHG 1   9   1
M  CHG 1  14   1
M  CHG 1  31   1
M  END
> <minimizedAffinity>
-6.57157

$$$$
1XUG_BAB_A_246


 36 39  0  0  0  0  0  0  0  0999 V2000
   41.7340    0.9715   34.3819 C   0  0  0  0  0  0  0  0  0  0  0  0
   47.4846    0.1484   36.1600 C   0  0  0  0  0  0  0  0  0  0  0  0
   47.0069    1.0161   37.1956 C   0  0  0  0  0  0  0  0  0  0  0  0
   45.6904    1.4963   37.2284 C   0  0  0  0  0  0  0  0  0  0  0  0
   44.8680    1.0874   36.2039 C   0  0  0  0  0  0  0  0  0  0  0  0
   45.2579    0.2718   35.2024 C   0  0  0  0  0  0  0  0  0  0  0  0
   46.5585   -0.2282   35.1331 C   0  0  0  0  0  0  0  0  0  0  0  0
   43.2186    0.8115   34.9252 C   0  0  0  0  0  0  0  0  0  0  0  0
   43.6276    1.3972   36.0089 N   0  0  0  0  0  0  0  0  0  0  0  0
   44.2127    0.1110   34.4127 N   0  0  0  0  0  0  0  0  0  0  0  0
   43.0839    1.9803   36.5865 H   0  0  0  0  0  0  0  0  0  0  0  0
   44.1805   -0.4319   33.5920 H   0  0  0  0  0  0  0  0  0  0  0  0
   48.8264   -0.2863   36.1752 C   0  0  0  0  0  0  0  0  0  0  0  0
   49.1775   -1.4162   36.7499 N   0  0  0  0  0  0  0  0  0  0  0  0
   49.7146    0.4782   35.5779 N   0  0  0  0  0  0  0  0  0  0  0  0
   48.4985   -1.9753   37.1921 H   0  0  0  0  0  0  0  0  0  0  0  0
   50.1193   -1.7028   36.7378 H   0  0  0  0  0  0  0  0  0  0  0  0
   49.4330    1.3205   35.1532 H   0  0  0  0  0  0  0  0  0  0  0  0
   50.6610    0.2081   35.5556 H   0  0  0  0  0  0  0  0  0  0  0  0
   39.5472   -2.7556   30.0806 C   0  0  0  0  0  0  0  0  0  0  0  0
   40.7093   -2.2485   29.4076 C   0  0  0  0  0  0  0  0  0  0  0  0
   41.5748   -1.3230   30.0171 C   0  0  0  0  0  0  0  0  0  0  0  0
   41.2362   -0.9381   31.2867 C   0  0  0  0  0  0  0  0  0  0  0  0
   40.1686   -1.3788   31.9515 C   0  0  0  0  0  0  0  0  0  0  0  0
   39.2895   -2.2868   31.4001 C   0  0  0  0  0  0  0  0  0  0  0  0
   41.2290    0.0009   33.1911 C   0  0  0  0  0  0  0  0  0  0  0  0
   41.8532   -0.1086   32.0612 N   0  0  0  0  0  0  0  0  0  0  0  0
   40.1760   -0.7909   33.1283 N   0  0  0  0  0  0  0  0  0  0  0  0
   39.5090   -0.9199   33.8409 H   0  0  0  0  0  0  0  0  0  0  0  0
   38.6981   -3.6719   29.4557 C   0  0  0  0  0  0  0  0  0  0  0  0
   38.7961   -4.9434   29.7524 N   0  0  0  0  0  0  0  0  0  0  0  0
   37.8065   -3.2428   28.5910 N   0  0  0  0  0  0  0  0  0  0  0  0
   39.4703   -5.2466   30.4027 H   0  0  0  0  0  0  0  0  0  0  0  0
   38.1957   -5.5962   29.3252 H   0  0  0  0  0  0  0  0  0  0  0  0
   37.7473   -2.2829   28.3803 H   0  0  0  0  0  0  0  0  0  0  0  0
   37.1976   -3.8812   28.1540 H   0  0  0  0  0  0  0  0  0  0  0  0
 20 21  1  0  0  0
 20 25  2  0  0  0
 20 30  1  0  0  0
 21 22  2  0  0  0
 22 23  1  0  0  0
 23 24  2  0  0  0
 23 27  1  0  0  0
 24 25  1  0  0  0
 24 28  1  0  0  0
 30 31  2  0  0  0
 30 32  1  0  0  0
 26  1  1  0  0  0
 26 27  2  0  0  0
 26 28  1  0  0  0
  1  8  1  0  0  0
  2  3  1  0  0  0
  2  7  2  0  0  0
  2 13  1  0  0  0
  3  4  2  0  0  0
  4  5  1  0  0  0
  5  6  2  0  0  0
  5  9  1  0  0  0
  6  7  1  0  0  0
  6 10  1  0  0  0
 13 14  2  0  0  0
 13 15  1  0  0  0
  8  9  2  0  0  0
  8 10  1  0  0  0
 31 33  1  0  0  0
 31 34  1  0  0  0
 32 35  1  0  0  0
 32 36  1  0  0  0
 28 29  1  0  0  0
 14 16  1  0  0  0
 14 17  1  0  0  0
 15 18  1  0  0  0
 15 19  1  0  0  0
  9 11  1  0  0  0
 10 12  1  0  0  0
M  CHG 1   9   1
M  CHG 1  14   1
M  CHG 1  31   1
M  END
> <minimizedAffinity>
-6.42136

$$$$
1XUG_BAB_A_246


 36 39  0  0  0  0  0  0  0  0999 V2000
   42.6844    1.0339   35.5334 C   0  0  0  0  0  0  0  0  0  0  0  0
   40.8545   -1.6983   30.4251 C   0  0  0  0  0  0  0  0  0  0  0  0
   39.6718   -0.9693   30.7760 C   0  0  0  0  0  0  0  0  0  0  0  0
   39.5985   -0.1556   31.9150 C   0  0  0  0  0  0  0  0  0  0  0  0
   40.7337   -0.0897   32.6896 C   0  0  0  0  0  0  0  0  0  0  0  0
   41.8768   -0.7504   32.4118 C   0  0  0  0  0  0  0  0  0  0  0  0
   41.9913   -1.5698   31.2885 C   0  0  0  0  0  0  0  0  0  0  0  0
   42.1203    0.3657   34.2068 C   0  0  0  0  0  0  0  0  0  0  0  0
   40.9121    0.5782   33.7827 N   0  0  0  0  0  0  0  0  0  0  0  0
   42.7321   -0.4532   33.3720 N   0  0  0  0  0  0  0  0  0  0  0  0
   40.2428    1.1524   34.2203 H   0  0  0  0  0  0  0  0  0  0  0  0
   43.6567   -0.7819   33.4511 H   0  0  0  0  0  0  0  0  0  0  0  0
   40.8581   -2.5137   29.2742 C   0  0  0  0  0  0  0  0  0  0  0  0
   41.9397   -2.6647   28.5408 N   0  0  0  0  0  0  0  0  0  0  0  0
   39.7374   -3.1308   28.9690 N   0  0  0  0  0  0  0  0  0  0  0  0
   42.7695   -2.1946   28.7849 H   0  0  0  0  0  0  0  0  0  0  0  0
   41.9193   -3.2479   27.7478 H   0  0  0  0  0  0  0  0  0  0  0  0
   38.9380   -3.0055   29.5299 H   0  0  0  0  0  0  0  0  0  0  0  0
   39.6978   -3.7180   28.1798 H   0  0  0  0  0  0  0  0  0  0  0  0
   48.5968    0.0826   36.6791 C   0  0  0  0  0  0  0  0  0  0  0  0
   48.1706    0.5845   37.9546 C   0  0  0  0  0  0  0  0  0  0  0  0
   46.8361    0.9551   38.1977 C   0  0  0  0  0  0  0  0  0  0  0  0
   45.9760    0.8084   37.1426 C   0  0  0  0  0  0  0  0  0  0  0  0
   46.3239    0.3491   35.9411 C   0  0  0  0  0  0  0  0  0  0  0  0
   47.6180   -0.0288   35.6512 C   0  0  0  0  0  0  0  0  0  0  0  0
   44.2364    0.8039   35.9250 C   0  0  0  0  0  0  0  0  0  0  0  0
   44.7124    1.0733   37.0994 N   0  0  0  0  0  0  0  0  0  0  0  0
   45.2388    0.3506   35.1973 N   0  0  0  0  0  0  0  0  0  0  0  0
   45.1842    0.0624   34.2575 H   0  0  0  0  0  0  0  0  0  0  0  0
   49.9283   -0.2765   36.4573 C   0  0  0  0  0  0  0  0  0  0  0  0
   50.5419    0.1632   35.3875 N   0  0  0  0  0  0  0  0  0  0  0  0
   50.5476   -1.0378   37.3312 N   0  0  0  0  0  0  0  0  0  0  0  0
   50.0619    0.7326   34.7437 H   0  0  0  0  0  0  0  0  0  0  0  0
   51.4834   -0.0757   35.2269 H   0  0  0  0  0  0  0  0  0  0  0  0
   50.0701   -1.3592   38.1299 H   0  0  0  0  0  0  0  0  0  0  0  0
   51.4892   -1.2869   37.1871 H   0  0  0  0  0  0  0  0  0  0  0  0
 20 21  1  0  0  0
 20 25  2  0  0  0
 20 30  1  0  0  0
 21 22  2  0  0  0
 22 23  1  0  0  0
 23 24  2  0  0  0
 23 27  1  0  0  0
 24 25  1  0  0  0
 24 28  1  0  0  0
 30 31  2  0  0  0
 30 32  1  0  0  0
 26  1  1  0  0  0
 26 27  2  0  0  0
 26 28  1  0  0  0
  1  8  1  0  0  0
  2  3  1  0  0  0
  2  7  2  0  0  0
  2 13  1  0  0  0
  3  4  2  0  0  0
  4  5  1  0  0  0
  5  6  2  0  0  0
  5  9  1  0  0  0
  6  7  1  0  0  0
  6 10  1  0  0  0
 13 14  2  0  0  0
 13 15  1  0  0  0
  8  9  2  0  0  0
  8 10  1  0  0  0
 31 33  1  0  0  0
 31 34  1  0  0  0
 32 35  1  0  0  0
 32 36  1  0  0  0
 28 29  1  0  0  0
 14 16  1  0  0  0
 14 17  1  0  0  0
 15 18  1  0  0  0
 15 19  1  0  0  0
  9 11  1  0  0  0
 10 12  1  0  0  0
M  CHG 1   9   1
M  CHG 1  14   1
M  CHG 1  31   1
M  END
> <minimizedAffinity>
-6.33522

$$$$
1XUG_BAB_A_246


 36 39  0  0  0  0  0  0  0  0999 V2000
   42.2287    1.0866   35.3780 C   0  0  0  0  0  0  0  0  0  0  0  0
   48.1287    0.1714   36.5008 C   0  0  0  0  0  0  0  0  0  0  0  0
   47.7034    0.7313   37.7494 C   0  0  0  0  0  0  0  0  0  0  0  0
   46.3770    1.1157   37.9898 C   0  0  0  0  0  0  0  0  0  0  0  0
   45.4913    0.9254   36.9542 C   0  0  0  0  0  0  0  0  0  0  0  0
   45.8299    0.4026   35.7574 C   0  0  0  0  0  0  0  0  0  0  0  0
   47.1383    0.0073   35.4779 C   0  0  0  0  0  0  0  0  0  0  0  0
   43.7566    0.8805   35.7623 C   0  0  0  0  0  0  0  0  0  0  0  0
   44.2288    1.2046   36.9271 N   0  0  0  0  0  0  0  0  0  0  0  0
   44.7318    0.3827   35.0255 N   0  0  0  0  0  0  0  0  0  0  0  0
   43.7117    1.5977   37.6670 H   0  0  0  0  0  0  0  0  0  0  0  0
   44.6544    0.0565   34.0998 H   0  0  0  0  0  0  0  0  0  0  0  0
   49.4825   -0.1792   36.3163 C   0  0  0  0  0  0  0  0  0  0  0  0
   50.2198    0.3878   35.3861 N   0  0  0  0  0  0  0  0  0  0  0  0
   49.9850   -1.0888   37.1226 N   0  0  0  0  0  0  0  0  0  0  0  0
   49.8261    1.0668   34.7918 H   0  0  0  0  0  0  0  0  0  0  0  0
   51.1653    0.1331   35.2843 H   0  0  0  0  0  0  0  0  0  0  0  0
   49.4176   -1.5022   37.8129 H   0  0  0  0  0  0  0  0  0  0  0  0
   50.9285   -1.3563   37.0358 H   0  0  0  0  0  0  0  0  0  0  0  0
   40.3426   -1.7580   30.3258 C   0  0  0  0  0  0  0  0  0  0  0  0
   39.3090   -0.7711   30.4600 C   0  0  0  0  0  0  0  0  0  0  0  0
   39.3057    0.1612   31.5126 C   0  0  0  0  0  0  0  0  0  0  0  0
   40.3463    0.0640   32.3971 C   0  0  0  0  0  0  0  0  0  0  0  0
   41.3270   -0.8344   32.3157 C   0  0  0  0  0  0  0  0  0  0  0  0
   41.3778   -1.7692   31.3033 C   0  0  0  0  0  0  0  0  0  0  0  0
   41.6620    0.3952   34.0305 C   0  0  0  0  0  0  0  0  0  0  0  0
   40.5777    0.7890   33.4409 N   0  0  0  0  0  0  0  0  0  0  0  0
   42.1347   -0.6186   33.3315 N   0  0  0  0  0  0  0  0  0  0  0  0
   42.9526   -1.1272   33.5352 H   0  0  0  0  0  0  0  0  0  0  0  0
   40.3252   -2.6775   29.2745 C   0  0  0  0  0  0  0  0  0  0  0  0
   41.4405   -2.9576   28.6483 N   0  0  0  0  0  0  0  0  0  0  0  0
   39.1942   -3.2565   28.9394 N   0  0  0  0  0  0  0  0  0  0  0  0
   42.2785   -2.5139   28.9131 H   0  0  0  0  0  0  0  0  0  0  0  0
   41.4411   -3.6118   27.9126 H   0  0  0  0  0  0  0  0  0  0  0  0
   38.3653   -3.0334   29.4216 H   0  0  0  0  0  0  0  0  0  0  0  0
   39.1756   -3.9133   28.2063 H   0  0  0  0  0  0  0  0  0  0  0  0
 20 21  1  0  0  0
 20 25  2  0  0  0
 20 30  1  0  0  0
 21 22  2  0  0  0
 22 23  1  0  0  0
 23 24  2  0  0  0
 23 27  1  0  0  0
 24 25  1  0  0  0
 24 28  1  0  0  0
 30 31  2  0  0  0
 30 32  1  0  0  0
 26  1  1  0  0  0
 26 27  2  0  0  0
 26 28  1  0  0  0
  1  8  1  0  0  0
  2  3  1  0  0  0
  2  7  2  0  0  0
  2 13  1  0  0  0
  3  4  2  0  0  0
  4  5  1  0  0  0
  5  6  2  0  0  0
  5  9  1  0  0  0
  6  7  1  0  0  0
  6 10  1  0  0  0
 13 14  2  0  0  0
 13 15  1  0  0  0
  8  9  2  0  0  0
  8 10  1  0  0  0
 31 33  1  0  0  0
 31 34  1  0  0  0
 32 35  1  0  0  0
 32 36  1  0  0  0
 28 29  1  0  0  0
 14 16  1  0  0  0
 14 17  1  0  0  0
 15 18  1  0  0  0
 15 19  1  0  0  0
  9 11  1  0  0  0
 10 12  1  0  0  0
M  CHG 1   9   1
M  CHG 1  14   1
M  CHG 1  31   1
M  END
> <minimizedAffinity>
-6.28162

$$$$
1XUG_BAB_A_246


 36 39  0  0  0  0  0  0  0  0999 V2000
   43.7247    2.5803   36.2370 C   0  0  0  0  0  0  0  0  0  0  0  0
   39.2153    0.0839   33.0212 C   0  0  0  0  0  0  0  0  0  0  0  0
   38.4975    1.0836   33.7554 C   0  0  0  0  0  0  0  0  0  0  0  0
   39.1261    1.9501   34.6604 C   0  0  0  0  0  0  0  0  0  0  0  0
   40.4846    1.7920   34.8106 C   0  0  0  0  0  0  0  0  0  0  0  0
   41.2155    0.8716   34.1479 C   0  0  0  0  0  0  0  0  0  0  0  0
   40.6289   -0.0091   33.2387 C   0  0  0  0  0  0  0  0  0  0  0  0
   42.4846    1.9927   35.4361 C   0  0  0  0  0  0  0  0  0  0  0  0
   41.2812    2.4563   35.5830 N   0  0  0  0  0  0  0  0  0  0  0  0
   42.4638    1.0126   34.5525 N   0  0  0  0  0  0  0  0  0  0  0  0
   41.0185    3.1914   36.1828 H   0  0  0  0  0  0  0  0  0  0  0  0
   43.2374    0.4837   34.2507 H   0  0  0  0  0  0  0  0  0  0  0  0
   38.5209   -0.7687   32.1379 C   0  0  0  0  0  0  0  0  0  0  0  0
   37.5820   -1.5852   32.5648 N   0  0  0  0  0  0  0  0  0  0  0  0
   38.8401   -0.7057   30.8634 N   0  0  0  0  0  0  0  0  0  0  0  0
   37.3568   -1.6185   33.5226 H   0  0  0  0  0  0  0  0  0  0  0  0
   37.1045   -2.1630   31.9265 H   0  0  0  0  0  0  0  0  0  0  0  0
   39.5456   -0.0884   30.5626 H   0  0  0  0  0  0  0  0  0  0  0  0
   38.3736   -1.2759   30.2104 H   0  0  0  0  0  0  0  0  0  0  0  0
   48.8445   -0.6396   37.0077 C   0  0  0  0  0  0  0  0  0  0  0  0
   48.3932   -1.1796   35.7566 C   0  0  0  0  0  0  0  0  0  0  0  0
   47.2101   -0.7349   35.1404 C   0  0  0  0  0  0  0  0  0  0  0  0
   46.5201    0.2397   35.8101 C   0  0  0  0  0  0  0  0  0  0  0  0
   46.8972    0.7705   36.9728 C   0  0  0  0  0  0  0  0  0  0  0  0
   48.0486    0.3710   37.6178 C   0  0  0  0  0  0  0  0  0  0  0  0
   45.0694    1.6902   36.3579 C   0  0  0  0  0  0  0  0  0  0  0  0
   45.4156    0.8153   35.4675 N   0  0  0  0  0  0  0  0  0  0  0  0
   45.9917    1.6669   37.3005 N   0  0  0  0  0  0  0  0  0  0  0  0
   46.0010    2.2252   38.1114 H   0  0  0  0  0  0  0  0  0  0  0  0
   50.0210   -1.0980   37.6050 C   0  0  0  0  0  0  0  0  0  0  0  0
   51.0768   -0.3238   37.6203 N   0  0  0  0  0  0  0  0  0  0  0  0
   50.0461   -2.2920   38.1532 N   0  0  0  0  0  0  0  0  0  0  0  0
   51.0395    0.5678   37.2045 H   0  0  0  0  0  0  0  0  0  0  0  0
   51.9080   -0.6332   38.0477 H   0  0  0  0  0  0  0  0  0  0  0  0
   49.2425   -2.8603   38.1320 H   0  0  0  0  0  0  0  0  0  0  0  0
   50.8685   -2.6182   38.5851 H   0  0  0  0  0  0  0  0  0  0  0  0
 20 21  1  0  0  0
 20 25  2  0  0  0
 20 30  1  0  0  0
 21 22  2  0  0  0
 22 23  1  0  0  0
 23 24  2  0  0  0
 23 27  1  0  0  0
 24 25  1  0  0  0
 24 28  1  0  0  0
 30 31  2  0  0  0
 30 32  1  0  0  0
 26  1  1  0  0  0
 26 27  2  0  0  0
 26 28  1  0  0  0
  1  8  1  0  0  0
  2  3  1  0  0  0
  2  7  2  0  0  0
  2 13  1  0  0  0
  3  4  2  0  0  0
  4  5  1  0  0  0
  5  6  2  0  0  0
  5  9  1  0  0  0
  6  7  1  0  0  0
  6 10  1  0  0  0
 13 14  2  0  0  0
 13 15  1  0  0  0
  8  9  2  0  0  0
  8 10  1  0  0  0
 31 33  1  0  0  0
 31 34  1  0  0  0
 32 35  1  0  0  0
 32 36  1  0  0  0
 28 29  1  0  0  0
 14 16  1  0  0  0
 14 17  1  0  0  0
 15 18  1  0  0  0
 15 19  1  0  0  0
  9 11  1  0  0  0
 10 12  1  0  0  0
M  CHG 1   9   1
M  CHG 1  14   1
M  CHG 1  31   1
M  END
> <minimizedAffinity>
-5.89306

$$$$
