4NXU_ADP_A_501


 34 36  0  0  0  0  0  0  0  0999 V2000
   -2.2787  -30.4224   -9.6824 C   0  0  0  0  0  0  0  0  0  0  0  0
   -1.7606  -31.1499   -8.5648 O   0  0  0  0  0  0  0  0  0  0  0  0
   -2.4334  -31.3961  -10.8162 C   0  0  0  0  0  0  0  0  0  0  0  0
   -1.4131  -31.1482  -11.7731 O   0  0  0  0  0  0  0  0  0  0  0  0
   -2.3563  -32.7661  -10.1688 C   0  0  0  0  0  0  0  0  0  0  0  0
   -1.7741  -33.7716  -10.9826 O   0  0  0  0  0  0  0  0  0  0  0  0
   -1.5364  -32.5209   -8.9082 C   0  0  0  0  0  0  0  0  0  0  0  0
   -0.5454  -31.2114  -11.3442 H   0  0  0  0  0  0  0  0  0  0  0  0
   -0.8680  -33.5151  -11.2150 H   0  0  0  0  0  0  0  0  0  0  0  0
   -1.8995  -33.4091   -7.7570 N   0  0  0  0  0  0  0  0  0  0  0  0
   -1.0839  -34.2586   -7.0927 C   0  0  0  0  0  0  0  0  0  0  0  0
   -1.7551  -34.9082   -6.1024 N   0  0  0  0  0  0  0  0  0  0  0  0
   -3.0238  -34.4914   -6.1107 C   0  0  0  0  0  0  0  0  0  0  0  0
   -4.2442  -34.7823   -5.3268 C   0  0  0  0  0  0  0  0  0  0  0  0
   -4.2366  -35.6708   -4.3119 N   0  0  0  0  0  0  0  0  0  0  0  0
   -5.3706  -34.1008   -5.6865 N   0  0  0  0  0  0  0  0  0  0  0  0
   -5.3699  -33.2071   -6.7081 C   0  0  0  0  0  0  0  0  0  0  0  0
   -4.2930  -32.9050   -7.4501 N   0  0  0  0  0  0  0  0  0  0  0  0
   -3.1154  -33.5024   -7.2028 C   0  0  0  0  0  0  0  0  0  0  0  0
   -3.4058  -36.1450   -4.0790 H   0  0  0  0  0  0  0  0  0  0  0  0
   -5.0618  -35.8452   -3.8040 H   0  0  0  0  0  0  0  0  0  0  0  0
   -3.6105  -29.8278   -9.3149 C   0  0  0  0  0  0  0  0  0  0  0  0
   -3.9257  -28.8143  -10.2488 O   0  0  0  0  0  0  0  0  0  0  0  0
   -4.2164  -27.3005   -9.7724 P   0  0  0  0  0  0  0  0  0  0  0  0
   -4.4744  -26.4843  -11.0153 O   0  0  0  0  0  0  0  0  0  0  0  0
   -3.1324  -26.9323   -8.7913 O   0  0  0  0  0  0  0  0  0  0  0  0
   -3.2727  -26.0244   -8.4801 H   0  0  0  0  0  0  0  0  0  0  0  0
   -5.5997  -27.5588   -8.9755 O   0  0  0  0  0  0  0  0  0  0  0  0
   -6.9348  -28.1928   -9.6305 P   0  0  0  0  0  0  0  0  0  0  0  0
   -8.0755  -27.3951   -9.0564 O   0  0  0  0  0  0  0  0  0  0  0  0
   -6.7088  -27.9866  -11.1091 O   0  0  0  0  0  0  0  0  0  0  0  0
   -6.9223  -29.6352   -9.1925 O   0  0  0  0  0  0  0  0  0  0  0  0
   -7.4654  -28.3381  -11.6039 H   0  0  0  0  0  0  0  0  0  0  0  0
   -7.7017  -30.0885   -9.5501 H   0  0  0  0  0  0  0  0  0  0  0  0
 29 30  2  0  0  0
 29 31  1  0  0  0
 29 32  1  0  0  0
 29 28  1  0  0  0
 24 25  2  0  0  0
 24 26  1  0  0  0
 24 28  1  0  0  0
 24 23  1  0  0  0
 23 22  1  0  0  0
 22  1  1  0  0  0
  1  2  1  0  0  0
  1  3  1  0  0  0
  2  7  1  0  0  0
  3  4  1  0  0  0
  3  5  1  0  0  0
  5  6  1  0  0  0
  5  7  1  0  0  0
  7 10  1  0  0  0
 10 11  1  0  0  0
 10 19  1  0  0  0
 11 12  2  0  0  0
 12 13  1  0  0  0
 13 14  1  0  0  0
 13 19  2  0  0  0
 14 15  1  0  0  0
 14 16  2  0  0  0
 16 17  1  0  0  0
 17 18  2  0  0  0
 18 19  1  0  0  0
 31 33  1  0  0  0
 32 34  1  0  0  0
 26 27  1  0  0  0
  4  8  1  0  0  0
  6  9  1  0  0  0
 15 20  1  0  0  0
 15 21  1  0  0  0
M  END
> <minimizedAffinity>
-8.54469

$$$$
4NXU_ADP_A_501


 34 36  0  0  0  0  0  0  0  0999 V2000
   -2.4635  -30.4741   -9.7261 C   0  0  0  0  0  0  0  0  0  0  0  0
   -1.9496  -31.1449   -8.5716 O   0  0  0  0  0  0  0  0  0  0  0  0
   -2.4958  -31.4747  -10.8465 C   0  0  0  0  0  0  0  0  0  0  0  0
   -1.4509  -31.1711  -11.7597 O   0  0  0  0  0  0  0  0  0  0  0  0
   -2.3542  -32.8251  -10.1695 C   0  0  0  0  0  0  0  0  0  0  0  0
   -1.6652  -33.8002  -10.9355 O   0  0  0  0  0  0  0  0  0  0  0  0
   -1.6144  -32.5021   -8.8773 C   0  0  0  0  0  0  0  0  0  0  0  0
   -0.6023  -31.1658  -11.2900 H   0  0  0  0  0  0  0  0  0  0  0  0
   -0.7692  -33.4841  -11.1307 H   0  0  0  0  0  0  0  0  0  0  0  0
   -1.9689  -33.3948   -7.7269 N   0  0  0  0  0  0  0  0  0  0  0  0
   -1.1447  -34.2354   -7.0619 C   0  0  0  0  0  0  0  0  0  0  0  0
   -1.8098  -34.8929   -6.0727 N   0  0  0  0  0  0  0  0  0  0  0  0
   -3.0831  -34.4905   -6.0826 C   0  0  0  0  0  0  0  0  0  0  0  0
   -4.3013  -34.7953   -5.3004 C   0  0  0  0  0  0  0  0  0  0  0  0
   -4.2850  -35.6842   -4.2858 N   0  0  0  0  0  0  0  0  0  0  0  0
   -5.4348  -34.1265   -5.6613 N   0  0  0  0  0  0  0  0  0  0  0  0
   -5.4428  -33.2323   -6.6825 C   0  0  0  0  0  0  0  0  0  0  0  0
   -4.3683  -32.9178   -7.4230 N   0  0  0  0  0  0  0  0  0  0  0  0
   -3.1845  -33.5020   -7.1743 C   0  0  0  0  0  0  0  0  0  0  0  0
   -3.4492  -36.1491   -4.0521 H   0  0  0  0  0  0  0  0  0  0  0  0
   -5.1088  -35.8680   -3.7791 H   0  0  0  0  0  0  0  0  0  0  0  0
   -3.8495  -29.9691   -9.4323 C   0  0  0  0  0  0  0  0  0  0  0  0
   -4.1591  -28.9398  -10.3507 O   0  0  0  0  0  0  0  0  0  0  0  0
   -4.5896  -27.4699   -9.8439 P   0  0  0  0  0  0  0  0  0  0  0  0
   -3.6290  -27.0775   -8.7482 O   0  0  0  0  0  0  0  0  0  0  0  0
   -6.0803  -27.5010   -9.6198 O   0  0  0  0  0  0  0  0  0  0  0  0
   -6.3793  -26.6307   -9.3128 H   0  0  0  0  0  0  0  0  0  0  0  0
   -4.2649  -26.6431  -11.1954 O   0  0  0  0  0  0  0  0  0  0  0  0
   -5.3126  -26.4060  -12.4035 P   0  0  0  0  0  0  0  0  0  0  0  0
   -4.4637  -26.1349  -13.6172 O   0  0  0  0  0  0  0  0  0  0  0  0
   -6.0687  -27.7122  -12.4478 O   0  0  0  0  0  0  0  0  0  0  0  0
   -6.1363  -25.2228  -11.9627 O   0  0  0  0  0  0  0  0  0  0  0  0
   -6.7350  -27.6764  -13.1519 H   0  0  0  0  0  0  0  0  0  0  0  0
   -6.7958  -25.0164  -12.6434 H   0  0  0  0  0  0  0  0  0  0  0  0
 29 30  2  0  0  0
 29 31  1  0  0  0
 29 32  1  0  0  0
 29 28  1  0  0  0
 24 25  2  0  0  0
 24 26  1  0  0  0
 24 28  1  0  0  0
 24 23  1  0  0  0
 23 22  1  0  0  0
 22  1  1  0  0  0
  1  2  1  0  0  0
  1  3  1  0  0  0
  2  7  1  0  0  0
  3  4  1  0  0  0
  3  5  1  0  0  0
  5  6  1  0  0  0
  5  7  1  0  0  0
  7 10  1  0  0  0
 10 11  1  0  0  0
 10 19  1  0  0  0
 11 12  2  0  0  0
 12 13  1  0  0  0
 13 14  1  0  0  0
 13 19  2  0  0  0
 14 15  1  0  0  0
 14 16  2  0  0  0
 16 17  1  0  0  0
 17 18  2  0  0  0
 18 19  1  0  0  0
 31 33  1  0  0  0
 32 34  1  0  0  0
 26 27  1  0  0  0
  4  8  1  0  0  0
  6  9  1  0  0  0
 15 20  1  0  0  0
 15 21  1  0  0  0
M  END
> <minimizedAffinity>
-8.27299

$$$$
4NXU_ADP_A_501


 34 36  0  0  0  0  0  0  0  0999 V2000
   -0.8728  -35.0467   -9.1515 C   0  0  0  0  0  0  0  0  0  0  0  0
   -1.4858  -33.9390   -8.4850 O   0  0  0  0  0  0  0  0  0  0  0  0
   -1.2221  -36.2843   -8.3744 C   0  0  0  0  0  0  0  0  0  0  0  0
   -0.0689  -36.7213   -7.6695 O   0  0  0  0  0  0  0  0  0  0  0  0
   -2.3761  -35.8721   -7.4798 C   0  0  0  0  0  0  0  0  0  0  0  0
   -2.4195  -36.5376   -6.2279 O   0  0  0  0  0  0  0  0  0  0  0  0
   -2.1791  -34.3708   -7.3100 C   0  0  0  0  0  0  0  0  0  0  0  0
    0.2539  -36.0042   -7.1016 H   0  0  0  0  0  0  0  0  0  0  0  0
   -1.6015  -36.3588   -5.7381 H   0  0  0  0  0  0  0  0  0  0  0  0
   -3.4532  -33.5987   -7.1473 N   0  0  0  0  0  0  0  0  0  0  0  0
   -4.0331  -32.7804   -8.0542 C   0  0  0  0  0  0  0  0  0  0  0  0
   -5.1839  -32.2432   -7.5639 N   0  0  0  0  0  0  0  0  0  0  0  0
   -5.3679  -32.7035   -6.3239 C   0  0  0  0  0  0  0  0  0  0  0  0
   -6.3836  -32.5257   -5.2630 C   0  0  0  0  0  0  0  0  0  0  0  0
   -7.4570  -31.7280   -5.4395 N   0  0  0  0  0  0  0  0  0  0  0  0
   -6.1737  -33.2141   -4.1034 N   0  0  0  0  0  0  0  0  0  0  0  0
   -5.0917  -34.0161   -3.9340 C   0  0  0  0  0  0  0  0  0  0  0  0
   -4.1422  -34.2139   -4.8618 N   0  0  0  0  0  0  0  0  0  0  0  0
   -4.2251  -33.5976   -6.0526 C   0  0  0  0  0  0  0  0  0  0  0  0
   -7.5774  -31.2457   -6.2893 H   0  0  0  0  0  0  0  0  0  0  0  0
   -8.1199  -31.6281   -4.7186 H   0  0  0  0  0  0  0  0  0  0  0  0
   -1.4054  -35.1395  -10.5551 C   0  0  0  0  0  0  0  0  0  0  0  0
   -0.7133  -36.1688  -11.2335 O   0  0  0  0  0  0  0  0  0  0  0  0
    0.0452  -35.8863  -12.6291 P   0  0  0  0  0  0  0  0  0  0  0  0
    0.7231  -37.1717  -13.0358 O   0  0  0  0  0  0  0  0  0  0  0  0
    0.8157  -34.6015  -12.4586 O   0  0  0  0  0  0  0  0  0  0  0  0
    1.2880  -34.3962  -13.2807 H   0  0  0  0  0  0  0  0  0  0  0  0
   -1.2505  -35.6184  -13.5590 O   0  0  0  0  0  0  0  0  0  0  0  0
   -1.6338  -36.4781  -14.8733 P   0  0  0  0  0  0  0  0  0  0  0  0
   -2.7745  -35.7340  -15.5153 O   0  0  0  0  0  0  0  0  0  0  0  0
   -0.3496  -36.4604  -15.6672 O   0  0  0  0  0  0  0  0  0  0  0  0
   -2.0185  -37.8342  -14.3389 O   0  0  0  0  0  0  0  0  0  0  0  0
   -0.4719  -36.9576  -16.4911 H   0  0  0  0  0  0  0  0  0  0  0  0
   -2.2645  -38.4144  -15.0762 H   0  0  0  0  0  0  0  0  0  0  0  0
 29 30  2  0  0  0
 29 31  1  0  0  0
 29 32  1  0  0  0
 29 28  1  0  0  0
 24 25  2  0  0  0
 24 26  1  0  0  0
 24 28  1  0  0  0
 24 23  1  0  0  0
 23 22  1  0  0  0
 22  1  1  0  0  0
  1  2  1  0  0  0
  1  3  1  0  0  0
  2  7  1  0  0  0
  3  4  1  0  0  0
  3  5  1  0  0  0
  5  6  1  0  0  0
  5  7  1  0  0  0
  7 10  1  0  0  0
 10 11  1  0  0  0
 10 19  1  0  0  0
 11 12  2  0  0  0
 12 13  1  0  0  0
 13 14  1  0  0  0
 13 19  2  0  0  0
 14 15  1  0  0  0
 14 16  2  0  0  0
 16 17  1  0  0  0
 17 18  2  0  0  0
 18 19  1  0  0  0
 31 33  1  0  0  0
 32 34  1  0  0  0
 26 27  1  0  0  0
  4  8  1  0  0  0
  6  9  1  0  0  0
 15 20  1  0  0  0
 15 21  1  0  0  0
M  END
> <minimizedAffinity>
-8.26719

$$$$
4NXU_ADP_A_501


 34 36  0  0  0  0  0  0  0  0999 V2000
   -3.1963  -31.8525   -9.4498 C   0  0  0  0  0  0  0  0  0  0  0  0
   -2.7253  -32.2780   -8.1677 O   0  0  0  0  0  0  0  0  0  0  0  0
   -3.6486  -33.0797  -10.1893 C   0  0  0  0  0  0  0  0  0  0  0  0
   -2.6973  -33.3796  -11.2008 O   0  0  0  0  0  0  0  0  0  0  0  0
   -3.7797  -34.1523   -9.1243 C   0  0  0  0  0  0  0  0  0  0  0  0
   -3.4883  -35.4667   -9.5711 O   0  0  0  0  0  0  0  0  0  0  0  0
   -2.8093  -33.7008   -8.0399 C   0  0  0  0  0  0  0  0  0  0  0  0
   -1.8214  -33.4892  -10.7986 H   0  0  0  0  0  0  0  0  0  0  0  0
   -2.5763  -35.5017   -9.8998 H   0  0  0  0  0  0  0  0  0  0  0  0
   -3.2264  -34.0721   -6.6491 N   0  0  0  0  0  0  0  0  0  0  0  0
   -2.5905  -34.9143   -5.8038 C   0  0  0  0  0  0  0  0  0  0  0  0
   -3.2571  -35.0170   -4.6213 N   0  0  0  0  0  0  0  0  0  0  0  0
   -4.3432  -34.2424   -4.6821 C   0  0  0  0  0  0  0  0  0  0  0  0
   -5.4609  -33.9043   -3.7737 C   0  0  0  0  0  0  0  0  0  0  0  0
   -5.5478  -34.4304   -2.5346 N   0  0  0  0  0  0  0  0  0  0  0  0
   -6.3917  -33.0321   -4.2589 N   0  0  0  0  0  0  0  0  0  0  0  0
   -6.2965  -32.5058   -5.5064 C   0  0  0  0  0  0  0  0  0  0  0  0
   -5.3051  -32.7768   -6.3698 N   0  0  0  0  0  0  0  0  0  0  0  0
   -4.3195  -33.6202   -6.0205 C   0  0  0  0  0  0  0  0  0  0  0  0
   -4.8583  -35.0570   -2.2165 H   0  0  0  0  0  0  0  0  0  0  0  0
   -6.3006  -34.1878   -1.9485 H   0  0  0  0  0  0  0  0  0  0  0  0
   -4.3432  -30.8968   -9.2664 C   0  0  0  0  0  0  0  0  0  0  0  0
   -3.8338  -29.6653   -8.7946 O   0  0  0  0  0  0  0  0  0  0  0  0
   -4.2117  -28.2731   -9.5171 P   0  0  0  0  0  0  0  0  0  0  0  0
   -4.3070  -28.5511  -10.9973 O   0  0  0  0  0  0  0  0  0  0  0  0
   -3.2808  -27.2238   -8.9643 O   0  0  0  0  0  0  0  0  0  0  0  0
   -3.4774  -26.3679   -9.3762 H   0  0  0  0  0  0  0  0  0  0  0  0
   -5.6883  -28.0680   -8.8901 O   0  0  0  0  0  0  0  0  0  0  0  0
   -7.0530  -27.9953   -9.7536 P   0  0  0  0  0  0  0  0  0  0  0  0
   -8.0545  -27.3176   -8.8564 O   0  0  0  0  0  0  0  0  0  0  0  0
   -6.6407  -27.1825  -10.9574 O   0  0  0  0  0  0  0  0  0  0  0  0
   -7.3858  -29.4341  -10.0563 O   0  0  0  0  0  0  0  0  0  0  0  0
   -7.4000  -27.0771  -11.5518 H   0  0  0  0  0  0  0  0  0  0  0  0
   -8.2024  -29.4742  -10.5782 H   0  0  0  0  0  0  0  0  0  0  0  0
 29 30  2  0  0  0
 29 31  1  0  0  0
 29 32  1  0  0  0
 29 28  1  0  0  0
 24 25  2  0  0  0
 24 26  1  0  0  0
 24 28  1  0  0  0
 24 23  1  0  0  0
 23 22  1  0  0  0
 22  1  1  0  0  0
  1  2  1  0  0  0
  1  3  1  0  0  0
  2  7  1  0  0  0
  3  4  1  0  0  0
  3  5  1  0  0  0
  5  6  1  0  0  0
  5  7  1  0  0  0
  7 10  1  0  0  0
 10 11  1  0  0  0
 10 19  1  0  0  0
 11 12  2  0  0  0
 12 13  1  0  0  0
 13 14  1  0  0  0
 13 19  2  0  0  0
 14 15  1  0  0  0
 14 16  2  0  0  0
 16 17  1  0  0  0
 17 18  2  0  0  0
 18 19  1  0  0  0
 31 33  1  0  0  0
 32 34  1  0  0  0
 26 27  1  0  0  0
  4  8  1  0  0  0
  6  9  1  0  0  0
 15 20  1  0  0  0
 15 21  1  0  0  0
M  END
> <minimizedAffinity>
-8.12832

$$$$
4NXU_ADP_A_501


 34 36  0  0  0  0  0  0  0  0999 V2000
   -3.8440  -31.2831  -10.1040 C   0  0  0  0  0  0  0  0  0  0  0  0
   -3.9053  -32.0265   -8.8832 O   0  0  0  0  0  0  0  0  0  0  0  0
   -5.2402  -31.2126  -10.6546 C   0  0  0  0  0  0  0  0  0  0  0  0
   -5.3325  -32.0783  -11.7770 O   0  0  0  0  0  0  0  0  0  0  0  0
   -6.1382  -31.6028   -9.4954 C   0  0  0  0  0  0  0  0  0  0  0  0
   -7.3223  -32.2877   -9.8707 O   0  0  0  0  0  0  0  0  0  0  0  0
   -5.2402  -32.4719   -8.6236 C   0  0  0  0  0  0  0  0  0  0  0  0
   -5.0815  -32.9774  -11.5133 H   0  0  0  0  0  0  0  0  0  0  0  0
   -7.0889  -33.1052  -10.3378 H   0  0  0  0  0  0  0  0  0  0  0  0
   -5.5389  -32.3864   -7.1575 N   0  0  0  0  0  0  0  0  0  0  0  0
   -6.3669  -31.5119   -6.5429 C   0  0  0  0  0  0  0  0  0  0  0  0
   -6.3935  -31.7246   -5.1985 N   0  0  0  0  0  0  0  0  0  0  0  0
   -5.5765  -32.7429   -4.9176 C   0  0  0  0  0  0  0  0  0  0  0  0
   -5.1561  -33.4637   -3.6960 C   0  0  0  0  0  0  0  0  0  0  0  0
   -5.6295  -33.1262   -2.4788 N   0  0  0  0  0  0  0  0  0  0  0  0
   -4.2689  -34.4857   -3.8720 N   0  0  0  0  0  0  0  0  0  0  0  0
   -3.7983  -34.8202   -5.1004 C   0  0  0  0  0  0  0  0  0  0  0  0
   -4.1464  -34.2018   -6.2398 N   0  0  0  0  0  0  0  0  0  0  0  0
   -5.0150  -33.1774   -6.2119 C   0  0  0  0  0  0  0  0  0  0  0  0
   -6.2688  -32.3831   -2.3879 H   0  0  0  0  0  0  0  0  0  0  0  0
   -5.3357  -33.6230   -1.6812 H   0  0  0  0  0  0  0  0  0  0  0  0
   -3.3208  -29.9019   -9.8197 C   0  0  0  0  0  0  0  0  0  0  0  0
   -4.1752  -28.9595  -10.4367 O   0  0  0  0  0  0  0  0  0  0  0  0
   -4.5732  -27.5824   -9.6963 P   0  0  0  0  0  0  0  0  0  0  0  0
   -3.5255  -27.3252   -8.6411 O   0  0  0  0  0  0  0  0  0  0  0  0
   -6.0388  -27.6746   -9.3544 O   0  0  0  0  0  0  0  0  0  0  0  0
   -6.3178  -26.8612   -8.9056 H   0  0  0  0  0  0  0  0  0  0  0  0
   -4.3729  -26.5710  -10.9422 O   0  0  0  0  0  0  0  0  0  0  0  0
   -5.3168  -26.5281  -12.2539 P   0  0  0  0  0  0  0  0  0  0  0  0
   -4.3692  -26.4981  -13.4237 O   0  0  0  0  0  0  0  0  0  0  0  0
   -6.1164  -27.8027  -12.1288 O   0  0  0  0  0  0  0  0  0  0  0  0
   -6.1258  -25.2658  -12.0961 O   0  0  0  0  0  0  0  0  0  0  0  0
   -6.7260  -27.8770  -12.8797 H   0  0  0  0  0  0  0  0  0  0  0  0
   -6.7238  -25.1683  -12.8536 H   0  0  0  0  0  0  0  0  0  0  0  0
 29 30  2  0  0  0
 29 31  1  0  0  0
 29 32  1  0  0  0
 29 28  1  0  0  0
 24 25  2  0  0  0
 24 26  1  0  0  0
 24 28  1  0  0  0
 24 23  1  0  0  0
 23 22  1  0  0  0
 22  1  1  0  0  0
  1  2  1  0  0  0
  1  3  1  0  0  0
  2  7  1  0  0  0
  3  4  1  0  0  0
  3  5  1  0  0  0
  5  6  1  0  0  0
  5  7  1  0  0  0
  7 10  1  0  0  0
 10 11  1  0  0  0
 10 19  1  0  0  0
 11 12  2  0  0  0
 12 13  1  0  0  0
 13 14  1  0  0  0
 13 19  2  0  0  0
 14 15  1  0  0  0
 14 16  2  0  0  0
 16 17  1  0  0  0
 17 18  2  0  0  0
 18 19  1  0  0  0
 31 33  1  0  0  0
 32 34  1  0  0  0
 26 27  1  0  0  0
  4  8  1  0  0  0
  6  9  1  0  0  0
 15 20  1  0  0  0
 15 21  1  0  0  0
M  END
> <minimizedAffinity>
-8.06911

$$$$
4NXU_ADP_A_501


 34 36  0  0  0  0  0  0  0  0999 V2000
   -4.3334  -31.4750   -9.5759 C   0  0  0  0  0  0  0  0  0  0  0  0
   -3.6075  -31.8783   -8.4109 O   0  0  0  0  0  0  0  0  0  0  0  0
   -4.7715  -32.7256  -10.2841 C   0  0  0  0  0  0  0  0  0  0  0  0
   -3.9805  -32.8893  -11.4526 O   0  0  0  0  0  0  0  0  0  0  0  0
   -4.6033  -33.8339   -9.2616 C   0  0  0  0  0  0  0  0  0  0  0  0
   -4.2537  -35.0946   -9.8097 O   0  0  0  0  0  0  0  0  0  0  0  0
   -3.5158  -33.3043   -8.3351 C   0  0  0  0  0  0  0  0  0  0  0  0
   -3.0422  -32.9098  -11.2076 H   0  0  0  0  0  0  0  0  0  0  0  0
   -3.4129  -35.0177  -10.2872 H   0  0  0  0  0  0  0  0  0  0  0  0
   -3.6470  -33.7569   -6.9125 N   0  0  0  0  0  0  0  0  0  0  0  0
   -2.7894  -34.5434   -6.2239 C   0  0  0  0  0  0  0  0  0  0  0  0
   -3.2294  -34.7521   -4.9526 N   0  0  0  0  0  0  0  0  0  0  0  0
   -4.3868  -34.1044   -4.7965 C   0  0  0  0  0  0  0  0  0  0  0  0
   -5.3627  -33.9193   -3.7001 C   0  0  0  0  0  0  0  0  0  0  0  0
   -5.1797  -34.4842   -2.4889 N   0  0  0  0  0  0  0  0  0  0  0  0
   -6.4509  -33.1459   -3.9835 N   0  0  0  0  0  0  0  0  0  0  0  0
   -6.6272  -32.5797   -5.2044 C   0  0  0  0  0  0  0  0  0  0  0  0
   -5.7744  -32.7137   -6.2323 N   0  0  0  0  0  0  0  0  0  0  0  0
   -4.6589  -33.4486   -6.0907 C   0  0  0  0  0  0  0  0  0  0  0  0
   -4.3828  -35.0366   -2.3187 H   0  0  0  0  0  0  0  0  0  0  0  0
   -5.8431  -34.3440   -1.7751 H   0  0  0  0  0  0  0  0  0  0  0  0
   -5.5276  -30.6603   -9.1607 C   0  0  0  0  0  0  0  0  0  0  0  0
   -5.7544  -29.6622  -10.1360 O   0  0  0  0  0  0  0  0  0  0  0  0
   -5.7070  -28.0953   -9.7544 P   0  0  0  0  0  0  0  0  0  0  0  0
   -4.9700  -27.9785   -8.4427 O   0  0  0  0  0  0  0  0  0  0  0  0
   -7.1044  -27.5572   -9.9308 O   0  0  0  0  0  0  0  0  0  0  0  0
   -7.1174  -26.6128   -9.7099 H   0  0  0  0  0  0  0  0  0  0  0  0
   -4.7730  -27.5784  -10.9692 O   0  0  0  0  0  0  0  0  0  0  0  0
   -5.3258  -26.9488  -12.3517 P   0  0  0  0  0  0  0  0  0  0  0  0
   -4.1203  -26.8380  -13.2471 O   0  0  0  0  0  0  0  0  0  0  0  0
   -6.3445  -27.9702  -12.7972 O   0  0  0  0  0  0  0  0  0  0  0  0
   -5.9100  -25.6173  -11.9535 O   0  0  0  0  0  0  0  0  0  0  0  0
   -6.7444  -27.6846  -13.6336 H   0  0  0  0  0  0  0  0  0  0  0  0
   -6.2666  -25.1729  -12.7385 H   0  0  0  0  0  0  0  0  0  0  0  0
 29 30  2  0  0  0
 29 31  1  0  0  0
 29 32  1  0  0  0
 29 28  1  0  0  0
 24 25  2  0  0  0
 24 26  1  0  0  0
 24 28  1  0  0  0
 24 23  1  0  0  0
 23 22  1  0  0  0
 22  1  1  0  0  0
  1  2  1  0  0  0
  1  3  1  0  0  0
  2  7  1  0  0  0
  3  4  1  0  0  0
  3  5  1  0  0  0
  5  6  1  0  0  0
  5  7  1  0  0  0
  7 10  1  0  0  0
 10 11  1  0  0  0
 10 19  1  0  0  0
 11 12  2  0  0  0
 12 13  1  0  0  0
 13 14  1  0  0  0
 13 19  2  0  0  0
 14 15  1  0  0  0
 14 16  2  0  0  0
 16 17  1  0  0  0
 17 18  2  0  0  0
 18 19  1  0  0  0
 31 33  1  0  0  0
 32 34  1  0  0  0
 26 27  1  0  0  0
  4  8  1  0  0  0
  6  9  1  0  0  0
 15 20  1  0  0  0
 15 21  1  0  0  0
M  END
> <minimizedAffinity>
-8.03020

$$$$
4NXU_ADP_A_501


 34 36  0  0  0  0  0  0  0  0999 V2000
   -5.1492  -28.7713  -11.8769 C   0  0  0  0  0  0  0  0  0  0  0  0
   -4.6401  -29.9052  -11.1685 O   0  0  0  0  0  0  0  0  0  0  0  0
   -5.2837  -27.6495  -10.8865 C   0  0  0  0  0  0  0  0  0  0  0  0
   -6.6617  -27.4546  -10.6021 O   0  0  0  0  0  0  0  0  0  0  0  0
   -4.4591  -28.0835   -9.6891 C   0  0  0  0  0  0  0  0  0  0  0  0
   -4.9523  -27.6324   -8.4380 O   0  0  0  0  0  0  0  0  0  0  0  0
   -4.4688  -29.6044   -9.7800 C   0  0  0  0  0  0  0  0  0  0  0  0
   -7.0456  -28.2845  -10.2785 H   0  0  0  0  0  0  0  0  0  0  0  0
   -5.8508  -27.9719   -8.3031 H   0  0  0  0  0  0  0  0  0  0  0  0
   -3.2257  -30.2588   -9.2579 N   0  0  0  0  0  0  0  0  0  0  0  0
   -2.0011  -29.6999   -9.1305 C   0  0  0  0  0  0  0  0  0  0  0  0
   -1.1064  -30.5913   -8.6223 N   0  0  0  0  0  0  0  0  0  0  0  0
   -1.7382  -31.7493   -8.4144 C   0  0  0  0  0  0  0  0  0  0  0  0
   -1.3684  -33.0849   -7.8968 C   0  0  0  0  0  0  0  0  0  0  0  0
   -0.1121  -33.3620   -7.4910 N   0  0  0  0  0  0  0  0  0  0  0  0
   -2.3673  -34.0137   -7.8516 N   0  0  0  0  0  0  0  0  0  0  0  0
   -3.6294  -33.7268   -8.2605 C   0  0  0  0  0  0  0  0  0  0  0  0
   -4.0191  -32.5338   -8.7365 N   0  0  0  0  0  0  0  0  0  0  0  0
   -3.1358  -31.5263   -8.8341 C   0  0  0  0  0  0  0  0  0  0  0  0
    0.5845  -32.6679   -7.5374 H   0  0  0  0  0  0  0  0  0  0  0  0
    0.1081  -34.2583   -7.1484 H   0  0  0  0  0  0  0  0  0  0  0  0
   -4.1872  -28.3947  -12.9702 C   0  0  0  0  0  0  0  0  0  0  0  0
   -4.9199  -27.8429  -14.0460 O   0  0  0  0  0  0  0  0  0  0  0  0
   -4.5792  -26.3753  -14.6230 P   0  0  0  0  0  0  0  0  0  0  0  0
   -5.1167  -25.3715  -13.6326 O   0  0  0  0  0  0  0  0  0  0  0  0
   -4.9975  -26.3641  -16.0715 O   0  0  0  0  0  0  0  0  0  0  0  0
   -4.8079  -25.4940  -16.4561 H   0  0  0  0  0  0  0  0  0  0  0  0
   -2.9663  -26.4463  -14.5283 O   0  0  0  0  0  0  0  0  0  0  0  0
   -1.9661  -26.3826  -15.7968 P   0  0  0  0  0  0  0  0  0  0  0  0
   -0.5910  -26.2067  -15.2092 O   0  0  0  0  0  0  0  0  0  0  0  0
   -2.1945  -27.7165  -16.4664 O   0  0  0  0  0  0  0  0  0  0  0  0
   -2.4418  -25.1946  -16.5938 O   0  0  0  0  0  0  0  0  0  0  0  0
   -1.6323  -27.7833  -17.2541 H   0  0  0  0  0  0  0  0  0  0  0  0
   -1.8846  -25.0892  -17.3807 H   0  0  0  0  0  0  0  0  0  0  0  0
 29 30  2  0  0  0
 29 31  1  0  0  0
 29 32  1  0  0  0
 29 28  1  0  0  0
 24 25  2  0  0  0
 24 26  1  0  0  0
 24 28  1  0  0  0
 24 23  1  0  0  0
 23 22  1  0  0  0
 22  1  1  0  0  0
  1  2  1  0  0  0
  1  3  1  0  0  0
  2  7  1  0  0  0
  3  4  1  0  0  0
  3  5  1  0  0  0
  5  6  1  0  0  0
  5  7  1  0  0  0
  7 10  1  0  0  0
 10 11  1  0  0  0
 10 19  1  0  0  0
 11 12  2  0  0  0
 12 13  1  0  0  0
 13 14  1  0  0  0
 13 19  2  0  0  0
 14 15  1  0  0  0
 14 16  2  0  0  0
 16 17  1  0  0  0
 17 18  2  0  0  0
 18 19  1  0  0  0
 31 33  1  0  0  0
 32 34  1  0  0  0
 26 27  1  0  0  0
  4  8  1  0  0  0
  6  9  1  0  0  0
 15 20  1  0  0  0
 15 21  1  0  0  0
M  END
> <minimizedAffinity>
-7.85132

$$$$
4NXU_ADP_A_501


 34 36  0  0  0  0  0  0  0  0999 V2000
   -3.5752  -32.9641   -9.6491 C   0  0  0  0  0  0  0  0  0  0  0  0
   -4.5192  -32.1103  -10.3023 O   0  0  0  0  0  0  0  0  0  0  0  0
   -2.2100  -32.5866  -10.1504 C   0  0  0  0  0  0  0  0  0  0  0  0
   -1.7518  -33.6003  -11.0338 O   0  0  0  0  0  0  0  0  0  0  0  0
   -2.3949  -31.2306  -10.8057 C   0  0  0  0  0  0  0  0  0  0  0  0
   -1.5412  -30.9885  -11.9124 O   0  0  0  0  0  0  0  0  0  0  0  0
   -3.8616  -31.2292  -11.2183 C   0  0  0  0  0  0  0  0  0  0  0  0
   -2.3929  -33.7169  -11.7524 H   0  0  0  0  0  0  0  0  0  0  0  0
   -1.6993  -31.6588  -12.5955 H   0  0  0  0  0  0  0  0  0  0  0  0
   -4.5064  -29.8767  -11.1894 N   0  0  0  0  0  0  0  0  0  0  0  0
   -5.3214  -29.3815  -10.2309 C   0  0  0  0  0  0  0  0  0  0  0  0
   -5.7245  -28.1174  -10.5358 N   0  0  0  0  0  0  0  0  0  0  0  0
   -5.1779  -27.7721  -11.7043 C   0  0  0  0  0  0  0  0  0  0  0  0
   -5.2023  -26.5791  -12.5789 C   0  0  0  0  0  0  0  0  0  0  0  0
   -5.9102  -25.4783  -12.2522 N   0  0  0  0  0  0  0  0  0  0  0  0
   -4.4686  -26.6561  -13.7271 N   0  0  0  0  0  0  0  0  0  0  0  0
   -3.7576  -27.7668  -14.0481 C   0  0  0  0  0  0  0  0  0  0  0  0
   -3.6997  -28.8744  -13.2921 N   0  0  0  0  0  0  0  0  0  0  0  0
   -4.3747  -28.9344  -12.1322 C   0  0  0  0  0  0  0  0  0  0  0  0
   -6.4287  -25.4568  -11.4156 H   0  0  0  0  0  0  0  0  0  0  0  0
   -5.9084  -24.6964  -12.8504 H   0  0  0  0  0  0  0  0  0  0  0  0
   -3.6643  -32.7585   -8.1617 C   0  0  0  0  0  0  0  0  0  0  0  0
   -2.5068  -33.3039   -7.5604 O   0  0  0  0  0  0  0  0  0  0  0  0
   -2.5226  -34.7767   -6.9021 P   0  0  0  0  0  0  0  0  0  0  0  0
   -3.9513  -35.0793   -6.5219 O   0  0  0  0  0  0  0  0  0  0  0  0
   -1.4057  -34.8182   -5.8902 O   0  0  0  0  0  0  0  0  0  0  0  0
   -1.3821  -35.6923   -5.4702 H   0  0  0  0  0  0  0  0  0  0  0  0
   -2.0984  -35.6304   -8.2085 O   0  0  0  0  0  0  0  0  0  0  0  0
   -0.5745  -35.9291   -8.6579 P   0  0  0  0  0  0  0  0  0  0  0  0
   -0.6666  -36.3978  -10.0858 O   0  0  0  0  0  0  0  0  0  0  0  0
    0.0924  -34.5860   -8.4819 O   0  0  0  0  0  0  0  0  0  0  0  0
   -0.0995  -36.9919   -7.7000 O   0  0  0  0  0  0  0  0  0  0  0  0
    1.0279  -34.6547   -8.7288 H   0  0  0  0  0  0  0  0  0  0  0  0
    0.8183  -37.2275   -7.9076 H   0  0  0  0  0  0  0  0  0  0  0  0
 29 30  2  0  0  0
 29 31  1  0  0  0
 29 32  1  0  0  0
 29 28  1  0  0  0
 24 25  2  0  0  0
 24 26  1  0  0  0
 24 28  1  0  0  0
 24 23  1  0  0  0
 23 22  1  0  0  0
 22  1  1  0  0  0
  1  2  1  0  0  0
  1  3  1  0  0  0
  2  7  1  0  0  0
  3  4  1  0  0  0
  3  5  1  0  0  0
  5  6  1  0  0  0
  5  7  1  0  0  0
  7 10  1  0  0  0
 10 11  1  0  0  0
 10 19  1  0  0  0
 11 12  2  0  0  0
 12 13  1  0  0  0
 13 14  1  0  0  0
 13 19  2  0  0  0
 14 15  1  0  0  0
 14 16  2  0  0  0
 16 17  1  0  0  0
 17 18  2  0  0  0
 18 19  1  0  0  0
 31 33  1  0  0  0
 32 34  1  0  0  0
 26 27  1  0  0  0
  4  8  1  0  0  0
  6  9  1  0  0  0
 15 20  1  0  0  0
 15 21  1  0  0  0
M  END
> <minimizedAffinity>
-7.79368

$$$$
4NXU_ADP_A_501


 34 36  0  0  0  0  0  0  0  0999 V2000
   -4.8309  -33.5259   -5.8820 C   0  0  0  0  0  0  0  0  0  0  0  0
   -4.6777  -32.5858   -6.9495 O   0  0  0  0  0  0  0  0  0  0  0  0
   -6.0861  -33.1602   -5.1415 C   0  0  0  0  0  0  0  0  0  0  0  0
   -5.7280  -32.5738   -3.8982 O   0  0  0  0  0  0  0  0  0  0  0  0
   -6.8331  -32.2261   -6.0751 C   0  0  0  0  0  0  0  0  0  0  0  0
   -7.6001  -31.2276   -5.4217 O   0  0  0  0  0  0  0  0  0  0  0  0
   -5.7292  -31.6155   -6.9295 C   0  0  0  0  0  0  0  0  0  0  0  0
   -5.1525  -31.8089   -4.0553 H   0  0  0  0  0  0  0  0  0  0  0  0
   -7.0168  -30.6777   -4.8754 H   0  0  0  0  0  0  0  0  0  0  0  0
   -6.1501  -31.2790   -8.3279 N   0  0  0  0  0  0  0  0  0  0  0  0
   -6.7703  -32.0929   -9.2118 C   0  0  0  0  0  0  0  0  0  0  0  0
   -6.9991  -31.4520  -10.3908 N   0  0  0  0  0  0  0  0  0  0  0  0
   -6.5254  -30.2073  -10.2917 C   0  0  0  0  0  0  0  0  0  0  0  0
   -6.4518  -29.0236  -11.1760 C   0  0  0  0  0  0  0  0  0  0  0  0
   -6.9443  -29.0483  -12.4316 N   0  0  0  0  0  0  0  0  0  0  0  0
   -5.8627  -27.9110  -10.6491 N   0  0  0  0  0  0  0  0  0  0  0  0
   -5.3709  -27.8934   -9.3841 C   0  0  0  0  0  0  0  0  0  0  0  0
   -5.4122  -28.9365   -8.5403 N   0  0  0  0  0  0  0  0  0  0  0  0
   -5.9668  -30.0964   -8.9298 C   0  0  0  0  0  0  0  0  0  0  0  0
   -7.3631  -29.8684  -12.7800 H   0  0  0  0  0  0  0  0  0  0  0  0
   -6.8849  -28.2464  -12.9995 H   0  0  0  0  0  0  0  0  0  0  0  0
   -4.9427  -34.9130   -6.4528 C   0  0  0  0  0  0  0  0  0  0  0  0
   -4.6174  -34.8631   -7.8277 O   0  0  0  0  0  0  0  0  0  0  0  0
   -3.3015  -35.5990   -8.4020 P   0  0  0  0  0  0  0  0  0  0  0  0
   -3.5809  -35.9507   -9.8427 O   0  0  0  0  0  0  0  0  0  0  0  0
   -2.9064  -36.6456   -7.3913 O   0  0  0  0  0  0  0  0  0  0  0  0
   -2.1149  -37.1126   -7.7018 H   0  0  0  0  0  0  0  0  0  0  0  0
   -2.2723  -34.3542   -8.3193 O   0  0  0  0  0  0  0  0  0  0  0  0
   -0.9374  -34.3225   -7.4080 P   0  0  0  0  0  0  0  0  0  0  0  0
   -0.0165  -35.3458   -8.0178 O   0  0  0  0  0  0  0  0  0  0  0  0
   -0.4701  -32.8942   -7.5541 O   0  0  0  0  0  0  0  0  0  0  0  0
   -1.4155  -34.6844   -6.0249 O   0  0  0  0  0  0  0  0  0  0  0  0
    0.3403  -32.7647   -7.0370 H   0  0  0  0  0  0  0  0  0  0  0  0
   -0.6629  -34.6866   -5.4129 H   0  0  0  0  0  0  0  0  0  0  0  0
 29 30  2  0  0  0
 29 31  1  0  0  0
 29 32  1  0  0  0
 29 28  1  0  0  0
 24 25  2  0  0  0
 24 26  1  0  0  0
 24 28  1  0  0  0
 24 23  1  0  0  0
 23 22  1  0  0  0
 22  1  1  0  0  0
  1  2  1  0  0  0
  1  3  1  0  0  0
  2  7  1  0  0  0
  3  4  1  0  0  0
  3  5  1  0  0  0
  5  6  1  0  0  0
  5  7  1  0  0  0
  7 10  1  0  0  0
 10 11  1  0  0  0
 10 19  1  0  0  0
 11 12  2  0  0  0
 12 13  1  0  0  0
 13 14  1  0  0  0
 13 19  2  0  0  0
 14 15  1  0  0  0
 14 16  2  0  0  0
 16 17  1  0  0  0
 17 18  2  0  0  0
 18 19  1  0  0  0
 31 33  1  0  0  0
 32 34  1  0  0  0
 26 27  1  0  0  0
  4  8  1  0  0  0
  6  9  1  0  0  0
 15 20  1  0  0  0
 15 21  1  0  0  0
M  END
> <minimizedAffinity>
-7.79158

$$$$
4NXU_ADP_A_501


 34 36  0  0  0  0  0  0  0  0999 V2000
   -2.3114  -34.6524  -10.3217 C   0  0  0  0  0  0  0  0  0  0  0  0
   -3.2459  -34.9155   -9.2708 O   0  0  0  0  0  0  0  0  0  0  0  0
   -1.8523  -33.2303  -10.1655 C   0  0  0  0  0  0  0  0  0  0  0  0
   -2.4498  -32.4432  -11.1860 O   0  0  0  0  0  0  0  0  0  0  0  0
   -2.2646  -32.8382   -8.7590 C   0  0  0  0  0  0  0  0  0  0  0  0
   -2.6077  -31.4706   -8.6040 O   0  0  0  0  0  0  0  0  0  0  0  0
   -3.4495  -33.7501   -8.4657 C   0  0  0  0  0  0  0  0  0  0  0  0
   -3.4147  -32.5300  -11.1381 H   0  0  0  0  0  0  0  0  0  0  0  0
   -3.3508  -31.2553   -9.1890 H   0  0  0  0  0  0  0  0  0  0  0  0
   -3.5867  -34.1343   -7.0237 N   0  0  0  0  0  0  0  0  0  0  0  0
   -2.8025  -34.9888   -6.3286 C   0  0  0  0  0  0  0  0  0  0  0  0
   -3.2234  -35.1010   -5.0388 N   0  0  0  0  0  0  0  0  0  0  0  0
   -4.2948  -34.3204   -4.8767 C   0  0  0  0  0  0  0  0  0  0  0  0
   -5.2090  -33.9867   -3.7625 C   0  0  0  0  0  0  0  0  0  0  0  0
   -5.0534  -34.5257   -2.5357 N   0  0  0  0  0  0  0  0  0  0  0  0
   -6.2111  -33.1047   -4.0460 N   0  0  0  0  0  0  0  0  0  0  0  0
   -6.3601  -32.5654   -5.2827 C   0  0  0  0  0  0  0  0  0  0  0  0
   -5.5604  -32.8319   -6.3272 N   0  0  0  0  0  0  0  0  0  0  0  0
   -4.5312  -33.6839   -6.1874 C   0  0  0  0  0  0  0  0  0  0  0  0
   -4.3191  -35.1592   -2.3659 H   0  0  0  0  0  0  0  0  0  0  0  0
   -5.6742  -34.2857   -1.8103 H   0  0  0  0  0  0  0  0  0  0  0  0
   -1.1471  -35.5969  -10.2001 C   0  0  0  0  0  0  0  0  0  0  0  0
   -1.0623  -36.3639  -11.3847 O   0  0  0  0  0  0  0  0  0  0  0  0
   -0.1900  -35.8606  -12.6451 P   0  0  0  0  0  0  0  0  0  0  0  0
    0.5545  -37.0598  -13.1788 O   0  0  0  0  0  0  0  0  0  0  0  0
    0.5287  -34.6084  -12.2106 O   0  0  0  0  0  0  0  0  0  0  0  0
    1.0668  -34.2732  -12.9447 H   0  0  0  0  0  0  0  0  0  0  0  0
   -1.4041  -35.4680  -13.6386 O   0  0  0  0  0  0  0  0  0  0  0  0
   -2.5673  -36.4838  -14.1168 P   0  0  0  0  0  0  0  0  0  0  0  0
   -3.0619  -35.9318  -15.4274 O   0  0  0  0  0  0  0  0  0  0  0  0
   -1.8338  -37.7988  -14.2285 O   0  0  0  0  0  0  0  0  0  0  0  0
   -3.5915  -36.4324  -13.0117 O   0  0  0  0  0  0  0  0  0  0  0  0
   -2.4512  -38.4901  -14.5144 H   0  0  0  0  0  0  0  0  0  0  0  0
   -4.3301  -37.0230  -13.2277 H   0  0  0  0  0  0  0  0  0  0  0  0
 29 30  2  0  0  0
 29 31  1  0  0  0
 29 32  1  0  0  0
 29 28  1  0  0  0
 24 25  2  0  0  0
 24 26  1  0  0  0
 24 28  1  0  0  0
 24 23  1  0  0  0
 23 22  1  0  0  0
 22  1  1  0  0  0
  1  2  1  0  0  0
  1  3  1  0  0  0
  2  7  1  0  0  0
  3  4  1  0  0  0
  3  5  1  0  0  0
  5  6  1  0  0  0
  5  7  1  0  0  0
  7 10  1  0  0  0
 10 11  1  0  0  0
 10 19  1  0  0  0
 11 12  2  0  0  0
 12 13  1  0  0  0
 13 14  1  0  0  0
 13 19  2  0  0  0
 14 15  1  0  0  0
 14 16  2  0  0  0
 16 17  1  0  0  0
 17 18  2  0  0  0
 18 19  1  0  0  0
 31 33  1  0  0  0
 32 34  1  0  0  0
 26 27  1  0  0  0
  4  8  1  0  0  0
  6  9  1  0  0  0
 15 20  1  0  0  0
 15 21  1  0  0  0
M  END
> <minimizedAffinity>
-7.74229

$$$$
