3HL5_9JZ_A_1


 40 43  0  0  0  0  0  0  0  0999 V2000
    9.2242   12.6037  -19.7693 O   0  0  0  0  0  0  0  0  0  0  0  0
    8.6346   12.5935  -20.8438 C   0  0  0  0  0  0  0  0  0  0  0  0
    7.9788   11.5217  -21.3148 N   0  0  0  0  0  0  0  0  0  0  0  0
    7.2429   11.4280  -22.5838 C   0  0  0  0  0  0  0  0  0  0  0  0
    6.3859   10.1810  -22.4329 C   0  0  0  0  0  0  0  0  0  0  0  0
    7.2044    9.3052  -21.5173 C   0  0  0  0  0  0  0  0  0  0  0  0
    6.3985    8.2163  -20.8186 C   0  0  0  0  0  0  0  0  0  0  0  0
    7.9083   10.2648  -20.5607 C   0  0  0  0  0  0  0  0  0  0  0  0
    9.2293    9.6278  -20.2533 C   0  0  0  0  0  0  0  0  0  0  0  0
    9.9379    9.2848  -21.1860 O   0  0  0  0  0  0  0  0  0  0  0  0
    9.5626    9.4792  -18.9621 N   0  0  0  0  0  0  0  0  0  0  0  0
    8.9158    9.7562  -18.2735 H   0  0  0  0  0  0  0  0  0  0  0  0
   10.7944    8.9456  -18.5515 C   0  0  0  0  0  0  0  0  0  0  0  0
   11.9628    9.7170  -18.5582 C   0  0  0  0  0  0  0  0  0  0  0  0
   13.1669    9.1797  -18.1131 C   0  0  0  0  0  0  0  0  0  0  0  0
   13.2157    7.8666  -17.6518 C   0  0  0  0  0  0  0  0  0  0  0  0
   12.0552    7.0982  -17.6285 C   0  0  0  0  0  0  0  0  0  0  0  0
   10.8410    7.6321  -18.0730 C   0  0  0  0  0  0  0  0  0  0  0  0
    9.6349    6.7521  -18.0391 C   0  0  0  0  0  0  0  0  0  0  0  0
    9.0787    6.4255  -16.8422 N   0  0  0  0  0  0  0  0  0  0  0  0
    8.0035    5.6249  -16.7772 C   0  0  0  0  0  0  0  0  0  0  0  0
    7.4555    5.1099  -17.9485 C   0  0  0  0  0  0  0  0  0  0  0  0
    8.0387    5.4444  -19.1694 C   0  0  0  0  0  0  0  0  0  0  0  0
    9.1144    6.2497  -19.1905 N   0  0  0  0  0  0  0  0  0  0  0  0
    8.6490   13.8251  -21.7117 C   0  0  0  0  0  0  0  0  0  0  0  0
    9.7044   13.6487  -22.8234 C   0  0  0  0  0  0  0  0  0  0  0  0
   10.8976   12.7546  -22.4442 C   0  0  0  0  0  0  0  0  0  0  0  0
   11.8424   12.5362  -23.6319 C   0  0  0  0  0  0  0  0  0  0  0  0
   12.2756   13.8581  -24.2718 C   0  0  0  0  0  0  0  0  0  0  0  0
   11.0680   14.7277  -24.6337 C   0  0  0  0  0  0  0  0  0  0  0  0
   10.1872   14.9788  -23.4112 C   0  0  0  0  0  0  0  0  0  0  0  0
    8.9566   15.0279  -20.9433 N   0  0  0  0  0  0  0  0  0  0  0  0
    8.0124   15.8142  -20.4290 C   0  0  0  0  0  0  0  0  0  0  0  0
    6.8102   15.6245  -20.5744 O   0  0  0  0  0  0  0  0  0  0  0  0
    9.9006   15.2676  -20.7993 H   0  0  0  0  0  0  0  0  0  0  0  0
    8.5034   17.0073  -19.6638 C   0  0  0  0  0  0  0  0  0  0  0  0
    8.1275   16.8563  -18.1927 C   0  0  0  0  0  0  0  0  0  0  0  0
    7.9774   18.2467  -20.2186 N   0  0  0  0  0  0  0  0  0  0  0  0
    8.1193   18.5025  -21.6418 C   0  0  0  0  0  0  0  0  0  0  0  0
    8.4418   19.0124  -19.7304 H   0  0  0  0  0  0  0  0  0  0  0  0
  1  2  2  0  0  0
  2 25  1  0  0  0
  2  3  1  0  0  0
 25 26  1  0  0  0
 25 32  1  0  0  0
 26 27  1  0  0  0
 26 31  1  0  0  0
 27 28  1  0  0  0
 28 29  1  0  0  0
 29 30  1  0  0  0
 30 31  1  0  0  0
 32 33  1  0  0  0
 33 34  2  0  0  0
 33 36  1  0  0  0
 36 37  1  0  0  0
 36 38  1  0  0  0
 38 39  1  0  0  0
  3  4  1  0  0  0
  3  8  1  0  0  0
  4  5  1  0  0  0
  5  6  1  0  0  0
  6  7  1  0  0  0
  6  8  1  0  0  0
  8  9  1  0  0  0
  9 10  2  0  0  0
  9 11  1  0  0  0
 11 13  1  0  0  0
 13 14  2  0  0  0
 13 18  1  0  0  0
 14 15  1  0  0  0
 15 16  2  0  0  0
 16 17  1  0  0  0
 17 18  2  0  0  0
 18 19  1  0  0  0
 19 20  2  0  0  0
 19 24  1  0  0  0
 20 21  1  0  0  0
 21 22  2  0  0  0
 22 23  1  0  0  0
 23 24  2  0  0  0
 32 35  1  0  0  0
 38 40  1  0  0  0
 11 12  1  0  0  0
M  END
> <minimizedAffinity>
-7.58572

$$$$
3HL5_9JZ_A_1


 40 43  0  0  0  0  0  0  0  0999 V2000
   10.1392   12.4617  -20.4677 O   0  0  0  0  0  0  0  0  0  0  0  0
    8.9704   12.4562  -20.8369 C   0  0  0  0  0  0  0  0  0  0  0  0
    8.1988   11.3585  -20.8259 N   0  0  0  0  0  0  0  0  0  0  0  0
    6.7921   11.2675  -21.2426 C   0  0  0  0  0  0  0  0  0  0  0  0
    6.3102    9.9475  -20.6619 C   0  0  0  0  0  0  0  0  0  0  0  0
    7.5567    9.0981  -20.6476 C   0  0  0  0  0  0  0  0  0  0  0  0
    7.4867    7.9120  -19.6928 C   0  0  0  0  0  0  0  0  0  0  0  0
    8.7020   10.0638  -20.3526 C   0  0  0  0  0  0  0  0  0  0  0  0
    9.8839    9.5247  -21.0993 C   0  0  0  0  0  0  0  0  0  0  0  0
    9.6873    8.9513  -22.1587 O   0  0  0  0  0  0  0  0  0  0  0  0
   11.0984    9.7131  -20.5610 N   0  0  0  0  0  0  0  0  0  0  0  0
   11.1619   10.1596  -19.6859 H   0  0  0  0  0  0  0  0  0  0  0  0
   12.2823    9.3007  -21.1926 C   0  0  0  0  0  0  0  0  0  0  0  0
   12.4429    9.4011  -22.5799 C   0  0  0  0  0  0  0  0  0  0  0  0
   13.6380    9.0201  -23.1823 C   0  0  0  0  0  0  0  0  0  0  0  0
   14.6881    8.5388  -22.4043 C   0  0  0  0  0  0  0  0  0  0  0  0
   14.5410    8.4499  -21.0230 C   0  0  0  0  0  0  0  0  0  0  0  0
   13.3430    8.8323  -20.4102 C   0  0  0  0  0  0  0  0  0  0  0  0
   13.2410    8.6973  -18.9265 C   0  0  0  0  0  0  0  0  0  0  0  0
   13.3659    7.4692  -18.3565 N   0  0  0  0  0  0  0  0  0  0  0  0
   13.2644    7.3126  -17.0274 C   0  0  0  0  0  0  0  0  0  0  0  0
   13.0154    8.4186  -16.2198 C   0  0  0  0  0  0  0  0  0  0  0  0
   12.8808    9.6715  -16.8153 C   0  0  0  0  0  0  0  0  0  0  0  0
   12.9898    9.7850  -18.1501 N   0  0  0  0  0  0  0  0  0  0  0  0
    8.3487   13.7268  -21.3561 C   0  0  0  0  0  0  0  0  0  0  0  0
    8.7242   13.9037  -22.8422 C   0  0  0  0  0  0  0  0  0  0  0  0
    9.8999   14.8615  -23.1010 C   0  0  0  0  0  0  0  0  0  0  0  0
   10.2854   14.8981  -24.5847 C   0  0  0  0  0  0  0  0  0  0  0  0
    9.0803   15.1867  -25.4842 C   0  0  0  0  0  0  0  0  0  0  0  0
    7.9255   14.2215  -25.2006 C   0  0  0  0  0  0  0  0  0  0  0  0
    7.5258   14.2628  -23.7269 C   0  0  0  0  0  0  0  0  0  0  0  0
    8.7950   14.8967  -20.6049 N   0  0  0  0  0  0  0  0  0  0  0  0
    7.9596   15.8485  -20.1923 C   0  0  0  0  0  0  0  0  0  0  0  0
    6.7563   15.8508  -20.4259 O   0  0  0  0  0  0  0  0  0  0  0  0
    9.7527   14.9856  -20.3948 H   0  0  0  0  0  0  0  0  0  0  0  0
    8.5849   16.9787  -19.4297 C   0  0  0  0  0  0  0  0  0  0  0  0
    8.1001   16.9442  -17.9833 C   0  0  0  0  0  0  0  0  0  0  0  0
    8.2964   18.2629  -20.0526 N   0  0  0  0  0  0  0  0  0  0  0  0
    8.3172   18.3683  -21.5016 C   0  0  0  0  0  0  0  0  0  0  0  0
    8.9822   18.9281  -19.6956 H   0  0  0  0  0  0  0  0  0  0  0  0
  1  2  2  0  0  0
  2 25  1  0  0  0
  2  3  1  0  0  0
 25 26  1  0  0  0
 25 32  1  0  0  0
 26 27  1  0  0  0
 26 31  1  0  0  0
 27 28  1  0  0  0
 28 29  1  0  0  0
 29 30  1  0  0  0
 30 31  1  0  0  0
 32 33  1  0  0  0
 33 34  2  0  0  0
 33 36  1  0  0  0
 36 37  1  0  0  0
 36 38  1  0  0  0
 38 39  1  0  0  0
  3  4  1  0  0  0
  3  8  1  0  0  0
  4  5  1  0  0  0
  5  6  1  0  0  0
  6  7  1  0  0  0
  6  8  1  0  0  0
  8  9  1  0  0  0
  9 10  2  0  0  0
  9 11  1  0  0  0
 11 13  1  0  0  0
 13 14  2  0  0  0
 13 18  1  0  0  0
 14 15  1  0  0  0
 15 16  2  0  0  0
 16 17  1  0  0  0
 17 18  2  0  0  0
 18 19  1  0  0  0
 19 20  2  0  0  0
 19 24  1  0  0  0
 20 21  1  0  0  0
 21 22  2  0  0  0
 22 23  1  0  0  0
 23 24  2  0  0  0
 32 35  1  0  0  0
 38 40  1  0  0  0
 11 12  1  0  0  0
M  END
> <minimizedAffinity>
-6.98275

$$$$
3HL5_9JZ_A_1


 40 43  0  0  0  0  0  0  0  0999 V2000
    8.5583   12.7803  -20.8423 O   0  0  0  0  0  0  0  0  0  0  0  0
    9.0999   11.9310  -21.5407 C   0  0  0  0  0  0  0  0  0  0  0  0
    9.7848   12.2220  -22.6574 N   0  0  0  0  0  0  0  0  0  0  0  0
   10.4677   11.2691  -23.5441 C   0  0  0  0  0  0  0  0  0  0  0  0
   11.3891   12.1335  -24.3902 C   0  0  0  0  0  0  0  0  0  0  0  0
   10.6546   13.4484  -24.4720 C   0  0  0  0  0  0  0  0  0  0  0  0
   11.5416   14.6310  -24.8435 C   0  0  0  0  0  0  0  0  0  0  0  0
    9.9484   13.6026  -23.1270 C   0  0  0  0  0  0  0  0  0  0  0  0
    8.6742   14.3328  -23.4242 C   0  0  0  0  0  0  0  0  0  0  0  0
    7.7799   13.7288  -23.9943 O   0  0  0  0  0  0  0  0  0  0  0  0
    8.5865   15.6140  -23.0354 N   0  0  0  0  0  0  0  0  0  0  0  0
    9.3693   16.0318  -22.6090 H   0  0  0  0  0  0  0  0  0  0  0  0
    7.4259   16.3840  -23.2109 C   0  0  0  0  0  0  0  0  0  0  0  0
    6.8473   16.5552  -24.4743 C   0  0  0  0  0  0  0  0  0  0  0  0
    5.6765   17.2927  -24.6213 C   0  0  0  0  0  0  0  0  0  0  0  0
    5.0679   17.8637  -23.5064 C   0  0  0  0  0  0  0  0  0  0  0  0
    5.6293   17.6856  -22.2451 C   0  0  0  0  0  0  0  0  0  0  0  0
    6.8054   16.9443  -22.0894 C   0  0  0  0  0  0  0  0  0  0  0  0
    7.3675   16.8036  -20.7131 C   0  0  0  0  0  0  0  0  0  0  0  0
    8.0825   17.8272  -20.1747 N   0  0  0  0  0  0  0  0  0  0  0  0
    8.6132   17.7260  -18.9462 C   0  0  0  0  0  0  0  0  0  0  0  0
    8.4419   16.5537  -18.2154 C   0  0  0  0  0  0  0  0  0  0  0  0
    7.7145   15.5077  -18.7802 C   0  0  0  0  0  0  0  0  0  0  0  0
    7.1992   15.6499  -20.0133 N   0  0  0  0  0  0  0  0  0  0  0  0
    8.9883   10.4765  -21.1635 C   0  0  0  0  0  0  0  0  0  0  0  0
    7.4972   10.0925  -21.0631 C   0  0  0  0  0  0  0  0  0  0  0  0
    6.9651    9.9420  -19.6275 C   0  0  0  0  0  0  0  0  0  0  0  0
    5.4558    9.6717  -19.6078 C   0  0  0  0  0  0  0  0  0  0  0  0
    5.0718    8.4926  -20.5060 C   0  0  0  0  0  0  0  0  0  0  0  0
    5.6188    8.6683  -21.9256 C   0  0  0  0  0  0  0  0  0  0  0  0
    7.1332    8.8678  -21.9089 C   0  0  0  0  0  0  0  0  0  0  0  0
    9.6445   10.1933  -19.8903 N   0  0  0  0  0  0  0  0  0  0  0  0
   10.8956    9.7432  -19.8101 C   0  0  0  0  0  0  0  0  0  0  0  0
   11.5978    9.4972  -20.7841 O   0  0  0  0  0  0  0  0  0  0  0  0
    9.1417   10.3412  -19.0569 H   0  0  0  0  0  0  0  0  0  0  0  0
   11.4161    9.5086  -18.4230 C   0  0  0  0  0  0  0  0  0  0  0  0
   12.9374    9.3990  -18.4637 C   0  0  0  0  0  0  0  0  0  0  0  0
   10.8173    8.3236  -17.8249 N   0  0  0  0  0  0  0  0  0  0  0  0
   11.6610    7.1813  -17.5180 C   0  0  0  0  0  0  0  0  0  0  0  0
   10.0961    7.9971  -18.4682 H   0  0  0  0  0  0  0  0  0  0  0  0
  1  2  2  0  0  0
  2 25  1  0  0  0
  2  3  1  0  0  0
 25 26  1  0  0  0
 25 32  1  0  0  0
 26 27  1  0  0  0
 26 31  1  0  0  0
 27 28  1  0  0  0
 28 29  1  0  0  0
 29 30  1  0  0  0
 30 31  1  0  0  0
 32 33  1  0  0  0
 33 34  2  0  0  0
 33 36  1  0  0  0
 36 37  1  0  0  0
 36 38  1  0  0  0
 38 39  1  0  0  0
  3  4  1  0  0  0
  3  8  1  0  0  0
  4  5  1  0  0  0
  5  6  1  0  0  0
  6  7  1  0  0  0
  6  8  1  0  0  0
  8  9  1  0  0  0
  9 10  2  0  0  0
  9 11  1  0  0  0
 11 13  1  0  0  0
 13 14  2  0  0  0
 13 18  1  0  0  0
 14 15  1  0  0  0
 15 16  2  0  0  0
 16 17  1  0  0  0
 17 18  2  0  0  0
 18 19  1  0  0  0
 19 20  2  0  0  0
 19 24  1  0  0  0
 20 21  1  0  0  0
 21 22  2  0  0  0
 22 23  1  0  0  0
 23 24  2  0  0  0
 32 35  1  0  0  0
 38 40  1  0  0  0
 11 12  1  0  0  0
M  END
> <minimizedAffinity>
-6.75228

$$$$
3HL5_9JZ_A_1


 40 43  0  0  0  0  0  0  0  0999 V2000
    7.2187   13.0286  -20.5833 O   0  0  0  0  0  0  0  0  0  0  0  0
    7.2359   12.6832  -21.7592 C   0  0  0  0  0  0  0  0  0  0  0  0
    6.9018   11.4504  -22.1706 N   0  0  0  0  0  0  0  0  0  0  0  0
    6.8882   10.9585  -23.5557 C   0  0  0  0  0  0  0  0  0  0  0  0
    6.0728    9.6765  -23.4938 C   0  0  0  0  0  0  0  0  0  0  0  0
    6.3362    9.1637  -22.0998 C   0  0  0  0  0  0  0  0  0  0  0  0
    5.2945    8.1704  -21.5985 C   0  0  0  0  0  0  0  0  0  0  0  0
    6.4730   10.4101  -21.2285 C   0  0  0  0  0  0  0  0  0  0  0  0
    7.4727   10.0527  -20.1711 C   0  0  0  0  0  0  0  0  0  0  0  0
    7.1223   10.1001  -19.0030 O   0  0  0  0  0  0  0  0  0  0  0  0
    8.7003    9.6898  -20.5732 N   0  0  0  0  0  0  0  0  0  0  0  0
    8.9062    9.7099  -21.5357 H   0  0  0  0  0  0  0  0  0  0  0  0
    9.7037    9.2828  -19.6797 C   0  0  0  0  0  0  0  0  0  0  0  0
   10.6765   10.1774  -19.2175 C   0  0  0  0  0  0  0  0  0  0  0  0
   11.6409    9.7627  -18.3041 C   0  0  0  0  0  0  0  0  0  0  0  0
   11.6411    8.4501  -17.8387 C   0  0  0  0  0  0  0  0  0  0  0  0
   10.6682    7.5589  -18.2825 C   0  0  0  0  0  0  0  0  0  0  0  0
    9.6947    7.9690  -19.1996 C   0  0  0  0  0  0  0  0  0  0  0  0
    8.6888    6.9617  -19.6505 C   0  0  0  0  0  0  0  0  0  0  0  0
    8.7742    6.4467  -20.9059 N   0  0  0  0  0  0  0  0  0  0  0  0
    7.8770    5.5509  -21.3461 C   0  0  0  0  0  0  0  0  0  0  0  0
    6.8362    5.1508  -20.5129 C   0  0  0  0  0  0  0  0  0  0  0  0
    6.7533    5.6914  -19.2310 C   0  0  0  0  0  0  0  0  0  0  0  0
    7.6726    6.5856  -18.8290 N   0  0  0  0  0  0  0  0  0  0  0  0
    7.6722   13.6645  -22.8161 C   0  0  0  0  0  0  0  0  0  0  0  0
    9.1122   13.3274  -23.2564 C   0  0  0  0  0  0  0  0  0  0  0  0
   10.2147   14.0600  -22.4725 C   0  0  0  0  0  0  0  0  0  0  0  0
   11.6137   13.5905  -22.8888 C   0  0  0  0  0  0  0  0  0  0  0  0
   11.8177   13.6666  -24.4044 C   0  0  0  0  0  0  0  0  0  0  0  0
   10.7036   12.9333  -25.1572 C   0  0  0  0  0  0  0  0  0  0  0  0
    9.3296   13.4743  -24.7660 C   0  0  0  0  0  0  0  0  0  0  0  0
    7.6275   15.0410  -22.3313 N   0  0  0  0  0  0  0  0  0  0  0  0
    7.0389   16.0242  -23.0104 C   0  0  0  0  0  0  0  0  0  0  0  0
    6.5115   15.8777  -24.1072 O   0  0  0  0  0  0  0  0  0  0  0  0
    8.0497   15.2511  -21.4671 H   0  0  0  0  0  0  0  0  0  0  0  0
    7.0814   17.3779  -22.3656 C   0  0  0  0  0  0  0  0  0  0  0  0
    8.2193   17.4206  -21.3499 C   0  0  0  0  0  0  0  0  0  0  0  0
    5.8068   17.7101  -21.7447 N   0  0  0  0  0  0  0  0  0  0  0  0
    4.9479   18.6984  -22.3744 C   0  0  0  0  0  0  0  0  0  0  0  0
    6.0125   18.0494  -20.8050 H   0  0  0  0  0  0  0  0  0  0  0  0
  1  2  2  0  0  0
  2 25  1  0  0  0
  2  3  1  0  0  0
 25 26  1  0  0  0
 25 32  1  0  0  0
 26 27  1  0  0  0
 26 31  1  0  0  0
 27 28  1  0  0  0
 28 29  1  0  0  0
 29 30  1  0  0  0
 30 31  1  0  0  0
 32 33  1  0  0  0
 33 34  2  0  0  0
 33 36  1  0  0  0
 36 37  1  0  0  0
 36 38  1  0  0  0
 38 39  1  0  0  0
  3  4  1  0  0  0
  3  8  1  0  0  0
  4  5  1  0  0  0
  5  6  1  0  0  0
  6  7  1  0  0  0
  6  8  1  0  0  0
  8  9  1  0  0  0
  9 10  2  0  0  0
  9 11  1  0  0  0
 11 13  1  0  0  0
 13 14  2  0  0  0
 13 18  1  0  0  0
 14 15  1  0  0  0
 15 16  2  0  0  0
 16 17  1  0  0  0
 17 18  2  0  0  0
 18 19  1  0  0  0
 19 20  2  0  0  0
 19 24  1  0  0  0
 20 21  1  0  0  0
 21 22  2  0  0  0
 22 23  1  0  0  0
 23 24  2  0  0  0
 32 35  1  0  0  0
 38 40  1  0  0  0
 11 12  1  0  0  0
M  END
> <minimizedAffinity>
-6.00658

$$$$
3HL5_9JZ_A_1


 40 43  0  0  0  0  0  0  0  0999 V2000
    8.7813   12.7348  -19.9155 O   0  0  0  0  0  0  0  0  0  0  0  0
    9.3497   11.7751  -20.4239 C   0  0  0  0  0  0  0  0  0  0  0  0
   10.0832   11.8613  -21.5443 N   0  0  0  0  0  0  0  0  0  0  0  0
   10.8005   10.7661  -22.2128 C   0  0  0  0  0  0  0  0  0  0  0  0
   11.7605   11.4664  -23.1614 C   0  0  0  0  0  0  0  0  0  0  0  0
   11.0347   12.7413  -23.5125 C   0  0  0  0  0  0  0  0  0  0  0  0
   11.9410   13.8406  -24.0543 C   0  0  0  0  0  0  0  0  0  0  0  0
   10.2717   13.1342  -22.2496 C   0  0  0  0  0  0  0  0  0  0  0  0
    9.0140   13.7925  -22.7293 C   0  0  0  0  0  0  0  0  0  0  0  0
    8.1283   13.0870  -23.1848 O   0  0  0  0  0  0  0  0  0  0  0  0
    8.9303   15.1273  -22.6207 N   0  0  0  0  0  0  0  0  0  0  0  0
    9.7062   15.6212  -22.2696 H   0  0  0  0  0  0  0  0  0  0  0  0
    7.7834   15.8495  -22.9865 C   0  0  0  0  0  0  0  0  0  0  0  0
    7.2890   15.8202  -24.2961 C   0  0  0  0  0  0  0  0  0  0  0  0
    6.1300   16.5145  -24.6295 C   0  0  0  0  0  0  0  0  0  0  0  0
    5.4494   17.2422  -23.6566 C   0  0  0  0  0  0  0  0  0  0  0  0
    5.9268   17.2641  -22.3492 C   0  0  0  0  0  0  0  0  0  0  0  0
    7.0905   16.5675  -22.0063 C   0  0  0  0  0  0  0  0  0  0  0  0
    7.5611   16.6440  -20.5911 C   0  0  0  0  0  0  0  0  0  0  0  0
    7.2450   15.6437  -19.7261 N   0  0  0  0  0  0  0  0  0  0  0  0
    7.6403   15.6901  -18.4444 C   0  0  0  0  0  0  0  0  0  0  0  0
    8.3732   16.7819  -17.9880 C   0  0  0  0  0  0  0  0  0  0  0  0
    8.6845   17.8056  -18.8810 C   0  0  0  0  0  0  0  0  0  0  0  0
    8.2697   17.7200  -20.1566 N   0  0  0  0  0  0  0  0  0  0  0  0
    9.2170   10.4129  -19.7937 C   0  0  0  0  0  0  0  0  0  0  0  0
   10.5906    9.7103  -19.8129 C   0  0  0  0  0  0  0  0  0  0  0  0
   10.5410    8.2054  -20.1288 C   0  0  0  0  0  0  0  0  0  0  0  0
   11.9467    7.6032  -20.2412 C   0  0  0  0  0  0  0  0  0  0  0  0
   12.8071    7.9205  -19.0150 C   0  0  0  0  0  0  0  0  0  0  0  0
   12.8335    9.4237  -18.7228 C   0  0  0  0  0  0  0  0  0  0  0  0
   11.4187    9.9736  -18.5509 C   0  0  0  0  0  0  0  0  0  0  0  0
    8.2421    9.5823  -20.4948 N   0  0  0  0  0  0  0  0  0  0  0  0
    6.9698    9.4879  -20.1122 C   0  0  0  0  0  0  0  0  0  0  0  0
    6.5067   10.0568  -19.1302 O   0  0  0  0  0  0  0  0  0  0  0  0
    8.5374    9.0710  -21.2827 H   0  0  0  0  0  0  0  0  0  0  0  0
    6.1028    8.5930  -20.9474 C   0  0  0  0  0  0  0  0  0  0  0  0
    4.7525    8.4100  -20.2609 C   0  0  0  0  0  0  0  0  0  0  0  0
    6.7471    7.3109  -21.1955 N   0  0  0  0  0  0  0  0  0  0  0  0
    6.2007    6.1127  -20.5817 C   0  0  0  0  0  0  0  0  0  0  0  0
    7.7122    7.3956  -20.8764 H   0  0  0  0  0  0  0  0  0  0  0  0
  1  2  2  0  0  0
  2 25  1  0  0  0
  2  3  1  0  0  0
 25 26  1  0  0  0
 25 32  1  0  0  0
 26 27  1  0  0  0
 26 31  1  0  0  0
 27 28  1  0  0  0
 28 29  1  0  0  0
 29 30  1  0  0  0
 30 31  1  0  0  0
 32 33  1  0  0  0
 33 34  2  0  0  0
 33 36  1  0  0  0
 36 37  1  0  0  0
 36 38  1  0  0  0
 38 39  1  0  0  0
  3  4  1  0  0  0
  3  8  1  0  0  0
  4  5  1  0  0  0
  5  6  1  0  0  0
  6  7  1  0  0  0
  6  8  1  0  0  0
  8  9  1  0  0  0
  9 10  2  0  0  0
  9 11  1  0  0  0
 11 13  1  0  0  0
 13 14  2  0  0  0
 13 18  1  0  0  0
 14 15  1  0  0  0
 15 16  2  0  0  0
 16 17  1  0  0  0
 17 18  2  0  0  0
 18 19  1  0  0  0
 19 20  2  0  0  0
 19 24  1  0  0  0
 20 21  1  0  0  0
 21 22  2  0  0  0
 22 23  1  0  0  0
 23 24  2  0  0  0
 32 35  1  0  0  0
 38 40  1  0  0  0
 11 12  1  0  0  0
M  END
> <minimizedAffinity>
-5.99362

$$$$
3HL5_9JZ_A_1


 40 43  0  0  0  0  0  0  0  0999 V2000
    9.3946   13.3274  -23.4676 O   0  0  0  0  0  0  0  0  0  0  0  0
    9.7711   12.1784  -23.2665 C   0  0  0  0  0  0  0  0  0  0  0  0
    9.2278   11.3762  -22.3381 N   0  0  0  0  0  0  0  0  0  0  0  0
    9.6130    9.9896  -22.0391 C   0  0  0  0  0  0  0  0  0  0  0  0
    8.4529    9.4425  -21.2224 C   0  0  0  0  0  0  0  0  0  0  0  0
    7.9233   10.6621  -20.5101 C   0  0  0  0  0  0  0  0  0  0  0  0
    6.4930   10.5118  -20.0052 C   0  0  0  0  0  0  0  0  0  0  0  0
    8.1164   11.8186  -21.4881 C   0  0  0  0  0  0  0  0  0  0  0  0
    8.3994   13.0198  -20.6383 C   0  0  0  0  0  0  0  0  0  0  0  0
    9.3117   12.9555  -19.8300 O   0  0  0  0  0  0  0  0  0  0  0  0
    7.6345   14.1066  -20.8231 N   0  0  0  0  0  0  0  0  0  0  0  0
    6.8992   14.0599  -21.4761 H   0  0  0  0  0  0  0  0  0  0  0  0
    7.8381   15.3073  -20.1250 C   0  0  0  0  0  0  0  0  0  0  0  0
    7.7399   15.3662  -18.7296 C   0  0  0  0  0  0  0  0  0  0  0  0
    7.9808   16.5586  -18.0539 C   0  0  0  0  0  0  0  0  0  0  0  0
    8.3273   17.7048  -18.7650 C   0  0  0  0  0  0  0  0  0  0  0  0
    8.4411   17.6504  -20.1513 C   0  0  0  0  0  0  0  0  0  0  0  0
    8.2017   16.4549  -20.8372 C   0  0  0  0  0  0  0  0  0  0  0  0
    8.3232   16.4651  -22.3256 C   0  0  0  0  0  0  0  0  0  0  0  0
    7.2456   16.1368  -23.0869 N   0  0  0  0  0  0  0  0  0  0  0  0
    7.3267   16.1222  -24.4264 C   0  0  0  0  0  0  0  0  0  0  0  0
    8.5325   16.4345  -25.0478 C   0  0  0  0  0  0  0  0  0  0  0  0
    9.6330   16.7613  -24.2576 C   0  0  0  0  0  0  0  0  0  0  0  0
    9.5093   16.7646  -22.9193 N   0  0  0  0  0  0  0  0  0  0  0  0
   10.9154   11.6193  -24.0718 C   0  0  0  0  0  0  0  0  0  0  0  0
   11.9924   12.7104  -24.2463 C   0  0  0  0  0  0  0  0  0  0  0  0
   12.0139   13.3800  -25.6312 C   0  0  0  0  0  0  0  0  0  0  0  0
   13.0308   14.5261  -25.6910 C   0  0  0  0  0  0  0  0  0  0  0  0
   14.4217   14.0845  -25.2276 C   0  0  0  0  0  0  0  0  0  0  0  0
   14.3679   13.4179  -23.8498 C   0  0  0  0  0  0  0  0  0  0  0  0
   13.3953   12.2400  -23.8482 C   0  0  0  0  0  0  0  0  0  0  0  0
   10.4803   11.1585  -25.3872 N   0  0  0  0  0  0  0  0  0  0  0  0
   10.8128    9.9657  -25.8780 C   0  0  0  0  0  0  0  0  0  0  0  0
   11.5315    9.1621  -25.2947 O   0  0  0  0  0  0  0  0  0  0  0  0
    9.9180   11.7538  -25.9338 H   0  0  0  0  0  0  0  0  0  0  0  0
   10.2772    9.6504  -27.2432 C   0  0  0  0  0  0  0  0  0  0  0  0
    9.7809    8.2078  -27.2728 C   0  0  0  0  0  0  0  0  0  0  0  0
   11.2791    9.8853  -28.2735 N   0  0  0  0  0  0  0  0  0  0  0  0
   10.9362    9.6415  -29.6642 C   0  0  0  0  0  0  0  0  0  0  0  0
   12.0773    9.2893  -28.0544 H   0  0  0  0  0  0  0  0  0  0  0  0
  1  2  2  0  0  0
  2 25  1  0  0  0
  2  3  1  0  0  0
 25 26  1  0  0  0
 25 32  1  0  0  0
 26 27  1  0  0  0
 26 31  1  0  0  0
 27 28  1  0  0  0
 28 29  1  0  0  0
 29 30  1  0  0  0
 30 31  1  0  0  0
 32 33  1  0  0  0
 33 34  2  0  0  0
 33 36  1  0  0  0
 36 37  1  0  0  0
 36 38  1  0  0  0
 38 39  1  0  0  0
  3  4  1  0  0  0
  3  8  1  0  0  0
  4  5  1  0  0  0
  5  6  1  0  0  0
  6  7  1  0  0  0
  6  8  1  0  0  0
  8  9  1  0  0  0
  9 10  2  0  0  0
  9 11  1  0  0  0
 11 13  1  0  0  0
 13 14  2  0  0  0
 13 18  1  0  0  0
 14 15  1  0  0  0
 15 16  2  0  0  0
 16 17  1  0  0  0
 17 18  2  0  0  0
 18 19  1  0  0  0
 19 20  2  0  0  0
 19 24  1  0  0  0
 20 21  1  0  0  0
 21 22  2  0  0  0
 22 23  1  0  0  0
 23 24  2  0  0  0
 32 35  1  0  0  0
 38 40  1  0  0  0
 11 12  1  0  0  0
M  END
> <minimizedAffinity>
-5.87437

$$$$
3HL5_9JZ_A_1


 40 43  0  0  0  0  0  0  0  0999 V2000
    9.8363   11.4921  -20.5322 O   0  0  0  0  0  0  0  0  0  0  0  0
    9.1659   10.7812  -21.2723 C   0  0  0  0  0  0  0  0  0  0  0  0
    8.5488   11.2376  -22.3730 N   0  0  0  0  0  0  0  0  0  0  0  0
    7.7357   10.4546  -23.3145 C   0  0  0  0  0  0  0  0  0  0  0  0
    7.6255   11.3398  -24.5459 C   0  0  0  0  0  0  0  0  0  0  0  0
    7.6926   12.7356  -23.9781 C   0  0  0  0  0  0  0  0  0  0  0  0
    8.0826   13.8003  -24.9968 C   0  0  0  0  0  0  0  0  0  0  0  0
    8.6413   12.6429  -22.7853 C   0  0  0  0  0  0  0  0  0  0  0  0
    8.1303   13.6376  -21.7879 C   0  0  0  0  0  0  0  0  0  0  0  0
    6.9783   13.5291  -21.3998 O   0  0  0  0  0  0  0  0  0  0  0  0
    8.9776   14.5903  -21.3697 N   0  0  0  0  0  0  0  0  0  0  0  0
    9.8810   14.6219  -21.7597 H   0  0  0  0  0  0  0  0  0  0  0  0
    8.6306   15.5438  -20.3996 C   0  0  0  0  0  0  0  0  0  0  0  0
    8.6163   15.2263  -19.0361 C   0  0  0  0  0  0  0  0  0  0  0  0
    8.3043   16.1959  -18.0880 C   0  0  0  0  0  0  0  0  0  0  0  0
    8.0076   17.4953  -18.4918 C   0  0  0  0  0  0  0  0  0  0  0  0
    8.0340   17.8221  -19.8447 C   0  0  0  0  0  0  0  0  0  0  0  0
    8.3481   16.8530  -20.8033 C   0  0  0  0  0  0  0  0  0  0  0  0
    8.3431   17.2614  -22.2397 C   0  0  0  0  0  0  0  0  0  0  0  0
    7.1848   17.6881  -22.8097 N   0  0  0  0  0  0  0  0  0  0  0  0
    7.1441   18.0480  -24.1020 C   0  0  0  0  0  0  0  0  0  0  0  0
    8.2989   17.9724  -24.8755 C   0  0  0  0  0  0  0  0  0  0  0  0
    9.4787   17.5256  -24.2833 C   0  0  0  0  0  0  0  0  0  0  0  0
    9.4766   17.1752  -22.9858 N   0  0  0  0  0  0  0  0  0  0  0  0
    8.9895    9.3216  -20.9420 C   0  0  0  0  0  0  0  0  0  0  0  0
    7.4831    9.0063  -20.8309 C   0  0  0  0  0  0  0  0  0  0  0  0
    6.7374    9.7959  -19.7412 C   0  0  0  0  0  0  0  0  0  0  0  0
    5.2306    9.5129  -19.7669 C   0  0  0  0  0  0  0  0  0  0  0  0
    4.9271    8.0128  -19.7206 C   0  0  0  0  0  0  0  0  0  0  0  0
    5.6864    7.2535  -20.8126 C   0  0  0  0  0  0  0  0  0  0  0  0
    7.1894    7.5071  -20.7128 C   0  0  0  0  0  0  0  0  0  0  0  0
    9.6492    8.9642  -19.6895 N   0  0  0  0  0  0  0  0  0  0  0  0
   10.7682    8.2429  -19.6460 C   0  0  0  0  0  0  0  0  0  0  0  0
   11.3286    7.7894  -20.6373 O   0  0  0  0  0  0  0  0  0  0  0  0
    9.2507    9.2688  -18.8424 H   0  0  0  0  0  0  0  0  0  0  0  0
   11.3148    7.9701  -18.2761 C   0  0  0  0  0  0  0  0  0  0  0  0
   10.3912    7.0001  -17.5453 C   0  0  0  0  0  0  0  0  0  0  0  0
   11.4913    9.2021  -17.5201 N   0  0  0  0  0  0  0  0  0  0  0  0
   12.8145    9.7954  -17.4309 C   0  0  0  0  0  0  0  0  0  0  0  0
   11.1846    9.0128  -16.5660 H   0  0  0  0  0  0  0  0  0  0  0  0
  1  2  2  0  0  0
  2 25  1  0  0  0
  2  3  1  0  0  0
 25 26  1  0  0  0
 25 32  1  0  0  0
 26 27  1  0  0  0
 26 31  1  0  0  0
 27 28  1  0  0  0
 28 29  1  0  0  0
 29 30  1  0  0  0
 30 31  1  0  0  0
 32 33  1  0  0  0
 33 34  2  0  0  0
 33 36  1  0  0  0
 36 37  1  0  0  0
 36 38  1  0  0  0
 38 39  1  0  0  0
  3  4  1  0  0  0
  3  8  1  0  0  0
  4  5  1  0  0  0
  5  6  1  0  0  0
  6  7  1  0  0  0
  6  8  1  0  0  0
  8  9  1  0  0  0
  9 10  2  0  0  0
  9 11  1  0  0  0
 11 13  1  0  0  0
 13 14  2  0  0  0
 13 18  1  0  0  0
 14 15  1  0  0  0
 15 16  2  0  0  0
 16 17  1  0  0  0
 17 18  2  0  0  0
 18 19  1  0  0  0
 19 20  2  0  0  0
 19 24  1  0  0  0
 20 21  1  0  0  0
 21 22  2  0  0  0
 22 23  1  0  0  0
 23 24  2  0  0  0
 32 35  1  0  0  0
 38 40  1  0  0  0
 11 12  1  0  0  0
M  END
> <minimizedAffinity>
-5.79960

$$$$
3HL5_9JZ_A_1


 40 43  0  0  0  0  0  0  0  0999 V2000
    9.7489   11.6392  -22.8484 O   0  0  0  0  0  0  0  0  0  0  0  0
    8.6959   11.5078  -23.4618 C   0  0  0  0  0  0  0  0  0  0  0  0
    8.1345   12.4911  -24.1820 N   0  0  0  0  0  0  0  0  0  0  0  0
    6.8835   12.4152  -24.9500 C   0  0  0  0  0  0  0  0  0  0  0  0
    6.9278   13.6280  -25.8660 C   0  0  0  0  0  0  0  0  0  0  0  0
    7.7245   14.6339  -25.0730 C   0  0  0  0  0  0  0  0  0  0  0  0
    8.3284   15.7498  -25.9176 C   0  0  0  0  0  0  0  0  0  0  0  0
    8.7557   13.8154  -24.2997 C   0  0  0  0  0  0  0  0  0  0  0  0
    8.9585   14.5444  -23.0064 C   0  0  0  0  0  0  0  0  0  0  0  0
   10.0969   14.8410  -22.6810 O   0  0  0  0  0  0  0  0  0  0  0  0
    7.8688   14.8391  -22.2811 N   0  0  0  0  0  0  0  0  0  0  0  0
    6.9906   14.5336  -22.6045 H   0  0  0  0  0  0  0  0  0  0  0  0
    7.9278   15.5645  -21.0806 C   0  0  0  0  0  0  0  0  0  0  0  0
    8.1479   14.9280  -19.8531 C   0  0  0  0  0  0  0  0  0  0  0  0
    8.2388   15.6695  -18.6790 C   0  0  0  0  0  0  0  0  0  0  0  0
    8.1153   17.0561  -18.7192 C   0  0  0  0  0  0  0  0  0  0  0  0
    7.9109   17.6971  -19.9378 C   0  0  0  0  0  0  0  0  0  0  0  0
    7.8199   16.9585  -21.1223 C   0  0  0  0  0  0  0  0  0  0  0  0
    7.5829   17.7026  -22.3952 C   0  0  0  0  0  0  0  0  0  0  0  0
    6.3746   17.6065  -23.0111 N   0  0  0  0  0  0  0  0  0  0  0  0
    6.1351   18.2511  -24.1636 C   0  0  0  0  0  0  0  0  0  0  0  0
    7.1395   19.0191  -24.7457 C   0  0  0  0  0  0  0  0  0  0  0  0
    8.3770   19.1038  -24.1103 C   0  0  0  0  0  0  0  0  0  0  0  0
    8.5754   18.4430  -22.9569 N   0  0  0  0  0  0  0  0  0  0  0  0
    7.9605   10.1939  -23.4039 C   0  0  0  0  0  0  0  0  0  0  0  0
    7.4741    9.9493  -21.9602 C   0  0  0  0  0  0  0  0  0  0  0  0
    6.6352    8.6738  -21.7695 C   0  0  0  0  0  0  0  0  0  0  0  0
    6.2855    8.4405  -20.2949 C   0  0  0  0  0  0  0  0  0  0  0  0
    5.6391    9.6728  -19.6560 C   0  0  0  0  0  0  0  0  0  0  0  0
    6.4937   10.9262  -19.8660 C   0  0  0  0  0  0  0  0  0  0  0  0
    6.7643   11.1628  -21.3507 C   0  0  0  0  0  0  0  0  0  0  0  0
    8.8057    9.0791  -23.8220 N   0  0  0  0  0  0  0  0  0  0  0  0
    8.8257    8.6209  -25.0725 C   0  0  0  0  0  0  0  0  0  0  0  0
    8.1241    9.0640  -25.9747 O   0  0  0  0  0  0  0  0  0  0  0  0
    9.3845    8.6485  -23.1521 H   0  0  0  0  0  0  0  0  0  0  0  0
    9.7548    7.4720  -25.3308 C   0  0  0  0  0  0  0  0  0  0  0  0
    9.5277    6.3897  -24.2795 C   0  0  0  0  0  0  0  0  0  0  0  0
   11.1444    7.9070  -25.3489 N   0  0  0  0  0  0  0  0  0  0  0  0
   12.0557    7.4106  -24.3321 C   0  0  0  0  0  0  0  0  0  0  0  0
   11.1392    8.9242  -25.2736 H   0  0  0  0  0  0  0  0  0  0  0  0
  1  2  2  0  0  0
  2 25  1  0  0  0
  2  3  1  0  0  0
 25 26  1  0  0  0
 25 32  1  0  0  0
 26 27  1  0  0  0
 26 31  1  0  0  0
 27 28  1  0  0  0
 28 29  1  0  0  0
 29 30  1  0  0  0
 30 31  1  0  0  0
 32 33  1  0  0  0
 33 34  2  0  0  0
 33 36  1  0  0  0
 36 37  1  0  0  0
 36 38  1  0  0  0
 38 39  1  0  0  0
  3  4  1  0  0  0
  3  8  1  0  0  0
  4  5  1  0  0  0
  5  6  1  0  0  0
  6  7  1  0  0  0
  6  8  1  0  0  0
  8  9  1  0  0  0
  9 10  2  0  0  0
  9 11  1  0  0  0
 11 13  1  0  0  0
 13 14  2  0  0  0
 13 18  1  0  0  0
 14 15  1  0  0  0
 15 16  2  0  0  0
 16 17  1  0  0  0
 17 18  2  0  0  0
 18 19  1  0  0  0
 19 20  2  0  0  0
 19 24  1  0  0  0
 20 21  1  0  0  0
 21 22  2  0  0  0
 22 23  1  0  0  0
 23 24  2  0  0  0
 32 35  1  0  0  0
 38 40  1  0  0  0
 11 12  1  0  0  0
M  END
> <minimizedAffinity>
-5.67253

$$$$
3HL5_9JZ_A_1


 40 43  0  0  0  0  0  0  0  0999 V2000
   10.6861   10.7722  -20.5375 O   0  0  0  0  0  0  0  0  0  0  0  0
   10.1305   10.0489  -21.3564 C   0  0  0  0  0  0  0  0  0  0  0  0
   10.0599   10.3355  -22.6654 N   0  0  0  0  0  0  0  0  0  0  0  0
    9.4220    9.5227  -23.7109 C   0  0  0  0  0  0  0  0  0  0  0  0
    9.9697   10.0845  -25.0134 C   0  0  0  0  0  0  0  0  0  0  0  0
   10.2235   11.5352  -24.6872 C   0  0  0  0  0  0  0  0  0  0  0  0
   11.2020   12.2206  -25.6338 C   0  0  0  0  0  0  0  0  0  0  0  0
   10.6625   11.5510  -23.2248 C   0  0  0  0  0  0  0  0  0  0  0  0
   10.1428   12.8396  -22.6638 C   0  0  0  0  0  0  0  0  0  0  0  0
   10.9343   13.7486  -22.4716 O   0  0  0  0  0  0  0  0  0  0  0  0
    8.8274   12.9229  -22.4127 N   0  0  0  0  0  0  0  0  0  0  0  0
    8.2666   12.1289  -22.5687 H   0  0  0  0  0  0  0  0  0  0  0  0
    8.2169   14.0941  -21.9371 C   0  0  0  0  0  0  0  0  0  0  0  0
    8.1602   14.3838  -20.5685 C   0  0  0  0  0  0  0  0  0  0  0  0
    7.5823   15.5677  -20.1202 C   0  0  0  0  0  0  0  0  0  0  0  0
    7.0586   16.4776  -21.0352 C   0  0  0  0  0  0  0  0  0  0  0  0
    7.1244   16.2032  -22.3983 C   0  0  0  0  0  0  0  0  0  0  0  0
    7.7051   15.0158  -22.8564 C   0  0  0  0  0  0  0  0  0  0  0  0
    7.7301   14.7714  -24.3294 C   0  0  0  0  0  0  0  0  0  0  0  0
    6.7423   14.0328  -24.9017 N   0  0  0  0  0  0  0  0  0  0  0  0
    6.7442   13.7829  -26.2203 C   0  0  0  0  0  0  0  0  0  0  0  0
    7.7769   14.2743  -27.0137 C   0  0  0  0  0  0  0  0  0  0  0  0
    8.7888   15.0229  -26.4154 C   0  0  0  0  0  0  0  0  0  0  0  0
    8.7491   15.2508  -25.0915 N   0  0  0  0  0  0  0  0  0  0  0  0
    9.4643    8.7785  -20.8952 C   0  0  0  0  0  0  0  0  0  0  0  0
    7.9404    9.0066  -20.8142 C   0  0  0  0  0  0  0  0  0  0  0  0
    7.4908    9.9729  -19.7048 C   0  0  0  0  0  0  0  0  0  0  0  0
    5.9811   10.2357  -19.7593 C   0  0  0  0  0  0  0  0  0  0  0  0
    5.1720    8.9358  -19.7730 C   0  0  0  0  0  0  0  0  0  0  0  0
    5.6450    7.9931  -20.8835 C   0  0  0  0  0  0  0  0  0  0  0  0
    7.1391    7.7019  -20.7561 C   0  0  0  0  0  0  0  0  0  0  0  0
    9.9564    8.3500  -19.5890 N   0  0  0  0  0  0  0  0  0  0  0  0
   11.0000    7.5348  -19.4453 C   0  0  0  0  0  0  0  0  0  0  0  0
   11.6212    7.0472  -20.3827 O   0  0  0  0  0  0  0  0  0  0  0  0
    9.4982    8.6771  -18.7813 H   0  0  0  0  0  0  0  0  0  0  0  0
   11.3747    7.1988  -18.0323 C   0  0  0  0  0  0  0  0  0  0  0  0
   10.1376    6.7173  -17.2801 C   0  0  0  0  0  0  0  0  0  0  0  0
   11.9910    8.3353  -17.3623 N   0  0  0  0  0  0  0  0  0  0  0  0
   13.3871    8.2540  -16.9682 C   0  0  0  0  0  0  0  0  0  0  0  0
   11.4517    8.5096  -16.5143 H   0  0  0  0  0  0  0  0  0  0  0  0
  1  2  2  0  0  0
  2 25  1  0  0  0
  2  3  1  0  0  0
 25 26  1  0  0  0
 25 32  1  0  0  0
 26 27  1  0  0  0
 26 31  1  0  0  0
 27 28  1  0  0  0
 28 29  1  0  0  0
 29 30  1  0  0  0
 30 31  1  0  0  0
 32 33  1  0  0  0
 33 34  2  0  0  0
 33 36  1  0  0  0
 36 37  1  0  0  0
 36 38  1  0  0  0
 38 39  1  0  0  0
  3  4  1  0  0  0
  3  8  1  0  0  0
  4  5  1  0  0  0
  5  6  1  0  0  0
  6  7  1  0  0  0
  6  8  1  0  0  0
  8  9  1  0  0  0
  9 10  2  0  0  0
  9 11  1  0  0  0
 11 13  1  0  0  0
 13 14  2  0  0  0
 13 18  1  0  0  0
 14 15  1  0  0  0
 15 16  2  0  0  0
 16 17  1  0  0  0
 17 18  2  0  0  0
 18 19  1  0  0  0
 19 20  2  0  0  0
 19 24  1  0  0  0
 20 21  1  0  0  0
 21 22  2  0  0  0
 22 23  1  0  0  0
 23 24  2  0  0  0
 32 35  1  0  0  0
 38 40  1  0  0  0
 11 12  1  0  0  0
M  END
> <minimizedAffinity>
-5.53434

$$$$
3HL5_9JZ_A_1


 40 43  0  0  0  0  0  0  0  0999 V2000
   10.8297    8.6344  -21.2621 O   0  0  0  0  0  0  0  0  0  0  0  0
    9.9046    8.8204  -20.4798 C   0  0  0  0  0  0  0  0  0  0  0  0
    8.9118    9.6943  -20.7065 N   0  0  0  0  0  0  0  0  0  0  0  0
    7.7660    9.9715  -19.8284 C   0  0  0  0  0  0  0  0  0  0  0  0
    6.7775   10.7088  -20.7179 C   0  0  0  0  0  0  0  0  0  0  0  0
    7.6652   11.4285  -21.7025 C   0  0  0  0  0  0  0  0  0  0  0  0
    6.9540   11.8522  -22.9824 C   0  0  0  0  0  0  0  0  0  0  0  0
    8.8529   10.4972  -21.9334 C   0  0  0  0  0  0  0  0  0  0  0  0
   10.0285   11.3966  -22.1667 C   0  0  0  0  0  0  0  0  0  0  0  0
   10.3174   12.2082  -21.3022 O   0  0  0  0  0  0  0  0  0  0  0  0
   10.7053   11.2499  -23.3160 N   0  0  0  0  0  0  0  0  0  0  0  0
   10.3830   10.5902  -23.9719 H   0  0  0  0  0  0  0  0  0  0  0  0
   11.8534   11.9971  -23.6229 C   0  0  0  0  0  0  0  0  0  0  0  0
   13.1374   11.4651  -23.4540 C   0  0  0  0  0  0  0  0  0  0  0  0
   14.2617   12.2095  -23.7981 C   0  0  0  0  0  0  0  0  0  0  0  0
   14.1150   13.4925  -24.3194 C   0  0  0  0  0  0  0  0  0  0  0  0
   12.8411   14.0226  -24.5038 C   0  0  0  0  0  0  0  0  0  0  0  0
   11.7064   13.2796  -24.1615 C   0  0  0  0  0  0  0  0  0  0  0  0
   10.3683   13.9100  -24.3670 C   0  0  0  0  0  0  0  0  0  0  0  0
    9.5916   13.5067  -25.4076 N   0  0  0  0  0  0  0  0  0  0  0  0
    8.3907   14.0638  -25.6279 C   0  0  0  0  0  0  0  0  0  0  0  0
    7.9365   15.0775  -24.7891 C   0  0  0  0  0  0  0  0  0  0  0  0
    8.7443   15.4891  -23.7306 C   0  0  0  0  0  0  0  0  0  0  0  0
    9.9403   14.9046  -23.5446 N   0  0  0  0  0  0  0  0  0  0  0  0
    9.8662    8.0604  -19.1793 C   0  0  0  0  0  0  0  0  0  0  0  0
   11.2092    8.2484  -18.4432 C   0  0  0  0  0  0  0  0  0  0  0  0
   11.3598    7.4217  -17.1546 C   0  0  0  0  0  0  0  0  0  0  0  0
   12.7577    7.5745  -16.5432 C   0  0  0  0  0  0  0  0  0  0  0  0
   13.1425    9.0438  -16.3498 C   0  0  0  0  0  0  0  0  0  0  0  0
   12.9780    9.8415  -17.6468 C   0  0  0  0  0  0  0  0  0  0  0  0
   11.5551    9.7192  -18.1889 C   0  0  0  0  0  0  0  0  0  0  0  0
    9.6285    6.6352  -19.3895 N   0  0  0  0  0  0  0  0  0  0  0  0
    8.4718    6.0468  -19.0893 C   0  0  0  0  0  0  0  0  0  0  0  0
    7.5181    6.6296  -18.5861 O   0  0  0  0  0  0  0  0  0  0  0  0
   10.3528    6.0867  -19.7687 H   0  0  0  0  0  0  0  0  0  0  0  0
    8.3962    4.5758  -19.3728 C   0  0  0  0  0  0  0  0  0  0  0  0
    6.9478    4.1103  -19.2555 C   0  0  0  0  0  0  0  0  0  0  0  0
    9.2675    3.8188  -18.4850 N   0  0  0  0  0  0  0  0  0  0  0  0
    9.0920    3.9392  -17.0477 C   0  0  0  0  0  0  0  0  0  0  0  0
   10.2247    4.1030  -18.6932 H   0  0  0  0  0  0  0  0  0  0  0  0
  1  2  2  0  0  0
  2 25  1  0  0  0
  2  3  1  0  0  0
 25 26  1  0  0  0
 25 32  1  0  0  0
 26 27  1  0  0  0
 26 31  1  0  0  0
 27 28  1  0  0  0
 28 29  1  0  0  0
 29 30  1  0  0  0
 30 31  1  0  0  0
 32 33  1  0  0  0
 33 34  2  0  0  0
 33 36  1  0  0  0
 36 37  1  0  0  0
 36 38  1  0  0  0
 38 39  1  0  0  0
  3  4  1  0  0  0
  3  8  1  0  0  0
  4  5  1  0  0  0
  5  6  1  0  0  0
  6  7  1  0  0  0
  6  8  1  0  0  0
  8  9  1  0  0  0
  9 10  2  0  0  0
  9 11  1  0  0  0
 11 13  1  0  0  0
 13 14  2  0  0  0
 13 18  1  0  0  0
 14 15  1  0  0  0
 15 16  2  0  0  0
 16 17  1  0  0  0
 17 18  2  0  0  0
 18 19  1  0  0  0
 19 20  2  0  0  0
 19 24  1  0  0  0
 20 21  1  0  0  0
 21 22  2  0  0  0
 22 23  1  0  0  0
 23 24  2  0  0  0
 32 35  1  0  0  0
 38 40  1  0  0  0
 11 12  1  0  0  0
M  END
> <minimizedAffinity>
-5.43379

$$$$
