3D50_OEV_A_1048


 25 25  0  0  0  0  0  0  0  0999 V2000
   30.5566   66.2459   10.0585 C   0  0  0  0  0  0  0  0  0  0  0  0
   31.7804   65.6565    9.2898 C   0  0  0  0  0  0  0  0  0  0  0  0
   32.7969   65.3414   10.1664 O   0  0  0  0  0  0  0  0  0  0  0  0
   32.1911   66.6371    8.2362 C   0  0  0  0  0  0  0  0  0  0  0  0
   33.3852   66.3656    7.5844 O   0  0  0  0  0  0  0  0  0  0  0  0
   31.0850   66.7823    7.1755 C   0  0  0  0  0  0  0  0  0  0  0  0
   31.3421   67.8274    6.3035 O   0  0  0  0  0  0  0  0  0  0  0  0
   29.6672   66.8498    7.7794 C   0  0  0  0  0  0  0  0  0  0  0  0
   29.4386   66.5759    9.0976 C   0  0  0  0  0  0  0  0  0  0  0  0
   33.0763   66.1413   10.6385 H   0  0  0  0  0  0  0  0  0  0  0  0
   33.2948   65.5473    7.0715 H   0  0  0  0  0  0  0  0  0  0  0  0
   31.3332   68.6656    6.7917 H   0  0  0  0  0  0  0  0  0  0  0  0
   28.5176   67.1505    6.8399 C   0  0  0  0  0  0  0  0  0  0  0  0
   27.2833   66.9103    7.4109 O   0  0  0  0  0  0  0  0  0  0  0  0
   27.2114   65.9711    7.6424 H   0  0  0  0  0  0  0  0  0  0  0  0
   30.1659   65.2904   11.0527 N   0  0  0  0  0  0  0  0  0  0  0  0
   30.0158   65.7829   11.9333 H   0  0  0  0  0  0  0  0  0  0  0  0
   28.9501   64.5711   10.7139 C   0  0  0  0  0  0  0  0  0  0  0  0
   28.2348   64.0825   11.9504 C   0  0  0  0  0  0  0  0  0  0  0  0
   27.5542   62.7117   11.7646 C   0  0  0  0  0  0  0  0  0  0  0  0
   27.6840   62.1068   10.3836 C   0  0  0  0  0  0  0  0  0  0  0  0
   26.3949   61.8670    9.6671 C   0  0  0  0  0  0  0  0  0  0  0  0
   25.1349   62.4840   10.3183 C   0  0  0  0  0  0  0  0  0  0  0  0
   24.5814   63.6131    9.4870 C   0  0  0  0  0  0  0  0  0  0  0  0
   25.3802   64.9043    9.5596 C   0  0  0  0  0  0  0  0  0  0  0  0
  1 16  1  0  0  0
 16 18  1  0  0  0
  2  1  1  0  0  0
  2  3  1  0  0  0
  4  2  1  0  0  0
  5  4  1  0  0  0
  6  4  1  0  0  0
  6  8  1  0  0  0
  7  6  1  0  0  0
  8  9  2  0  0  0
 13  8  1  0  0  0
 13 14  1  0  0  0
  9  1  1  0  0  0
 18 19  1  0  0  0
 19 20  1  0  0  0
 21 20  1  0  0  0
 22 21  1  0  0  0
 23 22  1  0  0  0
 24 23  1  0  0  0
 25 24  1  0  0  0
 16 17  1  0  0  0
  3 10  1  0  0  0
  5 11  1  0  0  0
  7 12  1  0  0  0
 14 15  1  0  0  0
M  END
> <minimizedAffinity>
-7.93581

$$$$
3D50_OEV_A_1048


 25 25  0  0  0  0  0  0  0  0999 V2000
   30.4212   66.1457   10.0505 C   0  0  0  0  0  0  0  0  0  0  0  0
   31.6705   65.5882    9.2993 C   0  0  0  0  0  0  0  0  0  0  0  0
   32.6578   65.2375   10.1955 O   0  0  0  0  0  0  0  0  0  0  0  0
   32.1146   66.6109    8.3008 C   0  0  0  0  0  0  0  0  0  0  0  0
   33.3300   66.3663    7.6784 O   0  0  0  0  0  0  0  0  0  0  0  0
   31.0440   66.7994    7.2109 C   0  0  0  0  0  0  0  0  0  0  0  0
   31.3285   67.8793    6.3912 O   0  0  0  0  0  0  0  0  0  0  0  0
   29.6069   66.8423    7.7697 C   0  0  0  0  0  0  0  0  0  0  0  0
   29.3352   66.5148    9.0673 C   0  0  0  0  0  0  0  0  0  0  0  0
   32.9204   66.0175   10.7089 H   0  0  0  0  0  0  0  0  0  0  0  0
   33.2577   65.5696    7.1298 H   0  0  0  0  0  0  0  0  0  0  0  0
   31.3023   68.6968    6.9127 H   0  0  0  0  0  0  0  0  0  0  0  0
   28.4887   67.1812    6.8057 C   0  0  0  0  0  0  0  0  0  0  0  0
   27.2369   66.9086    7.3214 O   0  0  0  0  0  0  0  0  0  0  0  0
   27.1631   65.9592    7.5062 H   0  0  0  0  0  0  0  0  0  0  0  0
   29.9991   65.1505   10.9914 N   0  0  0  0  0  0  0  0  0  0  0  0
   29.6226   65.6219   11.8139 H   0  0  0  0  0  0  0  0  0  0  0  0
   28.9813   64.2565   10.4664 C   0  0  0  0  0  0  0  0  0  0  0  0
   28.2483   63.5421   11.5762 C   0  0  0  0  0  0  0  0  0  0  0  0
   26.8648   63.0084   11.1540 C   0  0  0  0  0  0  0  0  0  0  0  0
   25.6817   63.6900   11.8067 C   0  0  0  0  0  0  0  0  0  0  0  0
   24.7018   64.3102   10.8646 C   0  0  0  0  0  0  0  0  0  0  0  0
   25.3065   65.0133    9.6267 C   0  0  0  0  0  0  0  0  0  0  0  0
   24.7678   64.4319    8.3445 C   0  0  0  0  0  0  0  0  0  0  0  0
   24.1854   63.0343    8.4778 C   0  0  0  0  0  0  0  0  0  0  0  0
  1 16  1  0  0  0
 16 18  1  0  0  0
  2  1  1  0  0  0
  2  3  1  0  0  0
  4  2  1  0  0  0
  5  4  1  0  0  0
  6  4  1  0  0  0
  6  8  1  0  0  0
  7  6  1  0  0  0
  8  9  2  0  0  0
 13  8  1  0  0  0
 13 14  1  0  0  0
  9  1  1  0  0  0
 18 19  1  0  0  0
 19 20  1  0  0  0
 21 20  1  0  0  0
 22 21  1  0  0  0
 23 22  1  0  0  0
 24 23  1  0  0  0
 25 24  1  0  0  0
 16 17  1  0  0  0
  3 10  1  0  0  0
  5 11  1  0  0  0
  7 12  1  0  0  0
 14 15  1  0  0  0
M  END
> <minimizedAffinity>
-7.60117

$$$$
3D50_OEV_A_1048


 25 25  0  0  0  0  0  0  0  0999 V2000
   30.5245   66.2777   10.0351 C   0  0  0  0  0  0  0  0  0  0  0  0
   31.7538   65.6840    9.2787 C   0  0  0  0  0  0  0  0  0  0  0  0
   32.7609   65.3667   10.1653 O   0  0  0  0  0  0  0  0  0  0  0  0
   32.1776   66.6624    8.2283 C   0  0  0  0  0  0  0  0  0  0  0  0
   33.3770   66.3869    7.5882 O   0  0  0  0  0  0  0  0  0  0  0  0
   31.0821   66.8099    7.1569 C   0  0  0  0  0  0  0  0  0  0  0  0
   31.3507   67.8535    6.2864 O   0  0  0  0  0  0  0  0  0  0  0  0
   29.6588   66.8821    7.7470 C   0  0  0  0  0  0  0  0  0  0  0  0
   29.4168   66.6102    9.0632 C   0  0  0  0  0  0  0  0  0  0  0  0
   33.0381   66.1663   10.6394 H   0  0  0  0  0  0  0  0  0  0  0  0
   33.2892   65.5683    7.0752 H   0  0  0  0  0  0  0  0  0  0  0  0
   31.3395   68.6921    6.7738 H   0  0  0  0  0  0  0  0  0  0  0  0
   28.5192   67.1854    6.7963 C   0  0  0  0  0  0  0  0  0  0  0  0
   27.2805   66.9068    7.3398 O   0  0  0  0  0  0  0  0  0  0  0  0
   27.2232   65.9607    7.5458 H   0  0  0  0  0  0  0  0  0  0  0  0
   30.1215   65.3243   11.0264 N   0  0  0  0  0  0  0  0  0  0  0  0
   30.3285   65.7089   11.9482 H   0  0  0  0  0  0  0  0  0  0  0  0
   28.7069   64.9982   10.9702 C   0  0  0  0  0  0  0  0  0  0  0  0
   27.9918   65.4234   12.2301 C   0  0  0  0  0  0  0  0  0  0  0  0
   28.9466   65.8167   13.3750 C   0  0  0  0  0  0  0  0  0  0  0  0
   28.8634   67.2609   13.8194 C   0  0  0  0  0  0  0  0  0  0  0  0
   29.8931   68.1706   13.2322 C   0  0  0  0  0  0  0  0  0  0  0  0
   30.4686   69.2444   14.1853 C   0  0  0  0  0  0  0  0  0  0  0  0
   31.9758   69.2470   14.1670 C   0  0  0  0  0  0  0  0  0  0  0  0
   32.6265   68.9735   15.5132 C   0  0  0  0  0  0  0  0  0  0  0  0
  1 16  1  0  0  0
 16 18  1  0  0  0
  2  1  1  0  0  0
  2  3  1  0  0  0
  4  2  1  0  0  0
  5  4  1  0  0  0
  6  4  1  0  0  0
  6  8  1  0  0  0
  7  6  1  0  0  0
  8  9  2  0  0  0
 13  8  1  0  0  0
 13 14  1  0  0  0
  9  1  1  0  0  0
 18 19  1  0  0  0
 19 20  1  0  0  0
 21 20  1  0  0  0
 22 21  1  0  0  0
 23 22  1  0  0  0
 24 23  1  0  0  0
 25 24  1  0  0  0
 16 17  1  0  0  0
  3 10  1  0  0  0
  5 11  1  0  0  0
  7 12  1  0  0  0
 14 15  1  0  0  0
M  END
> <minimizedAffinity>
-7.06225

$$$$
3D50_OEV_A_1048


 25 25  0  0  0  0  0  0  0  0999 V2000
   26.6234   63.1978   10.8991 C   0  0  0  0  0  0  0  0  0  0  0  0
   27.9370   63.8685   11.4092 C   0  0  0  0  0  0  0  0  0  0  0  0
   28.9876   63.5804   10.5641 O   0  0  0  0  0  0  0  0  0  0  0  0
   28.1744   63.4264   12.8193 C   0  0  0  0  0  0  0  0  0  0  0  0
   29.4018   63.7702   13.3666 O   0  0  0  0  0  0  0  0  0  0  0  0
   27.0668   63.9616   13.7448 C   0  0  0  0  0  0  0  0  0  0  0  0
   27.1404   63.4046   15.0110 O   0  0  0  0  0  0  0  0  0  0  0  0
   25.6557   63.8540   13.1314 C   0  0  0  0  0  0  0  0  0  0  0  0
   25.4708   63.5276   11.8183 C   0  0  0  0  0  0  0  0  0  0  0  0
   29.1179   62.6200   10.5259 H   0  0  0  0  0  0  0  0  0  0  0  0
   29.4611   64.7351   13.4470 H   0  0  0  0  0  0  0  0  0  0  0  0
   26.9801   62.4497   14.9540 H   0  0  0  0  0  0  0  0  0  0  0  0
   24.4771   64.2047   14.0160 C   0  0  0  0  0  0  0  0  0  0  0  0
   24.8385   64.9606   15.1138 O   0  0  0  0  0  0  0  0  0  0  0  0
   25.4561   64.4552   15.6652 H   0  0  0  0  0  0  0  0  0  0  0  0
   26.4017   63.6419    9.5545 N   0  0  0  0  0  0  0  0  0  0  0  0
   25.8152   62.9556    9.0797 H   0  0  0  0  0  0  0  0  0  0  0  0
   25.7499   64.9379    9.4762 C   0  0  0  0  0  0  0  0  0  0  0  0
   25.7729   65.4832    8.0685 C   0  0  0  0  0  0  0  0  0  0  0  0
   26.9880   66.3874    7.7801 C   0  0  0  0  0  0  0  0  0  0  0  0
   27.9213   66.6095    8.9504 C   0  0  0  0  0  0  0  0  0  0  0  0
   29.3681   66.7357    8.5990 C   0  0  0  0  0  0  0  0  0  0  0  0
   29.6749   67.2840    7.1856 C   0  0  0  0  0  0  0  0  0  0  0  0
   31.0979   66.9965    6.7797 C   0  0  0  0  0  0  0  0  0  0  0  0
   32.0991   67.0147    7.9232 C   0  0  0  0  0  0  0  0  0  0  0  0
  1 16  1  0  0  0
 16 18  1  0  0  0
  2  1  1  0  0  0
  2  3  1  0  0  0
  4  2  1  0  0  0
  5  4  1  0  0  0
  6  4  1  0  0  0
  6  8  1  0  0  0
  7  6  1  0  0  0
  8  9  2  0  0  0
 13  8  1  0  0  0
 13 14  1  0  0  0
  9  1  1  0  0  0
 18 19  1  0  0  0
 19 20  1  0  0  0
 21 20  1  0  0  0
 22 21  1  0  0  0
 23 22  1  0  0  0
 24 23  1  0  0  0
 25 24  1  0  0  0
 16 17  1  0  0  0
  3 10  1  0  0  0
  5 11  1  0  0  0
  7 12  1  0  0  0
 14 15  1  0  0  0
M  END
> <minimizedAffinity>
-6.77222

$$$$
3D50_OEV_A_1048


 25 25  0  0  0  0  0  0  0  0999 V2000
   28.0813   64.0471   11.5034 C   0  0  0  0  0  0  0  0  0  0  0  0
   28.1778   64.2952   13.0413 C   0  0  0  0  0  0  0  0  0  0  0  0
   29.4750   64.1296   13.4781 O   0  0  0  0  0  0  0  0  0  0  0  0
   27.2032   63.3890   13.7263 C   0  0  0  0  0  0  0  0  0  0  0  0
   27.2916   63.3342   15.1096 O   0  0  0  0  0  0  0  0  0  0  0  0
   25.7595   63.7682   13.3500 C   0  0  0  0  0  0  0  0  0  0  0  0
   24.8467   62.8279   13.7989 O   0  0  0  0  0  0  0  0  0  0  0  0
   25.5860   64.0943   11.8524 C   0  0  0  0  0  0  0  0  0  0  0  0
   26.6620   64.2442   11.0249 C   0  0  0  0  0  0  0  0  0  0  0  0
   29.7681   63.2253   13.2853 H   0  0  0  0  0  0  0  0  0  0  0  0
   27.0575   64.1983   15.4830 H   0  0  0  0  0  0  0  0  0  0  0  0
   25.0082   61.9818   13.3529 H   0  0  0  0  0  0  0  0  0  0  0  0
   24.1785   64.3263   11.3429 C   0  0  0  0  0  0  0  0  0  0  0  0
   23.3688   64.9485   12.2726 O   0  0  0  0  0  0  0  0  0  0  0  0
   23.2880   64.3862   13.0589 H   0  0  0  0  0  0  0  0  0  0  0  0
   29.0083   64.9314   10.8609 N   0  0  0  0  0  0  0  0  0  0  0  0
   28.9659   64.7692    9.8548 H   0  0  0  0  0  0  0  0  0  0  0  0
   28.7340   66.3356   11.1132 C   0  0  0  0  0  0  0  0  0  0  0  0
   28.6992   67.1305    9.8301 C   0  0  0  0  0  0  0  0  0  0  0  0
   28.2028   66.3177    8.6176 C   0  0  0  0  0  0  0  0  0  0  0  0
   28.7133   66.7859    7.2722 C   0  0  0  0  0  0  0  0  0  0  0  0
   30.0058   67.5349    7.3044 C   0  0  0  0  0  0  0  0  0  0  0  0
   31.2556   66.7459    6.8483 C   0  0  0  0  0  0  0  0  0  0  0  0
   32.3947   66.9064    7.8224 C   0  0  0  0  0  0  0  0  0  0  0  0
   32.0252   66.6591    9.2759 C   0  0  0  0  0  0  0  0  0  0  0  0
  1 16  1  0  0  0
 16 18  1  0  0  0
  2  1  1  0  0  0
  2  3  1  0  0  0
  4  2  1  0  0  0
  5  4  1  0  0  0
  6  4  1  0  0  0
  6  8  1  0  0  0
  7  6  1  0  0  0
  8  9  2  0  0  0
 13  8  1  0  0  0
 13 14  1  0  0  0
  9  1  1  0  0  0
 18 19  1  0  0  0
 19 20  1  0  0  0
 21 20  1  0  0  0
 22 21  1  0  0  0
 23 22  1  0  0  0
 24 23  1  0  0  0
 25 24  1  0  0  0
 16 17  1  0  0  0
  3 10  1  0  0  0
  5 11  1  0  0  0
  7 12  1  0  0  0
 14 15  1  0  0  0
M  END
> <minimizedAffinity>
-6.48246

$$$$
3D50_OEV_A_1048


 25 25  0  0  0  0  0  0  0  0999 V2000
   28.2605   65.0997   11.1871 C   0  0  0  0  0  0  0  0  0  0  0  0
   28.3842   63.6269   10.6856 C   0  0  0  0  0  0  0  0  0  0  0  0
   29.4378   63.5019    9.8052 O   0  0  0  0  0  0  0  0  0  0  0  0
   27.0701   63.2183   10.0968 C   0  0  0  0  0  0  0  0  0  0  0  0
   27.0554   62.0050    9.4246 O   0  0  0  0  0  0  0  0  0  0  0  0
   25.9815   63.1802   11.1846 C   0  0  0  0  0  0  0  0  0  0  0  0
   24.7183   63.0080   10.6427 O   0  0  0  0  0  0  0  0  0  0  0  0
   26.0509   64.3748   12.1579 C   0  0  0  0  0  0  0  0  0  0  0  0
   27.1151   65.2306   12.1633 C   0  0  0  0  0  0  0  0  0  0  0  0
   29.2928   64.0838    9.0427 H   0  0  0  0  0  0  0  0  0  0  0  0
   27.2255   61.2854   10.0524 H   0  0  0  0  0  0  0  0  0  0  0  0
   24.4957   63.7746   10.0917 H   0  0  0  0  0  0  0  0  0  0  0  0
   24.9334   64.5216   13.1699 C   0  0  0  0  0  0  0  0  0  0  0  0
   24.9755   63.5566   14.1570 O   0  0  0  0  0  0  0  0  0  0  0  0
   24.8709   62.6795   13.7563 H   0  0  0  0  0  0  0  0  0  0  0  0
   29.5202   65.4712   11.7610 N   0  0  0  0  0  0  0  0  0  0  0  0
   30.2264   64.8036   11.4511 H   0  0  0  0  0  0  0  0  0  0  0  0
   29.9524   66.8066   11.3859 C   0  0  0  0  0  0  0  0  0  0  0  0
   30.2336   66.9004    9.9055 C   0  0  0  0  0  0  0  0  0  0  0  0
   31.6332   66.3867    9.5127 C   0  0  0  0  0  0  0  0  0  0  0  0
   32.1343   66.8448    8.1602 C   0  0  0  0  0  0  0  0  0  0  0  0
   31.0895   67.3934    7.2437 C   0  0  0  0  0  0  0  0  0  0  0  0
   30.1001   66.3618    6.6526 C   0  0  0  0  0  0  0  0  0  0  0  0
   28.7394   66.9698    6.4266 C   0  0  0  0  0  0  0  0  0  0  0  0
   27.6889   66.5707    7.4501 C   0  0  0  0  0  0  0  0  0  0  0  0
  1 16  1  0  0  0
 16 18  1  0  0  0
  2  1  1  0  0  0
  2  3  1  0  0  0
  4  2  1  0  0  0
  5  4  1  0  0  0
  6  4  1  0  0  0
  6  8  1  0  0  0
  7  6  1  0  0  0
  8  9  2  0  0  0
 13  8  1  0  0  0
 13 14  1  0  0  0
  9  1  1  0  0  0
 18 19  1  0  0  0
 19 20  1  0  0  0
 21 20  1  0  0  0
 22 21  1  0  0  0
 23 22  1  0  0  0
 24 23  1  0  0  0
 25 24  1  0  0  0
 16 17  1  0  0  0
  3 10  1  0  0  0
  5 11  1  0  0  0
  7 12  1  0  0  0
 14 15  1  0  0  0
M  END
> <minimizedAffinity>
-6.47784

$$$$
3D50_OEV_A_1048


 25 25  0  0  0  0  0  0  0  0999 V2000
   27.5756   63.1101   11.2590 C   0  0  0  0  0  0  0  0  0  0  0  0
   28.0985   63.1638   12.7285 C   0  0  0  0  0  0  0  0  0  0  0  0
   27.2557   62.4669   13.5682 O   0  0  0  0  0  0  0  0  0  0  0  0
   28.2651   64.5997   13.1167 C   0  0  0  0  0  0  0  0  0  0  0  0
   28.5361   64.8407   14.4556 O   0  0  0  0  0  0  0  0  0  0  0  0
   29.3715   65.2601   12.2743 C   0  0  0  0  0  0  0  0  0  0  0  0
   29.4110   66.6321   12.4613 O   0  0  0  0  0  0  0  0  0  0  0  0
   29.3190   64.8666   10.7838 C   0  0  0  0  0  0  0  0  0  0  0  0
   28.5089   63.8613   10.3387 C   0  0  0  0  0  0  0  0  0  0  0  0
   26.3690   62.8588   13.5342 H   0  0  0  0  0  0  0  0  0  0  0  0
   29.4038   64.4706   14.6817 H   0  0  0  0  0  0  0  0  0  0  0  0
   28.5839   67.0259   12.1423 H   0  0  0  0  0  0  0  0  0  0  0  0
   30.2613   65.5794    9.8360 C   0  0  0  0  0  0  0  0  0  0  0  0
   30.3886   64.9335    8.6219 O   0  0  0  0  0  0  0  0  0  0  0  0
   30.7584   64.0481    8.7640 H   0  0  0  0  0  0  0  0  0  0  0  0
   27.4355   61.7305   10.8969 N   0  0  0  0  0  0  0  0  0  0  0  0
   27.0857   61.2176   11.7062 H   0  0  0  0  0  0  0  0  0  0  0  0
   26.5238   61.5163    9.7863 C   0  0  0  0  0  0  0  0  0  0  0  0
   25.1715   62.1312   10.0556 C   0  0  0  0  0  0  0  0  0  0  0  0
   24.3884   62.4779    8.7736 C   0  0  0  0  0  0  0  0  0  0  0  0
   24.1215   63.9517    8.5572 C   0  0  0  0  0  0  0  0  0  0  0  0
   25.2512   64.8641    8.9088 C   0  0  0  0  0  0  0  0  0  0  0  0
   25.8510   65.6789    7.7389 C   0  0  0  0  0  0  0  0  0  0  0  0
   27.0296   66.5040    8.1889 C   0  0  0  0  0  0  0  0  0  0  0  0
   28.0007   66.8789    7.0812 C   0  0  0  0  0  0  0  0  0  0  0  0
  1 16  1  0  0  0
 16 18  1  0  0  0
  2  1  1  0  0  0
  2  3  1  0  0  0
  4  2  1  0  0  0
  5  4  1  0  0  0
  6  4  1  0  0  0
  6  8  1  0  0  0
  7  6  1  0  0  0
  8  9  2  0  0  0
 13  8  1  0  0  0
 13 14  1  0  0  0
  9  1  1  0  0  0
 18 19  1  0  0  0
 19 20  1  0  0  0
 21 20  1  0  0  0
 22 21  1  0  0  0
 23 22  1  0  0  0
 24 23  1  0  0  0
 25 24  1  0  0  0
 16 17  1  0  0  0
  3 10  1  0  0  0
  5 11  1  0  0  0
  7 12  1  0  0  0
 14 15  1  0  0  0
M  END
> <minimizedAffinity>
-6.46992

$$$$
3D50_OEV_A_1048


 25 25  0  0  0  0  0  0  0  0999 V2000
   27.9415   66.2087    8.5403 C   0  0  0  0  0  0  0  0  0  0  0  0
   29.1600   66.6525    7.6718 C   0  0  0  0  0  0  0  0  0  0  0  0
   28.9970   66.2453    6.3647 O   0  0  0  0  0  0  0  0  0  0  0  0
   30.4078   66.1214    8.3052 C   0  0  0  0  0  0  0  0  0  0  0  0
   31.5715   66.2538    7.5619 O   0  0  0  0  0  0  0  0  0  0  0  0
   30.6356   66.7780    9.6788 C   0  0  0  0  0  0  0  0  0  0  0  0
   31.6612   66.1641   10.3789 O   0  0  0  0  0  0  0  0  0  0  0  0
   29.3447   66.9093   10.5127 C   0  0  0  0  0  0  0  0  0  0  0  0
   28.1154   66.6695    9.9685 C   0  0  0  0  0  0  0  0  0  0  0  0
   28.9230   65.2786    6.3341 H   0  0  0  0  0  0  0  0  0  0  0  0
   31.7843   67.1946    7.4592 H   0  0  0  0  0  0  0  0  0  0  0  0
   31.4139   65.2473   10.5770 H   0  0  0  0  0  0  0  0  0  0  0  0
   29.4781   67.3961   11.9410 C   0  0  0  0  0  0  0  0  0  0  0  0
   29.6330   66.3641   12.8455 O   0  0  0  0  0  0  0  0  0  0  0  0
   28.8496   65.7925   12.8213 H   0  0  0  0  0  0  0  0  0  0  0  0
   26.7570   66.7367    7.9303 N   0  0  0  0  0  0  0  0  0  0  0  0
   26.6789   66.3521    6.9888 H   0  0  0  0  0  0  0  0  0  0  0  0
   25.5421   66.4178    8.6604 C   0  0  0  0  0  0  0  0  0  0  0  0
   25.2694   64.9329    8.6568 C   0  0  0  0  0  0  0  0  0  0  0  0
   24.5862   64.4310    9.9446 C   0  0  0  0  0  0  0  0  0  0  0  0
   24.9142   63.0071   10.3381 C   0  0  0  0  0  0  0  0  0  0  0  0
   25.9440   62.3313    9.4923 C   0  0  0  0  0  0  0  0  0  0  0  0
   27.2162   61.8523   10.2302 C   0  0  0  0  0  0  0  0  0  0  0  0
   28.0596   63.0153   10.6868 C   0  0  0  0  0  0  0  0  0  0  0  0
   28.0944   63.2203   12.1925 C   0  0  0  0  0  0  0  0  0  0  0  0
  1 16  1  0  0  0
 16 18  1  0  0  0
  2  1  1  0  0  0
  2  3  1  0  0  0
  4  2  1  0  0  0
  5  4  1  0  0  0
  6  4  1  0  0  0
  6  8  1  0  0  0
  7  6  1  0  0  0
  8  9  2  0  0  0
 13  8  1  0  0  0
 13 14  1  0  0  0
  9  1  1  0  0  0
 18 19  1  0  0  0
 19 20  1  0  0  0
 21 20  1  0  0  0
 22 21  1  0  0  0
 23 22  1  0  0  0
 24 23  1  0  0  0
 25 24  1  0  0  0
 16 17  1  0  0  0
  3 10  1  0  0  0
  5 11  1  0  0  0
  7 12  1  0  0  0
 14 15  1  0  0  0
M  END
> <minimizedAffinity>
-6.41858

$$$$
3D50_OEV_A_1048


 25 25  0  0  0  0  0  0  0  0999 V2000
   29.5174   65.7324   10.3737 C   0  0  0  0  0  0  0  0  0  0  0  0
   28.4260   66.6306    9.7119 C   0  0  0  0  0  0  0  0  0  0  0  0
   27.1761   66.3125   10.1992 O   0  0  0  0  0  0  0  0  0  0  0  0
   28.5354   66.4867    8.2261 C   0  0  0  0  0  0  0  0  0  0  0  0
   27.5162   67.0629    7.4821 O   0  0  0  0  0  0  0  0  0  0  0  0
   29.8766   67.0544    7.7276 C   0  0  0  0  0  0  0  0  0  0  0  0
   30.0992   66.7532    6.3940 O   0  0  0  0  0  0  0  0  0  0  0  0
   31.0706   66.6757    8.6278 C   0  0  0  0  0  0  0  0  0  0  0  0
   30.8874   66.0934    9.8494 C   0  0  0  0  0  0  0  0  0  0  0  0
   26.9802   65.3827   10.0045 H   0  0  0  0  0  0  0  0  0  0  0  0
   27.5407   68.0264    7.5919 H   0  0  0  0  0  0  0  0  0  0  0  0
   30.1788   65.7922    6.2885 H   0  0  0  0  0  0  0  0  0  0  0  0
   32.4580   67.0477    8.1470 C   0  0  0  0  0  0  0  0  0  0  0  0
   32.9114   66.2258    7.1340 O   0  0  0  0  0  0  0  0  0  0  0  0
   32.9677   65.3135    7.4587 H   0  0  0  0  0  0  0  0  0  0  0  0
   29.4101   65.8921   11.7939 N   0  0  0  0  0  0  0  0  0  0  0  0
   28.6720   66.5687   11.9885 H   0  0  0  0  0  0  0  0  0  0  0  0
   29.0975   64.6561   12.4904 C   0  0  0  0  0  0  0  0  0  0  0  0
   27.9105   64.8245   13.4080 C   0  0  0  0  0  0  0  0  0  0  0  0
   26.9996   63.5819   13.4680 C   0  0  0  0  0  0  0  0  0  0  0  0
   25.5189   63.8704   13.5877 C   0  0  0  0  0  0  0  0  0  0  0  0
   24.7741   63.9370   12.2941 C   0  0  0  0  0  0  0  0  0  0  0  0
   25.4405   63.2253   11.0933 C   0  0  0  0  0  0  0  0  0  0  0  0
   24.6104   63.3607    9.8423 C   0  0  0  0  0  0  0  0  0  0  0  0
   24.4680   62.0810    9.0346 C   0  0  0  0  0  0  0  0  0  0  0  0
  1 16  1  0  0  0
 16 18  1  0  0  0
  2  1  1  0  0  0
  2  3  1  0  0  0
  4  2  1  0  0  0
  5  4  1  0  0  0
  6  4  1  0  0  0
  6  8  1  0  0  0
  7  6  1  0  0  0
  8  9  2  0  0  0
 13  8  1  0  0  0
 13 14  1  0  0  0
  9  1  1  0  0  0
 18 19  1  0  0  0
 19 20  1  0  0  0
 21 20  1  0  0  0
 22 21  1  0  0  0
 23 22  1  0  0  0
 24 23  1  0  0  0
 25 24  1  0  0  0
 16 17  1  0  0  0
  3 10  1  0  0  0
  5 11  1  0  0  0
  7 12  1  0  0  0
 14 15  1  0  0  0
M  END
> <minimizedAffinity>
-6.38299

$$$$
3D50_OEV_A_1048


 25 25  0  0  0  0  0  0  0  0999 V2000
   29.0185   65.4420    9.5898 C   0  0  0  0  0  0  0  0  0  0  0  0
   28.1898   66.5430    8.8571 C   0  0  0  0  0  0  0  0  0  0  0  0
   26.8462   66.2348    8.8820 O   0  0  0  0  0  0  0  0  0  0  0  0
   28.7350   66.6987    7.4719 C   0  0  0  0  0  0  0  0  0  0  0  0
   27.9942   67.4968    6.6124 O   0  0  0  0  0  0  0  0  0  0  0  0
   30.1734   67.2453    7.5179 C   0  0  0  0  0  0  0  0  0  0  0  0
   30.7785   67.2071    6.2724 O   0  0  0  0  0  0  0  0  0  0  0  0
   31.0377   66.5935    8.6168 C   0  0  0  0  0  0  0  0  0  0  0  0
   30.4885   65.7898    9.5745 C   0  0  0  0  0  0  0  0  0  0  0  0
   26.7014   65.3839    8.4393 H   0  0  0  0  0  0  0  0  0  0  0  0
   28.0014   68.4119    6.9340 H   0  0  0  0  0  0  0  0  0  0  0  0
   30.8695   66.2850    5.9853 H   0  0  0  0  0  0  0  0  0  0  0  0
   32.5116   66.9417    8.6494 C   0  0  0  0  0  0  0  0  0  0  0  0
   33.2469   66.2439    7.7115 O   0  0  0  0  0  0  0  0  0  0  0  0
   33.1843   65.2933    7.8937 H   0  0  0  0  0  0  0  0  0  0  0  0
   28.4951   65.3149   10.9179 N   0  0  0  0  0  0  0  0  0  0  0  0
   28.4502   64.3238   11.1546 H   0  0  0  0  0  0  0  0  0  0  0  0
   29.2988   65.9922   11.9209 C   0  0  0  0  0  0  0  0  0  0  0  0
   28.7046   67.3290   12.2940 C   0  0  0  0  0  0  0  0  0  0  0  0
   29.6783   68.2387   13.0697 C   0  0  0  0  0  0  0  0  0  0  0  0
   29.9142   67.8515   14.5135 C   0  0  0  0  0  0  0  0  0  0  0  0
   31.1269   68.4525   15.1464 C   0  0  0  0  0  0  0  0  0  0  0  0
   31.9193   69.4534   14.2730 C   0  0  0  0  0  0  0  0  0  0  0  0
   33.3789   69.0843   14.1979 C   0  0  0  0  0  0  0  0  0  0  0  0
   34.3370   70.2548   14.3474 C   0  0  0  0  0  0  0  0  0  0  0  0
  1 16  1  0  0  0
 16 18  1  0  0  0
  2  1  1  0  0  0
  2  3  1  0  0  0
  4  2  1  0  0  0
  5  4  1  0  0  0
  6  4  1  0  0  0
  6  8  1  0  0  0
  7  6  1  0  0  0
  8  9  2  0  0  0
 13  8  1  0  0  0
 13 14  1  0  0  0
  9  1  1  0  0  0
 18 19  1  0  0  0
 19 20  1  0  0  0
 21 20  1  0  0  0
 22 21  1  0  0  0
 23 22  1  0  0  0
 24 23  1  0  0  0
 25 24  1  0  0  0
 16 17  1  0  0  0
  3 10  1  0  0  0
  5 11  1  0  0  0
  7 12  1  0  0  0
 14 15  1  0  0  0
M  END
> <minimizedAffinity>
-6.34660

$$$$
