4AYQ_MVL_A_503


 18 19  0  0  0  0  0  0  0  0999 V2000
    2.3490  -31.1185  -19.1756 C   0  0  0  0  0  0  0  0  0  0  0  0
    2.5684  -30.9523  -20.4878 N   0  0  0  0  0  0  0  0  0  0  0  0
    4.7464  -31.0159  -18.6874 C   0  0  0  0  0  0  0  0  0  0  0  0
    4.8912  -30.2108  -19.9882 C   0  0  0  0  0  0  0  0  0  0  0  0
    3.8990  -30.6040  -21.0740 C   0  0  0  0  0  0  0  0  0  0  0  0
    0.4679  -31.5197  -20.2519 C   0  0  0  0  0  0  0  0  0  0  0  0
    1.4086  -31.1919  -21.1594 C   0  0  0  0  0  0  0  0  0  0  0  0
    1.0690  -31.4682  -19.0407 N   0  0  0  0  0  0  0  0  0  0  0  0
    4.9946  -32.3989  -18.9154 O   0  0  0  0  0  0  0  0  0  0  0  0
    3.2128  -31.7877  -17.0257 O   0  0  0  0  0  0  0  0  0  0  0  0
    4.7085  -28.8247  -19.7037 O   0  0  0  0  0  0  0  0  0  0  0  0
    3.3549  -30.8796  -18.1102 C   0  0  0  0  0  0  0  0  0  0  0  0
    4.3393  -32.7463  -19.5405 H   0  0  0  0  0  0  0  0  0  0  0  0
    2.3222  -31.7060  -16.6501 H   0  0  0  0  0  0  0  0  0  0  0  0
    3.8097  -28.6790  -19.3694 H   0  0  0  0  0  0  0  0  0  0  0  0
    4.4336  -31.7994  -21.8717 C   0  0  0  0  0  0  0  0  0  0  0  0
    5.8528  -31.9247  -21.7817 O   0  0  0  0  0  0  0  0  0  0  0  0
    6.2714  -31.1315  -22.1512 H   0  0  0  0  0  0  0  0  0  0  0  0
  1  2  1  0  0  0
  1  8  2  0  0  0
  1 12  1  0  0  0
  2  5  1  0  0  0
  2  7  1  0  0  0
  3  4  1  0  0  0
  3  9  1  0  0  0
  3 12  1  0  0  0
  4  5  1  0  0  0
  4 11  1  0  0  0
  5 16  1  0  0  0
 16 17  1  0  0  0
  6  7  2  0  0  0
  6  8  1  0  0  0
 10 12  1  0  0  0
  9 13  1  0  0  0
 10 14  1  0  0  0
 11 15  1  0  0  0
 17 18  1  0  0  0
M  END
> <minimizedAffinity>
-6.90363

$$$$
4AYQ_MVL_A_503


 18 19  0  0  0  0  0  0  0  0999 V2000
    4.3267  -30.8818  -19.8393 C   0  0  0  0  0  0  0  0  0  0  0  0
    3.3519  -31.0712  -20.7402 N   0  0  0  0  0  0  0  0  0  0  0  0
    2.9548  -31.8312  -18.0469 C   0  0  0  0  0  0  0  0  0  0  0  0
    2.1969  -32.5932  -19.1451 C   0  0  0  0  0  0  0  0  0  0  0  0
    2.1009  -31.8430  -20.4665 C   0  0  0  0  0  0  0  0  0  0  0  0
    4.8714  -29.8138  -21.6888 C   0  0  0  0  0  0  0  0  0  0  0  0
    3.6845  -30.4198  -21.8885 C   0  0  0  0  0  0  0  0  0  0  0  0
    5.2459  -30.1116  -20.4231 N   0  0  0  0  0  0  0  0  0  0  0  0
    2.2902  -30.6153  -17.7207 O   0  0  0  0  0  0  0  0  0  0  0  0
    4.9511  -30.6271  -17.5238 O   0  0  0  0  0  0  0  0  0  0  0  0
    2.8522  -33.8367  -19.3897 O   0  0  0  0  0  0  0  0  0  0  0  0
    4.3618  -31.4916  -18.4862 C   0  0  0  0  0  0  0  0  0  0  0  0
    2.2656  -30.0407  -18.5018 H   0  0  0  0  0  0  0  0  0  0  0  0
    5.8543  -30.4048  -17.7990 H   0  0  0  0  0  0  0  0  0  0  0  0
    3.7500  -33.6701  -19.7171 H   0  0  0  0  0  0  0  0  0  0  0  0
    0.9046  -30.8842  -20.4451 C   0  0  0  0  0  0  0  0  0  0  0  0
   -0.3131  -31.5391  -20.0898 O   0  0  0  0  0  0  0  0  0  0  0  0
   -0.5150  -32.2245  -20.7458 H   0  0  0  0  0  0  0  0  0  0  0  0
  1  2  1  0  0  0
  1  8  2  0  0  0
  1 12  1  0  0  0
  2  5  1  0  0  0
  2  7  1  0  0  0
  3  4  1  0  0  0
  3  9  1  0  0  0
  3 12  1  0  0  0
  4  5  1  0  0  0
  4 11  1  0  0  0
  5 16  1  0  0  0
 16 17  1  0  0  0
  6  7  2  0  0  0
  6  8  1  0  0  0
 10 12  1  0  0  0
  9 13  1  0  0  0
 10 14  1  0  0  0
 11 15  1  0  0  0
 17 18  1  0  0  0
M  END
> <minimizedAffinity>
-6.80338

$$$$
4AYQ_MVL_A_503


 18 19  0  0  0  0  0  0  0  0999 V2000
    2.7499  -31.7611  -20.3957 C   0  0  0  0  0  0  0  0  0  0  0  0
    4.0876  -31.8077  -20.3179 N   0  0  0  0  0  0  0  0  0  0  0  0
    2.6200  -30.2237  -18.4943 C   0  0  0  0  0  0  0  0  0  0  0  0
    4.0549  -29.8011  -18.8459 C   0  0  0  0  0  0  0  0  0  0  0  0
    4.9037  -30.9196  -19.4343 C   0  0  0  0  0  0  0  0  0  0  0  0
    3.4670  -33.3822  -21.7057 C   0  0  0  0  0  0  0  0  0  0  0  0
    4.5390  -32.8028  -21.1302 C   0  0  0  0  0  0  0  0  0  0  0  0
    2.3797  -32.7257  -21.2391 N   0  0  0  0  0  0  0  0  0  0  0  0
    2.6191  -31.2373  -17.4948 O   0  0  0  0  0  0  0  0  0  0  0  0
    0.6510  -31.3151  -19.2949 O   0  0  0  0  0  0  0  0  0  0  0  0
    4.0102  -28.7352  -19.7932 O   0  0  0  0  0  0  0  0  0  0  0  0
    1.8941  -30.7624  -19.7072 C   0  0  0  0  0  0  0  0  0  0  0  0
    3.0739  -32.0247  -17.8325 H   0  0  0  0  0  0  0  0  0  0  0  0
    0.1795  -31.6628  -20.0679 H   0  0  0  0  0  0  0  0  0  0  0  0
    3.5896  -29.0461  -20.6101 H   0  0  0  0  0  0  0  0  0  0  0  0
    5.5310  -31.7546  -18.3117 C   0  0  0  0  0  0  0  0  0  0  0  0
    5.4373  -31.1153  -17.0387 O   0  0  0  0  0  0  0  0  0  0  0  0
    5.9179  -30.2731  -17.0636 H   0  0  0  0  0  0  0  0  0  0  0  0
  1  2  1  0  0  0
  1  8  2  0  0  0
  1 12  1  0  0  0
  2  5  1  0  0  0
  2  7  1  0  0  0
  3  4  1  0  0  0
  3  9  1  0  0  0
  3 12  1  0  0  0
  4  5  1  0  0  0
  4 11  1  0  0  0
  5 16  1  0  0  0
 16 17  1  0  0  0
  6  7  2  0  0  0
  6  8  1  0  0  0
 10 12  1  0  0  0
  9 13  1  0  0  0
 10 14  1  0  0  0
 11 15  1  0  0  0
 17 18  1  0  0  0
M  END
> <minimizedAffinity>
-6.66039

$$$$
4AYQ_MVL_A_503


 18 19  0  0  0  0  0  0  0  0999 V2000
    4.1841  -31.1271  -21.6548 C   0  0  0  0  0  0  0  0  0  0  0  0
    3.1985  -31.5398  -20.8449 N   0  0  0  0  0  0  0  0  0  0  0  0
    5.2419  -29.8630  -19.8439 C   0  0  0  0  0  0  0  0  0  0  0  0
    4.5431  -30.8291  -18.8746 C   0  0  0  0  0  0  0  0  0  0  0  0
    3.1908  -31.3283  -19.3648 C   0  0  0  0  0  0  0  0  0  0  0  0
    2.6157  -32.0631  -22.8885 C   0  0  0  0  0  0  0  0  0  0  0  0
    2.2283  -32.1256  -21.5993 C   0  0  0  0  0  0  0  0  0  0  0  0
    3.8196  -31.4455  -22.8976 N   0  0  0  0  0  0  0  0  0  0  0  0
    4.4698  -28.6815  -20.0288 O   0  0  0  0  0  0  0  0  0  0  0  0
    5.9188  -29.5144  -22.1087 O   0  0  0  0  0  0  0  0  0  0  0  0
    5.3810  -31.9634  -18.6588 O   0  0  0  0  0  0  0  0  0  0  0  0
    5.4511  -30.5017  -21.1991 C   0  0  0  0  0  0  0  0  0  0  0  0
    3.6144  -28.9127  -20.4235 H   0  0  0  0  0  0  0  0  0  0  0  0
    6.0554  -29.9169  -22.9806 H   0  0  0  0  0  0  0  0  0  0  0  0
    5.5100  -32.4343  -19.4970 H   0  0  0  0  0  0  0  0  0  0  0  0
    2.0915  -30.3239  -18.9989 C   0  0  0  0  0  0  0  0  0  0  0  0
    2.4035  -29.5781  -17.8223 O   0  0  0  0  0  0  0  0  0  0  0  0
    2.4917  -30.1836  -17.0696 H   0  0  0  0  0  0  0  0  0  0  0  0
  1  2  1  0  0  0
  1  8  2  0  0  0
  1 12  1  0  0  0
  2  5  1  0  0  0
  2  7  1  0  0  0
  3  4  1  0  0  0
  3  9  1  0  0  0
  3 12  1  0  0  0
  4  5  1  0  0  0
  4 11  1  0  0  0
  5 16  1  0  0  0
 16 17  1  0  0  0
  6  7  2  0  0  0
  6  8  1  0  0  0
 10 12  1  0  0  0
  9 13  1  0  0  0
 10 14  1  0  0  0
 11 15  1  0  0  0
 17 18  1  0  0  0
M  END
> <minimizedAffinity>
-6.64114

$$$$
4AYQ_MVL_A_503


 18 19  0  0  0  0  0  0  0  0999 V2000
    2.6919  -32.2728  -20.7159 C   0  0  0  0  0  0  0  0  0  0  0  0
    3.1148  -31.0510  -21.0708 N   0  0  0  0  0  0  0  0  0  0  0  0
    2.8777  -31.7259  -18.3364 C   0  0  0  0  0  0  0  0  0  0  0  0
    2.7101  -30.2549  -18.7476 C   0  0  0  0  0  0  0  0  0  0  0  0
    3.3024  -29.9209  -20.1099 C   0  0  0  0  0  0  0  0  0  0  0  0
    3.1118  -32.2830  -22.8797 C   0  0  0  0  0  0  0  0  0  0  0  0
    3.3699  -31.0472  -22.4082 C   0  0  0  0  0  0  0  0  0  0  0  0
    2.6972  -33.0181  -21.8221 N   0  0  0  0  0  0  0  0  0  0  0  0
    4.2548  -32.0679  -18.2215 O   0  0  0  0  0  0  0  0  0  0  0  0
    2.5957  -33.9948  -19.0303 O   0  0  0  0  0  0  0  0  0  0  0  0
    1.3206  -29.9329  -18.7790 O   0  0  0  0  0  0  0  0  0  0  0  0
    2.2485  -32.6542  -19.3515 C   0  0  0  0  0  0  0  0  0  0  0  0
    4.6873  -31.9613  -19.0832 H   0  0  0  0  0  0  0  0  0  0  0  0
    2.1955  -34.5964  -19.6774 H   0  0  0  0  0  0  0  0  0  0  0  0
    0.8781  -30.4754  -19.4505 H   0  0  0  0  0  0  0  0  0  0  0  0
    4.7976  -29.6092  -19.9749 C   0  0  0  0  0  0  0  0  0  0  0  0
    5.0376  -28.2964  -19.4681 O   0  0  0  0  0  0  0  0  0  0  0  0
    4.6688  -27.6409  -20.0807 H   0  0  0  0  0  0  0  0  0  0  0  0
  1  2  1  0  0  0
  1  8  2  0  0  0
  1 12  1  0  0  0
  2  5  1  0  0  0
  2  7  1  0  0  0
  3  4  1  0  0  0
  3  9  1  0  0  0
  3 12  1  0  0  0
  4  5  1  0  0  0
  4 11  1  0  0  0
  5 16  1  0  0  0
 16 17  1  0  0  0
  6  7  2  0  0  0
  6  8  1  0  0  0
 10 12  1  0  0  0
  9 13  1  0  0  0
 10 14  1  0  0  0
 11 15  1  0  0  0
 17 18  1  0  0  0
M  END
> <minimizedAffinity>
-6.50992

$$$$
4AYQ_MVL_A_503


 18 19  0  0  0  0  0  0  0  0999 V2000
    3.5588  -30.9104  -21.0012 C   0  0  0  0  0  0  0  0  0  0  0  0
    4.4580  -30.4430  -20.1233 N   0  0  0  0  0  0  0  0  0  0  0  0
    2.1412  -31.7733  -19.2007 C   0  0  0  0  0  0  0  0  0  0  0  0
    2.7899  -30.7140  -18.2962 C   0  0  0  0  0  0  0  0  0  0  0  0
    4.2394  -30.4052  -18.6448 C   0  0  0  0  0  0  0  0  0  0  0  0
    5.3674  -30.3118  -22.1098 C   0  0  0  0  0  0  0  0  0  0  0  0
    5.5762  -30.0646  -20.8016 C   0  0  0  0  0  0  0  0  0  0  0  0
    4.1218  -30.8312  -22.2077 N   0  0  0  0  0  0  0  0  0  0  0  0
    2.8121  -33.0232  -19.0816 O   0  0  0  0  0  0  0  0  0  0  0  0
    1.7544  -32.4428  -21.4615 O   0  0  0  0  0  0  0  0  0  0  0  0
    2.0452  -29.5005  -18.3879 O   0  0  0  0  0  0  0  0  0  0  0  0
    2.1858  -31.3554  -20.6538 C   0  0  0  0  0  0  0  0  0  0  0  0
    3.7324  -32.9251  -19.3717 H   0  0  0  0  0  0  0  0  0  0  0  0
    1.7803  -32.1820  -22.3955 H   0  0  0  0  0  0  0  0  0  0  0  0
    2.0806  -29.1675  -19.2983 H   0  0  0  0  0  0  0  0  0  0  0  0
    5.1735  -31.4135  -17.9652 C   0  0  0  0  0  0  0  0  0  0  0  0
    5.5086  -32.5078  -18.8184 O   0  0  0  0  0  0  0  0  0  0  0  0
    4.7018  -32.9903  -19.0575 H   0  0  0  0  0  0  0  0  0  0  0  0
  1  2  1  0  0  0
  1  8  2  0  0  0
  1 12  1  0  0  0
  2  5  1  0  0  0
  2  7  1  0  0  0
  3  4  1  0  0  0
  3  9  1  0  0  0
  3 12  1  0  0  0
  4  5  1  0  0  0
  4 11  1  0  0  0
  5 16  1  0  0  0
 16 17  1  0  0  0
  6  7  2  0  0  0
  6  8  1  0  0  0
 10 12  1  0  0  0
  9 13  1  0  0  0
 10 14  1  0  0  0
 11 15  1  0  0  0
 17 18  1  0  0  0
M  END
> <minimizedAffinity>
-6.29712

$$$$
4AYQ_MVL_A_503


 18 19  0  0  0  0  0  0  0  0999 V2000
    2.3084  -32.0022  -19.9081 C   0  0  0  0  0  0  0  0  0  0  0  0
    2.5290  -30.6929  -19.7216 N   0  0  0  0  0  0  0  0  0  0  0  0
    4.7004  -32.5020  -19.7520 C   0  0  0  0  0  0  0  0  0  0  0  0
    4.8307  -31.2111  -18.9288 C   0  0  0  0  0  0  0  0  0  0  0  0
    3.8530  -30.1165  -19.3339 C   0  0  0  0  0  0  0  0  0  0  0  0
    0.4421  -30.9131  -20.3433 C   0  0  0  0  0  0  0  0  0  0  0  0
    1.3782  -30.0136  -19.9820 C   0  0  0  0  0  0  0  0  0  0  0  0
    1.0368  -32.1274  -20.2908 N   0  0  0  0  0  0  0  0  0  0  0  0
    4.9837  -32.2596  -21.1258 O   0  0  0  0  0  0  0  0  0  0  0  0
    3.1795  -34.1482  -20.5803 O   0  0  0  0  0  0  0  0  0  0  0  0
    4.6126  -31.5104  -17.5509 O   0  0  0  0  0  0  0  0  0  0  0  0
    3.3036  -33.0747  -19.6567 C   0  0  0  0  0  0  0  0  0  0  0  0
    4.3398  -31.6277  -21.4821 H   0  0  0  0  0  0  0  0  0  0  0  0
    2.2856  -34.5207  -20.5248 H   0  0  0  0  0  0  0  0  0  0  0  0
    3.7091  -31.8424  -17.4313 H   0  0  0  0  0  0  0  0  0  0  0  0
    4.4202  -29.3078  -20.5066 C   0  0  0  0  0  0  0  0  0  0  0  0
    4.4358  -27.9045  -20.2447 O   0  0  0  0  0  0  0  0  0  0  0  0
    3.5286  -27.5922  -20.1016 H   0  0  0  0  0  0  0  0  0  0  0  0
  1  2  1  0  0  0
  1  8  2  0  0  0
  1 12  1  0  0  0
  2  5  1  0  0  0
  2  7  1  0  0  0
  3  4  1  0  0  0
  3  9  1  0  0  0
  3 12  1  0  0  0
  4  5  1  0  0  0
  4 11  1  0  0  0
  5 16  1  0  0  0
 16 17  1  0  0  0
  6  7  2  0  0  0
  6  8  1  0  0  0
 10 12  1  0  0  0
  9 13  1  0  0  0
 10 14  1  0  0  0
 11 15  1  0  0  0
 17 18  1  0  0  0
M  END
> <minimizedAffinity>
-6.21769

$$$$
4AYQ_MVL_A_503


 18 19  0  0  0  0  0  0  0  0999 V2000
    2.4969  -30.9060  -20.7536 C   0  0  0  0  0  0  0  0  0  0  0  0
    2.3077  -31.6466  -19.6521 N   0  0  0  0  0  0  0  0  0  0  0  0
    4.8212  -30.4471  -20.1345 C   0  0  0  0  0  0  0  0  0  0  0  0
    4.7720  -31.7475  -19.3174 C   0  0  0  0  0  0  0  0  0  0  0  0
    3.4048  -32.0536  -18.7213 C   0  0  0  0  0  0  0  0  0  0  0  0
    0.3408  -31.3175  -20.5536 C   0  0  0  0  0  0  0  0  0  0  0  0
    0.9782  -31.9109  -19.5253 C   0  0  0  0  0  0  0  0  0  0  0  0
    1.2941  -30.7063  -21.2942 N   0  0  0  0  0  0  0  0  0  0  0  0
    4.5277  -29.3206  -19.3151 O   0  0  0  0  0  0  0  0  0  0  0  0
    3.7676  -29.1865  -21.8693 O   0  0  0  0  0  0  0  0  0  0  0  0
    5.1436  -32.8411  -20.1550 O   0  0  0  0  0  0  0  0  0  0  0  0
    3.8206  -30.4738  -21.2685 C   0  0  0  0  0  0  0  0  0  0  0  0
    3.6275  -29.4027  -18.9631 H   0  0  0  0  0  0  0  0  0  0  0  0
    3.1275  -29.1959  -22.5981 H   0  0  0  0  0  0  0  0  0  0  0  0
    4.5027  -32.9269  -20.8780 H   0  0  0  0  0  0  0  0  0  0  0  0
    3.2354  -31.3238  -17.3834 C   0  0  0  0  0  0  0  0  0  0  0  0
    2.8860  -32.2092  -16.3195 O   0  0  0  0  0  0  0  0  0  0  0  0
    2.0361  -32.6328  -16.5173 H   0  0  0  0  0  0  0  0  0  0  0  0
  1  2  1  0  0  0
  1  8  2  0  0  0
  1 12  1  0  0  0
  2  5  1  0  0  0
  2  7  1  0  0  0
  3  4  1  0  0  0
  3  9  1  0  0  0
  3 12  1  0  0  0
  4  5  1  0  0  0
  4 11  1  0  0  0
  5 16  1  0  0  0
 16 17  1  0  0  0
  6  7  2  0  0  0
  6  8  1  0  0  0
 10 12  1  0  0  0
  9 13  1  0  0  0
 10 14  1  0  0  0
 11 15  1  0  0  0
 17 18  1  0  0  0
M  END
> <minimizedAffinity>
-6.05537

$$$$
4AYQ_MVL_A_503


 18 19  0  0  0  0  0  0  0  0999 V2000
    3.7120  -31.5920  -20.6244 C   0  0  0  0  0  0  0  0  0  0  0  0
    3.0649  -30.4265  -20.4813 N   0  0  0  0  0  0  0  0  0  0  0  0
    2.0522  -32.7649  -19.2586 C   0  0  0  0  0  0  0  0  0  0  0  0
    1.0645  -31.6577  -19.6582 C   0  0  0  0  0  0  0  0  0  0  0  0
    1.7110  -30.2942  -19.8608 C   0  0  0  0  0  0  0  0  0  0  0  0
    5.0111  -29.9779  -21.3763 C   0  0  0  0  0  0  0  0  0  0  0  0
    3.8587  -29.4246  -20.9501 C   0  0  0  0  0  0  0  0  0  0  0  0
    4.8978  -31.3098  -21.1658 N   0  0  0  0  0  0  0  0  0  0  0  0
    2.6668  -32.4709  -18.0087 O   0  0  0  0  0  0  0  0  0  0  0  0
    4.1322  -33.8147  -19.7882 O   0  0  0  0  0  0  0  0  0  0  0  0
    0.4170  -32.0248  -20.8753 O   0  0  0  0  0  0  0  0  0  0  0  0
    3.1458  -32.9234  -20.2916 C   0  0  0  0  0  0  0  0  0  0  0  0
    3.1754  -31.6484  -18.0840 H   0  0  0  0  0  0  0  0  0  0  0  0
    4.8373  -33.9213  -20.4458 H   0  0  0  0  0  0  0  0  0  0  0  0
    1.0761  -32.0968  -21.5833 H   0  0  0  0  0  0  0  0  0  0  0  0
    1.8342  -29.5623  -18.5191 C   0  0  0  0  0  0  0  0  0  0  0  0
    3.0927  -29.7923  -17.8857 O   0  0  0  0  0  0  0  0  0  0  0  0
    3.1924  -30.7388  -17.6988 H   0  0  0  0  0  0  0  0  0  0  0  0
  1  2  1  0  0  0
  1  8  2  0  0  0
  1 12  1  0  0  0
  2  5  1  0  0  0
  2  7  1  0  0  0
  3  4  1  0  0  0
  3  9  1  0  0  0
  3 12  1  0  0  0
  4  5  1  0  0  0
  4 11  1  0  0  0
  5 16  1  0  0  0
 16 17  1  0  0  0
  6  7  2  0  0  0
  6  8  1  0  0  0
 10 12  1  0  0  0
  9 13  1  0  0  0
 10 14  1  0  0  0
 11 15  1  0  0  0
 17 18  1  0  0  0
M  END
> <minimizedAffinity>
-5.87899

$$$$
4AYQ_MVL_A_503


 18 19  0  0  0  0  0  0  0  0999 V2000
    4.9321  -31.5819  -19.9133 C   0  0  0  0  0  0  0  0  0  0  0  0
    3.9567  -30.8657  -19.3360 N   0  0  0  0  0  0  0  0  0  0  0  0
    3.6753  -31.7406  -22.0089 C   0  0  0  0  0  0  0  0  0  0  0  0
    2.9566  -30.4528  -21.5774 C   0  0  0  0  0  0  0  0  0  0  0  0
    2.7755  -30.3189  -20.0716 C   0  0  0  0  0  0  0  0  0  0  0  0
    5.3541  -31.4450  -17.7543 C   0  0  0  0  0  0  0  0  0  0  0  0
    4.2140  -30.7708  -18.0024 C   0  0  0  0  0  0  0  0  0  0  0  0
    5.7764  -31.9346  -18.9429 N   0  0  0  0  0  0  0  0  0  0  0  0
    2.9249  -32.8911  -21.6349 O   0  0  0  0  0  0  0  0  0  0  0  0
    5.5822  -33.1328  -21.6420 O   0  0  0  0  0  0  0  0  0  0  0  0
    3.7015  -29.3252  -22.0347 O   0  0  0  0  0  0  0  0  0  0  0  0
    5.0423  -31.8461  -21.3700 C   0  0  0  0  0  0  0  0  0  0  0  0
    2.8397  -32.9217  -20.6692 H   0  0  0  0  0  0  0  0  0  0  0  0
    6.4595  -33.2079  -21.2352 H   0  0  0  0  0  0  0  0  0  0  0  0
    4.5767  -29.3246  -21.6164 H   0  0  0  0  0  0  0  0  0  0  0  0
    1.5088  -31.0576  -19.6232 C   0  0  0  0  0  0  0  0  0  0  0  0
    1.0278  -30.5984  -18.3600 O   0  0  0  0  0  0  0  0  0  0  0  0
    1.7009  -30.7583  -17.6802 H   0  0  0  0  0  0  0  0  0  0  0  0
  1  2  1  0  0  0
  1  8  2  0  0  0
  1 12  1  0  0  0
  2  5  1  0  0  0
  2  7  1  0  0  0
  3  4  1  0  0  0
  3  9  1  0  0  0
  3 12  1  0  0  0
  4  5  1  0  0  0
  4 11  1  0  0  0
  5 16  1  0  0  0
 16 17  1  0  0  0
  6  7  2  0  0  0
  6  8  1  0  0  0
 10 12  1  0  0  0
  9 13  1  0  0  0
 10 14  1  0  0  0
 11 15  1  0  0  0
 17 18  1  0  0  0
M  END
> <minimizedAffinity>
-5.87404

$$$$
