4EXS_X8Z_B_301


 16 16  0  0  0  0  0  0  0  0999 V2000
  -43.5727    9.8753   -0.1952 O   0  0  0  0  0  0  0  0  0  0  0  0
  -44.2763    8.8744   -0.2436 C   0  0  0  0  0  0  0  0  0  0  0  0
  -43.8767    7.6802   -0.7100 N   0  0  0  0  0  0  0  0  0  0  0  0
  -42.5396    7.4938   -1.2715 C   0  0  0  0  0  0  0  0  0  0  0  0
  -44.6845    6.4619   -0.8040 C   0  0  0  0  0  0  0  0  0  0  0  0
  -43.6937    5.3487   -1.1043 C   0  0  0  0  0  0  0  0  0  0  0  0
  -42.3242    5.9902   -1.2252 C   0  0  0  0  0  0  0  0  0  0  0  0
  -42.4955    7.9708   -2.7130 C   0  0  0  0  0  0  0  0  0  0  0  0
  -43.4420    7.6804   -3.5037 O   0  0  0  0  0  0  0  0  0  0  0  0
  -41.4908    8.6385   -3.0740 O   0  0  0  0  0  0  0  0  0  0  0  0
  -40.8115    8.8325   -2.4585 H   0  0  0  0  0  0  0  0  0  0  0  0
  -45.6737    8.9982    0.2701 C   0  0  0  0  0  0  0  0  0  0  0  0
  -46.2225   10.3369   -0.2035 C   0  0  0  0  0  0  0  0  0  0  0  0
  -45.6080    8.9732    1.7873 C   0  0  0  0  0  0  0  0  0  0  0  0
  -46.2669    7.4472    2.4999 S   0  0  0  0  0  0  0  0  0  0  0  0
  -47.5816    7.3254    2.1739 H   0  0  0  0  0  0  0  0  0  0  0  0
  1  2  2  0  0  0
  2 12  1  0  0  0
  2  3  1  0  0  0
 12 14  1  0  0  0
 12 13  1  0  0  0
 14 15  1  0  0  0
  3  4  1  0  0  0
  3  5  1  0  0  0
  4  8  1  0  0  0
  4  7  1  0  0  0
  8  9  2  0  0  0
  8 10  1  0  0  0
  5  6  1  0  0  0
  6  7  1  0  0  0
 15 16  1  0  0  0
 10 11  1  0  0  0
M  END
> <minimizedAffinity>
-5.36036

$$$$
4EXS_X8Z_B_301


 16 16  0  0  0  0  0  0  0  0999 V2000
  -43.5248    9.3293   -0.6055 O   0  0  0  0  0  0  0  0  0  0  0  0
  -44.1356    8.2823   -0.7775 C   0  0  0  0  0  0  0  0  0  0  0  0
  -43.5642    7.1018   -1.0661 N   0  0  0  0  0  0  0  0  0  0  0  0
  -42.1200    6.9860   -1.2631 C   0  0  0  0  0  0  0  0  0  0  0  0
  -44.2518    5.8292   -1.2971 C   0  0  0  0  0  0  0  0  0  0  0  0
  -43.1564    4.7753   -1.2807 C   0  0  0  0  0  0  0  0  0  0  0  0
  -41.8394    5.5029   -1.0865 C   0  0  0  0  0  0  0  0  0  0  0  0
  -41.7379    7.4129   -2.6699 C   0  0  0  0  0  0  0  0  0  0  0  0
  -41.4071    6.5404   -3.5269 O   0  0  0  0  0  0  0  0  0  0  0  0
  -41.7531    8.6454   -2.9277 O   0  0  0  0  0  0  0  0  0  0  0  0
  -42.0041    9.2594   -2.2659 H   0  0  0  0  0  0  0  0  0  0  0  0
  -45.6224    8.3299   -0.6387 C   0  0  0  0  0  0  0  0  0  0  0  0
  -46.1815    8.9951   -1.8885 C   0  0  0  0  0  0  0  0  0  0  0  0
  -45.9416    9.1733    0.5835 C   0  0  0  0  0  0  0  0  0  0  0  0
  -46.8779   10.6690    0.1873 S   0  0  0  0  0  0  0  0  0  0  0  0
  -46.1413   11.4594   -0.6387 H   0  0  0  0  0  0  0  0  0  0  0  0
  1  2  2  0  0  0
  2 12  1  0  0  0
  2  3  1  0  0  0
 12 14  1  0  0  0
 12 13  1  0  0  0
 14 15  1  0  0  0
  3  4  1  0  0  0
  3  5  1  0  0  0
  4  8  1  0  0  0
  4  7  1  0  0  0
  8  9  2  0  0  0
  8 10  1  0  0  0
  5  6  1  0  0  0
  6  7  1  0  0  0
 15 16  1  0  0  0
 10 11  1  0  0  0
M  END
> <minimizedAffinity>
-4.98526

$$$$
4EXS_X8Z_B_301


 16 16  0  0  0  0  0  0  0  0999 V2000
  -41.7555    7.4604   -1.9469 O   0  0  0  0  0  0  0  0  0  0  0  0
  -42.7469    6.7456   -1.8750 C   0  0  0  0  0  0  0  0  0  0  0  0
  -44.0124    7.1936   -1.8434 N   0  0  0  0  0  0  0  0  0  0  0  0
  -44.3104    8.6251   -1.8318 C   0  0  0  0  0  0  0  0  0  0  0  0
  -45.2268    6.3810   -1.7407 C   0  0  0  0  0  0  0  0  0  0  0  0
  -46.3712    7.3335   -2.0474 C   0  0  0  0  0  0  0  0  0  0  0  0
  -45.7628    8.7051   -2.2716 C   0  0  0  0  0  0  0  0  0  0  0  0
  -44.1715    9.1871   -0.4274 C   0  0  0  0  0  0  0  0  0  0  0  0
  -45.1118    9.0379    0.4086 O   0  0  0  0  0  0  0  0  0  0  0  0
  -43.1091    9.8038   -0.1505 O   0  0  0  0  0  0  0  0  0  0  0  0
  -42.4368    9.8926   -0.7971 H   0  0  0  0  0  0  0  0  0  0  0  0
  -42.5212    5.2692   -1.8355 C   0  0  0  0  0  0  0  0  0  0  0  0
  -42.0235    4.9156   -0.4411 C   0  0  0  0  0  0  0  0  0  0  0  0
  -41.4535    4.9414   -2.8648 C   0  0  0  0  0  0  0  0  0  0  0  0
  -42.1030    4.8319   -4.5491 S   0  0  0  0  0  0  0  0  0  0  0  0
  -43.0185    3.8285   -4.6176 H   0  0  0  0  0  0  0  0  0  0  0  0
  1  2  2  0  0  0
  2 12  1  0  0  0
  2  3  1  0  0  0
 12 14  1  0  0  0
 12 13  1  0  0  0
 14 15  1  0  0  0
  3  4  1  0  0  0
  3  5  1  0  0  0
  4  8  1  0  0  0
  4  7  1  0  0  0
  8  9  2  0  0  0
  8 10  1  0  0  0
  5  6  1  0  0  0
  6  7  1  0  0  0
 15 16  1  0  0  0
 10 11  1  0  0  0
M  END
> <minimizedAffinity>
-4.92408

$$$$
4EXS_X8Z_B_301


 16 16  0  0  0  0  0  0  0  0999 V2000
  -44.3033    6.2224   -2.9055 O   0  0  0  0  0  0  0  0  0  0  0  0
  -43.7418    7.0499   -2.1991 C   0  0  0  0  0  0  0  0  0  0  0  0
  -44.3717    7.9426   -1.4183 N   0  0  0  0  0  0  0  0  0  0  0  0
  -45.8307    8.0366   -1.3980 C   0  0  0  0  0  0  0  0  0  0  0  0
  -43.7459    8.9607   -0.5712 C   0  0  0  0  0  0  0  0  0  0  0  0
  -44.8654    9.4881    0.3117 C   0  0  0  0  0  0  0  0  0  0  0  0
  -46.1369    8.7726   -0.1041 C   0  0  0  0  0  0  0  0  0  0  0  0
  -46.3289    8.8524   -2.5785 C   0  0  0  0  0  0  0  0  0  0  0  0
  -47.0905    9.8459   -2.3833 O   0  0  0  0  0  0  0  0  0  0  0  0
  -45.9669    8.4909   -3.7291 O   0  0  0  0  0  0  0  0  0  0  0  0
  -45.4023    7.7501   -3.8314 H   0  0  0  0  0  0  0  0  0  0  0  0
  -42.2478    7.0471   -2.2021 C   0  0  0  0  0  0  0  0  0  0  0  0
  -41.7899    6.6636   -3.6022 C   0  0  0  0  0  0  0  0  0  0  0  0
  -41.7897    5.9994   -1.2024 C   0  0  0  0  0  0  0  0  0  0  0  0
  -41.3192    4.4359   -1.9802 S   0  0  0  0  0  0  0  0  0  0  0  0
  -42.3957    3.9061   -2.6204 H   0  0  0  0  0  0  0  0  0  0  0  0
  1  2  2  0  0  0
  2 12  1  0  0  0
  2  3  1  0  0  0
 12 14  1  0  0  0
 12 13  1  0  0  0
 14 15  1  0  0  0
  3  4  1  0  0  0
  3  5  1  0  0  0
  4  8  1  0  0  0
  4  7  1  0  0  0
  8  9  2  0  0  0
  8 10  1  0  0  0
  5  6  1  0  0  0
  6  7  1  0  0  0
 15 16  1  0  0  0
 10 11  1  0  0  0
M  END
> <minimizedAffinity>
-4.65873

$$$$
4EXS_X8Z_B_301


 16 16  0  0  0  0  0  0  0  0999 V2000
  -43.3604    4.6061   -0.7555 O   0  0  0  0  0  0  0  0  0  0  0  0
  -43.9175    5.5629   -0.2330 C   0  0  0  0  0  0  0  0  0  0  0  0
  -44.1414    6.7412   -0.8369 N   0  0  0  0  0  0  0  0  0  0  0  0
  -43.6655    7.0002   -2.1950 C   0  0  0  0  0  0  0  0  0  0  0  0
  -44.7863    7.9179   -0.2493 C   0  0  0  0  0  0  0  0  0  0  0  0
  -45.0583    8.8496   -1.4193 C   0  0  0  0  0  0  0  0  0  0  0  0
  -44.5008    8.1809   -2.6617 C   0  0  0  0  0  0  0  0  0  0  0  0
  -42.1972    7.3888   -2.1804 C   0  0  0  0  0  0  0  0  0  0  0  0
  -41.7190    8.0867   -3.1236 O   0  0  0  0  0  0  0  0  0  0  0  0
  -41.4973    6.9805   -1.2165 O   0  0  0  0  0  0  0  0  0  0  0  0
  -41.8888    6.4663   -0.5380 H   0  0  0  0  0  0  0  0  0  0  0  0
  -44.3919    5.3908    1.1732 C   0  0  0  0  0  0  0  0  0  0  0  0
  -43.4818    4.3728    1.8459 C   0  0  0  0  0  0  0  0  0  0  0  0
  -45.8125    4.8565    1.1152 C   0  0  0  0  0  0  0  0  0  0  0  0
  -46.8730    5.5202    2.4212 S   0  0  0  0  0  0  0  0  0  0  0  0
  -46.3789    5.1566    3.6350 H   0  0  0  0  0  0  0  0  0  0  0  0
  1  2  2  0  0  0
  2 12  1  0  0  0
  2  3  1  0  0  0
 12 14  1  0  0  0
 12 13  1  0  0  0
 14 15  1  0  0  0
  3  4  1  0  0  0
  3  5  1  0  0  0
  4  8  1  0  0  0
  4  7  1  0  0  0
  8  9  2  0  0  0
  8 10  1  0  0  0
  5  6  1  0  0  0
  6  7  1  0  0  0
 15 16  1  0  0  0
 10 11  1  0  0  0
M  END
> <minimizedAffinity>
-4.60524

$$$$
4EXS_X8Z_B_301


 16 16  0  0  0  0  0  0  0  0999 V2000
  -42.6600    2.0265   -3.6575 O   0  0  0  0  0  0  0  0  0  0  0  0
  -42.2259    2.8167   -2.8292 C   0  0  0  0  0  0  0  0  0  0  0  0
  -42.1129    4.1410   -3.0210 N   0  0  0  0  0  0  0  0  0  0  0  0
  -42.4567    4.7539   -4.3032 C   0  0  0  0  0  0  0  0  0  0  0  0
  -41.5850    5.1218   -2.0697 C   0  0  0  0  0  0  0  0  0  0  0  0
  -41.9542    6.4779   -2.6489 C   0  0  0  0  0  0  0  0  0  0  0  0
  -42.6542    6.2236   -3.9706 C   0  0  0  0  0  0  0  0  0  0  0  0
  -41.3116    4.6042   -5.2899 C   0  0  0  0  0  0  0  0  0  0  0  0
  -40.1885    5.1342   -5.0393 O   0  0  0  0  0  0  0  0  0  0  0  0
  -41.5354    3.9562   -6.3462 O   0  0  0  0  0  0  0  0  0  0  0  0
  -42.3802    3.5792   -6.4944 H   0  0  0  0  0  0  0  0  0  0  0  0
  -41.8090    2.2583   -1.5077 C   0  0  0  0  0  0  0  0  0  0  0  0
  -40.9369    1.0399   -1.7759 C   0  0  0  0  0  0  0  0  0  0  0  0
  -43.0688    1.8407   -0.7689 C   0  0  0  0  0  0  0  0  0  0  0  0
  -43.5335    2.9920    0.5460 S   0  0  0  0  0  0  0  0  0  0  0  0
  -42.5440    3.0394    1.4778 H   0  0  0  0  0  0  0  0  0  0  0  0
  1  2  2  0  0  0
  2 12  1  0  0  0
  2  3  1  0  0  0
 12 14  1  0  0  0
 12 13  1  0  0  0
 14 15  1  0  0  0
  3  4  1  0  0  0
  3  5  1  0  0  0
  4  8  1  0  0  0
  4  7  1  0  0  0
  8  9  2  0  0  0
  8 10  1  0  0  0
  5  6  1  0  0  0
  6  7  1  0  0  0
 15 16  1  0  0  0
 10 11  1  0  0  0
M  END
> <minimizedAffinity>
-4.56203

$$$$
4EXS_X8Z_B_301


 16 16  0  0  0  0  0  0  0  0999 V2000
  -44.0345    5.0357   -3.0433 O   0  0  0  0  0  0  0  0  0  0  0  0
  -44.3276    5.3152   -1.8879 C   0  0  0  0  0  0  0  0  0  0  0  0
  -44.2707    6.5492   -1.3613 N   0  0  0  0  0  0  0  0  0  0  0  0
  -43.7787    7.6846   -2.1404 C   0  0  0  0  0  0  0  0  0  0  0  0
  -44.5936    6.9294    0.0160 C   0  0  0  0  0  0  0  0  0  0  0  0
  -44.6572    8.4482    0.0059 C   0  0  0  0  0  0  0  0  0  0  0  0
  -44.3105    8.9006   -1.4000 C   0  0  0  0  0  0  0  0  0  0  0  0
  -42.2600    7.7124   -2.1413 C   0  0  0  0  0  0  0  0  0  0  0  0
  -41.6147    7.0064   -1.3104 O   0  0  0  0  0  0  0  0  0  0  0  0
  -41.6928    8.4635   -2.9779 O   0  0  0  0  0  0  0  0  0  0  0  0
  -42.2061    8.9702   -3.5761 H   0  0  0  0  0  0  0  0  0  0  0  0
  -44.7958    4.1975   -1.0141 C   0  0  0  0  0  0  0  0  0  0  0  0
  -43.6449    3.2118   -0.8693 C   0  0  0  0  0  0  0  0  0  0  0  0
  -45.9658    3.5280   -1.7142 C   0  0  0  0  0  0  0  0  0  0  0  0
  -47.4268    4.5882   -1.8235 S   0  0  0  0  0  0  0  0  0  0  0  0
  -47.8583    4.8960   -0.5710 H   0  0  0  0  0  0  0  0  0  0  0  0
  1  2  2  0  0  0
  2 12  1  0  0  0
  2  3  1  0  0  0
 12 14  1  0  0  0
 12 13  1  0  0  0
 14 15  1  0  0  0
  3  4  1  0  0  0
  3  5  1  0  0  0
  4  8  1  0  0  0
  4  7  1  0  0  0
  8  9  2  0  0  0
  8 10  1  0  0  0
  5  6  1  0  0  0
  6  7  1  0  0  0
 15 16  1  0  0  0
 10 11  1  0  0  0
M  END
> <minimizedAffinity>
-4.43819

$$$$
4EXS_X8Z_B_301


 16 16  0  0  0  0  0  0  0  0999 V2000
  -45.2745    8.3234   -0.8505 O   0  0  0  0  0  0  0  0  0  0  0  0
  -45.0680    7.1190   -0.9265 C   0  0  0  0  0  0  0  0  0  0  0  0
  -43.8660    6.5611   -1.1439 N   0  0  0  0  0  0  0  0  0  0  0  0
  -42.6787    7.3829   -1.3745 C   0  0  0  0  0  0  0  0  0  0  0  0
  -43.5724    5.1307   -1.2598 C   0  0  0  0  0  0  0  0  0  0  0  0
  -42.0569    5.0283   -1.1980 C   0  0  0  0  0  0  0  0  0  0  0  0
  -41.5175    6.4427   -1.0971 C   0  0  0  0  0  0  0  0  0  0  0  0
  -42.6243    7.8474   -2.8196 C   0  0  0  0  0  0  0  0  0  0  0  0
  -43.5263    7.4874   -3.6333 O   0  0  0  0  0  0  0  0  0  0  0  0
  -41.6557    8.5765   -3.1598 O   0  0  0  0  0  0  0  0  0  0  0  0
  -41.0087    8.8211   -2.5277 H   0  0  0  0  0  0  0  0  0  0  0  0
  -46.2428    6.2135   -0.7477 C   0  0  0  0  0  0  0  0  0  0  0  0
  -47.2535    6.5486   -1.8356 C   0  0  0  0  0  0  0  0  0  0  0  0
  -46.8391    6.5013    0.6193 C   0  0  0  0  0  0  0  0  0  0  0  0
  -45.7939    5.9339    1.9818 S   0  0  0  0  0  0  0  0  0  0  0  0
  -45.6457    4.5840    1.9077 H   0  0  0  0  0  0  0  0  0  0  0  0
  1  2  2  0  0  0
  2 12  1  0  0  0
  2  3  1  0  0  0
 12 14  1  0  0  0
 12 13  1  0  0  0
 14 15  1  0  0  0
  3  4  1  0  0  0
  3  5  1  0  0  0
  4  8  1  0  0  0
  4  7  1  0  0  0
  8  9  2  0  0  0
  8 10  1  0  0  0
  5  6  1  0  0  0
  6  7  1  0  0  0
 15 16  1  0  0  0
 10 11  1  0  0  0
M  END
> <minimizedAffinity>
-4.41817

$$$$
4EXS_X8Z_B_301


 16 16  0  0  0  0  0  0  0  0999 V2000
  -44.3353    7.8488   -3.2145 O   0  0  0  0  0  0  0  0  0  0  0  0
  -44.1023    7.2072   -2.1982 C   0  0  0  0  0  0  0  0  0  0  0  0
  -44.7312    7.3788   -1.0241 N   0  0  0  0  0  0  0  0  0  0  0  0
  -45.7376    8.4248   -0.8483 C   0  0  0  0  0  0  0  0  0  0  0  0
  -44.4763    6.6498    0.2206 C   0  0  0  0  0  0  0  0  0  0  0  0
  -45.6370    7.0053    1.1358 C   0  0  0  0  0  0  0  0  0  0  0  0
  -46.5129    7.9900    0.3843 C   0  0  0  0  0  0  0  0  0  0  0  0
  -45.0731    9.7652   -0.5858 C   0  0  0  0  0  0  0  0  0  0  0  0
  -43.8799    9.8066   -0.1618 O   0  0  0  0  0  0  0  0  0  0  0  0
  -45.7560   10.8029   -0.7923 O   0  0  0  0  0  0  0  0  0  0  0  0
  -46.6357   10.7300   -1.1064 H   0  0  0  0  0  0  0  0  0  0  0  0
  -43.0513    6.1491   -2.2861 C   0  0  0  0  0  0  0  0  0  0  0  0
  -41.7431    6.7565   -1.7994 C   0  0  0  0  0  0  0  0  0  0  0  0
  -42.9248    5.7492   -3.7460 C   0  0  0  0  0  0  0  0  0  0  0  0
  -41.3666    4.9102   -4.1183 S   0  0  0  0  0  0  0  0  0  0  0  0
  -40.3274    5.7493   -3.8622 H   0  0  0  0  0  0  0  0  0  0  0  0
  1  2  2  0  0  0
  2 12  1  0  0  0
  2  3  1  0  0  0
 12 14  1  0  0  0
 12 13  1  0  0  0
 14 15  1  0  0  0
  3  4  1  0  0  0
  3  5  1  0  0  0
  4  8  1  0  0  0
  4  7  1  0  0  0
  8  9  2  0  0  0
  8 10  1  0  0  0
  5  6  1  0  0  0
  6  7  1  0  0  0
 15 16  1  0  0  0
 10 11  1  0  0  0
M  END
> <minimizedAffinity>
-4.37957

$$$$
4EXS_X8Z_B_301


 16 16  0  0  0  0  0  0  0  0999 V2000
  -45.3669    5.8592    0.9233 O   0  0  0  0  0  0  0  0  0  0  0  0
  -44.2898    5.5133    0.4551 C   0  0  0  0  0  0  0  0  0  0  0  0
  -43.6015    6.2013   -0.4702 N   0  0  0  0  0  0  0  0  0  0  0  0
  -44.1353    7.4310   -1.0539 C   0  0  0  0  0  0  0  0  0  0  0  0
  -42.3212    5.8208   -1.0717 C   0  0  0  0  0  0  0  0  0  0  0  0
  -41.8435    7.0606   -1.8104 C   0  0  0  0  0  0  0  0  0  0  0  0
  -42.9167    8.1201   -1.6454 C   0  0  0  0  0  0  0  0  0  0  0  0
  -45.1260    7.1100   -2.1597 C   0  0  0  0  0  0  0  0  0  0  0  0
  -45.3328    7.9494   -3.0859 O   0  0  0  0  0  0  0  0  0  0  0  0
  -45.7242    6.0035   -2.1010 O   0  0  0  0  0  0  0  0  0  0  0  0
  -45.5431    5.4096   -1.3992 H   0  0  0  0  0  0  0  0  0  0  0  0
  -43.7007    4.2401    0.9689 C   0  0  0  0  0  0  0  0  0  0  0  0
  -44.5538    3.0929    0.4461 C   0  0  0  0  0  0  0  0  0  0  0  0
  -43.7661    4.2844    2.4858 C   0  0  0  0  0  0  0  0  0  0  0  0
  -44.9259    3.0831    3.1802 S   0  0  0  0  0  0  0  0  0  0  0  0
  -46.1821    3.3571    2.7370 H   0  0  0  0  0  0  0  0  0  0  0  0
  1  2  2  0  0  0
  2 12  1  0  0  0
  2  3  1  0  0  0
 12 14  1  0  0  0
 12 13  1  0  0  0
 14 15  1  0  0  0
  3  4  1  0  0  0
  3  5  1  0  0  0
  4  8  1  0  0  0
  4  7  1  0  0  0
  8  9  2  0  0  0
  8 10  1  0  0  0
  5  6  1  0  0  0
  6  7  1  0  0  0
 15 16  1  0  0  0
 10 11  1  0  0  0
M  END
> <minimizedAffinity>
-4.36751

$$$$
