4H42_11E_U_301


 21 22  0  0  0  0  0  0  0  0999 V2000
  -28.3539  -15.3732   10.7350 C   0  0  0  0  0  0  0  0  0  0  0  0
  -27.3127  -14.4844   10.3915 C   0  0  0  0  0  0  0  0  0  0  0  0
  -29.3747  -15.0088   11.6146 C   0  0  0  0  0  0  0  0  0  0  0  0
  -29.3116  -13.7251   12.1331 C   0  0  0  0  0  0  0  0  0  0  0  0
  -30.4647  -13.1372   13.1740 S   0  0  0  0  0  0  0  0  0  0  0  0
  -28.2933  -12.7984   11.7977 C   0  0  0  0  0  0  0  0  0  0  0  0
  -27.2943  -13.1888   10.9016 C   0  0  0  0  0  0  0  0  0  0  0  0
  -28.4925  -11.5982   12.4508 N   0  0  0  0  0  0  0  0  0  0  0  0
  -29.6144  -11.6257   13.2114 C   0  0  0  0  0  0  0  0  0  0  0  0
  -30.0026  -10.5544   13.9266 N   0  0  0  0  0  0  0  0  0  0  0  0
  -30.8210  -10.5970   14.4721 H   0  0  0  0  0  0  0  0  0  0  0  0
  -29.4682   -9.7279   13.9046 H   0  0  0  0  0  0  0  0  0  0  0  0
  -29.4386  -17.4200   10.3969 N   0  0  0  0  0  0  0  0  0  0  0  0
  -28.3218  -16.7456   10.1914 C   0  0  0  0  0  0  0  0  0  0  0  0
  -27.3199  -17.2113    9.6820 O   0  0  0  0  0  0  0  0  0  0  0  0
  -30.1624  -16.9572   10.8778 H   0  0  0  0  0  0  0  0  0  0  0  0
  -29.6839  -18.7572    9.9826 C   0  0  0  0  0  0  0  0  0  0  0  0
  -30.8233  -18.4382   11.9880 O   0  0  0  0  0  0  0  0  0  0  0  0
  -30.7615  -18.9765   10.9253 C   0  0  0  0  0  0  0  0  0  0  0  0
  -31.6118  -19.6566   10.5517 O   0  0  0  0  0  0  0  0  0  0  0  0
  -30.1216  -17.8880   12.2760 H   0  0  0  0  0  0  0  0  0  0  0  0
 20 19  2  0  0  0
 18 19  1  0  0  0
  5  9  1  0  0  0
  5  4  1  0  0  0
 19 17  1  0  0  0
 10  9  1  0  0  0
  9  8  2  0  0  0
  4  3  2  0  0  0
  4  6  1  0  0  0
  3  1  1  0  0  0
 17 13  1  0  0  0
 13 14  1  0  0  0
  8  6  1  0  0  0
  6  7  2  0  0  0
  1 14  1  0  0  0
  1  2  2  0  0  0
 14 15  2  0  0  0
  7  2  1  0  0  0
 18 21  1  0  0  0
 13 16  1  0  0  0
 10 11  1  0  0  0
 10 12  1  0  0  0
M  END
> <minimizedAffinity>
-7.15141

$$$$
4H42_11E_U_301


 21 22  0  0  0  0  0  0  0  0999 V2000
  -27.6067  -15.4843   10.9068 C   0  0  0  0  0  0  0  0  0  0  0  0
  -28.1178  -15.4702   12.2224 C   0  0  0  0  0  0  0  0  0  0  0  0
  -28.0434  -16.4080    9.9557 C   0  0  0  0  0  0  0  0  0  0  0  0
  -29.0079  -17.3117   10.3727 C   0  0  0  0  0  0  0  0  0  0  0  0
  -29.6436  -18.4564    9.3507 S   0  0  0  0  0  0  0  0  0  0  0  0
  -29.5585  -17.3168   11.6784 C   0  0  0  0  0  0  0  0  0  0  0  0
  -29.1115  -16.3686   12.6027 C   0  0  0  0  0  0  0  0  0  0  0  0
  -30.5048  -18.3145   11.8042 N   0  0  0  0  0  0  0  0  0  0  0  0
  -30.6651  -18.9974   10.6441 C   0  0  0  0  0  0  0  0  0  0  0  0
  -31.5474  -20.0079   10.5421 N   0  0  0  0  0  0  0  0  0  0  0  0
  -31.6472  -20.4901    9.6895 H   0  0  0  0  0  0  0  0  0  0  0  0
  -32.0933  -20.2653   11.3199 H   0  0  0  0  0  0  0  0  0  0  0  0
  -25.3470  -15.0932   10.4369 N   0  0  0  0  0  0  0  0  0  0  0  0
  -26.5364  -14.5309   10.5525 C   0  0  0  0  0  0  0  0  0  0  0  0
  -26.7446  -13.3355   10.4639 O   0  0  0  0  0  0  0  0  0  0  0  0
  -25.2902  -16.0635   10.5932 H   0  0  0  0  0  0  0  0  0  0  0  0
  -24.1421  -14.4159   10.1058 C   0  0  0  0  0  0  0  0  0  0  0  0
  -24.3614  -15.9432    8.3620 O   0  0  0  0  0  0  0  0  0  0  0  0
  -24.1569  -14.8225    8.7157 C   0  0  0  0  0  0  0  0  0  0  0  0
  -24.0321  -13.9702    7.9521 O   0  0  0  0  0  0  0  0  0  0  0  0
  -24.4604  -16.6244    8.9977 H   0  0  0  0  0  0  0  0  0  0  0  0
 20 19  2  0  0  0
 18 19  1  0  0  0
  5  9  1  0  0  0
  5  4  1  0  0  0
 19 17  1  0  0  0
 10  9  1  0  0  0
  9  8  2  0  0  0
  4  3  2  0  0  0
  4  6  1  0  0  0
  3  1  1  0  0  0
 17 13  1  0  0  0
 13 14  1  0  0  0
  8  6  1  0  0  0
  6  7  2  0  0  0
  1 14  1  0  0  0
  1  2  2  0  0  0
 14 15  2  0  0  0
  7  2  1  0  0  0
 18 21  1  0  0  0
 13 16  1  0  0  0
 10 11  1  0  0  0
 10 12  1  0  0  0
M  END
> <minimizedAffinity>
-6.99541

$$$$
4H42_11E_U_301


 21 22  0  0  0  0  0  0  0  0999 V2000
  -28.1700  -15.8521   11.4538 C   0  0  0  0  0  0  0  0  0  0  0  0
  -26.9533  -15.6978   12.1524 C   0  0  0  0  0  0  0  0  0  0  0  0
  -29.2687  -15.0254   11.6944 C   0  0  0  0  0  0  0  0  0  0  0  0
  -29.1007  -14.0427   12.6572 C   0  0  0  0  0  0  0  0  0  0  0  0
  -30.3077  -12.9676   13.0393 S   0  0  0  0  0  0  0  0  0  0  0  0
  -27.8894  -13.8449   13.3656 C   0  0  0  0  0  0  0  0  0  0  0  0
  -26.8027  -14.6793   13.0900 C   0  0  0  0  0  0  0  0  0  0  0  0
  -28.0078  -12.7891   14.2477 N   0  0  0  0  0  0  0  0  0  0  0  0
  -29.2355  -12.2182   14.1785 C   0  0  0  0  0  0  0  0  0  0  0  0
  -29.5623  -11.1639   14.9477 N   0  0  0  0  0  0  0  0  0  0  0  0
  -30.4600  -10.7651   14.8807 H   0  0  0  0  0  0  0  0  0  0  0  0
  -28.9038  -10.7910   15.5775 H   0  0  0  0  0  0  0  0  0  0  0  0
  -29.3900  -17.6810   10.6496 N   0  0  0  0  0  0  0  0  0  0  0  0
  -28.2955  -16.9603   10.4861 C   0  0  0  0  0  0  0  0  0  0  0  0
  -27.4191  -17.2119    9.6807 O   0  0  0  0  0  0  0  0  0  0  0  0
  -29.9979  -17.4183   11.3781 H   0  0  0  0  0  0  0  0  0  0  0  0
  -29.7646  -18.8038    9.8627 C   0  0  0  0  0  0  0  0  0  0  0  0
  -31.0470  -18.7486   11.8054 O   0  0  0  0  0  0  0  0  0  0  0  0
  -30.8948  -19.1594   10.6959 C   0  0  0  0  0  0  0  0  0  0  0  0
  -31.6934  -19.8152   10.1888 O   0  0  0  0  0  0  0  0  0  0  0  0
  -30.3863  -18.2159   12.2026 H   0  0  0  0  0  0  0  0  0  0  0  0
 20 19  2  0  0  0
 18 19  1  0  0  0
  5  9  1  0  0  0
  5  4  1  0  0  0
 19 17  1  0  0  0
 10  9  1  0  0  0
  9  8  2  0  0  0
  4  3  2  0  0  0
  4  6  1  0  0  0
  3  1  1  0  0  0
 17 13  1  0  0  0
 13 14  1  0  0  0
  8  6  1  0  0  0
  6  7  2  0  0  0
  1 14  1  0  0  0
  1  2  2  0  0  0
 14 15  2  0  0  0
  7  2  1  0  0  0
 18 21  1  0  0  0
 13 16  1  0  0  0
 10 11  1  0  0  0
 10 12  1  0  0  0
M  END
> <minimizedAffinity>
-6.49479

$$$$
4H42_11E_U_301


 21 22  0  0  0  0  0  0  0  0999 V2000
  -26.8372  -16.9081   13.0114 C   0  0  0  0  0  0  0  0  0  0  0  0
  -26.4241  -16.0649   11.9576 C   0  0  0  0  0  0  0  0  0  0  0  0
  -27.9310  -17.7660   12.8842 C   0  0  0  0  0  0  0  0  0  0  0  0
  -28.5906  -17.7460   11.6654 C   0  0  0  0  0  0  0  0  0  0  0  0
  -29.8951  -18.7256   11.3531 S   0  0  0  0  0  0  0  0  0  0  0  0
  -28.1945  -16.9278   10.5783 C   0  0  0  0  0  0  0  0  0  0  0  0
  -27.0854  -16.0915   10.7324 C   0  0  0  0  0  0  0  0  0  0  0  0
  -29.0231  -17.1266    9.4918 N   0  0  0  0  0  0  0  0  0  0  0  0
  -29.9690  -18.0623    9.7520 C   0  0  0  0  0  0  0  0  0  0  0  0
  -30.8767  -18.4178    8.8247 N   0  0  0  0  0  0  0  0  0  0  0  0
  -31.5547  -19.0998    9.0357 H   0  0  0  0  0  0  0  0  0  0  0  0
  -30.8628  -17.9961    7.9352 H   0  0  0  0  0  0  0  0  0  0  0  0
  -26.1033  -17.9739   14.9622 N   0  0  0  0  0  0  0  0  0  0  0  0
  -26.1239  -16.8303   14.3019 C   0  0  0  0  0  0  0  0  0  0  0  0
  -25.6806  -15.7807   14.7284 O   0  0  0  0  0  0  0  0  0  0  0  0
  -26.5514  -18.7441   14.5436 H   0  0  0  0  0  0  0  0  0  0  0  0
  -25.4888  -18.1868   16.2260 C   0  0  0  0  0  0  0  0  0  0  0  0
  -24.1776  -20.0172   15.6329 O   0  0  0  0  0  0  0  0  0  0  0  0
  -25.2318  -19.5936   15.9963 C   0  0  0  0  0  0  0  0  0  0  0  0
  -26.0990  -20.3023   16.2621 O   0  0  0  0  0  0  0  0  0  0  0  0
  -23.4828  -19.4254   15.4207 H   0  0  0  0  0  0  0  0  0  0  0  0
 20 19  2  0  0  0
 18 19  1  0  0  0
  5  9  1  0  0  0
  5  4  1  0  0  0
 19 17  1  0  0  0
 10  9  1  0  0  0
  9  8  2  0  0  0
  4  3  2  0  0  0
  4  6  1  0  0  0
  3  1  1  0  0  0
 17 13  1  0  0  0
 13 14  1  0  0  0
  8  6  1  0  0  0
  6  7  2  0  0  0
  1 14  1  0  0  0
  1  2  2  0  0  0
 14 15  2  0  0  0
  7  2  1  0  0  0
 18 21  1  0  0  0
 13 16  1  0  0  0
 10 11  1  0  0  0
 10 12  1  0  0  0
M  END
> <minimizedAffinity>
-6.26549

$$$$
4H42_11E_U_301


 21 22  0  0  0  0  0  0  0  0999 V2000
  -26.8719  -16.3033   10.7418 C   0  0  0  0  0  0  0  0  0  0  0  0
  -27.3905  -16.0441   12.0287 C   0  0  0  0  0  0  0  0  0  0  0  0
  -27.5172  -17.1558    9.8444 C   0  0  0  0  0  0  0  0  0  0  0  0
  -28.6970  -17.7345   10.2849 C   0  0  0  0  0  0  0  0  0  0  0  0
  -29.5915  -18.7528    9.3248 S   0  0  0  0  0  0  0  0  0  0  0  0
  -29.2586  -17.4841   11.5617 C   0  0  0  0  0  0  0  0  0  0  0  0
  -28.5961  -16.6131   12.4310 C   0  0  0  0  0  0  0  0  0  0  0  0
  -30.4392  -18.1825   11.7200 N   0  0  0  0  0  0  0  0  0  0  0  0
  -30.7494  -18.8941   10.6086 C   0  0  0  0  0  0  0  0  0  0  0  0
  -31.8666  -19.6409   10.5438 N   0  0  0  0  0  0  0  0  0  0  0  0
  -32.0719  -20.1496    9.7263 H   0  0  0  0  0  0  0  0  0  0  0  0
  -32.4788  -19.6786   11.3138 H   0  0  0  0  0  0  0  0  0  0  0  0
  -25.0949  -14.8766   11.2776 N   0  0  0  0  0  0  0  0  0  0  0  0
  -25.5783  -15.6995   10.3646 C   0  0  0  0  0  0  0  0  0  0  0  0
  -25.0714  -15.8949    9.2761 O   0  0  0  0  0  0  0  0  0  0  0  0
  -25.6269  -14.7490   12.0961 H   0  0  0  0  0  0  0  0  0  0  0  0
  -23.8717  -14.1597   11.1784 C   0  0  0  0  0  0  0  0  0  0  0  0
  -24.3622  -12.3002    9.8657 O   0  0  0  0  0  0  0  0  0  0  0  0
  -24.5036  -12.8878   10.8941 C   0  0  0  0  0  0  0  0  0  0  0  0
  -25.2252  -12.5044   11.7049 O   0  0  0  0  0  0  0  0  0  0  0  0
  -23.7704  -12.6270    9.2169 H   0  0  0  0  0  0  0  0  0  0  0  0
 20 19  2  0  0  0
 18 19  1  0  0  0
  5  9  1  0  0  0
  5  4  1  0  0  0
 19 17  1  0  0  0
 10  9  1  0  0  0
  9  8  2  0  0  0
  4  3  2  0  0  0
  4  6  1  0  0  0
  3  1  1  0  0  0
 17 13  1  0  0  0
 13 14  1  0  0  0
  8  6  1  0  0  0
  6  7  2  0  0  0
  1 14  1  0  0  0
  1  2  2  0  0  0
 14 15  2  0  0  0
  7  2  1  0  0  0
 18 21  1  0  0  0
 13 16  1  0  0  0
 10 11  1  0  0  0
 10 12  1  0  0  0
M  END
> <minimizedAffinity>
-6.25513

$$$$
4H42_11E_U_301


 21 22  0  0  0  0  0  0  0  0999 V2000
  -27.5136  -16.1327   11.5521 C   0  0  0  0  0  0  0  0  0  0  0  0
  -27.1478  -15.5106   12.7651 C   0  0  0  0  0  0  0  0  0  0  0  0
  -26.7055  -16.0659   10.4158 C   0  0  0  0  0  0  0  0  0  0  0  0
  -25.5223  -15.3554   10.5427 C   0  0  0  0  0  0  0  0  0  0  0  0
  -24.4453  -15.2054    9.2871 S   0  0  0  0  0  0  0  0  0  0  0  0
  -25.1121  -14.7336   11.7482 C   0  0  0  0  0  0  0  0  0  0  0  0
  -25.9363  -14.8324   12.8726 C   0  0  0  0  0  0  0  0  0  0  0  0
  -23.8895  -14.1130   11.5847 N   0  0  0  0  0  0  0  0  0  0  0  0
  -23.4069  -14.2872   10.3299 C   0  0  0  0  0  0  0  0  0  0  0  0
  -22.2211  -13.7722    9.9575 N   0  0  0  0  0  0  0  0  0  0  0  0
  -21.8901  -13.9112    9.0407 H   0  0  0  0  0  0  0  0  0  0  0  0
  -21.6843  -13.2563   10.6017 H   0  0  0  0  0  0  0  0  0  0  0  0
  -28.7392  -18.0459   10.9885 N   0  0  0  0  0  0  0  0  0  0  0  0
  -28.8180  -16.8201   11.4739 C   0  0  0  0  0  0  0  0  0  0  0  0
  -29.8585  -16.2575   11.7580 O   0  0  0  0  0  0  0  0  0  0  0  0
  -27.8463  -18.3730   10.7334 H   0  0  0  0  0  0  0  0  0  0  0  0
  -29.8344  -18.9326   10.8032 C   0  0  0  0  0  0  0  0  0  0  0  0
  -28.9479  -19.2222    8.6697 O   0  0  0  0  0  0  0  0  0  0  0  0
  -29.8341  -18.8195    9.3592 C   0  0  0  0  0  0  0  0  0  0  0  0
  -30.7923  -18.3771    8.8997 O   0  0  0  0  0  0  0  0  0  0  0  0
  -28.1749  -19.5791    9.0610 H   0  0  0  0  0  0  0  0  0  0  0  0
 20 19  2  0  0  0
 18 19  1  0  0  0
  5  9  1  0  0  0
  5  4  1  0  0  0
 19 17  1  0  0  0
 10  9  1  0  0  0
  9  8  2  0  0  0
  4  3  2  0  0  0
  4  6  1  0  0  0
  3  1  1  0  0  0
 17 13  1  0  0  0
 13 14  1  0  0  0
  8  6  1  0  0  0
  6  7  2  0  0  0
  1 14  1  0  0  0
  1  2  2  0  0  0
 14 15  2  0  0  0
  7  2  1  0  0  0
 18 21  1  0  0  0
 13 16  1  0  0  0
 10 11  1  0  0  0
 10 12  1  0  0  0
M  END
> <minimizedAffinity>
-6.16129

$$$$
4H42_11E_U_301


 21 22  0  0  0  0  0  0  0  0999 V2000
  -27.6268  -16.9474   11.0428 C   0  0  0  0  0  0  0  0  0  0  0  0
  -26.7967  -15.8494   10.7303 C   0  0  0  0  0  0  0  0  0  0  0  0
  -27.6397  -17.5240   12.3140 C   0  0  0  0  0  0  0  0  0  0  0  0
  -26.7930  -16.9593   13.2548 C   0  0  0  0  0  0  0  0  0  0  0  0
  -26.7123  -17.5191   14.8165 S   0  0  0  0  0  0  0  0  0  0  0  0
  -25.9595  -15.8457   12.9843 C   0  0  0  0  0  0  0  0  0  0  0  0
  -25.9815  -15.2813   11.7059 C   0  0  0  0  0  0  0  0  0  0  0  0
  -25.2396  -15.4917   14.1081 N   0  0  0  0  0  0  0  0  0  0  0  0
  -25.5425  -16.2863   15.1639 C   0  0  0  0  0  0  0  0  0  0  0  0
  -24.9611  -16.1087   16.3642 N   0  0  0  0  0  0  0  0  0  0  0  0
  -25.1964  -16.6979   17.1170 H   0  0  0  0  0  0  0  0  0  0  0  0
  -24.3004  -15.3897   16.4896 H   0  0  0  0  0  0  0  0  0  0  0  0
  -29.5632  -18.1038   10.4161 N   0  0  0  0  0  0  0  0  0  0  0  0
  -28.4569  -17.5349    9.9725 C   0  0  0  0  0  0  0  0  0  0  0  0
  -28.0915  -17.5516    8.8122 O   0  0  0  0  0  0  0  0  0  0  0  0
  -29.7228  -18.0822   11.3873 H   0  0  0  0  0  0  0  0  0  0  0  0
  -30.5427  -18.7447    9.6099 C   0  0  0  0  0  0  0  0  0  0  0  0
  -31.2306  -18.8526   11.8318 O   0  0  0  0  0  0  0  0  0  0  0  0
  -31.2658  -19.3097   10.7306 C   0  0  0  0  0  0  0  0  0  0  0  0
  -31.9506  -20.1995   10.4766 O   0  0  0  0  0  0  0  0  0  0  0  0
  -30.6672  -18.1281   12.0205 H   0  0  0  0  0  0  0  0  0  0  0  0
 20 19  2  0  0  0
 18 19  1  0  0  0
  5  9  1  0  0  0
  5  4  1  0  0  0
 19 17  1  0  0  0
 10  9  1  0  0  0
  9  8  2  0  0  0
  4  3  2  0  0  0
  4  6  1  0  0  0
  3  1  1  0  0  0
 17 13  1  0  0  0
 13 14  1  0  0  0
  8  6  1  0  0  0
  6  7  2  0  0  0
  1 14  1  0  0  0
  1  2  2  0  0  0
 14 15  2  0  0  0
  7  2  1  0  0  0
 18 21  1  0  0  0
 13 16  1  0  0  0
 10 11  1  0  0  0
 10 12  1  0  0  0
M  END
> <minimizedAffinity>
-6.12855

$$$$
4H42_11E_U_301


 21 22  0  0  0  0  0  0  0  0999 V2000
  -28.6527  -15.4313   10.9881 C   0  0  0  0  0  0  0  0  0  0  0  0
  -29.3713  -15.2666   12.1917 C   0  0  0  0  0  0  0  0  0  0  0  0
  -27.6407  -14.5488   10.6065 C   0  0  0  0  0  0  0  0  0  0  0  0
  -27.3782  -13.5007   11.4745 C   0  0  0  0  0  0  0  0  0  0  0  0
  -26.1890  -12.3817   11.1709 S   0  0  0  0  0  0  0  0  0  0  0  0
  -28.0648  -13.3130   12.6998 C   0  0  0  0  0  0  0  0  0  0  0  0
  -29.0620  -14.2234   13.0607 C   0  0  0  0  0  0  0  0  0  0  0  0
  -27.5853  -12.1999   13.3614 N   0  0  0  0  0  0  0  0  0  0  0  0
  -26.5782  -11.6077   12.6737 C   0  0  0  0  0  0  0  0  0  0  0  0
  -25.9591  -10.5099   13.1443 N   0  0  0  0  0  0  0  0  0  0  0  0
  -25.2300  -10.0964   12.6279 H   0  0  0  0  0  0  0  0  0  0  0  0
  -26.2351  -10.1200   14.0052 H   0  0  0  0  0  0  0  0  0  0  0  0
  -29.3053  -17.6629   10.7150 N   0  0  0  0  0  0  0  0  0  0  0  0
  -29.0295  -16.5360   10.0838 C   0  0  0  0  0  0  0  0  0  0  0  0
  -28.9992  -16.4142    8.8737 O   0  0  0  0  0  0  0  0  0  0  0  0
  -29.2353  -17.6580   11.6970 H   0  0  0  0  0  0  0  0  0  0  0  0
  -29.6946  -18.8819   10.0966 C   0  0  0  0  0  0  0  0  0  0  0  0
  -31.0169  -18.5974   11.9919 O   0  0  0  0  0  0  0  0  0  0  0  0
  -30.8965  -19.0374   10.8897 C   0  0  0  0  0  0  0  0  0  0  0  0
  -31.7749  -19.5559   10.3562 O   0  0  0  0  0  0  0  0  0  0  0  0
  -30.2910  -18.1784   12.4109 H   0  0  0  0  0  0  0  0  0  0  0  0
 20 19  2  0  0  0
 18 19  1  0  0  0
  5  9  1  0  0  0
  5  4  1  0  0  0
 19 17  1  0  0  0
 10  9  1  0  0  0
  9  8  2  0  0  0
  4  3  2  0  0  0
  4  6  1  0  0  0
  3  1  1  0  0  0
 17 13  1  0  0  0
 13 14  1  0  0  0
  8  6  1  0  0  0
  6  7  2  0  0  0
  1 14  1  0  0  0
  1  2  2  0  0  0
 14 15  2  0  0  0
  7  2  1  0  0  0
 18 21  1  0  0  0
 13 16  1  0  0  0
 10 11  1  0  0  0
 10 12  1  0  0  0
M  END
> <minimizedAffinity>
-6.09760

$$$$
4H42_11E_U_301


 21 22  0  0  0  0  0  0  0  0999 V2000
  -28.7243  -14.6851   12.6987 C   0  0  0  0  0  0  0  0  0  0  0  0
  -28.5392  -13.9607   11.5016 C   0  0  0  0  0  0  0  0  0  0  0  0
  -28.9716  -16.0589   12.6988 C   0  0  0  0  0  0  0  0  0  0  0  0
  -29.0252  -16.6749   11.4584 C   0  0  0  0  0  0  0  0  0  0  0  0
  -29.2880  -18.3068   11.2953 S   0  0  0  0  0  0  0  0  0  0  0  0
  -28.8259  -15.9853   10.2366 C   0  0  0  0  0  0  0  0  0  0  0  0
  -28.5644  -14.6128   10.2715 C   0  0  0  0  0  0  0  0  0  0  0  0
  -28.9218  -16.8526    9.1664 N   0  0  0  0  0  0  0  0  0  0  0  0
  -29.1552  -18.1238    9.5755 C   0  0  0  0  0  0  0  0  0  0  0  0
  -29.2740  -19.1330    8.6938 N   0  0  0  0  0  0  0  0  0  0  0  0
  -29.4435  -20.0486    9.0135 H   0  0  0  0  0  0  0  0  0  0  0  0
  -29.1914  -18.9560    7.7289 H   0  0  0  0  0  0  0  0  0  0  0  0
  -29.2903  -14.6097   14.9689 N   0  0  0  0  0  0  0  0  0  0  0  0
  -28.7147  -13.9508   13.9796 C   0  0  0  0  0  0  0  0  0  0  0  0
  -28.2855  -12.8158   14.0660 O   0  0  0  0  0  0  0  0  0  0  0  0
  -29.6589  -15.4992   14.7635 H   0  0  0  0  0  0  0  0  0  0  0  0
  -29.4226  -14.1433   16.3050 C   0  0  0  0  0  0  0  0  0  0  0  0
  -31.1499  -15.3557   17.2890 O   0  0  0  0  0  0  0  0  0  0  0  0
  -30.0681  -15.3473   16.7863 C   0  0  0  0  0  0  0  0  0  0  0  0
  -29.4977  -16.3264   16.5839 O   0  0  0  0  0  0  0  0  0  0  0  0
  -31.5996  -14.5490   17.4464 H   0  0  0  0  0  0  0  0  0  0  0  0
 20 19  2  0  0  0
 18 19  1  0  0  0
  5  9  1  0  0  0
  5  4  1  0  0  0
 19 17  1  0  0  0
 10  9  1  0  0  0
  9  8  2  0  0  0
  4  3  2  0  0  0
  4  6  1  0  0  0
  3  1  1  0  0  0
 17 13  1  0  0  0
 13 14  1  0  0  0
  8  6  1  0  0  0
  6  7  2  0  0  0
  1 14  1  0  0  0
  1  2  2  0  0  0
 14 15  2  0  0  0
  7  2  1  0  0  0
 18 21  1  0  0  0
 13 16  1  0  0  0
 10 11  1  0  0  0
 10 12  1  0  0  0
M  END
> <minimizedAffinity>
-6.05076

$$$$
4H42_11E_U_301


 21 22  0  0  0  0  0  0  0  0999 V2000
  -25.9164  -15.2121   10.2680 C   0  0  0  0  0  0  0  0  0  0  0  0
  -26.6123  -16.4388   10.3229 C   0  0  0  0  0  0  0  0  0  0  0  0
  -26.4502  -14.0368   10.7993 C   0  0  0  0  0  0  0  0  0  0  0  0
  -27.7020  -14.1390   11.3852 C   0  0  0  0  0  0  0  0  0  0  0  0
  -28.4587  -12.8344   12.0810 S   0  0  0  0  0  0  0  0  0  0  0  0
  -28.4229  -15.3556   11.4762 C   0  0  0  0  0  0  0  0  0  0  0  0
  -27.8538  -16.5180   10.9486 C   0  0  0  0  0  0  0  0  0  0  0  0
  -29.6285  -15.1605   12.1203 N   0  0  0  0  0  0  0  0  0  0  0  0
  -29.7821  -13.8709   12.5089 C   0  0  0  0  0  0  0  0  0  0  0  0
  -30.8840  -13.4630   13.1644 N   0  0  0  0  0  0  0  0  0  0  0  0
  -30.9742  -12.5213   13.4370 H   0  0  0  0  0  0  0  0  0  0  0  0
  -31.6000  -14.1062   13.3714 H   0  0  0  0  0  0  0  0  0  0  0  0
  -23.7912  -14.2536   10.0559 N   0  0  0  0  0  0  0  0  0  0  0  0
  -24.6142  -15.1670    9.5735 C   0  0  0  0  0  0  0  0  0  0  0  0
  -24.3808  -15.8591    8.6006 O   0  0  0  0  0  0  0  0  0  0  0  0
  -24.1150  -13.7077   10.8085 H   0  0  0  0  0  0  0  0  0  0  0  0
  -22.4776  -13.9920    9.5804 C   0  0  0  0  0  0  0  0  0  0  0  0
  -22.0276  -14.3472   11.8372 O   0  0  0  0  0  0  0  0  0  0  0  0
  -21.8178  -14.6343   10.6985 C   0  0  0  0  0  0  0  0  0  0  0  0
  -21.1204  -15.5077   10.4231 O   0  0  0  0  0  0  0  0  0  0  0  0
  -22.5982  -13.6330   12.0428 H   0  0  0  0  0  0  0  0  0  0  0  0
 20 19  2  0  0  0
 18 19  1  0  0  0
  5  9  1  0  0  0
  5  4  1  0  0  0
 19 17  1  0  0  0
 10  9  1  0  0  0
  9  8  2  0  0  0
  4  3  2  0  0  0
  4  6  1  0  0  0
  3  1  1  0  0  0
 17 13  1  0  0  0
 13 14  1  0  0  0
  8  6  1  0  0  0
  6  7  2  0  0  0
  1 14  1  0  0  0
  1  2  2  0  0  0
 14 15  2  0  0  0
  7  2  1  0  0  0
 18 21  1  0  0  0
 13 16  1  0  0  0
 10 11  1  0  0  0
 10 12  1  0  0  0
M  END
> <minimizedAffinity>
-5.81497

$$$$
