3G35_F13_A_1


 23 25  0  0  0  0  0  0  0  0999 V2000
   -4.4484   53.2512   12.5589 C   0  0  0  0  0  0  0  0  0  0  0  0
   -4.6236   52.6173   13.7960 C   0  0  0  0  0  0  0  0  0  0  0  0
   -5.7253   52.9133   14.5993 C   0  0  0  0  0  0  0  0  0  0  0  0
   -6.6659   53.8576   14.2019 C   0  0  0  0  0  0  0  0  0  0  0  0
   -6.4882   54.4936   12.9783 C   0  0  0  0  0  0  0  0  0  0  0  0
   -5.3981   54.1910   12.1589 C   0  0  0  0  0  0  0  0  0  0  0  0
   -7.4760   55.5038   12.5359 C   0  0  0  0  0  0  0  0  0  0  0  0
   -8.5877   55.8364   13.2175 N   0  0  0  0  0  0  0  0  0  0  0  0
   -9.2735   56.8014   12.4938 N   0  0  0  0  0  0  0  0  0  0  0  0
   -8.5333   57.0389   11.3363 N   0  0  0  0  0  0  0  0  0  0  0  0
   -7.4181   56.2063   11.3856 N   0  0  0  0  0  0  0  0  0  0  0  0
   -6.7125   56.1418   10.7021 H   0  0  0  0  0  0  0  0  0  0  0  0
   -2.1071   53.1989   12.0413 C   0  0  0  0  0  0  0  0  0  0  0  0
   -1.7459   53.7254   13.0823 O   0  0  0  0  0  0  0  0  0  0  0  0
   -3.3930   52.9869   11.7354 N   0  0  0  0  0  0  0  0  0  0  0  0
   -3.5927   52.6112   10.8476 H   0  0  0  0  0  0  0  0  0  0  0  0
    0.9577   54.1196    8.3685 F   0  0  0  0  0  0  0  0  0  0  0  0
    0.4538   53.2288    9.2516 C   0  0  0  0  0  0  0  0  0  0  0  0
   -0.5339   53.6398   10.1410 C   0  0  0  0  0  0  0  0  0  0  0  0
    0.9002   51.9159    9.2756 C   0  0  0  0  0  0  0  0  0  0  0  0
    0.3784   51.0024   10.1889 C   0  0  0  0  0  0  0  0  0  0  0  0
   -0.5989   51.4159   11.0936 C   0  0  0  0  0  0  0  0  0  0  0  0
   -1.0597   52.7366   11.0635 C   0  0  0  0  0  0  0  0  0  0  0  0
 17 18  1  0  0  0
 18 19  2  0  0  0
 18 20  1  0  0  0
 19 23  1  0  0  0
 20 21  2  0  0  0
 21 22  1  0  0  0
 22 23  2  0  0  0
 23 13  1  0  0  0
 13 14  2  0  0  0
 13 15  1  0  0  0
 15  1  1  0  0  0
  1  2  2  0  0  0
  1  6  1  0  0  0
  2  3  1  0  0  0
  3  4  2  0  0  0
  4  5  1  0  0  0
  5  6  2  0  0  0
  5  7  1  0  0  0
  7  8  2  0  0  0
  7 11  1  0  0  0
  8  9  1  0  0  0
  9 10  2  0  0  0
 10 11  1  0  0  0
 15 16  1  0  0  0
 11 12  1  0  0  0
M  END
> <minimizedAffinity>
-8.71849

$$$$
3G35_F13_A_1


 23 25  0  0  0  0  0  0  0  0999 V2000
   -6.7287   54.5366   12.6856 C   0  0  0  0  0  0  0  0  0  0  0  0
   -7.1198   53.7319   13.7637 C   0  0  0  0  0  0  0  0  0  0  0  0
   -6.1897   52.9370   14.4344 C   0  0  0  0  0  0  0  0  0  0  0  0
   -4.8569   52.9085   14.0382 C   0  0  0  0  0  0  0  0  0  0  0  0
   -4.4696   53.7002   12.9628 C   0  0  0  0  0  0  0  0  0  0  0  0
   -5.3897   54.5130   12.2965 C   0  0  0  0  0  0  0  0  0  0  0  0
   -3.0562   53.6843   12.5225 C   0  0  0  0  0  0  0  0  0  0  0  0
   -2.6551   53.6762   11.2380 N   0  0  0  0  0  0  0  0  0  0  0  0
   -1.2681   53.6475   11.2118 N   0  0  0  0  0  0  0  0  0  0  0  0
   -0.8403   53.6323   12.5387 N   0  0  0  0  0  0  0  0  0  0  0  0
   -1.9812   53.6471   13.3369 N   0  0  0  0  0  0  0  0  0  0  0  0
   -2.0001   53.6329   14.3211 H   0  0  0  0  0  0  0  0  0  0  0  0
   -8.5762   56.0616   12.5675 C   0  0  0  0  0  0  0  0  0  0  0  0
   -8.8349   56.0238   13.7604 O   0  0  0  0  0  0  0  0  0  0  0  0
   -7.6001   55.3375   12.0064 N   0  0  0  0  0  0  0  0  0  0  0  0
   -7.5033   55.3866   11.0278 H   0  0  0  0  0  0  0  0  0  0  0  0
  -12.1729   59.2917   11.9669 F   0  0  0  0  0  0  0  0  0  0  0  0
  -11.1524   58.5908   11.4241 C   0  0  0  0  0  0  0  0  0  0  0  0
  -10.4304   57.7126   12.2258 C   0  0  0  0  0  0  0  0  0  0  0  0
  -10.8243   58.7290   10.0836 C   0  0  0  0  0  0  0  0  0  0  0  0
   -9.7707   58.0052    9.5296 C   0  0  0  0  0  0  0  0  0  0  0  0
   -9.0336   57.1376   10.3348 C   0  0  0  0  0  0  0  0  0  0  0  0
   -9.3701   56.9872   11.6845 C   0  0  0  0  0  0  0  0  0  0  0  0
 17 18  1  0  0  0
 18 19  2  0  0  0
 18 20  1  0  0  0
 19 23  1  0  0  0
 20 21  2  0  0  0
 21 22  1  0  0  0
 22 23  2  0  0  0
 23 13  1  0  0  0
 13 14  2  0  0  0
 13 15  1  0  0  0
 15  1  1  0  0  0
  1  2  2  0  0  0
  1  6  1  0  0  0
  2  3  1  0  0  0
  3  4  2  0  0  0
  4  5  1  0  0  0
  5  6  2  0  0  0
  5  7  1  0  0  0
  7  8  2  0  0  0
  7 11  1  0  0  0
  8  9  1  0  0  0
  9 10  2  0  0  0
 10 11  1  0  0  0
 15 16  1  0  0  0
 11 12  1  0  0  0
M  END
> <minimizedAffinity>
-8.32244

$$$$
3G35_F13_A_1


 23 25  0  0  0  0  0  0  0  0999 V2000
   -7.1816   53.9505   11.6473 C   0  0  0  0  0  0  0  0  0  0  0  0
   -7.6637   52.6486   11.8354 C   0  0  0  0  0  0  0  0  0  0  0  0
   -6.8045   51.6185   12.2193 C   0  0  0  0  0  0  0  0  0  0  0  0
   -5.4464   51.8534   12.4060 C   0  0  0  0  0  0  0  0  0  0  0  0
   -4.9655   53.1433   12.2109 C   0  0  0  0  0  0  0  0  0  0  0  0
   -5.8209   54.1850   11.8441 C   0  0  0  0  0  0  0  0  0  0  0  0
   -3.5230   53.4161   12.4021 C   0  0  0  0  0  0  0  0  0  0  0  0
   -2.5930   53.3292   11.4333 N   0  0  0  0  0  0  0  0  0  0  0  0
   -1.3573   53.6406   11.9824 N   0  0  0  0  0  0  0  0  0  0  0  0
   -1.5738   53.9156   13.3320 N   0  0  0  0  0  0  0  0  0  0  0  0
   -2.9372   53.7588   13.5681 N   0  0  0  0  0  0  0  0  0  0  0  0
   -3.3929   53.8770   14.4327 H   0  0  0  0  0  0  0  0  0  0  0  0
   -8.6228   55.8053   12.1324 C   0  0  0  0  0  0  0  0  0  0  0  0
   -8.6049   55.6530   13.3439 O   0  0  0  0  0  0  0  0  0  0  0  0
   -7.9852   54.9912   11.2823 N   0  0  0  0  0  0  0  0  0  0  0  0
   -8.1053   55.1560   10.3191 H   0  0  0  0  0  0  0  0  0  0  0  0
  -12.1242   59.1731   12.4909 F   0  0  0  0  0  0  0  0  0  0  0  0
  -11.1077   58.6408   11.7763 C   0  0  0  0  0  0  0  0  0  0  0  0
  -10.4274   57.5378   12.2823 C   0  0  0  0  0  0  0  0  0  0  0  0
  -10.7429   59.1720   10.5481 C   0  0  0  0  0  0  0  0  0  0  0  0
   -9.6935   58.6203    9.8165 C   0  0  0  0  0  0  0  0  0  0  0  0
   -8.9979   57.5258   10.3293 C   0  0  0  0  0  0  0  0  0  0  0  0
   -9.3717   56.9805   11.5624 C   0  0  0  0  0  0  0  0  0  0  0  0
 17 18  1  0  0  0
 18 19  2  0  0  0
 18 20  1  0  0  0
 19 23  1  0  0  0
 20 21  2  0  0  0
 21 22  1  0  0  0
 22 23  2  0  0  0
 23 13  1  0  0  0
 13 14  2  0  0  0
 13 15  1  0  0  0
 15  1  1  0  0  0
  1  2  2  0  0  0
  1  6  1  0  0  0
  2  3  1  0  0  0
  3  4  2  0  0  0
  4  5  1  0  0  0
  5  6  2  0  0  0
  5  7  1  0  0  0
  7  8  2  0  0  0
  7 11  1  0  0  0
  8  9  1  0  0  0
  9 10  2  0  0  0
 10 11  1  0  0  0
 15 16  1  0  0  0
 11 12  1  0  0  0
M  END
> <minimizedAffinity>
-8.28427

$$$$
3G35_F13_A_1


 23 25  0  0  0  0  0  0  0  0999 V2000
   -6.6875   54.4706   12.6619 C   0  0  0  0  0  0  0  0  0  0  0  0
   -7.0558   53.7241   13.7888 C   0  0  0  0  0  0  0  0  0  0  0  0
   -6.1143   52.9558   14.4742 C   0  0  0  0  0  0  0  0  0  0  0  0
   -4.7926   52.8961   14.0455 C   0  0  0  0  0  0  0  0  0  0  0  0
   -4.4280   53.6295   12.9220 C   0  0  0  0  0  0  0  0  0  0  0  0
   -5.3593   54.4159   12.2398 C   0  0  0  0  0  0  0  0  0  0  0  0
   -3.0268   53.5794   12.4466 C   0  0  0  0  0  0  0  0  0  0  0  0
   -2.6592   53.3536   11.1719 N   0  0  0  0  0  0  0  0  0  0  0  0
   -1.2731   53.3644   11.1069 N   0  0  0  0  0  0  0  0  0  0  0  0
   -0.8108   53.6010   12.4008 N   0  0  0  0  0  0  0  0  0  0  0  0
   -1.9305   53.7228   13.2196 N   0  0  0  0  0  0  0  0  0  0  0  0
   -1.9234   53.8849   14.1907 H   0  0  0  0  0  0  0  0  0  0  0  0
   -8.5346   55.9934   12.5146 C   0  0  0  0  0  0  0  0  0  0  0  0
   -8.7704   56.0067   13.7128 O   0  0  0  0  0  0  0  0  0  0  0  0
   -7.5705   55.2439   11.9661 N   0  0  0  0  0  0  0  0  0  0  0  0
   -7.4925   55.2513   10.9847 H   0  0  0  0  0  0  0  0  0  0  0  0
   -9.5918   57.6646    8.0627 F   0  0  0  0  0  0  0  0  0  0  0  0
   -9.8488   57.6814    9.3897 C   0  0  0  0  0  0  0  0  0  0  0  0
   -9.0880   56.8835   10.2382 C   0  0  0  0  0  0  0  0  0  0  0  0
  -10.8495   58.4863    9.9135 C   0  0  0  0  0  0  0  0  0  0  0  0
  -11.1110   58.4986   11.2818 C   0  0  0  0  0  0  0  0  0  0  0  0
  -10.3621   57.6864   12.1327 C   0  0  0  0  0  0  0  0  0  0  0  0
   -9.3439   56.8826   11.6085 C   0  0  0  0  0  0  0  0  0  0  0  0
 17 18  1  0  0  0
 18 19  2  0  0  0
 18 20  1  0  0  0
 19 23  1  0  0  0
 20 21  2  0  0  0
 21 22  1  0  0  0
 22 23  2  0  0  0
 23 13  1  0  0  0
 13 14  2  0  0  0
 13 15  1  0  0  0
 15  1  1  0  0  0
  1  2  2  0  0  0
  1  6  1  0  0  0
  2  3  1  0  0  0
  3  4  2  0  0  0
  4  5  1  0  0  0
  5  6  2  0  0  0
  5  7  1  0  0  0
  7  8  2  0  0  0
  7 11  1  0  0  0
  8  9  1  0  0  0
  9 10  2  0  0  0
 10 11  1  0  0  0
 15 16  1  0  0  0
 11 12  1  0  0  0
M  END
> <minimizedAffinity>
-8.08937

$$$$
3G35_F13_A_1


 23 25  0  0  0  0  0  0  0  0999 V2000
   -6.6104   53.1315   11.6211 C   0  0  0  0  0  0  0  0  0  0  0  0
   -7.0352   51.8261   11.3413 C   0  0  0  0  0  0  0  0  0  0  0  0
   -6.1651   50.7456   11.4906 C   0  0  0  0  0  0  0  0  0  0  0  0
   -4.8505   50.9387   11.9016 C   0  0  0  0  0  0  0  0  0  0  0  0
   -4.4255   52.2348   12.1709 C   0  0  0  0  0  0  0  0  0  0  0  0
   -5.2943   53.3210   12.0418 C   0  0  0  0  0  0  0  0  0  0  0  0
   -3.0297   52.4641   12.6080 C   0  0  0  0  0  0  0  0  0  0  0  0
   -2.0808   51.5118   12.6685 N   0  0  0  0  0  0  0  0  0  0  0  0
   -0.9082   52.0901   13.1333 N   0  0  0  0  0  0  0  0  0  0  0  0
   -1.1855   53.4376   13.3595 N   0  0  0  0  0  0  0  0  0  0  0  0
   -2.5232   53.6410   13.0303 N   0  0  0  0  0  0  0  0  0  0  0  0
   -3.0126   54.4929   13.0945 H   0  0  0  0  0  0  0  0  0  0  0  0
   -7.4523   55.0477   10.4498 C   0  0  0  0  0  0  0  0  0  0  0  0
   -6.6815   54.9559    9.5071 O   0  0  0  0  0  0  0  0  0  0  0  0
   -7.4279   54.2173   11.4995 N   0  0  0  0  0  0  0  0  0  0  0  0
   -8.0477   54.4044   12.2412 H   0  0  0  0  0  0  0  0  0  0  0  0
  -10.6709   57.8829   12.7590 F   0  0  0  0  0  0  0  0  0  0  0  0
  -10.0795   57.5216   11.5984 C   0  0  0  0  0  0  0  0  0  0  0  0
   -9.1277   56.5070   11.6092 C   0  0  0  0  0  0  0  0  0  0  0  0
  -10.4146   58.1399   10.4030 C   0  0  0  0  0  0  0  0  0  0  0  0
   -9.8009   57.7644    9.2100 C   0  0  0  0  0  0  0  0  0  0  0  0
   -8.8334   56.7602    9.2203 C   0  0  0  0  0  0  0  0  0  0  0  0
   -8.5023   56.1264   10.4229 C   0  0  0  0  0  0  0  0  0  0  0  0
 17 18  1  0  0  0
 18 19  2  0  0  0
 18 20  1  0  0  0
 19 23  1  0  0  0
 20 21  2  0  0  0
 21 22  1  0  0  0
 22 23  2  0  0  0
 23 13  1  0  0  0
 13 14  2  0  0  0
 13 15  1  0  0  0
 15  1  1  0  0  0
  1  2  2  0  0  0
  1  6  1  0  0  0
  2  3  1  0  0  0
  3  4  2  0  0  0
  4  5  1  0  0  0
  5  6  2  0  0  0
  5  7  1  0  0  0
  7  8  2  0  0  0
  7 11  1  0  0  0
  8  9  1  0  0  0
  9 10  2  0  0  0
 10 11  1  0  0  0
 15 16  1  0  0  0
 11 12  1  0  0  0
M  END
> <minimizedAffinity>
-7.39642

$$$$
3G35_F13_A_1


 23 25  0  0  0  0  0  0  0  0999 V2000
   -8.8118   56.4800   11.0416 C   0  0  0  0  0  0  0  0  0  0  0  0
   -8.7379   56.6313    9.6508 C   0  0  0  0  0  0  0  0  0  0  0  0
   -9.6519   57.4374    8.9715 C   0  0  0  0  0  0  0  0  0  0  0  0
  -10.6698   58.0946    9.6543 C   0  0  0  0  0  0  0  0  0  0  0  0
  -10.7494   57.9380   11.0335 C   0  0  0  0  0  0  0  0  0  0  0  0
   -9.8280   57.1476   11.7247 C   0  0  0  0  0  0  0  0  0  0  0  0
  -11.8260   58.6269   11.7807 C   0  0  0  0  0  0  0  0  0  0  0  0
  -12.9695   58.0444   12.1858 N   0  0  0  0  0  0  0  0  0  0  0  0
  -13.7391   58.9964   12.8391 N   0  0  0  0  0  0  0  0  0  0  0  0
  -13.0163   60.1883   12.8094 N   0  0  0  0  0  0  0  0  0  0  0  0
  -11.8270   59.9291   12.1331 N   0  0  0  0  0  0  0  0  0  0  0  0
  -11.1133   60.5808   11.9453 H   0  0  0  0  0  0  0  0  0  0  0  0
   -8.0874   54.4054   12.0028 C   0  0  0  0  0  0  0  0  0  0  0  0
   -9.0812   53.7737   11.6788 O   0  0  0  0  0  0  0  0  0  0  0  0
   -7.9346   55.7109   11.7495 N   0  0  0  0  0  0  0  0  0  0  0  0
   -7.1268   56.1503   12.1012 H   0  0  0  0  0  0  0  0  0  0  0  0
   -5.0263   50.6266   12.2868 F   0  0  0  0  0  0  0  0  0  0  0  0
   -5.4562   51.8011   12.7998 C   0  0  0  0  0  0  0  0  0  0  0  0
   -6.5121   52.4647   12.1835 C   0  0  0  0  0  0  0  0  0  0  0  0
   -4.8669   52.3446   13.9316 C   0  0  0  0  0  0  0  0  0  0  0  0
   -5.3130   53.5561   14.4553 C   0  0  0  0  0  0  0  0  0  0  0  0
   -6.3593   54.2326   13.8291 C   0  0  0  0  0  0  0  0  0  0  0  0
   -6.9636   53.6805   12.6944 C   0  0  0  0  0  0  0  0  0  0  0  0
 17 18  1  0  0  0
 18 19  2  0  0  0
 18 20  1  0  0  0
 19 23  1  0  0  0
 20 21  2  0  0  0
 21 22  1  0  0  0
 22 23  2  0  0  0
 23 13  1  0  0  0
 13 14  2  0  0  0
 13 15  1  0  0  0
 15  1  1  0  0  0
  1  2  2  0  0  0
  1  6  1  0  0  0
  2  3  1  0  0  0
  3  4  2  0  0  0
  4  5  1  0  0  0
  5  6  2  0  0  0
  5  7  1  0  0  0
  7  8  2  0  0  0
  7 11  1  0  0  0
  8  9  1  0  0  0
  9 10  2  0  0  0
 10 11  1  0  0  0
 15 16  1  0  0  0
 11 12  1  0  0  0
M  END
> <minimizedAffinity>
-7.17040

$$$$
3G35_F13_A_1


 23 25  0  0  0  0  0  0  0  0999 V2000
   -5.3262   51.7035   11.0921 C   0  0  0  0  0  0  0  0  0  0  0  0
   -6.2096   50.6475   10.8328 C   0  0  0  0  0  0  0  0  0  0  0  0
   -7.5821   50.8010   11.0308 C   0  0  0  0  0  0  0  0  0  0  0  0
   -8.1055   51.9979   11.5081 C   0  0  0  0  0  0  0  0  0  0  0  0
   -7.2286   53.0437   11.7741 C   0  0  0  0  0  0  0  0  0  0  0  0
   -5.8549   52.9056   11.5619 C   0  0  0  0  0  0  0  0  0  0  0  0
   -7.7633   54.3263   12.2846 C   0  0  0  0  0  0  0  0  0  0  0  0
   -8.2578   54.5103   13.5226 N   0  0  0  0  0  0  0  0  0  0  0  0
   -8.6757   55.8286   13.6364 N   0  0  0  0  0  0  0  0  0  0  0  0
   -8.4196   56.4398   12.4098 N   0  0  0  0  0  0  0  0  0  0  0  0
   -7.8566   55.4733   11.5804 N   0  0  0  0  0  0  0  0  0  0  0  0
   -7.5762   55.6037   10.6458 H   0  0  0  0  0  0  0  0  0  0  0  0
   -3.3601   51.6749    9.7187 C   0  0  0  0  0  0  0  0  0  0  0  0
   -3.9577   51.7692    8.6578 O   0  0  0  0  0  0  0  0  0  0  0  0
   -3.9784   51.6034   10.9039 N   0  0  0  0  0  0  0  0  0  0  0  0
   -3.4173   51.4682   11.7014 H   0  0  0  0  0  0  0  0  0  0  0  0
    0.8803   54.0183    9.2110 F   0  0  0  0  0  0  0  0  0  0  0  0
    0.2269   52.8603    9.4551 C   0  0  0  0  0  0  0  0  0  0  0  0
   -1.1642   52.8513    9.4454 C   0  0  0  0  0  0  0  0  0  0  0  0
    0.9223   51.6866    9.7046 C   0  0  0  0  0  0  0  0  0  0  0  0
    0.2437   50.4962    9.9569 C   0  0  0  0  0  0  0  0  0  0  0  0
   -1.1507   50.4877    9.9657 C   0  0  0  0  0  0  0  0  0  0  0  0
   -1.8546   51.6678    9.7023 C   0  0  0  0  0  0  0  0  0  0  0  0
 17 18  1  0  0  0
 18 19  2  0  0  0
 18 20  1  0  0  0
 19 23  1  0  0  0
 20 21  2  0  0  0
 21 22  1  0  0  0
 22 23  2  0  0  0
 23 13  1  0  0  0
 13 14  2  0  0  0
 13 15  1  0  0  0
 15  1  1  0  0  0
  1  2  2  0  0  0
  1  6  1  0  0  0
  2  3  1  0  0  0
  3  4  2  0  0  0
  4  5  1  0  0  0
  5  6  2  0  0  0
  5  7  1  0  0  0
  7  8  2  0  0  0
  7 11  1  0  0  0
  8  9  1  0  0  0
  9 10  2  0  0  0
 10 11  1  0  0  0
 15 16  1  0  0  0
 11 12  1  0  0  0
M  END
> <minimizedAffinity>
-7.08150

$$$$
3G35_F13_A_1


 23 25  0  0  0  0  0  0  0  0999 V2000
   -9.1707   54.7122   10.7046 C   0  0  0  0  0  0  0  0  0  0  0  0
  -10.1176   53.9411   10.0178 C   0  0  0  0  0  0  0  0  0  0  0  0
  -11.2769   54.5249    9.5061 C   0  0  0  0  0  0  0  0  0  0  0  0
  -11.5309   55.8810    9.6811 C   0  0  0  0  0  0  0  0  0  0  0  0
  -10.5960   56.6454   10.3703 C   0  0  0  0  0  0  0  0  0  0  0  0
   -9.4238   56.0736   10.8707 C   0  0  0  0  0  0  0  0  0  0  0  0
  -10.8465   58.0907   10.5702 C   0  0  0  0  0  0  0  0  0  0  0  0
  -10.4769   58.7876   11.6605 N   0  0  0  0  0  0  0  0  0  0  0  0
  -10.8896   60.1027   11.5011 N   0  0  0  0  0  0  0  0  0  0  0  0
  -11.5335   60.1762   10.2666 N   0  0  0  0  0  0  0  0  0  0  0  0
  -11.4990   58.9001    9.7103 N   0  0  0  0  0  0  0  0  0  0  0  0
  -11.8827   58.6354    8.8432 H   0  0  0  0  0  0  0  0  0  0  0  0
   -7.8455   53.7985   12.4827 C   0  0  0  0  0  0  0  0  0  0  0  0
   -8.6963   53.9410   13.3471 O   0  0  0  0  0  0  0  0  0  0  0  0
   -8.0184   54.1876   11.2135 N   0  0  0  0  0  0  0  0  0  0  0  0
   -7.2551   54.0876   10.5998 H   0  0  0  0  0  0  0  0  0  0  0  0
   -4.6267   50.1924   11.8782 F   0  0  0  0  0  0  0  0  0  0  0  0
   -4.9713   51.3329   12.5168 C   0  0  0  0  0  0  0  0  0  0  0  0
   -6.1805   51.9461   12.2051 C   0  0  0  0  0  0  0  0  0  0  0  0
   -4.1434   51.8908   13.4795 C   0  0  0  0  0  0  0  0  0  0  0  0
   -4.5029   53.0672   14.1336 C   0  0  0  0  0  0  0  0  0  0  0  0
   -5.7059   53.6940   13.8104 C   0  0  0  0  0  0  0  0  0  0  0  0
   -6.5486   53.1268   12.8483 C   0  0  0  0  0  0  0  0  0  0  0  0
 17 18  1  0  0  0
 18 19  2  0  0  0
 18 20  1  0  0  0
 19 23  1  0  0  0
 20 21  2  0  0  0
 21 22  1  0  0  0
 22 23  2  0  0  0
 23 13  1  0  0  0
 13 14  2  0  0  0
 13 15  1  0  0  0
 15  1  1  0  0  0
  1  2  2  0  0  0
  1  6  1  0  0  0
  2  3  1  0  0  0
  3  4  2  0  0  0
  4  5  1  0  0  0
  5  6  2  0  0  0
  5  7  1  0  0  0
  7  8  2  0  0  0
  7 11  1  0  0  0
  8  9  1  0  0  0
  9 10  2  0  0  0
 10 11  1  0  0  0
 15 16  1  0  0  0
 11 12  1  0  0  0
M  END
> <minimizedAffinity>
-6.99633

$$$$
3G35_F13_A_1


 23 25  0  0  0  0  0  0  0  0999 V2000
   -6.7290   53.7328   11.6696 C   0  0  0  0  0  0  0  0  0  0  0  0
   -7.4854   53.4894   12.8235 C   0  0  0  0  0  0  0  0  0  0  0  0
   -6.8649   53.1302   14.0203 C   0  0  0  0  0  0  0  0  0  0  0  0
   -5.4835   52.9860   14.0935 C   0  0  0  0  0  0  0  0  0  0  0  0
   -4.7327   53.2187   12.9466 C   0  0  0  0  0  0  0  0  0  0  0  0
   -5.3433   53.5963   11.7483 C   0  0  0  0  0  0  0  0  0  0  0  0
   -3.2608   53.0692   13.0007 C   0  0  0  0  0  0  0  0  0  0  0  0
   -2.5986   51.9239   12.7545 N   0  0  0  0  0  0  0  0  0  0  0  0
   -1.2405   52.1598   12.9131 N   0  0  0  0  0  0  0  0  0  0  0  0
   -1.1036   53.4997   13.2732 N   0  0  0  0  0  0  0  0  0  0  0  0
   -2.3851   54.0416   13.3288 N   0  0  0  0  0  0  0  0  0  0  0  0
   -2.6119   54.9699   13.5655 H   0  0  0  0  0  0  0  0  0  0  0  0
   -7.5814   55.3519   10.1189 C   0  0  0  0  0  0  0  0  0  0  0  0
   -7.4347   56.3114   10.8600 O   0  0  0  0  0  0  0  0  0  0  0  0
   -7.2906   54.0961   10.4802 N   0  0  0  0  0  0  0  0  0  0  0  0
   -7.4978   53.3792    9.8380 H   0  0  0  0  0  0  0  0  0  0  0  0
  -11.2287   56.3255    7.0401 F   0  0  0  0  0  0  0  0  0  0  0  0
   -9.9119   56.0820    7.2246 C   0  0  0  0  0  0  0  0  0  0  0  0
   -9.4414   55.8348    8.5102 C   0  0  0  0  0  0  0  0  0  0  0  0
   -9.0313   56.0667    6.1533 C   0  0  0  0  0  0  0  0  0  0  0  0
   -7.6748   55.8165    6.3494 C   0  0  0  0  0  0  0  0  0  0  0  0
   -7.1972   55.5862    7.6392 C   0  0  0  0  0  0  0  0  0  0  0  0
   -8.0854   55.5890    8.7202 C   0  0  0  0  0  0  0  0  0  0  0  0
 17 18  1  0  0  0
 18 19  2  0  0  0
 18 20  1  0  0  0
 19 23  1  0  0  0
 20 21  2  0  0  0
 21 22  1  0  0  0
 22 23  2  0  0  0
 23 13  1  0  0  0
 13 14  2  0  0  0
 13 15  1  0  0  0
 15  1  1  0  0  0
  1  2  2  0  0  0
  1  6  1  0  0  0
  2  3  1  0  0  0
  3  4  2  0  0  0
  4  5  1  0  0  0
  5  6  2  0  0  0
  5  7  1  0  0  0
  7  8  2  0  0  0
  7 11  1  0  0  0
  8  9  1  0  0  0
  9 10  2  0  0  0
 10 11  1  0  0  0
 15 16  1  0  0  0
 11 12  1  0  0  0
M  END
> <minimizedAffinity>
-6.85891

$$$$
3G35_F13_A_1


 23 25  0  0  0  0  0  0  0  0999 V2000
   -9.1511   55.2872   10.8893 C   0  0  0  0  0  0  0  0  0  0  0  0
  -10.0269   54.4190   10.2246 C   0  0  0  0  0  0  0  0  0  0  0  0
  -11.2489   54.8782    9.7320 C   0  0  0  0  0  0  0  0  0  0  0  0
  -11.6364   56.2026    9.9049 C   0  0  0  0  0  0  0  0  0  0  0  0
  -10.7717   57.0629   10.5723 C   0  0  0  0  0  0  0  0  0  0  0  0
   -9.5384   56.6169   11.0532 C   0  0  0  0  0  0  0  0  0  0  0  0
  -11.1645   58.4767   10.7695 C   0  0  0  0  0  0  0  0  0  0  0  0
  -11.8412   59.2151    9.8708 N   0  0  0  0  0  0  0  0  0  0  0  0
  -12.0164   60.4888   10.3927 N   0  0  0  0  0  0  0  0  0  0  0  0
  -11.4107   60.4966   11.6485 N   0  0  0  0  0  0  0  0  0  0  0  0
  -10.8784   59.2264   11.8540 N   0  0  0  0  0  0  0  0  0  0  0  0
  -10.3813   58.9282   12.6498 H   0  0  0  0  0  0  0  0  0  0  0  0
   -7.7406   54.3595   12.5931 C   0  0  0  0  0  0  0  0  0  0  0  0
   -8.6250   54.2469   13.4277 O   0  0  0  0  0  0  0  0  0  0  0  0
   -7.9421   54.8862   11.3790 N   0  0  0  0  0  0  0  0  0  0  0  0
   -7.1574   54.9924   10.7940 H   0  0  0  0  0  0  0  0  0  0  0  0
   -2.9226   54.4158   11.8764 F   0  0  0  0  0  0  0  0  0  0  0  0
   -3.9798   53.9169   12.5552 C   0  0  0  0  0  0  0  0  0  0  0  0
   -5.2604   54.3551   12.2338 C   0  0  0  0  0  0  0  0  0  0  0  0
   -3.8051   52.9724   13.5558 C   0  0  0  0  0  0  0  0  0  0  0  0
   -4.8982   52.4626   14.2531 C   0  0  0  0  0  0  0  0  0  0  0  0
   -6.1815   52.9133   13.9455 C   0  0  0  0  0  0  0  0  0  0  0  0
   -6.3616   53.8569   12.9284 C   0  0  0  0  0  0  0  0  0  0  0  0
 17 18  1  0  0  0
 18 19  2  0  0  0
 18 20  1  0  0  0
 19 23  1  0  0  0
 20 21  2  0  0  0
 21 22  1  0  0  0
 22 23  2  0  0  0
 23 13  1  0  0  0
 13 14  2  0  0  0
 13 15  1  0  0  0
 15  1  1  0  0  0
  1  2  2  0  0  0
  1  6  1  0  0  0
  2  3  1  0  0  0
  3  4  2  0  0  0
  4  5  1  0  0  0
  5  6  2  0  0  0
  5  7  1  0  0  0
  7  8  2  0  0  0
  7 11  1  0  0  0
  8  9  1  0  0  0
  9 10  2  0  0  0
 10 11  1  0  0  0
 15 16  1  0  0  0
 11 12  1  0  0  0
M  END
> <minimizedAffinity>
-6.75758

$$$$
