1A4K_FRA_H_3083


 34 37  0  0  0  0  0  0  0  0999 V2000
   56.3809   57.1689    1.0351 N   0  0  0  0  0  0  0  0  0  0  0  0
   56.0055   57.8277    2.1868 C   0  0  0  0  0  0  0  0  0  0  0  0
   57.0629   58.8162    2.6590 C   0  0  0  0  0  0  0  0  0  0  0  0
   58.2067   58.6433    1.5951 C   0  0  0  0  0  0  0  0  0  0  0  0
   57.6166   57.5906    0.6662 C   0  0  0  0  0  0  0  0  0  0  0  0
   54.9407   57.6892    2.8013 O   0  0  0  0  0  0  0  0  0  0  0  0
   58.2553   57.2120   -0.3201 O   0  0  0  0  0  0  0  0  0  0  0  0
   56.6151   60.3902    2.7299 C   0  0  0  0  0  0  0  0  0  0  0  0
   56.1481   60.8946    1.2659 C   0  0  0  0  0  0  0  0  0  0  0  0
   57.3436   60.6551    0.2058 C   0  0  0  0  0  0  0  0  0  0  0  0
   58.9305   61.0118    2.2176 C   0  0  0  0  0  0  0  0  0  0  0  0
   57.8873   61.1963    3.1317 C   0  0  0  0  0  0  0  0  0  0  0  0
   58.6300   60.0334    0.9470 C   0  0  0  0  0  0  0  0  0  0  0  0
   53.9098   54.3712   -1.1743 C   0  0  0  0  0  0  0  0  0  0  0  0
   53.3618   55.4988   -0.5250 C   0  0  0  0  0  0  0  0  0  0  0  0
   54.1727   56.3719    0.1794 C   0  0  0  0  0  0  0  0  0  0  0  0
   55.5727   56.1669    0.2799 C   0  0  0  0  0  0  0  0  0  0  0  0
   56.1367   55.0181   -0.3751 C   0  0  0  0  0  0  0  0  0  0  0  0
   55.3108   54.1284   -1.0960 C   0  0  0  0  0  0  0  0  0  0  0  0
   51.1637   52.0153   -2.7111 C   0  0  0  0  0  0  0  0  0  0  0  0
   51.9198   52.8170   -1.6591 C   0  0  0  0  0  0  0  0  0  0  0  0
   51.4980   52.8576   -0.4929 O   0  0  0  0  0  0  0  0  0  0  0  0
   53.0335   53.4977   -1.9051 N   0  0  0  0  0  0  0  0  0  0  0  0
   53.3390   53.3702   -2.8323 H   0  0  0  0  0  0  0  0  0  0  0  0
   59.6832   59.7278   -0.0613 N   0  0  0  0  0  0  0  0  0  0  0  0
   60.5529   60.5974   -0.5698 C   0  0  0  0  0  0  0  0  0  0  0  0
   60.5854   61.7994   -0.2870 O   0  0  0  0  0  0  0  0  0  0  0  0
   59.7411   58.7982   -0.3804 H   0  0  0  0  0  0  0  0  0  0  0  0
   61.4269   59.9229   -1.4100 O   0  0  0  0  0  0  0  0  0  0  0  0
   62.7496   59.5637   -0.9124 C   0  0  0  0  0  0  0  0  0  0  0  0
   63.5074   60.8712   -1.0246 C   0  0  0  0  0  0  0  0  0  0  0  0
   63.8531   61.2529   -2.1707 O   0  0  0  0  0  0  0  0  0  0  0  0
   63.7555   61.5269    0.0075 O   0  0  0  0  0  0  0  0  0  0  0  0
   63.4798   61.2064    0.8437 H   0  0  0  0  0  0  0  0  0  0  0  0
 20 21  1  0  0  0
 21 22  2  0  0  0
 21 23  1  0  0  0
 23 14  1  0  0  0
 14 15  2  0  0  0
 14 19  1  0  0  0
 15 16  1  0  0  0
 16 17  2  0  0  0
 17 18  1  0  0  0
 17  1  1  0  0  0
 18 19  2  0  0  0
  1  2  1  0  0  0
  1  5  1  0  0  0
  2  3  1  0  0  0
  2  6  2  0  0  0
  3  4  1  0  0  0
  3  8  1  0  0  0
  4  5  1  0  0  0
  4 13  1  0  0  0
  5  7  2  0  0  0
  8  9  1  0  0  0
  8 12  1  0  0  0
  9 10  1  0  0  0
 10 13  1  0  0  0
 11 12  1  0  0  0
 11 13  1  0  0  0
 13 25  1  0  0  0
 25 26  1  0  0  0
 26 27  2  0  0  0
 26 29  1  0  0  0
 29 30  1  0  0  0
 30 31  1  0  0  0
 31 32  2  0  0  0
 31 33  1  0  0  0
 23 24  1  0  0  0
 25 28  1  0  0  0
 33 34  1  0  0  0
M  END
> <minimizedAffinity>
-10.71382

$$$$
1A4K_FRA_H_3083


 34 37  0  0  0  0  0  0  0  0999 V2000
   56.2426   56.9878    0.9678 N   0  0  0  0  0  0  0  0  0  0  0  0
   55.9402   57.6617    2.1322 C   0  0  0  0  0  0  0  0  0  0  0  0
   57.0648   58.5884    2.5733 C   0  0  0  0  0  0  0  0  0  0  0  0
   58.1636   58.3570    1.4738 C   0  0  0  0  0  0  0  0  0  0  0  0
   57.4877   57.3422    0.5614 C   0  0  0  0  0  0  0  0  0  0  0  0
   54.8890   57.5797    2.7794 O   0  0  0  0  0  0  0  0  0  0  0  0
   58.0735   56.9329   -0.4453 O   0  0  0  0  0  0  0  0  0  0  0  0
   56.7070   60.1845    2.6618 C   0  0  0  0  0  0  0  0  0  0  0  0
   56.2233   60.7197    1.2143 C   0  0  0  0  0  0  0  0  0  0  0  0
   57.3702   60.4189    0.1167 C   0  0  0  0  0  0  0  0  0  0  0  0
   59.0363   60.6794    2.0788 C   0  0  0  0  0  0  0  0  0  0  0  0
   58.0337   60.9176    3.0254 C   0  0  0  0  0  0  0  0  0  0  0  0
   58.6427   59.7242    0.8159 C   0  0  0  0  0  0  0  0  0  0  0  0
   53.5573   54.3423   -1.1782 C   0  0  0  0  0  0  0  0  0  0  0  0
   53.1028   55.5318   -0.5683 C   0  0  0  0  0  0  0  0  0  0  0  0
   53.9803   56.3545    0.1167 C   0  0  0  0  0  0  0  0  0  0  0  0
   55.3571   56.0350    0.2360 C   0  0  0  0  0  0  0  0  0  0  0  0
   55.8259   54.8229   -0.3789 C   0  0  0  0  0  0  0  0  0  0  0  0
   54.9321   53.9844   -1.0799 C   0  0  0  0  0  0  0  0  0  0  0  0
   50.7102   52.0440   -2.6151 C   0  0  0  0  0  0  0  0  0  0  0  0
   51.5909   52.7359   -1.5823 C   0  0  0  0  0  0  0  0  0  0  0  0
   51.3665   52.5751   -0.3726 O   0  0  0  0  0  0  0  0  0  0  0  0
   52.6147   53.5239   -1.8902 N   0  0  0  0  0  0  0  0  0  0  0  0
   52.7683   53.5558   -2.8621 H   0  0  0  0  0  0  0  0  0  0  0  0
   59.6456   59.3650   -0.2255 N   0  0  0  0  0  0  0  0  0  0  0  0
   60.5077   60.2003   -0.8002 C   0  0  0  0  0  0  0  0  0  0  0  0
   60.5738   61.4102   -0.5602 O   0  0  0  0  0  0  0  0  0  0  0  0
   59.6731   58.4244   -0.5149 H   0  0  0  0  0  0  0  0  0  0  0  0
   61.3323   59.4815   -1.6534 O   0  0  0  0  0  0  0  0  0  0  0  0
   61.0714   58.0617   -1.8584 C   0  0  0  0  0  0  0  0  0  0  0  0
   60.2115   58.0639   -3.1062 C   0  0  0  0  0  0  0  0  0  0  0  0
   60.7925   58.1097   -4.2194 O   0  0  0  0  0  0  0  0  0  0  0  0
   58.9699   58.0119   -2.9956 O   0  0  0  0  0  0  0  0  0  0  0  0
   58.5762   57.9790   -2.1460 H   0  0  0  0  0  0  0  0  0  0  0  0
 20 21  1  0  0  0
 21 22  2  0  0  0
 21 23  1  0  0  0
 23 14  1  0  0  0
 14 15  2  0  0  0
 14 19  1  0  0  0
 15 16  1  0  0  0
 16 17  2  0  0  0
 17 18  1  0  0  0
 17  1  1  0  0  0
 18 19  2  0  0  0
  1  2  1  0  0  0
  1  5  1  0  0  0
  2  3  1  0  0  0
  2  6  2  0  0  0
  3  4  1  0  0  0
  3  8  1  0  0  0
  4  5  1  0  0  0
  4 13  1  0  0  0
  5  7  2  0  0  0
  8  9  1  0  0  0
  8 12  1  0  0  0
  9 10  1  0  0  0
 10 13  1  0  0  0
 11 12  1  0  0  0
 11 13  1  0  0  0
 13 25  1  0  0  0
 25 26  1  0  0  0
 26 27  2  0  0  0
 26 29  1  0  0  0
 29 30  1  0  0  0
 30 31  1  0  0  0
 31 32  2  0  0  0
 31 33  1  0  0  0
 23 24  1  0  0  0
 25 28  1  0  0  0
 33 34  1  0  0  0
M  END
> <minimizedAffinity>
-10.70882

$$$$
1A4K_FRA_H_3083


 34 37  0  0  0  0  0  0  0  0999 V2000
   53.9202   54.4810   -0.2079 N   0  0  0  0  0  0  0  0  0  0  0  0
   54.0354   53.1204   -0.0158 C   0  0  0  0  0  0  0  0  0  0  0  0
   52.7878   52.3662   -0.4549 C   0  0  0  0  0  0  0  0  0  0  0  0
   51.8350   53.5163   -0.9441 C   0  0  0  0  0  0  0  0  0  0  0  0
   52.6952   54.7535   -0.7237 C   0  0  0  0  0  0  0  0  0  0  0  0
   55.0176   52.5208    0.4385 O   0  0  0  0  0  0  0  0  0  0  0  0
   52.2579   55.8688   -1.0218 O   0  0  0  0  0  0  0  0  0  0  0  0
   52.9798   51.2675   -1.6545 C   0  0  0  0  0  0  0  0  0  0  0  0
   53.5560   51.9955   -2.9787 C   0  0  0  0  0  0  0  0  0  0  0  0
   52.5621   53.1934   -3.4118 C   0  0  0  0  0  0  0  0  0  0  0  0
   50.6861   51.7426   -2.3778 C   0  0  0  0  0  0  0  0  0  0  0  0
   51.5586   50.7207   -1.9876 C   0  0  0  0  0  0  0  0  0  0  0  0
   51.2970   53.2550   -2.4186 C   0  0  0  0  0  0  0  0  0  0  0  0
   56.8918   57.4867    0.7669 C   0  0  0  0  0  0  0  0  0  0  0  0
   55.7013   57.3456    1.5126 C   0  0  0  0  0  0  0  0  0  0  0  0
   54.7663   56.3823    1.1753 C   0  0  0  0  0  0  0  0  0  0  0  0
   54.9635   55.5105    0.0738 C   0  0  0  0  0  0  0  0  0  0  0  0
   56.1715   55.6517   -0.6927 C   0  0  0  0  0  0  0  0  0  0  0  0
   57.1270   56.6323   -0.3478 C   0  0  0  0  0  0  0  0  0  0  0  0
   59.1291   60.6132    1.5872 C   0  0  0  0  0  0  0  0  0  0  0  0
   58.0285   59.7869    0.9338 C   0  0  0  0  0  0  0  0  0  0  0  0
   57.2429   60.3245    0.1380 O   0  0  0  0  0  0  0  0  0  0  0  0
   57.8413   58.4915    1.1595 N   0  0  0  0  0  0  0  0  0  0  0  0
   58.5357   58.1225    1.7518 H   0  0  0  0  0  0  0  0  0  0  0  0
   50.4455   54.4250   -2.7727 N   0  0  0  0  0  0  0  0  0  0  0  0
   49.7657   54.5812   -3.9061 C   0  0  0  0  0  0  0  0  0  0  0  0
   49.7719   53.7741   -4.8413 O   0  0  0  0  0  0  0  0  0  0  0  0
   50.3797   55.1482   -2.1080 H   0  0  0  0  0  0  0  0  0  0  0  0
   49.0268   55.7529   -3.8316 O   0  0  0  0  0  0  0  0  0  0  0  0
   47.8547   55.9046   -4.6855 C   0  0  0  0  0  0  0  0  0  0  0  0
   46.7553   55.2876   -3.8447 C   0  0  0  0  0  0  0  0  0  0  0  0
   46.2654   54.1959   -4.2283 O   0  0  0  0  0  0  0  0  0  0  0  0
   46.3791   55.8671   -2.8058 O   0  0  0  0  0  0  0  0  0  0  0  0
   46.7708   56.6805   -2.5551 H   0  0  0  0  0  0  0  0  0  0  0  0
 20 21  1  0  0  0
 21 22  2  0  0  0
 21 23  1  0  0  0
 23 14  1  0  0  0
 14 15  2  0  0  0
 14 19  1  0  0  0
 15 16  1  0  0  0
 16 17  2  0  0  0
 17 18  1  0  0  0
 17  1  1  0  0  0
 18 19  2  0  0  0
  1  2  1  0  0  0
  1  5  1  0  0  0
  2  3  1  0  0  0
  2  6  2  0  0  0
  3  4  1  0  0  0
  3  8  1  0  0  0
  4  5  1  0  0  0
  4 13  1  0  0  0
  5  7  2  0  0  0
  8  9  1  0  0  0
  8 12  1  0  0  0
  9 10  1  0  0  0
 10 13  1  0  0  0
 11 12  1  0  0  0
 11 13  1  0  0  0
 13 25  1  0  0  0
 25 26  1  0  0  0
 26 27  2  0  0  0
 26 29  1  0  0  0
 29 30  1  0  0  0
 30 31  1  0  0  0
 31 32  2  0  0  0
 31 33  1  0  0  0
 23 24  1  0  0  0
 25 28  1  0  0  0
 33 34  1  0  0  0
M  END
> <minimizedAffinity>
-9.73617

$$$$
1A4K_FRA_H_3083


 34 37  0  0  0  0  0  0  0  0999 V2000
   54.7296   54.8203   -0.6513 N   0  0  0  0  0  0  0  0  0  0  0  0
   53.3750   54.7158   -0.8865 C   0  0  0  0  0  0  0  0  0  0  0  0
   53.0018   53.3938   -1.5433 C   0  0  0  0  0  0  0  0  0  0  0  0
   54.3912   52.6780   -1.7083 C   0  0  0  0  0  0  0  0  0  0  0  0
   55.3455   53.6986   -1.1026 C   0  0  0  0  0  0  0  0  0  0  0  0
   52.5109   55.5549   -0.6038 O   0  0  0  0  0  0  0  0  0  0  0  0
   56.5546   53.4552   -1.0488 O   0  0  0  0  0  0  0  0  0  0  0  0
   51.9818   52.4223   -0.7073 C   0  0  0  0  0  0  0  0  0  0  0  0
   52.6320   52.0465    0.7250 C   0  0  0  0  0  0  0  0  0  0  0  0
   54.0740   51.3538    0.4981 C   0  0  0  0  0  0  0  0  0  0  0  0
   53.0834   50.4847   -1.7283 C   0  0  0  0  0  0  0  0  0  0  0  0
   51.8454   51.1067   -1.5322 C   0  0  0  0  0  0  0  0  0  0  0  0
   54.3862   51.2183   -1.0751 C   0  0  0  0  0  0  0  0  0  0  0  0
   56.6977   58.0852    1.4179 C   0  0  0  0  0  0  0  0  0  0  0  0
   55.5355   57.4695    1.9314 C   0  0  0  0  0  0  0  0  0  0  0  0
   54.9234   56.4339    1.2467 C   0  0  0  0  0  0  0  0  0  0  0  0
   55.4322   55.9584    0.0109 C   0  0  0  0  0  0  0  0  0  0  0  0
   56.6128   56.5839   -0.5200 C   0  0  0  0  0  0  0  0  0  0  0  0
   57.2394   57.6386    0.1790 C   0  0  0  0  0  0  0  0  0  0  0  0
   58.0186   61.3472    3.1694 C   0  0  0  0  0  0  0  0  0  0  0  0
   57.2964   60.4763    2.1491 C   0  0  0  0  0  0  0  0  0  0  0  0
   56.6494   61.0067    1.2327 O   0  0  0  0  0  0  0  0  0  0  0  0
   57.3083   59.1484    2.1676 N   0  0  0  0  0  0  0  0  0  0  0  0
   57.8881   58.8009    2.8834 H   0  0  0  0  0  0  0  0  0  0  0  0
   55.7587   50.6702   -1.2624 N   0  0  0  0  0  0  0  0  0  0  0  0
   56.2472   50.1568   -2.3889 C   0  0  0  0  0  0  0  0  0  0  0  0
   55.6073   50.0414   -3.4391 O   0  0  0  0  0  0  0  0  0  0  0  0
   56.3588   50.6896   -0.4822 H   0  0  0  0  0  0  0  0  0  0  0  0
   57.5822   49.8325   -2.1956 O   0  0  0  0  0  0  0  0  0  0  0  0
   58.6076   50.7796   -2.6171 C   0  0  0  0  0  0  0  0  0  0  0  0
   59.3294   51.0795   -1.3189 C   0  0  0  0  0  0  0  0  0  0  0  0
   60.5438   50.7674   -1.2367 O   0  0  0  0  0  0  0  0  0  0  0  0
   58.7098   51.6278   -0.3850 O   0  0  0  0  0  0  0  0  0  0  0  0
   57.8039   51.8442   -0.4873 H   0  0  0  0  0  0  0  0  0  0  0  0
 20 21  1  0  0  0
 21 22  2  0  0  0
 21 23  1  0  0  0
 23 14  1  0  0  0
 14 15  2  0  0  0
 14 19  1  0  0  0
 15 16  1  0  0  0
 16 17  2  0  0  0
 17 18  1  0  0  0
 17  1  1  0  0  0
 18 19  2  0  0  0
  1  2  1  0  0  0
  1  5  1  0  0  0
  2  3  1  0  0  0
  2  6  2  0  0  0
  3  4  1  0  0  0
  3  8  1  0  0  0
  4  5  1  0  0  0
  4 13  1  0  0  0
  5  7  2  0  0  0
  8  9  1  0  0  0
  8 12  1  0  0  0
  9 10  1  0  0  0
 10 13  1  0  0  0
 11 12  1  0  0  0
 11 13  1  0  0  0
 13 25  1  0  0  0
 25 26  1  0  0  0
 26 27  2  0  0  0
 26 29  1  0  0  0
 29 30  1  0  0  0
 30 31  1  0  0  0
 31 32  2  0  0  0
 31 33  1  0  0  0
 23 24  1  0  0  0
 25 28  1  0  0  0
 33 34  1  0  0  0
M  END
> <minimizedAffinity>
-9.66726

$$$$
1A4K_FRA_H_3083


 34 37  0  0  0  0  0  0  0  0999 V2000
   59.3769   59.2742   -1.2919 N   0  0  0  0  0  0  0  0  0  0  0  0
   59.7216   60.4103   -0.5906 C   0  0  0  0  0  0  0  0  0  0  0  0
   58.5879   60.9106    0.2940 C   0  0  0  0  0  0  0  0  0  0  0  0
   57.4342   59.8840    0.0022 C   0  0  0  0  0  0  0  0  0  0  0  0
   58.0952   58.9423   -0.9954 C   0  0  0  0  0  0  0  0  0  0  0  0
   60.8132   60.9917   -0.6199 O   0  0  0  0  0  0  0  0  0  0  0  0
   57.4665   57.9784   -1.4422 O   0  0  0  0  0  0  0  0  0  0  0  0
   58.8821   60.9596    1.9047 C   0  0  0  0  0  0  0  0  0  0  0  0
   59.2523   59.4793    2.4404 C   0  0  0  0  0  0  0  0  0  0  0  0
   58.0538   58.4584    2.0773 C   0  0  0  0  0  0  0  0  0  0  0  0
   56.5023   60.5173    2.2939 C   0  0  0  0  0  0  0  0  0  0  0  0
   57.5503   61.3972    2.5863 C   0  0  0  0  0  0  0  0  0  0  0  0
   56.8576   59.2427    1.3393 C   0  0  0  0  0  0  0  0  0  0  0  0
   61.8441   57.0845   -4.1086 C   0  0  0  0  0  0  0  0  0  0  0  0
   60.5676   57.5754   -4.4597 C   0  0  0  0  0  0  0  0  0  0  0  0
   59.7981   58.2651   -3.5387 C   0  0  0  0  0  0  0  0  0  0  0  0
   60.2554   58.4990   -2.2165 C   0  0  0  0  0  0  0  0  0  0  0  0
   61.5524   57.9979   -1.8509 C   0  0  0  0  0  0  0  0  0  0  0  0
   62.3392   57.2966   -2.7903 C   0  0  0  0  0  0  0  0  0  0  0  0
   64.2744   55.6527   -6.8465 C   0  0  0  0  0  0  0  0  0  0  0  0
   63.5922   56.6780   -5.9496 C   0  0  0  0  0  0  0  0  0  0  0  0
   63.9460   57.8666   -5.9906 O   0  0  0  0  0  0  0  0  0  0  0  0
   62.6148   56.3850   -5.0994 N   0  0  0  0  0  0  0  0  0  0  0  0
   62.3480   55.4396   -5.1654 H   0  0  0  0  0  0  0  0  0  0  0  0
   55.8086   58.2695    0.9246 N   0  0  0  0  0  0  0  0  0  0  0  0
   55.0985   57.4928    1.7392 C   0  0  0  0  0  0  0  0  0  0  0  0
   55.2360   57.4570    2.9662 O   0  0  0  0  0  0  0  0  0  0  0  0
   55.6240   58.1942   -0.0395 H   0  0  0  0  0  0  0  0  0  0  0  0
   54.1651   56.7890    0.9921 O   0  0  0  0  0  0  0  0  0  0  0  0
   54.6333   55.8372   -0.0083 C   0  0  0  0  0  0  0  0  0  0  0  0
   53.3437   55.1931   -0.4757 C   0  0  0  0  0  0  0  0  0  0  0  0
   53.3759   53.9778   -0.7932 O   0  0  0  0  0  0  0  0  0  0  0  0
   52.2997   55.8746   -0.5231 O   0  0  0  0  0  0  0  0  0  0  0  0
   52.3189   56.7787   -0.2776 H   0  0  0  0  0  0  0  0  0  0  0  0
 20 21  1  0  0  0
 21 22  2  0  0  0
 21 23  1  0  0  0
 23 14  1  0  0  0
 14 15  2  0  0  0
 14 19  1  0  0  0
 15 16  1  0  0  0
 16 17  2  0  0  0
 17 18  1  0  0  0
 17  1  1  0  0  0
 18 19  2  0  0  0
  1  2  1  0  0  0
  1  5  1  0  0  0
  2  3  1  0  0  0
  2  6  2  0  0  0
  3  4  1  0  0  0
  3  8  1  0  0  0
  4  5  1  0  0  0
  4 13  1  0  0  0
  5  7  2  0  0  0
  8  9  1  0  0  0
  8 12  1  0  0  0
  9 10  1  0  0  0
 10 13  1  0  0  0
 11 12  1  0  0  0
 11 13  1  0  0  0
 13 25  1  0  0  0
 25 26  1  0  0  0
 26 27  2  0  0  0
 26 29  1  0  0  0
 29 30  1  0  0  0
 30 31  1  0  0  0
 31 32  2  0  0  0
 31 33  1  0  0  0
 23 24  1  0  0  0
 25 28  1  0  0  0
 33 34  1  0  0  0
M  END
> <minimizedAffinity>
-9.32436

$$$$
1A4K_FRA_H_3083


 34 37  0  0  0  0  0  0  0  0999 V2000
   53.6089   54.0609   -0.4579 N   0  0  0  0  0  0  0  0  0  0  0  0
   53.6697   52.8435    0.1866 C   0  0  0  0  0  0  0  0  0  0  0  0
   52.5807   51.8869   -0.2794 C   0  0  0  0  0  0  0  0  0  0  0  0
   51.7894   52.7413   -1.3347 C   0  0  0  0  0  0  0  0  0  0  0  0
   52.5619   54.0536   -1.3208 C   0  0  0  0  0  0  0  0  0  0  0  0
   54.4985   52.5014    1.0391 O   0  0  0  0  0  0  0  0  0  0  0  0
   52.2180   54.9785   -2.0627 O   0  0  0  0  0  0  0  0  0  0  0  0
   53.0803   50.4887   -0.9712 C   0  0  0  0  0  0  0  0  0  0  0  0
   53.9834   50.8124   -2.2732 C   0  0  0  0  0  0  0  0  0  0  0  0
   53.1377   51.7261   -3.3030 C   0  0  0  0  0  0  0  0  0  0  0  0
   51.0562   50.5176   -2.3541 C   0  0  0  0  0  0  0  0  0  0  0  0
   51.7960   49.7466   -1.4506 C   0  0  0  0  0  0  0  0  0  0  0  0
   51.6566   51.9875   -2.7297 C   0  0  0  0  0  0  0  0  0  0  0  0
   56.4203   57.3383   -0.0455 C   0  0  0  0  0  0  0  0  0  0  0  0
   56.7949   56.1013   -0.6137 C   0  0  0  0  0  0  0  0  0  0  0  0
   55.8792   55.0695   -0.7268 C   0  0  0  0  0  0  0  0  0  0  0  0
   54.5419   55.2115   -0.2755 C   0  0  0  0  0  0  0  0  0  0  0  0
   54.1549   56.4669    0.3083 C   0  0  0  0  0  0  0  0  0  0  0  0
   55.0874   57.5209    0.4217 C   0  0  0  0  0  0  0  0  0  0  0  0
   59.0032   60.2832   -0.3762 C   0  0  0  0  0  0  0  0  0  0  0  0
   58.0509   59.1746   -0.8067 C   0  0  0  0  0  0  0  0  0  0  0  0
   57.8495   58.9680   -2.0135 O   0  0  0  0  0  0  0  0  0  0  0  0
   57.3992   58.3868    0.0410 N   0  0  0  0  0  0  0  0  0  0  0  0
   57.6538   58.5691    0.9744 H   0  0  0  0  0  0  0  0  0  0  0  0
   50.9276   52.9115   -3.6430 N   0  0  0  0  0  0  0  0  0  0  0  0
   50.2878   52.5642   -4.7571 C   0  0  0  0  0  0  0  0  0  0  0  0
   50.2348   51.4132   -5.2023 O   0  0  0  0  0  0  0  0  0  0  0  0
   50.9184   53.8656   -3.4005 H   0  0  0  0  0  0  0  0  0  0  0  0
   49.6628   53.6839   -5.2866 O   0  0  0  0  0  0  0  0  0  0  0  0
   50.2387   54.3245   -6.4630 C   0  0  0  0  0  0  0  0  0  0  0  0
   51.1873   55.3366   -5.8529 C   0  0  0  0  0  0  0  0  0  0  0  0
   52.2545   55.5859   -6.4675 O   0  0  0  0  0  0  0  0  0  0  0  0
   50.8829   55.8925   -4.7782 O   0  0  0  0  0  0  0  0  0  0  0  0
   50.0767   55.6779   -4.3517 H   0  0  0  0  0  0  0  0  0  0  0  0
 20 21  1  0  0  0
 21 22  2  0  0  0
 21 23  1  0  0  0
 23 14  1  0  0  0
 14 15  2  0  0  0
 14 19  1  0  0  0
 15 16  1  0  0  0
 16 17  2  0  0  0
 17 18  1  0  0  0
 17  1  1  0  0  0
 18 19  2  0  0  0
  1  2  1  0  0  0
  1  5  1  0  0  0
  2  3  1  0  0  0
  2  6  2  0  0  0
  3  4  1  0  0  0
  3  8  1  0  0  0
  4  5  1  0  0  0
  4 13  1  0  0  0
  5  7  2  0  0  0
  8  9  1  0  0  0
  8 12  1  0  0  0
  9 10  1  0  0  0
 10 13  1  0  0  0
 11 12  1  0  0  0
 11 13  1  0  0  0
 13 25  1  0  0  0
 25 26  1  0  0  0
 26 27  2  0  0  0
 26 29  1  0  0  0
 29 30  1  0  0  0
 30 31  1  0  0  0
 31 32  2  0  0  0
 31 33  1  0  0  0
 23 24  1  0  0  0
 25 28  1  0  0  0
 33 34  1  0  0  0
M  END
> <minimizedAffinity>
-8.80255

$$$$
1A4K_FRA_H_3083


 34 37  0  0  0  0  0  0  0  0999 V2000
   58.1849   57.8891    1.1651 N   0  0  0  0  0  0  0  0  0  0  0  0
   58.2625   58.8365    2.1640 C   0  0  0  0  0  0  0  0  0  0  0  0
   59.6719   59.3879    2.3305 C   0  0  0  0  0  0  0  0  0  0  0  0
   60.4927   58.5866    1.2562 C   0  0  0  0  0  0  0  0  0  0  0  0
   59.4178   57.7098    0.6279 C   0  0  0  0  0  0  0  0  0  0  0  0
   57.3293   59.2462    2.8654 O   0  0  0  0  0  0  0  0  0  0  0  0
   59.7110   56.9388   -0.2907 O   0  0  0  0  0  0  0  0  0  0  0  0
   59.8646   60.9950    2.0794 C   0  0  0  0  0  0  0  0  0  0  0  0
   59.4068   61.3744    0.5754 C   0  0  0  0  0  0  0  0  0  0  0  0
   60.2504   60.4932   -0.4841 C   0  0  0  0  0  0  0  0  0  0  0  0
   62.1384   60.5391    1.2842 C   0  0  0  0  0  0  0  0  0  0  0  0
   61.3913   61.2841    2.2034 C   0  0  0  0  0  0  0  0  0  0  0  0
   61.3046   59.5528    0.2871 C   0  0  0  0  0  0  0  0  0  0  0  0
   54.7101   55.7002   -0.2311 C   0  0  0  0  0  0  0  0  0  0  0  0
   55.9833   55.5313   -0.8177 C   0  0  0  0  0  0  0  0  0  0  0  0
   57.0741   56.2481   -0.3570 C   0  0  0  0  0  0  0  0  0  0  0  0
   56.9556   57.1759    0.7094 C   0  0  0  0  0  0  0  0  0  0  0  0
   55.6611   57.3562    1.3083 C   0  0  0  0  0  0  0  0  0  0  0  0
   54.5484   56.6236    0.8408 C   0  0  0  0  0  0  0  0  0  0  0  0
   51.7303   53.2890   -1.1029 C   0  0  0  0  0  0  0  0  0  0  0  0
   52.9546   53.8271   -0.3730 C   0  0  0  0  0  0  0  0  0  0  0  0
   53.3946   53.2269    0.6197 O   0  0  0  0  0  0  0  0  0  0  0  0
   53.6075   54.9266   -0.7320 N   0  0  0  0  0  0  0  0  0  0  0  0
   53.2391   55.3134   -1.5590 H   0  0  0  0  0  0  0  0  0  0  0  0
   62.0011   58.6781   -0.6974 N   0  0  0  0  0  0  0  0  0  0  0  0
   62.8226   59.0874   -1.6611 C   0  0  0  0  0  0  0  0  0  0  0  0
   63.1008   60.2696   -1.8866 O   0  0  0  0  0  0  0  0  0  0  0  0
   61.8389   57.7095   -0.6289 H   0  0  0  0  0  0  0  0  0  0  0  0
   63.3391   57.9784   -2.3153 O   0  0  0  0  0  0  0  0  0  0  0  0
   62.9984   57.7623   -3.7164 C   0  0  0  0  0  0  0  0  0  0  0  0
   61.5296   57.3964   -3.6431 C   0  0  0  0  0  0  0  0  0  0  0  0
   60.7260   58.0479   -4.3562 O   0  0  0  0  0  0  0  0  0  0  0  0
   61.1657   56.4666   -2.8950 O   0  0  0  0  0  0  0  0  0  0  0  0
   61.7977   56.0057   -2.3792 H   0  0  0  0  0  0  0  0  0  0  0  0
 20 21  1  0  0  0
 21 22  2  0  0  0
 21 23  1  0  0  0
 23 14  1  0  0  0
 14 15  2  0  0  0
 14 19  1  0  0  0
 15 16  1  0  0  0
 16 17  2  0  0  0
 17 18  1  0  0  0
 17  1  1  0  0  0
 18 19  2  0  0  0
  1  2  1  0  0  0
  1  5  1  0  0  0
  2  3  1  0  0  0
  2  6  2  0  0  0
  3  4  1  0  0  0
  3  8  1  0  0  0
  4  5  1  0  0  0
  4 13  1  0  0  0
  5  7  2  0  0  0
  8  9  1  0  0  0
  8 12  1  0  0  0
  9 10  1  0  0  0
 10 13  1  0  0  0
 11 12  1  0  0  0
 11 13  1  0  0  0
 13 25  1  0  0  0
 25 26  1  0  0  0
 26 27  2  0  0  0
 26 29  1  0  0  0
 29 30  1  0  0  0
 30 31  1  0  0  0
 31 32  2  0  0  0
 31 33  1  0  0  0
 23 24  1  0  0  0
 25 28  1  0  0  0
 33 34  1  0  0  0
M  END
> <minimizedAffinity>
-8.64963

$$$$
1A4K_FRA_H_3083


 34 37  0  0  0  0  0  0  0  0999 V2000
   60.1873   59.0382    0.6811 N   0  0  0  0  0  0  0  0  0  0  0  0
   59.9116   60.3633    0.9446 C   0  0  0  0  0  0  0  0  0  0  0  0
   58.4844   60.7423    0.5736 C   0  0  0  0  0  0  0  0  0  0  0  0
   57.9035   59.4021   -0.0064 C   0  0  0  0  0  0  0  0  0  0  0  0
   59.0881   58.4562    0.1389 C   0  0  0  0  0  0  0  0  0  0  0  0
   60.6845   61.1925    1.4402 O   0  0  0  0  0  0  0  0  0  0  0  0
   58.9821   57.2779   -0.2136 O   0  0  0  0  0  0  0  0  0  0  0  0
   57.5264   61.2717    1.7923 C   0  0  0  0  0  0  0  0  0  0  0  0
   57.4080   60.1310    2.9326 C   0  0  0  0  0  0  0  0  0  0  0  0
   56.8475   58.7660    2.2745 C   0  0  0  0  0  0  0  0  0  0  0  0
   55.6005   60.3124    0.6172 C   0  0  0  0  0  0  0  0  0  0  0  0
   56.1088   61.4878    1.1811 C   0  0  0  0  0  0  0  0  0  0  0  0
   56.5448   58.9850    0.7089 C   0  0  0  0  0  0  0  0  0  0  0  0
   63.8621   56.9441    1.6432 C   0  0  0  0  0  0  0  0  0  0  0  0
   63.0633   57.5453    2.6402 C   0  0  0  0  0  0  0  0  0  0  0  0
   61.8986   58.2138    2.3045 C   0  0  0  0  0  0  0  0  0  0  0  0
   61.4686   58.3244    0.9573 C   0  0  0  0  0  0  0  0  0  0  0  0
   62.2796   57.7183   -0.0634 C   0  0  0  0  0  0  0  0  0  0  0  0
   63.4664   57.0341    0.2782 C   0  0  0  0  0  0  0  0  0  0  0  0
   66.7949   54.5701    2.7458 C   0  0  0  0  0  0  0  0  0  0  0  0
   65.3688   55.0386    2.4855 C   0  0  0  0  0  0  0  0  0  0  0  0
   64.4183   54.2688    2.6945 O   0  0  0  0  0  0  0  0  0  0  0  0
   65.0567   56.2492    2.0372 N   0  0  0  0  0  0  0  0  0  0  0  0
   65.8536   56.8210    1.9524 H   0  0  0  0  0  0  0  0  0  0  0  0
   56.1247   57.6920    0.0998 N   0  0  0  0  0  0  0  0  0  0  0  0
   55.1277   56.9179    0.5216 C   0  0  0  0  0  0  0  0  0  0  0  0
   54.4233   57.1609    1.5067 O   0  0  0  0  0  0  0  0  0  0  0  0
   56.6304   57.3822   -0.6860 H   0  0  0  0  0  0  0  0  0  0  0  0
   54.9888   55.8465   -0.3488 O   0  0  0  0  0  0  0  0  0  0  0  0
   54.3725   54.6174    0.1364 C   0  0  0  0  0  0  0  0  0  0  0  0
   53.1045   54.5390   -0.6899 C   0  0  0  0  0  0  0  0  0  0  0  0
   52.5058   55.6127   -0.9497 O   0  0  0  0  0  0  0  0  0  0  0  0
   52.7013   53.4284   -1.0907 O   0  0  0  0  0  0  0  0  0  0  0  0
   53.1777   52.6511   -0.8745 H   0  0  0  0  0  0  0  0  0  0  0  0
 20 21  1  0  0  0
 21 22  2  0  0  0
 21 23  1  0  0  0
 23 14  1  0  0  0
 14 15  2  0  0  0
 14 19  1  0  0  0
 15 16  1  0  0  0
 16 17  2  0  0  0
 17 18  1  0  0  0
 17  1  1  0  0  0
 18 19  2  0  0  0
  1  2  1  0  0  0
  1  5  1  0  0  0
  2  3  1  0  0  0
  2  6  2  0  0  0
  3  4  1  0  0  0
  3  8  1  0  0  0
  4  5  1  0  0  0
  4 13  1  0  0  0
  5  7  2  0  0  0
  8  9  1  0  0  0
  8 12  1  0  0  0
  9 10  1  0  0  0
 10 13  1  0  0  0
 11 12  1  0  0  0
 11 13  1  0  0  0
 13 25  1  0  0  0
 25 26  1  0  0  0
 26 27  2  0  0  0
 26 29  1  0  0  0
 29 30  1  0  0  0
 30 31  1  0  0  0
 31 32  2  0  0  0
 31 33  1  0  0  0
 23 24  1  0  0  0
 25 28  1  0  0  0
 33 34  1  0  0  0
M  END
> <minimizedAffinity>
-8.59938

$$$$
1A4K_FRA_H_3083


 34 37  0  0  0  0  0  0  0  0999 V2000
   58.3981   56.8380   -0.4155 N   0  0  0  0  0  0  0  0  0  0  0  0
   57.1552   56.9017    0.1781 C   0  0  0  0  0  0  0  0  0  0  0  0
   57.1262   57.8626    1.3587 C   0  0  0  0  0  0  0  0  0  0  0  0
   58.6068   58.3857    1.4235 C   0  0  0  0  0  0  0  0  0  0  0  0
   59.2514   57.6526    0.2547 C   0  0  0  0  0  0  0  0  0  0  0  0
   56.1390   56.2889   -0.1718 O   0  0  0  0  0  0  0  0  0  0  0  0
   60.4428   57.8406   -0.0086 O   0  0  0  0  0  0  0  0  0  0  0  0
   56.1010   59.1349    1.2432 C   0  0  0  0  0  0  0  0  0  0  0  0
   56.4753   60.0255   -0.0538 C   0  0  0  0  0  0  0  0  0  0  0  0
   58.0166   60.5001    0.0439 C   0  0  0  0  0  0  0  0  0  0  0  0
   57.6635   60.4431    2.6061 C   0  0  0  0  0  0  0  0  0  0  0  0
   56.3360   60.0112    2.5108 C   0  0  0  0  0  0  0  0  0  0  0  0
   58.6759   59.9753    1.4152 C   0  0  0  0  0  0  0  0  0  0  0  0
   59.5401   54.6353   -3.9735 C   0  0  0  0  0  0  0  0  0  0  0  0
   59.3633   56.0360   -3.9881 C   0  0  0  0  0  0  0  0  0  0  0  0
   58.9915   56.7132   -2.8396 C   0  0  0  0  0  0  0  0  0  0  0  0
   58.7705   56.0320   -1.6152 C   0  0  0  0  0  0  0  0  0  0  0  0
   58.9444   54.6050   -1.5942 C   0  0  0  0  0  0  0  0  0  0  0  0
   59.3262   53.9136   -2.7646 C   0  0  0  0  0  0  0  0  0  0  0  0
   60.0685   52.6989   -7.3535 C   0  0  0  0  0  0  0  0  0  0  0  0
   59.3684   53.1887   -6.0921 C   0  0  0  0  0  0  0  0  0  0  0  0
   58.1953   52.8528   -5.8672 O   0  0  0  0  0  0  0  0  0  0  0  0
   59.9389   53.9738   -5.1853 N   0  0  0  0  0  0  0  0  0  0  0  0
   60.8837   54.1485   -5.3999 H   0  0  0  0  0  0  0  0  0  0  0  0
   60.1209   60.3369    1.4405 N   0  0  0  0  0  0  0  0  0  0  0  0
   60.7434   61.1267    0.5687 C   0  0  0  0  0  0  0  0  0  0  0  0
   60.2009   61.6527   -0.4085 O   0  0  0  0  0  0  0  0  0  0  0  0
   60.6646   59.9572    2.1681 H   0  0  0  0  0  0  0  0  0  0  0  0
   62.0606   61.2934    0.9710 O   0  0  0  0  0  0  0  0  0  0  0  0
   63.1316   60.8877    0.0687 C   0  0  0  0  0  0  0  0  0  0  0  0
   63.7242   62.2169   -0.3540 C   0  0  0  0  0  0  0  0  0  0  0  0
   64.9625   62.2685   -0.5606 O   0  0  0  0  0  0  0  0  0  0  0  0
   62.9762   63.2059   -0.4918 O   0  0  0  0  0  0  0  0  0  0  0  0
   62.0573   63.1248   -0.3275 H   0  0  0  0  0  0  0  0  0  0  0  0
 20 21  1  0  0  0
 21 22  2  0  0  0
 21 23  1  0  0  0
 23 14  1  0  0  0
 14 15  2  0  0  0
 14 19  1  0  0  0
 15 16  1  0  0  0
 16 17  2  0  0  0
 17 18  1  0  0  0
 17  1  1  0  0  0
 18 19  2  0  0  0
  1  2  1  0  0  0
  1  5  1  0  0  0
  2  3  1  0  0  0
  2  6  2  0  0  0
  3  4  1  0  0  0
  3  8  1  0  0  0
  4  5  1  0  0  0
  4 13  1  0  0  0
  5  7  2  0  0  0
  8  9  1  0  0  0
  8 12  1  0  0  0
  9 10  1  0  0  0
 10 13  1  0  0  0
 11 12  1  0  0  0
 11 13  1  0  0  0
 13 25  1  0  0  0
 25 26  1  0  0  0
 26 27  2  0  0  0
 26 29  1  0  0  0
 29 30  1  0  0  0
 30 31  1  0  0  0
 31 32  2  0  0  0
 31 33  1  0  0  0
 23 24  1  0  0  0
 25 28  1  0  0  0
 33 34  1  0  0  0
M  END
> <minimizedAffinity>
-8.44080

$$$$
1A4K_FRA_H_3083


 34 37  0  0  0  0  0  0  0  0999 V2000
   53.4617   52.8972   -1.2152 N   0  0  0  0  0  0  0  0  0  0  0  0
   53.7951   51.5887   -0.9358 C   0  0  0  0  0  0  0  0  0  0  0  0
   52.8264   50.5974   -1.5659 C   0  0  0  0  0  0  0  0  0  0  0  0
   51.7864   51.5303   -2.2856 C   0  0  0  0  0  0  0  0  0  0  0  0
   52.3333   52.9157   -1.9683 C   0  0  0  0  0  0  0  0  0  0  0  0
   54.7648   51.2007   -0.2727 O   0  0  0  0  0  0  0  0  0  0  0  0
   51.7580   53.9188   -2.4006 O   0  0  0  0  0  0  0  0  0  0  0  0
   53.4576   49.5435   -2.6494 C   0  0  0  0  0  0  0  0  0  0  0  0
   54.1331   50.3547   -3.8747 C   0  0  0  0  0  0  0  0  0  0  0  0
   53.0334   51.3270   -4.5497 C   0  0  0  0  0  0  0  0  0  0  0  0
   51.3036   49.5470   -3.8201 C   0  0  0  0  0  0  0  0  0  0  0  0
   52.2614   48.7225   -3.2193 C   0  0  0  0  0  0  0  0  0  0  0  0
   51.6096   51.1496   -3.8204 C   0  0  0  0  0  0  0  0  0  0  0  0
   55.7688   56.3930   -0.0876 C   0  0  0  0  0  0  0  0  0  0  0  0
   56.3749   55.2499   -0.6529 C   0  0  0  0  0  0  0  0  0  0  0  0
   55.6156   54.1449   -0.9971 C   0  0  0  0  0  0  0  0  0  0  0  0
   54.2123   54.1159   -0.7924 C   0  0  0  0  0  0  0  0  0  0  0  0
   53.5893   55.2748   -0.2129 C   0  0  0  0  0  0  0  0  0  0  0  0
   54.3625   56.4034    0.1361 C   0  0  0  0  0  0  0  0  0  0  0  0
   57.9466   59.6465    0.2655 C   0  0  0  0  0  0  0  0  0  0  0  0
   57.1744   58.5213   -0.4118 C   0  0  0  0  0  0  0  0  0  0  0  0
   57.0630   58.5058   -1.6474 O   0  0  0  0  0  0  0  0  0  0  0  0
   56.5928   57.5230    0.2432 N   0  0  0  0  0  0  0  0  0  0  0  0
   56.7738   57.5692    1.2098 H   0  0  0  0  0  0  0  0  0  0  0  0
   50.6366   52.1237   -4.3894 N   0  0  0  0  0  0  0  0  0  0  0  0
   49.3160   52.0936   -4.2268 C   0  0  0  0  0  0  0  0  0  0  0  0
   48.7100   51.2238   -3.5927 O   0  0  0  0  0  0  0  0  0  0  0  0
   51.0037   52.8562   -4.9352 H   0  0  0  0  0  0  0  0  0  0  0  0
   48.7608   53.2109   -4.8335 O   0  0  0  0  0  0  0  0  0  0  0  0
   49.0953   54.5336   -4.3193 C   0  0  0  0  0  0  0  0  0  0  0  0
   47.7516   55.0496   -3.8452 C   0  0  0  0  0  0  0  0  0  0  0  0
   46.7528   54.2998   -3.9832 O   0  0  0  0  0  0  0  0  0  0  0  0
   47.6769   56.1837   -3.3306 O   0  0  0  0  0  0  0  0  0  0  0  0
   48.4465   56.7116   -3.2463 H   0  0  0  0  0  0  0  0  0  0  0  0
 20 21  1  0  0  0
 21 22  2  0  0  0
 21 23  1  0  0  0
 23 14  1  0  0  0
 14 15  2  0  0  0
 14 19  1  0  0  0
 15 16  1  0  0  0
 16 17  2  0  0  0
 17 18  1  0  0  0
 17  1  1  0  0  0
 18 19  2  0  0  0
  1  2  1  0  0  0
  1  5  1  0  0  0
  2  3  1  0  0  0
  2  6  2  0  0  0
  3  4  1  0  0  0
  3  8  1  0  0  0
  4  5  1  0  0  0
  4 13  1  0  0  0
  5  7  2  0  0  0
  8  9  1  0  0  0
  8 12  1  0  0  0
  9 10  1  0  0  0
 10 13  1  0  0  0
 11 12  1  0  0  0
 11 13  1  0  0  0
 13 25  1  0  0  0
 25 26  1  0  0  0
 26 27  2  0  0  0
 26 29  1  0  0  0
 29 30  1  0  0  0
 30 31  1  0  0  0
 31 32  2  0  0  0
 31 33  1  0  0  0
 23 24  1  0  0  0
 25 28  1  0  0  0
 33 34  1  0  0  0
M  END
> <minimizedAffinity>
-8.14912

$$$$
