4AQ4_G3P_A_1415


 14 13  0  0  0  0  0  0  0  0999 V2000
   42.5860   22.5781  178.7561 C   0  0  0  0  0  0  0  0  0  0  0  0
   42.9343   21.7012  177.5837 C   0  0  0  0  0  0  0  0  0  0  0  0
   41.8906   21.8001  176.6686 O   0  0  0  0  0  0  0  0  0  0  0  0
   41.0652   21.5094  177.0870 H   0  0  0  0  0  0  0  0  0  0  0  0
   43.6477   20.0536  179.2872 O   0  0  0  0  0  0  0  0  0  0  0  0
   43.0983   20.2725  178.0189 C   0  0  0  0  0  0  0  0  0  0  0  0
   43.7037   19.0999  179.4551 H   0  0  0  0  0  0  0  0  0  0  0  0
   43.5662   23.5055  179.1364 O   0  0  0  0  0  0  0  0  0  0  0  0
   44.0512   25.9239  179.4471 O   0  0  0  0  0  0  0  0  0  0  0  0
   42.2695   25.2087  177.9009 O   0  0  0  0  0  0  0  0  0  0  0  0
   44.6834   24.8296  177.3121 O   0  0  0  0  0  0  0  0  0  0  0  0
   43.6621   24.8858  178.4255 P   0  0  0  0  0  0  0  0  0  0  0  0
   43.3868   25.9473  180.1534 H   0  0  0  0  0  0  0  0  0  0  0  0
   45.5552   24.6223  177.6832 H   0  0  0  0  0  0  0  0  0  0  0  0
  5  6  1  0  0  0
  6  2  1  0  0  0
  2  3  1  0  0  0
  2  1  1  0  0  0
  1  8  1  0  0  0
  8 12  1  0  0  0
  9 12  1  0  0  0
 10 12  2  0  0  0
 11 12  1  0  0  0
  5  7  1  0  0  0
  3  4  1  0  0  0
  9 13  1  0  0  0
 11 14  1  0  0  0
M  END
> <minimizedAffinity>
-6.82278

$$$$
4AQ4_G3P_A_1415


 14 13  0  0  0  0  0  0  0  0999 V2000
   42.6582   23.7572  178.9414 C   0  0  0  0  0  0  0  0  0  0  0  0
   43.4789   24.9301  179.4056 C   0  0  0  0  0  0  0  0  0  0  0  0
   42.7501   26.0820  179.1254 O   0  0  0  0  0  0  0  0  0  0  0  0
   42.5795   26.1327  178.1719 H   0  0  0  0  0  0  0  0  0  0  0  0
   44.7639   24.8968  177.2907 O   0  0  0  0  0  0  0  0  0  0  0  0
   44.7980   24.9731  178.6876 C   0  0  0  0  0  0  0  0  0  0  0  0
   45.6686   24.9339  176.9427 H   0  0  0  0  0  0  0  0  0  0  0  0
   43.3838   22.6434  178.4958 O   0  0  0  0  0  0  0  0  0  0  0  0
   41.5017   22.2276  176.9258 O   0  0  0  0  0  0  0  0  0  0  0  0
   42.2879   20.4294  178.4175 O   0  0  0  0  0  0  0  0  0  0  0  0
   43.7031   21.1744  176.4786 O   0  0  0  0  0  0  0  0  0  0  0  0
   42.7236   21.6013  177.5482 P   0  0  0  0  0  0  0  0  0  0  0  0
   40.8843   22.4955  177.6244 H   0  0  0  0  0  0  0  0  0  0  0  0
   43.9570   21.9448  175.9466 H   0  0  0  0  0  0  0  0  0  0  0  0
  5  6  1  0  0  0
  6  2  1  0  0  0
  2  3  1  0  0  0
  2  1  1  0  0  0
  1  8  1  0  0  0
  8 12  1  0  0  0
  9 12  1  0  0  0
 10 12  2  0  0  0
 11 12  1  0  0  0
  5  7  1  0  0  0
  3  4  1  0  0  0
  9 13  1  0  0  0
 11 14  1  0  0  0
M  END
> <minimizedAffinity>
-6.25076

$$$$
4AQ4_G3P_A_1415


 14 13  0  0  0  0  0  0  0  0999 V2000
   43.3087   22.5253  178.6846 C   0  0  0  0  0  0  0  0  0  0  0  0
   42.1897   23.4908  178.4007 C   0  0  0  0  0  0  0  0  0  0  0  0
   41.6081   23.1073  177.1961 O   0  0  0  0  0  0  0  0  0  0  0  0
   42.2754   23.1321  176.4926 H   0  0  0  0  0  0  0  0  0  0  0  0
   43.8366   25.0918  177.4790 O   0  0  0  0  0  0  0  0  0  0  0  0
   42.7140   24.8944  178.2908 C   0  0  0  0  0  0  0  0  0  0  0  0
   44.0803   26.0306  177.4867 H   0  0  0  0  0  0  0  0  0  0  0  0
   42.9181   21.2363  179.0737 O   0  0  0  0  0  0  0  0  0  0  0  0
   42.6539   18.8133  178.5843 O   0  0  0  0  0  0  0  0  0  0  0  0
   44.8526   19.7080  179.2492 O   0  0  0  0  0  0  0  0  0  0  0  0
   43.9025   20.2399  176.9839 O   0  0  0  0  0  0  0  0  0  0  0  0
   43.5918   19.9849  178.4413 P   0  0  0  0  0  0  0  0  0  0  0  0
   42.4649   18.6632  179.5238 H   0  0  0  0  0  0  0  0  0  0  0  0
   43.0780   20.4117  176.5027 H   0  0  0  0  0  0  0  0  0  0  0  0
  5  6  1  0  0  0
  6  2  1  0  0  0
  2  3  1  0  0  0
  2  1  1  0  0  0
  1  8  1  0  0  0
  8 12  1  0  0  0
  9 12  1  0  0  0
 10 12  2  0  0  0
 11 12  1  0  0  0
  5  7  1  0  0  0
  3  4  1  0  0  0
  9 13  1  0  0  0
 11 14  1  0  0  0
M  END
> <minimizedAffinity>
-6.18464

$$$$
4AQ4_G3P_A_1415


 14 13  0  0  0  0  0  0  0  0999 V2000
   43.4991   22.3911  178.3694 C   0  0  0  0  0  0  0  0  0  0  0  0
   42.2715   23.2586  178.4419 C   0  0  0  0  0  0  0  0  0  0  0  0
   41.5273   23.0194  177.2906 O   0  0  0  0  0  0  0  0  0  0  0  0
   42.0607   23.2363  176.5099 H   0  0  0  0  0  0  0  0  0  0  0  0
   43.6896   25.1377  177.6782 O   0  0  0  0  0  0  0  0  0  0  0  0
   42.6504   24.7107  178.5126 C   0  0  0  0  0  0  0  0  0  0  0  0
   43.8424   26.0862  177.8116 H   0  0  0  0  0  0  0  0  0  0  0  0
   43.3871   21.1252  178.9616 O   0  0  0  0  0  0  0  0  0  0  0  0
   44.6812   19.4857  177.6136 O   0  0  0  0  0  0  0  0  0  0  0  0
   42.4475   20.2123  176.8658 O   0  0  0  0  0  0  0  0  0  0  0  0
   42.6855   18.7111  178.8675 O   0  0  0  0  0  0  0  0  0  0  0  0
   43.2937   19.8482  178.0783 P   0  0  0  0  0  0  0  0  0  0  0  0
   45.0568   20.2246  177.1097 H   0  0  0  0  0  0  0  0  0  0  0  0
   43.2503   18.5079  179.6295 H   0  0  0  0  0  0  0  0  0  0  0  0
  5  6  1  0  0  0
  6  2  1  0  0  0
  2  3  1  0  0  0
  2  1  1  0  0  0
  1  8  1  0  0  0
  8 12  1  0  0  0
  9 12  1  0  0  0
 10 12  2  0  0  0
 11 12  1  0  0  0
  5  7  1  0  0  0
  3  4  1  0  0  0
  9 13  1  0  0  0
 11 14  1  0  0  0
M  END
> <minimizedAffinity>
-6.13139

$$$$
4AQ4_G3P_A_1415


 14 13  0  0  0  0  0  0  0  0999 V2000
   43.9397   22.3554  178.7290 C   0  0  0  0  0  0  0  0  0  0  0  0
   43.1493   21.1295  178.3583 C   0  0  0  0  0  0  0  0  0  0  0  0
   44.0200   20.0451  178.4082 O   0  0  0  0  0  0  0  0  0  0  0  0
   44.7509   20.1885  177.7868 H   0  0  0  0  0  0  0  0  0  0  0  0
   41.5849   22.2305  176.7880 O   0  0  0  0  0  0  0  0  0  0  0  0
   42.5789   21.2633  176.9749 C   0  0  0  0  0  0  0  0  0  0  0  0
   41.2967   22.2232  175.8619 H   0  0  0  0  0  0  0  0  0  0  0  0
   43.1880   23.4614  179.1501 O   0  0  0  0  0  0  0  0  0  0  0  0
   43.6433   25.8681  179.5751 O   0  0  0  0  0  0  0  0  0  0  0  0
   42.0963   25.2012  177.7754 O   0  0  0  0  0  0  0  0  0  0  0  0
   44.5666   24.8064  177.5316 O   0  0  0  0  0  0  0  0  0  0  0  0
   43.3965   24.8534  178.4878 P   0  0  0  0  0  0  0  0  0  0  0  0
   42.8845   25.8858  180.1791 H   0  0  0  0  0  0  0  0  0  0  0  0
   45.3743   24.5827  178.0198 H   0  0  0  0  0  0  0  0  0  0  0  0
  5  6  1  0  0  0
  6  2  1  0  0  0
  2  3  1  0  0  0
  2  1  1  0  0  0
  1  8  1  0  0  0
  8 12  1  0  0  0
  9 12  1  0  0  0
 10 12  2  0  0  0
 11 12  1  0  0  0
  5  7  1  0  0  0
  3  4  1  0  0  0
  9 13  1  0  0  0
 11 14  1  0  0  0
M  END
> <minimizedAffinity>
-5.85037

$$$$
4AQ4_G3P_A_1415


 14 13  0  0  0  0  0  0  0  0999 V2000
   43.8743   20.0925  178.7356 C   0  0  0  0  0  0  0  0  0  0  0  0
   44.4094   18.7226  178.4163 C   0  0  0  0  0  0  0  0  0  0  0  0
   45.1742   18.8365  177.2593 O   0  0  0  0  0  0  0  0  0  0  0  0
   44.6197   19.1702  176.5368 H   0  0  0  0  0  0  0  0  0  0  0  0
   42.2331   18.1764  177.3722 O   0  0  0  0  0  0  0  0  0  0  0  0
   43.2849   17.7519  178.1918 C   0  0  0  0  0  0  0  0  0  0  0  0
   41.5721   17.4699  177.3024 H   0  0  0  0  0  0  0  0  0  0  0  0
   43.4872   20.8681  177.6337 O   0  0  0  0  0  0  0  0  0  0  0  0
   42.0124   22.1090  179.2037 O   0  0  0  0  0  0  0  0  0  0  0  0
   41.5485   22.1434  176.7829 O   0  0  0  0  0  0  0  0  0  0  0  0
   43.5294   23.3824  177.7095 O   0  0  0  0  0  0  0  0  0  0  0  0
   42.6471   22.1613  177.8373 P   0  0  0  0  0  0  0  0  0  0  0  0
   41.4504   21.3211  179.2692 H   0  0  0  0  0  0  0  0  0  0  0  0
   44.2149   23.3591  178.3953 H   0  0  0  0  0  0  0  0  0  0  0  0
  5  6  1  0  0  0
  6  2  1  0  0  0
  2  3  1  0  0  0
  2  1  1  0  0  0
  1  8  1  0  0  0
  8 12  1  0  0  0
  9 12  1  0  0  0
 10 12  2  0  0  0
 11 12  1  0  0  0
  5  7  1  0  0  0
  3  4  1  0  0  0
  9 13  1  0  0  0
 11 14  1  0  0  0
M  END
> <minimizedAffinity>
-5.82730

$$$$
4AQ4_G3P_A_1415


 14 13  0  0  0  0  0  0  0  0999 V2000
   42.5457   23.1165  178.6868 C   0  0  0  0  0  0  0  0  0  0  0  0
   42.8901   24.5536  178.9713 C   0  0  0  0  0  0  0  0  0  0  0  0
   42.3423   25.3208  177.9477 O   0  0  0  0  0  0  0  0  0  0  0  0
   42.7121   25.0365  177.0972 H   0  0  0  0  0  0  0  0  0  0  0  0
   44.8476   26.0278  179.3176 O   0  0  0  0  0  0  0  0  0  0  0  0
   44.3798   24.7449  179.0118 C   0  0  0  0  0  0  0  0  0  0  0  0
   45.8176   26.0276  179.3141 H   0  0  0  0  0  0  0  0  0  0  0  0
   43.5976   22.1993  178.8205 O   0  0  0  0  0  0  0  0  0  0  0  0
   43.4020   20.4181  177.0973 O   0  0  0  0  0  0  0  0  0  0  0  0
   41.9525   20.3746  179.0907 O   0  0  0  0  0  0  0  0  0  0  0  0
   44.4050   19.8649  179.2981 O   0  0  0  0  0  0  0  0  0  0  0  0
   43.3542   20.6816  178.5808 P   0  0  0  0  0  0  0  0  0  0  0  0
   42.7228   20.9489  176.6526 H   0  0  0  0  0  0  0  0  0  0  0  0
   45.2818   20.0869  178.9477 H   0  0  0  0  0  0  0  0  0  0  0  0
  5  6  1  0  0  0
  6  2  1  0  0  0
  2  3  1  0  0  0
  2  1  1  0  0  0
  1  8  1  0  0  0
  8 12  1  0  0  0
  9 12  1  0  0  0
 10 12  2  0  0  0
 11 12  1  0  0  0
  5  7  1  0  0  0
  3  4  1  0  0  0
  9 13  1  0  0  0
 11 14  1  0  0  0
M  END
> <minimizedAffinity>
-5.76046

$$$$
4AQ4_G3P_A_1415


 14 13  0  0  0  0  0  0  0  0999 V2000
   42.9305   20.2745  178.6446 C   0  0  0  0  0  0  0  0  0  0  0  0
   42.6880   21.3612  177.6321 C   0  0  0  0  0  0  0  0  0  0  0  0
   43.4956   21.0895  176.5319 O   0  0  0  0  0  0  0  0  0  0  0  0
   44.4250   21.0738  176.8092 H   0  0  0  0  0  0  0  0  0  0  0  0
   42.2253   23.7843  177.8324 O   0  0  0  0  0  0  0  0  0  0  0  0
   43.0376   22.7065  178.2025 C   0  0  0  0  0  0  0  0  0  0  0  0
   42.5471   24.5934  178.2598 H   0  0  0  0  0  0  0  0  0  0  0  0
   44.2601   20.1124  179.0585 O   0  0  0  0  0  0  0  0  0  0  0  0
   46.3582   18.8350  179.4415 O   0  0  0  0  0  0  0  0  0  0  0  0
   45.3094   18.8500  177.2107 O   0  0  0  0  0  0  0  0  0  0  0  0
   44.2344   17.5972  179.1059 O   0  0  0  0  0  0  0  0  0  0  0  0
   45.0407   18.8129  178.7091 P   0  0  0  0  0  0  0  0  0  0  0  0
   46.8625   19.6199  179.1761 H   0  0  0  0  0  0  0  0  0  0  0  0
   44.0835   17.6078  180.0641 H   0  0  0  0  0  0  0  0  0  0  0  0
  5  6  1  0  0  0
  6  2  1  0  0  0
  2  3  1  0  0  0
  2  1  1  0  0  0
  1  8  1  0  0  0
  8 12  1  0  0  0
  9 12  1  0  0  0
 10 12  2  0  0  0
 11 12  1  0  0  0
  5  7  1  0  0  0
  3  4  1  0  0  0
  9 13  1  0  0  0
 11 14  1  0  0  0
M  END
> <minimizedAffinity>
-5.59897

$$$$
4AQ4_G3P_A_1415


 14 13  0  0  0  0  0  0  0  0999 V2000
   44.3922   20.4589  178.4999 C   0  0  0  0  0  0  0  0  0  0  0  0
   42.9008   20.5282  178.3105 C   0  0  0  0  0  0  0  0  0  0  0  0
   42.5845   19.7243  177.2196 O   0  0  0  0  0  0  0  0  0  0  0  0
   43.0503   20.0488  176.4330 H   0  0  0  0  0  0  0  0  0  0  0  0
   41.6898   22.1646  176.9031 O   0  0  0  0  0  0  0  0  0  0  0  0
   42.4638   21.9414  178.0474 C   0  0  0  0  0  0  0  0  0  0  0  0
   41.4702   23.1073  176.8401 H   0  0  0  0  0  0  0  0  0  0  0  0
   44.8621   19.3695  179.2470 O   0  0  0  0  0  0  0  0  0  0  0  0
   44.9606   17.8455  177.2854 O   0  0  0  0  0  0  0  0  0  0  0  0
   45.6562   17.0438  179.5103 O   0  0  0  0  0  0  0  0  0  0  0  0
   47.0767   18.6981  178.2602 O   0  0  0  0  0  0  0  0  0  0  0  0
   45.6697   18.2322  178.5583 P   0  0  0  0  0  0  0  0  0  0  0  0
   44.0607   17.5494  177.4938 H   0  0  0  0  0  0  0  0  0  0  0  0
   47.0453   19.4537  177.6528 H   0  0  0  0  0  0  0  0  0  0  0  0
  5  6  1  0  0  0
  6  2  1  0  0  0
  2  3  1  0  0  0
  2  1  1  0  0  0
  1  8  1  0  0  0
  8 12  1  0  0  0
  9 12  1  0  0  0
 10 12  2  0  0  0
 11 12  1  0  0  0
  5  7  1  0  0  0
  3  4  1  0  0  0
  9 13  1  0  0  0
 11 14  1  0  0  0
M  END
> <minimizedAffinity>
-5.43649

$$$$
4AQ4_G3P_A_1415


 14 13  0  0  0  0  0  0  0  0999 V2000
   43.1070   21.0250  177.8524 C   0  0  0  0  0  0  0  0  0  0  0  0
   42.3289   22.2428  178.2726 C   0  0  0  0  0  0  0  0  0  0  0  0
   41.6572   22.7129  177.1483 O   0  0  0  0  0  0  0  0  0  0  0  0
   42.3000   22.9328  176.4560 H   0  0  0  0  0  0  0  0  0  0  0  0
   42.6590   24.4877  179.2609 O   0  0  0  0  0  0  0  0  0  0  0  0
   43.2503   23.3064  178.7989 C   0  0  0  0  0  0  0  0  0  0  0  0
   43.3489   25.0938  179.5734 H   0  0  0  0  0  0  0  0  0  0  0  0
   43.6492   20.2585  178.8936 O   0  0  0  0  0  0  0  0  0  0  0  0
   45.0599   19.2045  177.1389 O   0  0  0  0  0  0  0  0  0  0  0  0
   43.8910   17.8008  178.7941 O   0  0  0  0  0  0  0  0  0  0  0  0
   45.8555   19.2063  179.4889 O   0  0  0  0  0  0  0  0  0  0  0  0
   44.6474   19.1059  178.5855 P   0  0  0  0  0  0  0  0  0  0  0  0
   44.2745   19.1385  176.5735 H   0  0  0  0  0  0  0  0  0  0  0  0
   46.3104   20.0478  179.3281 H   0  0  0  0  0  0  0  0  0  0  0  0
  5  6  1  0  0  0
  6  2  1  0  0  0
  2  3  1  0  0  0
  2  1  1  0  0  0
  1  8  1  0  0  0
  8 12  1  0  0  0
  9 12  1  0  0  0
 10 12  2  0  0  0
 11 12  1  0  0  0
  5  7  1  0  0  0
  3  4  1  0  0  0
  9 13  1  0  0  0
 11 14  1  0  0  0
M  END
> <minimizedAffinity>
-5.32894

$$$$
