5UPJ_UIN_B_100


 24 26  0  0  0  0  0  0  0  0999 V2000
   -0.6462   18.2450   20.9623 C   0  0  0  0  0  0  0  0  0  0  0  0
   -1.8612   17.7287   21.5064 C   0  0  0  0  0  0  0  0  0  0  0  0
   -2.0759   16.5356   21.5490 O   0  0  0  0  0  0  0  0  0  0  0  0
   -2.8616   18.5388   21.9550 O   0  0  0  0  0  0  0  0  0  0  0  0
   -2.6370   19.9171   21.8436 C   0  0  0  0  0  0  0  0  0  0  0  0
   -1.4567   20.4795   21.3300 C   0  0  0  0  0  0  0  0  0  0  0  0
   -0.4567   19.6183   20.8817 C   0  0  0  0  0  0  0  0  0  0  0  0
    0.7098   20.0597   20.3400 O   0  0  0  0  0  0  0  0  0  0  0  0
   -3.7822   20.7430   22.3724 C   0  0  0  0  0  0  0  0  0  0  0  0
   -4.7526   21.3050   21.3601 C   0  0  0  0  0  0  0  0  0  0  0  0
   -4.2754   22.5003   20.5616 C   0  0  0  0  0  0  0  0  0  0  0  0
   -3.1894   22.2244   19.5208 C   0  0  0  0  0  0  0  0  0  0  0  0
   -1.7625   22.5825   19.9437 C   0  0  0  0  0  0  0  0  0  0  0  0
   -1.2820   21.9766   21.2407 C   0  0  0  0  0  0  0  0  0  0  0  0
    1.3549   19.4444   20.0516 H   0  0  0  0  0  0  0  0  0  0  0  0
    0.4911   17.3366   20.4814 C   0  0  0  0  0  0  0  0  0  0  0  0
    0.1733   16.7202   19.1405 C   0  0  0  0  0  0  0  0  0  0  0  0
   -0.1360   17.5515   18.0268 C   0  0  0  0  0  0  0  0  0  0  0  0
   -0.4816   16.9688   16.8051 C   0  0  0  0  0  0  0  0  0  0  0  0
   -0.5141   15.5734   16.6677 C   0  0  0  0  0  0  0  0  0  0  0  0
   -0.2106   14.7428   17.7606 C   0  0  0  0  0  0  0  0  0  0  0  0
    0.1425   15.2960   18.9926 C   0  0  0  0  0  0  0  0  0  0  0  0
    1.0019   16.3406   21.5078 C   0  0  0  0  0  0  0  0  0  0  0  0
    1.5065   16.9674   22.8016 C   0  0  0  0  0  0  0  0  0  0  0  0
  1  2  1  0  0  0
  1  7  2  0  0  0
  1 16  1  0  0  0
  2  3  2  0  0  0
  2  4  1  0  0  0
  4  5  1  0  0  0
  5  6  2  0  0  0
  5  9  1  0  0  0
  6  7  1  0  0  0
  6 14  1  0  0  0
  7  8  1  0  0  0
 17 18  2  0  0  0
 17 22  1  0  0  0
 17 16  1  0  0  0
 18 19  1  0  0  0
 19 20  2  0  0  0
 20 21  1  0  0  0
 21 22  2  0  0  0
 16 23  1  0  0  0
 23 24  1  0  0  0
  9 10  1  0  0  0
 10 11  1  0  0  0
 11 12  1  0  0  0
 12 13  1  0  0  0
 13 14  1  0  0  0
  8 15  1  0  0  0
M  END
> <minimizedAffinity>
-9.23331

$$$$
5UPJ_UIN_B_100


 24 26  0  0  0  0  0  0  0  0999 V2000
   -0.8234   18.3147   20.9452 C   0  0  0  0  0  0  0  0  0  0  0  0
   -2.0631   17.8514   21.4811 C   0  0  0  0  0  0  0  0  0  0  0  0
   -2.3360   16.6698   21.5080 O   0  0  0  0  0  0  0  0  0  0  0  0
   -3.0235   18.7036   21.9392 O   0  0  0  0  0  0  0  0  0  0  0  0
   -2.7317   20.0706   21.8459 C   0  0  0  0  0  0  0  0  0  0  0  0
   -1.5244   20.5812   21.3410 C   0  0  0  0  0  0  0  0  0  0  0  0
   -0.5670   19.6780   20.8826 C   0  0  0  0  0  0  0  0  0  0  0  0
    0.6206   20.0689   20.3479 O   0  0  0  0  0  0  0  0  0  0  0  0
   -3.8361   20.9445   22.3842 C   0  0  0  0  0  0  0  0  0  0  0  0
   -4.7762   21.5663   21.3783 C   0  0  0  0  0  0  0  0  0  0  0  0
   -4.2398   22.7470   20.5959 C   0  0  0  0  0  0  0  0  0  0  0  0
   -3.1668   22.4319   19.5528 C   0  0  0  0  0  0  0  0  0  0  0  0
   -1.7249   22.7144   19.9818 C   0  0  0  0  0  0  0  0  0  0  0  0
   -1.2767   22.0689   21.2713 C   0  0  0  0  0  0  0  0  0  0  0  0
    1.2353   19.4265   20.0523 H   0  0  0  0  0  0  0  0  0  0  0  0
    0.2690   17.3581   20.4537 C   0  0  0  0  0  0  0  0  0  0  0  0
   -0.0773   16.7737   19.1055 C   0  0  0  0  0  0  0  0  0  0  0  0
    0.0041   15.3683   18.8932 C   0  0  0  0  0  0  0  0  0  0  0  0
   -0.2660   14.8445   17.6266 C   0  0  0  0  0  0  0  0  0  0  0  0
   -0.6270   15.6925   16.5695 C   0  0  0  0  0  0  0  0  0  0  0  0
   -0.7105   17.0818   16.7676 C   0  0  0  0  0  0  0  0  0  0  0  0
   -0.4506   17.6340   18.0230 C   0  0  0  0  0  0  0  0  0  0  0  0
    0.7302   16.3265   21.4682 C   0  0  0  0  0  0  0  0  0  0  0  0
    1.2823   16.9133   22.7614 C   0  0  0  0  0  0  0  0  0  0  0  0
  1  2  1  0  0  0
  1  7  2  0  0  0
  1 16  1  0  0  0
  2  3  2  0  0  0
  2  4  1  0  0  0
  4  5  1  0  0  0
  5  6  2  0  0  0
  5  9  1  0  0  0
  6  7  1  0  0  0
  6 14  1  0  0  0
  7  8  1  0  0  0
 17 18  2  0  0  0
 17 22  1  0  0  0
 17 16  1  0  0  0
 18 19  1  0  0  0
 19 20  2  0  0  0
 20 21  1  0  0  0
 21 22  2  0  0  0
 16 23  1  0  0  0
 23 24  1  0  0  0
  9 10  1  0  0  0
 10 11  1  0  0  0
 11 12  1  0  0  0
 12 13  1  0  0  0
 13 14  1  0  0  0
  8 15  1  0  0  0
M  END
> <minimizedAffinity>
-9.18534

$$$$
5UPJ_UIN_B_100


 24 26  0  0  0  0  0  0  0  0999 V2000
    0.1060   17.5278   20.4975 C   0  0  0  0  0  0  0  0  0  0  0  0
   -0.8728   16.8371   21.2745 C   0  0  0  0  0  0  0  0  0  0  0  0
   -1.1162   15.6642   21.0837 O   0  0  0  0  0  0  0  0  0  0  0  0
   -1.6201   17.4615   22.2285 O   0  0  0  0  0  0  0  0  0  0  0  0
   -1.3822   18.8313   22.4007 C   0  0  0  0  0  0  0  0  0  0  0  0
   -0.4234   19.5573   21.6749 C   0  0  0  0  0  0  0  0  0  0  0  0
    0.3212   18.8833   20.7084 C   0  0  0  0  0  0  0  0  0  0  0  0
    1.2517   19.4990   19.9312 O   0  0  0  0  0  0  0  0  0  0  0  0
   -2.2372   19.4442   23.4808 C   0  0  0  0  0  0  0  0  0  0  0  0
   -3.4675   20.2020   23.0399 C   0  0  0  0  0  0  0  0  0  0  0  0
   -3.2361   21.5810   22.4576 C   0  0  0  0  0  0  0  0  0  0  0  0
   -2.5856   21.6271   21.0743 C   0  0  0  0  0  0  0  0  0  0  0  0
   -1.0849   21.9282   21.0594 C   0  0  0  0  0  0  0  0  0  0  0  0
   -0.2192   21.0339   21.9144 C   0  0  0  0  0  0  0  0  0  0  0  0
    1.7295   19.0063   19.2932 H   0  0  0  0  0  0  0  0  0  0  0  0
    0.9661   16.8226   19.4426 C   0  0  0  0  0  0  0  0  0  0  0  0
    0.1596   16.4836   18.2122 C   0  0  0  0  0  0  0  0  0  0  0  0
   -0.4437   17.5201   17.4449 C   0  0  0  0  0  0  0  0  0  0  0  0
   -1.2326   17.1912   16.3399 C   0  0  0  0  0  0  0  0  0  0  0  0
   -1.4234   15.8500   15.9773 C   0  0  0  0  0  0  0  0  0  0  0  0
   -0.8327   14.8183   16.7277 C   0  0  0  0  0  0  0  0  0  0  0  0
   -0.0355   15.1161   17.8343 C   0  0  0  0  0  0  0  0  0  0  0  0
    1.8084   15.6697   19.9596 C   0  0  0  0  0  0  0  0  0  0  0  0
    2.7730   16.0425   21.0786 C   0  0  0  0  0  0  0  0  0  0  0  0
  1  2  1  0  0  0
  1  7  2  0  0  0
  1 16  1  0  0  0
  2  3  2  0  0  0
  2  4  1  0  0  0
  4  5  1  0  0  0
  5  6  2  0  0  0
  5  9  1  0  0  0
  6  7  1  0  0  0
  6 14  1  0  0  0
  7  8  1  0  0  0
 17 18  2  0  0  0
 17 22  1  0  0  0
 17 16  1  0  0  0
 18 19  1  0  0  0
 19 20  2  0  0  0
 20 21  1  0  0  0
 21 22  2  0  0  0
 16 23  1  0  0  0
 23 24  1  0  0  0
  9 10  1  0  0  0
 10 11  1  0  0  0
 11 12  1  0  0  0
 12 13  1  0  0  0
 13 14  1  0  0  0
  8 15  1  0  0  0
M  END
> <minimizedAffinity>
-8.90896

$$$$
5UPJ_UIN_B_100


 24 26  0  0  0  0  0  0  0  0999 V2000
   -0.2761   16.9212   17.8384 C   0  0  0  0  0  0  0  0  0  0  0  0
   -0.2654   15.8583   18.7918 C   0  0  0  0  0  0  0  0  0  0  0  0
   -0.3427   14.6987   18.4441 O   0  0  0  0  0  0  0  0  0  0  0  0
   -0.2222   16.0842   20.1355 O   0  0  0  0  0  0  0  0  0  0  0  0
   -0.1992   17.4266   20.5356 C   0  0  0  0  0  0  0  0  0  0  0  0
   -0.1943   18.5104   19.6419 C   0  0  0  0  0  0  0  0  0  0  0  0
   -0.2387   18.2386   18.2756 C   0  0  0  0  0  0  0  0  0  0  0  0
   -0.2683   19.2146   17.3293 O   0  0  0  0  0  0  0  0  0  0  0  0
   -0.1385   17.5918   22.0330 C   0  0  0  0  0  0  0  0  0  0  0  0
   -1.4341   17.9001   22.7461 C   0  0  0  0  0  0  0  0  0  0  0  0
   -1.9492   19.3191   22.6228 C   0  0  0  0  0  0  0  0  0  0  0  0
   -2.4890   19.7223   21.2499 C   0  0  0  0  0  0  0  0  0  0  0  0
   -1.5318   20.5375   20.3768 C   0  0  0  0  0  0  0  0  0  0  0  0
   -0.1672   19.9339   20.1444 C   0  0  0  0  0  0  0  0  0  0  0  0
   -0.2979   18.9858   16.4211 H   0  0  0  0  0  0  0  0  0  0  0  0
   -0.2981   16.6697   16.3264 C   0  0  0  0  0  0  0  0  0  0  0  0
   -1.7117   16.5754   15.8048 C   0  0  0  0  0  0  0  0  0  0  0  0
   -2.3582   17.7297   15.2792 C   0  0  0  0  0  0  0  0  0  0  0  0
   -3.6847   17.6427   14.8498 C   0  0  0  0  0  0  0  0  0  0  0  0
   -4.3767   16.4251   14.9232 C   0  0  0  0  0  0  0  0  0  0  0  0
   -3.7483   15.2788   15.4405 C   0  0  0  0  0  0  0  0  0  0  0  0
   -2.4222   15.3338   15.8732 C   0  0  0  0  0  0  0  0  0  0  0  0
    0.6090   15.5517   15.8431 C   0  0  0  0  0  0  0  0  0  0  0  0
    0.7232   15.4395   14.3279 C   0  0  0  0  0  0  0  0  0  0  0  0
  1  2  1  0  0  0
  1  7  2  0  0  0
  1 16  1  0  0  0
  2  3  2  0  0  0
  2  4  1  0  0  0
  4  5  1  0  0  0
  5  6  2  0  0  0
  5  9  1  0  0  0
  6  7  1  0  0  0
  6 14  1  0  0  0
  7  8  1  0  0  0
 17 18  2  0  0  0
 17 22  1  0  0  0
 17 16  1  0  0  0
 18 19  1  0  0  0
 19 20  2  0  0  0
 20 21  1  0  0  0
 21 22  2  0  0  0
 16 23  1  0  0  0
 23 24  1  0  0  0
  9 10  1  0  0  0
 10 11  1  0  0  0
 11 12  1  0  0  0
 12 13  1  0  0  0
 13 14  1  0  0  0
  8 15  1  0  0  0
M  END
> <minimizedAffinity>
-7.90540

$$$$
5UPJ_UIN_B_100


 24 26  0  0  0  0  0  0  0  0999 V2000
   -2.0159   21.1397   22.3720 C   0  0  0  0  0  0  0  0  0  0  0  0
   -1.2444   21.8135   21.3772 C   0  0  0  0  0  0  0  0  0  0  0  0
   -0.0367   21.7078   21.3373 O   0  0  0  0  0  0  0  0  0  0  0  0
   -1.8083   22.6478   20.4583 O   0  0  0  0  0  0  0  0  0  0  0  0
   -3.1957   22.8189   20.5487 C   0  0  0  0  0  0  0  0  0  0  0  0
   -4.0047   22.1711   21.4970 C   0  0  0  0  0  0  0  0  0  0  0  0
   -3.3912   21.3254   22.4195 C   0  0  0  0  0  0  0  0  0  0  0  0
   -4.0785   20.6752   23.3961 O   0  0  0  0  0  0  0  0  0  0  0  0
   -3.7432   23.7438   19.4915 C   0  0  0  0  0  0  0  0  0  0  0  0
   -4.0231   25.1708   19.9010 C   0  0  0  0  0  0  0  0  0  0  0  0
   -5.2694   25.4010   20.7304 C   0  0  0  0  0  0  0  0  0  0  0  0
   -5.2241   24.8877   22.1703 C   0  0  0  0  0  0  0  0  0  0  0  0
   -5.9256   23.5499   22.4173 C   0  0  0  0  0  0  0  0  0  0  0  0
   -5.4964   22.4017   21.5356 C   0  0  0  0  0  0  0  0  0  0  0  0
   -3.6247   20.1158   23.9954 H   0  0  0  0  0  0  0  0  0  0  0  0
   -1.3880   20.1806   23.3899 C   0  0  0  0  0  0  0  0  0  0  0  0
   -1.0299   18.8596   22.7528 C   0  0  0  0  0  0  0  0  0  0  0  0
    0.3314   18.4509   22.6715 C   0  0  0  0  0  0  0  0  0  0  0  0
    0.6554   17.2522   22.0314 C   0  0  0  0  0  0  0  0  0  0  0  0
   -0.3516   16.4465   21.4805 C   0  0  0  0  0  0  0  0  0  0  0  0
   -1.6992   16.8401   21.5549 C   0  0  0  0  0  0  0  0  0  0  0  0
   -2.0541   18.0304   22.1920 C   0  0  0  0  0  0  0  0  0  0  0  0
   -2.1421   20.0440   24.7009 C   0  0  0  0  0  0  0  0  0  0  0  0
   -1.7531   21.0636   25.7642 C   0  0  0  0  0  0  0  0  0  0  0  0
  1  2  1  0  0  0
  1  7  2  0  0  0
  1 16  1  0  0  0
  2  3  2  0  0  0
  2  4  1  0  0  0
  4  5  1  0  0  0
  5  6  2  0  0  0
  5  9  1  0  0  0
  6  7  1  0  0  0
  6 14  1  0  0  0
  7  8  1  0  0  0
 17 18  2  0  0  0
 17 22  1  0  0  0
 17 16  1  0  0  0
 18 19  1  0  0  0
 19 20  2  0  0  0
 20 21  1  0  0  0
 21 22  2  0  0  0
 16 23  1  0  0  0
 23 24  1  0  0  0
  9 10  1  0  0  0
 10 11  1  0  0  0
 11 12  1  0  0  0
 12 13  1  0  0  0
 13 14  1  0  0  0
  8 15  1  0  0  0
M  END
> <minimizedAffinity>
-7.25277

$$$$
5UPJ_UIN_B_100


 24 26  0  0  0  0  0  0  0  0999 V2000
   -0.3756   17.1675   18.7910 C   0  0  0  0  0  0  0  0  0  0  0  0
   -0.3406   15.7639   19.0508 C   0  0  0  0  0  0  0  0  0  0  0  0
    0.0027   15.3310   20.1307 O   0  0  0  0  0  0  0  0  0  0  0  0
   -0.6358   14.8377   18.0951 O   0  0  0  0  0  0  0  0  0  0  0  0
   -0.9682   15.3398   16.8302 C   0  0  0  0  0  0  0  0  0  0  0  0
   -1.0317   16.7091   16.5229 C   0  0  0  0  0  0  0  0  0  0  0  0
   -0.7234   17.6252   17.5270 C   0  0  0  0  0  0  0  0  0  0  0  0
   -0.7251   18.9700   17.3255 O   0  0  0  0  0  0  0  0  0  0  0  0
   -1.2934   14.2550   15.8349 C   0  0  0  0  0  0  0  0  0  0  0  0
   -0.2055   13.8613   14.8635 C   0  0  0  0  0  0  0  0  0  0  0  0
    0.0525   14.8180   13.7179 C   0  0  0  0  0  0  0  0  0  0  0  0
    0.7182   16.1448   14.0858 C   0  0  0  0  0  0  0  0  0  0  0  0
   -0.2230   17.3461   14.2038 C   0  0  0  0  0  0  0  0  0  0  0  0
   -1.3991   17.1797   15.1361 C   0  0  0  0  0  0  0  0  0  0  0  0
   -0.5113   19.5495   18.0300 H   0  0  0  0  0  0  0  0  0  0  0  0
   -0.0698   18.2117   19.8708 C   0  0  0  0  0  0  0  0  0  0  0  0
    0.9157   17.6824   20.8846 C   0  0  0  0  0  0  0  0  0  0  0  0
    2.2127   17.2659   20.4708 C   0  0  0  0  0  0  0  0  0  0  0  0
    3.0968   16.7272   21.4088 C   0  0  0  0  0  0  0  0  0  0  0  0
    2.7183   16.6056   22.7537 C   0  0  0  0  0  0  0  0  0  0  0  0
    1.4402   17.0137   23.1735 C   0  0  0  0  0  0  0  0  0  0  0  0
    0.5367   17.5597   22.2602 C   0  0  0  0  0  0  0  0  0  0  0  0
   -1.2860   18.8785   20.4892 C   0  0  0  0  0  0  0  0  0  0  0  0
   -1.1770   20.3921   20.6262 C   0  0  0  0  0  0  0  0  0  0  0  0
  1  2  1  0  0  0
  1  7  2  0  0  0
  1 16  1  0  0  0
  2  3  2  0  0  0
  2  4  1  0  0  0
  4  5  1  0  0  0
  5  6  2  0  0  0
  5  9  1  0  0  0
  6  7  1  0  0  0
  6 14  1  0  0  0
  7  8  1  0  0  0
 17 18  2  0  0  0
 17 22  1  0  0  0
 17 16  1  0  0  0
 18 19  1  0  0  0
 19 20  2  0  0  0
 20 21  1  0  0  0
 21 22  2  0  0  0
 16 23  1  0  0  0
 23 24  1  0  0  0
  9 10  1  0  0  0
 10 11  1  0  0  0
 11 12  1  0  0  0
 12 13  1  0  0  0
 13 14  1  0  0  0
  8 15  1  0  0  0
M  END
> <minimizedAffinity>
-6.86237

$$$$
5UPJ_UIN_B_100


 24 26  0  0  0  0  0  0  0  0999 V2000
   -3.2312   21.4613   21.6343 C   0  0  0  0  0  0  0  0  0  0  0  0
   -2.1743   22.3129   21.1908 C   0  0  0  0  0  0  0  0  0  0  0  0
   -1.0151   22.0653   21.4483 O   0  0  0  0  0  0  0  0  0  0  0  0
   -2.4075   23.4685   20.5063 O   0  0  0  0  0  0  0  0  0  0  0  0
   -3.7513   23.7848   20.2679 C   0  0  0  0  0  0  0  0  0  0  0  0
   -4.8290   22.9778   20.6687 C   0  0  0  0  0  0  0  0  0  0  0  0
   -4.5499   21.8037   21.3660 C   0  0  0  0  0  0  0  0  0  0  0  0
   -5.5204   20.9689   21.8245 O   0  0  0  0  0  0  0  0  0  0  0  0
   -3.9241   25.0682   19.4958 C   0  0  0  0  0  0  0  0  0  0  0  0
   -4.2709   26.3077   20.2867 C   0  0  0  0  0  0  0  0  0  0  0  0
   -5.7022   26.4197   20.7694 C   0  0  0  0  0  0  0  0  0  0  0  0
   -6.1109   25.4641   21.8913 C   0  0  0  0  0  0  0  0  0  0  0  0
   -6.8951   24.2253   21.4513 C   0  0  0  0  0  0  0  0  0  0  0  0
   -6.2544   23.3805   20.3761 C   0  0  0  0  0  0  0  0  0  0  0  0
   -5.2868   20.1893   22.2890 H   0  0  0  0  0  0  0  0  0  0  0  0
   -2.9709   20.1481   22.3812 C   0  0  0  0  0  0  0  0  0  0  0  0
   -2.8731   20.3725   23.8709 C   0  0  0  0  0  0  0  0  0  0  0  0
   -2.4436   21.6317   24.3775 C   0  0  0  0  0  0  0  0  0  0  0  0
   -2.3048   21.8104   25.7560 C   0  0  0  0  0  0  0  0  0  0  0  0
   -2.5964   20.7622   26.6410 C   0  0  0  0  0  0  0  0  0  0  0  0
   -3.0212   19.5145   26.1520 C   0  0  0  0  0  0  0  0  0  0  0  0
   -3.1735   19.3073   24.7799 C   0  0  0  0  0  0  0  0  0  0  0  0
   -1.8505   19.2931   21.8156 C   0  0  0  0  0  0  0  0  0  0  0  0
   -0.6665   19.0992   22.7548 C   0  0  0  0  0  0  0  0  0  0  0  0
  1  2  1  0  0  0
  1  7  2  0  0  0
  1 16  1  0  0  0
  2  3  2  0  0  0
  2  4  1  0  0  0
  4  5  1  0  0  0
  5  6  2  0  0  0
  5  9  1  0  0  0
  6  7  1  0  0  0
  6 14  1  0  0  0
  7  8  1  0  0  0
 17 18  2  0  0  0
 17 22  1  0  0  0
 17 16  1  0  0  0
 18 19  1  0  0  0
 19 20  2  0  0  0
 20 21  1  0  0  0
 21 22  2  0  0  0
 16 23  1  0  0  0
 23 24  1  0  0  0
  9 10  1  0  0  0
 10 11  1  0  0  0
 11 12  1  0  0  0
 12 13  1  0  0  0
 13 14  1  0  0  0
  8 15  1  0  0  0
M  END
> <minimizedAffinity>
-6.66035

$$$$
5UPJ_UIN_B_100


 24 26  0  0  0  0  0  0  0  0999 V2000
    0.2453   17.3796   19.7267 C   0  0  0  0  0  0  0  0  0  0  0  0
   -0.3439   18.5454   19.1500 C   0  0  0  0  0  0  0  0  0  0  0  0
   -0.6685   19.4923   19.8350 O   0  0  0  0  0  0  0  0  0  0  0  0
   -0.6221   18.6394   17.8188 O   0  0  0  0  0  0  0  0  0  0  0  0
   -0.3061   17.5178   17.0410 C   0  0  0  0  0  0  0  0  0  0  0  0
    0.2866   16.3516   17.5527 C   0  0  0  0  0  0  0  0  0  0  0  0
    0.5562   16.2937   18.9189 C   0  0  0  0  0  0  0  0  0  0  0  0
    1.0996   15.2011   19.5186 O   0  0  0  0  0  0  0  0  0  0  0  0
   -0.6312   17.7057   15.5808 C   0  0  0  0  0  0  0  0  0  0  0  0
   -1.9181   17.0959   15.0766 C   0  0  0  0  0  0  0  0  0  0  0  0
   -1.9166   15.5954   14.8706 C   0  0  0  0  0  0  0  0  0  0  0  0
   -1.8885   14.7418   16.1392 C   0  0  0  0  0  0  0  0  0  0  0  0
   -0.5194   14.1762   16.5250 C   0  0  0  0  0  0  0  0  0  0  0  0
    0.6016   15.1796   16.6544 C   0  0  0  0  0  0  0  0  0  0  0  0
    1.2641   15.2062   20.4411 H   0  0  0  0  0  0  0  0  0  0  0  0
    0.5834   17.2811   21.2187 C   0  0  0  0  0  0  0  0  0  0  0  0
   -0.4655   17.9596   22.0664 C   0  0  0  0  0  0  0  0  0  0  0  0
   -1.8062   17.4806   22.0642 C   0  0  0  0  0  0  0  0  0  0  0  0
   -2.7796   18.1495   22.8101 C   0  0  0  0  0  0  0  0  0  0  0  0
   -2.4414   19.2802   23.5677 C   0  0  0  0  0  0  0  0  0  0  0  0
   -1.1208   19.7621   23.5774 C   0  0  0  0  0  0  0  0  0  0  0  0
   -0.1255   19.1123   22.8455 C   0  0  0  0  0  0  0  0  0  0  0  0
    2.0073   17.6605   21.5860 C   0  0  0  0  0  0  0  0  0  0  0  0
    2.9284   16.4769   21.8545 C   0  0  0  0  0  0  0  0  0  0  0  0
  1  2  1  0  0  0
  1  7  2  0  0  0
  1 16  1  0  0  0
  2  3  2  0  0  0
  2  4  1  0  0  0
  4  5  1  0  0  0
  5  6  2  0  0  0
  5  9  1  0  0  0
  6  7  1  0  0  0
  6 14  1  0  0  0
  7  8  1  0  0  0
 17 18  2  0  0  0
 17 22  1  0  0  0
 17 16  1  0  0  0
 18 19  1  0  0  0
 19 20  2  0  0  0
 20 21  1  0  0  0
 21 22  2  0  0  0
 16 23  1  0  0  0
 23 24  1  0  0  0
  9 10  1  0  0  0
 10 11  1  0  0  0
 11 12  1  0  0  0
 12 13  1  0  0  0
 13 14  1  0  0  0
  8 15  1  0  0  0
M  END
> <minimizedAffinity>
-6.60205

$$$$
5UPJ_UIN_B_100


 24 26  0  0  0  0  0  0  0  0999 V2000
    0.1347   16.5654   19.2911 C   0  0  0  0  0  0  0  0  0  0  0  0
    0.1266   15.1376   19.2985 C   0  0  0  0  0  0  0  0  0  0  0  0
    0.5559   14.5096   20.2433 O   0  0  0  0  0  0  0  0  0  0  0  0
   -0.3093   14.4053   18.2345 O   0  0  0  0  0  0  0  0  0  0  0  0
   -0.7431   15.1340   17.1194 C   0  0  0  0  0  0  0  0  0  0  0  0
   -0.7698   16.5373   17.0626 C   0  0  0  0  0  0  0  0  0  0  0  0
   -0.3163   17.2507   18.1708 C   0  0  0  0  0  0  0  0  0  0  0  0
   -0.2722   18.6093   18.2067 O   0  0  0  0  0  0  0  0  0  0  0  0
   -1.2207   14.2535   15.9925 C   0  0  0  0  0  0  0  0  0  0  0  0
   -0.2577   14.0053   14.8553 C   0  0  0  0  0  0  0  0  0  0  0  0
   -0.0702   15.1417   13.8717 C   0  0  0  0  0  0  0  0  0  0  0  0
    0.6941   16.3610   14.3894 C   0  0  0  0  0  0  0  0  0  0  0  0
   -0.1699   17.5506   14.8152 C   0  0  0  0  0  0  0  0  0  0  0  0
   -1.2522   17.2577   15.8265 C   0  0  0  0  0  0  0  0  0  0  0  0
    0.0404   19.0478   18.9735 H   0  0  0  0  0  0  0  0  0  0  0  0
    0.5997   17.3915   20.4958 C   0  0  0  0  0  0  0  0  0  0  0  0
   -0.4197   18.4402   20.8702 C   0  0  0  0  0  0  0  0  0  0  0  0
   -0.0706   19.8201   20.8386 C   0  0  0  0  0  0  0  0  0  0  0  0
   -1.0050   20.7781   21.2393 C   0  0  0  0  0  0  0  0  0  0  0  0
   -2.2851   20.3893   21.6602 C   0  0  0  0  0  0  0  0  0  0  0  0
   -2.6408   19.0296   21.6954 C   0  0  0  0  0  0  0  0  0  0  0  0
   -1.7299   18.0498   21.2969 C   0  0  0  0  0  0  0  0  0  0  0  0
    2.0199   17.9219   20.4076 C   0  0  0  0  0  0  0  0  0  0  0  0
    3.0290   17.1760   21.2718 C   0  0  0  0  0  0  0  0  0  0  0  0
  1  2  1  0  0  0
  1  7  2  0  0  0
  1 16  1  0  0  0
  2  3  2  0  0  0
  2  4  1  0  0  0
  4  5  1  0  0  0
  5  6  2  0  0  0
  5  9  1  0  0  0
  6  7  1  0  0  0
  6 14  1  0  0  0
  7  8  1  0  0  0
 17 18  2  0  0  0
 17 22  1  0  0  0
 17 16  1  0  0  0
 18 19  1  0  0  0
 19 20  2  0  0  0
 20 21  1  0  0  0
 21 22  2  0  0  0
 16 23  1  0  0  0
 23 24  1  0  0  0
  9 10  1  0  0  0
 10 11  1  0  0  0
 11 12  1  0  0  0
 12 13  1  0  0  0
 13 14  1  0  0  0
  8 15  1  0  0  0
M  END
> <minimizedAffinity>
-6.55573

$$$$
5UPJ_UIN_B_100


 24 26  0  0  0  0  0  0  0  0999 V2000
   -1.3108   18.2023   20.8763 C   0  0  0  0  0  0  0  0  0  0  0  0
   -2.4302   17.9920   21.7374 C   0  0  0  0  0  0  0  0  0  0  0  0
   -2.8398   16.8758   21.9778 O   0  0  0  0  0  0  0  0  0  0  0  0
   -3.1288   19.0238   22.2904 O   0  0  0  0  0  0  0  0  0  0  0  0
   -2.6932   20.3130   21.9578 C   0  0  0  0  0  0  0  0  0  0  0  0
   -1.5911   20.5778   21.1279 C   0  0  0  0  0  0  0  0  0  0  0  0
   -0.9020   19.4963   20.5819 C   0  0  0  0  0  0  0  0  0  0  0  0
    0.1581   19.6437   19.7433 O   0  0  0  0  0  0  0  0  0  0  0  0
   -3.5075   21.3964   22.6184 C   0  0  0  0  0  0  0  0  0  0  0  0
   -4.5767   22.0617   21.7838 C   0  0  0  0  0  0  0  0  0  0  0  0
   -4.0999   23.0649   20.7542 C   0  0  0  0  0  0  0  0  0  0  0  0
   -3.3669   22.4887   19.5420 C   0  0  0  0  0  0  0  0  0  0  0  0
   -1.8396   22.5795   19.5886 C   0  0  0  0  0  0  0  0  0  0  0  0
   -1.1763   21.9949   20.8128 C   0  0  0  0  0  0  0  0  0  0  0  0
    0.5921   18.8877   19.3994 H   0  0  0  0  0  0  0  0  0  0  0  0
   -0.5072   17.0439   20.2742 C   0  0  0  0  0  0  0  0  0  0  0  0
    0.7555   16.7836   21.0597 C   0  0  0  0  0  0  0  0  0  0  0  0
    0.7134   16.7232   22.4814 C   0  0  0  0  0  0  0  0  0  0  0  0
    1.8968   16.5360   23.1999 C   0  0  0  0  0  0  0  0  0  0  0  0
    3.1205   16.3964   22.5291 C   0  0  0  0  0  0  0  0  0  0  0  0
    3.1740   16.4544   21.1255 C   0  0  0  0  0  0  0  0  0  0  0  0
    2.0076   16.6361   20.3803 C   0  0  0  0  0  0  0  0  0  0  0  0
   -0.2904   17.1181   18.7730 C   0  0  0  0  0  0  0  0  0  0  0  0
   -0.3346   15.7724   18.0598 C   0  0  0  0  0  0  0  0  0  0  0  0
  1  2  1  0  0  0
  1  7  2  0  0  0
  1 16  1  0  0  0
  2  3  2  0  0  0
  2  4  1  0  0  0
  4  5  1  0  0  0
  5  6  2  0  0  0
  5  9  1  0  0  0
  6  7  1  0  0  0
  6 14  1  0  0  0
  7  8  1  0  0  0
 17 18  2  0  0  0
 17 22  1  0  0  0
 17 16  1  0  0  0
 18 19  1  0  0  0
 19 20  2  0  0  0
 20 21  1  0  0  0
 21 22  2  0  0  0
 16 23  1  0  0  0
 23 24  1  0  0  0
  9 10  1  0  0  0
 10 11  1  0  0  0
 11 12  1  0  0  0
 12 13  1  0  0  0
 13 14  1  0  0  0
  8 15  1  0  0  0
M  END
> <minimizedAffinity>
-6.46923

$$$$
