4AZC_NGW_A_2042


 18 19  0  0  0  0  0  0  0  0999 V2000
  -32.1859  -22.0070  -52.0524 O   0  0  0  0  0  0  0  0  0  0  0  0
  -32.8486  -22.5158  -53.2080 C   0  0  0  0  0  0  0  0  0  0  0  0
  -31.9561  -22.2530  -54.4093 C   0  0  0  0  0  0  0  0  0  0  0  0
  -33.0944  -24.0100  -53.0636 C   0  0  0  0  0  0  0  0  0  0  0  0
  -31.6917  -20.8397  -54.5056 O   0  0  0  0  0  0  0  0  0  0  0  0
  -32.5963  -22.8235  -55.7068 C   0  0  0  0  0  0  0  0  0  0  0  0
  -31.6363  -22.8391  -56.8346 N   0  0  0  0  0  0  0  0  0  0  0  0
  -33.0583  -24.2949  -55.5303 C   0  0  0  0  0  0  0  0  0  0  0  0
  -30.5662  -23.8100  -56.5099 C   0  0  0  0  0  0  0  0  0  0  0  0
  -29.7687  -24.1927  -57.7647 C   0  0  0  0  0  0  0  0  0  0  0  0
  -31.4820  -25.2075  -55.7891 S   0  0  0  0  0  0  0  0  0  0  0  0
  -33.7297  -24.5897  -54.2356 O   0  0  0  0  0  0  0  0  0  0  0  0
  -32.0361  -21.0546  -52.1587 H   0  0  0  0  0  0  0  0  0  0  0  0
  -32.5277  -20.3615  -54.6211 H   0  0  0  0  0  0  0  0  0  0  0  0
  -31.2345  -21.9101  -56.9603 H   0  0  0  0  0  0  0  0  0  0  0  0
  -34.0403  -24.3236  -51.8896 C   0  0  0  0  0  0  0  0  0  0  0  0
  -35.3511  -23.8349  -52.1717 O   0  0  0  0  0  0  0  0  0  0  0  0
  -35.3173  -22.8740  -52.3002 H   0  0  0  0  0  0  0  0  0  0  0  0
  1  2  1  0  0  0
  2  3  1  0  0  0
  2  4  1  0  0  0
  3  5  1  0  0  0
  3  6  1  0  0  0
  6  7  1  0  0  0
  6  8  1  0  0  0
  7  9  1  0  0  0
  9 10  1  0  0  0
  9 11  1  0  0  0
 11  8  1  0  0  0
  8 12  1  0  0  0
 12  4  1  0  0  0
  4 16  1  0  0  0
 17 16  1  0  0  0
  1 13  1  0  0  0
  5 14  1  0  0  0
  7 15  1  0  0  0
 17 18  1  0  0  0
M  END
> <minimizedAffinity>
-6.74244

$$$$
4AZC_NGW_A_2042


 18 19  0  0  0  0  0  0  0  0999 V2000
  -31.3879  -21.2566  -55.1650 O   0  0  0  0  0  0  0  0  0  0  0  0
  -31.7346  -22.5725  -54.7387 C   0  0  0  0  0  0  0  0  0  0  0  0
  -32.7987  -22.4470  -53.6613 C   0  0  0  0  0  0  0  0  0  0  0  0
  -32.2747  -23.3834  -55.9068 C   0  0  0  0  0  0  0  0  0  0  0  0
  -32.2913  -21.6364  -52.5834 O   0  0  0  0  0  0  0  0  0  0  0  0
  -33.2610  -23.8508  -53.1772 C   0  0  0  0  0  0  0  0  0  0  0  0
  -34.4837  -23.7721  -52.3451 N   0  0  0  0  0  0  0  0  0  0  0  0
  -33.6209  -24.7866  -54.3623 C   0  0  0  0  0  0  0  0  0  0  0  0
  -35.5948  -23.3105  -53.2086 C   0  0  0  0  0  0  0  0  0  0  0  0
  -36.9552  -23.5883  -52.5534 C   0  0  0  0  0  0  0  0  0  0  0  0
  -35.3366  -24.2459  -54.7480 S   0  0  0  0  0  0  0  0  0  0  0  0
  -32.6856  -24.7224  -55.5176 O   0  0  0  0  0  0  0  0  0  0  0  0
  -31.0456  -20.7520  -54.4107 H   0  0  0  0  0  0  0  0  0  0  0  0
  -31.5044  -22.0584  -52.2043 H   0  0  0  0  0  0  0  0  0  0  0  0
  -34.3410  -23.1112  -51.5814 H   0  0  0  0  0  0  0  0  0  0  0  0
  -31.2123  -23.5851  -57.0033 C   0  0  0  0  0  0  0  0  0  0  0  0
  -29.9081  -23.3580  -56.4704 O   0  0  0  0  0  0  0  0  0  0  0  0
  -29.8484  -22.4486  -56.1382 H   0  0  0  0  0  0  0  0  0  0  0  0
  1  2  1  0  0  0
  2  3  1  0  0  0
  2  4  1  0  0  0
  3  5  1  0  0  0
  3  6  1  0  0  0
  6  7  1  0  0  0
  6  8  1  0  0  0
  7  9  1  0  0  0
  9 10  1  0  0  0
  9 11  1  0  0  0
 11  8  1  0  0  0
  8 12  1  0  0  0
 12  4  1  0  0  0
  4 16  1  0  0  0
 17 16  1  0  0  0
  1 13  1  0  0  0
  5 14  1  0  0  0
  7 15  1  0  0  0
 17 18  1  0  0  0
M  END
> <minimizedAffinity>
-6.56900

$$$$
4AZC_NGW_A_2042


 18 19  0  0  0  0  0  0  0  0999 V2000
  -33.7896  -23.8998  -51.3518 O   0  0  0  0  0  0  0  0  0  0  0  0
  -34.0212  -23.5305  -52.7096 C   0  0  0  0  0  0  0  0  0  0  0  0
  -32.7414  -22.9139  -53.2486 C   0  0  0  0  0  0  0  0  0  0  0  0
  -34.3941  -24.7524  -53.5353 C   0  0  0  0  0  0  0  0  0  0  0  0
  -32.3736  -21.7877  -52.4284 O   0  0  0  0  0  0  0  0  0  0  0  0
  -32.9047  -22.5255  -54.7457 C   0  0  0  0  0  0  0  0  0  0  0  0
  -31.6057  -22.1904  -55.3734 N   0  0  0  0  0  0  0  0  0  0  0  0
  -33.4890  -23.6902  -55.5894 C   0  0  0  0  0  0  0  0  0  0  0  0
  -30.7865  -23.4235  -55.4136 C   0  0  0  0  0  0  0  0  0  0  0  0
  -29.6155  -23.2765  -56.3957 C   0  0  0  0  0  0  0  0  0  0  0  0
  -31.9847  -24.6986  -55.9132 S   0  0  0  0  0  0  0  0  0  0  0  0
  -34.5987  -24.4389  -54.9400 O   0  0  0  0  0  0  0  0  0  0  0  0
  -33.5531  -23.1116  -50.8382 H   0  0  0  0  0  0  0  0  0  0  0  0
  -33.0806  -21.1241  -52.4544 H   0  0  0  0  0  0  0  0  0  0  0  0
  -31.1292  -21.4759  -54.8231 H   0  0  0  0  0  0  0  0  0  0  0  0
  -35.7170  -25.3819  -53.0608 C   0  0  0  0  0  0  0  0  0  0  0  0
  -36.5689  -24.3774  -52.5114 O   0  0  0  0  0  0  0  0  0  0  0  0
  -36.1298  -23.9600  -51.7539 H   0  0  0  0  0  0  0  0  0  0  0  0
  1  2  1  0  0  0
  2  3  1  0  0  0
  2  4  1  0  0  0
  3  5  1  0  0  0
  3  6  1  0  0  0
  6  7  1  0  0  0
  6  8  1  0  0  0
  7  9  1  0  0  0
  9 10  1  0  0  0
  9 11  1  0  0  0
 11  8  1  0  0  0
  8 12  1  0  0  0
 12  4  1  0  0  0
  4 16  1  0  0  0
 17 16  1  0  0  0
  1 13  1  0  0  0
  5 14  1  0  0  0
  7 15  1  0  0  0
 17 18  1  0  0  0
M  END
> <minimizedAffinity>
-6.09551

$$$$
4AZC_NGW_A_2042


 18 19  0  0  0  0  0  0  0  0999 V2000
  -32.2142  -22.0834  -52.4711 O   0  0  0  0  0  0  0  0  0  0  0  0
  -32.6716  -23.2428  -53.1642 C   0  0  0  0  0  0  0  0  0  0  0  0
  -33.9718  -23.6888  -52.5167 C   0  0  0  0  0  0  0  0  0  0  0  0
  -32.9079  -22.9240  -54.6326 C   0  0  0  0  0  0  0  0  0  0  0  0
  -33.7442  -23.9404  -51.1162 O   0  0  0  0  0  0  0  0  0  0  0  0
  -34.5565  -24.9284  -53.2518 C   0  0  0  0  0  0  0  0  0  0  0  0
  -35.9488  -25.2116  -52.8335 N   0  0  0  0  0  0  0  0  0  0  0  0
  -34.6157  -24.7201  -54.7890 C   0  0  0  0  0  0  0  0  0  0  0  0
  -36.8007  -24.0911  -53.2938 C   0  0  0  0  0  0  0  0  0  0  0  0
  -38.2855  -24.4814  -53.2721 C   0  0  0  0  0  0  0  0  0  0  0  0
  -36.1724  -23.7562  -54.9684 S   0  0  0  0  0  0  0  0  0  0  0  0
  -33.4183  -24.0626  -55.3785 O   0  0  0  0  0  0  0  0  0  0  0  0
  -32.0681  -22.3016  -51.5373 H   0  0  0  0  0  0  0  0  0  0  0  0
  -33.0833  -24.6434  -51.0172 H   0  0  0  0  0  0  0  0  0  0  0  0
  -35.9964  -25.2881  -51.8175 H   0  0  0  0  0  0  0  0  0  0  0  0
  -31.6054  -22.5187  -55.3472 C   0  0  0  0  0  0  0  0  0  0  0  0
  -31.4191  -21.1062  -55.2636 O   0  0  0  0  0  0  0  0  0  0  0  0
  -32.1650  -20.6560  -55.6901 H   0  0  0  0  0  0  0  0  0  0  0  0
  1  2  1  0  0  0
  2  3  1  0  0  0
  2  4  1  0  0  0
  3  5  1  0  0  0
  3  6  1  0  0  0
  6  7  1  0  0  0
  6  8  1  0  0  0
  7  9  1  0  0  0
  9 10  1  0  0  0
  9 11  1  0  0  0
 11  8  1  0  0  0
  8 12  1  0  0  0
 12  4  1  0  0  0
  4 16  1  0  0  0
 17 16  1  0  0  0
  1 13  1  0  0  0
  5 14  1  0  0  0
  7 15  1  0  0  0
 17 18  1  0  0  0
M  END
> <minimizedAffinity>
-6.05101

$$$$
4AZC_NGW_A_2042


 18 19  0  0  0  0  0  0  0  0999 V2000
  -30.0582  -22.4995  -55.9145 O   0  0  0  0  0  0  0  0  0  0  0  0
  -30.9046  -22.9716  -54.8683 C   0  0  0  0  0  0  0  0  0  0  0  0
  -31.5830  -21.7662  -54.2394 C   0  0  0  0  0  0  0  0  0  0  0  0
  -31.9530  -23.9239  -55.4233 C   0  0  0  0  0  0  0  0  0  0  0  0
  -30.5785  -20.8502  -53.7618 O   0  0  0  0  0  0  0  0  0  0  0  0
  -32.5610  -22.2091  -53.1141 C   0  0  0  0  0  0  0  0  0  0  0  0
  -33.4407  -21.0996  -52.6797 N   0  0  0  0  0  0  0  0  0  0  0  0
  -33.5151  -23.3403  -53.5831 C   0  0  0  0  0  0  0  0  0  0  0  0
  -34.3328  -20.7547  -53.8104 C   0  0  0  0  0  0  0  0  0  0  0  0
  -35.5296  -19.9191  -53.3342 C   0  0  0  0  0  0  0  0  0  0  0  0
  -34.8120  -22.3821  -54.4687 S   0  0  0  0  0  0  0  0  0  0  0  0
  -32.8722  -24.4020  -54.4037 O   0  0  0  0  0  0  0  0  0  0  0  0
  -29.3958  -21.8943  -55.5461 H   0  0  0  0  0  0  0  0  0  0  0  0
  -30.0310  -21.2906  -53.0930 H   0  0  0  0  0  0  0  0  0  0  0  0
  -32.8759  -20.2894  -52.4247 H   0  0  0  0  0  0  0  0  0  0  0  0
  -31.3151  -25.1903  -56.0240 C   0  0  0  0  0  0  0  0  0  0  0  0
  -30.5220  -24.8484  -57.1601 O   0  0  0  0  0  0  0  0  0  0  0  0
  -31.0828  -24.4298  -57.8318 H   0  0  0  0  0  0  0  0  0  0  0  0
  1  2  1  0  0  0
  2  3  1  0  0  0
  2  4  1  0  0  0
  3  5  1  0  0  0
  3  6  1  0  0  0
  6  7  1  0  0  0
  6  8  1  0  0  0
  7  9  1  0  0  0
  9 10  1  0  0  0
  9 11  1  0  0  0
 11  8  1  0  0  0
  8 12  1  0  0  0
 12  4  1  0  0  0
  4 16  1  0  0  0
 17 16  1  0  0  0
  1 13  1  0  0  0
  5 14  1  0  0  0
  7 15  1  0  0  0
 17 18  1  0  0  0
M  END
> <minimizedAffinity>
-5.79799

$$$$
4AZC_NGW_A_2042


 18 19  0  0  0  0  0  0  0  0999 V2000
  -33.0576  -23.1199  -56.3200 O   0  0  0  0  0  0  0  0  0  0  0  0
  -33.5910  -22.8315  -55.0293 C   0  0  0  0  0  0  0  0  0  0  0  0
  -34.8217  -23.7002  -54.8302 C   0  0  0  0  0  0  0  0  0  0  0  0
  -32.5630  -23.1362  -53.9504 C   0  0  0  0  0  0  0  0  0  0  0  0
  -35.7662  -23.4366  -55.8861 O   0  0  0  0  0  0  0  0  0  0  0  0
  -35.4348  -23.4720  -53.4192 C   0  0  0  0  0  0  0  0  0  0  0  0
  -36.4517  -24.4964  -53.0875 N   0  0  0  0  0  0  0  0  0  0  0  0
  -34.3659  -23.5650  -52.2973 C   0  0  0  0  0  0  0  0  0  0  0  0
  -35.7628  -25.8019  -52.9685 C   0  0  0  0  0  0  0  0  0  0  0  0
  -36.6431  -26.8262  -52.2385 C   0  0  0  0  0  0  0  0  0  0  0  0
  -34.2435  -25.3849  -52.0580 S   0  0  0  0  0  0  0  0  0  0  0  0
  -33.0713  -22.9010  -52.6090 O   0  0  0  0  0  0  0  0  0  0  0  0
  -33.7234  -22.9211  -56.9969 H   0  0  0  0  0  0  0  0  0  0  0  0
  -36.0291  -22.5033  -55.8592 H   0  0  0  0  0  0  0  0  0  0  0  0
  -37.1526  -24.5409  -53.8273 H   0  0  0  0  0  0  0  0  0  0  0  0
  -31.3170  -22.2401  -54.0776 C   0  0  0  0  0  0  0  0  0  0  0  0
  -31.5353  -21.2340  -55.0659 O   0  0  0  0  0  0  0  0  0  0  0  0
  -31.7089  -21.6545  -55.9226 H   0  0  0  0  0  0  0  0  0  0  0  0
  1  2  1  0  0  0
  2  3  1  0  0  0
  2  4  1  0  0  0
  3  5  1  0  0  0
  3  6  1  0  0  0
  6  7  1  0  0  0
  6  8  1  0  0  0
  7  9  1  0  0  0
  9 10  1  0  0  0
  9 11  1  0  0  0
 11  8  1  0  0  0
  8 12  1  0  0  0
 12  4  1  0  0  0
  4 16  1  0  0  0
 17 16  1  0  0  0
  1 13  1  0  0  0
  5 14  1  0  0  0
  7 15  1  0  0  0
 17 18  1  0  0  0
M  END
> <minimizedAffinity>
-5.28176

$$$$
4AZC_NGW_A_2042


 18 19  0  0  0  0  0  0  0  0999 V2000
  -32.9182  -21.5130  -52.6145 O   0  0  0  0  0  0  0  0  0  0  0  0
  -33.7708  -21.9914  -53.6526 C   0  0  0  0  0  0  0  0  0  0  0  0
  -33.9061  -23.4957  -53.4870 C   0  0  0  0  0  0  0  0  0  0  0  0
  -35.1401  -21.3356  -53.5587 C   0  0  0  0  0  0  0  0  0  0  0  0
  -32.5980  -24.0987  -53.5292 O   0  0  0  0  0  0  0  0  0  0  0  0
  -34.8626  -24.0847  -54.5627 C   0  0  0  0  0  0  0  0  0  0  0  0
  -35.2382  -25.4849  -54.2593 N   0  0  0  0  0  0  0  0  0  0  0  0
  -36.2002  -23.3012  -54.6448 C   0  0  0  0  0  0  0  0  0  0  0  0
  -36.0532  -25.4815  -53.0229 C   0  0  0  0  0  0  0  0  0  0  0  0
  -36.8173  -26.8033  -52.8617 C   0  0  0  0  0  0  0  0  0  0  0  0
  -37.1467  -24.0454  -53.2538 S   0  0  0  0  0  0  0  0  0  0  0  0
  -36.0650  -21.8214  -54.5695 O   0  0  0  0  0  0  0  0  0  0  0  0
  -32.0499  -21.9394  -52.6870 H   0  0  0  0  0  0  0  0  0  0  0  0
  -32.1825  -23.9101  -54.3852 H   0  0  0  0  0  0  0  0  0  0  0  0
  -34.3981  -26.0461  -54.1188 H   0  0  0  0  0  0  0  0  0  0  0  0
  -35.0616  -19.8130  -53.7753 C   0  0  0  0  0  0  0  0  0  0  0  0
  -34.7702  -19.1565  -52.5422 O   0  0  0  0  0  0  0  0  0  0  0  0
  -35.4723  -19.3470  -51.9006 H   0  0  0  0  0  0  0  0  0  0  0  0
  1  2  1  0  0  0
  2  3  1  0  0  0
  2  4  1  0  0  0
  3  5  1  0  0  0
  3  6  1  0  0  0
  6  7  1  0  0  0
  6  8  1  0  0  0
  7  9  1  0  0  0
  9 10  1  0  0  0
  9 11  1  0  0  0
 11  8  1  0  0  0
  8 12  1  0  0  0
 12  4  1  0  0  0
  4 16  1  0  0  0
 17 16  1  0  0  0
  1 13  1  0  0  0
  5 14  1  0  0  0
  7 15  1  0  0  0
 17 18  1  0  0  0
M  END
> <minimizedAffinity>
-5.27954

$$$$
4AZC_NGW_A_2042


 18 19  0  0  0  0  0  0  0  0999 V2000
  -35.0239  -26.2311  -52.0443 O   0  0  0  0  0  0  0  0  0  0  0  0
  -35.2299  -25.0271  -52.7803 C   0  0  0  0  0  0  0  0  0  0  0  0
  -34.0120  -24.1423  -52.5747 C   0  0  0  0  0  0  0  0  0  0  0  0
  -35.4028  -25.3332  -54.2602 C   0  0  0  0  0  0  0  0  0  0  0  0
  -33.8318  -23.9004  -51.1656 O   0  0  0  0  0  0  0  0  0  0  0  0
  -34.1456  -22.8231  -53.3877 C   0  0  0  0  0  0  0  0  0  0  0  0
  -32.8686  -22.0746  -53.4380 N   0  0  0  0  0  0  0  0  0  0  0  0
  -34.5342  -23.0874  -54.8672 C   0  0  0  0  0  0  0  0  0  0  0  0
  -31.8995  -22.8768  -54.2193 C   0  0  0  0  0  0  0  0  0  0  0  0
  -30.7074  -22.0194  -54.6674 C   0  0  0  0  0  0  0  0  0  0  0  0
  -32.9002  -23.4942  -55.6081 S   0  0  0  0  0  0  0  0  0  0  0  0
  -35.5726  -24.1345  -55.0648 O   0  0  0  0  0  0  0  0  0  0  0  0
  -34.9154  -26.0205  -51.1037 H   0  0  0  0  0  0  0  0  0  0  0  0
  -34.6146  -23.4495  -50.8123 H   0  0  0  0  0  0  0  0  0  0  0  0
  -32.5150  -21.9291  -52.4924 H   0  0  0  0  0  0  0  0  0  0  0  0
  -36.6584  -26.1843  -54.5258 C   0  0  0  0  0  0  0  0  0  0  0  0
  -37.4874  -26.2113  -53.3645 O   0  0  0  0  0  0  0  0  0  0  0  0
  -36.9949  -26.5998  -52.6246 H   0  0  0  0  0  0  0  0  0  0  0  0
  1  2  1  0  0  0
  2  3  1  0  0  0
  2  4  1  0  0  0
  3  5  1  0  0  0
  3  6  1  0  0  0
  6  7  1  0  0  0
  6  8  1  0  0  0
  7  9  1  0  0  0
  9 10  1  0  0  0
  9 11  1  0  0  0
 11  8  1  0  0  0
  8 12  1  0  0  0
 12  4  1  0  0  0
  4 16  1  0  0  0
 17 16  1  0  0  0
  1 13  1  0  0  0
  5 14  1  0  0  0
  7 15  1  0  0  0
 17 18  1  0  0  0
M  END
> <minimizedAffinity>
-5.14703

$$$$
4AZC_NGW_A_2042


 18 19  0  0  0  0  0  0  0  0999 V2000
  -34.0135  -21.6196  -54.7567 O   0  0  0  0  0  0  0  0  0  0  0  0
  -34.8259  -22.3432  -53.8347 C   0  0  0  0  0  0  0  0  0  0  0  0
  -36.0993  -22.7500  -54.5568 C   0  0  0  0  0  0  0  0  0  0  0  0
  -34.0934  -23.5814  -53.3409 C   0  0  0  0  0  0  0  0  0  0  0  0
  -36.7576  -21.5715  -55.0612 O   0  0  0  0  0  0  0  0  0  0  0  0
  -37.0196  -23.5859  -53.6225 C   0  0  0  0  0  0  0  0  0  0  0  0
  -38.1225  -24.2331  -54.3698 N   0  0  0  0  0  0  0  0  0  0  0  0
  -36.2499  -24.7416  -52.9284 C   0  0  0  0  0  0  0  0  0  0  0  0
  -37.5288  -25.2410  -55.2780 C   0  0  0  0  0  0  0  0  0  0  0  0
  -38.5931  -26.2276  -55.7791 C   0  0  0  0  0  0  0  0  0  0  0  0
  -36.2534  -26.0267  -54.2449 S   0  0  0  0  0  0  0  0  0  0  0  0
  -34.8952  -24.3813  -52.4296 O   0  0  0  0  0  0  0  0  0  0  0  0
  -34.4930  -20.8338  -55.0626 H   0  0  0  0  0  0  0  0  0  0  0  0
  -36.9856  -20.9869  -54.3215 H   0  0  0  0  0  0  0  0  0  0  0  0
  -38.6300  -23.5343  -54.9124 H   0  0  0  0  0  0  0  0  0  0  0  0
  -32.8210  -23.2178  -52.5532 C   0  0  0  0  0  0  0  0  0  0  0  0
  -32.7376  -21.8035  -52.3819 O   0  0  0  0  0  0  0  0  0  0  0  0
  -32.7029  -21.3740  -53.2509 H   0  0  0  0  0  0  0  0  0  0  0  0
  1  2  1  0  0  0
  2  3  1  0  0  0
  2  4  1  0  0  0
  3  5  1  0  0  0
  3  6  1  0  0  0
  6  7  1  0  0  0
  6  8  1  0  0  0
  7  9  1  0  0  0
  9 10  1  0  0  0
  9 11  1  0  0  0
 11  8  1  0  0  0
  8 12  1  0  0  0
 12  4  1  0  0  0
  4 16  1  0  0  0
 17 16  1  0  0  0
  1 13  1  0  0  0
  5 14  1  0  0  0
  7 15  1  0  0  0
 17 18  1  0  0  0
M  END
> <minimizedAffinity>
-5.11550

$$$$
4AZC_NGW_A_2042


 18 19  0  0  0  0  0  0  0  0999 V2000
  -37.1847  -23.3078  -51.8209 O   0  0  0  0  0  0  0  0  0  0  0  0
  -36.5694  -23.6559  -53.0594 C   0  0  0  0  0  0  0  0  0  0  0  0
  -35.5235  -22.5991  -53.3722 C   0  0  0  0  0  0  0  0  0  0  0  0
  -35.9094  -25.0226  -52.9580 C   0  0  0  0  0  0  0  0  0  0  0  0
  -36.1540  -21.3041  -53.4172 O   0  0  0  0  0  0  0  0  0  0  0  0
  -34.7758  -22.9378  -54.6932 C   0  0  0  0  0  0  0  0  0  0  0  0
  -33.5717  -22.0952  -54.8770 N   0  0  0  0  0  0  0  0  0  0  0  0
  -34.2674  -24.4044  -54.7155 C   0  0  0  0  0  0  0  0  0  0  0  0
  -32.5998  -22.4503  -53.8176 C   0  0  0  0  0  0  0  0  0  0  0  0
  -31.1941  -21.9395  -54.1643 C   0  0  0  0  0  0  0  0  0  0  0  0
  -32.7064  -24.2657  -53.7519 S   0  0  0  0  0  0  0  0  0  0  0  0
  -35.2275  -25.4083  -54.1825 O   0  0  0  0  0  0  0  0  0  0  0  0
  -37.6009  -22.4352  -51.9006 H   0  0  0  0  0  0  0  0  0  0  0  0
  -36.8295  -21.2975  -54.1133 H   0  0  0  0  0  0  0  0  0  0  0  0
  -33.8235  -21.1098  -54.7997 H   0  0  0  0  0  0  0  0  0  0  0  0
  -36.9388  -26.1374  -52.6955 C   0  0  0  0  0  0  0  0  0  0  0  0
  -38.2631  -25.6133  -52.7858 O   0  0  0  0  0  0  0  0  0  0  0  0
  -38.3803  -24.9147  -52.1231 H   0  0  0  0  0  0  0  0  0  0  0  0
  1  2  1  0  0  0
  2  3  1  0  0  0
  2  4  1  0  0  0
  3  5  1  0  0  0
  3  6  1  0  0  0
  6  7  1  0  0  0
  6  8  1  0  0  0
  7  9  1  0  0  0
  9 10  1  0  0  0
  9 11  1  0  0  0
 11  8  1  0  0  0
  8 12  1  0  0  0
 12  4  1  0  0  0
  4 16  1  0  0  0
 17 16  1  0  0  0
  1 13  1  0  0  0
  5 14  1  0  0  0
  7 15  1  0  0  0
 17 18  1  0  0  0
M  END
> <minimizedAffinity>
-4.95781

$$$$
