4P3H_25G_A_201


 36 40  0  0  0  0  0  0  0  0999 V2000
  -27.2091  -21.9585  -42.7888 C   0  0  0  0  0  0  0  0  0  0  0  0
  -28.0998  -23.4167  -40.8883 C   0  0  0  0  0  0  0  0  0  0  0  0
  -26.9019  -23.1741  -40.0967 C   0  0  0  0  0  0  0  0  0  0  0  0
  -25.8417  -22.3335  -40.6519 C   0  0  0  0  0  0  0  0  0  0  0  0
  -26.0172  -21.7092  -41.9693 C   0  0  0  0  0  0  0  0  0  0  0  0
  -28.2634  -22.8191  -42.2267 C   0  0  0  0  0  0  0  0  0  0  0  0
  -26.6460  -23.8283  -38.7941 C   0  0  0  0  0  0  0  0  0  0  0  0
  -25.6429  -24.6813  -38.5613 N   0  0  0  0  0  0  0  0  0  0  0  0
  -27.3894  -23.6156  -37.7376 N   0  0  0  0  0  0  0  0  0  0  0  0
  -26.8394  -24.3531  -36.7606 N   0  0  0  0  0  0  0  0  0  0  0  0
  -25.7926  -24.9859  -37.2725 N   0  0  0  0  0  0  0  0  0  0  0  0
  -24.9587  -25.0061  -39.1902 H   0  0  0  0  0  0  0  0  0  0  0  0
  -28.0953  -20.2064  -44.2600 C   0  0  0  0  0  0  0  0  0  0  0  0
  -28.8546  -19.6167  -43.4873 O   0  0  0  0  0  0  0  0  0  0  0  0
  -27.3492  -21.3209  -44.0027 N   0  0  0  0  0  0  0  0  0  0  0  0
  -26.8604  -21.7095  -44.7638 H   0  0  0  0  0  0  0  0  0  0  0  0
  -28.0031  -20.1992  -48.1394 C   0  0  0  0  0  0  0  0  0  0  0  0
  -27.3672  -17.9620  -47.1759 C   0  0  0  0  0  0  0  0  0  0  0  0
  -27.5809  -18.8471  -48.3388 C   0  0  0  0  0  0  0  0  0  0  0  0
  -28.1775  -20.6952  -46.7966 C   0  0  0  0  0  0  0  0  0  0  0  0
  -27.9264  -19.7958  -45.6540 C   0  0  0  0  0  0  0  0  0  0  0  0
  -27.5298  -18.4329  -45.8522 N   0  0  0  0  0  0  0  0  0  0  0  0
  -26.9550  -16.5374  -47.3898 C   0  0  0  0  0  0  0  0  0  0  0  0
  -23.2717  -17.5114  -47.1692 C   0  0  0  0  0  0  0  0  0  0  0  0
  -24.7489  -17.5768  -47.4779 C   0  0  0  0  0  0  0  0  0  0  0  0
  -25.4721  -16.2806  -47.1604 C   0  0  0  0  0  0  0  0  0  0  0  0
  -25.2198  -15.8620  -45.7547 C   0  0  0  0  0  0  0  0  0  0  0  0
  -23.7382  -15.7070  -45.4612 C   0  0  0  0  0  0  0  0  0  0  0  0
  -22.9728  -16.9764  -45.7891 C   0  0  0  0  0  0  0  0  0  0  0  0
  -24.9166  -20.8521  -42.5130 C   0  0  0  0  0  0  0  0  0  0  0  0
  -25.0486  -19.4250  -42.1381 C   0  0  0  0  0  0  0  0  0  0  0  0
  -26.1310  -19.0411  -41.2204 C   0  0  0  0  0  0  0  0  0  0  0  0
  -24.2852  -17.0055  -42.1606 C   0  0  0  0  0  0  0  0  0  0  0  0
  -26.3016  -17.6445  -40.7852 C   0  0  0  0  0  0  0  0  0  0  0  0
  -24.0971  -18.4109  -42.6276 C   0  0  0  0  0  0  0  0  0  0  0  0
  -25.3895  -16.6309  -41.2682 C   0  0  0  0  0  0  0  0  0  0  0  0
 11 10  2  0  0  0
 11  8  1  0  0  0
 10  9  1  0  0  0
  8  7  1  0  0  0
  9  7  2  0  0  0
  7  3  1  0  0  0
  3  2  2  0  0  0
  3  4  1  0  0  0
  2  6  1  0  0  0
  4  5  2  0  0  0
  6  1  2  0  0  0
  5  1  1  0  0  0
  5 30  1  0  0  0
 35 33  2  0  0  0
 35 31  1  0  0  0
  1 15  1  0  0  0
 33 36  1  0  0  0
 30 31  1  0  0  0
 31 32  2  0  0  0
 15 13  1  0  0  0
 36 34  2  0  0  0
 14 13  2  0  0  0
 13 21  1  0  0  0
 32 34  1  0  0  0
 21 22  2  0  0  0
 21 20  1  0  0  0
 22 18  1  0  0  0
 28 29  1  0  0  0
 28 27  1  0  0  0
 24 29  1  0  0  0
 24 25  1  0  0  0
 20 17  2  0  0  0
 26 27  1  0  0  0
 26 25  1  0  0  0
 26 23  1  0  0  0
 18 23  1  0  0  0
 18 19  2  0  0  0
 17 19  1  0  0  0
 15 16  1  0  0  0
  8 12  1  0  0  0
M  END
> <minimizedAffinity>
-8.62744

$$$$
4P3H_25G_A_201


 36 40  0  0  0  0  0  0  0  0999 V2000
  -27.1015  -20.2883  -39.8219 C   0  0  0  0  0  0  0  0  0  0  0  0
  -26.7687  -21.8658  -37.8389 C   0  0  0  0  0  0  0  0  0  0  0  0
  -26.5980  -23.0040  -38.7309 C   0  0  0  0  0  0  0  0  0  0  0  0
  -26.6927  -22.7952  -40.1753 C   0  0  0  0  0  0  0  0  0  0  0  0
  -26.9079  -21.4434  -40.7065 C   0  0  0  0  0  0  0  0  0  0  0  0
  -27.0199  -20.5125  -38.3689 C   0  0  0  0  0  0  0  0  0  0  0  0
  -26.4435  -24.3946  -38.2484 C   0  0  0  0  0  0  0  0  0  0  0  0
  -25.5323  -24.7862  -37.3515 N   0  0  0  0  0  0  0  0  0  0  0  0
  -27.2068  -25.3752  -38.6604 N   0  0  0  0  0  0  0  0  0  0  0  0
  -26.7860  -26.4597  -37.9914 N   0  0  0  0  0  0  0  0  0  0  0  0
  -25.7808  -26.0879  -37.2105 N   0  0  0  0  0  0  0  0  0  0  0  0
  -24.8438  -24.2437  -36.9033 H   0  0  0  0  0  0  0  0  0  0  0  0
  -28.2749  -18.1525  -40.1067 C   0  0  0  0  0  0  0  0  0  0  0  0
  -29.2808  -18.3471  -39.4198 O   0  0  0  0  0  0  0  0  0  0  0  0
  -27.2621  -19.0315  -40.3645 N   0  0  0  0  0  0  0  0  0  0  0  0
  -26.5748  -18.7366  -41.0047 H   0  0  0  0  0  0  0  0  0  0  0  0
  -28.4368  -14.4410  -41.2277 C   0  0  0  0  0  0  0  0  0  0  0  0
  -26.7943  -15.7698  -42.5967 C   0  0  0  0  0  0  0  0  0  0  0  0
  -27.4878  -14.5008  -42.2963 C   0  0  0  0  0  0  0  0  0  0  0  0
  -28.7354  -15.6367  -40.4788 C   0  0  0  0  0  0  0  0  0  0  0  0
  -28.0491  -16.8969  -40.8227 C   0  0  0  0  0  0  0  0  0  0  0  0
  -27.0776  -16.9527  -41.8750 N   0  0  0  0  0  0  0  0  0  0  0  0
  -25.7779  -15.8210  -43.6965 C   0  0  0  0  0  0  0  0  0  0  0  0
  -28.1660  -16.8140  -46.5028 C   0  0  0  0  0  0  0  0  0  0  0  0
  -27.5503  -16.6942  -45.1286 C   0  0  0  0  0  0  0  0  0  0  0  0
  -26.3737  -15.7359  -45.0948 C   0  0  0  0  0  0  0  0  0  0  0  0
  -25.3616  -16.1007  -46.1233 C   0  0  0  0  0  0  0  0  0  0  0  0
  -25.9536  -16.1359  -47.5210 C   0  0  0  0  0  0  0  0  0  0  0  0
  -27.1512  -17.0662  -47.5922 C   0  0  0  0  0  0  0  0  0  0  0  0
  -26.9993  -21.2580  -42.1894 C   0  0  0  0  0  0  0  0  0  0  0  0
  -25.7534  -20.7261  -42.7891 C   0  0  0  0  0  0  0  0  0  0  0  0
  -25.8653  -19.7956  -43.9217 C   0  0  0  0  0  0  0  0  0  0  0  0
  -23.2327  -20.4558  -42.8882 C   0  0  0  0  0  0  0  0  0  0  0  0
  -24.6679  -19.2083  -44.5464 C   0  0  0  0  0  0  0  0  0  0  0  0
  -24.4288  -21.0753  -42.2446 C   0  0  0  0  0  0  0  0  0  0  0  0
  -23.3576  -19.5519  -44.0386 C   0  0  0  0  0  0  0  0  0  0  0  0
 11 10  2  0  0  0
 11  8  1  0  0  0
 10  9  1  0  0  0
  8  7  1  0  0  0
  9  7  2  0  0  0
  7  3  1  0  0  0
  3  2  2  0  0  0
  3  4  1  0  0  0
  2  6  1  0  0  0
  4  5  2  0  0  0
  6  1  2  0  0  0
  5  1  1  0  0  0
  5 30  1  0  0  0
 35 33  2  0  0  0
 35 31  1  0  0  0
  1 15  1  0  0  0
 33 36  1  0  0  0
 30 31  1  0  0  0
 31 32  2  0  0  0
 15 13  1  0  0  0
 36 34  2  0  0  0
 14 13  2  0  0  0
 13 21  1  0  0  0
 32 34  1  0  0  0
 21 22  2  0  0  0
 21 20  1  0  0  0
 22 18  1  0  0  0
 28 29  1  0  0  0
 28 27  1  0  0  0
 24 29  1  0  0  0
 24 25  1  0  0  0
 20 17  2  0  0  0
 26 27  1  0  0  0
 26 25  1  0  0  0
 26 23  1  0  0  0
 18 23  1  0  0  0
 18 19  2  0  0  0
 17 19  1  0  0  0
 15 16  1  0  0  0
  8 12  1  0  0  0
M  END
> <minimizedAffinity>
-8.33810

$$$$
4P3H_25G_A_201


 36 40  0  0  0  0  0  0  0  0999 V2000
  -26.9041  -20.7577  -42.6752 C   0  0  0  0  0  0  0  0  0  0  0  0
  -27.3823  -22.8628  -41.3069 C   0  0  0  0  0  0  0  0  0  0  0  0
  -26.5633  -22.3734  -40.2069 C   0  0  0  0  0  0  0  0  0  0  0  0
  -25.8962  -21.0787  -40.3390 C   0  0  0  0  0  0  0  0  0  0  0  0
  -26.0981  -20.2717  -41.5489 C   0  0  0  0  0  0  0  0  0  0  0  0
  -27.5584  -22.0697  -42.5380 C   0  0  0  0  0  0  0  0  0  0  0  0
  -26.2748  -23.1721  -38.9948 C   0  0  0  0  0  0  0  0  0  0  0  0
  -26.0101  -22.6511  -37.7920 N   0  0  0  0  0  0  0  0  0  0  0  0
  -26.2634  -24.4813  -38.9965 N   0  0  0  0  0  0  0  0  0  0  0  0
  -25.9924  -24.8369  -37.7312 N   0  0  0  0  0  0  0  0  0  0  0  0
  -25.8435  -23.7263  -37.0223 N   0  0  0  0  0  0  0  0  0  0  0  0
  -25.9523  -21.7021  -37.5366 H   0  0  0  0  0  0  0  0  0  0  0  0
  -28.2242  -19.2409  -44.0809 C   0  0  0  0  0  0  0  0  0  0  0  0
  -29.3065  -19.2594  -43.4894 O   0  0  0  0  0  0  0  0  0  0  0  0
  -27.0981  -19.9503  -43.7753 N   0  0  0  0  0  0  0  0  0  0  0  0
  -26.3463  -19.8775  -44.4067 H   0  0  0  0  0  0  0  0  0  0  0  0
  -28.7809  -16.9342  -47.1513 C   0  0  0  0  0  0  0  0  0  0  0  0
  -26.3768  -17.6477  -46.9302 C   0  0  0  0  0  0  0  0  0  0  0  0
  -27.4398  -16.9158  -47.6484 C   0  0  0  0  0  0  0  0  0  0  0  0
  -29.0874  -17.7037  -45.9709 C   0  0  0  0  0  0  0  0  0  0  0  0
  -28.0099  -18.4498  -45.2927 C   0  0  0  0  0  0  0  0  0  0  0  0
  -26.6603  -18.4105  -45.7734 N   0  0  0  0  0  0  0  0  0  0  0  0
  -24.9673  -17.6006  -47.4364 C   0  0  0  0  0  0  0  0  0  0  0  0
  -22.5399  -17.3663  -44.5008 C   0  0  0  0  0  0  0  0  0  0  0  0
  -23.4275  -17.9487  -45.5755 C   0  0  0  0  0  0  0  0  0  0  0  0
  -23.9973  -16.8904  -46.5025 C   0  0  0  0  0  0  0  0  0  0  0  0
  -24.6924  -15.8254  -45.7294 C   0  0  0  0  0  0  0  0  0  0  0  0
  -23.7795  -15.1727  -44.7066 C   0  0  0  0  0  0  0  0  0  0  0  0
  -23.1682  -16.2020  -43.7730 C   0  0  0  0  0  0  0  0  0  0  0  0
  -25.4044  -18.9493  -41.6573 C   0  0  0  0  0  0  0  0  0  0  0  0
  -26.2957  -17.7983  -41.3827 C   0  0  0  0  0  0  0  0  0  0  0  0
  -26.2214  -16.6297  -42.2716 C   0  0  0  0  0  0  0  0  0  0  0  0
  -28.1567  -16.6389  -40.1062 C   0  0  0  0  0  0  0  0  0  0  0  0
  -27.0986  -15.4635  -42.0720 C   0  0  0  0  0  0  0  0  0  0  0  0
  -27.2712  -17.8284  -40.2778 C   0  0  0  0  0  0  0  0  0  0  0  0
  -28.0504  -15.4657  -40.9826 C   0  0  0  0  0  0  0  0  0  0  0  0
 11 10  2  0  0  0
 11  8  1  0  0  0
 10  9  1  0  0  0
  8  7  1  0  0  0
  9  7  2  0  0  0
  7  3  1  0  0  0
  3  2  2  0  0  0
  3  4  1  0  0  0
  2  6  1  0  0  0
  4  5  2  0  0  0
  6  1  2  0  0  0
  5  1  1  0  0  0
  5 30  1  0  0  0
 35 33  2  0  0  0
 35 31  1  0  0  0
  1 15  1  0  0  0
 33 36  1  0  0  0
 30 31  1  0  0  0
 31 32  2  0  0  0
 15 13  1  0  0  0
 36 34  2  0  0  0
 14 13  2  0  0  0
 13 21  1  0  0  0
 32 34  1  0  0  0
 21 22  2  0  0  0
 21 20  1  0  0  0
 22 18  1  0  0  0
 28 29  1  0  0  0
 28 27  1  0  0  0
 24 29  1  0  0  0
 24 25  1  0  0  0
 20 17  2  0  0  0
 26 27  1  0  0  0
 26 25  1  0  0  0
 26 23  1  0  0  0
 18 23  1  0  0  0
 18 19  2  0  0  0
 17 19  1  0  0  0
 15 16  1  0  0  0
  8 12  1  0  0  0
M  END
> <minimizedAffinity>
-8.23017

$$$$
4P3H_25G_A_201


 36 40  0  0  0  0  0  0  0  0999 V2000
  -25.4668  -20.0661  -42.1268 C   0  0  0  0  0  0  0  0  0  0  0  0
  -26.1741  -22.2160  -40.9396 C   0  0  0  0  0  0  0  0  0  0  0  0
  -26.4277  -21.4890  -39.7037 C   0  0  0  0  0  0  0  0  0  0  0  0
  -26.1882  -20.0467  -39.6659 C   0  0  0  0  0  0  0  0  0  0  0  0
  -25.7459  -19.3465  -40.8783 C   0  0  0  0  0  0  0  0  0  0  0  0
  -25.6961  -21.5205  -42.1492 C   0  0  0  0  0  0  0  0  0  0  0  0
  -26.8115  -22.1530  -38.4380 C   0  0  0  0  0  0  0  0  0  0  0  0
  -27.8503  -21.7891  -37.6787 N   0  0  0  0  0  0  0  0  0  0  0  0
  -26.1589  -23.1781  -37.9508 N   0  0  0  0  0  0  0  0  0  0  0  0
  -26.8090  -23.5122  -36.8253 N   0  0  0  0  0  0  0  0  0  0  0  0
  -27.8211  -22.6683  -36.6776 N   0  0  0  0  0  0  0  0  0  0  0  0
  -28.4840  -21.0498  -37.8242 H   0  0  0  0  0  0  0  0  0  0  0  0
  -23.8864  -19.4288  -43.8919 C   0  0  0  0  0  0  0  0  0  0  0  0
  -22.8811  -20.0501  -43.5386 O   0  0  0  0  0  0  0  0  0  0  0  0
  -25.0905  -19.3633  -43.2511 N   0  0  0  0  0  0  0  0  0  0  0  0
  -25.7598  -18.7499  -43.6321 H   0  0  0  0  0  0  0  0  0  0  0  0
  -22.9036  -17.6914  -47.2196 C   0  0  0  0  0  0  0  0  0  0  0  0
  -25.1926  -16.9987  -46.4332 C   0  0  0  0  0  0  0  0  0  0  0  0
  -24.0847  -16.9062  -47.4056 C   0  0  0  0  0  0  0  0  0  0  0  0
  -22.7926  -18.5382  -46.0577 C   0  0  0  0  0  0  0  0  0  0  0  0
  -23.9036  -18.5859  -45.0875 C   0  0  0  0  0  0  0  0  0  0  0  0
  -25.0991  -17.8209  -45.2862 N   0  0  0  0  0  0  0  0  0  0  0  0
  -26.4409  -16.1982  -46.6479 C   0  0  0  0  0  0  0  0  0  0  0  0
  -29.8054  -17.9367  -47.1193 C   0  0  0  0  0  0  0  0  0  0  0  0
  -28.7013  -17.1070  -46.5075 C   0  0  0  0  0  0  0  0  0  0  0  0
  -27.5166  -16.9288  -47.4395 C   0  0  0  0  0  0  0  0  0  0  0  0
  -27.0161  -18.2454  -47.9202 C   0  0  0  0  0  0  0  0  0  0  0  0
  -28.0995  -19.0494  -48.6168 C   0  0  0  0  0  0  0  0  0  0  0  0
  -29.3151  -19.2299  -47.7255 C   0  0  0  0  0  0  0  0  0  0  0  0
  -25.5098  -17.8694  -40.8120 C   0  0  0  0  0  0  0  0  0  0  0  0
  -26.5268  -17.0821  -41.5471 C   0  0  0  0  0  0  0  0  0  0  0  0
  -26.0779  -15.9287  -42.3404 C   0  0  0  0  0  0  0  0  0  0  0  0
  -28.8954  -16.6331  -42.3379 C   0  0  0  0  0  0  0  0  0  0  0  0
  -27.0328  -15.1203  -43.1174 C   0  0  0  0  0  0  0  0  0  0  0  0
  -27.9512  -17.4617  -41.5312 C   0  0  0  0  0  0  0  0  0  0  0  0
  -28.4376  -15.4652  -43.1009 C   0  0  0  0  0  0  0  0  0  0  0  0
 11 10  2  0  0  0
 11  8  1  0  0  0
 10  9  1  0  0  0
  8  7  1  0  0  0
  9  7  2  0  0  0
  7  3  1  0  0  0
  3  2  2  0  0  0
  3  4  1  0  0  0
  2  6  1  0  0  0
  4  5  2  0  0  0
  6  1  2  0  0  0
  5  1  1  0  0  0
  5 30  1  0  0  0
 35 33  2  0  0  0
 35 31  1  0  0  0
  1 15  1  0  0  0
 33 36  1  0  0  0
 30 31  1  0  0  0
 31 32  2  0  0  0
 15 13  1  0  0  0
 36 34  2  0  0  0
 14 13  2  0  0  0
 13 21  1  0  0  0
 32 34  1  0  0  0
 21 22  2  0  0  0
 21 20  1  0  0  0
 22 18  1  0  0  0
 28 29  1  0  0  0
 28 27  1  0  0  0
 24 29  1  0  0  0
 24 25  1  0  0  0
 20 17  2  0  0  0
 26 27  1  0  0  0
 26 25  1  0  0  0
 26 23  1  0  0  0
 18 23  1  0  0  0
 18 19  2  0  0  0
 17 19  1  0  0  0
 15 16  1  0  0  0
  8 12  1  0  0  0
M  END
> <minimizedAffinity>
-8.22849

$$$$
4P3H_25G_A_201


 36 40  0  0  0  0  0  0  0  0999 V2000
  -25.6515  -20.1024  -41.9322 C   0  0  0  0  0  0  0  0  0  0  0  0
  -25.9964  -21.1790  -39.6400 C   0  0  0  0  0  0  0  0  0  0  0  0
  -26.1384  -22.4965  -40.2438 C   0  0  0  0  0  0  0  0  0  0  0  0
  -26.0529  -22.6245  -41.6982 C   0  0  0  0  0  0  0  0  0  0  0  0
  -25.7779  -21.4405  -42.5219 C   0  0  0  0  0  0  0  0  0  0  0  0
  -25.7551  -19.9826  -40.4682 C   0  0  0  0  0  0  0  0  0  0  0  0
  -26.4795  -23.7099  -39.4682 C   0  0  0  0  0  0  0  0  0  0  0  0
  -25.6082  -24.4024  -38.7270 N   0  0  0  0  0  0  0  0  0  0  0  0
  -27.6883  -24.2115  -39.4348 N   0  0  0  0  0  0  0  0  0  0  0  0
  -27.6101  -25.2759  -38.6213 N   0  0  0  0  0  0  0  0  0  0  0  0
  -26.3549  -25.3755  -38.2057 N   0  0  0  0  0  0  0  0  0  0  0  0
  -24.6469  -24.2341  -38.5975 H   0  0  0  0  0  0  0  0  0  0  0  0
  -24.1682  -18.7751  -43.3666 C   0  0  0  0  0  0  0  0  0  0  0  0
  -23.1142  -19.4066  -43.2578 O   0  0  0  0  0  0  0  0  0  0  0  0
  -25.3551  -19.0252  -42.7393 N   0  0  0  0  0  0  0  0  0  0  0  0
  -26.0742  -18.3672  -42.8780 H   0  0  0  0  0  0  0  0  0  0  0  0
  -23.5424  -15.2716  -44.9131 C   0  0  0  0  0  0  0  0  0  0  0  0
  -25.4499  -16.4717  -46.0352 C   0  0  0  0  0  0  0  0  0  0  0  0
  -24.5842  -15.2834  -45.8932 C   0  0  0  0  0  0  0  0  0  0  0  0
  -23.3751  -16.4105  -44.0446 C   0  0  0  0  0  0  0  0  0  0  0  0
  -24.2755  -17.5705  -44.1899 C   0  0  0  0  0  0  0  0  0  0  0  0
  -25.3023  -17.5957  -45.1895 N   0  0  0  0  0  0  0  0  0  0  0  0
  -26.5200  -16.4928  -47.0838 C   0  0  0  0  0  0  0  0  0  0  0  0
  -28.0365  -19.8316  -48.1405 C   0  0  0  0  0  0  0  0  0  0  0  0
  -27.0857  -18.6613  -48.0493 C   0  0  0  0  0  0  0  0  0  0  0  0
  -27.4774  -17.6707  -46.9680 C   0  0  0  0  0  0  0  0  0  0  0  0
  -28.8867  -17.2249  -47.1411 C   0  0  0  0  0  0  0  0  0  0  0  0
  -29.8592  -18.3909  -47.1441 C   0  0  0  0  0  0  0  0  0  0  0  0
  -29.4880  -19.4192  -48.1974 C   0  0  0  0  0  0  0  0  0  0  0  0
  -25.6940  -21.6004  -44.0083 C   0  0  0  0  0  0  0  0  0  0  0  0
  -26.9803  -21.9984  -44.6261 C   0  0  0  0  0  0  0  0  0  0  0  0
  -28.1396  -21.1097  -44.4599 C   0  0  0  0  0  0  0  0  0  0  0  0
  -28.4242  -23.5239  -46.0491 C   0  0  0  0  0  0  0  0  0  0  0  0
  -29.4402  -21.4316  -45.0714 C   0  0  0  0  0  0  0  0  0  0  0  0
  -27.0983  -23.2285  -45.4300 C   0  0  0  0  0  0  0  0  0  0  0  0
  -29.5819  -22.6431  -45.8493 C   0  0  0  0  0  0  0  0  0  0  0  0
 11 10  2  0  0  0
 11  8  1  0  0  0
 10  9  1  0  0  0
  8  7  1  0  0  0
  9  7  2  0  0  0
  7  3  1  0  0  0
  3  2  2  0  0  0
  3  4  1  0  0  0
  2  6  1  0  0  0
  4  5  2  0  0  0
  6  1  2  0  0  0
  5  1  1  0  0  0
  5 30  1  0  0  0
 35 33  2  0  0  0
 35 31  1  0  0  0
  1 15  1  0  0  0
 33 36  1  0  0  0
 30 31  1  0  0  0
 31 32  2  0  0  0
 15 13  1  0  0  0
 36 34  2  0  0  0
 14 13  2  0  0  0
 13 21  1  0  0  0
 32 34  1  0  0  0
 21 22  2  0  0  0
 21 20  1  0  0  0
 22 18  1  0  0  0
 28 29  1  0  0  0
 28 27  1  0  0  0
 24 29  1  0  0  0
 24 25  1  0  0  0
 20 17  2  0  0  0
 26 27  1  0  0  0
 26 25  1  0  0  0
 26 23  1  0  0  0
 18 23  1  0  0  0
 18 19  2  0  0  0
 17 19  1  0  0  0
 15 16  1  0  0  0
  8 12  1  0  0  0
M  END
> <minimizedAffinity>
-8.12944

$$$$
4P3H_25G_A_201


 36 40  0  0  0  0  0  0  0  0999 V2000
  -26.6277  -20.1435  -40.1829 C   0  0  0  0  0  0  0  0  0  0  0  0
  -26.2379  -22.6653  -40.3273 C   0  0  0  0  0  0  0  0  0  0  0  0
  -26.4100  -22.8074  -38.8883 C   0  0  0  0  0  0  0  0  0  0  0  0
  -26.6776  -21.6158  -38.0837 C   0  0  0  0  0  0  0  0  0  0  0  0
  -26.8173  -20.3082  -38.7368 C   0  0  0  0  0  0  0  0  0  0  0  0
  -26.3430  -21.3475  -40.9814 C   0  0  0  0  0  0  0  0  0  0  0  0
  -26.2165  -24.0881  -38.1724 C   0  0  0  0  0  0  0  0  0  0  0  0
  -26.6968  -25.2653  -38.5868 N   0  0  0  0  0  0  0  0  0  0  0  0
  -25.5379  -24.1792  -37.0565 N   0  0  0  0  0  0  0  0  0  0  0  0
  -25.5617  -25.4807  -36.7303 N   0  0  0  0  0  0  0  0  0  0  0  0
  -26.2612  -26.1176  -37.6594 N   0  0  0  0  0  0  0  0  0  0  0  0
  -27.2409  -25.4564  -39.3847 H   0  0  0  0  0  0  0  0  0  0  0  0
  -27.9472  -18.4286  -41.3394 C   0  0  0  0  0  0  0  0  0  0  0  0
  -28.9973  -19.0426  -41.5439 O   0  0  0  0  0  0  0  0  0  0  0  0
  -26.8063  -18.9041  -40.7587 N   0  0  0  0  0  0  0  0  0  0  0  0
  -26.0303  -18.2982  -40.7506 H   0  0  0  0  0  0  0  0  0  0  0  0
  -28.3481  -14.5942  -41.7801 C   0  0  0  0  0  0  0  0  0  0  0  0
  -26.3827  -15.4924  -43.0717 C   0  0  0  0  0  0  0  0  0  0  0  0
  -27.2491  -14.3668  -42.6670 C   0  0  0  0  0  0  0  0  0  0  0  0
  -28.6215  -15.9337  -41.3213 C   0  0  0  0  0  0  0  0  0  0  0  0
  -27.7567  -17.0428  -41.7678 C   0  0  0  0  0  0  0  0  0  0  0  0
  -26.6386  -16.8129  -42.6344 N   0  0  0  0  0  0  0  0  0  0  0  0
  -25.2138  -15.2451  -43.9760 C   0  0  0  0  0  0  0  0  0  0  0  0
  -22.8258  -17.8447  -45.4262 C   0  0  0  0  0  0  0  0  0  0  0  0
  -23.3814  -16.7545  -44.5405 C   0  0  0  0  0  0  0  0  0  0  0  0
  -24.8358  -16.4399  -44.8402 C   0  0  0  0  0  0  0  0  0  0  0  0
  -25.0257  -16.1293  -46.2833 C   0  0  0  0  0  0  0  0  0  0  0  0
  -24.5511  -17.2598  -47.1790 C   0  0  0  0  0  0  0  0  0  0  0  0
  -23.1049  -17.6227  -46.8936 C   0  0  0  0  0  0  0  0  0  0  0  0
  -27.0927  -19.1050  -37.8892 C   0  0  0  0  0  0  0  0  0  0  0  0
  -28.5251  -18.7285  -37.8578 C   0  0  0  0  0  0  0  0  0  0  0  0
  -28.8717  -17.2999  -37.8429 C   0  0  0  0  0  0  0  0  0  0  0  0
  -31.0030  -19.2719  -37.8974 C   0  0  0  0  0  0  0  0  0  0  0  0
  -30.2761  -16.8566  -37.8398 C   0  0  0  0  0  0  0  0  0  0  0  0
  -29.5885  -19.7491  -37.8880 C   0  0  0  0  0  0  0  0  0  0  0  0
  -31.3348  -17.8424  -37.8512 C   0  0  0  0  0  0  0  0  0  0  0  0
 11 10  2  0  0  0
 11  8  1  0  0  0
 10  9  1  0  0  0
  8  7  1  0  0  0
  9  7  2  0  0  0
  7  3  1  0  0  0
  3  2  2  0  0  0
  3  4  1  0  0  0
  2  6  1  0  0  0
  4  5  2  0  0  0
  6  1  2  0  0  0
  5  1  1  0  0  0
  5 30  1  0  0  0
 35 33  2  0  0  0
 35 31  1  0  0  0
  1 15  1  0  0  0
 33 36  1  0  0  0
 30 31  1  0  0  0
 31 32  2  0  0  0
 15 13  1  0  0  0
 36 34  2  0  0  0
 14 13  2  0  0  0
 13 21  1  0  0  0
 32 34  1  0  0  0
 21 22  2  0  0  0
 21 20  1  0  0  0
 22 18  1  0  0  0
 28 29  1  0  0  0
 28 27  1  0  0  0
 24 29  1  0  0  0
 24 25  1  0  0  0
 20 17  2  0  0  0
 26 27  1  0  0  0
 26 25  1  0  0  0
 26 23  1  0  0  0
 18 23  1  0  0  0
 18 19  2  0  0  0
 17 19  1  0  0  0
 15 16  1  0  0  0
  8 12  1  0  0  0
M  END
> <minimizedAffinity>
-8.09558

$$$$
4P3H_25G_A_201


 36 40  0  0  0  0  0  0  0  0999 V2000
  -26.6082  -16.3749  -42.6588 C   0  0  0  0  0  0  0  0  0  0  0  0
  -25.7450  -15.7171  -44.9727 C   0  0  0  0  0  0  0  0  0  0  0  0
  -24.7467  -16.7767  -44.9376 C   0  0  0  0  0  0  0  0  0  0  0  0
  -24.6620  -17.6341  -43.7558 C   0  0  0  0  0  0  0  0  0  0  0  0
  -25.6088  -17.4498  -42.6488 C   0  0  0  0  0  0  0  0  0  0  0  0
  -26.6743  -15.5074  -43.8468 C   0  0  0  0  0  0  0  0  0  0  0  0
  -23.7286  -16.9651  -45.9950 C   0  0  0  0  0  0  0  0  0  0  0  0
  -22.4570  -16.5625  -45.8998 N   0  0  0  0  0  0  0  0  0  0  0  0
  -23.9904  -17.5614  -47.1308 N   0  0  0  0  0  0  0  0  0  0  0  0
  -22.8316  -17.5631  -47.8077 N   0  0  0  0  0  0  0  0  0  0  0  0
  -21.9225  -16.9598  -47.0542 N   0  0  0  0  0  0  0  0  0  0  0  0
  -22.0208  -16.0872  -45.1562 H   0  0  0  0  0  0  0  0  0  0  0  0
  -28.2358  -15.1610  -41.2816 C   0  0  0  0  0  0  0  0  0  0  0  0
  -28.1720  -14.0363  -41.7842 O   0  0  0  0  0  0  0  0  0  0  0  0
  -27.5019  -16.2631  -41.6154 N   0  0  0  0  0  0  0  0  0  0  0  0
  -27.6238  -17.0612  -41.0520 H   0  0  0  0  0  0  0  0  0  0  0  0
  -31.0076  -14.9302  -38.5757 C   0  0  0  0  0  0  0  0  0  0  0  0
  -29.7724  -17.1216  -38.4772 C   0  0  0  0  0  0  0  0  0  0  0  0
  -30.8065  -16.2042  -37.9571 C   0  0  0  0  0  0  0  0  0  0  0  0
  -30.1669  -14.5393  -39.6802 C   0  0  0  0  0  0  0  0  0  0  0  0
  -29.1214  -15.4649  -40.1575 C   0  0  0  0  0  0  0  0  0  0  0  0
  -28.9364  -16.7530  -39.5569 N   0  0  0  0  0  0  0  0  0  0  0  0
  -29.5855  -18.4679  -37.8465 C   0  0  0  0  0  0  0  0  0  0  0  0
  -27.9355  -21.7041  -39.0164 C   0  0  0  0  0  0  0  0  0  0  0  0
  -28.9835  -20.7330  -38.5258 C   0  0  0  0  0  0  0  0  0  0  0  0
  -28.4812  -19.3014  -38.4815 C   0  0  0  0  0  0  0  0  0  0  0  0
  -27.2243  -19.2035  -37.6905 C   0  0  0  0  0  0  0  0  0  0  0  0
  -26.1351  -20.1119  -38.2326 C   0  0  0  0  0  0  0  0  0  0  0  0
  -26.6062  -21.5527  -38.3164 C   0  0  0  0  0  0  0  0  0  0  0  0
  -25.5004  -18.3426  -41.4517 C   0  0  0  0  0  0  0  0  0  0  0  0
  -25.8661  -19.7495  -41.7377 C   0  0  0  0  0  0  0  0  0  0  0  0
  -27.2093  -20.0285  -42.2660 C   0  0  0  0  0  0  0  0  0  0  0  0
  -25.3471  -22.2274  -41.9035 C   0  0  0  0  0  0  0  0  0  0  0  0
  -27.6276  -21.4010  -42.5979 C   0  0  0  0  0  0  0  0  0  0  0  0
  -24.9016  -20.8479  -41.5469 C   0  0  0  0  0  0  0  0  0  0  0  0
  -26.7023  -22.4955  -42.4011 C   0  0  0  0  0  0  0  0  0  0  0  0
 11 10  2  0  0  0
 11  8  1  0  0  0
 10  9  1  0  0  0
  8  7  1  0  0  0
  9  7  2  0  0  0
  7  3  1  0  0  0
  3  2  2  0  0  0
  3  4  1  0  0  0
  2  6  1  0  0  0
  4  5  2  0  0  0
  6  1  2  0  0  0
  5  1  1  0  0  0
  5 30  1  0  0  0
 35 33  2  0  0  0
 35 31  1  0  0  0
  1 15  1  0  0  0
 33 36  1  0  0  0
 30 31  1  0  0  0
 31 32  2  0  0  0
 15 13  1  0  0  0
 36 34  2  0  0  0
 14 13  2  0  0  0
 13 21  1  0  0  0
 32 34  1  0  0  0
 21 22  2  0  0  0
 21 20  1  0  0  0
 22 18  1  0  0  0
 28 29  1  0  0  0
 28 27  1  0  0  0
 24 29  1  0  0  0
 24 25  1  0  0  0
 20 17  2  0  0  0
 26 27  1  0  0  0
 26 25  1  0  0  0
 26 23  1  0  0  0
 18 23  1  0  0  0
 18 19  2  0  0  0
 17 19  1  0  0  0
 15 16  1  0  0  0
  8 12  1  0  0  0
M  END
> <minimizedAffinity>
-8.09133

$$$$
4P3H_25G_A_201


 36 40  0  0  0  0  0  0  0  0999 V2000
  -28.6634  -16.5780  -42.0977 C   0  0  0  0  0  0  0  0  0  0  0  0
  -29.6473  -14.3856  -41.2276 C   0  0  0  0  0  0  0  0  0  0  0  0
  -30.5656  -14.3120  -42.3552 C   0  0  0  0  0  0  0  0  0  0  0  0
  -30.5293  -15.3638  -43.3708 C   0  0  0  0  0  0  0  0  0  0  0  0
  -29.6092  -16.4977  -43.2172 C   0  0  0  0  0  0  0  0  0  0  0  0
  -28.6976  -15.5055  -41.0893 C   0  0  0  0  0  0  0  0  0  0  0  0
  -31.4664  -13.1619  -42.5920 C   0  0  0  0  0  0  0  0  0  0  0  0
  -31.1286  -12.0673  -43.2818 N   0  0  0  0  0  0  0  0  0  0  0  0
  -32.6964  -13.1229  -42.1451 N   0  0  0  0  0  0  0  0  0  0  0  0
  -33.1945  -11.9531  -42.5742 N   0  0  0  0  0  0  0  0  0  0  0  0
  -32.2403  -11.3327  -43.2546 N   0  0  0  0  0  0  0  0  0  0  0  0
  -30.2665  -11.8551  -43.7073 H   0  0  0  0  0  0  0  0  0  0  0  0
  -28.0876  -18.7990  -41.2288 C   0  0  0  0  0  0  0  0  0  0  0  0
  -29.0306  -18.9987  -40.4592 O   0  0  0  0  0  0  0  0  0  0  0  0
  -27.8447  -17.6797  -41.9725 N   0  0  0  0  0  0  0  0  0  0  0  0
  -26.9963  -17.6574  -42.4713 H   0  0  0  0  0  0  0  0  0  0  0  0
  -25.9826  -22.0583  -41.1637 C   0  0  0  0  0  0  0  0  0  0  0  0
  -24.8071  -20.1998  -42.3892 C   0  0  0  0  0  0  0  0  0  0  0  0
  -24.8367  -21.5848  -41.8771 C   0  0  0  0  0  0  0  0  0  0  0  0
  -27.0838  -21.1603  -40.9178 C   0  0  0  0  0  0  0  0  0  0  0  0
  -27.0119  -19.7729  -41.4152 C   0  0  0  0  0  0  0  0  0  0  0  0
  -25.8765  -19.3045  -42.1539 N   0  0  0  0  0  0  0  0  0  0  0  0
  -23.6183  -19.7169  -43.1629 C   0  0  0  0  0  0  0  0  0  0  0  0
  -23.2331  -17.5140  -46.2554 C   0  0  0  0  0  0  0  0  0  0  0  0
  -23.1533  -18.7105  -45.3369 C   0  0  0  0  0  0  0  0  0  0  0  0
  -23.8980  -18.4983  -44.0314 C   0  0  0  0  0  0  0  0  0  0  0  0
  -23.4423  -17.2526  -43.3563 C   0  0  0  0  0  0  0  0  0  0  0  0
  -23.6031  -16.0302  -44.2424 C   0  0  0  0  0  0  0  0  0  0  0  0
  -22.8919  -16.2118  -45.5712 C   0  0  0  0  0  0  0  0  0  0  0  0
  -29.5939  -17.5612  -44.2711 C   0  0  0  0  0  0  0  0  0  0  0  0
  -28.7770  -17.2000  -45.4530 C   0  0  0  0  0  0  0  0  0  0  0  0
  -27.4628  -16.5797  -45.2306 C   0  0  0  0  0  0  0  0  0  0  0  0
  -28.3250  -17.1309  -47.9485 C   0  0  0  0  0  0  0  0  0  0  0  0
  -26.5884  -16.2215  -46.3603 C   0  0  0  0  0  0  0  0  0  0  0  0
  -29.2365  -17.4923  -46.8228 C   0  0  0  0  0  0  0  0  0  0  0  0
  -27.0283  -16.4836  -47.7132 C   0  0  0  0  0  0  0  0  0  0  0  0
 11 10  2  0  0  0
 11  8  1  0  0  0
 10  9  1  0  0  0
  8  7  1  0  0  0
  9  7  2  0  0  0
  7  3  1  0  0  0
  3  2  2  0  0  0
  3  4  1  0  0  0
  2  6  1  0  0  0
  4  5  2  0  0  0
  6  1  2  0  0  0
  5  1  1  0  0  0
  5 30  1  0  0  0
 35 33  2  0  0  0
 35 31  1  0  0  0
  1 15  1  0  0  0
 33 36  1  0  0  0
 30 31  1  0  0  0
 31 32  2  0  0  0
 15 13  1  0  0  0
 36 34  2  0  0  0
 14 13  2  0  0  0
 13 21  1  0  0  0
 32 34  1  0  0  0
 21 22  2  0  0  0
 21 20  1  0  0  0
 22 18  1  0  0  0
 28 29  1  0  0  0
 28 27  1  0  0  0
 24 29  1  0  0  0
 24 25  1  0  0  0
 20 17  2  0  0  0
 26 27  1  0  0  0
 26 25  1  0  0  0
 26 23  1  0  0  0
 18 23  1  0  0  0
 18 19  2  0  0  0
 17 19  1  0  0  0
 15 16  1  0  0  0
  8 12  1  0  0  0
M  END
> <minimizedAffinity>
-7.97577

$$$$
4P3H_25G_A_201


 36 40  0  0  0  0  0  0  0  0999 V2000
  -26.9574  -21.2196  -39.6667 C   0  0  0  0  0  0  0  0  0  0  0  0
  -26.1877  -23.0347  -38.0404 C   0  0  0  0  0  0  0  0  0  0  0  0
  -26.9153  -24.0544  -38.7829 C   0  0  0  0  0  0  0  0  0  0  0  0
  -27.6818  -23.6615  -39.9648 C   0  0  0  0  0  0  0  0  0  0  0  0
  -27.6690  -22.2636  -40.4137 C   0  0  0  0  0  0  0  0  0  0  0  0
  -26.2018  -21.6235  -38.4691 C   0  0  0  0  0  0  0  0  0  0  0  0
  -27.0142  -25.4628  -38.3392 C   0  0  0  0  0  0  0  0  0  0  0  0
  -25.9673  -26.2781  -38.1734 N   0  0  0  0  0  0  0  0  0  0  0  0
  -28.1566  -26.0371  -38.0575 N   0  0  0  0  0  0  0  0  0  0  0  0
  -27.8434  -27.2846  -37.6748 N   0  0  0  0  0  0  0  0  0  0  0  0
  -26.5257  -27.4118  -37.7504 N   0  0  0  0  0  0  0  0  0  0  0  0
  -25.0138  -26.0869  -38.3270 H   0  0  0  0  0  0  0  0  0  0  0  0
  -25.9099  -19.3085  -40.7937 C   0  0  0  0  0  0  0  0  0  0  0  0
  -24.7741  -19.7484  -40.9889 O   0  0  0  0  0  0  0  0  0  0  0  0
  -26.9406  -19.9274  -40.1460 N   0  0  0  0  0  0  0  0  0  0  0  0
  -27.7570  -19.3950  -40.0070 H   0  0  0  0  0  0  0  0  0  0  0  0
  -27.6163  -15.8266  -40.9433 C   0  0  0  0  0  0  0  0  0  0  0  0
  -25.9657  -16.1502  -42.8164 C   0  0  0  0  0  0  0  0  0  0  0  0
  -26.9744  -15.3264  -42.1197 C   0  0  0  0  0  0  0  0  0  0  0  0
  -27.2976  -17.1519  -40.4726 C   0  0  0  0  0  0  0  0  0  0  0  0
  -26.3083  -17.9632  -41.2078 C   0  0  0  0  0  0  0  0  0  0  0  0
  -25.6438  -17.4534  -42.3709 N   0  0  0  0  0  0  0  0  0  0  0  0
  -25.2727  -15.6105  -44.0304 C   0  0  0  0  0  0  0  0  0  0  0  0
  -22.8493  -17.5920  -46.2133 C   0  0  0  0  0  0  0  0  0  0  0  0
  -23.3737  -16.6691  -45.1386 C   0  0  0  0  0  0  0  0  0  0  0  0
  -24.8889  -16.6749  -45.0488 C   0  0  0  0  0  0  0  0  0  0  0  0
  -25.5007  -16.3833  -46.3738 C   0  0  0  0  0  0  0  0  0  0  0  0
  -25.0471  -17.3630  -47.4414 C   0  0  0  0  0  0  0  0  0  0  0  0
  -23.5332  -17.4059  -47.5466 C   0  0  0  0  0  0  0  0  0  0  0  0
  -28.4613  -21.8893  -41.6277 C   0  0  0  0  0  0  0  0  0  0  0  0
  -27.8955  -22.4324  -42.8845 C   0  0  0  0  0  0  0  0  0  0  0  0
  -26.5902  -21.9300  -43.3373 C   0  0  0  0  0  0  0  0  0  0  0  0
  -27.9210  -24.0006  -44.8787 C   0  0  0  0  0  0  0  0  0  0  0  0
  -25.9580  -22.4474  -44.5627 C   0  0  0  0  0  0  0  0  0  0  0  0
  -28.5902  -23.4849  -43.6479 C   0  0  0  0  0  0  0  0  0  0  0  0
  -26.6315  -23.4677  -45.3361 C   0  0  0  0  0  0  0  0  0  0  0  0
 11 10  2  0  0  0
 11  8  1  0  0  0
 10  9  1  0  0  0
  8  7  1  0  0  0
  9  7  2  0  0  0
  7  3  1  0  0  0
  3  2  2  0  0  0
  3  4  1  0  0  0
  2  6  1  0  0  0
  4  5  2  0  0  0
  6  1  2  0  0  0
  5  1  1  0  0  0
  5 30  1  0  0  0
 35 33  2  0  0  0
 35 31  1  0  0  0
  1 15  1  0  0  0
 33 36  1  0  0  0
 30 31  1  0  0  0
 31 32  2  0  0  0
 15 13  1  0  0  0
 36 34  2  0  0  0
 14 13  2  0  0  0
 13 21  1  0  0  0
 32 34  1  0  0  0
 21 22  2  0  0  0
 21 20  1  0  0  0
 22 18  1  0  0  0
 28 29  1  0  0  0
 28 27  1  0  0  0
 24 29  1  0  0  0
 24 25  1  0  0  0
 20 17  2  0  0  0
 26 27  1  0  0  0
 26 25  1  0  0  0
 26 23  1  0  0  0
 18 23  1  0  0  0
 18 19  2  0  0  0
 17 19  1  0  0  0
 15 16  1  0  0  0
  8 12  1  0  0  0
M  END
> <minimizedAffinity>
-7.94079

$$$$
4P3H_25G_A_201


 36 40  0  0  0  0  0  0  0  0999 V2000
  -28.9926  -15.8369  -41.4396 C   0  0  0  0  0  0  0  0  0  0  0  0
  -31.1941  -14.5393  -41.4777 C   0  0  0  0  0  0  0  0  0  0  0  0
  -30.7170  -13.6973  -42.5658 C   0  0  0  0  0  0  0  0  0  0  0  0
  -29.3679  -13.9093  -43.0890 C   0  0  0  0  0  0  0  0  0  0  0  0
  -28.5354  -14.9916  -42.5491 C   0  0  0  0  0  0  0  0  0  0  0  0
  -30.3467  -15.6045  -40.9097 C   0  0  0  0  0  0  0  0  0  0  0  0
  -31.4880  -12.5536  -43.1022 C   0  0  0  0  0  0  0  0  0  0  0  0
  -32.8190  -12.5326  -43.2287 N   0  0  0  0  0  0  0  0  0  0  0  0
  -30.9212  -11.4414  -43.4971 N   0  0  0  0  0  0  0  0  0  0  0  0
  -31.9295  -10.6470  -43.8881 N   0  0  0  0  0  0  0  0  0  0  0  0
  -33.0610  -11.3177  -43.7202 N   0  0  0  0  0  0  0  0  0  0  0  0
  -33.4646  -13.2434  -43.0113 H   0  0  0  0  0  0  0  0  0  0  0  0
  -28.1489  -17.3737  -39.7233 C   0  0  0  0  0  0  0  0  0  0  0  0
  -28.7387  -16.9530  -38.7250 O   0  0  0  0  0  0  0  0  0  0  0  0
  -28.1933  -16.8658  -40.9902 N   0  0  0  0  0  0  0  0  0  0  0  0
  -27.5915  -17.2777  -41.6516 H   0  0  0  0  0  0  0  0  0  0  0  0
  -26.1161  -20.4425  -38.4951 C   0  0  0  0  0  0  0  0  0  0  0  0
  -25.6389  -19.8977  -40.9061 C   0  0  0  0  0  0  0  0  0  0  0  0
  -25.4020  -20.7208  -39.7029 C   0  0  0  0  0  0  0  0  0  0  0  0
  -27.0338  -19.3309  -38.4559 C   0  0  0  0  0  0  0  0  0  0  0  0
  -27.2262  -18.5076  -39.6654 C   0  0  0  0  0  0  0  0  0  0  0  0
  -26.5324  -18.8015  -40.8845 N   0  0  0  0  0  0  0  0  0  0  0  0
  -24.9122  -20.2117  -42.1784 C   0  0  0  0  0  0  0  0  0  0  0  0
  -23.3950  -18.3563  -45.1483 C   0  0  0  0  0  0  0  0  0  0  0  0
  -23.8413  -19.4830  -44.2465 C   0  0  0  0  0  0  0  0  0  0  0  0
  -24.6527  -18.9975  -43.0592 C   0  0  0  0  0  0  0  0  0  0  0  0
  -23.9156  -17.9465  -42.3061 C   0  0  0  0  0  0  0  0  0  0  0  0
  -23.5412  -16.7678  -43.1871 C   0  0  0  0  0  0  0  0  0  0  0  0
  -22.7478  -17.2143  -44.4019 C   0  0  0  0  0  0  0  0  0  0  0  0
  -27.1587  -15.1873  -43.1042 C   0  0  0  0  0  0  0  0  0  0  0  0
  -27.1541  -15.8154  -44.4459 C   0  0  0  0  0  0  0  0  0  0  0  0
  -28.3408  -16.5748  -44.8657 C   0  0  0  0  0  0  0  0  0  0  0  0
  -26.1195  -16.2858  -46.7142 C   0  0  0  0  0  0  0  0  0  0  0  0
  -28.4132  -17.2008  -46.1969 C   0  0  0  0  0  0  0  0  0  0  0  0
  -26.0144  -15.6522  -45.3666 C   0  0  0  0  0  0  0  0  0  0  0  0
  -27.2981  -17.0676  -47.1088 C   0  0  0  0  0  0  0  0  0  0  0  0
 11 10  2  0  0  0
 11  8  1  0  0  0
 10  9  1  0  0  0
  8  7  1  0  0  0
  9  7  2  0  0  0
  7  3  1  0  0  0
  3  2  2  0  0  0
  3  4  1  0  0  0
  2  6  1  0  0  0
  4  5  2  0  0  0
  6  1  2  0  0  0
  5  1  1  0  0  0
  5 30  1  0  0  0
 35 33  2  0  0  0
 35 31  1  0  0  0
  1 15  1  0  0  0
 33 36  1  0  0  0
 30 31  1  0  0  0
 31 32  2  0  0  0
 15 13  1  0  0  0
 36 34  2  0  0  0
 14 13  2  0  0  0
 13 21  1  0  0  0
 32 34  1  0  0  0
 21 22  2  0  0  0
 21 20  1  0  0  0
 22 18  1  0  0  0
 28 29  1  0  0  0
 28 27  1  0  0  0
 24 29  1  0  0  0
 24 25  1  0  0  0
 20 17  2  0  0  0
 26 27  1  0  0  0
 26 25  1  0  0  0
 26 23  1  0  0  0
 18 23  1  0  0  0
 18 19  2  0  0  0
 17 19  1  0  0  0
 15 16  1  0  0  0
  8 12  1  0  0  0
M  END
> <minimizedAffinity>
-7.89071

$$$$
