4ZWZ_510_A_302


 34 35  0  0  0  0  0  0  0  0999 V2000
   17.8895    4.6590   12.9450 S   0  0  0  0  0  0  0  0  0  0  0  0
   17.1222    6.0402   12.8432 O   0  0  0  0  0  0  0  0  0  0  0  0
   19.0025    4.6708   14.1121 O   0  0  0  0  0  0  0  0  0  0  0  0
   18.8399    4.4828   11.3863 C   0  0  0  0  0  0  0  0  0  0  0  0
   17.9586    4.9220   10.3315 C   0  0  0  0  0  0  0  0  0  0  0  0
   18.6457    5.4137    9.1389 C   0  0  0  0  0  0  0  0  0  0  0  0
   20.0624    5.8668    9.1886 C   0  0  0  0  0  0  0  0  0  0  0  0
   20.6938    6.0502   10.5848 C   0  0  0  0  0  0  0  0  0  0  0  0
   17.1015    3.7879   10.0172 O   0  0  0  0  0  0  0  0  0  0  0  0
   18.4089    4.5533    7.9714 O   0  0  0  0  0  0  0  0  0  0  0  0
   20.8777    5.0967    8.3255 O   0  0  0  0  0  0  0  0  0  0  0  0
   19.8053    5.4775   11.6500 O   0  0  0  0  0  0  0  0  0  0  0  0
   17.6465    3.0453    9.7132 H   0  0  0  0  0  0  0  0  0  0  0  0
   18.8721    3.7097    8.0922 H   0  0  0  0  0  0  0  0  0  0  0  0
   20.9207    4.1838    8.6504 H   0  0  0  0  0  0  0  0  0  0  0  0
   21.9636    5.4950   10.7662 C   0  0  0  0  0  0  0  0  0  0  0  0
   22.2546    5.5876   12.1087 O   0  0  0  0  0  0  0  0  0  0  0  0
   22.2290    6.5180   12.3817 H   0  0  0  0  0  0  0  0  0  0  0  0
   16.9758    3.6055   13.0754 N   0  0  0  0  0  0  0  0  0  0  0  0
   16.1303    3.7185   13.9434 C   0  0  0  0  0  0  0  0  0  0  0  0
   16.0066    2.2989   14.7578 C   0  0  0  0  0  0  0  0  0  0  0  0
   16.9764    1.7362   14.5257 C   0  0  0  0  0  0  0  0  0  0  0  0
   17.4299    2.2048   13.1325 C   0  0  0  0  0  0  0  0  0  0  0  0
   16.7828    1.1772   12.1718 C   0  0  0  0  0  0  0  0  0  0  0  0
   16.9883    0.0540   12.3444 O   0  0  0  0  0  0  0  0  0  0  0  0
   15.9451    1.5870   11.1409 O   0  0  0  0  0  0  0  0  0  0  0  0
   15.7882    0.7510   10.0027 C   0  0  0  0  0  0  0  0  0  0  0  0
   16.0370    2.6189   16.2525 O   0  0  0  0  0  0  0  0  0  0  0  0
   15.0899    1.8005   17.2694 S   0  0  0  0  0  0  0  0  0  0  0  0
   13.6678    1.7622   16.6203 O   0  0  0  0  0  0  0  0  0  0  0  0
   15.1218    2.5895   18.6079 O   0  0  0  0  0  0  0  0  0  0  0  0
   15.6724    0.2554   17.3219 N   0  0  0  0  0  0  0  0  0  0  0  0
   15.6040   -0.1654   16.3953 H   0  0  0  0  0  0  0  0  0  0  0  0
   15.1242   -0.2922   17.9853 H   0  0  0  0  0  0  0  0  0  0  0  0
  4  5  1  0  0  0
  4 12  1  0  0  0
  4  1  1  0  0  0
  5  6  1  0  0  0
  5  9  1  0  0  0
  6  7  1  0  0  0
  6 10  1  0  0  0
  7  8  1  0  0  0
  7 11  1  0  0  0
  8 16  1  0  0  0
  8 12  1  0  0  0
 16 17  1  0  0  0
  1  2  2  0  0  0
  1  3  2  0  0  0
  1 19  1  0  0  0
 19 20  1  0  0  0
 19 23  1  0  0  0
 20 21  1  0  0  0
 21 28  1  0  0  0
 21 22  1  0  0  0
 28 29  1  0  0  0
 29 30  2  0  0  0
 29 31  2  0  0  0
 29 32  1  0  0  0
 22 23  1  0  0  0
 23 24  1  0  0  0
 24 25  2  0  0  0
 24 26  1  0  0  0
 26 27  1  0  0  0
  9 13  1  0  0  0
 10 14  1  0  0  0
 11 15  1  0  0  0
 17 18  1  0  0  0
 32 33  1  0  0  0
 32 34  1  0  0  0
M  END
> <minimizedAffinity>
-7.69109

$$$$
4ZWZ_510_A_302


 34 35  0  0  0  0  0  0  0  0999 V2000
   16.9274    4.7320   11.5196 S   0  0  0  0  0  0  0  0  0  0  0  0
   16.3408    3.2922   11.2204 O   0  0  0  0  0  0  0  0  0  0  0  0
   16.0406    5.8978   10.8449 O   0  0  0  0  0  0  0  0  0  0  0  0
   18.5478    4.8147   10.6642 C   0  0  0  0  0  0  0  0  0  0  0  0
   18.2681    5.2785    9.3267 C   0  0  0  0  0  0  0  0  0  0  0  0
   19.3882    5.9581    8.6789 C   0  0  0  0  0  0  0  0  0  0  0  0
   20.5095    6.5357    9.4687 C   0  0  0  0  0  0  0  0  0  0  0  0
   20.3191    6.6278   10.9974 C   0  0  0  0  0  0  0  0  0  0  0  0
   17.8503    4.1083    8.5681 O   0  0  0  0  0  0  0  0  0  0  0  0
   19.8922    5.2090    7.5195 O   0  0  0  0  0  0  0  0  0  0  0  0
   21.7450    5.9434    9.1143 O   0  0  0  0  0  0  0  0  0  0  0  0
   19.1026    5.8627   11.4291 O   0  0  0  0  0  0  0  0  0  0  0  0
   18.5696    3.4576    8.5552 H   0  0  0  0  0  0  0  0  0  0  0  0
   20.3414    4.4051    7.8243 H   0  0  0  0  0  0  0  0  0  0  0  0
   21.7423    5.0092    9.3753 H   0  0  0  0  0  0  0  0  0  0  0  0
   21.3863    6.1796   11.7809 C   0  0  0  0  0  0  0  0  0  0  0  0
   20.8439    5.6159   12.9139 O   0  0  0  0  0  0  0  0  0  0  0  0
   20.3110    6.2782   13.3811 H   0  0  0  0  0  0  0  0  0  0  0  0
   17.0996    4.9083   12.8983 N   0  0  0  0  0  0  0  0  0  0  0  0
   17.4179    3.9247   13.5404 C   0  0  0  0  0  0  0  0  0  0  0  0
   16.5094    3.8600   14.9058 C   0  0  0  0  0  0  0  0  0  0  0  0
   15.6086    4.5354   14.6972 C   0  0  0  0  0  0  0  0  0  0  0  0
   16.0900    5.6117   13.7092 C   0  0  0  0  0  0  0  0  0  0  0  0
   16.5533    6.7700   14.6264 C   0  0  0  0  0  0  0  0  0  0  0  0
   15.7536    7.3740   15.2002 O   0  0  0  0  0  0  0  0  0  0  0  0
   17.9028    7.0624   14.7870 O   0  0  0  0  0  0  0  0  0  0  0  0
   18.4748    8.1250   14.0367 C   0  0  0  0  0  0  0  0  0  0  0  0
   15.9652    2.4368   15.0324 O   0  0  0  0  0  0  0  0  0  0  0  0
   16.7046    1.3760   15.9961 S   0  0  0  0  0  0  0  0  0  0  0  0
   18.1450    1.9306   16.2467 O   0  0  0  0  0  0  0  0  0  0  0  0
   16.7026    0.0273   15.2240 O   0  0  0  0  0  0  0  0  0  0  0  0
   15.8906    1.3923   17.4336 N   0  0  0  0  0  0  0  0  0  0  0  0
   15.9567    2.3205   17.8513 H   0  0  0  0  0  0  0  0  0  0  0  0
   16.3020    0.7051   18.0652 H   0  0  0  0  0  0  0  0  0  0  0  0
  4  5  1  0  0  0
  4 12  1  0  0  0
  4  1  1  0  0  0
  5  6  1  0  0  0
  5  9  1  0  0  0
  6  7  1  0  0  0
  6 10  1  0  0  0
  7  8  1  0  0  0
  7 11  1  0  0  0
  8 16  1  0  0  0
  8 12  1  0  0  0
 16 17  1  0  0  0
  1  2  2  0  0  0
  1  3  2  0  0  0
  1 19  1  0  0  0
 19 20  1  0  0  0
 19 23  1  0  0  0
 20 21  1  0  0  0
 21 28  1  0  0  0
 21 22  1  0  0  0
 28 29  1  0  0  0
 29 30  2  0  0  0
 29 31  2  0  0  0
 29 32  1  0  0  0
 22 23  1  0  0  0
 23 24  1  0  0  0
 24 25  2  0  0  0
 24 26  1  0  0  0
 26 27  1  0  0  0
  9 13  1  0  0  0
 10 14  1  0  0  0
 11 15  1  0  0  0
 17 18  1  0  0  0
 32 33  1  0  0  0
 32 34  1  0  0  0
M  END
> <minimizedAffinity>
-7.69056

$$$$
4ZWZ_510_A_302


 34 35  0  0  0  0  0  0  0  0999 V2000
   16.3241    5.7781   13.3782 S   0  0  0  0  0  0  0  0  0  0  0  0
   15.0068    6.6468   13.2484 O   0  0  0  0  0  0  0  0  0  0  0  0
   17.2620    6.2804   14.5903 O   0  0  0  0  0  0  0  0  0  0  0  0
   17.3019    6.0971   11.8596 C   0  0  0  0  0  0  0  0  0  0  0  0
   16.3419    6.2445   10.7923 C   0  0  0  0  0  0  0  0  0  0  0  0
   16.8120    7.0502    9.6671 C   0  0  0  0  0  0  0  0  0  0  0  0
   17.9439    8.0053    9.8135 C   0  0  0  0  0  0  0  0  0  0  0  0
   18.4264    8.3100   11.2474 C   0  0  0  0  0  0  0  0  0  0  0  0
   15.9942    4.8962   10.3674 O   0  0  0  0  0  0  0  0  0  0  0  0
   16.9493    6.2557    8.4386 O   0  0  0  0  0  0  0  0  0  0  0  0
   19.0108    7.6731    8.9451 O   0  0  0  0  0  0  0  0  0  0  0  0
   17.8044    7.3624   12.2308 O   0  0  0  0  0  0  0  0  0  0  0  0
   16.7892    4.4436   10.0449 H   0  0  0  0  0  0  0  0  0  0  0  0
   17.6988    5.6467    8.5295 H   0  0  0  0  0  0  0  0  0  0  0  0
   19.3949    6.8242    9.2148 H   0  0  0  0  0  0  0  0  0  0  0  0
   19.8080    8.2704   11.4557 C   0  0  0  0  0  0  0  0  0  0  0  0
   20.2053    6.9656   11.2684 O   0  0  0  0  0  0  0  0  0  0  0  0
   19.7333    6.3913   11.8915 H   0  0  0  0  0  0  0  0  0  0  0  0
   16.0010    4.4183   13.4679 N   0  0  0  0  0  0  0  0  0  0  0  0
   15.2339    4.0953   14.3557 C   0  0  0  0  0  0  0  0  0  0  0  0
   15.8078    2.7468   15.0945 C   0  0  0  0  0  0  0  0  0  0  0  0
   16.9173    2.7027   14.8151 C   0  0  0  0  0  0  0  0  0  0  0  0
   17.0485    3.3822   13.4413 C   0  0  0  0  0  0  0  0  0  0  0  0
   16.9059    2.2111   12.4383 C   0  0  0  0  0  0  0  0  0  0  0  0
   17.6028    1.2974   12.5532 O   0  0  0  0  0  0  0  0  0  0  0  0
   15.9409    2.2362   11.4382 O   0  0  0  0  0  0  0  0  0  0  0  0
   15.9300    1.2049   10.4606 C   0  0  0  0  0  0  0  0  0  0  0  0
   15.7489    2.9853   16.6036 O   0  0  0  0  0  0  0  0  0  0  0  0
   15.0523    1.8928   17.5637 S   0  0  0  0  0  0  0  0  0  0  0  0
   16.0175    0.6637   17.6134 O   0  0  0  0  0  0  0  0  0  0  0  0
   13.6841    1.5601   16.9058 O   0  0  0  0  0  0  0  0  0  0  0  0
   14.9900    2.5587   19.0743 N   0  0  0  0  0  0  0  0  0  0  0  0
   15.9378    2.7350   19.4074 H   0  0  0  0  0  0  0  0  0  0  0  0
   14.5203    1.9147   19.7107 H   0  0  0  0  0  0  0  0  0  0  0  0
  4  5  1  0  0  0
  4 12  1  0  0  0
  4  1  1  0  0  0
  5  6  1  0  0  0
  5  9  1  0  0  0
  6  7  1  0  0  0
  6 10  1  0  0  0
  7  8  1  0  0  0
  7 11  1  0  0  0
  8 16  1  0  0  0
  8 12  1  0  0  0
 16 17  1  0  0  0
  1  2  2  0  0  0
  1  3  2  0  0  0
  1 19  1  0  0  0
 19 20  1  0  0  0
 19 23  1  0  0  0
 20 21  1  0  0  0
 21 28  1  0  0  0
 21 22  1  0  0  0
 28 29  1  0  0  0
 29 30  2  0  0  0
 29 31  2  0  0  0
 29 32  1  0  0  0
 22 23  1  0  0  0
 23 24  1  0  0  0
 24 25  2  0  0  0
 24 26  1  0  0  0
 26 27  1  0  0  0
  9 13  1  0  0  0
 10 14  1  0  0  0
 11 15  1  0  0  0
 17 18  1  0  0  0
 32 33  1  0  0  0
 32 34  1  0  0  0
M  END
> <minimizedAffinity>
-7.58242

$$$$
4ZWZ_510_A_302


 34 35  0  0  0  0  0  0  0  0999 V2000
   17.9788    5.1842   13.7609 S   0  0  0  0  0  0  0  0  0  0  0  0
   17.4744    6.3676   14.6839 O   0  0  0  0  0  0  0  0  0  0  0  0
   19.4361    4.6528   14.2024 O   0  0  0  0  0  0  0  0  0  0  0  0
   18.2227    5.9028   12.0911 C   0  0  0  0  0  0  0  0  0  0  0  0
   19.1482    5.0277   11.4130 C   0  0  0  0  0  0  0  0  0  0  0  0
   19.0417    5.0522    9.9555 C   0  0  0  0  0  0  0  0  0  0  0  0
   17.8120    5.5395    9.2735 C   0  0  0  0  0  0  0  0  0  0  0  0
   16.5630    5.7650   10.1515 C   0  0  0  0  0  0  0  0  0  0  0  0
   20.4790    5.4223   11.8519 O   0  0  0  0  0  0  0  0  0  0  0  0
   20.2481    5.6040    9.3233 O   0  0  0  0  0  0  0  0  0  0  0  0
   18.0928    6.6488    8.4408 O   0  0  0  0  0  0  0  0  0  0  0  0
   16.9149    5.6850   11.6080 O   0  0  0  0  0  0  0  0  0  0  0  0
   20.6422    6.3447   11.6004 H   0  0  0  0  0  0  0  0  0  0  0  0
   20.2993    6.5563    9.5006 H   0  0  0  0  0  0  0  0  0  0  0  0
   18.3623    7.4034    8.9875 H   0  0  0  0  0  0  0  0  0  0  0  0
   15.8818    6.9702    9.9586 C   0  0  0  0  0  0  0  0  0  0  0  0
   14.8121    6.9703   10.8253 O   0  0  0  0  0  0  0  0  0  0  0  0
   14.2452    6.2055   10.6392 H   0  0  0  0  0  0  0  0  0  0  0  0
   17.0197    4.1647   13.7126 N   0  0  0  0  0  0  0  0  0  0  0  0
   16.1586    4.1820   14.5724 C   0  0  0  0  0  0  0  0  0  0  0  0
   15.9568    2.6623   15.1583 C   0  0  0  0  0  0  0  0  0  0  0  0
   16.9081    2.0989   14.8606 C   0  0  0  0  0  0  0  0  0  0  0  0
   17.4144    2.7528   13.5635 C   0  0  0  0  0  0  0  0  0  0  0  0
   16.7494    1.9123   12.4459 C   0  0  0  0  0  0  0  0  0  0  0  0
   16.9603    0.7776   12.4082 O   0  0  0  0  0  0  0  0  0  0  0  0
   15.8898    2.4973   11.5232 O   0  0  0  0  0  0  0  0  0  0  0  0
   15.6019    1.8103   10.3131 C   0  0  0  0  0  0  0  0  0  0  0  0
   15.9637    2.7503   16.6847 O   0  0  0  0  0  0  0  0  0  0  0  0
   15.0070    1.7826   17.5502 S   0  0  0  0  0  0  0  0  0  0  0  0
   15.7491    0.4113   17.6673 O   0  0  0  0  0  0  0  0  0  0  0  0
   13.6745    1.6824   16.7566 O   0  0  0  0  0  0  0  0  0  0  0  0
   14.9055    2.4426   19.0613 N   0  0  0  0  0  0  0  0  0  0  0  0
   15.8318    2.4592   19.4879 H   0  0  0  0  0  0  0  0  0  0  0  0
   14.2765    1.8816   19.6358 H   0  0  0  0  0  0  0  0  0  0  0  0
  4  5  1  0  0  0
  4 12  1  0  0  0
  4  1  1  0  0  0
  5  6  1  0  0  0
  5  9  1  0  0  0
  6  7  1  0  0  0
  6 10  1  0  0  0
  7  8  1  0  0  0
  7 11  1  0  0  0
  8 16  1  0  0  0
  8 12  1  0  0  0
 16 17  1  0  0  0
  1  2  2  0  0  0
  1  3  2  0  0  0
  1 19  1  0  0  0
 19 20  1  0  0  0
 19 23  1  0  0  0
 20 21  1  0  0  0
 21 28  1  0  0  0
 21 22  1  0  0  0
 28 29  1  0  0  0
 29 30  2  0  0  0
 29 31  2  0  0  0
 29 32  1  0  0  0
 22 23  1  0  0  0
 23 24  1  0  0  0
 24 25  2  0  0  0
 24 26  1  0  0  0
 26 27  1  0  0  0
  9 13  1  0  0  0
 10 14  1  0  0  0
 11 15  1  0  0  0
 17 18  1  0  0  0
 32 33  1  0  0  0
 32 34  1  0  0  0
M  END
> <minimizedAffinity>
-7.33202

$$$$
4ZWZ_510_A_302


 34 35  0  0  0  0  0  0  0  0999 V2000
   17.4847    4.0824   12.3770 S   0  0  0  0  0  0  0  0  0  0  0  0
   18.0597    2.6098   12.4647 O   0  0  0  0  0  0  0  0  0  0  0  0
   16.2958    4.2033   11.2940 O   0  0  0  0  0  0  0  0  0  0  0  0
   18.8394    5.1243   11.7111 C   0  0  0  0  0  0  0  0  0  0  0  0
   20.0674    4.4577   12.0713 C   0  0  0  0  0  0  0  0  0  0  0  0
   21.1951    4.7566   11.1907 C   0  0  0  0  0  0  0  0  0  0  0  0
   20.9889    5.2870    9.8156 C   0  0  0  0  0  0  0  0  0  0  0  0
   19.5498    5.2583    9.2589 C   0  0  0  0  0  0  0  0  0  0  0  0
   20.3536    4.8442   13.4454 O   0  0  0  0  0  0  0  0  0  0  0  0
   22.2575    5.4961   11.8864 O   0  0  0  0  0  0  0  0  0  0  0  0
   21.6031    6.5520    9.6564 O   0  0  0  0  0  0  0  0  0  0  0  0
   18.5671    4.9209   10.3415 O   0  0  0  0  0  0  0  0  0  0  0  0
   20.4661    5.8064   13.4939 H   0  0  0  0  0  0  0  0  0  0  0  0
   21.9532    6.3975   12.0759 H   0  0  0  0  0  0  0  0  0  0  0  0
   21.1546    7.2023   10.2192 H   0  0  0  0  0  0  0  0  0  0  0  0
   19.1008    6.4320    8.6470 C   0  0  0  0  0  0  0  0  0  0  0  0
   19.7230    6.5095    7.4213 O   0  0  0  0  0  0  0  0  0  0  0  0
   20.6848    6.5174    7.5469 H   0  0  0  0  0  0  0  0  0  0  0  0
   17.1097    4.5328   13.6491 N   0  0  0  0  0  0  0  0  0  0  0  0
   17.0688    3.6992   14.5348 C   0  0  0  0  0  0  0  0  0  0  0  0
   15.6916    3.9080   15.4028 C   0  0  0  0  0  0  0  0  0  0  0  0
   15.0037    4.5254   14.7271 C   0  0  0  0  0  0  0  0  0  0  0  0
   15.9205    5.3823   13.8374 C   0  0  0  0  0  0  0  0  0  0  0  0
   16.0722    6.7025   14.6321 C   0  0  0  0  0  0  0  0  0  0  0  0
   15.1247    7.3220   14.8604 O   0  0  0  0  0  0  0  0  0  0  0  0
   17.3141    7.1242   15.0928 O   0  0  0  0  0  0  0  0  0  0  0  0
   18.1258    7.9333   14.2528 C   0  0  0  0  0  0  0  0  0  0  0  0
   15.0313    2.5380   15.5596 O   0  0  0  0  0  0  0  0  0  0  0  0
   14.9594    1.8416   17.0124 S   0  0  0  0  0  0  0  0  0  0  0  0
   13.5821    1.1048   17.0854 O   0  0  0  0  0  0  0  0  0  0  0  0
   15.0813    2.9976   18.0440 O   0  0  0  0  0  0  0  0  0  0  0  0
   16.1546    0.7018   17.0527 N   0  0  0  0  0  0  0  0  0  0  0  0
   15.9754   -0.0041   16.3385 H   0  0  0  0  0  0  0  0  0  0  0  0
   16.1715    0.2593   17.9715 H   0  0  0  0  0  0  0  0  0  0  0  0
  4  5  1  0  0  0
  4 12  1  0  0  0
  4  1  1  0  0  0
  5  6  1  0  0  0
  5  9  1  0  0  0
  6  7  1  0  0  0
  6 10  1  0  0  0
  7  8  1  0  0  0
  7 11  1  0  0  0
  8 16  1  0  0  0
  8 12  1  0  0  0
 16 17  1  0  0  0
  1  2  2  0  0  0
  1  3  2  0  0  0
  1 19  1  0  0  0
 19 20  1  0  0  0
 19 23  1  0  0  0
 20 21  1  0  0  0
 21 28  1  0  0  0
 21 22  1  0  0  0
 28 29  1  0  0  0
 29 30  2  0  0  0
 29 31  2  0  0  0
 29 32  1  0  0  0
 22 23  1  0  0  0
 23 24  1  0  0  0
 24 25  2  0  0  0
 24 26  1  0  0  0
 26 27  1  0  0  0
  9 13  1  0  0  0
 10 14  1  0  0  0
 11 15  1  0  0  0
 17 18  1  0  0  0
 32 33  1  0  0  0
 32 34  1  0  0  0
M  END
> <minimizedAffinity>
-7.09108

$$$$
4ZWZ_510_A_302


 34 35  0  0  0  0  0  0  0  0999 V2000
   17.7678    3.9310   12.1479 S   0  0  0  0  0  0  0  0  0  0  0  0
   18.5192    2.5390   12.2162 O   0  0  0  0  0  0  0  0  0  0  0  0
   16.4804    3.8756   11.1780 O   0  0  0  0  0  0  0  0  0  0  0  0
   18.9237    5.0997   11.3341 C   0  0  0  0  0  0  0  0  0  0  0  0
   20.2467    4.5667   11.5520 C   0  0  0  0  0  0  0  0  0  0  0  0
   21.2309    4.9709   10.5498 C   0  0  0  0  0  0  0  0  0  0  0  0
   20.8171    5.4629    9.2076 C   0  0  0  0  0  0  0  0  0  0  0  0
   19.3352    5.2806    8.8174 C   0  0  0  0  0  0  0  0  0  0  0  0
   20.6446    4.9949   12.8854 O   0  0  0  0  0  0  0  0  0  0  0  0
   22.2828    5.8229   11.1215 O   0  0  0  0  0  0  0  0  0  0  0  0
   21.2754    6.7827    8.9815 O   0  0  0  0  0  0  0  0  0  0  0  0
   18.5210    4.8552   10.0040 O   0  0  0  0  0  0  0  0  0  0  0  0
   20.6619    5.9640   12.9220 H   0  0  0  0  0  0  0  0  0  0  0  0
   21.9103    6.6901   11.3456 H   0  0  0  0  0  0  0  0  0  0  0  0
   20.8284    7.3892    9.5924 H   0  0  0  0  0  0  0  0  0  0  0  0
   18.7010    6.3954    8.2620 C   0  0  0  0  0  0  0  0  0  0  0  0
   19.1774    6.5300    6.9773 O   0  0  0  0  0  0  0  0  0  0  0  0
   20.1407    6.6410    6.9996 H   0  0  0  0  0  0  0  0  0  0  0  0
   17.4577    4.3782   13.4385 N   0  0  0  0  0  0  0  0  0  0  0  0
   17.4915    3.5485   14.3281 C   0  0  0  0  0  0  0  0  0  0  0  0
   16.1636    3.7262   15.2761 C   0  0  0  0  0  0  0  0  0  0  0  0
   15.4206    4.3221   14.6405 C   0  0  0  0  0  0  0  0  0  0  0  0
   16.2601    5.1977   13.6944 C   0  0  0  0  0  0  0  0  0  0  0  0
   16.4245    6.5256   14.4738 C   0  0  0  0  0  0  0  0  0  0  0  0
   17.4897    6.9376   14.6447 O   0  0  0  0  0  0  0  0  0  0  0  0
   15.3176    7.2299   14.9331 O   0  0  0  0  0  0  0  0  0  0  0  0
   14.4963    7.9153   13.9977 C   0  0  0  0  0  0  0  0  0  0  0  0
   15.5497    2.3404   15.4772 O   0  0  0  0  0  0  0  0  0  0  0  0
   16.4900    1.0967   15.8894 S   0  0  0  0  0  0  0  0  0  0  0  0
   17.8333    1.7066   16.4077 O   0  0  0  0  0  0  0  0  0  0  0  0
   16.6689    0.2527   14.5968 O   0  0  0  0  0  0  0  0  0  0  0  0
   15.7474    0.3390   17.1558 N   0  0  0  0  0  0  0  0  0  0  0  0
   15.6832    0.9810   17.9458 H   0  0  0  0  0  0  0  0  0  0  0  0
   16.2902   -0.4808   17.4271 H   0  0  0  0  0  0  0  0  0  0  0  0
  4  5  1  0  0  0
  4 12  1  0  0  0
  4  1  1  0  0  0
  5  6  1  0  0  0
  5  9  1  0  0  0
  6  7  1  0  0  0
  6 10  1  0  0  0
  7  8  1  0  0  0
  7 11  1  0  0  0
  8 16  1  0  0  0
  8 12  1  0  0  0
 16 17  1  0  0  0
  1  2  2  0  0  0
  1  3  2  0  0  0
  1 19  1  0  0  0
 19 20  1  0  0  0
 19 23  1  0  0  0
 20 21  1  0  0  0
 21 28  1  0  0  0
 21 22  1  0  0  0
 28 29  1  0  0  0
 29 30  2  0  0  0
 29 31  2  0  0  0
 29 32  1  0  0  0
 22 23  1  0  0  0
 23 24  1  0  0  0
 24 25  2  0  0  0
 24 26  1  0  0  0
 26 27  1  0  0  0
  9 13  1  0  0  0
 10 14  1  0  0  0
 11 15  1  0  0  0
 17 18  1  0  0  0
 32 33  1  0  0  0
 32 34  1  0  0  0
M  END
> <minimizedAffinity>
-7.01808

$$$$
4ZWZ_510_A_302


 34 35  0  0  0  0  0  0  0  0999 V2000
   15.4029    6.3083   13.8006 S   0  0  0  0  0  0  0  0  0  0  0  0
   13.8927    6.5183   13.3742 O   0  0  0  0  0  0  0  0  0  0  0  0
   15.6772    6.7968   15.3129 O   0  0  0  0  0  0  0  0  0  0  0  0
   16.3954    7.4383   12.7507 C   0  0  0  0  0  0  0  0  0  0  0  0
   15.5672    7.7526   11.6117 C   0  0  0  0  0  0  0  0  0  0  0  0
   15.8820    9.0289   10.9727 C   0  0  0  0  0  0  0  0  0  0  0  0
   16.6266   10.0969   11.6935 C   0  0  0  0  0  0  0  0  0  0  0  0
   16.8197    9.9164   13.2140 C   0  0  0  0  0  0  0  0  0  0  0  0
   15.7175    6.6443   10.6797 O   0  0  0  0  0  0  0  0  0  0  0  0
   16.4045    8.8502    9.6109 O   0  0  0  0  0  0  0  0  0  0  0  0
   17.8357   10.4158   11.0309 O   0  0  0  0  0  0  0  0  0  0  0  0
   16.4233    8.5333   13.6402 O   0  0  0  0  0  0  0  0  0  0  0  0
   16.6466    6.5718   10.4106 H   0  0  0  0  0  0  0  0  0  0  0  0
   17.2932    8.4639    9.6537 H   0  0  0  0  0  0  0  0  0  0  0  0
   18.4364    9.6552   11.0704 H   0  0  0  0  0  0  0  0  0  0  0  0
   18.1087   10.1442   13.7042 C   0  0  0  0  0  0  0  0  0  0  0  0
   18.2744   11.5089   13.7798 O   0  0  0  0  0  0  0  0  0  0  0  0
   18.1526   11.8985   12.8999 H   0  0  0  0  0  0  0  0  0  0  0  0
   15.7886    4.9801   13.5796 N   0  0  0  0  0  0  0  0  0  0  0  0
   15.2167    4.1279   14.2336 C   0  0  0  0  0  0  0  0  0  0  0  0
   16.3243    3.0627   14.8099 C   0  0  0  0  0  0  0  0  0  0  0  0
   17.3281    3.6093   14.7410 C   0  0  0  0  0  0  0  0  0  0  0  0
   17.2099    4.5914   13.5630 C   0  0  0  0  0  0  0  0  0  0  0  0
   17.7416    3.7808   12.3555 C   0  0  0  0  0  0  0  0  0  0  0  0
   17.0227    3.5592   11.4793 O   0  0  0  0  0  0  0  0  0  0  0  0
   19.0632    3.3530   12.3043 O   0  0  0  0  0  0  0  0  0  0  0  0
   20.0783    4.2823   11.9507 C   0  0  0  0  0  0  0  0  0  0  0  0
   16.0409    2.8606   16.2987 O   0  0  0  0  0  0  0  0  0  0  0  0
   15.3784    1.4826   16.8112 S   0  0  0  0  0  0  0  0  0  0  0  0
   16.0658    0.3316   16.0063 O   0  0  0  0  0  0  0  0  0  0  0  0
   13.8583    1.6048   16.5115 O   0  0  0  0  0  0  0  0  0  0  0  0
   15.7952    1.3176   18.4013 N   0  0  0  0  0  0  0  0  0  0  0  0
   16.8096    1.2465   18.4812 H   0  0  0  0  0  0  0  0  0  0  0  0
   15.3643    0.4741   18.7799 H   0  0  0  0  0  0  0  0  0  0  0  0
  4  5  1  0  0  0
  4 12  1  0  0  0
  4  1  1  0  0  0
  5  6  1  0  0  0
  5  9  1  0  0  0
  6  7  1  0  0  0
  6 10  1  0  0  0
  7  8  1  0  0  0
  7 11  1  0  0  0
  8 16  1  0  0  0
  8 12  1  0  0  0
 16 17  1  0  0  0
  1  2  2  0  0  0
  1  3  2  0  0  0
  1 19  1  0  0  0
 19 20  1  0  0  0
 19 23  1  0  0  0
 20 21  1  0  0  0
 21 28  1  0  0  0
 21 22  1  0  0  0
 28 29  1  0  0  0
 29 30  2  0  0  0
 29 31  2  0  0  0
 29 32  1  0  0  0
 22 23  1  0  0  0
 23 24  1  0  0  0
 24 25  2  0  0  0
 24 26  1  0  0  0
 26 27  1  0  0  0
  9 13  1  0  0  0
 10 14  1  0  0  0
 11 15  1  0  0  0
 17 18  1  0  0  0
 32 33  1  0  0  0
 32 34  1  0  0  0
M  END
> <minimizedAffinity>
-6.88698

$$$$
4ZWZ_510_A_302


 34 35  0  0  0  0  0  0  0  0999 V2000
   16.1095    6.4219   13.9455 S   0  0  0  0  0  0  0  0  0  0  0  0
   14.7050    6.9958   14.3981 O   0  0  0  0  0  0  0  0  0  0  0  0
   17.2824    6.8072   14.9833 O   0  0  0  0  0  0  0  0  0  0  0  0
   16.5455    7.2953   12.3927 C   0  0  0  0  0  0  0  0  0  0  0  0
   17.9087    6.9255   12.0979 C   0  0  0  0  0  0  0  0  0  0  0  0
   18.2621    7.0090   10.6821 C   0  0  0  0  0  0  0  0  0  0  0  0
   17.2211    6.9994    9.6186 C   0  0  0  0  0  0  0  0  0  0  0  0
   15.7839    6.6317   10.0442 C   0  0  0  0  0  0  0  0  0  0  0  0
   18.7513    7.7964   12.9047 O   0  0  0  0  0  0  0  0  0  0  0  0
   19.2679    8.0491   10.4248 O   0  0  0  0  0  0  0  0  0  0  0  0
   17.2676    8.1834    8.8448 O   0  0  0  0  0  0  0  0  0  0  0  0
   15.6640    6.5979   11.5396 O   0  0  0  0  0  0  0  0  0  0  0  0
   18.5922    8.7205   12.6568 H   0  0  0  0  0  0  0  0  0  0  0  0
   18.8667    8.9239   10.5462 H   0  0  0  0  0  0  0  0  0  0  0  0
   17.0193    8.9409    9.3975 H   0  0  0  0  0  0  0  0  0  0  0  0
   14.7668    7.4642    9.5688 C   0  0  0  0  0  0  0  0  0  0  0  0
   14.9420    8.6930   10.1645 O   0  0  0  0  0  0  0  0  0  0  0  0
   14.9013    8.5937   11.1285 H   0  0  0  0  0  0  0  0  0  0  0  0
   16.0183    5.0434   13.7150 N   0  0  0  0  0  0  0  0  0  0  0  0
   15.2214    4.4260   14.3969 C   0  0  0  0  0  0  0  0  0  0  0  0
   15.9309    3.0458   14.9312 C   0  0  0  0  0  0  0  0  0  0  0  0
   17.0560    3.2251   14.8172 C   0  0  0  0  0  0  0  0  0  0  0  0
   17.2251    4.2012   13.6403 C   0  0  0  0  0  0  0  0  0  0  0  0
   17.4038    3.2707   12.4156 C   0  0  0  0  0  0  0  0  0  0  0  0
   18.2937    2.5349   12.4059 O   0  0  0  0  0  0  0  0  0  0  0  0
   16.4987    3.2911   11.3608 O   0  0  0  0  0  0  0  0  0  0  0  0
   15.9505    2.0655   10.8953 C   0  0  0  0  0  0  0  0  0  0  0  0
   15.6582    2.9363   16.4316 O   0  0  0  0  0  0  0  0  0  0  0  0
   15.2575    1.5125   17.0742 S   0  0  0  0  0  0  0  0  0  0  0  0
   13.7191    1.3412   16.8529 O   0  0  0  0  0  0  0  0  0  0  0  0
   15.6455    1.6002   18.5765 O   0  0  0  0  0  0  0  0  0  0  0  0
   16.0360    0.3556   16.1883 N   0  0  0  0  0  0  0  0  0  0  0  0
   15.7066    0.3872   15.2235 H   0  0  0  0  0  0  0  0  0  0  0  0
   15.8411   -0.5641   16.5841 H   0  0  0  0  0  0  0  0  0  0  0  0
  4  5  1  0  0  0
  4 12  1  0  0  0
  4  1  1  0  0  0
  5  6  1  0  0  0
  5  9  1  0  0  0
  6  7  1  0  0  0
  6 10  1  0  0  0
  7  8  1  0  0  0
  7 11  1  0  0  0
  8 16  1  0  0  0
  8 12  1  0  0  0
 16 17  1  0  0  0
  1  2  2  0  0  0
  1  3  2  0  0  0
  1 19  1  0  0  0
 19 20  1  0  0  0
 19 23  1  0  0  0
 20 21  1  0  0  0
 21 28  1  0  0  0
 21 22  1  0  0  0
 28 29  1  0  0  0
 29 30  2  0  0  0
 29 31  2  0  0  0
 29 32  1  0  0  0
 22 23  1  0  0  0
 23 24  1  0  0  0
 24 25  2  0  0  0
 24 26  1  0  0  0
 26 27  1  0  0  0
  9 13  1  0  0  0
 10 14  1  0  0  0
 11 15  1  0  0  0
 17 18  1  0  0  0
 32 33  1  0  0  0
 32 34  1  0  0  0
M  END
> <minimizedAffinity>
-6.88262

$$$$
4ZWZ_510_A_302


 34 35  0  0  0  0  0  0  0  0999 V2000
   18.7168    5.6659   11.9194 S   0  0  0  0  0  0  0  0  0  0  0  0
   18.8211    5.3524   10.3710 O   0  0  0  0  0  0  0  0  0  0  0  0
   20.1042    6.2317   12.5161 O   0  0  0  0  0  0  0  0  0  0  0  0
   18.4654    4.0524   12.7547 C   0  0  0  0  0  0  0  0  0  0  0  0
   18.1948    4.3590   14.1385 C   0  0  0  0  0  0  0  0  0  0  0  0
   17.4160    3.3400   14.8395 C   0  0  0  0  0  0  0  0  0  0  0  0
   16.5867    2.3496   14.1004 C   0  0  0  0  0  0  0  0  0  0  0  0
   16.3671    2.6008   12.5936 C   0  0  0  0  0  0  0  0  0  0  0  0
   19.4896    4.5626   14.7720 O   0  0  0  0  0  0  0  0  0  0  0  0
   18.1917    2.6875   15.9034 O   0  0  0  0  0  0  0  0  0  0  0  0
   17.0072    1.0256   14.3702 O   0  0  0  0  0  0  0  0  0  0  0  0
   17.2679    3.6946   12.0996 O   0  0  0  0  0  0  0  0  0  0  0  0
   20.0143    3.7496   14.7038 H   0  0  0  0  0  0  0  0  0  0  0  0
   18.8768    2.1271   15.5067 H   0  0  0  0  0  0  0  0  0  0  0  0
   17.8973    0.8891   14.0097 H   0  0  0  0  0  0  0  0  0  0  0  0
   16.5541    1.5018   11.7505 C   0  0  0  0  0  0  0  0  0  0  0  0
   16.3888    1.9526   10.4601 O   0  0  0  0  0  0  0  0  0  0  0  0
   15.5016    2.3320   10.3614 H   0  0  0  0  0  0  0  0  0  0  0  0
   17.6308    6.5140   12.1702 N   0  0  0  0  0  0  0  0  0  0  0  0
   16.7680    6.5663   11.3134 C   0  0  0  0  0  0  0  0  0  0  0  0
   16.3568    8.1354   11.0634 C   0  0  0  0  0  0  0  0  0  0  0  0
   17.2281    8.7438   11.4894 C   0  0  0  0  0  0  0  0  0  0  0  0
   17.8351    7.9009   12.6241 C   0  0  0  0  0  0  0  0  0  0  0  0
   17.0790    8.3859   13.8854 C   0  0  0  0  0  0  0  0  0  0  0  0
   16.8139    9.5064   13.9738 O   0  0  0  0  0  0  0  0  0  0  0  0
   16.6952    7.4934   14.8795 O   0  0  0  0  0  0  0  0  0  0  0  0
   15.4202    6.8716   14.7969 C   0  0  0  0  0  0  0  0  0  0  0  0
   16.3544    8.3781    9.5538 O   0  0  0  0  0  0  0  0  0  0  0  0
   14.9688    8.3133    8.7312 S   0  0  0  0  0  0  0  0  0  0  0  0
   13.9287    7.6131    9.6654 O   0  0  0  0  0  0  0  0  0  0  0  0
   15.2752    7.4934    7.4470 O   0  0  0  0  0  0  0  0  0  0  0  0
   14.4811    9.8744    8.4983 N   0  0  0  0  0  0  0  0  0  0  0  0
   14.3087   10.3152    9.4019 H   0  0  0  0  0  0  0  0  0  0  0  0
   13.6234    9.8839    7.9463 H   0  0  0  0  0  0  0  0  0  0  0  0
  4  5  1  0  0  0
  4 12  1  0  0  0
  4  1  1  0  0  0
  5  6  1  0  0  0
  5  9  1  0  0  0
  6  7  1  0  0  0
  6 10  1  0  0  0
  7  8  1  0  0  0
  7 11  1  0  0  0
  8 16  1  0  0  0
  8 12  1  0  0  0
 16 17  1  0  0  0
  1  2  2  0  0  0
  1  3  2  0  0  0
  1 19  1  0  0  0
 19 20  1  0  0  0
 19 23  1  0  0  0
 20 21  1  0  0  0
 21 28  1  0  0  0
 21 22  1  0  0  0
 28 29  1  0  0  0
 29 30  2  0  0  0
 29 31  2  0  0  0
 29 32  1  0  0  0
 22 23  1  0  0  0
 23 24  1  0  0  0
 24 25  2  0  0  0
 24 26  1  0  0  0
 26 27  1  0  0  0
  9 13  1  0  0  0
 10 14  1  0  0  0
 11 15  1  0  0  0
 17 18  1  0  0  0
 32 33  1  0  0  0
 32 34  1  0  0  0
M  END
> <minimizedAffinity>
-6.52584

$$$$
4ZWZ_510_A_302


 34 35  0  0  0  0  0  0  0  0999 V2000
   17.5479    3.8924   12.2300 S   0  0  0  0  0  0  0  0  0  0  0  0
   18.5513    2.6717   12.3280 O   0  0  0  0  0  0  0  0  0  0  0  0
   16.2202    3.5175   11.3946 O   0  0  0  0  0  0  0  0  0  0  0  0
   18.3932    5.1733   11.2256 C   0  0  0  0  0  0  0  0  0  0  0  0
   17.3837    6.1502   10.8959 C   0  0  0  0  0  0  0  0  0  0  0  0
   17.9063    7.4886   10.6278 C   0  0  0  0  0  0  0  0  0  0  0  0
   19.2485    7.9110   11.1124 C   0  0  0  0  0  0  0  0  0  0  0  0
   19.9528    6.9869   12.1281 C   0  0  0  0  0  0  0  0  0  0  0  0
   16.6665    5.6229    9.7439 O   0  0  0  0  0  0  0  0  0  0  0  0
   17.7006    7.8915    9.2297 O   0  0  0  0  0  0  0  0  0  0  0  0
   20.0930    8.2703   10.0351 O   0  0  0  0  0  0  0  0  0  0  0  0
   19.2326    5.6755   12.2427 O   0  0  0  0  0  0  0  0  0  0  0  0
   17.2823    5.5119    9.0028 H   0  0  0  0  0  0  0  0  0  0  0  0
   18.2813    7.3697    8.6540 H   0  0  0  0  0  0  0  0  0  0  0  0
   20.2833    7.4855    9.4977 H   0  0  0  0  0  0  0  0  0  0  0  0
   21.2960    6.6975   11.8720 C   0  0  0  0  0  0  0  0  0  0  0  0
   21.5582    5.4713   12.4406 O   0  0  0  0  0  0  0  0  0  0  0  0
   21.3764    5.5108   13.3925 H   0  0  0  0  0  0  0  0  0  0  0  0
   17.2640    4.3902   13.5079 N   0  0  0  0  0  0  0  0  0  0  0  0
   17.2273    3.5799   14.4153 C   0  0  0  0  0  0  0  0  0  0  0  0
   15.9102    3.8799   15.3475 C   0  0  0  0  0  0  0  0  0  0  0  0
   15.2200    4.5171   14.6928 C   0  0  0  0  0  0  0  0  0  0  0  0
   16.1312    5.3047   13.7359 C   0  0  0  0  0  0  0  0  0  0  0  0
   16.3918    6.6327   14.4883 C   0  0  0  0  0  0  0  0  0  0  0  0
   17.4841    6.9449   14.6958 O   0  0  0  0  0  0  0  0  0  0  0  0
   15.3408    7.4535   14.8805 O   0  0  0  0  0  0  0  0  0  0  0  0
   14.4818    7.9996   13.8891 C   0  0  0  0  0  0  0  0  0  0  0  0
   15.1900    2.5501   15.5725 O   0  0  0  0  0  0  0  0  0  0  0  0
   15.5976    1.6164   16.8226 S   0  0  0  0  0  0  0  0  0  0  0  0
   14.5729    0.4357   16.8493 O   0  0  0  0  0  0  0  0  0  0  0  0
   15.5046    2.5254   18.0798 O   0  0  0  0  0  0  0  0  0  0  0  0
   17.0900    0.9940   16.4841 N   0  0  0  0  0  0  0  0  0  0  0  0
   17.0353    0.4171   15.6446 H   0  0  0  0  0  0  0  0  0  0  0  0
   17.4065    0.4238   17.2684 H   0  0  0  0  0  0  0  0  0  0  0  0
  4  5  1  0  0  0
  4 12  1  0  0  0
  4  1  1  0  0  0
  5  6  1  0  0  0
  5  9  1  0  0  0
  6  7  1  0  0  0
  6 10  1  0  0  0
  7  8  1  0  0  0
  7 11  1  0  0  0
  8 16  1  0  0  0
  8 12  1  0  0  0
 16 17  1  0  0  0
  1  2  2  0  0  0
  1  3  2  0  0  0
  1 19  1  0  0  0
 19 20  1  0  0  0
 19 23  1  0  0  0
 20 21  1  0  0  0
 21 28  1  0  0  0
 21 22  1  0  0  0
 28 29  1  0  0  0
 29 30  2  0  0  0
 29 31  2  0  0  0
 29 32  1  0  0  0
 22 23  1  0  0  0
 23 24  1  0  0  0
 24 25  2  0  0  0
 24 26  1  0  0  0
 26 27  1  0  0  0
  9 13  1  0  0  0
 10 14  1  0  0  0
 11 15  1  0  0  0
 17 18  1  0  0  0
 32 33  1  0  0  0
 32 34  1  0  0  0
M  END
> <minimizedAffinity>
-6.43953

$$$$
