2OYM_MNI_A_600


 27 28  0  0  0  0  0  0  0  0999 V2000
   24.5882   59.7931  -30.4476 C   0  0  0  0  0  0  0  0  0  0  0  0
   24.9698   59.6214  -28.9935 C   0  0  0  0  0  0  0  0  0  0  0  0
   24.3449   58.4719  -28.3611 N   0  0  0  0  0  0  0  0  0  0  0  0
   25.3074   57.7663  -27.5468 C   0  0  0  0  0  0  0  0  0  0  0  0
   26.4694   58.7352  -27.4265 C   0  0  0  0  0  0  0  0  0  0  0  0
   27.7190   58.0950  -27.1590 O   0  0  0  0  0  0  0  0  0  0  0  0
   26.4475   59.4143  -28.7795 C   0  0  0  0  0  0  0  0  0  0  0  0
   27.2075   60.6279  -28.7874 O   0  0  0  0  0  0  0  0  0  0  0  0
   23.9878   57.8438  -29.0811 H   0  0  0  0  0  0  0  0  0  0  0  0
   27.9104   57.4535  -27.8609 H   0  0  0  0  0  0  0  0  0  0  0  0
   26.8709   61.2246  -28.1006 H   0  0  0  0  0  0  0  0  0  0  0  0
   24.7269   57.3012  -26.2229 C   0  0  0  0  0  0  0  0  0  0  0  0
   23.8676   56.1893  -26.4832 O   0  0  0  0  0  0  0  0  0  0  0  0
   23.1621   56.4612  -27.0908 H   0  0  0  0  0  0  0  0  0  0  0  0
   22.7914   58.0445  -31.6339 O   0  0  0  0  0  0  0  0  0  0  0  0
   23.9768   57.8729  -31.8809 C   0  0  0  0  0  0  0  0  0  0  0  0
   24.8905   58.7269  -31.3976 N   0  0  0  0  0  0  0  0  0  0  0  0
   25.8216   58.6290  -31.7020 H   0  0  0  0  0  0  0  0  0  0  0  0
   24.3414   56.7361  -32.7910 C   0  0  0  0  0  0  0  0  0  0  0  0
   25.6659   56.3926  -33.0648 C   0  0  0  0  0  0  0  0  0  0  0  0
   25.9568   55.3301  -33.9095 C   0  0  0  0  0  0  0  0  0  0  0  0
   24.9277   54.5738  -34.4789 C   0  0  0  0  0  0  0  0  0  0  0  0
   23.6121   54.9149  -34.1877 C   0  0  0  0  0  0  0  0  0  0  0  0
   23.3226   55.9860  -33.3571 C   0  0  0  0  0  0  0  0  0  0  0  0
   25.1933   53.5157  -35.3023 N   0  0  0  0  0  0  0  0  0  0  0  0
   24.4879   52.2523  -35.1435 C   0  0  0  0  0  0  0  0  0  0  0  0
   26.1755   53.6334  -36.3631 C   0  0  0  0  0  0  0  0  0  0  0  0
 15 16  2  0  0  0
 16 17  1  0  0  0
 16 19  1  0  0  0
 19 20  2  0  0  0
 19 24  1  0  0  0
 20 21  1  0  0  0
 21 22  2  0  0  0
 22 23  1  0  0  0
 22 25  1  0  0  0
 25 26  1  0  0  0
 25 27  1  0  0  0
 23 24  2  0  0  0
 17  1  1  0  0  0
  1  2  1  0  0  0
  2  3  1  0  0  0
  2  7  1  0  0  0
  3  4  1  0  0  0
  4 12  1  0  0  0
  4  5  1  0  0  0
 12 13  1  0  0  0
  5  6  1  0  0  0
  5  7  1  0  0  0
  7  8  1  0  0  0
 17 18  1  0  0  0
  3  9  1  0  0  0
 13 14  1  0  0  0
  6 10  1  0  0  0
  8 11  1  0  0  0
M  END
> <minimizedAffinity>
-8.68423

$$$$
2OYM_MNI_A_600


 27 28  0  0  0  0  0  0  0  0999 V2000
   24.1243   57.7066  -31.4313 C   0  0  0  0  0  0  0  0  0  0  0  0
   25.0606   58.3188  -30.4124 C   0  0  0  0  0  0  0  0  0  0  0  0
   25.0114   59.7708  -30.3775 N   0  0  0  0  0  0  0  0  0  0  0  0
   25.0050   60.2366  -29.0099 C   0  0  0  0  0  0  0  0  0  0  0  0
   25.4075   59.0160  -28.2027 C   0  0  0  0  0  0  0  0  0  0  0  0
   24.9517   59.0534  -26.8485 O   0  0  0  0  0  0  0  0  0  0  0  0
   24.7679   57.8959  -28.9955 C   0  0  0  0  0  0  0  0  0  0  0  0
   25.3075   56.6146  -28.6525 O   0  0  0  0  0  0  0  0  0  0  0  0
   24.1639   60.0906  -30.8464 H   0  0  0  0  0  0  0  0  0  0  0  0
   23.9857   59.1401  -26.8348 H   0  0  0  0  0  0  0  0  0  0  0  0
   26.2682   56.6220  -28.7864 H   0  0  0  0  0  0  0  0  0  0  0  0
   25.8855   61.4561  -28.8015 C   0  0  0  0  0  0  0  0  0  0  0  0
   26.8927   61.1162  -27.8463 O   0  0  0  0  0  0  0  0  0  0  0  0
   26.4721   60.8501  -27.0137 H   0  0  0  0  0  0  0  0  0  0  0  0
   22.7158   56.0606  -33.1633 O   0  0  0  0  0  0  0  0  0  0  0  0
   23.9355   56.0438  -33.2520 C   0  0  0  0  0  0  0  0  0  0  0  0
   24.6719   56.8690  -32.4941 N   0  0  0  0  0  0  0  0  0  0  0  0
   25.6405   56.9127  -32.6646 H   0  0  0  0  0  0  0  0  0  0  0  0
   24.5470   55.1352  -34.2786 C   0  0  0  0  0  0  0  0  0  0  0  0
   24.2047   53.7864  -34.3822 C   0  0  0  0  0  0  0  0  0  0  0  0
   24.7926   52.9839  -35.3504 C   0  0  0  0  0  0  0  0  0  0  0  0
   25.7178   53.5206  -36.2510 C   0  0  0  0  0  0  0  0  0  0  0  0
   26.0405   54.8687  -36.1488 C   0  0  0  0  0  0  0  0  0  0  0  0
   25.4651   55.6654  -35.1715 C   0  0  0  0  0  0  0  0  0  0  0  0
   26.2977   52.7505  -37.2199 N   0  0  0  0  0  0  0  0  0  0  0  0
   25.8009   51.4121  -37.5048 C   0  0  0  0  0  0  0  0  0  0  0  0
   27.4137   53.2561  -37.9962 C   0  0  0  0  0  0  0  0  0  0  0  0
 15 16  2  0  0  0
 16 17  1  0  0  0
 16 19  1  0  0  0
 19 20  2  0  0  0
 19 24  1  0  0  0
 20 21  1  0  0  0
 21 22  2  0  0  0
 22 23  1  0  0  0
 22 25  1  0  0  0
 25 26  1  0  0  0
 25 27  1  0  0  0
 23 24  2  0  0  0
 17  1  1  0  0  0
  1  2  1  0  0  0
  2  3  1  0  0  0
  2  7  1  0  0  0
  3  4  1  0  0  0
  4 12  1  0  0  0
  4  5  1  0  0  0
 12 13  1  0  0  0
  5  6  1  0  0  0
  5  7  1  0  0  0
  7  8  1  0  0  0
 17 18  1  0  0  0
  3  9  1  0  0  0
 13 14  1  0  0  0
  6 10  1  0  0  0
  8 11  1  0  0  0
M  END
> <minimizedAffinity>
-7.82312

$$$$
2OYM_MNI_A_600


 27 28  0  0  0  0  0  0  0  0999 V2000
   23.3110   58.6859  -33.9600 C   0  0  0  0  0  0  0  0  0  0  0  0
   23.5844   57.3749  -34.6643 C   0  0  0  0  0  0  0  0  0  0  0  0
   24.9064   56.8352  -34.3938 N   0  0  0  0  0  0  0  0  0  0  0  0
   24.8246   55.4130  -34.1531 C   0  0  0  0  0  0  0  0  0  0  0  0
   23.4351   55.0369  -34.6341 C   0  0  0  0  0  0  0  0  0  0  0  0
   22.9202   53.8543  -34.0182 O   0  0  0  0  0  0  0  0  0  0  0  0
   22.6369   56.2708  -34.2700 C   0  0  0  0  0  0  0  0  0  0  0  0
   21.3779   56.3203  -34.9505 O   0  0  0  0  0  0  0  0  0  0  0  0
   25.2959   57.2945  -33.5706 H   0  0  0  0  0  0  0  0  0  0  0  0
   22.9030   53.9724  -33.0556 H   0  0  0  0  0  0  0  0  0  0  0  0
   21.5263   56.2803  -35.9082 H   0  0  0  0  0  0  0  0  0  0  0  0
   25.9558   54.6411  -34.8090 C   0  0  0  0  0  0  0  0  0  0  0  0
   25.3807   53.7083  -35.7265 O   0  0  0  0  0  0  0  0  0  0  0  0
   24.7876   53.1080  -35.2482 H   0  0  0  0  0  0  0  0  0  0  0  0
   23.1050   58.3248  -31.2177 O   0  0  0  0  0  0  0  0  0  0  0  0
   24.0410   59.0023  -31.6185 C   0  0  0  0  0  0  0  0  0  0  0  0
   24.2391   59.1552  -32.9357 N   0  0  0  0  0  0  0  0  0  0  0  0
   25.0603   59.6118  -33.2299 H   0  0  0  0  0  0  0  0  0  0  0  0
   24.9770   59.5735  -30.5933 C   0  0  0  0  0  0  0  0  0  0  0  0
   24.6750   59.5888  -29.2311 C   0  0  0  0  0  0  0  0  0  0  0  0
   25.5730   60.1234  -28.3175 C   0  0  0  0  0  0  0  0  0  0  0  0
   26.8030   60.6323  -28.7459 C   0  0  0  0  0  0  0  0  0  0  0  0
   27.1003   60.5986  -30.1032 C   0  0  0  0  0  0  0  0  0  0  0  0
   26.1962   60.0793  -31.0164 C   0  0  0  0  0  0  0  0  0  0  0  0
   27.7064   61.1507  -27.8609 N   0  0  0  0  0  0  0  0  0  0  0  0
   27.9269   62.5872  -27.7764 C   0  0  0  0  0  0  0  0  0  0  0  0
   28.4561   60.2804  -26.9753 C   0  0  0  0  0  0  0  0  0  0  0  0
 15 16  2  0  0  0
 16 17  1  0  0  0
 16 19  1  0  0  0
 19 20  2  0  0  0
 19 24  1  0  0  0
 20 21  1  0  0  0
 21 22  2  0  0  0
 22 23  1  0  0  0
 22 25  1  0  0  0
 25 26  1  0  0  0
 25 27  1  0  0  0
 23 24  2  0  0  0
 17  1  1  0  0  0
  1  2  1  0  0  0
  2  3  1  0  0  0
  2  7  1  0  0  0
  3  4  1  0  0  0
  4 12  1  0  0  0
  4  5  1  0  0  0
 12 13  1  0  0  0
  5  6  1  0  0  0
  5  7  1  0  0  0
  7  8  1  0  0  0
 17 18  1  0  0  0
  3  9  1  0  0  0
 13 14  1  0  0  0
  6 10  1  0  0  0
  8 11  1  0  0  0
M  END
> <minimizedAffinity>
-7.48658

$$$$
2OYM_MNI_A_600


 27 28  0  0  0  0  0  0  0  0999 V2000
   23.5047   58.0105  -32.0565 C   0  0  0  0  0  0  0  0  0  0  0  0
   24.0704   59.2665  -31.4306 C   0  0  0  0  0  0  0  0  0  0  0  0
   24.2431   59.1706  -29.9908 N   0  0  0  0  0  0  0  0  0  0  0  0
   25.5147   59.7360  -29.6024 C   0  0  0  0  0  0  0  0  0  0  0  0
   25.9673   60.5042  -30.8307 C   0  0  0  0  0  0  0  0  0  0  0  0
   27.3840   60.6789  -30.9028 O   0  0  0  0  0  0  0  0  0  0  0  0
   25.4356   59.6364  -31.9517 C   0  0  0  0  0  0  0  0  0  0  0  0
   25.4068   60.3296  -33.2044 O   0  0  0  0  0  0  0  0  0  0  0  0
   24.2112   58.1900  -29.7121 H   0  0  0  0  0  0  0  0  0  0  0  0
   27.8178   59.8114  -30.8918 H   0  0  0  0  0  0  0  0  0  0  0  0
   24.8750   61.1360  -33.1156 H   0  0  0  0  0  0  0  0  0  0  0  0
   25.4254   60.5628  -28.3318 C   0  0  0  0  0  0  0  0  0  0  0  0
   24.4811   59.9356  -27.4616 O   0  0  0  0  0  0  0  0  0  0  0  0
   23.6179   59.8881  -27.9016 H   0  0  0  0  0  0  0  0  0  0  0  0
   23.5167   58.2718  -34.8178 O   0  0  0  0  0  0  0  0  0  0  0  0
   24.2193   57.3913  -34.3415 C   0  0  0  0  0  0  0  0  0  0  0  0
   24.3145   57.2591  -33.0107 N   0  0  0  0  0  0  0  0  0  0  0  0
   24.9702   56.6163  -32.6555 H   0  0  0  0  0  0  0  0  0  0  0  0
   25.0094   56.5396  -35.2923 C   0  0  0  0  0  0  0  0  0  0  0  0
   25.4150   56.9978  -36.5464 C   0  0  0  0  0  0  0  0  0  0  0  0
   26.1486   56.1767  -37.3917 C   0  0  0  0  0  0  0  0  0  0  0  0
   26.5123   54.8878  -36.9896 C   0  0  0  0  0  0  0  0  0  0  0  0
   26.1162   54.4467  -35.7325 C   0  0  0  0  0  0  0  0  0  0  0  0
   25.3699   55.2613  -34.8957 C   0  0  0  0  0  0  0  0  0  0  0  0
   27.2458   54.0688  -37.8017 N   0  0  0  0  0  0  0  0  0  0  0  0
   28.3156   54.6050  -38.6305 C   0  0  0  0  0  0  0  0  0  0  0  0
   26.9828   52.6431  -37.8449 C   0  0  0  0  0  0  0  0  0  0  0  0
 15 16  2  0  0  0
 16 17  1  0  0  0
 16 19  1  0  0  0
 19 20  2  0  0  0
 19 24  1  0  0  0
 20 21  1  0  0  0
 21 22  2  0  0  0
 22 23  1  0  0  0
 22 25  1  0  0  0
 25 26  1  0  0  0
 25 27  1  0  0  0
 23 24  2  0  0  0
 17  1  1  0  0  0
  1  2  1  0  0  0
  2  3  1  0  0  0
  2  7  1  0  0  0
  3  4  1  0  0  0
  4 12  1  0  0  0
  4  5  1  0  0  0
 12 13  1  0  0  0
  5  6  1  0  0  0
  5  7  1  0  0  0
  7  8  1  0  0  0
 17 18  1  0  0  0
  3  9  1  0  0  0
 13 14  1  0  0  0
  6 10  1  0  0  0
  8 11  1  0  0  0
M  END
> <minimizedAffinity>
-7.30162

$$$$
2OYM_MNI_A_600


 27 28  0  0  0  0  0  0  0  0999 V2000
   23.9495   58.7860  -30.2252 C   0  0  0  0  0  0  0  0  0  0  0  0
   24.2037   58.4661  -31.6821 C   0  0  0  0  0  0  0  0  0  0  0  0
   23.4055   57.3590  -32.1812 N   0  0  0  0  0  0  0  0  0  0  0  0
   22.8803   57.6732  -33.4899 C   0  0  0  0  0  0  0  0  0  0  0  0
   23.6807   58.8864  -33.9270 C   0  0  0  0  0  0  0  0  0  0  0  0
   23.0059   59.6960  -34.8924 O   0  0  0  0  0  0  0  0  0  0  0  0
   23.8895   59.6092  -32.6131 C   0  0  0  0  0  0  0  0  0  0  0  0
   24.9301   60.5895  -32.6951 O   0  0  0  0  0  0  0  0  0  0  0  0
   22.6313   57.1858  -31.5401 H   0  0  0  0  0  0  0  0  0  0  0  0
   22.1551   59.9892  -34.5304 H   0  0  0  0  0  0  0  0  0  0  0  0
   25.7524   60.1646  -32.9851 H   0  0  0  0  0  0  0  0  0  0  0  0
   22.9398   56.4938  -34.4446 C   0  0  0  0  0  0  0  0  0  0  0  0
   21.6036   56.1787  -34.8419 O   0  0  0  0  0  0  0  0  0  0  0  0
   21.0763   55.9594  -34.0579 H   0  0  0  0  0  0  0  0  0  0  0  0
   25.0824   61.2704  -29.7379 O   0  0  0  0  0  0  0  0  0  0  0  0
   25.6190   60.3044  -29.2139 C   0  0  0  0  0  0  0  0  0  0  0  0
   25.0792   59.0847  -29.3504 N   0  0  0  0  0  0  0  0  0  0  0  0
   25.4682   58.3458  -28.8289 H   0  0  0  0  0  0  0  0  0  0  0  0
   26.8341   60.5555  -28.3690 C   0  0  0  0  0  0  0  0  0  0  0  0
   27.4452   61.8076  -28.2913 C   0  0  0  0  0  0  0  0  0  0  0  0
   28.5652   61.9953  -27.4930 C   0  0  0  0  0  0  0  0  0  0  0  0
   29.0828   60.9392  -26.7368 C   0  0  0  0  0  0  0  0  0  0  0  0
   28.4577   59.6999  -26.8097 C   0  0  0  0  0  0  0  0  0  0  0  0
   27.3492   59.5094  -27.6196 C   0  0  0  0  0  0  0  0  0  0  0  0
   30.1766   61.1069  -25.9344 N   0  0  0  0  0  0  0  0  0  0  0  0
   30.5623   62.4306  -25.4672 C   0  0  0  0  0  0  0  0  0  0  0  0
   30.9699   59.9660  -25.5187 C   0  0  0  0  0  0  0  0  0  0  0  0
 15 16  2  0  0  0
 16 17  1  0  0  0
 16 19  1  0  0  0
 19 20  2  0  0  0
 19 24  1  0  0  0
 20 21  1  0  0  0
 21 22  2  0  0  0
 22 23  1  0  0  0
 22 25  1  0  0  0
 25 26  1  0  0  0
 25 27  1  0  0  0
 23 24  2  0  0  0
 17  1  1  0  0  0
  1  2  1  0  0  0
  2  3  1  0  0  0
  2  7  1  0  0  0
  3  4  1  0  0  0
  4 12  1  0  0  0
  4  5  1  0  0  0
 12 13  1  0  0  0
  5  6  1  0  0  0
  5  7  1  0  0  0
  7  8  1  0  0  0
 17 18  1  0  0  0
  3  9  1  0  0  0
 13 14  1  0  0  0
  6 10  1  0  0  0
  8 11  1  0  0  0
M  END
> <minimizedAffinity>
-7.27700

$$$$
2OYM_MNI_A_600


 27 28  0  0  0  0  0  0  0  0999 V2000
   23.9568   57.8234  -31.8763 C   0  0  0  0  0  0  0  0  0  0  0  0
   24.5719   59.1854  -31.6392 C   0  0  0  0  0  0  0  0  0  0  0  0
   24.8238   59.4725  -30.2370 N   0  0  0  0  0  0  0  0  0  0  0  0
   26.1219   60.0869  -30.0793 C   0  0  0  0  0  0  0  0  0  0  0  0
   26.5143   60.4871  -31.4898 C   0  0  0  0  0  0  0  0  0  0  0  0
   27.9267   60.5984  -31.6778 O   0  0  0  0  0  0  0  0  0  0  0  0
   25.9102   59.3663  -32.3089 C   0  0  0  0  0  0  0  0  0  0  0  0
   25.8196   59.7006  -33.6984 O   0  0  0  0  0  0  0  0  0  0  0  0
   24.7956   58.6029  -29.7046 H   0  0  0  0  0  0  0  0  0  0  0  0
   28.3499   59.7540  -31.4569 H   0  0  0  0  0  0  0  0  0  0  0  0
   25.3035   60.5154  -33.8019 H   0  0  0  0  0  0  0  0  0  0  0  0
   26.1140   61.2247  -29.0738 C   0  0  0  0  0  0  0  0  0  0  0  0
   26.7086   60.7498  -27.8640 O   0  0  0  0  0  0  0  0  0  0  0  0
   26.2019   59.9931  -27.5301 H   0  0  0  0  0  0  0  0  0  0  0  0
   22.7317   55.6359  -33.0625 O   0  0  0  0  0  0  0  0  0  0  0  0
   23.8825   55.8766  -33.3994 C   0  0  0  0  0  0  0  0  0  0  0  0
   24.5065   56.9614  -32.9181 N   0  0  0  0  0  0  0  0  0  0  0  0
   25.3889   57.1903  -33.2899 H   0  0  0  0  0  0  0  0  0  0  0  0
   24.5172   54.9668  -34.4106 C   0  0  0  0  0  0  0  0  0  0  0  0
   24.1771   53.6179  -34.5205 C   0  0  0  0  0  0  0  0  0  0  0  0
   24.7869   52.8142  -35.4741 C   0  0  0  0  0  0  0  0  0  0  0  0
   25.7327   53.3497  -36.3538 C   0  0  0  0  0  0  0  0  0  0  0  0
   26.0533   54.6979  -36.2457 C   0  0  0  0  0  0  0  0  0  0  0  0
   25.4558   55.4957  -35.2828 C   0  0  0  0  0  0  0  0  0  0  0  0
   26.3346   52.5784  -37.3083 N   0  0  0  0  0  0  0  0  0  0  0  0
   25.8771   51.2208  -37.5669 C   0  0  0  0  0  0  0  0  0  0  0  0
   27.4351   53.1014  -38.0951 C   0  0  0  0  0  0  0  0  0  0  0  0
 15 16  2  0  0  0
 16 17  1  0  0  0
 16 19  1  0  0  0
 19 20  2  0  0  0
 19 24  1  0  0  0
 20 21  1  0  0  0
 21 22  2  0  0  0
 22 23  1  0  0  0
 22 25  1  0  0  0
 25 26  1  0  0  0
 25 27  1  0  0  0
 23 24  2  0  0  0
 17  1  1  0  0  0
  1  2  1  0  0  0
  2  3  1  0  0  0
  2  7  1  0  0  0
  3  4  1  0  0  0
  4 12  1  0  0  0
  4  5  1  0  0  0
 12 13  1  0  0  0
  5  6  1  0  0  0
  5  7  1  0  0  0
  7  8  1  0  0  0
 17 18  1  0  0  0
  3  9  1  0  0  0
 13 14  1  0  0  0
  6 10  1  0  0  0
  8 11  1  0  0  0
M  END
> <minimizedAffinity>
-7.23364

$$$$
2OYM_MNI_A_600


 27 28  0  0  0  0  0  0  0  0999 V2000
   24.1522   59.5559  -31.4854 C   0  0  0  0  0  0  0  0  0  0  0  0
   24.2759   58.5148  -32.5763 C   0  0  0  0  0  0  0  0  0  0  0  0
   24.3563   57.1537  -32.0733 N   0  0  0  0  0  0  0  0  0  0  0  0
   23.5234   56.2791  -32.8663 C   0  0  0  0  0  0  0  0  0  0  0  0
   23.1975   57.0996  -34.1008 C   0  0  0  0  0  0  0  0  0  0  0  0
   21.9886   56.6975  -34.7487 O   0  0  0  0  0  0  0  0  0  0  0  0
   23.1069   58.4981  -33.5279 C   0  0  0  0  0  0  0  0  0  0  0  0
   23.1761   59.5041  -34.5446 O   0  0  0  0  0  0  0  0  0  0  0  0
   24.0395   57.1333  -31.1040 H   0  0  0  0  0  0  0  0  0  0  0  0
   21.2505   56.7577  -34.1221 H   0  0  0  0  0  0  0  0  0  0  0  0
   23.9959   59.3955  -35.0516 H   0  0  0  0  0  0  0  0  0  0  0  0
   24.1807   54.9394  -33.1478 C   0  0  0  0  0  0  0  0  0  0  0  0
   23.7484   54.0158  -32.1466 O   0  0  0  0  0  0  0  0  0  0  0  0
   24.0030   54.3457  -31.2707 H   0  0  0  0  0  0  0  0  0  0  0  0
   24.2743   59.5353  -28.7145 O   0  0  0  0  0  0  0  0  0  0  0  0
   25.2796   59.8953  -29.3107 C   0  0  0  0  0  0  0  0  0  0  0  0
   25.3106   59.8591  -30.6507 N   0  0  0  0  0  0  0  0  0  0  0  0
   26.1666   60.0485  -31.0987 H   0  0  0  0  0  0  0  0  0  0  0  0
   26.4714   60.2942  -28.4898 C   0  0  0  0  0  0  0  0  0  0  0  0
   27.1714   59.3843  -27.6965 C   0  0  0  0  0  0  0  0  0  0  0  0
   28.2713   59.7968  -26.9569 C   0  0  0  0  0  0  0  0  0  0  0  0
   28.7082   61.1238  -27.0146 C   0  0  0  0  0  0  0  0  0  0  0  0
   28.0130   62.0186  -27.8194 C   0  0  0  0  0  0  0  0  0  0  0  0
   26.9052   61.6095  -28.5449 C   0  0  0  0  0  0  0  0  0  0  0  0
   29.7969   61.5466  -26.3044 N   0  0  0  0  0  0  0  0  0  0  0  0
   30.8251   60.6051  -25.8855 C   0  0  0  0  0  0  0  0  0  0  0  0
   29.9587   62.9473  -25.9644 C   0  0  0  0  0  0  0  0  0  0  0  0
 15 16  2  0  0  0
 16 17  1  0  0  0
 16 19  1  0  0  0
 19 20  2  0  0  0
 19 24  1  0  0  0
 20 21  1  0  0  0
 21 22  2  0  0  0
 22 23  1  0  0  0
 22 25  1  0  0  0
 25 26  1  0  0  0
 25 27  1  0  0  0
 23 24  2  0  0  0
 17  1  1  0  0  0
  1  2  1  0  0  0
  2  3  1  0  0  0
  2  7  1  0  0  0
  3  4  1  0  0  0
  4 12  1  0  0  0
  4  5  1  0  0  0
 12 13  1  0  0  0
  5  6  1  0  0  0
  5  7  1  0  0  0
  7  8  1  0  0  0
 17 18  1  0  0  0
  3  9  1  0  0  0
 13 14  1  0  0  0
  6 10  1  0  0  0
  8 11  1  0  0  0
M  END
> <minimizedAffinity>
-7.22350

$$$$
2OYM_MNI_A_600


 27 28  0  0  0  0  0  0  0  0999 V2000
   24.1238   55.9453  -32.5428 C   0  0  0  0  0  0  0  0  0  0  0  0
   23.8571   57.4006  -32.2259 C   0  0  0  0  0  0  0  0  0  0  0  0
   24.3513   57.8109  -30.9223 N   0  0  0  0  0  0  0  0  0  0  0  0
   24.9979   59.0994  -31.0172 C   0  0  0  0  0  0  0  0  0  0  0  0
   24.5708   59.6273  -32.3745 C   0  0  0  0  0  0  0  0  0  0  0  0
   25.4790   60.5841  -32.9247 O   0  0  0  0  0  0  0  0  0  0  0  0
   24.5058   58.3562  -33.1945 C   0  0  0  0  0  0  0  0  0  0  0  0
   23.7698   58.5343  -34.4099 O   0  0  0  0  0  0  0  0  0  0  0  0
   25.0222   57.1212  -30.5839 H   0  0  0  0  0  0  0  0  0  0  0  0
   26.3606   60.1867  -33.0004 H   0  0  0  0  0  0  0  0  0  0  0  0
   22.8773   58.8532  -34.2036 H   0  0  0  0  0  0  0  0  0  0  0  0
   24.6669   60.0094  -29.8475 C   0  0  0  0  0  0  0  0  0  0  0  0
   24.0135   59.2244  -28.8478 O   0  0  0  0  0  0  0  0  0  0  0  0
   23.2063   58.8350  -29.2189 H   0  0  0  0  0  0  0  0  0  0  0  0
   24.1075   53.4559  -33.7659 O   0  0  0  0  0  0  0  0  0  0  0  0
   24.7289   54.3460  -34.3293 C   0  0  0  0  0  0  0  0  0  0  0  0
   24.7163   55.5897  -33.8286 N   0  0  0  0  0  0  0  0  0  0  0  0
   25.1319   56.3065  -34.3603 H   0  0  0  0  0  0  0  0  0  0  0  0
   25.4227   54.0046  -35.6160 C   0  0  0  0  0  0  0  0  0  0  0  0
   26.2138   54.9241  -36.3058 C   0  0  0  0  0  0  0  0  0  0  0  0
   26.8407   54.5632  -37.4906 C   0  0  0  0  0  0  0  0  0  0  0  0
   26.7084   53.2667  -37.9973 C   0  0  0  0  0  0  0  0  0  0  0  0
   25.9304   52.3542  -37.2945 C   0  0  0  0  0  0  0  0  0  0  0  0
   25.2917   52.7202  -36.1202 C   0  0  0  0  0  0  0  0  0  0  0  0
   27.3284   52.8878  -39.1550 N   0  0  0  0  0  0  0  0  0  0  0  0
   28.7794   52.9189  -39.2680 C   0  0  0  0  0  0  0  0  0  0  0  0
   26.5534   52.4324  -40.2933 C   0  0  0  0  0  0  0  0  0  0  0  0
 15 16  2  0  0  0
 16 17  1  0  0  0
 16 19  1  0  0  0
 19 20  2  0  0  0
 19 24  1  0  0  0
 20 21  1  0  0  0
 21 22  2  0  0  0
 22 23  1  0  0  0
 22 25  1  0  0  0
 25 26  1  0  0  0
 25 27  1  0  0  0
 23 24  2  0  0  0
 17  1  1  0  0  0
  1  2  1  0  0  0
  2  3  1  0  0  0
  2  7  1  0  0  0
  3  4  1  0  0  0
  4 12  1  0  0  0
  4  5  1  0  0  0
 12 13  1  0  0  0
  5  6  1  0  0  0
  5  7  1  0  0  0
  7  8  1  0  0  0
 17 18  1  0  0  0
  3  9  1  0  0  0
 13 14  1  0  0  0
  6 10  1  0  0  0
  8 11  1  0  0  0
M  END
> <minimizedAffinity>
-7.15445

$$$$
2OYM_MNI_A_600


 27 28  0  0  0  0  0  0  0  0999 V2000
   23.1061   59.0199  -33.1385 C   0  0  0  0  0  0  0  0  0  0  0  0
   23.3926   57.8354  -34.0353 C   0  0  0  0  0  0  0  0  0  0  0  0
   24.4491   58.0815  -35.0024 N   0  0  0  0  0  0  0  0  0  0  0  0
   25.3317   56.9401  -35.0779 C   0  0  0  0  0  0  0  0  0  0  0  0
   24.5689   55.8366  -34.3680 C   0  0  0  0  0  0  0  0  0  0  0  0
   25.4127   54.8134  -33.8351 O   0  0  0  0  0  0  0  0  0  0  0  0
   23.8442   56.6081  -33.2855 C   0  0  0  0  0  0  0  0  0  0  0  0
   22.7702   55.8546  -32.7118 O   0  0  0  0  0  0  0  0  0  0  0  0
   24.9832   58.9021  -34.7165 H   0  0  0  0  0  0  0  0  0  0  0  0
   26.0495   55.2078  -33.2188 H   0  0  0  0  0  0  0  0  0  0  0  0
   22.1535   55.5868  -33.4109 H   0  0  0  0  0  0  0  0  0  0  0  0
   25.7468   56.6128  -36.5014 C   0  0  0  0  0  0  0  0  0  0  0  0
   26.1732   55.2491  -36.5351 O   0  0  0  0  0  0  0  0  0  0  0  0
   26.9168   55.1277  -35.9242 H   0  0  0  0  0  0  0  0  0  0  0  0
   23.4197   58.5535  -30.4224 O   0  0  0  0  0  0  0  0  0  0  0  0
   24.2139   59.3207  -30.9481 C   0  0  0  0  0  0  0  0  0  0  0  0
   24.1621   59.5328  -32.2710 N   0  0  0  0  0  0  0  0  0  0  0  0
   24.8798   60.0668  -32.6822 H   0  0  0  0  0  0  0  0  0  0  0  0
   25.2698   59.9358  -30.0763 C   0  0  0  0  0  0  0  0  0  0  0  0
   25.8978   61.1396  -30.3985 C   0  0  0  0  0  0  0  0  0  0  0  0
   26.8663   61.6742  -29.5600 C   0  0  0  0  0  0  0  0  0  0  0  0
   27.2094   61.0271  -28.3689 C   0  0  0  0  0  0  0  0  0  0  0  0
   26.5671   59.8364  -28.0499 C   0  0  0  0  0  0  0  0  0  0  0  0
   25.6119   59.2951  -28.8957 C   0  0  0  0  0  0  0  0  0  0  0  0
   28.1506   61.5439  -27.5232 N   0  0  0  0  0  0  0  0  0  0  0  0
   28.3445   62.9825  -27.4136 C   0  0  0  0  0  0  0  0  0  0  0  0
   28.9686   60.6692  -26.7049 C   0  0  0  0  0  0  0  0  0  0  0  0
 15 16  2  0  0  0
 16 17  1  0  0  0
 16 19  1  0  0  0
 19 20  2  0  0  0
 19 24  1  0  0  0
 20 21  1  0  0  0
 21 22  2  0  0  0
 22 23  1  0  0  0
 22 25  1  0  0  0
 25 26  1  0  0  0
 25 27  1  0  0  0
 23 24  2  0  0  0
 17  1  1  0  0  0
  1  2  1  0  0  0
  2  3  1  0  0  0
  2  7  1  0  0  0
  3  4  1  0  0  0
  4 12  1  0  0  0
  4  5  1  0  0  0
 12 13  1  0  0  0
  5  6  1  0  0  0
  5  7  1  0  0  0
  7  8  1  0  0  0
 17 18  1  0  0  0
  3  9  1  0  0  0
 13 14  1  0  0  0
  6 10  1  0  0  0
  8 11  1  0  0  0
M  END
> <minimizedAffinity>
-7.13816

$$$$
2OYM_MNI_A_600


 27 28  0  0  0  0  0  0  0  0999 V2000
   25.2085   56.1597  -31.7222 C   0  0  0  0  0  0  0  0  0  0  0  0
   25.1070   57.6677  -31.6510 C   0  0  0  0  0  0  0  0  0  0  0  0
   26.1842   58.3553  -32.3430 N   0  0  0  0  0  0  0  0  0  0  0  0
   25.6592   59.4651  -33.1046 C   0  0  0  0  0  0  0  0  0  0  0  0
   24.2499   59.6448  -32.5707 C   0  0  0  0  0  0  0  0  0  0  0  0
   23.3656   60.2763  -33.4993 O   0  0  0  0  0  0  0  0  0  0  0  0
   23.8476   58.2162  -32.2717 C   0  0  0  0  0  0  0  0  0  0  0  0
   22.7032   58.1453  -31.4138 O   0  0  0  0  0  0  0  0  0  0  0  0
   26.6495   57.7033  -32.9745 H   0  0  0  0  0  0  0  0  0  0  0  0
   23.3323   59.7574  -34.3181 H   0  0  0  0  0  0  0  0  0  0  0  0
   22.8848   58.6278  -30.5921 H   0  0  0  0  0  0  0  0  0  0  0  0
   26.5351   60.7025  -33.0182 C   0  0  0  0  0  0  0  0  0  0  0  0
   27.5583   60.4533  -32.0519 O   0  0  0  0  0  0  0  0  0  0  0  0
   27.1515   60.2600  -31.1928 H   0  0  0  0  0  0  0  0  0  0  0  0
   23.5903   54.3590  -33.0759 O   0  0  0  0  0  0  0  0  0  0  0  0
   24.6811   54.6048  -33.5715 C   0  0  0  0  0  0  0  0  0  0  0  0
   25.4808   55.5205  -33.0059 N   0  0  0  0  0  0  0  0  0  0  0  0
   26.3014   55.7772  -33.4855 H   0  0  0  0  0  0  0  0  0  0  0  0
   25.0376   53.9076  -34.8522 C   0  0  0  0  0  0  0  0  0  0  0  0
   24.6084   52.6121  -35.1429 C   0  0  0  0  0  0  0  0  0  0  0  0
   24.9585   52.0077  -36.3426 C   0  0  0  0  0  0  0  0  0  0  0  0
   25.7257   52.6967  -37.2870 C   0  0  0  0  0  0  0  0  0  0  0  0
   26.1355   53.9921  -36.9939 C   0  0  0  0  0  0  0  0  0  0  0  0
   25.7990   54.5887  -35.7890 C   0  0  0  0  0  0  0  0  0  0  0  0
   26.0697   52.1243  -38.4795 N   0  0  0  0  0  0  0  0  0  0  0  0
   25.2493   51.0748  -39.0666 C   0  0  0  0  0  0  0  0  0  0  0  0
   27.2541   52.5605  -39.1942 C   0  0  0  0  0  0  0  0  0  0  0  0
 15 16  2  0  0  0
 16 17  1  0  0  0
 16 19  1  0  0  0
 19 20  2  0  0  0
 19 24  1  0  0  0
 20 21  1  0  0  0
 21 22  2  0  0  0
 22 23  1  0  0  0
 22 25  1  0  0  0
 25 26  1  0  0  0
 25 27  1  0  0  0
 23 24  2  0  0  0
 17  1  1  0  0  0
  1  2  1  0  0  0
  2  3  1  0  0  0
  2  7  1  0  0  0
  3  4  1  0  0  0
  4 12  1  0  0  0
  4  5  1  0  0  0
 12 13  1  0  0  0
  5  6  1  0  0  0
  5  7  1  0  0  0
  7  8  1  0  0  0
 17 18  1  0  0  0
  3  9  1  0  0  0
 13 14  1  0  0  0
  6 10  1  0  0  0
  8 11  1  0  0  0
M  END
> <minimizedAffinity>
-7.12107

$$$$
