1V1J_FA3_A_201


 17 17  0  0  0  0  0  0  0  0999 V2000
   29.4668   51.6335   57.9777 C   0  0  0  0  0  0  0  0  0  0  0  0
   27.8111   50.2873   61.3896 F   0  0  0  0  0  0  0  0  0  0  0  0
   28.6860   50.3571   57.8468 C   0  0  0  0  0  0  0  0  0  0  0  0
   29.4249   49.4818   56.9994 O   0  0  0  0  0  0  0  0  0  0  0  0
   28.5661   49.7649   59.2291 C   0  0  0  0  0  0  0  0  0  0  0  0
   27.6418   48.6961   59.2197 O   0  0  0  0  0  0  0  0  0  0  0  0
   28.2009   50.7376   60.1880 C   0  0  0  0  0  0  0  0  0  0  0  0
   28.2334   52.1029   59.9866 C   0  0  0  0  0  0  0  0  0  0  0  0
   27.5773   53.0812   57.9517 O   0  0  0  0  0  0  0  0  0  0  0  0
   28.6420   52.6330   58.7663 C   0  0  0  0  0  0  0  0  0  0  0  0
   30.3075   49.3369   57.3750 H   0  0  0  0  0  0  0  0  0  0  0  0
   26.7667   49.0277   58.9643 H   0  0  0  0  0  0  0  0  0  0  0  0
   26.9976   52.3337   57.7370 H   0  0  0  0  0  0  0  0  0  0  0  0
   29.4404   53.8388   59.0213 C   0  0  0  0  0  0  0  0  0  0  0  0
   29.0764   54.7801   59.8835 O   0  0  0  0  0  0  0  0  0  0  0  0
   30.5761   53.9611   58.4233 O   0  0  0  0  0  0  0  0  0  0  0  0
   28.2557   54.7138   60.3307 H   0  0  0  0  0  0  0  0  0  0  0  0
  1  3  1  0  0  0
  1 10  1  0  0  0
  2  7  1  0  0  0
  3  4  1  0  0  0
  3  5  1  0  0  0
  5  6  1  0  0  0
  5  7  1  0  0  0
  7  8  2  0  0  0
  8 10  1  0  0  0
 14 15  1  0  0  0
 14 16  2  0  0  0
 14 10  1  0  0  0
  9 10  1  0  0  0
  4 11  1  0  0  0
  6 12  1  0  0  0
 15 17  1  0  0  0
  9 13  1  0  0  0
M  END
> <minimizedAffinity>
-9.34887

$$$$
1V1J_FA3_A_201


 17 17  0  0  0  0  0  0  0  0999 V2000
   29.4592   51.9172   57.8102 C   0  0  0  0  0  0  0  0  0  0  0  0
   27.2707   53.3181   60.8832 F   0  0  0  0  0  0  0  0  0  0  0  0
   30.0923   53.0375   58.5849 C   0  0  0  0  0  0  0  0  0  0  0  0
   30.6891   53.9295   57.6477 O   0  0  0  0  0  0  0  0  0  0  0  0
   28.9884   53.7368   59.3388 C   0  0  0  0  0  0  0  0  0  0  0  0
   29.5385   54.6426   60.2735 O   0  0  0  0  0  0  0  0  0  0  0  0
   28.1239   52.8180   59.9773 C   0  0  0  0  0  0  0  0  0  0  0  0
   28.0810   51.4613   59.7260 C   0  0  0  0  0  0  0  0  0  0  0  0
   30.0289   50.1977   59.3548 O   0  0  0  0  0  0  0  0  0  0  0  0
   28.9311   50.8840   58.7873 C   0  0  0  0  0  0  0  0  0  0  0  0
   30.0138   54.2462   57.0275 H   0  0  0  0  0  0  0  0  0  0  0  0
   30.0738   54.1555   60.9193 H   0  0  0  0  0  0  0  0  0  0  0  0
   30.5738   50.8212   59.8601 H   0  0  0  0  0  0  0  0  0  0  0  0
   28.1901   49.8480   58.0565 C   0  0  0  0  0  0  0  0  0  0  0  0
   27.8332   48.6914   58.6016 O   0  0  0  0  0  0  0  0  0  0  0  0
   27.8178   50.0967   56.8475 O   0  0  0  0  0  0  0  0  0  0  0  0
   28.0916   48.4874   59.4788 H   0  0  0  0  0  0  0  0  0  0  0  0
  1  3  1  0  0  0
  1 10  1  0  0  0
  2  7  1  0  0  0
  3  4  1  0  0  0
  3  5  1  0  0  0
  5  6  1  0  0  0
  5  7  1  0  0  0
  7  8  2  0  0  0
  8 10  1  0  0  0
 14 15  1  0  0  0
 14 16  2  0  0  0
 14 10  1  0  0  0
  9 10  1  0  0  0
  4 11  1  0  0  0
  6 12  1  0  0  0
 15 17  1  0  0  0
  9 13  1  0  0  0
M  END
> <minimizedAffinity>
-8.00980

$$$$
1V1J_FA3_A_201


 17 17  0  0  0  0  0  0  0  0999 V2000
   28.6947   51.5838   59.8915 C   0  0  0  0  0  0  0  0  0  0  0  0
   27.7074   50.6904   56.0938 F   0  0  0  0  0  0  0  0  0  0  0  0
   28.5441   50.1181   59.6002 C   0  0  0  0  0  0  0  0  0  0  0  0
   27.8464   49.5281   60.6935 O   0  0  0  0  0  0  0  0  0  0  0  0
   27.7291   49.9968   58.3364 C   0  0  0  0  0  0  0  0  0  0  0  0
   27.7534   48.6630   57.8705 O   0  0  0  0  0  0  0  0  0  0  0  0
   28.1771   50.8881   57.3344 C   0  0  0  0  0  0  0  0  0  0  0  0
   29.0385   51.9469   57.5405 C   0  0  0  0  0  0  0  0  0  0  0  0
   30.8865   51.7905   58.9859 O   0  0  0  0  0  0  0  0  0  0  0  0
   29.5493   52.2129   58.8075 C   0  0  0  0  0  0  0  0  0  0  0  0
   26.9909   49.9708   60.8078 H   0  0  0  0  0  0  0  0  0  0  0  0
   28.6658   48.4113   57.6580 H   0  0  0  0  0  0  0  0  0  0  0  0
   30.9394   50.8284   58.8736 H   0  0  0  0  0  0  0  0  0  0  0  0
   29.5966   53.6680   58.9994 C   0  0  0  0  0  0  0  0  0  0  0  0
   28.5349   54.4524   58.8591 O   0  0  0  0  0  0  0  0  0  0  0  0
   30.7072   54.2016   59.3789 O   0  0  0  0  0  0  0  0  0  0  0  0
   27.7164   54.0882   58.5845 H   0  0  0  0  0  0  0  0  0  0  0  0
  1  3  1  0  0  0
  1 10  1  0  0  0
  2  7  1  0  0  0
  3  4  1  0  0  0
  3  5  1  0  0  0
  5  6  1  0  0  0
  5  7  1  0  0  0
  7  8  2  0  0  0
  8 10  1  0  0  0
 14 15  1  0  0  0
 14 16  2  0  0  0
 14 10  1  0  0  0
  9 10  1  0  0  0
  4 11  1  0  0  0
  6 12  1  0  0  0
 15 17  1  0  0  0
  9 13  1  0  0  0
M  END
> <minimizedAffinity>
-7.63830

$$$$
1V1J_FA3_A_201


 17 17  0  0  0  0  0  0  0  0999 V2000
   28.2908   52.2394   58.9763 C   0  0  0  0  0  0  0  0  0  0  0  0
   27.5407   49.3658   61.6921 F   0  0  0  0  0  0  0  0  0  0  0  0
   28.5247   52.6368   60.4057 C   0  0  0  0  0  0  0  0  0  0  0  0
   28.0131   53.9554   60.5784 O   0  0  0  0  0  0  0  0  0  0  0  0
   27.7596   51.6645   61.2690 C   0  0  0  0  0  0  0  0  0  0  0  0
   28.1267   51.8270   62.6239 O   0  0  0  0  0  0  0  0  0  0  0  0
   27.9523   50.3272   60.8524 C   0  0  0  0  0  0  0  0  0  0  0  0
   28.5100   49.9424   59.6497 C   0  0  0  0  0  0  0  0  0  0  0  0
   30.3461   51.0689   58.7072 O   0  0  0  0  0  0  0  0  0  0  0  0
   28.9438   50.8925   58.7298 C   0  0  0  0  0  0  0  0  0  0  0  0
   27.0728   53.9710   60.3409 H   0  0  0  0  0  0  0  0  0  0  0  0
   29.0714   51.6336   62.7283 H   0  0  0  0  0  0  0  0  0  0  0  0
   30.6467   51.3812   59.5749 H   0  0  0  0  0  0  0  0  0  0  0  0
   28.6121   50.4239   57.3782 C   0  0  0  0  0  0  0  0  0  0  0  0
   27.6852   50.9964   56.6197 O   0  0  0  0  0  0  0  0  0  0  0  0
   29.2929   49.4477   56.8823 O   0  0  0  0  0  0  0  0  0  0  0  0
   27.1772   51.7076   56.9574 H   0  0  0  0  0  0  0  0  0  0  0  0
  1  3  1  0  0  0
  1 10  1  0  0  0
  2  7  1  0  0  0
  3  4  1  0  0  0
  3  5  1  0  0  0
  5  6  1  0  0  0
  5  7  1  0  0  0
  7  8  2  0  0  0
  8 10  1  0  0  0
 14 15  1  0  0  0
 14 16  2  0  0  0
 14 10  1  0  0  0
  9 10  1  0  0  0
  4 11  1  0  0  0
  6 12  1  0  0  0
 15 17  1  0  0  0
  9 13  1  0  0  0
M  END
> <minimizedAffinity>
-7.51423

$$$$
1V1J_FA3_A_201


 17 17  0  0  0  0  0  0  0  0999 V2000
   28.2156   51.3861   59.3126 C   0  0  0  0  0  0  0  0  0  0  0  0
   30.8835   54.0051   57.8231 F   0  0  0  0  0  0  0  0  0  0  0  0
   27.8759   52.8333   59.5271 C   0  0  0  0  0  0  0  0  0  0  0  0
   27.3830   52.9704   60.8569 O   0  0  0  0  0  0  0  0  0  0  0  0
   29.1528   53.6195   59.3615 C   0  0  0  0  0  0  0  0  0  0  0  0
   28.8667   55.0024   59.3088 O   0  0  0  0  0  0  0  0  0  0  0  0
   29.8770   53.2115   58.2178 C   0  0  0  0  0  0  0  0  0  0  0  0
   29.6387   52.0591   57.4961 C   0  0  0  0  0  0  0  0  0  0  0  0
   27.4612   51.2882   57.0569 O   0  0  0  0  0  0  0  0  0  0  0  0
   28.6178   51.1874   57.8634 C   0  0  0  0  0  0  0  0  0  0  0  0
   28.0513   52.6521   61.4838 H   0  0  0  0  0  0  0  0  0  0  0  0
   28.3050   55.1872   58.5398 H   0  0  0  0  0  0  0  0  0  0  0  0
   27.0901   52.1811   57.1339 H   0  0  0  0  0  0  0  0  0  0  0  0
   29.0829   49.8087   57.6655 C   0  0  0  0  0  0  0  0  0  0  0  0
   30.3547   49.4970   57.4482 O   0  0  0  0  0  0  0  0  0  0  0  0
   28.2254   48.8510   57.7653 O   0  0  0  0  0  0  0  0  0  0  0  0
   30.9968   50.1751   57.3718 H   0  0  0  0  0  0  0  0  0  0  0  0
  1  3  1  0  0  0
  1 10  1  0  0  0
  2  7  1  0  0  0
  3  4  1  0  0  0
  3  5  1  0  0  0
  5  6  1  0  0  0
  5  7  1  0  0  0
  7  8  2  0  0  0
  8 10  1  0  0  0
 14 15  1  0  0  0
 14 16  2  0  0  0
 14 10  1  0  0  0
  9 10  1  0  0  0
  4 11  1  0  0  0
  6 12  1  0  0  0
 15 17  1  0  0  0
  9 13  1  0  0  0
M  END
> <minimizedAffinity>
-7.11283

$$$$
1V1J_FA3_A_201


 17 17  0  0  0  0  0  0  0  0999 V2000
   29.8629   52.2327   58.6094 C   0  0  0  0  0  0  0  0  0  0  0  0
   27.3339   49.5105   60.1551 F   0  0  0  0  0  0  0  0  0  0  0  0
   29.6158   51.0294   57.7452 C   0  0  0  0  0  0  0  0  0  0  0  0
   30.8657   50.6310   57.1890 O   0  0  0  0  0  0  0  0  0  0  0  0
   29.0743   49.9422   58.6400 C   0  0  0  0  0  0  0  0  0  0  0  0
   28.5927   48.8673   57.8593 O   0  0  0  0  0  0  0  0  0  0  0  0
   28.0664   50.4268   59.5052 C   0  0  0  0  0  0  0  0  0  0  0  0
   27.7962   51.7597   59.7420 C   0  0  0  0  0  0  0  0  0  0  0  0
   27.8533   53.3691   58.0287 O   0  0  0  0  0  0  0  0  0  0  0  0
   28.5304   52.7583   59.1089 C   0  0  0  0  0  0  0  0  0  0  0  0
   31.4943   50.4477   57.9046 H   0  0  0  0  0  0  0  0  0  0  0  0
   27.8648   49.1764   57.2975 H   0  0  0  0  0  0  0  0  0  0  0  0
   27.6648   52.7044   57.3479 H   0  0  0  0  0  0  0  0  0  0  0  0
   28.7579   53.8511   60.0630 C   0  0  0  0  0  0  0  0  0  0  0  0
   28.2890   53.8384   61.3048 O   0  0  0  0  0  0  0  0  0  0  0  0
   29.4966   54.8423   59.6967 O   0  0  0  0  0  0  0  0  0  0  0  0
   27.7500   53.1289   61.5948 H   0  0  0  0  0  0  0  0  0  0  0  0
  1  3  1  0  0  0
  1 10  1  0  0  0
  2  7  1  0  0  0
  3  4  1  0  0  0
  3  5  1  0  0  0
  5  6  1  0  0  0
  5  7  1  0  0  0
  7  8  2  0  0  0
  8 10  1  0  0  0
 14 15  1  0  0  0
 14 16  2  0  0  0
 14 10  1  0  0  0
  9 10  1  0  0  0
  4 11  1  0  0  0
  6 12  1  0  0  0
 15 17  1  0  0  0
  9 13  1  0  0  0
M  END
> <minimizedAffinity>
-6.66793

$$$$
1V1J_FA3_A_201


 17 17  0  0  0  0  0  0  0  0999 V2000
   29.0608   50.4334   59.5526 C   0  0  0  0  0  0  0  0  0  0  0  0
   28.6464   54.3125   58.5646 F   0  0  0  0  0  0  0  0  0  0  0  0
   28.0467   51.1919   60.3602 C   0  0  0  0  0  0  0  0  0  0  0  0
   28.1936   50.7973   61.7215 O   0  0  0  0  0  0  0  0  0  0  0  0
   28.3625   52.6591   60.2067 C   0  0  0  0  0  0  0  0  0  0  0  0
   27.3106   53.4391   60.7376 O   0  0  0  0  0  0  0  0  0  0  0  0
   28.6143   53.0044   58.8589 C   0  0  0  0  0  0  0  0  0  0  0  0
   28.8456   52.1043   57.8382 C   0  0  0  0  0  0  0  0  0  0  0  0
   27.6571   50.0831   57.6621 O   0  0  0  0  0  0  0  0  0  0  0  0
   28.8395   50.7341   58.0823 C   0  0  0  0  0  0  0  0  0  0  0  0
   29.1021   50.9725   62.0127 H   0  0  0  0  0  0  0  0  0  0  0  0
   26.4947   53.2601   60.2445 H   0  0  0  0  0  0  0  0  0  0  0  0
   26.8992   50.4440   58.1481 H   0  0  0  0  0  0  0  0  0  0  0  0
   29.9037   50.1099   57.2859 C   0  0  0  0  0  0  0  0  0  0  0  0
   29.7362   48.9782   56.6127 O   0  0  0  0  0  0  0  0  0  0  0  0
   31.0356   50.7195   57.1884 O   0  0  0  0  0  0  0  0  0  0  0  0
   28.9226   48.5166   56.6673 H   0  0  0  0  0  0  0  0  0  0  0  0
  1  3  1  0  0  0
  1 10  1  0  0  0
  2  7  1  0  0  0
  3  4  1  0  0  0
  3  5  1  0  0  0
  5  6  1  0  0  0
  5  7  1  0  0  0
  7  8  2  0  0  0
  8 10  1  0  0  0
 14 15  1  0  0  0
 14 16  2  0  0  0
 14 10  1  0  0  0
  9 10  1  0  0  0
  4 11  1  0  0  0
  6 12  1  0  0  0
 15 17  1  0  0  0
  9 13  1  0  0  0
M  END
> <minimizedAffinity>
-6.50501

$$$$
1V1J_FA3_A_201


 17 17  0  0  0  0  0  0  0  0999 V2000
   28.4479   52.2369   61.6009 C   0  0  0  0  0  0  0  0  0  0  0  0
   28.3016   49.9560   58.2886 F   0  0  0  0  0  0  0  0  0  0  0  0
   27.8924   52.9174   60.3826 C   0  0  0  0  0  0  0  0  0  0  0  0
   28.4326   54.2351   60.3378 O   0  0  0  0  0  0  0  0  0  0  0  0
   28.3508   52.1259   59.1828 C   0  0  0  0  0  0  0  0  0  0  0  0
   27.6694   52.5636   58.0247 O   0  0  0  0  0  0  0  0  0  0  0  0
   28.1782   50.7355   59.3729 C   0  0  0  0  0  0  0  0  0  0  0  0
   27.9133   50.1261   60.5828 C   0  0  0  0  0  0  0  0  0  0  0  0
   26.4504   51.0703   62.1630 O   0  0  0  0  0  0  0  0  0  0  0  0
   27.7876   50.8789   61.7467 C   0  0  0  0  0  0  0  0  0  0  0  0
   29.4013   54.1871   60.3235 H   0  0  0  0  0  0  0  0  0  0  0  0
   26.7176   52.4107   58.1325 H   0  0  0  0  0  0  0  0  0  0  0  0
   25.9647   51.5557   61.4778 H   0  0  0  0  0  0  0  0  0  0  0  0
   28.4133   50.1428   62.8526 C   0  0  0  0  0  0  0  0  0  0  0  0
   28.9189   48.9229   62.7169 O   0  0  0  0  0  0  0  0  0  0  0  0
   28.5296   50.7311   63.9939 O   0  0  0  0  0  0  0  0  0  0  0  0
   28.8471   48.4745   61.8973 H   0  0  0  0  0  0  0  0  0  0  0  0
  1  3  1  0  0  0
  1 10  1  0  0  0
  2  7  1  0  0  0
  3  4  1  0  0  0
  3  5  1  0  0  0
  5  6  1  0  0  0
  5  7  1  0  0  0
  7  8  2  0  0  0
  8 10  1  0  0  0
 14 15  1  0  0  0
 14 16  2  0  0  0
 14 10  1  0  0  0
  9 10  1  0  0  0
  4 11  1  0  0  0
  6 12  1  0  0  0
 15 17  1  0  0  0
  9 13  1  0  0  0
M  END
> <minimizedAffinity>
-6.49689

$$$$
