1TPW_PGH_A_250


 14 13  0  0  0  0  0  0  0  0999 V2000
   25.3735   30.7537   18.4987 C   0  0  0  0  0  0  0  0  0  0  0  0
   23.9677   30.1480   18.4756 C   0  0  0  0  0  0  0  0  0  0  0  0
   23.3659   30.3113   17.3143 N   0  0  0  0  0  0  0  0  0  0  0  0
   22.0973   29.8137   17.1202 O   0  0  0  0  0  0  0  0  0  0  0  0
   23.5124   29.5077   19.4154 O   0  0  0  0  0  0  0  0  0  0  0  0
   23.8238   30.7893   16.5856 H   0  0  0  0  0  0  0  0  0  0  0  0
   21.7946   29.3749   17.9306 H   0  0  0  0  0  0  0  0  0  0  0  0
   25.3721   32.1764   18.5983 O   0  0  0  0  0  0  0  0  0  0  0  0
   24.3483   32.6514   20.8239 O   0  0  0  0  0  0  0  0  0  0  0  0
   25.9532   34.2690   19.8266 O   0  0  0  0  0  0  0  0  0  0  0  0
   26.7677   32.0201   20.7173 O   0  0  0  0  0  0  0  0  0  0  0  0
   25.6654   32.7842   20.0534 P   0  0  0  0  0  0  0  0  0  0  0  0
   25.1904   34.6839   19.3942 H   0  0  0  0  0  0  0  0  0  0  0  0
   26.5016   31.0931   20.8211 H   0  0  0  0  0  0  0  0  0  0  0  0
  2  1  1  0  0  0
  2  3  1  0  0  0
  2  5  2  0  0  0
  1  8  1  0  0  0
  3  4  1  0  0  0
  8 12  1  0  0  0
  9 12  2  0  0  0
 10 12  1  0  0  0
 11 12  1  0  0  0
  3  6  1  0  0  0
  4  7  1  0  0  0
 10 13  1  0  0  0
 11 14  1  0  0  0
M  END
> <minimizedAffinity>
-6.32884

$$$$
1TPW_PGH_A_250


 14 13  0  0  0  0  0  0  0  0999 V2000
   25.6892   31.8947   20.0287 C   0  0  0  0  0  0  0  0  0  0  0  0
   26.1929   33.1929   19.3925 C   0  0  0  0  0  0  0  0  0  0  0  0
   26.8384   32.9846   18.2622 N   0  0  0  0  0  0  0  0  0  0  0  0
   27.3469   34.0494   17.5535 O   0  0  0  0  0  0  0  0  0  0  0  0
   25.9318   34.2963   19.8558 O   0  0  0  0  0  0  0  0  0  0  0  0
   26.9568   32.0673   17.9248 H   0  0  0  0  0  0  0  0  0  0  0  0
   27.1443   34.8750   18.0206 H   0  0  0  0  0  0  0  0  0  0  0  0
   24.3331   31.5970   19.7026 O   0  0  0  0  0  0  0  0  0  0  0  0
   25.5062   29.9721   18.2157 O   0  0  0  0  0  0  0  0  0  0  0  0
   23.5060   31.1941   17.3833 O   0  0  0  0  0  0  0  0  0  0  0  0
   23.2631   29.3603   19.1419 O   0  0  0  0  0  0  0  0  0  0  0  0
   24.1050   30.4666   18.5878 P   0  0  0  0  0  0  0  0  0  0  0  0
   24.1143   31.8909   17.0911 H   0  0  0  0  0  0  0  0  0  0  0  0
   23.7166   28.9567   19.8984 H   0  0  0  0  0  0  0  0  0  0  0  0
  2  1  1  0  0  0
  2  3  1  0  0  0
  2  5  2  0  0  0
  1  8  1  0  0  0
  3  4  1  0  0  0
  8 12  1  0  0  0
  9 12  2  0  0  0
 10 12  1  0  0  0
 11 12  1  0  0  0
  3  6  1  0  0  0
  4  7  1  0  0  0
 10 13  1  0  0  0
 11 14  1  0  0  0
M  END
> <minimizedAffinity>
-6.22446

$$$$
1TPW_PGH_A_250


 14 13  0  0  0  0  0  0  0  0999 V2000
   25.8207   31.7290   19.7027 C   0  0  0  0  0  0  0  0  0  0  0  0
   26.4797   32.7188   18.7384 C   0  0  0  0  0  0  0  0  0  0  0  0
   26.4610   33.9560   19.1930 N   0  0  0  0  0  0  0  0  0  0  0  0
   27.0249   34.9700   18.4526 O   0  0  0  0  0  0  0  0  0  0  0  0
   27.0365   32.3606   17.7078 O   0  0  0  0  0  0  0  0  0  0  0  0
   26.0436   34.1547   20.0622 H   0  0  0  0  0  0  0  0  0  0  0  0
   27.3889   34.6062   17.6304 H   0  0  0  0  0  0  0  0  0  0  0  0
   24.4192   31.5794   19.4853 O   0  0  0  0  0  0  0  0  0  0  0  0
   23.0464   31.1770   17.4407 O   0  0  0  0  0  0  0  0  0  0  0  0
   23.1744   29.4344   19.2111 O   0  0  0  0  0  0  0  0  0  0  0  0
   25.1908   29.9179   17.7229 O   0  0  0  0  0  0  0  0  0  0  0  0
   23.9835   30.4628   18.4195 P   0  0  0  0  0  0  0  0  0  0  0  0
   22.4150   29.8714   19.6273 H   0  0  0  0  0  0  0  0  0  0  0  0
   25.6413   30.6342   17.2486 H   0  0  0  0  0  0  0  0  0  0  0  0
  2  1  1  0  0  0
  2  3  1  0  0  0
  2  5  2  0  0  0
  1  8  1  0  0  0
  3  4  1  0  0  0
  8 12  1  0  0  0
  9 12  2  0  0  0
 10 12  1  0  0  0
 11 12  1  0  0  0
  3  6  1  0  0  0
  4  7  1  0  0  0
 10 13  1  0  0  0
 11 14  1  0  0  0
M  END
> <minimizedAffinity>
-6.21458

$$$$
1TPW_PGH_A_250


 14 13  0  0  0  0  0  0  0  0999 V2000
   25.5095   32.1107   20.3843 C   0  0  0  0  0  0  0  0  0  0  0  0
   25.7244   31.5076   18.9937 C   0  0  0  0  0  0  0  0  0  0  0  0
   25.0627   30.3802   18.8239 N   0  0  0  0  0  0  0  0  0  0  0  0
   25.1367   29.7128   17.6224 O   0  0  0  0  0  0  0  0  0  0  0  0
   26.3707   32.0772   18.1230 O   0  0  0  0  0  0  0  0  0  0  0  0
   24.5156   30.0155   19.5566 H   0  0  0  0  0  0  0  0  0  0  0  0
   25.7126   30.2032   17.0151 H   0  0  0  0  0  0  0  0  0  0  0  0
   26.6483   32.8153   20.8747 O   0  0  0  0  0  0  0  0  0  0  0  0
   25.2216   34.6893   21.6990 O   0  0  0  0  0  0  0  0  0  0  0  0
   26.3415   34.8647   19.4850 O   0  0  0  0  0  0  0  0  0  0  0  0
   27.7045   34.9977   21.6388 O   0  0  0  0  0  0  0  0  0  0  0  0
   26.5201   34.4129   20.9351 P   0  0  0  0  0  0  0  0  0  0  0  0
   25.5550   34.4399   19.1085 H   0  0  0  0  0  0  0  0  0  0  0  0
   27.7405   34.6591   22.5471 H   0  0  0  0  0  0  0  0  0  0  0  0
  2  1  1  0  0  0
  2  3  1  0  0  0
  2  5  2  0  0  0
  1  8  1  0  0  0
  3  4  1  0  0  0
  8 12  1  0  0  0
  9 12  2  0  0  0
 10 12  1  0  0  0
 11 12  1  0  0  0
  3  6  1  0  0  0
  4  7  1  0  0  0
 10 13  1  0  0  0
 11 14  1  0  0  0
M  END
> <minimizedAffinity>
-6.10461

$$$$
1TPW_PGH_A_250


 14 13  0  0  0  0  0  0  0  0999 V2000
   25.4632   31.2753   19.9197 C   0  0  0  0  0  0  0  0  0  0  0  0
   24.9482   30.3845   18.7861 C   0  0  0  0  0  0  0  0  0  0  0  0
   23.9973   30.9636   18.0804 N   0  0  0  0  0  0  0  0  0  0  0  0
   23.4324   30.3027   17.0133 O   0  0  0  0  0  0  0  0  0  0  0  0
   25.4457   29.2953   18.5284 O   0  0  0  0  0  0  0  0  0  0  0  0
   23.6912   31.8690   18.3165 H   0  0  0  0  0  0  0  0  0  0  0  0
   23.8447   29.4298   16.9186 H   0  0  0  0  0  0  0  0  0  0  0  0
   26.2653   32.3620   19.4620 O   0  0  0  0  0  0  0  0  0  0  0  0
   27.2633   33.6609   21.3445 O   0  0  0  0  0  0  0  0  0  0  0  0
   24.7987   33.6582   21.0094 O   0  0  0  0  0  0  0  0  0  0  0  0
   26.3242   34.9022   19.3847 O   0  0  0  0  0  0  0  0  0  0  0  0
   26.1493   33.7275   20.2954 P   0  0  0  0  0  0  0  0  0  0  0  0
   24.7721   32.8707   21.5752 H   0  0  0  0  0  0  0  0  0  0  0  0
   27.2034   34.8668   18.9765 H   0  0  0  0  0  0  0  0  0  0  0  0
  2  1  1  0  0  0
  2  3  1  0  0  0
  2  5  2  0  0  0
  1  8  1  0  0  0
  3  4  1  0  0  0
  8 12  1  0  0  0
  9 12  2  0  0  0
 10 12  1  0  0  0
 11 12  1  0  0  0
  3  6  1  0  0  0
  4  7  1  0  0  0
 10 13  1  0  0  0
 11 14  1  0  0  0
M  END
> <minimizedAffinity>
-6.08803

$$$$
1TPW_PGH_A_250


 14 13  0  0  0  0  0  0  0  0999 V2000
   26.5558   34.0039   19.8636 C   0  0  0  0  0  0  0  0  0  0  0  0
   26.9756   35.3769   19.3323 C   0  0  0  0  0  0  0  0  0  0  0  0
   27.9942   35.8860   19.9963 N   0  0  0  0  0  0  0  0  0  0  0  0
   28.5057   37.1125   19.6380 O   0  0  0  0  0  0  0  0  0  0  0  0
   26.4642   35.8824   18.3407 O   0  0  0  0  0  0  0  0  0  0  0  0
   28.3892   35.3888   20.7487 H   0  0  0  0  0  0  0  0  0  0  0  0
   28.0061   37.4635   18.8843 H   0  0  0  0  0  0  0  0  0  0  0  0
   26.3477   33.0407   18.8326 O   0  0  0  0  0  0  0  0  0  0  0  0
   26.2859   31.1521   20.4624 O   0  0  0  0  0  0  0  0  0  0  0  0
   25.7022   30.7517   18.0779 O   0  0  0  0  0  0  0  0  0  0  0  0
   24.1254   32.0682   19.5927 O   0  0  0  0  0  0  0  0  0  0  0  0
   25.5401   31.7195   19.2509 P   0  0  0  0  0  0  0  0  0  0  0  0
   26.6452   30.5821   17.9267 H   0  0  0  0  0  0  0  0  0  0  0  0
   24.1161   32.6828   20.3432 H   0  0  0  0  0  0  0  0  0  0  0  0
  2  1  1  0  0  0
  2  3  1  0  0  0
  2  5  2  0  0  0
  1  8  1  0  0  0
  3  4  1  0  0  0
  8 12  1  0  0  0
  9 12  2  0  0  0
 10 12  1  0  0  0
 11 12  1  0  0  0
  3  6  1  0  0  0
  4  7  1  0  0  0
 10 13  1  0  0  0
 11 14  1  0  0  0
M  END
> <minimizedAffinity>
-5.73814

$$$$
1TPW_PGH_A_250


 14 13  0  0  0  0  0  0  0  0999 V2000
   25.1596   31.8268   20.0709 C   0  0  0  0  0  0  0  0  0  0  0  0
   25.0271   33.1968   20.7413 C   0  0  0  0  0  0  0  0  0  0  0  0
   26.1130   33.9320   20.6076 N   0  0  0  0  0  0  0  0  0  0  0  0
   26.1562   35.1996   21.1422 O   0  0  0  0  0  0  0  0  0  0  0  0
   23.9839   33.5774   21.2582 O   0  0  0  0  0  0  0  0  0  0  0  0
   26.8932   33.5744   20.1253 H   0  0  0  0  0  0  0  0  0  0  0  0
   25.3129   35.3948   21.5800 H   0  0  0  0  0  0  0  0  0  0  0  0
   24.3499   31.6897   18.9049 O   0  0  0  0  0  0  0  0  0  0  0  0
   25.4535   29.5475   18.2568 O   0  0  0  0  0  0  0  0  0  0  0  0
   23.4394   30.3275   17.0232 O   0  0  0  0  0  0  0  0  0  0  0  0
   23.2370   29.4620   19.4157 O   0  0  0  0  0  0  0  0  0  0  0  0
   24.0714   30.1900   18.4090 P   0  0  0  0  0  0  0  0  0  0  0  0
   24.0448   30.8091   16.4380 H   0  0  0  0  0  0  0  0  0  0  0  0
   23.7117   29.4215   20.2606 H   0  0  0  0  0  0  0  0  0  0  0  0
  2  1  1  0  0  0
  2  3  1  0  0  0
  2  5  2  0  0  0
  1  8  1  0  0  0
  3  4  1  0  0  0
  8 12  1  0  0  0
  9 12  2  0  0  0
 10 12  1  0  0  0
 11 12  1  0  0  0
  3  6  1  0  0  0
  4  7  1  0  0  0
 10 13  1  0  0  0
 11 14  1  0  0  0
M  END
> <minimizedAffinity>
-5.66279

$$$$
1TPW_PGH_A_250


 14 13  0  0  0  0  0  0  0  0999 V2000
   24.9895   31.8246   20.0064 C   0  0  0  0  0  0  0  0  0  0  0  0
   24.9743   33.1781   20.7217 C   0  0  0  0  0  0  0  0  0  0  0  0
   26.0825   33.8650   20.5273 N   0  0  0  0  0  0  0  0  0  0  0  0
   26.2274   35.1121   21.0914 O   0  0  0  0  0  0  0  0  0  0  0  0
   23.9919   33.5916   21.3252 O   0  0  0  0  0  0  0  0  0  0  0  0
   26.8067   33.4858   19.9786 H   0  0  0  0  0  0  0  0  0  0  0  0
   25.4291   35.3334   21.5961 H   0  0  0  0  0  0  0  0  0  0  0  0
   23.9647   31.6959   19.0229 O   0  0  0  0  0  0  0  0  0  0  0  0
   22.7614   30.4338   17.2380 O   0  0  0  0  0  0  0  0  0  0  0  0
   23.3542   29.3019   19.3720 O   0  0  0  0  0  0  0  0  0  0  0  0
   25.1672   29.9040   17.6793 O   0  0  0  0  0  0  0  0  0  0  0  0
   23.8544   30.2693   18.2983 P   0  0  0  0  0  0  0  0  0  0  0  0
   22.5029   29.6137   19.7168 H   0  0  0  0  0  0  0  0  0  0  0  0
   25.4065   30.5676   17.0135 H   0  0  0  0  0  0  0  0  0  0  0  0
  2  1  1  0  0  0
  2  3  1  0  0  0
  2  5  2  0  0  0
  1  8  1  0  0  0
  3  4  1  0  0  0
  8 12  1  0  0  0
  9 12  2  0  0  0
 10 12  1  0  0  0
 11 12  1  0  0  0
  3  6  1  0  0  0
  4  7  1  0  0  0
 10 13  1  0  0  0
 11 14  1  0  0  0
M  END
> <minimizedAffinity>
-5.64730

$$$$
1TPW_PGH_A_250


 14 13  0  0  0  0  0  0  0  0999 V2000
   26.9658   34.9117   19.4739 C   0  0  0  0  0  0  0  0  0  0  0  0
   27.3524   35.8872   20.5887 C   0  0  0  0  0  0  0  0  0  0  0  0
   27.7948   35.2723   21.6675 N   0  0  0  0  0  0  0  0  0  0  0  0
   28.1975   36.0047   22.7610 O   0  0  0  0  0  0  0  0  0  0  0  0
   27.3302   37.1023   20.4357 O   0  0  0  0  0  0  0  0  0  0  0  0
   27.8371   34.2890   21.6910 H   0  0  0  0  0  0  0  0  0  0  0  0
   28.0922   36.9506   22.5733 H   0  0  0  0  0  0  0  0  0  0  0  0
   25.7641   34.1935   19.7458 O   0  0  0  0  0  0  0  0  0  0  0  0
   26.9512   32.3792   20.9811 O   0  0  0  0  0  0  0  0  0  0  0  0
   26.4866   32.1258   18.5507 O   0  0  0  0  0  0  0  0  0  0  0  0
   24.5879   31.9974   20.2515 O   0  0  0  0  0  0  0  0  0  0  0  0
   25.9065   32.6018   19.8833 P   0  0  0  0  0  0  0  0  0  0  0  0
   27.3366   32.5656   18.3925 H   0  0  0  0  0  0  0  0  0  0  0  0
   24.2962   32.3533   21.1054 H   0  0  0  0  0  0  0  0  0  0  0  0
  2  1  1  0  0  0
  2  3  1  0  0  0
  2  5  2  0  0  0
  1  8  1  0  0  0
  3  4  1  0  0  0
  8 12  1  0  0  0
  9 12  2  0  0  0
 10 12  1  0  0  0
 11 12  1  0  0  0
  3  6  1  0  0  0
  4  7  1  0  0  0
 10 13  1  0  0  0
 11 14  1  0  0  0
M  END
> <minimizedAffinity>
-5.41008

$$$$
1TPW_PGH_A_250


 14 13  0  0  0  0  0  0  0  0999 V2000
   25.6578   32.8470   20.2486 C   0  0  0  0  0  0  0  0  0  0  0  0
   25.9107   31.9996   18.9990 C   0  0  0  0  0  0  0  0  0  0  0  0
   25.1887   30.8969   18.9815 N   0  0  0  0  0  0  0  0  0  0  0  0
   25.2865   30.0267   17.9195 O   0  0  0  0  0  0  0  0  0  0  0  0
   26.6396   32.3729   18.0882 O   0  0  0  0  0  0  0  0  0  0  0  0
   24.5794   30.6956   19.7281 H   0  0  0  0  0  0  0  0  0  0  0  0
   25.9255   30.3719   17.2765 H   0  0  0  0  0  0  0  0  0  0  0  0
   24.2923   32.8503   20.6600 O   0  0  0  0  0  0  0  0  0  0  0  0
   23.7547   32.8950   23.0964 O   0  0  0  0  0  0  0  0  0  0  0  0
   22.5645   34.4230   21.5358 O   0  0  0  0  0  0  0  0  0  0  0  0
   25.0223   34.8111   22.1038 O   0  0  0  0  0  0  0  0  0  0  0  0
   23.9246   33.8175   21.8855 P   0  0  0  0  0  0  0  0  0  0  0  0
   21.9162   33.7121   21.4122 H   0  0  0  0  0  0  0  0  0  0  0  0
   25.8440   34.3428   22.3196 H   0  0  0  0  0  0  0  0  0  0  0  0
  2  1  1  0  0  0
  2  3  1  0  0  0
  2  5  2  0  0  0
  1  8  1  0  0  0
  3  4  1  0  0  0
  8 12  1  0  0  0
  9 12  2  0  0  0
 10 12  1  0  0  0
 11 12  1  0  0  0
  3  6  1  0  0  0
  4  7  1  0  0  0
 10 13  1  0  0  0
 11 14  1  0  0  0
M  END
> <minimizedAffinity>
-5.24363

$$$$
