1K27_MTM_A_401


 27 29  0  0  0  0  0  0  0  0999 V2000
   61.1821   16.6241   28.1711 C   0  0  0  0  0  0  0  0  0  0  0  0
   60.8366   15.5710   27.3301 C   0  0  0  0  0  0  0  0  0  0  0  0
   60.0770   15.9108   26.3061 N   0  0  0  0  0  0  0  0  0  0  0  0
   59.8949   17.2744   26.4620 C   0  0  0  0  0  0  0  0  0  0  0  0
   59.1872   18.2665   25.7181 C   0  0  0  0  0  0  0  0  0  0  0  0
   58.5019   17.9741   24.6070 N   0  0  0  0  0  0  0  0  0  0  0  0
   59.2312   19.5768   26.1912 N   0  0  0  0  0  0  0  0  0  0  0  0
   59.9233   19.8830   27.3131 C   0  0  0  0  0  0  0  0  0  0  0  0
   60.6227   19.0276   28.0875 N   0  0  0  0  0  0  0  0  0  0  0  0
   60.5641   17.7388   27.6008 C   0  0  0  0  0  0  0  0  0  0  0  0
   59.7220   15.3292   25.5956 H   0  0  0  0  0  0  0  0  0  0  0  0
   58.0970   18.8278   24.2227 H   0  0  0  0  0  0  0  0  0  0  0  0
   57.7564   17.3150   24.8308 H   0  0  0  0  0  0  0  0  0  0  0  0
   58.7539   20.2869   25.7042 H   0  0  0  0  0  0  0  0  0  0  0  0
   60.8733   15.9630   31.5231 C   0  0  0  0  0  0  0  0  0  0  0  0
   61.5147   15.4393   30.3122 N   0  0  0  0  0  0  0  0  0  0  0  0
   62.1255   17.7326   30.4497 C   0  0  0  0  0  0  0  0  0  0  0  0
   63.5074   18.2131   30.6139 O   0  0  0  0  0  0  0  0  0  0  0  0
   61.5174   17.3105   31.8577 C   0  0  0  0  0  0  0  0  0  0  0  0
   62.5787   17.1549   32.8901 O   0  0  0  0  0  0  0  0  0  0  0  0
   62.0957   16.4931   29.4882 C   0  0  0  0  0  0  0  0  0  0  0  0
   60.8159   14.9410   29.7611 H   0  0  0  0  0  0  0  0  0  0  0  0
   64.0529   17.5058   30.9921 H   0  0  0  0  0  0  0  0  0  0  0  0
   63.2349   16.5092   32.5845 H   0  0  0  0  0  0  0  0  0  0  0  0
   59.3726   16.0543   31.2633 C   0  0  0  0  0  0  0  0  0  0  0  0
   58.9093   13.3749   31.9520 C   0  0  0  0  0  0  0  0  0  0  0  0
   58.6437   14.5247   30.5770 S   0  0  0  0  0  0  0  0  0  0  0  0
 26 27  1  0  0  0
 27 25  1  0  0  0
 25 15  1  0  0  0
 15 16  1  0  0  0
 15 19  1  0  0  0
 16 21  1  0  0  0
 17 18  1  0  0  0
 17 19  1  0  0  0
 17 21  1  0  0  0
 19 20  1  0  0  0
 21  1  1  0  0  0
  1  2  2  0  0  0
  1 10  1  0  0  0
  2  3  1  0  0  0
  3  4  1  0  0  0
  4  5  1  0  0  0
  4 10  2  0  0  0
  5  6  1  0  0  0
  5  7  1  0  0  0
  7  8  1  0  0  0
  8  9  2  0  0  0
  9 10  1  0  0  0
 16 22  1  0  0  0
 18 23  1  0  0  0
 20 24  1  0  0  0
  3 11  1  0  0  0
  6 12  1  0  0  0
  6 13  1  0  0  0
  7 14  1  0  0  0
M  END
> <minimizedAffinity>
-9.91155

$$$$
1K27_MTM_A_401


 27 29  0  0  0  0  0  0  0  0999 V2000
   61.5406   16.4028   29.8673 C   0  0  0  0  0  0  0  0  0  0  0  0
   62.1742   17.4566   30.5183 C   0  0  0  0  0  0  0  0  0  0  0  0
   62.0736   17.4312   31.8337 N   0  0  0  0  0  0  0  0  0  0  0  0
   61.3264   16.2943   32.0907 C   0  0  0  0  0  0  0  0  0  0  0  0
   60.8524   15.6748   33.2865 C   0  0  0  0  0  0  0  0  0  0  0  0
   61.0994   16.1800   34.5003 N   0  0  0  0  0  0  0  0  0  0  0  0
   60.1097   14.5030   33.1518 N   0  0  0  0  0  0  0  0  0  0  0  0
   59.8564   13.9828   31.9284 C   0  0  0  0  0  0  0  0  0  0  0  0
   60.2541   14.4849   30.7408 N   0  0  0  0  0  0  0  0  0  0  0  0
   60.9858   15.6430   30.8990 C   0  0  0  0  0  0  0  0  0  0  0  0
   62.4442   18.0724   32.4824 H   0  0  0  0  0  0  0  0  0  0  0  0
   60.6943   15.5708   35.2110 H   0  0  0  0  0  0  0  0  0  0  0  0
   60.6848   17.1092   34.5726 H   0  0  0  0  0  0  0  0  0  0  0  0
   59.7658   14.0491   33.9549 H   0  0  0  0  0  0  0  0  0  0  0  0
   60.6906   18.0999   27.0098 C   0  0  0  0  0  0  0  0  0  0  0  0
   61.8436   17.4675   27.6598 N   0  0  0  0  0  0  0  0  0  0  0  0
   60.1136   15.8372   27.6415 C   0  0  0  0  0  0  0  0  0  0  0  0
   60.1924   14.5541   26.9240 O   0  0  0  0  0  0  0  0  0  0  0  0
   59.6891   17.0017   26.6443 C   0  0  0  0  0  0  0  0  0  0  0  0
   59.8419   16.5897   25.2218 O   0  0  0  0  0  0  0  0  0  0  0  0
   61.5059   16.1884   28.2737 C   0  0  0  0  0  0  0  0  0  0  0  0
   62.1962   18.0945   28.3829 H   0  0  0  0  0  0  0  0  0  0  0  0
   60.8537   14.6189   26.2174 H   0  0  0  0  0  0  0  0  0  0  0  0
   60.7567   16.3089   25.0630 H   0  0  0  0  0  0  0  0  0  0  0  0
   60.1234   19.1468   27.9638 C   0  0  0  0  0  0  0  0  0  0  0  0
   58.5673   20.3094   25.9402 C   0  0  0  0  0  0  0  0  0  0  0  0
   59.8045   20.7682   27.1820 S   0  0  0  0  0  0  0  0  0  0  0  0
 26 27  1  0  0  0
 27 25  1  0  0  0
 25 15  1  0  0  0
 15 16  1  0  0  0
 15 19  1  0  0  0
 16 21  1  0  0  0
 17 18  1  0  0  0
 17 19  1  0  0  0
 17 21  1  0  0  0
 19 20  1  0  0  0
 21  1  1  0  0  0
  1  2  2  0  0  0
  1 10  1  0  0  0
  2  3  1  0  0  0
  3  4  1  0  0  0
  4  5  1  0  0  0
  4 10  2  0  0  0
  5  6  1  0  0  0
  5  7  1  0  0  0
  7  8  1  0  0  0
  8  9  2  0  0  0
  9 10  1  0  0  0
 16 22  1  0  0  0
 18 23  1  0  0  0
 20 24  1  0  0  0
  3 11  1  0  0  0
  6 12  1  0  0  0
  6 13  1  0  0  0
  7 14  1  0  0  0
M  END
> <minimizedAffinity>
-8.39547

$$$$
1K27_MTM_A_401


 27 29  0  0  0  0  0  0  0  0999 V2000
   61.5507   17.0615   29.6685 C   0  0  0  0  0  0  0  0  0  0  0  0
   61.3835   18.4351   29.5237 C   0  0  0  0  0  0  0  0  0  0  0  0
   60.8793   18.8089   28.3631 N   0  0  0  0  0  0  0  0  0  0  0  0
   60.6949   17.6192   27.6792 C   0  0  0  0  0  0  0  0  0  0  0  0
   60.1906   17.2941   26.3836 C   0  0  0  0  0  0  0  0  0  0  0  0
   59.7655   18.2287   25.5261 N   0  0  0  0  0  0  0  0  0  0  0  0
   60.1519   15.9466   26.0291 N   0  0  0  0  0  0  0  0  0  0  0  0
   60.5777   14.9936   26.8904 C   0  0  0  0  0  0  0  0  0  0  0  0
   61.0700   15.1901   28.1312 N   0  0  0  0  0  0  0  0  0  0  0  0
   61.0994   16.5291   28.4592 C   0  0  0  0  0  0  0  0  0  0  0  0
   60.6802   19.7224   28.0547 H   0  0  0  0  0  0  0  0  0  0  0  0
   59.4247   17.7802   24.6758 H   0  0  0  0  0  0  0  0  0  0  0  0
   60.5373   18.8542   25.2947 H   0  0  0  0  0  0  0  0  0  0  0  0
   59.8112   15.6855   25.1431 H   0  0  0  0  0  0  0  0  0  0  0  0
   60.5021   15.1034   32.2827 C   0  0  0  0  0  0  0  0  0  0  0  0
   61.4175   15.0803   31.1367 N   0  0  0  0  0  0  0  0  0  0  0  0
   61.9174   17.0641   32.3473 C   0  0  0  0  0  0  0  0  0  0  0  0
   63.2114   17.3351   32.9951 O   0  0  0  0  0  0  0  0  0  0  0  0
   61.0153   16.1444   33.2805 C   0  0  0  0  0  0  0  0  0  0  0  0
   61.8163   15.5028   34.3590 O   0  0  0  0  0  0  0  0  0  0  0  0
   62.1423   16.3356   30.9761 C   0  0  0  0  0  0  0  0  0  0  0  0
   60.8772   14.9038   30.2898 H   0  0  0  0  0  0  0  0  0  0  0  0
   63.6752   16.4981   33.1535 H   0  0  0  0  0  0  0  0  0  0  0  0
   62.5425   14.9953   33.9641 H   0  0  0  0  0  0  0  0  0  0  0  0
   59.0986   15.3997   31.7629 C   0  0  0  0  0  0  0  0  0  0  0  0
   58.1940   12.7446   31.7581 C   0  0  0  0  0  0  0  0  0  0  0  0
   58.4474   14.1309   30.6192 S   0  0  0  0  0  0  0  0  0  0  0  0
 26 27  1  0  0  0
 27 25  1  0  0  0
 25 15  1  0  0  0
 15 16  1  0  0  0
 15 19  1  0  0  0
 16 21  1  0  0  0
 17 18  1  0  0  0
 17 19  1  0  0  0
 17 21  1  0  0  0
 19 20  1  0  0  0
 21  1  1  0  0  0
  1  2  2  0  0  0
  1 10  1  0  0  0
  2  3  1  0  0  0
  3  4  1  0  0  0
  4  5  1  0  0  0
  4 10  2  0  0  0
  5  6  1  0  0  0
  5  7  1  0  0  0
  7  8  1  0  0  0
  8  9  2  0  0  0
  9 10  1  0  0  0
 16 22  1  0  0  0
 18 23  1  0  0  0
 20 24  1  0  0  0
  3 11  1  0  0  0
  6 12  1  0  0  0
  6 13  1  0  0  0
  7 14  1  0  0  0
M  END
> <minimizedAffinity>
-8.31815

$$$$
1K27_MTM_A_401


 27 29  0  0  0  0  0  0  0  0999 V2000
   59.8376   16.3439   29.8637 C   0  0  0  0  0  0  0  0  0  0  0  0
   59.5277   15.1646   29.1935 C   0  0  0  0  0  0  0  0  0  0  0  0
   59.4932   15.2714   27.8789 N   0  0  0  0  0  0  0  0  0  0  0  0
   59.7960   16.6017   27.6428 C   0  0  0  0  0  0  0  0  0  0  0  0
   59.9283   17.3881   26.4585 C   0  0  0  0  0  0  0  0  0  0  0  0
   59.7519   16.8751   25.2356 N   0  0  0  0  0  0  0  0  0  0  0  0
   60.2542   18.7343   26.6146 N   0  0  0  0  0  0  0  0  0  0  0  0
   60.4367   19.2621   27.8473 C   0  0  0  0  0  0  0  0  0  0  0  0
   60.3361   18.6122   29.0254 N   0  0  0  0  0  0  0  0  0  0  0  0
   60.0127   17.2838   28.8461 C   0  0  0  0  0  0  0  0  0  0  0  0
   59.2975   14.5679   27.2186 H   0  0  0  0  0  0  0  0  0  0  0  0
   59.9183   17.5986   24.5361 H   0  0  0  0  0  0  0  0  0  0  0  0
   58.7964   16.5294   25.1465 H   0  0  0  0  0  0  0  0  0  0  0  0
   60.3525   19.3071   25.8199 H   0  0  0  0  0  0  0  0  0  0  0  0
   62.1112   17.2672   32.2609 C   0  0  0  0  0  0  0  0  0  0  0  0
   60.8003   17.6502   31.7252 N   0  0  0  0  0  0  0  0  0  0  0  0
   60.6601   15.3320   32.2323 C   0  0  0  0  0  0  0  0  0  0  0  0
   59.7494   14.7575   33.2363 O   0  0  0  0  0  0  0  0  0  0  0  0
   61.9685   15.9010   32.9358 C   0  0  0  0  0  0  0  0  0  0  0  0
   61.7826   16.0468   34.4057 O   0  0  0  0  0  0  0  0  0  0  0  0
   59.9471   16.4974   31.4610 C   0  0  0  0  0  0  0  0  0  0  0  0
   60.9396   18.1609   30.8533 H   0  0  0  0  0  0  0  0  0  0  0  0
   59.4913   15.4452   33.8698 H   0  0  0  0  0  0  0  0  0  0  0  0
   61.0162   16.6152   34.5799 H   0  0  0  0  0  0  0  0  0  0  0  0
   63.1143   17.2756   31.1113 C   0  0  0  0  0  0  0  0  0  0  0  0
   65.4808   15.9990   31.9099 C   0  0  0  0  0  0  0  0  0  0  0  0
   64.0098   15.6965   30.8961 S   0  0  0  0  0  0  0  0  0  0  0  0
 26 27  1  0  0  0
 27 25  1  0  0  0
 25 15  1  0  0  0
 15 16  1  0  0  0
 15 19  1  0  0  0
 16 21  1  0  0  0
 17 18  1  0  0  0
 17 19  1  0  0  0
 17 21  1  0  0  0
 19 20  1  0  0  0
 21  1  1  0  0  0
  1  2  2  0  0  0
  1 10  1  0  0  0
  2  3  1  0  0  0
  3  4  1  0  0  0
  4  5  1  0  0  0
  4 10  2  0  0  0
  5  6  1  0  0  0
  5  7  1  0  0  0
  7  8  1  0  0  0
  8  9  2  0  0  0
  9 10  1  0  0  0
 16 22  1  0  0  0
 18 23  1  0  0  0
 20 24  1  0  0  0
  3 11  1  0  0  0
  6 12  1  0  0  0
  6 13  1  0  0  0
  7 14  1  0  0  0
M  END
> <minimizedAffinity>
-8.25293

$$$$
1K27_MTM_A_401


 27 29  0  0  0  0  0  0  0  0999 V2000
   60.9029   18.2608   27.7439 C   0  0  0  0  0  0  0  0  0  0  0  0
   60.7801   19.5336   28.2922 C   0  0  0  0  0  0  0  0  0  0  0  0
   59.8722   20.2967   27.7139 N   0  0  0  0  0  0  0  0  0  0  0  0
   59.3491   19.4954   26.7133 C   0  0  0  0  0  0  0  0  0  0  0  0
   58.3412   19.6884   25.7207 C   0  0  0  0  0  0  0  0  0  0  0  0
   57.6649   20.8366   25.6016 N   0  0  0  0  0  0  0  0  0  0  0  0
   58.0747   18.6244   24.8606 N   0  0  0  0  0  0  0  0  0  0  0  0
   58.7519   17.4583   24.9744 C   0  0  0  0  0  0  0  0  0  0  0  0
   59.7183   17.1715   25.8712 N   0  0  0  0  0  0  0  0  0  0  0  0
   59.9649   18.2380   26.7099 C   0  0  0  0  0  0  0  0  0  0  0  0
   59.6241   21.2219   27.9414 H   0  0  0  0  0  0  0  0  0  0  0  0
   56.9793   20.7510   24.8513 H   0  0  0  0  0  0  0  0  0  0  0  0
   58.3142   21.5926   25.3843 H   0  0  0  0  0  0  0  0  0  0  0  0
   57.3868   18.7223   24.1632 H   0  0  0  0  0  0  0  0  0  0  0  0
   60.8708   15.1179   29.1187 C   0  0  0  0  0  0  0  0  0  0  0  0
   61.3377   15.8368   27.9282 N   0  0  0  0  0  0  0  0  0  0  0  0
   62.1661   17.0435   29.8014 C   0  0  0  0  0  0  0  0  0  0  0  0
   63.5955   17.2232   30.1044 O   0  0  0  0  0  0  0  0  0  0  0  0
   61.6654   15.6268   30.3238 C   0  0  0  0  0  0  0  0  0  0  0  0
   62.8057   14.7213   30.6341 O   0  0  0  0  0  0  0  0  0  0  0  0
   61.9275   17.1304   28.2532 C   0  0  0  0  0  0  0  0  0  0  0  0
   60.5448   15.9862   27.3042 H   0  0  0  0  0  0  0  0  0  0  0  0
   64.1091   16.5273   29.6653 H   0  0  0  0  0  0  0  0  0  0  0  0
   63.3664   14.6265   29.8483 H   0  0  0  0  0  0  0  0  0  0  0  0
   59.3663   15.3377   29.2458 C   0  0  0  0  0  0  0  0  0  0  0  0
   57.7892   13.7146   30.9031 C   0  0  0  0  0  0  0  0  0  0  0  0
   58.7462   15.2520   30.9634 S   0  0  0  0  0  0  0  0  0  0  0  0
 26 27  1  0  0  0
 27 25  1  0  0  0
 25 15  1  0  0  0
 15 16  1  0  0  0
 15 19  1  0  0  0
 16 21  1  0  0  0
 17 18  1  0  0  0
 17 19  1  0  0  0
 17 21  1  0  0  0
 19 20  1  0  0  0
 21  1  1  0  0  0
  1  2  2  0  0  0
  1 10  1  0  0  0
  2  3  1  0  0  0
  3  4  1  0  0  0
  4  5  1  0  0  0
  4 10  2  0  0  0
  5  6  1  0  0  0
  5  7  1  0  0  0
  7  8  1  0  0  0
  8  9  2  0  0  0
  9 10  1  0  0  0
 16 22  1  0  0  0
 18 23  1  0  0  0
 20 24  1  0  0  0
  3 11  1  0  0  0
  6 12  1  0  0  0
  6 13  1  0  0  0
  7 14  1  0  0  0
M  END
> <minimizedAffinity>
-8.03159

$$$$
1K27_MTM_A_401


 27 29  0  0  0  0  0  0  0  0999 V2000
   60.9597   15.6448   29.8625 C   0  0  0  0  0  0  0  0  0  0  0  0
   60.0621   14.8743   30.5950 C   0  0  0  0  0  0  0  0  0  0  0  0
   60.1314   15.0422   31.9019 N   0  0  0  0  0  0  0  0  0  0  0  0
   61.1362   15.9805   32.0663 C   0  0  0  0  0  0  0  0  0  0  0  0
   61.7208   16.6103   33.2065 C   0  0  0  0  0  0  0  0  0  0  0  0
   61.3218   16.3422   34.4550 N   0  0  0  0  0  0  0  0  0  0  0  0
   62.7403   17.5329   32.9783 N   0  0  0  0  0  0  0  0  0  0  0  0
   63.1495   17.8125   31.7190 C   0  0  0  0  0  0  0  0  0  0  0  0
   62.6683   17.2775   30.5776 N   0  0  0  0  0  0  0  0  0  0  0  0
   61.6624   16.3682   30.8281 C   0  0  0  0  0  0  0  0  0  0  0  0
   59.5932   14.6021   32.5989 H   0  0  0  0  0  0  0  0  0  0  0  0
   61.8498   16.9172   35.1115 H   0  0  0  0  0  0  0  0  0  0  0  0
   61.4844   15.3563   34.6595 H   0  0  0  0  0  0  0  0  0  0  0  0
   63.1672   17.9859   33.7411 H   0  0  0  0  0  0  0  0  0  0  0  0
   60.7276   17.7982   27.2022 C   0  0  0  0  0  0  0  0  0  0  0  0
   61.6857   16.9105   27.8701 N   0  0  0  0  0  0  0  0  0  0  0  0
   59.7487   15.5996   27.4454 C   0  0  0  0  0  0  0  0  0  0  0  0
   59.7239   14.4196   26.5654 O   0  0  0  0  0  0  0  0  0  0  0  0
   59.6270   16.9320   26.5850 C   0  0  0  0  0  0  0  0  0  0  0  0
   59.8904   16.6798   25.1416 O   0  0  0  0  0  0  0  0  0  0  0  0
   61.0894   15.6378   28.2594 C   0  0  0  0  0  0  0  0  0  0  0  0
   62.0358   17.3773   28.7068 H   0  0  0  0  0  0  0  0  0  0  0  0
   60.4693   14.4624   25.9461 H   0  0  0  0  0  0  0  0  0  0  0  0
   60.7660   16.2753   25.0386 H   0  0  0  0  0  0  0  0  0  0  0  0
   60.2091   18.7974   28.2321 C   0  0  0  0  0  0  0  0  0  0  0  0
   58.9081   20.1035   26.1179 C   0  0  0  0  0  0  0  0  0  0  0  0
   59.9342   20.4767   27.5639 S   0  0  0  0  0  0  0  0  0  0  0  0
 26 27  1  0  0  0
 27 25  1  0  0  0
 25 15  1  0  0  0
 15 16  1  0  0  0
 15 19  1  0  0  0
 16 21  1  0  0  0
 17 18  1  0  0  0
 17 19  1  0  0  0
 17 21  1  0  0  0
 19 20  1  0  0  0
 21  1  1  0  0  0
  1  2  2  0  0  0
  1 10  1  0  0  0
  2  3  1  0  0  0
  3  4  1  0  0  0
  4  5  1  0  0  0
  4 10  2  0  0  0
  5  6  1  0  0  0
  5  7  1  0  0  0
  7  8  1  0  0  0
  8  9  2  0  0  0
  9 10  1  0  0  0
 16 22  1  0  0  0
 18 23  1  0  0  0
 20 24  1  0  0  0
  3 11  1  0  0  0
  6 12  1  0  0  0
  6 13  1  0  0  0
  7 14  1  0  0  0
M  END
> <minimizedAffinity>
-7.63673

$$$$
1K27_MTM_A_401


 27 29  0  0  0  0  0  0  0  0999 V2000
   61.5964   15.5599   28.6442 C   0  0  0  0  0  0  0  0  0  0  0  0
   61.0454   14.6044   27.7961 C   0  0  0  0  0  0  0  0  0  0  0  0
   60.2654   15.0923   26.8503 N   0  0  0  0  0  0  0  0  0  0  0  0
   60.2868   16.4591   27.0703 C   0  0  0  0  0  0  0  0  0  0  0  0
   59.6697   17.5721   26.4232 C   0  0  0  0  0  0  0  0  0  0  0  0
   58.8686   17.4285   25.3614 N   0  0  0  0  0  0  0  0  0  0  0  0
   59.9309   18.8405   26.9388 N   0  0  0  0  0  0  0  0  0  0  0  0
   60.7415   18.9964   28.0111 C   0  0  0  0  0  0  0  0  0  0  0  0
   61.3716   18.0183   28.6944 N   0  0  0  0  0  0  0  0  0  0  0  0
   61.0980   16.7739   28.1672 C   0  0  0  0  0  0  0  0  0  0  0  0
   59.7804   14.5986   26.1501 H   0  0  0  0  0  0  0  0  0  0  0  0
   58.5584   18.3465   25.0428 H   0  0  0  0  0  0  0  0  0  0  0  0
   58.0577   16.8667   25.6208 H   0  0  0  0  0  0  0  0  0  0  0  0
   59.5215   19.6311   26.5185 H   0  0  0  0  0  0  0  0  0  0  0  0
   61.7597   15.9820   32.0447 C   0  0  0  0  0  0  0  0  0  0  0  0
   61.7404   14.9260   31.0266 N   0  0  0  0  0  0  0  0  0  0  0  0
   63.4671   16.4312   30.3911 C   0  0  0  0  0  0  0  0  0  0  0  0
   64.8922   16.0702   30.3104 O   0  0  0  0  0  0  0  0  0  0  0  0
   63.0667   16.7639   31.8943 C   0  0  0  0  0  0  0  0  0  0  0  0
   64.0942   16.2795   32.8566 O   0  0  0  0  0  0  0  0  0  0  0  0
   62.5797   15.2439   29.8770 C   0  0  0  0  0  0  0  0  0  0  0  0
   60.7807   14.7983   30.7057 H   0  0  0  0  0  0  0  0  0  0  0  0
   65.0594   15.2888   30.8601 H   0  0  0  0  0  0  0  0  0  0  0  0
   64.2293   15.3269   32.7330 H   0  0  0  0  0  0  0  0  0  0  0  0
   60.5124   16.8413   31.8604 C   0  0  0  0  0  0  0  0  0  0  0  0
   58.1726   17.2695   30.3739 C   0  0  0  0  0  0  0  0  0  0  0  0
   59.0745   15.9295   31.1950 S   0  0  0  0  0  0  0  0  0  0  0  0
 26 27  1  0  0  0
 27 25  1  0  0  0
 25 15  1  0  0  0
 15 16  1  0  0  0
 15 19  1  0  0  0
 16 21  1  0  0  0
 17 18  1  0  0  0
 17 19  1  0  0  0
 17 21  1  0  0  0
 19 20  1  0  0  0
 21  1  1  0  0  0
  1  2  2  0  0  0
  1 10  1  0  0  0
  2  3  1  0  0  0
  3  4  1  0  0  0
  4  5  1  0  0  0
  4 10  2  0  0  0
  5  6  1  0  0  0
  5  7  1  0  0  0
  7  8  1  0  0  0
  8  9  2  0  0  0
  9 10  1  0  0  0
 16 22  1  0  0  0
 18 23  1  0  0  0
 20 24  1  0  0  0
  3 11  1  0  0  0
  6 12  1  0  0  0
  6 13  1  0  0  0
  7 14  1  0  0  0
M  END
> <minimizedAffinity>
-7.07754

$$$$
