2VT3_ATP_A_302


 39 41  0  0  0  0  0  0  0  0999 V2000
   16.2531   13.1560  -33.0982 C   0  0  0  0  0  0  0  0  0  0  0  0
   16.5296   14.4534  -33.5874 O   0  0  0  0  0  0  0  0  0  0  0  0
   16.3997   12.1961  -34.2969 C   0  0  0  0  0  0  0  0  0  0  0  0
   15.1110   11.8185  -34.8253 O   0  0  0  0  0  0  0  0  0  0  0  0
   17.1112   13.0127  -35.3401 C   0  0  0  0  0  0  0  0  0  0  0  0
   16.8179   12.6489  -36.6821 O   0  0  0  0  0  0  0  0  0  0  0  0
   16.5961   14.4102  -35.0196 C   0  0  0  0  0  0  0  0  0  0  0  0
   14.6237   12.6147  -35.0889 H   0  0  0  0  0  0  0  0  0  0  0  0
   15.8633   12.7249  -36.8365 H   0  0  0  0  0  0  0  0  0  0  0  0
   17.4587   15.4803  -35.5035 N   0  0  0  0  0  0  0  0  0  0  0  0
   18.7975   15.4697  -35.5525 C   0  0  0  0  0  0  0  0  0  0  0  0
   19.2365   16.6451  -36.0230 N   0  0  0  0  0  0  0  0  0  0  0  0
   18.1739   17.4243  -36.2760 C   0  0  0  0  0  0  0  0  0  0  0  0
   17.9281   18.7758  -36.8058 C   0  0  0  0  0  0  0  0  0  0  0  0
   18.9483   19.5807  -37.1618 N   0  0  0  0  0  0  0  0  0  0  0  0
   16.6602   19.2074  -36.8923 N   0  0  0  0  0  0  0  0  0  0  0  0
   15.6234   18.4297  -36.5501 C   0  0  0  0  0  0  0  0  0  0  0  0
   15.7786   17.1874  -36.0944 N   0  0  0  0  0  0  0  0  0  0  0  0
   16.9988   16.6438  -35.9433 C   0  0  0  0  0  0  0  0  0  0  0  0
   19.8761   19.2579  -37.0959 H   0  0  0  0  0  0  0  0  0  0  0  0
   18.7661   20.4916  -37.4877 H   0  0  0  0  0  0  0  0  0  0  0  0
   17.1874   12.9734  -31.9142 C   0  0  0  0  0  0  0  0  0  0  0  0
   16.7144   11.8596  -31.1721 O   0  0  0  0  0  0  0  0  0  0  0  0
   16.3496   12.0847  -29.6248 P   0  0  0  0  0  0  0  0  0  0  0  0
   14.8702   12.3615  -29.5676 O   0  0  0  0  0  0  0  0  0  0  0  0
   17.2599   13.1541  -29.1222 O   0  0  0  0  0  0  0  0  0  0  0  0
   17.0734   13.3237  -28.1855 H   0  0  0  0  0  0  0  0  0  0  0  0
   16.6620   10.6374  -28.9678 O   0  0  0  0  0  0  0  0  0  0  0  0
   18.0032    9.7575  -29.1631 P   0  0  0  0  0  0  0  0  0  0  0  0
   18.2320    9.3350  -30.5956 O   0  0  0  0  0  0  0  0  0  0  0  0
   18.0961    8.6348  -28.1556 O   0  0  0  0  0  0  0  0  0  0  0  0
   18.9120    8.1322  -28.3058 H   0  0  0  0  0  0  0  0  0  0  0  0
   19.1733   10.8509  -28.8987 O   0  0  0  0  0  0  0  0  0  0  0  0
   20.0561   11.2107  -27.5851 P   0  0  0  0  0  0  0  0  0  0  0  0
   19.2627   12.4048  -27.0849 O   0  0  0  0  0  0  0  0  0  0  0  0
   20.0444    9.9952  -26.6757 O   0  0  0  0  0  0  0  0  0  0  0  0
   21.3932   11.6101  -28.1378 O   0  0  0  0  0  0  0  0  0  0  0  0
   20.5662   10.1820  -25.8796 H   0  0  0  0  0  0  0  0  0  0  0  0
   21.9880   11.8436  -27.4080 H   0  0  0  0  0  0  0  0  0  0  0  0
 34 35  2  0  0  0
 34 36  1  0  0  0
 34 37  1  0  0  0
 34 33  1  0  0  0
 29 30  2  0  0  0
 29 31  1  0  0  0
 29 33  1  0  0  0
 29 28  1  0  0  0
 24 25  2  0  0  0
 24 26  1  0  0  0
 24 28  1  0  0  0
 24 23  1  0  0  0
 23 22  1  0  0  0
 22  1  1  0  0  0
  1  2  1  0  0  0
  1  3  1  0  0  0
  2  7  1  0  0  0
  3  4  1  0  0  0
  3  5  1  0  0  0
  5  6  1  0  0  0
  5  7  1  0  0  0
  7 10  1  0  0  0
 10 11  1  0  0  0
 10 19  1  0  0  0
 11 12  2  0  0  0
 12 13  1  0  0  0
 13 14  1  0  0  0
 13 19  2  0  0  0
 14 15  1  0  0  0
 14 16  2  0  0  0
 16 17  1  0  0  0
 17 18  2  0  0  0
 18 19  1  0  0  0
 36 38  1  0  0  0
 37 39  1  0  0  0
 31 32  1  0  0  0
 26 27  1  0  0  0
  4  8  1  0  0  0
  6  9  1  0  0  0
 15 20  1  0  0  0
 15 21  1  0  0  0
M  END
> <minimizedAffinity>
-8.87306

$$$$
2VT3_ATP_A_302


 39 41  0  0  0  0  0  0  0  0999 V2000
   16.4194   12.9399  -33.0806 C   0  0  0  0  0  0  0  0  0  0  0  0
   16.6734   14.2564  -33.5294 O   0  0  0  0  0  0  0  0  0  0  0  0
   16.4716   12.0346  -34.3286 C   0  0  0  0  0  0  0  0  0  0  0  0
   15.1452   11.6900  -34.7807 O   0  0  0  0  0  0  0  0  0  0  0  0
   17.1157   12.8931  -35.3819 C   0  0  0  0  0  0  0  0  0  0  0  0
   16.7249   12.5927  -36.7147 O   0  0  0  0  0  0  0  0  0  0  0  0
   16.6383   14.2780  -34.9632 C   0  0  0  0  0  0  0  0  0  0  0  0
   14.6484   12.5006  -34.9731 H   0  0  0  0  0  0  0  0  0  0  0  0
   15.7626   12.6821  -36.7974 H   0  0  0  0  0  0  0  0  0  0  0  0
   17.4750   15.3633  -35.4585 N   0  0  0  0  0  0  0  0  0  0  0  0
   18.8127   15.3738  -35.5322 C   0  0  0  0  0  0  0  0  0  0  0  0
   19.2246   16.5577  -36.0059 N   0  0  0  0  0  0  0  0  0  0  0  0
   18.1455   17.3212  -36.2360 C   0  0  0  0  0  0  0  0  0  0  0  0
   17.8690   18.6707  -36.7556 C   0  0  0  0  0  0  0  0  0  0  0  0
   18.8698   19.4928  -37.1269 N   0  0  0  0  0  0  0  0  0  0  0  0
   16.5931   19.0828  -36.8168 N   0  0  0  0  0  0  0  0  0  0  0  0
   15.5751   18.2878  -36.4587 C   0  0  0  0  0  0  0  0  0  0  0  0
   15.7580   17.0462  -36.0111 N   0  0  0  0  0  0  0  0  0  0  0  0
   16.9891   16.5212  -35.8849 C   0  0  0  0  0  0  0  0  0  0  0  0
   19.8035   19.1843  -37.0796 H   0  0  0  0  0  0  0  0  0  0  0  0
   18.6674   20.4020  -37.4456 H   0  0  0  0  0  0  0  0  0  0  0  0
   17.4332   12.6975  -31.9753 C   0  0  0  0  0  0  0  0  0  0  0  0
   16.8678   11.7460  -31.0864 O   0  0  0  0  0  0  0  0  0  0  0  0
   16.5072   12.2266  -29.5975 P   0  0  0  0  0  0  0  0  0  0  0  0
   15.0046   12.2188  -29.4950 O   0  0  0  0  0  0  0  0  0  0  0  0
   17.1946   13.5344  -29.3922 O   0  0  0  0  0  0  0  0  0  0  0  0
   17.0032   13.8638  -28.5002 H   0  0  0  0  0  0  0  0  0  0  0  0
   17.1252   11.0441  -28.6788 O   0  0  0  0  0  0  0  0  0  0  0  0
   18.6900   10.7655  -28.3874 P   0  0  0  0  0  0  0  0  0  0  0  0
   19.0190   10.7153  -26.9136 O   0  0  0  0  0  0  0  0  0  0  0  0
   19.5876   11.6701  -29.1999 O   0  0  0  0  0  0  0  0  0  0  0  0
   20.5152   11.4721  -28.9970 H   0  0  0  0  0  0  0  0  0  0  0  0
   18.8599    9.2240  -28.8665 O   0  0  0  0  0  0  0  0  0  0  0  0
   18.6474    8.4961  -30.3015 P   0  0  0  0  0  0  0  0  0  0  0  0
   19.5911    9.3409  -31.1390 O   0  0  0  0  0  0  0  0  0  0  0  0
   19.0462    7.0399  -30.1424 O   0  0  0  0  0  0  0  0  0  0  0  0
   17.2074    8.7545  -30.6362 O   0  0  0  0  0  0  0  0  0  0  0  0
   18.9291    6.5785  -30.9876 H   0  0  0  0  0  0  0  0  0  0  0  0
   16.9959    8.3471  -31.4908 H   0  0  0  0  0  0  0  0  0  0  0  0
 34 35  2  0  0  0
 34 36  1  0  0  0
 34 37  1  0  0  0
 34 33  1  0  0  0
 29 30  2  0  0  0
 29 31  1  0  0  0
 29 33  1  0  0  0
 29 28  1  0  0  0
 24 25  2  0  0  0
 24 26  1  0  0  0
 24 28  1  0  0  0
 24 23  1  0  0  0
 23 22  1  0  0  0
 22  1  1  0  0  0
  1  2  1  0  0  0
  1  3  1  0  0  0
  2  7  1  0  0  0
  3  4  1  0  0  0
  3  5  1  0  0  0
  5  6  1  0  0  0
  5  7  1  0  0  0
  7 10  1  0  0  0
 10 11  1  0  0  0
 10 19  1  0  0  0
 11 12  2  0  0  0
 12 13  1  0  0  0
 13 14  1  0  0  0
 13 19  2  0  0  0
 14 15  1  0  0  0
 14 16  2  0  0  0
 16 17  1  0  0  0
 17 18  2  0  0  0
 18 19  1  0  0  0
 36 38  1  0  0  0
 37 39  1  0  0  0
 31 32  1  0  0  0
 26 27  1  0  0  0
  4  8  1  0  0  0
  6  9  1  0  0  0
 15 20  1  0  0  0
 15 21  1  0  0  0
M  END
> <minimizedAffinity>
-8.82881

$$$$
2VT3_ATP_A_302


 39 41  0  0  0  0  0  0  0  0999 V2000
   16.3147   13.0378  -33.1514 C   0  0  0  0  0  0  0  0  0  0  0  0
   16.5872   14.3506  -33.6003 O   0  0  0  0  0  0  0  0  0  0  0  0
   16.4074   12.1237  -34.3907 C   0  0  0  0  0  0  0  0  0  0  0  0
   15.0964   11.7789  -34.8856 O   0  0  0  0  0  0  0  0  0  0  0  0
   17.0894   12.9734  -35.4271 C   0  0  0  0  0  0  0  0  0  0  0  0
   16.7438   12.6647  -36.7704 O   0  0  0  0  0  0  0  0  0  0  0  0
   16.6013   14.3622  -35.0346 C   0  0  0  0  0  0  0  0  0  0  0  0
   14.6085   12.5893  -35.1005 H   0  0  0  0  0  0  0  0  0  0  0  0
   15.7851   12.7556  -36.8867 H   0  0  0  0  0  0  0  0  0  0  0  0
   17.4573   15.4422  -35.5083 N   0  0  0  0  0  0  0  0  0  0  0  0
   18.7960   15.4390  -35.5606 C   0  0  0  0  0  0  0  0  0  0  0  0
   19.2279   16.6219  -36.0188 N   0  0  0  0  0  0  0  0  0  0  0  0
   18.1607   17.3985  -36.2602 C   0  0  0  0  0  0  0  0  0  0  0  0
   17.9068   18.7547  -36.7739 C   0  0  0  0  0  0  0  0  0  0  0  0
   18.9221   19.5688  -37.1230 N   0  0  0  0  0  0  0  0  0  0  0  0
   16.6365   19.1808  -36.8522 N   0  0  0  0  0  0  0  0  0  0  0  0
   15.6045   18.3941  -36.5164 C   0  0  0  0  0  0  0  0  0  0  0  0
   15.7671   17.1474  -36.0753 N   0  0  0  0  0  0  0  0  0  0  0  0
   16.9905   16.6083  -35.9335 C   0  0  0  0  0  0  0  0  0  0  0  0
   19.8516   19.2499  -37.0632 H   0  0  0  0  0  0  0  0  0  0  0  0
   18.7344   20.4824  -37.4380 H   0  0  0  0  0  0  0  0  0  0  0  0
   17.2893   12.8007  -32.0103 C   0  0  0  0  0  0  0  0  0  0  0  0
   16.8497   11.6442  -31.3143 O   0  0  0  0  0  0  0  0  0  0  0  0
   17.8394   10.3815  -31.2500 P   0  0  0  0  0  0  0  0  0  0  0  0
   18.7249   10.4669  -32.4653 O   0  0  0  0  0  0  0  0  0  0  0  0
   16.9787    9.1701  -31.1213 O   0  0  0  0  0  0  0  0  0  0  0  0
   17.5383    8.3789  -31.0788 H   0  0  0  0  0  0  0  0  0  0  0  0
   18.7100   10.6750  -29.9159 O   0  0  0  0  0  0  0  0  0  0  0  0
   18.2022   10.5578  -28.3863 P   0  0  0  0  0  0  0  0  0  0  0  0
   18.8929    9.4574  -27.6148 O   0  0  0  0  0  0  0  0  0  0  0  0
   16.6941   10.5400  -28.2897 O   0  0  0  0  0  0  0  0  0  0  0  0
   16.4305   10.4690  -27.3589 H   0  0  0  0  0  0  0  0  0  0  0  0
   18.7942   11.9154  -27.7225 O   0  0  0  0  0  0  0  0  0  0  0  0
   18.7087   13.4749  -28.1641 P   0  0  0  0  0  0  0  0  0  0  0  0
   17.2167   13.5653  -28.4309 O   0  0  0  0  0  0  0  0  0  0  0  0
   19.2131   14.3108  -27.0016 O   0  0  0  0  0  0  0  0  0  0  0  0
   19.5155   13.5448  -29.4278 O   0  0  0  0  0  0  0  0  0  0  0  0
   19.1734   15.2507  -27.2379 H   0  0  0  0  0  0  0  0  0  0  0  0
   19.5151   14.4555  -29.7617 H   0  0  0  0  0  0  0  0  0  0  0  0
 34 35  2  0  0  0
 34 36  1  0  0  0
 34 37  1  0  0  0
 34 33  1  0  0  0
 29 30  2  0  0  0
 29 31  1  0  0  0
 29 33  1  0  0  0
 29 28  1  0  0  0
 24 25  2  0  0  0
 24 26  1  0  0  0
 24 28  1  0  0  0
 24 23  1  0  0  0
 23 22  1  0  0  0
 22  1  1  0  0  0
  1  2  1  0  0  0
  1  3  1  0  0  0
  2  7  1  0  0  0
  3  4  1  0  0  0
  3  5  1  0  0  0
  5  6  1  0  0  0
  5  7  1  0  0  0
  7 10  1  0  0  0
 10 11  1  0  0  0
 10 19  1  0  0  0
 11 12  2  0  0  0
 12 13  1  0  0  0
 13 14  1  0  0  0
 13 19  2  0  0  0
 14 15  1  0  0  0
 14 16  2  0  0  0
 16 17  1  0  0  0
 17 18  2  0  0  0
 18 19  1  0  0  0
 36 38  1  0  0  0
 37 39  1  0  0  0
 31 32  1  0  0  0
 26 27  1  0  0  0
  4  8  1  0  0  0
  6  9  1  0  0  0
 15 20  1  0  0  0
 15 21  1  0  0  0
M  END
> <minimizedAffinity>
-8.54460

$$$$
2VT3_ATP_A_302


 39 41  0  0  0  0  0  0  0  0999 V2000
   16.1736   13.1453  -33.1620 C   0  0  0  0  0  0  0  0  0  0  0  0
   16.4849   14.4309  -33.6614 O   0  0  0  0  0  0  0  0  0  0  0  0
   16.3413   12.1654  -34.3417 C   0  0  0  0  0  0  0  0  0  0  0  0
   15.0634   11.7995  -34.9034 O   0  0  0  0  0  0  0  0  0  0  0  0
   17.0966   12.9554  -35.3745 C   0  0  0  0  0  0  0  0  0  0  0  0
   16.8384   12.5761  -36.7194 O   0  0  0  0  0  0  0  0  0  0  0  0
   16.5939   14.3652  -35.0901 C   0  0  0  0  0  0  0  0  0  0  0  0
   14.5968   12.5989  -35.1933 H   0  0  0  0  0  0  0  0  0  0  0  0
   15.8902   12.6642  -36.9038 H   0  0  0  0  0  0  0  0  0  0  0  0
   17.4873   15.4148  -35.5631 N   0  0  0  0  0  0  0  0  0  0  0  0
   18.8247   15.3622  -35.6215 C   0  0  0  0  0  0  0  0  0  0  0  0
   19.2982   16.5303  -36.0765 N   0  0  0  0  0  0  0  0  0  0  0  0
   18.2595   17.3470  -36.3097 C   0  0  0  0  0  0  0  0  0  0  0  0
   18.0539   18.7140  -36.8164 C   0  0  0  0  0  0  0  0  0  0  0  0
   19.0971   19.4914  -37.1666 N   0  0  0  0  0  0  0  0  0  0  0  0
   16.7999   19.1873  -36.8872 N   0  0  0  0  0  0  0  0  0  0  0  0
   15.7409   18.4379  -36.5501 C   0  0  0  0  0  0  0  0  0  0  0  0
   15.8591   17.1840  -36.1151 N   0  0  0  0  0  0  0  0  0  0  0  0
   17.0622   16.5993  -35.9811 C   0  0  0  0  0  0  0  0  0  0  0  0
   20.0144   19.1381  -37.1124 H   0  0  0  0  0  0  0  0  0  0  0  0
   18.9420   20.4129  -37.4768 H   0  0  0  0  0  0  0  0  0  0  0  0
   17.0689   12.9664  -31.9477 C   0  0  0  0  0  0  0  0  0  0  0  0
   16.8870   11.6376  -31.4823 O   0  0  0  0  0  0  0  0  0  0  0  0
   17.0499   11.3610  -29.9091 P   0  0  0  0  0  0  0  0  0  0  0  0
   17.3189    9.8869  -29.7572 O   0  0  0  0  0  0  0  0  0  0  0  0
   15.8236   11.8983  -29.2514 O   0  0  0  0  0  0  0  0  0  0  0  0
   15.8795   11.7517  -28.2942 H   0  0  0  0  0  0  0  0  0  0  0  0
   18.3816   12.2027  -29.5324 O   0  0  0  0  0  0  0  0  0  0  0  0
   18.8249   12.7010  -28.0606 P   0  0  0  0  0  0  0  0  0  0  0  0
   18.0347   12.0481  -26.9505 O   0  0  0  0  0  0  0  0  0  0  0  0
   18.9035   14.2077  -27.9722 O   0  0  0  0  0  0  0  0  0  0  0  0
   19.1717   14.4654  -27.0763 H   0  0  0  0  0  0  0  0  0  0  0  0
   20.3034   12.0490  -27.9076 O   0  0  0  0  0  0  0  0  0  0  0  0
   20.8207   10.5110  -27.8685 P   0  0  0  0  0  0  0  0  0  0  0  0
   22.3176   10.7641  -27.8383 O   0  0  0  0  0  0  0  0  0  0  0  0
   20.2455    9.8636  -26.6216 O   0  0  0  0  0  0  0  0  0  0  0  0
   20.3694    9.9369  -29.1798 O   0  0  0  0  0  0  0  0  0  0  0  0
   20.5391    8.9404  -26.5719 H   0  0  0  0  0  0  0  0  0  0  0  0
   20.6425    9.0079  -29.2371 H   0  0  0  0  0  0  0  0  0  0  0  0
 34 35  2  0  0  0
 34 36  1  0  0  0
 34 37  1  0  0  0
 34 33  1  0  0  0
 29 30  2  0  0  0
 29 31  1  0  0  0
 29 33  1  0  0  0
 29 28  1  0  0  0
 24 25  2  0  0  0
 24 26  1  0  0  0
 24 28  1  0  0  0
 24 23  1  0  0  0
 23 22  1  0  0  0
 22  1  1  0  0  0
  1  2  1  0  0  0
  1  3  1  0  0  0
  2  7  1  0  0  0
  3  4  1  0  0  0
  3  5  1  0  0  0
  5  6  1  0  0  0
  5  7  1  0  0  0
  7 10  1  0  0  0
 10 11  1  0  0  0
 10 19  1  0  0  0
 11 12  2  0  0  0
 12 13  1  0  0  0
 13 14  1  0  0  0
 13 19  2  0  0  0
 14 15  1  0  0  0
 14 16  2  0  0  0
 16 17  1  0  0  0
 17 18  2  0  0  0
 18 19  1  0  0  0
 36 38  1  0  0  0
 37 39  1  0  0  0
 31 32  1  0  0  0
 26 27  1  0  0  0
  4  8  1  0  0  0
  6  9  1  0  0  0
 15 20  1  0  0  0
 15 21  1  0  0  0
M  END
> <minimizedAffinity>
-8.40990

$$$$
2VT3_ATP_A_302


 39 41  0  0  0  0  0  0  0  0999 V2000
   16.6827   12.3768  -31.3101 C   0  0  0  0  0  0  0  0  0  0  0  0
   17.3123   11.1233  -31.4869 O   0  0  0  0  0  0  0  0  0  0  0  0
   16.4040   12.5172  -29.7993 C   0  0  0  0  0  0  0  0  0  0  0  0
   15.0192   12.2476  -29.4956 O   0  0  0  0  0  0  0  0  0  0  0  0
   17.2394   11.4383  -29.1671 C   0  0  0  0  0  0  0  0  0  0  0  0
   16.7228   10.9243  -27.9472 O   0  0  0  0  0  0  0  0  0  0  0  0
   17.2290   10.3800  -30.2629 C   0  0  0  0  0  0  0  0  0  0  0  0
   14.7893   11.3555  -29.7991 H   0  0  0  0  0  0  0  0  0  0  0  0
   15.8324   10.5698  -28.0969 H   0  0  0  0  0  0  0  0  0  0  0  0
   18.3394    9.4397  -30.1830 N   0  0  0  0  0  0  0  0  0  0  0  0
   19.4257    9.5471  -29.4061 C   0  0  0  0  0  0  0  0  0  0  0  0
   20.2423    8.5095  -29.6343 N   0  0  0  0  0  0  0  0  0  0  0  0
   19.6827    7.7270  -30.5697 C   0  0  0  0  0  0  0  0  0  0  0  0
   20.0054    6.4645  -31.2549 C   0  0  0  0  0  0  0  0  0  0  0  0
   21.1493    5.8024  -30.9931 N   0  0  0  0  0  0  0  0  0  0  0  0
   19.1495    6.0026  -32.1798 N   0  0  0  0  0  0  0  0  0  0  0  0
   18.0017    6.6357  -32.4602 C   0  0  0  0  0  0  0  0  0  0  0  0
   17.6382    7.7642  -31.8523 N   0  0  0  0  0  0  0  0  0  0  0  0
   18.4169    8.3399  -30.9199 C   0  0  0  0  0  0  0  0  0  0  0  0
   21.7728    6.1466  -30.3134 H   0  0  0  0  0  0  0  0  0  0  0  0
   21.3616    4.9743  -31.4814 H   0  0  0  0  0  0  0  0  0  0  0  0
   17.6151   13.3823  -31.9642 C   0  0  0  0  0  0  0  0  0  0  0  0
   17.7140   13.0342  -33.3369 O   0  0  0  0  0  0  0  0  0  0  0  0
   16.6954   13.7281  -34.3658 P   0  0  0  0  0  0  0  0  0  0  0  0
   16.7784   15.2115  -34.1189 O   0  0  0  0  0  0  0  0  0  0  0  0
   15.3688   13.0787  -34.1574 O   0  0  0  0  0  0  0  0  0  0  0  0
   14.7189   13.4695  -34.7622 H   0  0  0  0  0  0  0  0  0  0  0  0
   17.3450   13.3753  -35.8072 O   0  0  0  0  0  0  0  0  0  0  0  0
   17.1165   12.0251  -36.6650 P   0  0  0  0  0  0  0  0  0  0  0  0
   17.7196   12.0923  -38.0487 O   0  0  0  0  0  0  0  0  0  0  0  0
   15.6761   11.5687  -36.6302 O   0  0  0  0  0  0  0  0  0  0  0  0
   15.5810   10.7584  -37.1550 H   0  0  0  0  0  0  0  0  0  0  0  0
   18.0646   10.9603  -35.8893 O   0  0  0  0  0  0  0  0  0  0  0  0
   17.7301    9.6423  -35.0032 P   0  0  0  0  0  0  0  0  0  0  0  0
   17.1088    8.7786  -36.0865 O   0  0  0  0  0  0  0  0  0  0  0  0
   19.0389    9.1273  -34.4320 O   0  0  0  0  0  0  0  0  0  0  0  0
   16.7146   10.1172  -34.0053 O   0  0  0  0  0  0  0  0  0  0  0  0
   18.8690    8.3370  -33.8959 H   0  0  0  0  0  0  0  0  0  0  0  0
   16.4581    9.3801  -33.4292 H   0  0  0  0  0  0  0  0  0  0  0  0
 34 35  2  0  0  0
 34 36  1  0  0  0
 34 37  1  0  0  0
 34 33  1  0  0  0
 29 30  2  0  0  0
 29 31  1  0  0  0
 29 33  1  0  0  0
 29 28  1  0  0  0
 24 25  2  0  0  0
 24 26  1  0  0  0
 24 28  1  0  0  0
 24 23  1  0  0  0
 23 22  1  0  0  0
 22  1  1  0  0  0
  1  2  1  0  0  0
  1  3  1  0  0  0
  2  7  1  0  0  0
  3  4  1  0  0  0
  3  5  1  0  0  0
  5  6  1  0  0  0
  5  7  1  0  0  0
  7 10  1  0  0  0
 10 11  1  0  0  0
 10 19  1  0  0  0
 11 12  2  0  0  0
 12 13  1  0  0  0
 13 14  1  0  0  0
 13 19  2  0  0  0
 14 15  1  0  0  0
 14 16  2  0  0  0
 16 17  1  0  0  0
 17 18  2  0  0  0
 18 19  1  0  0  0
 36 38  1  0  0  0
 37 39  1  0  0  0
 31 32  1  0  0  0
 26 27  1  0  0  0
  4  8  1  0  0  0
  6  9  1  0  0  0
 15 20  1  0  0  0
 15 21  1  0  0  0
M  END
> <minimizedAffinity>
-7.92099

$$$$
2VT3_ATP_A_302


 39 41  0  0  0  0  0  0  0  0999 V2000
   19.6751   13.7949  -28.3201 C   0  0  0  0  0  0  0  0  0  0  0  0
   19.7645   13.5193  -29.7040 O   0  0  0  0  0  0  0  0  0  0  0  0
   18.1986   13.5832  -27.9264 C   0  0  0  0  0  0  0  0  0  0  0  0
   17.5059   14.8426  -27.7973 O   0  0  0  0  0  0  0  0  0  0  0  0
   17.6069   12.8423  -29.0936 C   0  0  0  0  0  0  0  0  0  0  0  0
   16.2207   13.0736  -29.3039 O   0  0  0  0  0  0  0  0  0  0  0  0
   18.4413   13.3927  -30.2432 C   0  0  0  0  0  0  0  0  0  0  0  0
   17.5650   15.3313  -28.6331 H   0  0  0  0  0  0  0  0  0  0  0  0
   16.0679   14.0221  -29.4379 H   0  0  0  0  0  0  0  0  0  0  0  0
   18.4699   12.5281  -31.4159 N   0  0  0  0  0  0  0  0  0  0  0  0
   19.3823   11.5879  -31.6959 C   0  0  0  0  0  0  0  0  0  0  0  0
   19.0964   11.0262  -32.8784 N   0  0  0  0  0  0  0  0  0  0  0  0
   17.9933   11.6106  -33.3700 C   0  0  0  0  0  0  0  0  0  0  0  0
   17.1436   11.4795  -34.5652 C   0  0  0  0  0  0  0  0  0  0  0  0
   17.4320   10.5845  -35.5301 N   0  0  0  0  0  0  0  0  0  0  0  0
   16.0901   12.3012  -34.6935 N   0  0  0  0  0  0  0  0  0  0  0  0
   15.7744   13.1992  -33.7498 C   0  0  0  0  0  0  0  0  0  0  0  0
   16.4847   13.3444  -32.6319 N   0  0  0  0  0  0  0  0  0  0  0  0
   17.5746   12.5948  -32.3919 C   0  0  0  0  0  0  0  0  0  0  0  0
   18.2062    9.9847  -35.4298 H   0  0  0  0  0  0  0  0  0  0  0  0
   16.8684   10.5303  -36.3356 H   0  0  0  0  0  0  0  0  0  0  0  0
   20.7247   12.9077  -27.6725 C   0  0  0  0  0  0  0  0  0  0  0  0
   20.9251   11.7959  -28.5321 O   0  0  0  0  0  0  0  0  0  0  0  0
   20.8096   10.3243  -27.9006 P   0  0  0  0  0  0  0  0  0  0  0  0
   19.7065   10.3810  -26.8768 O   0  0  0  0  0  0  0  0  0  0  0  0
   22.1712    9.9609  -27.4117 O   0  0  0  0  0  0  0  0  0  0  0  0
   22.1480    9.0739  -27.0199 H   0  0  0  0  0  0  0  0  0  0  0  0
   20.3387    9.4270  -29.1644 O   0  0  0  0  0  0  0  0  0  0  0  0
   18.9517    8.6099  -29.3051 P   0  0  0  0  0  0  0  0  0  0  0  0
   17.7517    9.5073  -29.4986 O   0  0  0  0  0  0  0  0  0  0  0  0
   18.7912    7.5742  -28.2163 O   0  0  0  0  0  0  0  0  0  0  0  0
   17.9495    7.1072  -28.3357 H   0  0  0  0  0  0  0  0  0  0  0  0
   19.1226    7.8886  -30.7491 O   0  0  0  0  0  0  0  0  0  0  0  0
   18.0657    7.5511  -31.9338 P   0  0  0  0  0  0  0  0  0  0  0  0
   18.1989    6.0386  -31.9478 O   0  0  0  0  0  0  0  0  0  0  0  0
   16.7091    8.0804  -31.5049 O   0  0  0  0  0  0  0  0  0  0  0  0
   18.6665    8.1841  -33.1549 O   0  0  0  0  0  0  0  0  0  0  0  0
   16.0552    7.8921  -32.1963 H   0  0  0  0  0  0  0  0  0  0  0  0
   18.0889    8.0266  -33.9181 H   0  0  0  0  0  0  0  0  0  0  0  0
 34 35  2  0  0  0
 34 36  1  0  0  0
 34 37  1  0  0  0
 34 33  1  0  0  0
 29 30  2  0  0  0
 29 31  1  0  0  0
 29 33  1  0  0  0
 29 28  1  0  0  0
 24 25  2  0  0  0
 24 26  1  0  0  0
 24 28  1  0  0  0
 24 23  1  0  0  0
 23 22  1  0  0  0
 22  1  1  0  0  0
  1  2  1  0  0  0
  1  3  1  0  0  0
  2  7  1  0  0  0
  3  4  1  0  0  0
  3  5  1  0  0  0
  5  6  1  0  0  0
  5  7  1  0  0  0
  7 10  1  0  0  0
 10 11  1  0  0  0
 10 19  1  0  0  0
 11 12  2  0  0  0
 12 13  1  0  0  0
 13 14  1  0  0  0
 13 19  2  0  0  0
 14 15  1  0  0  0
 14 16  2  0  0  0
 16 17  1  0  0  0
 17 18  2  0  0  0
 18 19  1  0  0  0
 36 38  1  0  0  0
 37 39  1  0  0  0
 31 32  1  0  0  0
 26 27  1  0  0  0
  4  8  1  0  0  0
  6  9  1  0  0  0
 15 20  1  0  0  0
 15 21  1  0  0  0
M  END
> <minimizedAffinity>
-7.80174

$$$$
2VT3_ATP_A_302


 39 41  0  0  0  0  0  0  0  0999 V2000
   16.4407   12.9044  -33.1412 C   0  0  0  0  0  0  0  0  0  0  0  0
   16.8617   14.1942  -33.5389 O   0  0  0  0  0  0  0  0  0  0  0  0
   16.3861   12.0475  -34.4228 C   0  0  0  0  0  0  0  0  0  0  0  0
   15.0297   11.8906  -34.8898 O   0  0  0  0  0  0  0  0  0  0  0  0
   17.1401   12.8569  -35.4415 C   0  0  0  0  0  0  0  0  0  0  0  0
   16.7231   12.6589  -36.7854 O   0  0  0  0  0  0  0  0  0  0  0  0
   16.8387   14.2742  -34.9709 C   0  0  0  0  0  0  0  0  0  0  0  0
   14.6404   12.7642  -35.0518 H   0  0  0  0  0  0  0  0  0  0  0  0
   15.7803   12.8722  -36.8662 H   0  0  0  0  0  0  0  0  0  0  0  0
   17.8089   15.2630  -35.4230 N   0  0  0  0  0  0  0  0  0  0  0  0
   17.5609   16.5397  -35.7447 C   0  0  0  0  0  0  0  0  0  0  0  0
   18.6953   17.1265  -36.1501 N   0  0  0  0  0  0  0  0  0  0  0  0
   19.6842   16.2214  -36.0951 C   0  0  0  0  0  0  0  0  0  0  0  0
   21.1312   16.1859  -36.3649 C   0  0  0  0  0  0  0  0  0  0  0  0
   21.7833   17.2766  -36.8128 N   0  0  0  0  0  0  0  0  0  0  0  0
   21.7853   15.0270  -36.1908 N   0  0  0  0  0  0  0  0  0  0  0  0
   21.1663   13.9257  -35.7428 C   0  0  0  0  0  0  0  0  0  0  0  0
   19.8665   13.9023  -35.4509 N   0  0  0  0  0  0  0  0  0  0  0  0
   19.0951   14.9932  -35.6003 C   0  0  0  0  0  0  0  0  0  0  0  0
   21.2975   18.1236  -36.9383 H   0  0  0  0  0  0  0  0  0  0  0  0
   22.7456   17.2265  -37.0146 H   0  0  0  0  0  0  0  0  0  0  0  0
   17.4086   12.4942  -32.0444 C   0  0  0  0  0  0  0  0  0  0  0  0
   16.8450   11.3715  -31.3833 O   0  0  0  0  0  0  0  0  0  0  0  0
   17.7480   10.0522  -31.2354 P   0  0  0  0  0  0  0  0  0  0  0  0
   18.5865    9.9626  -32.4833 O   0  0  0  0  0  0  0  0  0  0  0  0
   16.8128    8.9223  -30.9637 O   0  0  0  0  0  0  0  0  0  0  0  0
   17.3185    8.1003  -30.8667 H   0  0  0  0  0  0  0  0  0  0  0  0
   18.6910   10.4028  -29.9657 O   0  0  0  0  0  0  0  0  0  0  0  0
   18.2403   10.4610  -28.4151 P   0  0  0  0  0  0  0  0  0  0  0  0
   18.9798    9.4716  -27.5450 O   0  0  0  0  0  0  0  0  0  0  0  0
   16.7372   10.4312  -28.2603 O   0  0  0  0  0  0  0  0  0  0  0  0
   16.5083   10.4677  -27.3184 H   0  0  0  0  0  0  0  0  0  0  0  0
   18.8280   11.8974  -27.9398 O   0  0  0  0  0  0  0  0  0  0  0  0
   18.4797   13.4203  -28.3800 P   0  0  0  0  0  0  0  0  0  0  0  0
   19.4856   13.5783  -29.5065 O   0  0  0  0  0  0  0  0  0  0  0  0
   17.0216   13.4557  -28.8007 O   0  0  0  0  0  0  0  0  0  0  0  0
   18.8413   14.2431  -27.1780 O   0  0  0  0  0  0  0  0  0  0  0  0
   16.7845   14.3570  -29.0700 H   0  0  0  0  0  0  0  0  0  0  0  0
   18.6609   15.1786  -27.3604 H   0  0  0  0  0  0  0  0  0  0  0  0
 34 35  2  0  0  0
 34 36  1  0  0  0
 34 37  1  0  0  0
 34 33  1  0  0  0
 29 30  2  0  0  0
 29 31  1  0  0  0
 29 33  1  0  0  0
 29 28  1  0  0  0
 24 25  2  0  0  0
 24 26  1  0  0  0
 24 28  1  0  0  0
 24 23  1  0  0  0
 23 22  1  0  0  0
 22  1  1  0  0  0
  1  2  1  0  0  0
  1  3  1  0  0  0
  2  7  1  0  0  0
  3  4  1  0  0  0
  3  5  1  0  0  0
  5  6  1  0  0  0
  5  7  1  0  0  0
  7 10  1  0  0  0
 10 11  1  0  0  0
 10 19  1  0  0  0
 11 12  2  0  0  0
 12 13  1  0  0  0
 13 14  1  0  0  0
 13 19  2  0  0  0
 14 15  1  0  0  0
 14 16  2  0  0  0
 16 17  1  0  0  0
 17 18  2  0  0  0
 18 19  1  0  0  0
 36 38  1  0  0  0
 37 39  1  0  0  0
 31 32  1  0  0  0
 26 27  1  0  0  0
  4  8  1  0  0  0
  6  9  1  0  0  0
 15 20  1  0  0  0
 15 21  1  0  0  0
M  END
> <minimizedAffinity>
-7.62265

$$$$
2VT3_ATP_A_302


 39 41  0  0  0  0  0  0  0  0999 V2000
   17.7100   12.2203  -31.1610 C   0  0  0  0  0  0  0  0  0  0  0  0
   18.9529   12.6234  -30.6207 O   0  0  0  0  0  0  0  0  0  0  0  0
   16.8351   11.7843  -29.9676 C   0  0  0  0  0  0  0  0  0  0  0  0
   16.7803   10.3465  -29.8568 O   0  0  0  0  0  0  0  0  0  0  0  0
   17.5596   12.3183  -28.7629 C   0  0  0  0  0  0  0  0  0  0  0  0
   17.3696   11.5656  -27.5727 O   0  0  0  0  0  0  0  0  0  0  0  0
   19.0059   12.2499  -29.2368 C   0  0  0  0  0  0  0  0  0  0  0  0
   17.6794    9.9951  -29.7615 H   0  0  0  0  0  0  0  0  0  0  0  0
   17.6576   10.6510  -27.7190 H   0  0  0  0  0  0  0  0  0  0  0  0
   19.9028   13.1473  -28.5201 N   0  0  0  0  0  0  0  0  0  0  0  0
   19.5544   14.0816  -27.6254 C   0  0  0  0  0  0  0  0  0  0  0  0
   20.6497   14.7316  -27.2089 N   0  0  0  0  0  0  0  0  0  0  0  0
   21.7147   14.2174  -27.8426 C   0  0  0  0  0  0  0  0  0  0  0  0
   23.1715   14.4301  -27.8521 C   0  0  0  0  0  0  0  0  0  0  0  0
   23.7424   15.3765  -27.0815 N   0  0  0  0  0  0  0  0  0  0  0  0
   23.9209   13.6830  -28.6777 N   0  0  0  0  0  0  0  0  0  0  0  0
   23.3839   12.7311  -29.4537 C   0  0  0  0  0  0  0  0  0  0  0  0
   22.0775   12.4690  -29.4668 N   0  0  0  0  0  0  0  0  0  0  0  0
   21.2166   13.1599  -28.6994 C   0  0  0  0  0  0  0  0  0  0  0  0
   23.1869   15.9210  -26.4781 H   0  0  0  0  0  0  0  0  0  0  0  0
   24.7150   15.5234  -27.1219 H   0  0  0  0  0  0  0  0  0  0  0  0
   17.2440   13.3980  -32.0000 C   0  0  0  0  0  0  0  0  0  0  0  0
   16.1187   12.9632  -32.7483 O   0  0  0  0  0  0  0  0  0  0  0  0
   16.2322   12.9649  -34.3498 P   0  0  0  0  0  0  0  0  0  0  0  0
   16.0365   14.3908  -34.7934 O   0  0  0  0  0  0  0  0  0  0  0  0
   15.2509   11.9583  -34.8489 O   0  0  0  0  0  0  0  0  0  0  0  0
   15.2856   11.9257  -35.8177 H   0  0  0  0  0  0  0  0  0  0  0  0
   17.7689   12.5186  -34.6015 O   0  0  0  0  0  0  0  0  0  0  0  0
   18.7158   12.9679  -35.8314 P   0  0  0  0  0  0  0  0  0  0  0  0
   20.1628   12.5777  -35.6391 O   0  0  0  0  0  0  0  0  0  0  0  0
   18.5017   14.4148  -36.2121 O   0  0  0  0  0  0  0  0  0  0  0  0
   19.0864   14.6445  -36.9512 H   0  0  0  0  0  0  0  0  0  0  0  0
   18.2149   11.9901  -37.0261 O   0  0  0  0  0  0  0  0  0  0  0  0
   17.9352   10.3924  -37.0856 P   0  0  0  0  0  0  0  0  0  0  0  0
   16.4208   10.4118  -36.9767 O   0  0  0  0  0  0  0  0  0  0  0  0
   18.4856    9.8775  -38.4033 O   0  0  0  0  0  0  0  0  0  0  0  0
   18.5858    9.8578  -35.8432 O   0  0  0  0  0  0  0  0  0  0  0  0
   18.3319    8.9219  -38.4666 H   0  0  0  0  0  0  0  0  0  0  0  0
   18.4629    8.8965  -35.8019 H   0  0  0  0  0  0  0  0  0  0  0  0
 34 35  2  0  0  0
 34 36  1  0  0  0
 34 37  1  0  0  0
 34 33  1  0  0  0
 29 30  2  0  0  0
 29 31  1  0  0  0
 29 33  1  0  0  0
 29 28  1  0  0  0
 24 25  2  0  0  0
 24 26  1  0  0  0
 24 28  1  0  0  0
 24 23  1  0  0  0
 23 22  1  0  0  0
 22  1  1  0  0  0
  1  2  1  0  0  0
  1  3  1  0  0  0
  2  7  1  0  0  0
  3  4  1  0  0  0
  3  5  1  0  0  0
  5  6  1  0  0  0
  5  7  1  0  0  0
  7 10  1  0  0  0
 10 11  1  0  0  0
 10 19  1  0  0  0
 11 12  2  0  0  0
 12 13  1  0  0  0
 13 14  1  0  0  0
 13 19  2  0  0  0
 14 15  1  0  0  0
 14 16  2  0  0  0
 16 17  1  0  0  0
 17 18  2  0  0  0
 18 19  1  0  0  0
 36 38  1  0  0  0
 37 39  1  0  0  0
 31 32  1  0  0  0
 26 27  1  0  0  0
  4  8  1  0  0  0
  6  9  1  0  0  0
 15 20  1  0  0  0
 15 21  1  0  0  0
M  END
> <minimizedAffinity>
-7.59642

$$$$
2VT3_ATP_A_302


 39 41  0  0  0  0  0  0  0  0999 V2000
   20.1740    9.5059  -31.9931 C   0  0  0  0  0  0  0  0  0  0  0  0
   20.2027   10.5046  -30.9927 O   0  0  0  0  0  0  0  0  0  0  0  0
   18.7869    8.8367  -31.9035 C   0  0  0  0  0  0  0  0  0  0  0  0
   18.8622    7.5657  -31.2243 O   0  0  0  0  0  0  0  0  0  0  0  0
   17.9779    9.7747  -31.0509 C   0  0  0  0  0  0  0  0  0  0  0  0
   16.9460    9.1530  -30.2972 O   0  0  0  0  0  0  0  0  0  0  0  0
   19.0575   10.3500  -30.1429 C   0  0  0  0  0  0  0  0  0  0  0  0
   19.2320    7.6947  -30.3369 H   0  0  0  0  0  0  0  0  0  0  0  0
   17.3307    8.4745  -29.7206 H   0  0  0  0  0  0  0  0  0  0  0  0
   18.7066   11.6356  -29.5533 N   0  0  0  0  0  0  0  0  0  0  0  0
   17.6915   12.4320  -29.9142 C   0  0  0  0  0  0  0  0  0  0  0  0
   17.7098   13.5448  -29.1679 N   0  0  0  0  0  0  0  0  0  0  0  0
   18.7476   13.4704  -28.3208 C   0  0  0  0  0  0  0  0  0  0  0  0
   19.3272   14.2965  -27.2487 C   0  0  0  0  0  0  0  0  0  0  0  0
   18.7933   15.4899  -26.9230 N   0  0  0  0  0  0  0  0  0  0  0  0
   20.4283   13.8513  -26.6235 N   0  0  0  0  0  0  0  0  0  0  0  0
   20.9809   12.6671  -26.9215 C   0  0  0  0  0  0  0  0  0  0  0  0
   20.4854   11.8601  -27.8588 N   0  0  0  0  0  0  0  0  0  0  0  0
   19.3963   12.1987  -28.5706 C   0  0  0  0  0  0  0  0  0  0  0  0
   17.9855   15.8105  -27.3855 H   0  0  0  0  0  0  0  0  0  0  0  0
   19.2110   16.0413  -26.2225 H   0  0  0  0  0  0  0  0  0  0  0  0
   20.5418   10.2256  -33.2796 C   0  0  0  0  0  0  0  0  0  0  0  0
   20.0505   11.5533  -33.1749 O   0  0  0  0  0  0  0  0  0  0  0  0
   18.9617   12.0411  -34.2493 P   0  0  0  0  0  0  0  0  0  0  0  0
   18.3525   10.7967  -34.8397 O   0  0  0  0  0  0  0  0  0  0  0  0
   19.6686   12.9611  -35.1867 O   0  0  0  0  0  0  0  0  0  0  0  0
   19.0449   13.2819  -35.8568 H   0  0  0  0  0  0  0  0  0  0  0  0
   17.8673   12.8041  -33.3305 O   0  0  0  0  0  0  0  0  0  0  0  0
   16.4013   13.3049  -33.7901 P   0  0  0  0  0  0  0  0  0  0  0  0
   15.4137   13.3749  -32.6487 O   0  0  0  0  0  0  0  0  0  0  0  0
   15.9027   12.5581  -35.0058 O   0  0  0  0  0  0  0  0  0  0  0  0
   15.0231   12.8868  -35.2489 H   0  0  0  0  0  0  0  0  0  0  0  0
   16.6692   14.8633  -34.1558 O   0  0  0  0  0  0  0  0  0  0  0  0
   17.0035   15.6156  -35.5547 P   0  0  0  0  0  0  0  0  0  0  0  0
   15.6488   16.2510  -35.8128 O   0  0  0  0  0  0  0  0  0  0  0  0
   18.1390   16.5888  -35.2940 O   0  0  0  0  0  0  0  0  0  0  0  0
   17.2971   14.4983  -36.5129 O   0  0  0  0  0  0  0  0  0  0  0  0
   18.3609   17.0543  -36.1156 H   0  0  0  0  0  0  0  0  0  0  0  0
   17.5093   14.8673  -37.3845 H   0  0  0  0  0  0  0  0  0  0  0  0
 34 35  2  0  0  0
 34 36  1  0  0  0
 34 37  1  0  0  0
 34 33  1  0  0  0
 29 30  2  0  0  0
 29 31  1  0  0  0
 29 33  1  0  0  0
 29 28  1  0  0  0
 24 25  2  0  0  0
 24 26  1  0  0  0
 24 28  1  0  0  0
 24 23  1  0  0  0
 23 22  1  0  0  0
 22  1  1  0  0  0
  1  2  1  0  0  0
  1  3  1  0  0  0
  2  7  1  0  0  0
  3  4  1  0  0  0
  3  5  1  0  0  0
  5  6  1  0  0  0
  5  7  1  0  0  0
  7 10  1  0  0  0
 10 11  1  0  0  0
 10 19  1  0  0  0
 11 12  2  0  0  0
 12 13  1  0  0  0
 13 14  1  0  0  0
 13 19  2  0  0  0
 14 15  1  0  0  0
 14 16  2  0  0  0
 16 17  1  0  0  0
 17 18  2  0  0  0
 18 19  1  0  0  0
 36 38  1  0  0  0
 37 39  1  0  0  0
 31 32  1  0  0  0
 26 27  1  0  0  0
  4  8  1  0  0  0
  6  9  1  0  0  0
 15 20  1  0  0  0
 15 21  1  0  0  0
M  END
> <minimizedAffinity>
-7.55317

$$$$
2VT3_ATP_A_302


 39 41  0  0  0  0  0  0  0  0999 V2000
   20.2814    8.3703  -32.3482 C   0  0  0  0  0  0  0  0  0  0  0  0
   20.0772    9.6436  -31.7684 O   0  0  0  0  0  0  0  0  0  0  0  0
   19.8119    7.3346  -31.3057 C   0  0  0  0  0  0  0  0  0  0  0  0
   20.9325    6.7396  -30.6181 O   0  0  0  0  0  0  0  0  0  0  0  0
   19.0276    8.1423  -30.3088 C   0  0  0  0  0  0  0  0  0  0  0  0
   19.0326    7.6222  -28.9864 O   0  0  0  0  0  0  0  0  0  0  0  0
   19.7525    9.4803  -30.3808 C   0  0  0  0  0  0  0  0  0  0  0  0
   21.4555    7.4353  -30.1899 H   0  0  0  0  0  0  0  0  0  0  0  0
   19.9467    7.5539  -28.6693 H   0  0  0  0  0  0  0  0  0  0  0  0
   18.9498   10.6092  -29.9284 N   0  0  0  0  0  0  0  0  0  0  0  0
   17.6408   10.7982  -30.1423 C   0  0  0  0  0  0  0  0  0  0  0  0
   17.2648   11.9672  -29.6058 N   0  0  0  0  0  0  0  0  0  0  0  0
   18.3397   12.5416  -29.0446 C   0  0  0  0  0  0  0  0  0  0  0  0
   18.6369   13.7721  -28.2928 C   0  0  0  0  0  0  0  0  0  0  0  0
   17.6750   14.6789  -28.0325 N   0  0  0  0  0  0  0  0  0  0  0  0
   19.9020   13.9923  -27.9021 N   0  0  0  0  0  0  0  0  0  0  0  0
   20.8804   13.1082  -28.1421 C   0  0  0  0  0  0  0  0  0  0  0  0
   20.6691   11.9627  -28.7890 N   0  0  0  0  0  0  0  0  0  0  0  0
   19.4498   11.6324  -29.2489 C   0  0  0  0  0  0  0  0  0  0  0  0
   16.7491   14.5112  -28.3219 H   0  0  0  0  0  0  0  0  0  0  0  0
   17.8981   15.5092  -27.5529 H   0  0  0  0  0  0  0  0  0  0  0  0
   19.5576    8.4239  -33.6828 C   0  0  0  0  0  0  0  0  0  0  0  0
   18.9761    9.7140  -33.7953 O   0  0  0  0  0  0  0  0  0  0  0  0
   17.4051    9.8076  -34.1134 P   0  0  0  0  0  0  0  0  0  0  0  0
   16.7160    8.8702  -33.1570 O   0  0  0  0  0  0  0  0  0  0  0  0
   17.2466    9.5283  -35.5700 O   0  0  0  0  0  0  0  0  0  0  0  0
   16.3073    9.5746  -35.8078 H   0  0  0  0  0  0  0  0  0  0  0  0
   17.0515   11.3408  -33.7283 O   0  0  0  0  0  0  0  0  0  0  0  0
   16.1697   12.3767  -34.6005 P   0  0  0  0  0  0  0  0  0  0  0  0
   15.3669   13.3340  -33.7507 O   0  0  0  0  0  0  0  0  0  0  0  0
   15.3743   11.6764  -35.6780 O   0  0  0  0  0  0  0  0  0  0  0  0
   14.8605   12.3303  -36.1772 H   0  0  0  0  0  0  0  0  0  0  0  0
   17.3086   13.3231  -35.2650 O   0  0  0  0  0  0  0  0  0  0  0  0
   18.3835   13.0686  -36.4541 P   0  0  0  0  0  0  0  0  0  0  0  0
   19.0522   14.4318  -36.4663 O   0  0  0  0  0  0  0  0  0  0  0  0
   19.2720   11.9124  -36.0316 O   0  0  0  0  0  0  0  0  0  0  0  0
   17.5378   12.8414  -37.6730 O   0  0  0  0  0  0  0  0  0  0  0  0
   19.9266   11.7372  -36.7257 H   0  0  0  0  0  0  0  0  0  0  0  0
   18.1110   12.6796  -38.4387 H   0  0  0  0  0  0  0  0  0  0  0  0
 34 35  2  0  0  0
 34 36  1  0  0  0
 34 37  1  0  0  0
 34 33  1  0  0  0
 29 30  2  0  0  0
 29 31  1  0  0  0
 29 33  1  0  0  0
 29 28  1  0  0  0
 24 25  2  0  0  0
 24 26  1  0  0  0
 24 28  1  0  0  0
 24 23  1  0  0  0
 23 22  1  0  0  0
 22  1  1  0  0  0
  1  2  1  0  0  0
  1  3  1  0  0  0
  2  7  1  0  0  0
  3  4  1  0  0  0
  3  5  1  0  0  0
  5  6  1  0  0  0
  5  7  1  0  0  0
  7 10  1  0  0  0
 10 11  1  0  0  0
 10 19  1  0  0  0
 11 12  2  0  0  0
 12 13  1  0  0  0
 13 14  1  0  0  0
 13 19  2  0  0  0
 14 15  1  0  0  0
 14 16  2  0  0  0
 16 17  1  0  0  0
 17 18  2  0  0  0
 18 19  1  0  0  0
 36 38  1  0  0  0
 37 39  1  0  0  0
 31 32  1  0  0  0
 26 27  1  0  0  0
  4  8  1  0  0  0
  6  9  1  0  0  0
 15 20  1  0  0  0
 15 21  1  0  0  0
M  END
> <minimizedAffinity>
-7.48794

$$$$
