4IWZ_1GO_A_301


 21 22  0  0  0  0  0  0  0  0999 V2000
   16.0268    2.4576   16.0132 C   0  0  0  0  0  0  0  0  0  0  0  0
   17.3484    2.5207   15.8109 N   0  0  0  0  0  0  0  0  0  0  0  0
   17.7464    3.5658   15.0608 N   0  0  0  0  0  0  0  0  0  0  0  0
   16.7743    4.3763   14.6462 C   0  0  0  0  0  0  0  0  0  0  0  0
   15.2599    3.7817   15.2265 S   0  0  0  0  0  0  0  0  0  0  0  0
   13.6419    1.3449   16.7597 N   0  0  0  0  0  0  0  0  0  0  0  0
   15.2558    1.2022   16.9401 S   0  0  0  0  0  0  0  0  0  0  0  0
   15.7301   -0.0821   16.4616 O   0  0  0  0  0  0  0  0  0  0  0  0
   15.6797    1.3930   18.3104 O   0  0  0  0  0  0  0  0  0  0  0  0
   13.3405    2.2563   17.1045 H   0  0  0  0  0  0  0  0  0  0  0  0
   13.1743    0.6093   17.2894 H   0  0  0  0  0  0  0  0  0  0  0  0
   16.8406    5.4538   12.4483 C   0  0  0  0  0  0  0  0  0  0  0  0
   17.0332    5.5209   13.8449 N   0  0  0  0  0  0  0  0  0  0  0  0
   16.4437    4.4409   11.8933 O   0  0  0  0  0  0  0  0  0  0  0  0
   17.3452    6.3565   14.2617 H   0  0  0  0  0  0  0  0  0  0  0  0
   17.1201    6.6459   11.6347 C   0  0  0  0  0  0  0  0  0  0  0  0
   15.9383    7.5226   11.5060 C   0  0  0  0  0  0  0  0  0  0  0  0
   13.7775    8.3392   11.6472 C   0  0  0  0  0  0  0  0  0  0  0  0
   14.6273    7.2768   11.9341 C   0  0  0  0  0  0  0  0  0  0  0  0
   14.3464    9.4248   10.9965 C   0  0  0  0  0  0  0  0  0  0  0  0
   16.0070    9.0590   10.7642 S   0  0  0  0  0  0  0  0  0  0  0  0
 20 21  1  0  0  0
 20 18  2  0  0  0
 21 17  1  0  0  0
 18 19  1  0  0  0
 17 19  2  0  0  0
 17 16  1  0  0  0
 16 12  1  0  0  0
 12 14  2  0  0  0
 12 13  1  0  0  0
 13  4  1  0  0  0
  4  3  2  0  0  0
  4  5  1  0  0  0
  3  2  1  0  0  0
  5  1  1  0  0  0
  2  1  2  0  0  0
  1  7  1  0  0  0
  6  7  1  0  0  0
  9  7  2  0  0  0
  7  8  2  0  0  0
  6 10  1  0  0  0
  6 11  1  0  0  0
 13 15  1  0  0  0
M  END
> <minimizedAffinity>
-7.10583

$$$$
4IWZ_1GO_A_301


 21 22  0  0  0  0  0  0  0  0999 V2000
   16.1457    2.6915   15.0548 C   0  0  0  0  0  0  0  0  0  0  0  0
   14.9342    3.2601   15.0776 N   0  0  0  0  0  0  0  0  0  0  0  0
   14.8874    4.4903   14.5321 N   0  0  0  0  0  0  0  0  0  0  0  0
   16.0413    4.9464   14.0479 C   0  0  0  0  0  0  0  0  0  0  0  0
   17.2682    3.7578   14.3040 S   0  0  0  0  0  0  0  0  0  0  0  0
   15.2634    0.7008   16.7106 N   0  0  0  0  0  0  0  0  0  0  0  0
   16.4770    1.1102   15.7022 S   0  0  0  0  0  0  0  0  0  0  0  0
   16.5875    0.1742   14.5999 O   0  0  0  0  0  0  0  0  0  0  0  0
   17.7516    1.2097   16.3800 O   0  0  0  0  0  0  0  0  0  0  0  0
   15.2121    1.3766   17.4728 H   0  0  0  0  0  0  0  0  0  0  0  0
   15.4371   -0.2292   17.0918 H   0  0  0  0  0  0  0  0  0  0  0  0
   16.1573    6.3378   12.0364 C   0  0  0  0  0  0  0  0  0  0  0  0
   16.1553    6.2274   13.4434 N   0  0  0  0  0  0  0  0  0  0  0  0
   16.0519    5.3646   11.3062 O   0  0  0  0  0  0  0  0  0  0  0  0
   16.2324    7.0336   14.0032 H   0  0  0  0  0  0  0  0  0  0  0  0
   16.2829    7.6707   11.4289 C   0  0  0  0  0  0  0  0  0  0  0  0
   15.2094    7.9410   10.4509 C   0  0  0  0  0  0  0  0  0  0  0  0
   13.1490    8.4519    9.5292 C   0  0  0  0  0  0  0  0  0  0  0  0
   13.8678    8.2552   10.7030 C   0  0  0  0  0  0  0  0  0  0  0  0
   13.8527    8.2983    8.3429 C   0  0  0  0  0  0  0  0  0  0  0  0
   15.4685    7.9016    8.7636 S   0  0  0  0  0  0  0  0  0  0  0  0
 20 21  1  0  0  0
 20 18  2  0  0  0
 21 17  1  0  0  0
 18 19  1  0  0  0
 17 19  2  0  0  0
 17 16  1  0  0  0
 16 12  1  0  0  0
 12 14  2  0  0  0
 12 13  1  0  0  0
 13  4  1  0  0  0
  4  3  2  0  0  0
  4  5  1  0  0  0
  3  2  1  0  0  0
  5  1  1  0  0  0
  2  1  2  0  0  0
  1  7  1  0  0  0
  6  7  1  0  0  0
  9  7  2  0  0  0
  7  8  2  0  0  0
  6 10  1  0  0  0
  6 11  1  0  0  0
 13 15  1  0  0  0
M  END
> <minimizedAffinity>
-6.79370

$$$$
4IWZ_1GO_A_301


 21 22  0  0  0  0  0  0  0  0999 V2000
   15.3109    2.5778   15.8284 C   0  0  0  0  0  0  0  0  0  0  0  0
   14.6600    3.6851   15.4515 N   0  0  0  0  0  0  0  0  0  0  0  0
   15.2234    4.3353   14.4156 N   0  0  0  0  0  0  0  0  0  0  0  0
   16.3273    3.7775   13.9213 C   0  0  0  0  0  0  0  0  0  0  0  0
   16.6882    2.3491   14.8228 S   0  0  0  0  0  0  0  0  0  0  0  0
   15.7106    0.2126   17.1431 N   0  0  0  0  0  0  0  0  0  0  0  0
   14.7960    1.5619   17.1445 S   0  0  0  0  0  0  0  0  0  0  0  0
   14.9452    2.3009   18.3835 O   0  0  0  0  0  0  0  0  0  0  0  0
   13.3948    1.2825   16.9153 O   0  0  0  0  0  0  0  0  0  0  0  0
   15.5837   -0.2833   16.2608 H   0  0  0  0  0  0  0  0  0  0  0  0
   15.4281   -0.3905   17.9157 H   0  0  0  0  0  0  0  0  0  0  0  0
   16.7887    3.8852   11.5189 C   0  0  0  0  0  0  0  0  0  0  0  0
   17.0386    4.3448   12.8298 N   0  0  0  0  0  0  0  0  0  0  0  0
   15.9657    3.0153   11.2793 O   0  0  0  0  0  0  0  0  0  0  0  0
   17.7023    5.0547   12.9871 H   0  0  0  0  0  0  0  0  0  0  0  0
   17.5391    4.4791   10.4030 C   0  0  0  0  0  0  0  0  0  0  0  0
   18.7868    3.7425   10.1155 C   0  0  0  0  0  0  0  0  0  0  0  0
   20.4428    2.1259   10.1347 C   0  0  0  0  0  0  0  0  0  0  0  0
   19.2098    2.5165   10.6450 C   0  0  0  0  0  0  0  0  0  0  0  0
   21.0352    2.9910    9.2256 C   0  0  0  0  0  0  0  0  0  0  0  0
   19.9697    4.3219    9.0291 S   0  0  0  0  0  0  0  0  0  0  0  0
 20 21  1  0  0  0
 20 18  2  0  0  0
 21 17  1  0  0  0
 18 19  1  0  0  0
 17 19  2  0  0  0
 17 16  1  0  0  0
 16 12  1  0  0  0
 12 14  2  0  0  0
 12 13  1  0  0  0
 13  4  1  0  0  0
  4  3  2  0  0  0
  4  5  1  0  0  0
  3  2  1  0  0  0
  5  1  1  0  0  0
  2  1  2  0  0  0
  1  7  1  0  0  0
  6  7  1  0  0  0
  9  7  2  0  0  0
  7  8  2  0  0  0
  6 10  1  0  0  0
  6 11  1  0  0  0
 13 15  1  0  0  0
M  END
> <minimizedAffinity>
-6.58616

$$$$
4IWZ_1GO_A_301


 21 22  0  0  0  0  0  0  0  0999 V2000
   15.6969    1.8028   15.8220 C   0  0  0  0  0  0  0  0  0  0  0  0
   16.5242    1.0035   15.1378 N   0  0  0  0  0  0  0  0  0  0  0  0
   17.0620    1.5690   14.0404 N   0  0  0  0  0  0  0  0  0  0  0  0
   16.7001    2.8299   13.8101 C   0  0  0  0  0  0  0  0  0  0  0  0
   15.6041    3.3356   15.0458 S   0  0  0  0  0  0  0  0  0  0  0  0
   15.0478    2.4829   18.3909 N   0  0  0  0  0  0  0  0  0  0  0  0
   14.8671    1.3121   17.2712 S   0  0  0  0  0  0  0  0  0  0  0  0
   13.4689    1.0967   16.9518 O   0  0  0  0  0  0  0  0  0  0  0  0
   15.4677    0.0595   17.6765 O   0  0  0  0  0  0  0  0  0  0  0  0
   16.0394    2.6099   18.5931 H   0  0  0  0  0  0  0  0  0  0  0  0
   14.5582    2.2153   19.2448 H   0  0  0  0  0  0  0  0  0  0  0  0
   18.3899    4.2824   12.7950 C   0  0  0  0  0  0  0  0  0  0  0  0
   17.1801    3.5630   12.6915 N   0  0  0  0  0  0  0  0  0  0  0  0
   19.0570    4.2915   13.8179 O   0  0  0  0  0  0  0  0  0  0  0  0
   16.6714    3.5691   11.8486 H   0  0  0  0  0  0  0  0  0  0  0  0
   18.8673    5.0406   11.6295 C   0  0  0  0  0  0  0  0  0  0  0  0
   19.5689    4.1810   10.6545 C   0  0  0  0  0  0  0  0  0  0  0  0
   20.6096    2.3623    9.6722 C   0  0  0  0  0  0  0  0  0  0  0  0
   19.9823    2.8519   10.8123 C   0  0  0  0  0  0  0  0  0  0  0  0
   20.7286    3.2444    8.6075 C   0  0  0  0  0  0  0  0  0  0  0  0
   20.0082    4.7234    9.0962 S   0  0  0  0  0  0  0  0  0  0  0  0
 20 21  1  0  0  0
 20 18  2  0  0  0
 21 17  1  0  0  0
 18 19  1  0  0  0
 17 19  2  0  0  0
 17 16  1  0  0  0
 16 12  1  0  0  0
 12 14  2  0  0  0
 12 13  1  0  0  0
 13  4  1  0  0  0
  4  3  2  0  0  0
  4  5  1  0  0  0
  3  2  1  0  0  0
  5  1  1  0  0  0
  2  1  2  0  0  0
  1  7  1  0  0  0
  6  7  1  0  0  0
  9  7  2  0  0  0
  7  8  2  0  0  0
  6 10  1  0  0  0
  6 11  1  0  0  0
 13 15  1  0  0  0
M  END
> <minimizedAffinity>
-6.42016

$$$$
4IWZ_1GO_A_301


 21 22  0  0  0  0  0  0  0  0999 V2000
   18.6116    3.6199   10.3878 C   0  0  0  0  0  0  0  0  0  0  0  0
   17.4012    3.9527    9.9234 N   0  0  0  0  0  0  0  0  0  0  0  0
   16.4284    3.9488   10.8545 N   0  0  0  0  0  0  0  0  0  0  0  0
   16.8168    3.6271   12.0872 C   0  0  0  0  0  0  0  0  0  0  0  0
   18.5122    3.2969   12.0749 S   0  0  0  0  0  0  0  0  0  0  0  0
   20.4705    1.9783    9.2336 N   0  0  0  0  0  0  0  0  0  0  0  0
   20.0352    3.5414    9.3896 S   0  0  0  0  0  0  0  0  0  0  0  0
   19.7299    4.1366    8.1028 O   0  0  0  0  0  0  0  0  0  0  0  0
   21.0434    4.3336   10.0603 O   0  0  0  0  0  0  0  0  0  0  0  0
   20.6782    1.5897   10.1535 H   0  0  0  0  0  0  0  0  0  0  0  0
   21.2990    1.9134    8.6422 H   0  0  0  0  0  0  0  0  0  0  0  0
   16.0369    4.4997   14.2380 C   0  0  0  0  0  0  0  0  0  0  0  0
   15.9079    3.5765   13.1783 N   0  0  0  0  0  0  0  0  0  0  0  0
   16.9032    5.3605   14.2505 O   0  0  0  0  0  0  0  0  0  0  0  0
   15.1919    2.9009   13.1951 H   0  0  0  0  0  0  0  0  0  0  0  0
   15.0917    4.4277   15.3617 C   0  0  0  0  0  0  0  0  0  0  0  0
   15.0816    3.0944   15.9972 C   0  0  0  0  0  0  0  0  0  0  0  0
   14.3686    1.1781   17.0813 C   0  0  0  0  0  0  0  0  0  0  0  0
   14.0027    2.4265   16.5907 C   0  0  0  0  0  0  0  0  0  0  0  0
   15.6988    0.8176   16.9179 C   0  0  0  0  0  0  0  0  0  0  0  0
   16.4767    2.1163   16.1096 S   0  0  0  0  0  0  0  0  0  0  0  0
 20 21  1  0  0  0
 20 18  2  0  0  0
 21 17  1  0  0  0
 18 19  1  0  0  0
 17 19  2  0  0  0
 17 16  1  0  0  0
 16 12  1  0  0  0
 12 14  2  0  0  0
 12 13  1  0  0  0
 13  4  1  0  0  0
  4  3  2  0  0  0
  4  5  1  0  0  0
  3  2  1  0  0  0
  5  1  1  0  0  0
  2  1  2  0  0  0
  1  7  1  0  0  0
  6  7  1  0  0  0
  9  7  2  0  0  0
  7  8  2  0  0  0
  6 10  1  0  0  0
  6 11  1  0  0  0
 13 15  1  0  0  0
M  END
> <minimizedAffinity>
-6.40135

$$$$
4IWZ_1GO_A_301


 21 22  0  0  0  0  0  0  0  0999 V2000
   15.6438    6.6899    9.9233 C   0  0  0  0  0  0  0  0  0  0  0  0
   14.7778    7.0230   10.8881 N   0  0  0  0  0  0  0  0  0  0  0  0
   15.1274    6.6015   12.1183 N   0  0  0  0  0  0  0  0  0  0  0  0
   16.2765    5.9318   12.1892 C   0  0  0  0  0  0  0  0  0  0  0  0
   16.9577    5.8137   10.6063 S   0  0  0  0  0  0  0  0  0  0  0  0
   16.5212    6.2894    7.3635 N   0  0  0  0  0  0  0  0  0  0  0  0
   15.4223    7.1065    8.2480 S   0  0  0  0  0  0  0  0  0  0  0  0
   14.0683    6.7595    7.8614 O   0  0  0  0  0  0  0  0  0  0  0  0
   15.5962    8.5404    8.1615 O   0  0  0  0  0  0  0  0  0  0  0  0
   17.4607    6.5549    7.6588 H   0  0  0  0  0  0  0  0  0  0  0  0
   16.3986    6.5148    6.3763 H   0  0  0  0  0  0  0  0  0  0  0  0
   16.5349    4.0747   13.7641 C   0  0  0  0  0  0  0  0  0  0  0  0
   16.7802    5.4202   13.4155 N   0  0  0  0  0  0  0  0  0  0  0  0
   15.9083    3.3176   13.0391 O   0  0  0  0  0  0  0  0  0  0  0  0
   17.2975    6.0012   14.0188 H   0  0  0  0  0  0  0  0  0  0  0  0
   17.0580    3.5649   15.0399 C   0  0  0  0  0  0  0  0  0  0  0  0
   16.0547    2.7686   15.7755 C   0  0  0  0  0  0  0  0  0  0  0  0
   14.1305    2.1526   16.9042 C   0  0  0  0  0  0  0  0  0  0  0  0
   14.8102    3.1842   16.2662 C   0  0  0  0  0  0  0  0  0  0  0  0
   14.7801    0.9275   16.9577 C   0  0  0  0  0  0  0  0  0  0  0  0
   16.2878    1.1217   16.1612 S   0  0  0  0  0  0  0  0  0  0  0  0
 20 21  1  0  0  0
 20 18  2  0  0  0
 21 17  1  0  0  0
 18 19  1  0  0  0
 17 19  2  0  0  0
 17 16  1  0  0  0
 16 12  1  0  0  0
 12 14  2  0  0  0
 12 13  1  0  0  0
 13  4  1  0  0  0
  4  3  2  0  0  0
  4  5  1  0  0  0
  3  2  1  0  0  0
  5  1  1  0  0  0
  2  1  2  0  0  0
  1  7  1  0  0  0
  6  7  1  0  0  0
  9  7  2  0  0  0
  7  8  2  0  0  0
  6 10  1  0  0  0
  6 11  1  0  0  0
 13 15  1  0  0  0
M  END
> <minimizedAffinity>
-6.10622

$$$$
4IWZ_1GO_A_301


 21 22  0  0  0  0  0  0  0  0999 V2000
   15.8622    1.9045   15.7677 C   0  0  0  0  0  0  0  0  0  0  0  0
   16.7169    1.2510   14.9714 N   0  0  0  0  0  0  0  0  0  0  0  0
   17.2705    2.0113   14.0077 N   0  0  0  0  0  0  0  0  0  0  0  0
   16.8946    3.2890   13.9996 C   0  0  0  0  0  0  0  0  0  0  0  0
   15.7635    3.5511   15.2785 S   0  0  0  0  0  0  0  0  0  0  0  0
   15.3674    1.9506   18.4577 N   0  0  0  0  0  0  0  0  0  0  0  0
   15.0076    1.1510   17.0835 S   0  0  0  0  0  0  0  0  0  0  0  0
   13.5863    1.2007   16.7991 O   0  0  0  0  0  0  0  0  0  0  0  0
   15.4456   -0.2279   17.1132 O   0  0  0  0  0  0  0  0  0  0  0  0
   16.3715    1.8971   18.6292 H   0  0  0  0  0  0  0  0  0  0  0  0
   14.8661    1.5272   19.2386 H   0  0  0  0  0  0  0  0  0  0  0  0
   18.6482    4.8216   13.2434 C   0  0  0  0  0  0  0  0  0  0  0  0
   17.3885    4.2174   13.0438 N   0  0  0  0  0  0  0  0  0  0  0  0
   19.3469    4.5670   14.2121 O   0  0  0  0  0  0  0  0  0  0  0  0
   16.8546    4.4379   12.2465 H   0  0  0  0  0  0  0  0  0  0  0  0
   19.1397    5.7848   12.2473 C   0  0  0  0  0  0  0  0  0  0  0  0
   19.5604    7.0592   12.8644 C   0  0  0  0  0  0  0  0  0  0  0  0
   19.5733    8.9845   14.1485 C   0  0  0  0  0  0  0  0  0  0  0  0
   18.8560    7.8520   13.7796 C   0  0  0  0  0  0  0  0  0  0  0  0
   20.8203    9.1425   13.5604 C   0  0  0  0  0  0  0  0  0  0  0  0
   21.0620    7.7969   12.5230 S   0  0  0  0  0  0  0  0  0  0  0  0
 20 21  1  0  0  0
 20 18  2  0  0  0
 21 17  1  0  0  0
 18 19  1  0  0  0
 17 19  2  0  0  0
 17 16  1  0  0  0
 16 12  1  0  0  0
 12 14  2  0  0  0
 12 13  1  0  0  0
 13  4  1  0  0  0
  4  3  2  0  0  0
  4  5  1  0  0  0
  3  2  1  0  0  0
  5  1  1  0  0  0
  2  1  2  0  0  0
  1  7  1  0  0  0
  6  7  1  0  0  0
  9  7  2  0  0  0
  7  8  2  0  0  0
  6 10  1  0  0  0
  6 11  1  0  0  0
 13 15  1  0  0  0
M  END
> <minimizedAffinity>
-6.06267

$$$$
4IWZ_1GO_A_301


 21 22  0  0  0  0  0  0  0  0999 V2000
   17.9874    3.7892   10.8405 C   0  0  0  0  0  0  0  0  0  0  0  0
   17.5393    4.0087    9.5985 N   0  0  0  0  0  0  0  0  0  0  0  0
   16.9162    5.1910    9.4334 N   0  0  0  0  0  0  0  0  0  0  0  0
   16.8498    5.9598   10.5189 C   0  0  0  0  0  0  0  0  0  0  0  0
   17.6095    5.1406   11.8362 S   0  0  0  0  0  0  0  0  0  0  0  0
   18.8898    1.3359   10.0345 N   0  0  0  0  0  0  0  0  0  0  0  0
   18.8193    2.3372   11.3190 S   0  0  0  0  0  0  0  0  0  0  0  0
   20.1455    2.6968   11.7829 O   0  0  0  0  0  0  0  0  0  0  0  0
   18.0593    1.7788   12.4165 O   0  0  0  0  0  0  0  0  0  0  0  0
   17.9438    1.1024    9.7331 H   0  0  0  0  0  0  0  0  0  0  0  0
   19.3839    0.4825   10.2954 H   0  0  0  0  0  0  0  0  0  0  0  0
   15.1009    7.4691   11.3309 C   0  0  0  0  0  0  0  0  0  0  0  0
   16.2222    7.2347   10.5065 N   0  0  0  0  0  0  0  0  0  0  0  0
   14.6481    6.6123   12.0742 O   0  0  0  0  0  0  0  0  0  0  0  0
   16.5678    7.9507    9.9258 H   0  0  0  0  0  0  0  0  0  0  0  0
   14.4605    8.7921   11.2996 C   0  0  0  0  0  0  0  0  0  0  0  0
   13.8534    9.0866    9.9857 C   0  0  0  0  0  0  0  0  0  0  0  0
   12.5445    8.9387    8.0828 C   0  0  0  0  0  0  0  0  0  0  0  0
   12.8827    8.3491    9.2957 C   0  0  0  0  0  0  0  0  0  0  0  0
   13.2100   10.1135    7.7622 C   0  0  0  0  0  0  0  0  0  0  0  0
   14.2807   10.4557    9.0590 S   0  0  0  0  0  0  0  0  0  0  0  0
 20 21  1  0  0  0
 20 18  2  0  0  0
 21 17  1  0  0  0
 18 19  1  0  0  0
 17 19  2  0  0  0
 17 16  1  0  0  0
 16 12  1  0  0  0
 12 14  2  0  0  0
 12 13  1  0  0  0
 13  4  1  0  0  0
  4  3  2  0  0  0
  4  5  1  0  0  0
  3  2  1  0  0  0
  5  1  1  0  0  0
  2  1  2  0  0  0
  1  7  1  0  0  0
  6  7  1  0  0  0
  9  7  2  0  0  0
  7  8  2  0  0  0
  6 10  1  0  0  0
  6 11  1  0  0  0
 13 15  1  0  0  0
M  END
> <minimizedAffinity>
-6.05271

$$$$
4IWZ_1GO_A_301


 21 22  0  0  0  0  0  0  0  0999 V2000
   15.2174    7.7211    8.6611 C   0  0  0  0  0  0  0  0  0  0  0  0
   14.3963    6.8568    9.2696 N   0  0  0  0  0  0  0  0  0  0  0  0
   15.0078    6.0225   10.1319 N   0  0  0  0  0  0  0  0  0  0  0  0
   16.3234    6.1893   10.2547 C   0  0  0  0  0  0  0  0  0  0  0  0
   16.8283    7.4699    9.2112 S   0  0  0  0  0  0  0  0  0  0  0  0
   15.2227    8.4537    6.0255 N   0  0  0  0  0  0  0  0  0  0  0  0
   14.6810    8.8988    7.4972 S   0  0  0  0  0  0  0  0  0  0  0  0
   13.2322    8.9559    7.5327 O   0  0  0  0  0  0  0  0  0  0  0  0
   15.2244   10.1690    7.9274 O   0  0  0  0  0  0  0  0  0  0  0  0
   16.2422    8.4231    6.0335 H   0  0  0  0  0  0  0  0  0  0  0  0
   14.9082    9.1291    5.3289 H   0  0  0  0  0  0  0  0  0  0  0  0
   17.7116    4.2074   10.6302 C   0  0  0  0  0  0  0  0  0  0  0  0
   17.1107    5.3856   11.1228 N   0  0  0  0  0  0  0  0  0  0  0  0
   17.5906    3.8509    9.4684 O   0  0  0  0  0  0  0  0  0  0  0  0
   17.2363    5.6494   12.0629 H   0  0  0  0  0  0  0  0  0  0  0  0
   18.5169    3.3850   11.5447 C   0  0  0  0  0  0  0  0  0  0  0  0
   18.1731    1.9514   11.4545 C   0  0  0  0  0  0  0  0  0  0  0  0
   18.2970   -0.3190   11.0231 C   0  0  0  0  0  0  0  0  0  0  0  0
   18.9476    0.9065   10.9341 C   0  0  0  0  0  0  0  0  0  0  0  0
   17.0271   -0.3031   11.5827 C   0  0  0  0  0  0  0  0  0  0  0  0
   16.6828    1.3246   12.0038 S   0  0  0  0  0  0  0  0  0  0  0  0
 20 21  1  0  0  0
 20 18  2  0  0  0
 21 17  1  0  0  0
 18 19  1  0  0  0
 17 19  2  0  0  0
 17 16  1  0  0  0
 16 12  1  0  0  0
 12 14  2  0  0  0
 12 13  1  0  0  0
 13  4  1  0  0  0
  4  3  2  0  0  0
  4  5  1  0  0  0
  3  2  1  0  0  0
  5  1  1  0  0  0
  2  1  2  0  0  0
  1  7  1  0  0  0
  6  7  1  0  0  0
  9  7  2  0  0  0
  7  8  2  0  0  0
  6 10  1  0  0  0
  6 11  1  0  0  0
 13 15  1  0  0  0
M  END
> <minimizedAffinity>
-5.91316

$$$$
4IWZ_1GO_A_301


 21 22  0  0  0  0  0  0  0  0999 V2000
   15.9638    1.7975   15.4636 C   0  0  0  0  0  0  0  0  0  0  0  0
   16.7229    1.0378   14.6646 N   0  0  0  0  0  0  0  0  0  0  0  0
   17.2136    1.6811   13.5882 N   0  0  0  0  0  0  0  0  0  0  0  0
   16.8803    2.9668   13.4882 C   0  0  0  0  0  0  0  0  0  0  0  0
   15.8760    3.3937   14.8272 S   0  0  0  0  0  0  0  0  0  0  0  0
   13.6056    1.5072   16.8191 N   0  0  0  0  0  0  0  0  0  0  0  0
   15.2049    1.2062   16.9140 S   0  0  0  0  0  0  0  0  0  0  0  0
   15.4699   -0.2152   17.0269 O   0  0  0  0  0  0  0  0  0  0  0  0
   15.8362    1.9034   18.0137 O   0  0  0  0  0  0  0  0  0  0  0  0
   13.4529    2.5127   16.7409 H   0  0  0  0  0  0  0  0  0  0  0  0
   13.1434    1.1575   17.6584 H   0  0  0  0  0  0  0  0  0  0  0  0
   18.6017    4.3647   12.4498 C   0  0  0  0  0  0  0  0  0  0  0  0
   17.3176    3.7805   12.4085 N   0  0  0  0  0  0  0  0  0  0  0  0
   19.3684    4.1876   13.3838 O   0  0  0  0  0  0  0  0  0  0  0  0
   16.7279    3.9359   11.6356 H   0  0  0  0  0  0  0  0  0  0  0  0
   19.0343    5.2090   11.3267 C   0  0  0  0  0  0  0  0  0  0  0  0
   18.7001    6.6322   11.5382 C   0  0  0  0  0  0  0  0  0  0  0  0
   17.5465    8.6377   11.5932 C   0  0  0  0  0  0  0  0  0  0  0  0
   17.4976    7.2909   11.2511 C   0  0  0  0  0  0  0  0  0  0  0  0
   18.7411    9.0932   12.1329 C   0  0  0  0  0  0  0  0  0  0  0  0
   19.8071    7.7500   12.2019 S   0  0  0  0  0  0  0  0  0  0  0  0
 20 21  1  0  0  0
 20 18  2  0  0  0
 21 17  1  0  0  0
 18 19  1  0  0  0
 17 19  2  0  0  0
 17 16  1  0  0  0
 16 12  1  0  0  0
 12 14  2  0  0  0
 12 13  1  0  0  0
 13  4  1  0  0  0
  4  3  2  0  0  0
  4  5  1  0  0  0
  3  2  1  0  0  0
  5  1  1  0  0  0
  2  1  2  0  0  0
  1  7  1  0  0  0
  6  7  1  0  0  0
  9  7  2  0  0  0
  7  8  2  0  0  0
  6 10  1  0  0  0
  6 11  1  0  0  0
 13 15  1  0  0  0
M  END
> <minimizedAffinity>
-5.86424

$$$$
