2XM1_LTM_A_1717


 20 20  0  0  0  0  0  0  0  0999 V2000
    7.7208  -11.8055    3.7022 C   0  0  0  0  0  0  0  0  0  0  0  0
    7.4276  -10.6157    2.7953 C   0  0  0  0  0  0  0  0  0  0  0  0
    8.7176  -10.1688    2.3473 O   0  0  0  0  0  0  0  0  0  0  0  0
    6.5462  -11.0687    1.6252 C   0  0  0  0  0  0  0  0  0  0  0  0
    6.3643   -9.9853    0.7093 O   0  0  0  0  0  0  0  0  0  0  0  0
    5.2147  -11.5126    2.2252 C   0  0  0  0  0  0  0  0  0  0  0  0
    5.4756  -12.7781    2.9528 N   0  0  0  0  0  0  0  0  0  0  0  0
    6.6072  -12.8322    3.7311 C   0  0  0  0  0  0  0  0  0  0  0  0
    6.7111  -13.7904    4.4916 O   0  0  0  0  0  0  0  0  0  0  0  0
    9.1768  -10.8993    1.9040 H   0  0  0  0  0  0  0  0  0  0  0  0
    5.9581   -9.2356    1.1717 H   0  0  0  0  0  0  0  0  0  0  0  0
    4.8644  -13.5467    2.8814 H   0  0  0  0  0  0  0  0  0  0  0  0
    6.1404  -10.2031    5.3298 O   0  0  0  0  0  0  0  0  0  0  0  0
    7.2278  -10.5413    5.7701 C   0  0  0  0  0  0  0  0  0  0  0  0
    7.6652  -10.0695    7.1247 C   0  0  0  0  0  0  0  0  0  0  0  0
    8.1073  -11.3622    5.0723 N   0  0  0  0  0  0  0  0  0  0  0  0
    8.9621  -11.6429    5.4721 H   0  0  0  0  0  0  0  0  0  0  0  0
    4.1391  -11.8280    1.1909 C   0  0  0  0  0  0  0  0  0  0  0  0
    4.3558  -13.2030    0.7983 O   0  0  0  0  0  0  0  0  0  0  0  0
    5.2526  -13.2999    0.4416 H   0  0  0  0  0  0  0  0  0  0  0  0
 13 14  2  0  0  0
 14 15  1  0  0  0
 14 16  1  0  0  0
 16  1  1  0  0  0
  1  2  1  0  0  0
  1  8  1  0  0  0
  2  3  1  0  0  0
  2  4  1  0  0  0
  4  5  1  0  0  0
  4  6  1  0  0  0
  6 18  1  0  0  0
  6  7  1  0  0  0
 18 19  1  0  0  0
  7  8  1  0  0  0
  8  9  2  0  0  0
 16 17  1  0  0  0
  3 10  1  0  0  0
  5 11  1  0  0  0
 19 20  1  0  0  0
  7 12  1  0  0  0
M  END
> <minimizedAffinity>
-9.55021

$$$$
2XM1_LTM_A_1717


 20 20  0  0  0  0  0  0  0  0999 V2000
    6.0813  -13.3321    2.1649 C   0  0  0  0  0  0  0  0  0  0  0  0
    6.2233  -11.8339    1.9212 C   0  0  0  0  0  0  0  0  0  0  0  0
    5.1666  -11.5095    1.0032 O   0  0  0  0  0  0  0  0  0  0  0  0
    6.0718  -11.0825    3.2492 C   0  0  0  0  0  0  0  0  0  0  0  0
    6.0871   -9.6722    3.0111 O   0  0  0  0  0  0  0  0  0  0  0  0
    7.2452  -11.5057    4.1290 C   0  0  0  0  0  0  0  0  0  0  0  0
    7.0006  -12.9160    4.5166 N   0  0  0  0  0  0  0  0  0  0  0  0
    6.5649  -13.7705    3.5320 C   0  0  0  0  0  0  0  0  0  0  0  0
    6.5665  -14.9690    3.7982 O   0  0  0  0  0  0  0  0  0  0  0  0
    4.3141  -11.7679    1.3872 H   0  0  0  0  0  0  0  0  0  0  0  0
    6.9175   -9.4271    2.5736 H   0  0  0  0  0  0  0  0  0  0  0  0
    7.1441  -13.2270    5.4396 H   0  0  0  0  0  0  0  0  0  0  0  0
    4.6771  -14.9581    0.4047 O   0  0  0  0  0  0  0  0  0  0  0  0
    5.8903  -14.9144    0.2736 C   0  0  0  0  0  0  0  0  0  0  0  0
    6.5575  -15.7380   -0.7871 C   0  0  0  0  0  0  0  0  0  0  0  0
    6.7116  -14.1230    1.0694 N   0  0  0  0  0  0  0  0  0  0  0  0
    7.6830  -14.0860    0.9136 H   0  0  0  0  0  0  0  0  0  0  0  0
    7.3641  -10.7192    5.4303 C   0  0  0  0  0  0  0  0  0  0  0  0
    6.0431  -10.1964    5.7013 O   0  0  0  0  0  0  0  0  0  0  0  0
    5.7559   -9.6426    4.9585 H   0  0  0  0  0  0  0  0  0  0  0  0
 13 14  2  0  0  0
 14 15  1  0  0  0
 14 16  1  0  0  0
 16  1  1  0  0  0
  1  2  1  0  0  0
  1  8  1  0  0  0
  2  3  1  0  0  0
  2  4  1  0  0  0
  4  5  1  0  0  0
  4  6  1  0  0  0
  6 18  1  0  0  0
  6  7  1  0  0  0
 18 19  1  0  0  0
  7  8  1  0  0  0
  8  9  2  0  0  0
 16 17  1  0  0  0
  3 10  1  0  0  0
  5 11  1  0  0  0
 19 20  1  0  0  0
  7 12  1  0  0  0
M  END
> <minimizedAffinity>
-8.66909

$$$$
2XM1_LTM_A_1717


 20 20  0  0  0  0  0  0  0  0999 V2000
    6.6378  -12.0229    3.6110 C   0  0  0  0  0  0  0  0  0  0  0  0
    5.7007  -11.2531    2.6871 C   0  0  0  0  0  0  0  0  0  0  0  0
    6.4157  -10.0511    2.3576 O   0  0  0  0  0  0  0  0  0  0  0  0
    5.4035  -12.0960    1.4413 C   0  0  0  0  0  0  0  0  0  0  0  0
    4.6205  -11.3344    0.5178 O   0  0  0  0  0  0  0  0  0  0  0  0
    4.6454  -13.3320    1.9185 C   0  0  0  0  0  0  0  0  0  0  0  0
    5.6188  -14.1692    2.6605 N   0  0  0  0  0  0  0  0  0  0  0  0
    6.4604  -13.5256    3.5360 C   0  0  0  0  0  0  0  0  0  0  0  0
    7.1130  -14.2330    4.2982 O   0  0  0  0  0  0  0  0  0  0  0  0
    7.2669  -10.2817    1.9535 H   0  0  0  0  0  0  0  0  0  0  0  0
    3.7958  -11.0561    0.9458 H   0  0  0  0  0  0  0  0  0  0  0  0
    5.6604  -15.1444    2.5315 H   0  0  0  0  0  0  0  0  0  0  0  0
    8.3798  -10.1588    4.7086 O   0  0  0  0  0  0  0  0  0  0  0  0
    7.5068  -10.6011    5.4387 C   0  0  0  0  0  0  0  0  0  0  0  0
    7.4284  -10.1516    6.8672 C   0  0  0  0  0  0  0  0  0  0  0  0
    6.5538  -11.5199    5.0120 N   0  0  0  0  0  0  0  0  0  0  0  0
    5.8431  -11.8297    5.6187 H   0  0  0  0  0  0  0  0  0  0  0  0
    4.1029  -14.2044    0.7912 C   0  0  0  0  0  0  0  0  0  0  0  0
    5.1855  -14.3477   -0.1571 O   0  0  0  0  0  0  0  0  0  0  0  0
    5.4619  -13.4712   -0.4672 H   0  0  0  0  0  0  0  0  0  0  0  0
 13 14  2  0  0  0
 14 15  1  0  0  0
 14 16  1  0  0  0
 16  1  1  0  0  0
  1  2  1  0  0  0
  1  8  1  0  0  0
  2  3  1  0  0  0
  2  4  1  0  0  0
  4  5  1  0  0  0
  4  6  1  0  0  0
  6 18  1  0  0  0
  6  7  1  0  0  0
 18 19  1  0  0  0
  7  8  1  0  0  0
  8  9  2  0  0  0
 16 17  1  0  0  0
  3 10  1  0  0  0
  5 11  1  0  0  0
 19 20  1  0  0  0
  7 12  1  0  0  0
M  END
> <minimizedAffinity>
-7.70457

$$$$
2XM1_LTM_A_1717


 20 20  0  0  0  0  0  0  0  0999 V2000
    5.9842  -14.6743    2.1485 C   0  0  0  0  0  0  0  0  0  0  0  0
    5.5348  -13.3463    1.5496 C   0  0  0  0  0  0  0  0  0  0  0  0
    4.4155  -13.6808    0.7132 O   0  0  0  0  0  0  0  0  0  0  0  0
    5.1346  -12.3860    2.6760 C   0  0  0  0  0  0  0  0  0  0  0  0
    4.6022  -11.1814    2.1179 O   0  0  0  0  0  0  0  0  0  0  0  0
    6.3988  -12.1071    3.4846 C   0  0  0  0  0  0  0  0  0  0  0  0
    6.7228  -13.3568    4.2142 N   0  0  0  0  0  0  0  0  0  0  0  0
    6.6279  -14.5350    3.5128 C   0  0  0  0  0  0  0  0  0  0  0  0
    7.0952  -15.5368    4.0471 O   0  0  0  0  0  0  0  0  0  0  0  0
    3.7359  -14.1242    1.2447 H   0  0  0  0  0  0  0  0  0  0  0  0
    5.2653  -10.7720    1.5404 H   0  0  0  0  0  0  0  0  0  0  0  0
    6.9942  -13.3431    5.1605 H   0  0  0  0  0  0  0  0  0  0  0  0
    5.0601  -16.6738    0.4567 O   0  0  0  0  0  0  0  0  0  0  0  0
    6.2554  -16.4268    0.4244 C   0  0  0  0  0  0  0  0  0  0  0  0
    7.1560  -17.2094   -0.4840 C   0  0  0  0  0  0  0  0  0  0  0  0
    6.8466  -15.4345    1.1991 N   0  0  0  0  0  0  0  0  0  0  0  0
    7.8085  -15.2393    1.1226 H   0  0  0  0  0  0  0  0  0  0  0  0
    6.2342  -11.0233    4.5450 C   0  0  0  0  0  0  0  0  0  0  0  0
    6.1312   -9.7737    3.8241 O   0  0  0  0  0  0  0  0  0  0  0  0
    6.9266   -9.6457    3.2838 H   0  0  0  0  0  0  0  0  0  0  0  0
 13 14  2  0  0  0
 14 15  1  0  0  0
 14 16  1  0  0  0
 16  1  1  0  0  0
  1  2  1  0  0  0
  1  8  1  0  0  0
  2  3  1  0  0  0
  2  4  1  0  0  0
  4  5  1  0  0  0
  4  6  1  0  0  0
  6 18  1  0  0  0
  6  7  1  0  0  0
 18 19  1  0  0  0
  7  8  1  0  0  0
  8  9  2  0  0  0
 16 17  1  0  0  0
  3 10  1  0  0  0
  5 11  1  0  0  0
 19 20  1  0  0  0
  7 12  1  0  0  0
M  END
> <minimizedAffinity>
-7.64392

$$$$
2XM1_LTM_A_1717


 20 20  0  0  0  0  0  0  0  0999 V2000
    6.1639  -13.3817    2.8506 C   0  0  0  0  0  0  0  0  0  0  0  0
    6.9816  -14.6586    2.6922 C   0  0  0  0  0  0  0  0  0  0  0  0
    6.9892  -15.2543    3.9997 O   0  0  0  0  0  0  0  0  0  0  0  0
    6.3119  -15.5704    1.6572 C   0  0  0  0  0  0  0  0  0  0  0  0
    7.0083  -16.8179    1.5894 O   0  0  0  0  0  0  0  0  0  0  0  0
    6.3692  -14.8339    0.3214 C   0  0  0  0  0  0  0  0  0  0  0  0
    5.4239  -13.6957    0.4211 N   0  0  0  0  0  0  0  0  0  0  0  0
    5.4426  -12.9651    1.5852 C   0  0  0  0  0  0  0  0  0  0  0  0
    4.8195  -11.9072    1.5852 O   0  0  0  0  0  0  0  0  0  0  0  0
    6.0765  -15.4038    4.2922 H   0  0  0  0  0  0  0  0  0  0  0  0
    7.9356  -16.6582    1.3538 H   0  0  0  0  0  0  0  0  0  0  0  0
    4.8092  -13.4729   -0.3150 H   0  0  0  0  0  0  0  0  0  0  0  0
    5.5547  -12.0137    5.1898 O   0  0  0  0  0  0  0  0  0  0  0  0
    6.5541  -11.6607    4.5836 C   0  0  0  0  0  0  0  0  0  0  0  0
    7.3757  -10.5170    5.0988 C   0  0  0  0  0  0  0  0  0  0  0  0
    6.9886  -12.2746    3.4137 N   0  0  0  0  0  0  0  0  0  0  0  0
    7.8184  -11.9859    2.9693 H   0  0  0  0  0  0  0  0  0  0  0  0
    5.9102  -15.6677   -0.8703 C   0  0  0  0  0  0  0  0  0  0  0  0
    6.3168  -14.9346   -2.0489 O   0  0  0  0  0  0  0  0  0  0  0  0
    5.9132  -14.0526   -2.0363 H   0  0  0  0  0  0  0  0  0  0  0  0
 13 14  2  0  0  0
 14 15  1  0  0  0
 14 16  1  0  0  0
 16  1  1  0  0  0
  1  2  1  0  0  0
  1  8  1  0  0  0
  2  3  1  0  0  0
  2  4  1  0  0  0
  4  5  1  0  0  0
  4  6  1  0  0  0
  6 18  1  0  0  0
  6  7  1  0  0  0
 18 19  1  0  0  0
  7  8  1  0  0  0
  8  9  2  0  0  0
 16 17  1  0  0  0
  3 10  1  0  0  0
  5 11  1  0  0  0
 19 20  1  0  0  0
  7 12  1  0  0  0
M  END
> <minimizedAffinity>
-7.11042

$$$$
2XM1_LTM_A_1717


 20 20  0  0  0  0  0  0  0  0999 V2000
    6.1608  -12.5289    3.2559 C   0  0  0  0  0  0  0  0  0  0  0  0
    6.6662  -13.9672    3.2568 C   0  0  0  0  0  0  0  0  0  0  0  0
    6.1808  -14.5262    4.4881 O   0  0  0  0  0  0  0  0  0  0  0  0
    6.1050  -14.7079    2.0372 C   0  0  0  0  0  0  0  0  0  0  0  0
    6.4796  -16.0871    2.0946 O   0  0  0  0  0  0  0  0  0  0  0  0
    6.6917  -14.0283    0.8028 C   0  0  0  0  0  0  0  0  0  0  0  0
    6.0503  -12.6949    0.7047 N   0  0  0  0  0  0  0  0  0  0  0  0
    5.9263  -11.9716    1.8668 C   0  0  0  0  0  0  0  0  0  0  0  0
    5.5936  -10.7952    1.7542 O   0  0  0  0  0  0  0  0  0  0  0  0
    5.2146  -14.4474    4.5203 H   0  0  0  0  0  0  0  0  0  0  0  0
    7.4466  -16.1586    2.1216 H   0  0  0  0  0  0  0  0  0  0  0  0
    5.7271  -12.3428   -0.1561 H   0  0  0  0  0  0  0  0  0  0  0  0
    5.4999  -11.5636    5.7749 O   0  0  0  0  0  0  0  0  0  0  0  0
    6.5739  -11.2151    5.3103 C   0  0  0  0  0  0  0  0  0  0  0  0
    7.4574  -10.2845    6.0863 C   0  0  0  0  0  0  0  0  0  0  0  0
    7.0400  -11.6434    4.0719 N   0  0  0  0  0  0  0  0  0  0  0  0
    7.9265  -11.3693    3.7429 H   0  0  0  0  0  0  0  0  0  0  0  0
    6.3879  -14.7464   -0.5079 C   0  0  0  0  0  0  0  0  0  0  0  0
    4.9817  -15.0816   -0.4612 O   0  0  0  0  0  0  0  0  0  0  0  0
    4.8073  -15.6370    0.3147 H   0  0  0  0  0  0  0  0  0  0  0  0
 13 14  2  0  0  0
 14 15  1  0  0  0
 14 16  1  0  0  0
 16  1  1  0  0  0
  1  2  1  0  0  0
  1  8  1  0  0  0
  2  3  1  0  0  0
  2  4  1  0  0  0
  4  5  1  0  0  0
  4  6  1  0  0  0
  6 18  1  0  0  0
  6  7  1  0  0  0
 18 19  1  0  0  0
  7  8  1  0  0  0
  8  9  2  0  0  0
 16 17  1  0  0  0
  3 10  1  0  0  0
  5 11  1  0  0  0
 19 20  1  0  0  0
  7 12  1  0  0  0
M  END
> <minimizedAffinity>
-6.97565

$$$$
2XM1_LTM_A_1717


 20 20  0  0  0  0  0  0  0  0999 V2000
    6.3093  -11.3693    2.7805 C   0  0  0  0  0  0  0  0  0  0  0  0
    5.0040  -12.1541    2.7135 C   0  0  0  0  0  0  0  0  0  0  0  0
    4.0551  -11.2400    2.1404 O   0  0  0  0  0  0  0  0  0  0  0  0
    5.1976  -13.3958    1.8350 C   0  0  0  0  0  0  0  0  0  0  0  0
    3.9482  -14.0727    1.6727 O   0  0  0  0  0  0  0  0  0  0  0  0
    6.2165  -14.2821    2.5465 C   0  0  0  0  0  0  0  0  0  0  0  0
    7.5263  -13.5948    2.4420 N   0  0  0  0  0  0  0  0  0  0  0  0
    7.5443  -12.2405    2.6758 C   0  0  0  0  0  0  0  0  0  0  0  0
    8.6467  -11.7141    2.7977 O   0  0  0  0  0  0  0  0  0  0  0  0
    4.3784  -10.9372    1.2774 H   0  0  0  0  0  0  0  0  0  0  0  0
    3.6000  -14.3219    2.5431 H   0  0  0  0  0  0  0  0  0  0  0  0
    8.3479  -14.0875    2.2150 H   0  0  0  0  0  0  0  0  0  0  0  0
    7.0375  -12.2165    5.3234 O   0  0  0  0  0  0  0  0  0  0  0  0
    6.7127  -11.0460    5.1992 C   0  0  0  0  0  0  0  0  0  0  0  0
    6.6958  -10.1440    6.3970 C   0  0  0  0  0  0  0  0  0  0  0  0
    6.3503  -10.4842    3.9797 N   0  0  0  0  0  0  0  0  0  0  0  0
    6.1268   -9.5280    3.9101 H   0  0  0  0  0  0  0  0  0  0  0  0
    6.4018  -15.6549    1.9084 C   0  0  0  0  0  0  0  0  0  0  0  0
    7.6601  -16.1607    2.4112 O   0  0  0  0  0  0  0  0  0  0  0  0
    8.3723  -15.5447    2.1785 H   0  0  0  0  0  0  0  0  0  0  0  0
 13 14  2  0  0  0
 14 15  1  0  0  0
 14 16  1  0  0  0
 16  1  1  0  0  0
  1  2  1  0  0  0
  1  8  1  0  0  0
  2  3  1  0  0  0
  2  4  1  0  0  0
  4  5  1  0  0  0
  4  6  1  0  0  0
  6 18  1  0  0  0
  6  7  1  0  0  0
 18 19  1  0  0  0
  7  8  1  0  0  0
  8  9  2  0  0  0
 16 17  1  0  0  0
  3 10  1  0  0  0
  5 11  1  0  0  0
 19 20  1  0  0  0
  7 12  1  0  0  0
M  END
> <minimizedAffinity>
-6.82890

$$$$
2XM1_LTM_A_1717


 20 20  0  0  0  0  0  0  0  0999 V2000
    7.2123  -14.0996    2.0151 C   0  0  0  0  0  0  0  0  0  0  0  0
    6.6983  -13.2345    3.1604 C   0  0  0  0  0  0  0  0  0  0  0  0
    7.8749  -12.8638    3.8971 O   0  0  0  0  0  0  0  0  0  0  0  0
    5.9755  -12.0079    2.5910 C   0  0  0  0  0  0  0  0  0  0  0  0
    5.5935  -11.1340    3.6569 O   0  0  0  0  0  0  0  0  0  0  0  0
    4.7528  -12.5286    1.8401 C   0  0  0  0  0  0  0  0  0  0  0  0
    5.2576  -13.2099    0.6236 N   0  0  0  0  0  0  0  0  0  0  0  0
    6.3476  -14.0339    0.7729 C   0  0  0  0  0  0  0  0  0  0  0  0
    6.6315  -14.7548   -0.1794 O   0  0  0  0  0  0  0  0  0  0  0  0
    8.4960  -12.4090    3.3069 H   0  0  0  0  0  0  0  0  0  0  0  0
    5.0193  -11.6111    4.2762 H   0  0  0  0  0  0  0  0  0  0  0  0
    4.8304  -13.0777   -0.2535 H   0  0  0  0  0  0  0  0  0  0  0  0
    5.1937  -15.8860    2.6843 O   0  0  0  0  0  0  0  0  0  0  0  0
    6.3437  -16.2840    2.7839 C   0  0  0  0  0  0  0  0  0  0  0  0
    6.6133  -17.6750    3.2749 C   0  0  0  0  0  0  0  0  0  0  0  0
    7.4478  -15.5036    2.4580 N   0  0  0  0  0  0  0  0  0  0  0  0
    8.3603  -15.8684    2.5181 H   0  0  0  0  0  0  0  0  0  0  0  0
    3.8061  -11.4352    1.3561 C   0  0  0  0  0  0  0  0  0  0  0  0
    4.5885  -10.2192    1.3194 O   0  0  0  0  0  0  0  0  0  0  0  0
    4.9442  -10.0368    2.2031 H   0  0  0  0  0  0  0  0  0  0  0  0
 13 14  2  0  0  0
 14 15  1  0  0  0
 14 16  1  0  0  0
 16  1  1  0  0  0
  1  2  1  0  0  0
  1  8  1  0  0  0
  2  3  1  0  0  0
  2  4  1  0  0  0
  4  5  1  0  0  0
  4  6  1  0  0  0
  6 18  1  0  0  0
  6  7  1  0  0  0
 18 19  1  0  0  0
  7  8  1  0  0  0
  8  9  2  0  0  0
 16 17  1  0  0  0
  3 10  1  0  0  0
  5 11  1  0  0  0
 19 20  1  0  0  0
  7 12  1  0  0  0
M  END
> <minimizedAffinity>
-6.81261

$$$$
