2P4Y_C03_A_478


 41 45  0  0  0  0  0  0  0  0999 V2000
   18.2277    4.3387   15.4521 C   0  0  0  0  0  0  0  0  0  0  0  0
   17.7608    4.6491   14.1759 C   0  0  0  0  0  0  0  0  0  0  0  0
   16.2296    4.7918   13.9721 C   0  0  0  0  0  0  0  0  0  0  0  0
   15.3443    4.6177   14.9712 C   0  0  0  0  0  0  0  0  0  0  0  0
   15.8339    4.2979   16.2806 C   0  0  0  0  0  0  0  0  0  0  0  0
   17.2791    4.1601   16.5264 C   0  0  0  0  0  0  0  0  0  0  0  0
   15.6490    5.1160   12.7032 C   0  0  0  0  0  0  0  0  0  0  0  0
   14.2752    5.1138   13.0501 C   0  0  0  0  0  0  0  0  0  0  0  0
   14.0518    4.8084   14.4390 N   0  0  0  0  0  0  0  0  0  0  0  0
   13.1272    5.3959   12.0833 C   0  0  0  0  0  0  0  0  0  0  0  0
   16.3600    5.3748   11.3852 C   0  0  0  0  0  0  0  0  0  0  0  0
   16.9659    4.5329   10.4854 N   0  0  0  0  0  0  0  0  0  0  0  0
   17.5113    5.1958    9.4298 O   0  0  0  0  0  0  0  0  0  0  0  0
   17.2905    6.5280    9.5796 C   0  0  0  0  0  0  0  0  0  0  0  0
   16.5581    6.6721   10.7979 C   0  0  0  0  0  0  0  0  0  0  0  0
   17.6595    7.6131    8.7751 C   0  0  0  0  0  0  0  0  0  0  0  0
   17.2909    8.9761    9.1764 C   0  0  0  0  0  0  0  0  0  0  0  0
   16.5497    9.1744   10.3832 C   0  0  0  0  0  0  0  0  0  0  0  0
   16.1841    8.0694   11.1860 C   0  0  0  0  0  0  0  0  0  0  0  0
   17.6962   10.0024    8.3313 O   0  0  0  0  0  0  0  0  0  0  0  0
   18.7632   10.8419    8.7167 C   0  0  0  0  0  0  0  0  0  0  0  0
   12.7790    4.7008   15.2119 C   0  0  0  0  0  0  0  0  0  0  0  0
   11.5252    4.3531   14.3522 C   0  0  0  0  0  0  0  0  0  0  0  0
   10.6695    5.4206   13.8244 C   0  0  0  0  0  0  0  0  0  0  0  0
    9.5016    5.1580   13.0267 C   0  0  0  0  0  0  0  0  0  0  0  0
    9.1595    3.7839   12.7396 C   0  0  0  0  0  0  0  0  0  0  0  0
    9.9674    2.7080   13.2343 C   0  0  0  0  0  0  0  0  0  0  0  0
   11.1338    2.9851   14.0259 C   0  0  0  0  0  0  0  0  0  0  0  0
   12.0100    1.6145   14.5460 Cl  0  0  0  0  0  0  0  0  0  0  0  0
    8.7721    6.2986   12.5615 O   0  0  0  0  0  0  0  0  0  0  0  0
    7.5071    6.2147   11.8663 C   0  0  0  0  0  0  0  0  0  0  0  0
    7.8259    6.3260   10.3686 C   0  0  0  0  0  0  0  0  0  0  0  0
    6.5470    7.3713   12.1372 C   0  0  0  0  0  0  0  0  0  0  0  0
    5.8189    7.8131   11.3245 O   0  0  0  0  0  0  0  0  0  0  0  0
    6.6411    7.8274   13.4024 O   0  0  0  0  0  0  0  0  0  0  0  0
    7.2430    7.4295   14.0003 H   0  0  0  0  0  0  0  0  0  0  0  0
   17.6543    3.8600   17.8196 O   0  0  0  0  0  0  0  0  0  0  0  0
   18.8642    4.2958   18.3859 C   0  0  0  0  0  0  0  0  0  0  0  0
   18.7128    4.2262   19.6911 F   0  0  0  0  0  0  0  0  0  0  0  0
   19.1116    5.5677   18.0250 F   0  0  0  0  0  0  0  0  0  0  0  0
   19.8534    3.4946   18.0090 F   0  0  0  0  0  0  0  0  0  0  0  0
  1  2  2  0  0  0
  1  6  1  0  0  0
  2  3  1  0  0  0
  3  7  1  0  0  0
  3  4  2  0  0  0
  4  9  1  0  0  0
  4  5  1  0  0  0
  5  6  2  0  0  0
  6 37  1  0  0  0
  7  8  2  0  0  0
  7 11  1  0  0  0
  8 10  1  0  0  0
  8  9  1  0  0  0
  9 22  1  0  0  0
 11 12  2  0  0  0
 11 15  1  0  0  0
 22 23  1  0  0  0
 37 38  1  0  0  0
 38 40  1  0  0  0
 38 39  1  0  0  0
 38 41  1  0  0  0
 23 28  2  0  0  0
 23 24  1  0  0  0
 24 25  2  0  0  0
 25 26  1  0  0  0
 25 30  1  0  0  0
 26 27  2  0  0  0
 27 28  1  0  0  0
 28 29  1  0  0  0
 30 31  1  0  0  0
 31 33  1  0  0  0
 31 32  1  0  0  0
 33 34  2  0  0  0
 33 35  1  0  0  0
 12 13  1  0  0  0
 13 14  1  0  0  0
 14 15  2  0  0  0
 14 16  1  0  0  0
 15 19  1  0  0  0
 16 17  2  0  0  0
 17 18  1  0  0  0
 17 20  1  0  0  0
 18 19  2  0  0  0
 20 21  1  0  0  0
 35 36  1  0  0  0
M  END
> <minimizedAffinity>
-10.82121

$$$$
2P4Y_C03_A_478


 41 45  0  0  0  0  0  0  0  0999 V2000
   11.4696    5.3155    9.2695 C   0  0  0  0  0  0  0  0  0  0  0  0
   12.8238    5.3622    9.5968 C   0  0  0  0  0  0  0  0  0  0  0  0
   13.2158    5.3078   11.0969 C   0  0  0  0  0  0  0  0  0  0  0  0
   12.3037    5.2290   12.0838 C   0  0  0  0  0  0  0  0  0  0  0  0
   10.9129    5.1821   11.7374 C   0  0  0  0  0  0  0  0  0  0  0  0
   10.4909    5.2223   10.3274 C   0  0  0  0  0  0  0  0  0  0  0  0
   14.5784    5.3415   11.5379 C   0  0  0  0  0  0  0  0  0  0  0  0
   14.3878    5.2784   12.9405 C   0  0  0  0  0  0  0  0  0  0  0  0
   12.9985    5.2105   13.3114 N   0  0  0  0  0  0  0  0  0  0  0  0
   15.5084    5.2839   13.9779 C   0  0  0  0  0  0  0  0  0  0  0  0
   15.8367    5.4263   10.6900 C   0  0  0  0  0  0  0  0  0  0  0  0
   16.6644    4.4607   10.1719 N   0  0  0  0  0  0  0  0  0  0  0  0
   17.7125    4.9828    9.4792 O   0  0  0  0  0  0  0  0  0  0  0  0
   17.6303    6.3387    9.5039 C   0  0  0  0  0  0  0  0  0  0  0  0
   16.4526    6.6490   10.2512 C   0  0  0  0  0  0  0  0  0  0  0  0
   18.4663    7.3167    8.9514 C   0  0  0  0  0  0  0  0  0  0  0  0
   18.1441    8.7373    9.1318 C   0  0  0  0  0  0  0  0  0  0  0  0
   16.9713    9.1017    9.8645 C   0  0  0  0  0  0  0  0  0  0  0  0
   16.1362    8.1034   10.4172 C   0  0  0  0  0  0  0  0  0  0  0  0
   19.0227    9.6501    8.5602 O   0  0  0  0  0  0  0  0  0  0  0  0
   18.5125   10.7825    7.8901 C   0  0  0  0  0  0  0  0  0  0  0  0
   12.3610    5.1347   14.6593 C   0  0  0  0  0  0  0  0  0  0  0  0
   11.5841    3.8110   14.9360 C   0  0  0  0  0  0  0  0  0  0  0  0
   10.1181    3.8058   14.9703 C   0  0  0  0  0  0  0  0  0  0  0  0
    9.3506    2.6153   15.2211 C   0  0  0  0  0  0  0  0  0  0  0  0
   10.0579    1.3768   15.4519 C   0  0  0  0  0  0  0  0  0  0  0  0
   11.4907    1.3346   15.4273 C   0  0  0  0  0  0  0  0  0  0  0  0
   12.2444    2.5305   15.1709 C   0  0  0  0  0  0  0  0  0  0  0  0
   13.9416    2.3404   15.1630 Cl  0  0  0  0  0  0  0  0  0  0  0  0
    7.9258    2.7546   15.2045 O   0  0  0  0  0  0  0  0  0  0  0  0
    7.0982    2.4129   14.0692 C   0  0  0  0  0  0  0  0  0  0  0  0
    7.7447    1.1839   13.4142 C   0  0  0  0  0  0  0  0  0  0  0  0
    7.0653    3.4615   12.9591 C   0  0  0  0  0  0  0  0  0  0  0  0
    6.3869    4.4229   12.9956 O   0  0  0  0  0  0  0  0  0  0  0  0
    7.8897    3.1507   11.9385 O   0  0  0  0  0  0  0  0  0  0  0  0
    8.4035    2.3679   11.9731 H   0  0  0  0  0  0  0  0  0  0  0  0
    9.1326    5.1629   10.0929 O   0  0  0  0  0  0  0  0  0  0  0  0
    8.2686    6.2472   10.3216 C   0  0  0  0  0  0  0  0  0  0  0  0
    8.8381    7.3007    9.7765 F   0  0  0  0  0  0  0  0  0  0  0  0
    8.1171    6.4464   11.6432 F   0  0  0  0  0  0  0  0  0  0  0  0
    7.0976    6.0220    9.7382 F   0  0  0  0  0  0  0  0  0  0  0  0
  1  2  2  0  0  0
  1  6  1  0  0  0
  2  3  1  0  0  0
  3  7  1  0  0  0
  3  4  2  0  0  0
  4  9  1  0  0  0
  4  5  1  0  0  0
  5  6  2  0  0  0
  6 37  1  0  0  0
  7  8  2  0  0  0
  7 11  1  0  0  0
  8 10  1  0  0  0
  8  9  1  0  0  0
  9 22  1  0  0  0
 11 12  2  0  0  0
 11 15  1  0  0  0
 22 23  1  0  0  0
 37 38  1  0  0  0
 38 40  1  0  0  0
 38 39  1  0  0  0
 38 41  1  0  0  0
 23 28  2  0  0  0
 23 24  1  0  0  0
 24 25  2  0  0  0
 25 26  1  0  0  0
 25 30  1  0  0  0
 26 27  2  0  0  0
 27 28  1  0  0  0
 28 29  1  0  0  0
 30 31  1  0  0  0
 31 33  1  0  0  0
 31 32  1  0  0  0
 33 34  2  0  0  0
 33 35  1  0  0  0
 12 13  1  0  0  0
 13 14  1  0  0  0
 14 15  2  0  0  0
 14 16  1  0  0  0
 15 19  1  0  0  0
 16 17  2  0  0  0
 17 18  1  0  0  0
 17 20  1  0  0  0
 18 19  2  0  0  0
 20 21  1  0  0  0
 35 36  1  0  0  0
M  END
> <minimizedAffinity>
-10.76159

$$$$
2P4Y_C03_A_478


 41 45  0  0  0  0  0  0  0  0999 V2000
   10.6565    6.6048    9.4430 C   0  0  0  0  0  0  0  0  0  0  0  0
   11.6747    7.5498    9.3275 C   0  0  0  0  0  0  0  0  0  0  0  0
   13.0638    7.2050    9.9260 C   0  0  0  0  0  0  0  0  0  0  0  0
   13.3151    6.0421   10.5559 C   0  0  0  0  0  0  0  0  0  0  0  0
   12.2613    5.0762   10.6704 C   0  0  0  0  0  0  0  0  0  0  0  0
   10.9278    5.3535   10.1111 C   0  0  0  0  0  0  0  0  0  0  0  0
   14.1775    8.1031    9.8533 C   0  0  0  0  0  0  0  0  0  0  0  0
   15.1585    7.3388   10.5323 C   0  0  0  0  0  0  0  0  0  0  0  0
   14.6603    6.0647   10.9805 N   0  0  0  0  0  0  0  0  0  0  0  0
   16.5969    7.7852   10.7846 C   0  0  0  0  0  0  0  0  0  0  0  0
   14.2305    9.4817    9.2159 C   0  0  0  0  0  0  0  0  0  0  0  0
   13.2793   10.4592    9.0563 N   0  0  0  0  0  0  0  0  0  0  0  0
   13.7523   11.5502    8.3951 O   0  0  0  0  0  0  0  0  0  0  0  0
   15.0581   11.3472    8.0797 C   0  0  0  0  0  0  0  0  0  0  0  0
   15.3919   10.0561    8.5927 C   0  0  0  0  0  0  0  0  0  0  0  0
   15.9724   12.1604    7.3988 C   0  0  0  0  0  0  0  0  0  0  0  0
   17.3468   11.6912    7.1859 C   0  0  0  0  0  0  0  0  0  0  0  0
   17.7348   10.4094    7.6874 C   0  0  0  0  0  0  0  0  0  0  0  0
   16.8009    9.5987    8.3729 C   0  0  0  0  0  0  0  0  0  0  0  0
   18.1956   12.5498    6.4972 O   0  0  0  0  0  0  0  0  0  0  0  0
   19.1506   13.3057    7.2103 C   0  0  0  0  0  0  0  0  0  0  0  0
   15.3453    4.9674   11.7259 C   0  0  0  0  0  0  0  0  0  0  0  0
   14.8999    4.8168   13.2129 C   0  0  0  0  0  0  0  0  0  0  0  0
   13.4824    4.6474   13.5482 C   0  0  0  0  0  0  0  0  0  0  0  0
   13.0153    4.5043   14.9012 C   0  0  0  0  0  0  0  0  0  0  0  0
   13.9863    4.5331   15.9707 C   0  0  0  0  0  0  0  0  0  0  0  0
   15.3826    4.6961   15.6898 C   0  0  0  0  0  0  0  0  0  0  0  0
   15.8355    4.8332   14.3334 C   0  0  0  0  0  0  0  0  0  0  0  0
   17.5224    5.0140   14.1380 Cl  0  0  0  0  0  0  0  0  0  0  0  0
   11.6059    4.3254   15.0783 O   0  0  0  0  0  0  0  0  0  0  0  0
   10.9060    3.0993   14.7660 C   0  0  0  0  0  0  0  0  0  0  0  0
    9.4282    3.3446   15.1026 C   0  0  0  0  0  0  0  0  0  0  0  0
   11.2971    1.8991   15.6259 C   0  0  0  0  0  0  0  0  0  0  0  0
   10.8076    1.6630   16.6701 O   0  0  0  0  0  0  0  0  0  0  0  0
   12.2680    1.1574   15.0559 O   0  0  0  0  0  0  0  0  0  0  0  0
   12.6148    1.4018   14.2205 H   0  0  0  0  0  0  0  0  0  0  0  0
    9.9819    4.3606   10.2625 O   0  0  0  0  0  0  0  0  0  0  0  0
    8.9593    4.4184   11.2244 C   0  0  0  0  0  0  0  0  0  0  0  0
    9.4599    5.0494   12.2649 F   0  0  0  0  0  0  0  0  0  0  0  0
    8.5906    3.1752   11.5820 F   0  0  0  0  0  0  0  0  0  0  0  0
    7.9263    5.1004   10.7446 F   0  0  0  0  0  0  0  0  0  0  0  0
  1  2  2  0  0  0
  1  6  1  0  0  0
  2  3  1  0  0  0
  3  7  1  0  0  0
  3  4  2  0  0  0
  4  9  1  0  0  0
  4  5  1  0  0  0
  5  6  2  0  0  0
  6 37  1  0  0  0
  7  8  2  0  0  0
  7 11  1  0  0  0
  8 10  1  0  0  0
  8  9  1  0  0  0
  9 22  1  0  0  0
 11 12  2  0  0  0
 11 15  1  0  0  0
 22 23  1  0  0  0
 37 38  1  0  0  0
 38 40  1  0  0  0
 38 39  1  0  0  0
 38 41  1  0  0  0
 23 28  2  0  0  0
 23 24  1  0  0  0
 24 25  2  0  0  0
 25 26  1  0  0  0
 25 30  1  0  0  0
 26 27  2  0  0  0
 27 28  1  0  0  0
 28 29  1  0  0  0
 30 31  1  0  0  0
 31 33  1  0  0  0
 31 32  1  0  0  0
 33 34  2  0  0  0
 33 35  1  0  0  0
 12 13  1  0  0  0
 13 14  1  0  0  0
 14 15  2  0  0  0
 14 16  1  0  0  0
 15 19  1  0  0  0
 16 17  2  0  0  0
 17 18  1  0  0  0
 17 20  1  0  0  0
 18 19  2  0  0  0
 20 21  1  0  0  0
 35 36  1  0  0  0
M  END
> <minimizedAffinity>
-10.47941

$$$$
2P4Y_C03_A_478


 41 45  0  0  0  0  0  0  0  0999 V2000
   18.1134    4.2973   15.2635 C   0  0  0  0  0  0  0  0  0  0  0  0
   17.7101    4.6108   13.9666 C   0  0  0  0  0  0  0  0  0  0  0  0
   16.1976    4.8359   13.7053 C   0  0  0  0  0  0  0  0  0  0  0  0
   15.2692    4.7295   14.6743 C   0  0  0  0  0  0  0  0  0  0  0  0
   15.6934    4.4059   16.0054 C   0  0  0  0  0  0  0  0  0  0  0  0
   17.1189    4.1914   16.3054 C   0  0  0  0  0  0  0  0  0  0  0  0
   15.6814    5.1697   12.4113 C   0  0  0  0  0  0  0  0  0  0  0  0
   14.2984    5.2510   12.7082 C   0  0  0  0  0  0  0  0  0  0  0  0
   14.0092    4.9832   14.0928 N   0  0  0  0  0  0  0  0  0  0  0  0
   13.2031    5.5800   11.6963 C   0  0  0  0  0  0  0  0  0  0  0  0
   16.4520    5.3647   11.1160 C   0  0  0  0  0  0  0  0  0  0  0  0
   16.9987    4.4724   10.2269 N   0  0  0  0  0  0  0  0  0  0  0  0
   17.6363    5.0845    9.1924 O   0  0  0  0  0  0  0  0  0  0  0  0
   17.5422    6.4310    9.3467 C   0  0  0  0  0  0  0  0  0  0  0  0
   16.7925    6.6395   10.5450 C   0  0  0  0  0  0  0  0  0  0  0  0
   18.0382    7.4792    8.5616 C   0  0  0  0  0  0  0  0  0  0  0  0
   17.7928    8.8694    8.9633 C   0  0  0  0  0  0  0  0  0  0  0  0
   17.0399    9.1329   10.1503 C   0  0  0  0  0  0  0  0  0  0  0  0
   16.5454    8.0646   10.9335 C   0  0  0  0  0  0  0  0  0  0  0  0
   18.3204    9.8558    8.1383 O   0  0  0  0  0  0  0  0  0  0  0  0
   18.5726   11.1415    8.6627 C   0  0  0  0  0  0  0  0  0  0  0  0
   12.7059    4.9611   14.8208 C   0  0  0  0  0  0  0  0  0  0  0  0
   11.5947    4.1074   14.1362 C   0  0  0  0  0  0  0  0  0  0  0  0
   10.7534    4.6909   13.0864 C   0  0  0  0  0  0  0  0  0  0  0  0
    9.7144    3.9507   12.4218 C   0  0  0  0  0  0  0  0  0  0  0  0
    9.4919    2.5771   12.8106 C   0  0  0  0  0  0  0  0  0  0  0  0
   10.2907    1.9651   13.8317 C   0  0  0  0  0  0  0  0  0  0  0  0
   11.3281    2.7149   14.4839 C   0  0  0  0  0  0  0  0  0  0  0  0
   12.2083    1.8657   15.6759 Cl  0  0  0  0  0  0  0  0  0  0  0  0
    8.9857    4.6420   11.4015 O   0  0  0  0  0  0  0  0  0  0  0  0
    9.1291    6.0546   11.1284 C   0  0  0  0  0  0  0  0  0  0  0  0
    7.7455    6.5552   10.6899 C   0  0  0  0  0  0  0  0  0  0  0  0
   10.0451    6.3923    9.9537 C   0  0  0  0  0  0  0  0  0  0  0  0
   10.2834    7.4937    9.6135 O   0  0  0  0  0  0  0  0  0  0  0  0
   10.5332    5.2883    9.3531 O   0  0  0  0  0  0  0  0  0  0  0  0
   10.3030    4.4391    9.6754 H   0  0  0  0  0  0  0  0  0  0  0  0
   17.4307    3.8935   17.6159 O   0  0  0  0  0  0  0  0  0  0  0  0
   18.6509    4.2530   18.2128 C   0  0  0  0  0  0  0  0  0  0  0  0
   19.5397    3.3718   17.8068 F   0  0  0  0  0  0  0  0  0  0  0  0
   18.5422    4.2036   19.5525 F   0  0  0  0  0  0  0  0  0  0  0  0
   19.0102    5.4660   17.8101 F   0  0  0  0  0  0  0  0  0  0  0  0
  1  2  2  0  0  0
  1  6  1  0  0  0
  2  3  1  0  0  0
  3  7  1  0  0  0
  3  4  2  0  0  0
  4  9  1  0  0  0
  4  5  1  0  0  0
  5  6  2  0  0  0
  6 37  1  0  0  0
  7  8  2  0  0  0
  7 11  1  0  0  0
  8 10  1  0  0  0
  8  9  1  0  0  0
  9 22  1  0  0  0
 11 12  2  0  0  0
 11 15  1  0  0  0
 22 23  1  0  0  0
 37 38  1  0  0  0
 38 40  1  0  0  0
 38 39  1  0  0  0
 38 41  1  0  0  0
 23 28  2  0  0  0
 23 24  1  0  0  0
 24 25  2  0  0  0
 25 26  1  0  0  0
 25 30  1  0  0  0
 26 27  2  0  0  0
 27 28  1  0  0  0
 28 29  1  0  0  0
 30 31  1  0  0  0
 31 33  1  0  0  0
 31 32  1  0  0  0
 33 34  2  0  0  0
 33 35  1  0  0  0
 12 13  1  0  0  0
 13 14  1  0  0  0
 14 15  2  0  0  0
 14 16  1  0  0  0
 15 19  1  0  0  0
 16 17  2  0  0  0
 17 18  1  0  0  0
 17 20  1  0  0  0
 18 19  2  0  0  0
 20 21  1  0  0  0
 35 36  1  0  0  0
M  END
> <minimizedAffinity>
-10.39953

$$$$
2P4Y_C03_A_478


 41 45  0  0  0  0  0  0  0  0999 V2000
   17.9997    4.9527   14.9194 C   0  0  0  0  0  0  0  0  0  0  0  0
   17.6996    5.3600   13.6206 C   0  0  0  0  0  0  0  0  0  0  0  0
   16.3275    4.9498   13.0242 C   0  0  0  0  0  0  0  0  0  0  0  0
   15.4303    4.2129   13.7055 C   0  0  0  0  0  0  0  0  0  0  0  0
   15.7481    3.7979   15.0409 C   0  0  0  0  0  0  0  0  0  0  0  0
   17.0341    4.1694   15.6541 C   0  0  0  0  0  0  0  0  0  0  0  0
   15.9198    5.3239   11.7028 C   0  0  0  0  0  0  0  0  0  0  0  0
   14.6431    4.7114   11.6532 C   0  0  0  0  0  0  0  0  0  0  0  0
   14.3110    4.0166   12.8695 N   0  0  0  0  0  0  0  0  0  0  0  0
   13.6954    4.7573   10.4567 C   0  0  0  0  0  0  0  0  0  0  0  0
   16.6882    6.1469   10.6820 C   0  0  0  0  0  0  0  0  0  0  0  0
   17.7211    5.8306    9.8342 N   0  0  0  0  0  0  0  0  0  0  0  0
   18.1361    6.8927    9.0919 O   0  0  0  0  0  0  0  0  0  0  0  0
   17.3885    7.9801    9.4151 C   0  0  0  0  0  0  0  0  0  0  0  0
   16.4600    7.5396   10.4078 C   0  0  0  0  0  0  0  0  0  0  0  0
   17.4352    9.2968    8.9410 C   0  0  0  0  0  0  0  0  0  0  0  0
   16.4986   10.2954    9.4702 C   0  0  0  0  0  0  0  0  0  0  0  0
   15.5429    9.9040   10.4593 C   0  0  0  0  0  0  0  0  0  0  0  0
   15.5073    8.5708   10.9292 C   0  0  0  0  0  0  0  0  0  0  0  0
   16.6083   11.5822    8.9565 O   0  0  0  0  0  0  0  0  0  0  0  0
   17.8476   12.2545    9.0198 C   0  0  0  0  0  0  0  0  0  0  0  0
   13.0870    3.2454   13.2381 C   0  0  0  0  0  0  0  0  0  0  0  0
   11.8106    4.1162   13.4495 C   0  0  0  0  0  0  0  0  0  0  0  0
   10.7079    4.0610   12.4844 C   0  0  0  0  0  0  0  0  0  0  0  0
    9.5085    4.8419   12.6290 C   0  0  0  0  0  0  0  0  0  0  0  0
    9.3917    5.7180   13.7720 C   0  0  0  0  0  0  0  0  0  0  0  0
   10.4445    5.8038   14.7412 C   0  0  0  0  0  0  0  0  0  0  0  0
   11.6349    5.0147   14.5866 C   0  0  0  0  0  0  0  0  0  0  0  0
   12.8068    5.2066   15.8140 Cl  0  0  0  0  0  0  0  0  0  0  0  0
    8.5059    4.6713   11.6213 O   0  0  0  0  0  0  0  0  0  0  0  0
    8.2990    5.5957   10.5289 C   0  0  0  0  0  0  0  0  0  0  0  0
    9.5943    6.4094   10.3969 C   0  0  0  0  0  0  0  0  0  0  0  0
    7.2150    6.6441   10.7709 C   0  0  0  0  0  0  0  0  0  0  0  0
    7.2277    7.3916   11.6802 O   0  0  0  0  0  0  0  0  0  0  0  0
    6.2467    6.6030    9.8336 O   0  0  0  0  0  0  0  0  0  0  0  0
    6.2978    5.9816    9.1342 H   0  0  0  0  0  0  0  0  0  0  0  0
   17.2457    3.7320   16.9453 O   0  0  0  0  0  0  0  0  0  0  0  0
   18.4341    3.9813   17.6524 C   0  0  0  0  0  0  0  0  0  0  0  0
   18.7200    5.2522   17.4671 F   0  0  0  0  0  0  0  0  0  0  0  0
   19.4292    3.2171   17.1677 F   0  0  0  0  0  0  0  0  0  0  0  0
   18.2461    3.7513   18.9464 F   0  0  0  0  0  0  0  0  0  0  0  0
  1  2  2  0  0  0
  1  6  1  0  0  0
  2  3  1  0  0  0
  3  7  1  0  0  0
  3  4  2  0  0  0
  4  9  1  0  0  0
  4  5  1  0  0  0
  5  6  2  0  0  0
  6 37  1  0  0  0
  7  8  2  0  0  0
  7 11  1  0  0  0
  8 10  1  0  0  0
  8  9  1  0  0  0
  9 22  1  0  0  0
 11 12  2  0  0  0
 11 15  1  0  0  0
 22 23  1  0  0  0
 37 38  1  0  0  0
 38 40  1  0  0  0
 38 39  1  0  0  0
 38 41  1  0  0  0
 23 28  2  0  0  0
 23 24  1  0  0  0
 24 25  2  0  0  0
 25 26  1  0  0  0
 25 30  1  0  0  0
 26 27  2  0  0  0
 27 28  1  0  0  0
 28 29  1  0  0  0
 30 31  1  0  0  0
 31 33  1  0  0  0
 31 32  1  0  0  0
 33 34  2  0  0  0
 33 35  1  0  0  0
 12 13  1  0  0  0
 13 14  1  0  0  0
 14 15  2  0  0  0
 14 16  1  0  0  0
 15 19  1  0  0  0
 16 17  2  0  0  0
 17 18  1  0  0  0
 17 20  1  0  0  0
 18 19  2  0  0  0
 20 21  1  0  0  0
 35 36  1  0  0  0
M  END
> <minimizedAffinity>
-10.16574

$$$$
2P4Y_C03_A_478


 41 45  0  0  0  0  0  0  0  0999 V2000
   16.7294    6.2068   12.4234 C   0  0  0  0  0  0  0  0  0  0  0  0
   16.0482    7.0450   11.5423 C   0  0  0  0  0  0  0  0  0  0  0  0
   14.6274    6.6238   11.0832 C   0  0  0  0  0  0  0  0  0  0  0  0
   14.0397    5.4841   11.4928 C   0  0  0  0  0  0  0  0  0  0  0  0
   14.7484    4.6277   12.3988 C   0  0  0  0  0  0  0  0  0  0  0  0
   16.0960    4.9881   12.8700 C   0  0  0  0  0  0  0  0  0  0  0  0
   13.8414    7.4179   10.1866 C   0  0  0  0  0  0  0  0  0  0  0  0
   12.6816    6.6098   10.0897 C   0  0  0  0  0  0  0  0  0  0  0  0
   12.7712    5.4098   10.8799 N   0  0  0  0  0  0  0  0  0  0  0  0
   11.4521    6.9396    9.2462 C   0  0  0  0  0  0  0  0  0  0  0  0
   14.2055    8.7473    9.5464 C   0  0  0  0  0  0  0  0  0  0  0  0
   13.4475    9.8353    9.1895 N   0  0  0  0  0  0  0  0  0  0  0  0
   14.1840   10.8226    8.6117 O   0  0  0  0  0  0  0  0  0  0  0  0
   15.4843   10.4328    8.5566 C   0  0  0  0  0  0  0  0  0  0  0  0
   15.5319    9.1327    9.1474 C   0  0  0  0  0  0  0  0  0  0  0  0
   16.6148   11.0850    8.0492 C   0  0  0  0  0  0  0  0  0  0  0  0
   17.9253   10.4270    8.1125 C   0  0  0  0  0  0  0  0  0  0  0  0
   18.0290    9.1283    8.7022 C   0  0  0  0  0  0  0  0  0  0  0  0
   16.8790    8.4814    9.2103 C   0  0  0  0  0  0  0  0  0  0  0  0
   18.9998   11.1327    7.5841 O   0  0  0  0  0  0  0  0  0  0  0  0
   18.7689   12.1275    6.6100 C   0  0  0  0  0  0  0  0  0  0  0  0
   11.7920    4.2975   11.0618 C   0  0  0  0  0  0  0  0  0  0  0  0
   10.9035    4.4176   12.3379 C   0  0  0  0  0  0  0  0  0  0  0  0
    9.8105    5.3938   12.3904 C   0  0  0  0  0  0  0  0  0  0  0  0
    8.9604    5.5478   13.5406 C   0  0  0  0  0  0  0  0  0  0  0  0
    9.1997    4.7063   14.6904 C   0  0  0  0  0  0  0  0  0  0  0  0
   10.2566    3.7378   14.6836 C   0  0  0  0  0  0  0  0  0  0  0  0
   11.0950    3.5915   13.5262 C   0  0  0  0  0  0  0  0  0  0  0  0
   12.3108    2.3983   13.6471 Cl  0  0  0  0  0  0  0  0  0  0  0  0
    7.9198    6.5263   13.4434 O   0  0  0  0  0  0  0  0  0  0  0  0
    6.7066    6.3362   12.6800 C   0  0  0  0  0  0  0  0  0  0  0  0
    6.6664    4.8515   12.2906 C   0  0  0  0  0  0  0  0  0  0  0  0
    6.6632    7.0798   11.3466 C   0  0  0  0  0  0  0  0  0  0  0  0
    6.8629    6.5615   10.3087 O   0  0  0  0  0  0  0  0  0  0  0  0
    6.3828    8.3894   11.5013 O   0  0  0  0  0  0  0  0  0  0  0  0
    6.2340    8.7387   12.3579 H   0  0  0  0  0  0  0  0  0  0  0  0
   16.6942    4.1065   13.7465 O   0  0  0  0  0  0  0  0  0  0  0  0
   16.2454    3.9147   15.0641 C   0  0  0  0  0  0  0  0  0  0  0  0
   17.2874    3.5116   15.7592 F   0  0  0  0  0  0  0  0  0  0  0  0
   15.2878    2.9705   15.0932 F   0  0  0  0  0  0  0  0  0  0  0  0
   15.7963    5.0616   15.5594 F   0  0  0  0  0  0  0  0  0  0  0  0
  1  2  2  0  0  0
  1  6  1  0  0  0
  2  3  1  0  0  0
  3  7  1  0  0  0
  3  4  2  0  0  0
  4  9  1  0  0  0
  4  5  1  0  0  0
  5  6  2  0  0  0
  6 37  1  0  0  0
  7  8  2  0  0  0
  7 11  1  0  0  0
  8 10  1  0  0  0
  8  9  1  0  0  0
  9 22  1  0  0  0
 11 12  2  0  0  0
 11 15  1  0  0  0
 22 23  1  0  0  0
 37 38  1  0  0  0
 38 40  1  0  0  0
 38 39  1  0  0  0
 38 41  1  0  0  0
 23 28  2  0  0  0
 23 24  1  0  0  0
 24 25  2  0  0  0
 25 26  1  0  0  0
 25 30  1  0  0  0
 26 27  2  0  0  0
 27 28  1  0  0  0
 28 29  1  0  0  0
 30 31  1  0  0  0
 31 33  1  0  0  0
 31 32  1  0  0  0
 33 34  2  0  0  0
 33 35  1  0  0  0
 12 13  1  0  0  0
 13 14  1  0  0  0
 14 15  2  0  0  0
 14 16  1  0  0  0
 15 19  1  0  0  0
 16 17  2  0  0  0
 17 18  1  0  0  0
 17 20  1  0  0  0
 18 19  2  0  0  0
 20 21  1  0  0  0
 35 36  1  0  0  0
M  END
> <minimizedAffinity>
-9.97978

$$$$
2P4Y_C03_A_478


 41 45  0  0  0  0  0  0  0  0999 V2000
   14.9227    9.5969    9.4208 C   0  0  0  0  0  0  0  0  0  0  0  0
   13.9638    8.5854    9.4411 C   0  0  0  0  0  0  0  0  0  0  0  0
   14.3019    7.2724   10.1952 C   0  0  0  0  0  0  0  0  0  0  0  0
   15.4803    7.0732   10.8148 C   0  0  0  0  0  0  0  0  0  0  0  0
   16.4608    8.1193   10.7880 C   0  0  0  0  0  0  0  0  0  0  0  0
   16.1838    9.3872   10.0926 C   0  0  0  0  0  0  0  0  0  0  0  0
   13.3835    6.1764   10.2820 C   0  0  0  0  0  0  0  0  0  0  0  0
   14.1574    5.2621   11.0387 C   0  0  0  0  0  0  0  0  0  0  0  0
   15.4554    5.7816   11.3818 N   0  0  0  0  0  0  0  0  0  0  0  0
   13.7010    3.8672   11.4603 C   0  0  0  0  0  0  0  0  0  0  0  0
   11.9830    6.0781    9.6999 C   0  0  0  0  0  0  0  0  0  0  0  0
   11.5142    6.1556    8.4115 N   0  0  0  0  0  0  0  0  0  0  0  0
   10.1608    6.0375    8.3364 O   0  0  0  0  0  0  0  0  0  0  0  0
    9.6589    5.8733    9.5882 C   0  0  0  0  0  0  0  0  0  0  0  0
   10.7839    5.8844   10.4690 C   0  0  0  0  0  0  0  0  0  0  0  0
    8.3399    5.7195   10.0327 C   0  0  0  0  0  0  0  0  0  0  0  0
    8.0681    5.5604   11.4663 C   0  0  0  0  0  0  0  0  0  0  0  0
    9.1601    5.5557   12.3897 C   0  0  0  0  0  0  0  0  0  0  0  0
   10.4869    5.7123   11.9268 C   0  0  0  0  0  0  0  0  0  0  0  0
    6.7349    5.4187   11.8328 O   0  0  0  0  0  0  0  0  0  0  0  0
    6.3405    4.3103   12.6122 C   0  0  0  0  0  0  0  0  0  0  0  0
   16.5709    5.1606   12.1557 C   0  0  0  0  0  0  0  0  0  0  0  0
   16.2413    4.8744   13.6529 C   0  0  0  0  0  0  0  0  0  0  0  0
   14.8478    4.7786   14.0995 C   0  0  0  0  0  0  0  0  0  0  0  0
   14.4860    4.5171   15.4669 C   0  0  0  0  0  0  0  0  0  0  0  0
   15.5426    4.3464   16.4374 C   0  0  0  0  0  0  0  0  0  0  0  0
   16.9191    4.4313   16.0460 C   0  0  0  0  0  0  0  0  0  0  0  0
   17.2660    4.6883   14.6758 C   0  0  0  0  0  0  0  0  0  0  0  0
   18.9397    4.7583   14.3435 Cl  0  0  0  0  0  0  0  0  0  0  0  0
   13.0863    4.4295   15.7552 O   0  0  0  0  0  0  0  0  0  0  0  0
   12.1557    3.6342   14.9858 C   0  0  0  0  0  0  0  0  0  0  0  0
   10.7908    4.3275   15.1032 C   0  0  0  0  0  0  0  0  0  0  0  0
   11.9139    2.2261   15.5261 C   0  0  0  0  0  0  0  0  0  0  0  0
   11.3251    2.0061   16.5214 O   0  0  0  0  0  0  0  0  0  0  0  0
   12.4601    1.2768   14.7398 O   0  0  0  0  0  0  0  0  0  0  0  0
   12.9168    1.5210   13.9589 H   0  0  0  0  0  0  0  0  0  0  0  0
   17.1841   10.3367   10.1290 O   0  0  0  0  0  0  0  0  0  0  0  0
   18.2079   10.4067    9.1692 C   0  0  0  0  0  0  0  0  0  0  0  0
   18.6757   11.6358    9.2103 F   0  0  0  0  0  0  0  0  0  0  0  0
   17.7122   10.1506    7.9453 F   0  0  0  0  0  0  0  0  0  0  0  0
   19.1752    9.5514    9.4780 F   0  0  0  0  0  0  0  0  0  0  0  0
  1  2  2  0  0  0
  1  6  1  0  0  0
  2  3  1  0  0  0
  3  7  1  0  0  0
  3  4  2  0  0  0
  4  9  1  0  0  0
  4  5  1  0  0  0
  5  6  2  0  0  0
  6 37  1  0  0  0
  7  8  2  0  0  0
  7 11  1  0  0  0
  8 10  1  0  0  0
  8  9  1  0  0  0
  9 22  1  0  0  0
 11 12  2  0  0  0
 11 15  1  0  0  0
 22 23  1  0  0  0
 37 38  1  0  0  0
 38 40  1  0  0  0
 38 39  1  0  0  0
 38 41  1  0  0  0
 23 28  2  0  0  0
 23 24  1  0  0  0
 24 25  2  0  0  0
 25 26  1  0  0  0
 25 30  1  0  0  0
 26 27  2  0  0  0
 27 28  1  0  0  0
 28 29  1  0  0  0
 30 31  1  0  0  0
 31 33  1  0  0  0
 31 32  1  0  0  0
 33 34  2  0  0  0
 33 35  1  0  0  0
 12 13  1  0  0  0
 13 14  1  0  0  0
 14 15  2  0  0  0
 14 16  1  0  0  0
 15 19  1  0  0  0
 16 17  2  0  0  0
 17 18  1  0  0  0
 17 20  1  0  0  0
 18 19  2  0  0  0
 20 21  1  0  0  0
 35 36  1  0  0  0
M  END
> <minimizedAffinity>
-9.63310

$$$$
2P4Y_C03_A_478


 41 45  0  0  0  0  0  0  0  0999 V2000
   14.5844    4.2692   14.3093 C   0  0  0  0  0  0  0  0  0  0  0  0
   14.8515    5.0985   13.2211 C   0  0  0  0  0  0  0  0  0  0  0  0
   13.8070    5.1613   12.0758 C   0  0  0  0  0  0  0  0  0  0  0  0
   12.6688    4.4425   12.0903 C   0  0  0  0  0  0  0  0  0  0  0  0
   12.4029    3.5917   13.2137 C   0  0  0  0  0  0  0  0  0  0  0  0
   13.3595    3.5044   14.3295 C   0  0  0  0  0  0  0  0  0  0  0  0
   13.9825    5.9872   10.9186 C   0  0  0  0  0  0  0  0  0  0  0  0
   12.7954    5.6781   10.2096 C   0  0  0  0  0  0  0  0  0  0  0  0
   11.9644    4.7281   10.9018 N   0  0  0  0  0  0  0  0  0  0  0  0
   12.4065    6.2649    8.8545 C   0  0  0  0  0  0  0  0  0  0  0  0
   15.1431    6.9134   10.5948 C   0  0  0  0  0  0  0  0  0  0  0  0
   16.5009    6.7755   10.7468 N   0  0  0  0  0  0  0  0  0  0  0  0
   17.1899    7.8771   10.3430 O   0  0  0  0  0  0  0  0  0  0  0  0
   16.3110    8.8122    9.8969 C   0  0  0  0  0  0  0  0  0  0  0  0
   15.0130    8.2306   10.0334 C   0  0  0  0  0  0  0  0  0  0  0  0
   16.5232   10.1014    9.3932 C   0  0  0  0  0  0  0  0  0  0  0  0
   15.3772   10.9190    8.9776 C   0  0  0  0  0  0  0  0  0  0  0  0
   14.0569   10.3803    9.0855 C   0  0  0  0  0  0  0  0  0  0  0  0
   13.8574    9.0770    9.5963 C   0  0  0  0  0  0  0  0  0  0  0  0
   15.6650   12.1897    8.4934 O   0  0  0  0  0  0  0  0  0  0  0  0
   15.6284   13.2945    9.3707 C   0  0  0  0  0  0  0  0  0  0  0  0
   10.6493    4.1348   10.5180 C   0  0  0  0  0  0  0  0  0  0  0  0
    9.4345    4.6621   11.3417 C   0  0  0  0  0  0  0  0  0  0  0  0
    8.8593    3.8478   12.4171 C   0  0  0  0  0  0  0  0  0  0  0  0
    7.7396    4.2836   13.2082 C   0  0  0  0  0  0  0  0  0  0  0  0
    7.1589    5.5760   12.9251 C   0  0  0  0  0  0  0  0  0  0  0  0
    7.6889    6.4062   11.8834 C   0  0  0  0  0  0  0  0  0  0  0  0
    8.8105    5.9603   11.1043 C   0  0  0  0  0  0  0  0  0  0  0  0
    9.3462    7.0471    9.9009 Cl  0  0  0  0  0  0  0  0  0  0  0  0
    7.2963    3.3938   14.2385 O   0  0  0  0  0  0  0  0  0  0  0  0
    8.0512    2.2456   14.6883 C   0  0  0  0  0  0  0  0  0  0  0  0
    7.3036    1.0061   14.1763 C   0  0  0  0  0  0  0  0  0  0  0  0
    8.0987    2.0613   16.2038 C   0  0  0  0  0  0  0  0  0  0  0  0
    8.3165    1.0283   16.7246 O   0  0  0  0  0  0  0  0  0  0  0  0
    7.8526    3.2098   16.8657 O   0  0  0  0  0  0  0  0  0  0  0  0
    7.6864    3.9990   16.3888 H   0  0  0  0  0  0  0  0  0  0  0  0
   13.0126    2.6665   15.3692 O   0  0  0  0  0  0  0  0  0  0  0  0
   11.6898    2.2628   15.6177 C   0  0  0  0  0  0  0  0  0  0  0  0
   11.4543    1.2424   14.8211 F   0  0  0  0  0  0  0  0  0  0  0  0
   10.8396    3.2657   15.3339 F   0  0  0  0  0  0  0  0  0  0  0  0
   11.5652    1.8785   16.8824 F   0  0  0  0  0  0  0  0  0  0  0  0
  1  2  2  0  0  0
  1  6  1  0  0  0
  2  3  1  0  0  0
  3  7  1  0  0  0
  3  4  2  0  0  0
  4  9  1  0  0  0
  4  5  1  0  0  0
  5  6  2  0  0  0
  6 37  1  0  0  0
  7  8  2  0  0  0
  7 11  1  0  0  0
  8 10  1  0  0  0
  8  9  1  0  0  0
  9 22  1  0  0  0
 11 12  2  0  0  0
 11 15  1  0  0  0
 22 23  1  0  0  0
 37 38  1  0  0  0
 38 40  1  0  0  0
 38 39  1  0  0  0
 38 41  1  0  0  0
 23 28  2  0  0  0
 23 24  1  0  0  0
 24 25  2  0  0  0
 25 26  1  0  0  0
 25 30  1  0  0  0
 26 27  2  0  0  0
 27 28  1  0  0  0
 28 29  1  0  0  0
 30 31  1  0  0  0
 31 33  1  0  0  0
 31 32  1  0  0  0
 33 34  2  0  0  0
 33 35  1  0  0  0
 12 13  1  0  0  0
 13 14  1  0  0  0
 14 15  2  0  0  0
 14 16  1  0  0  0
 15 19  1  0  0  0
 16 17  2  0  0  0
 17 18  1  0  0  0
 17 20  1  0  0  0
 18 19  2  0  0  0
 20 21  1  0  0  0
 35 36  1  0  0  0
M  END
> <minimizedAffinity>
-9.58787

$$$$
2P4Y_C03_A_478


 41 45  0  0  0  0  0  0  0  0999 V2000
   11.7771    7.5786    9.3760 C   0  0  0  0  0  0  0  0  0  0  0  0
   13.1287    7.9119    9.4477 C   0  0  0  0  0  0  0  0  0  0  0  0
   14.0813    6.9457   10.1999 C   0  0  0  0  0  0  0  0  0  0  0  0
   13.6515    5.8142   10.7890 C   0  0  0  0  0  0  0  0  0  0  0  0
   12.2592    5.4798   10.7105 C   0  0  0  0  0  0  0  0  0  0  0  0
   11.3168    6.3604   10.0004 C   0  0  0  0  0  0  0  0  0  0  0  0
   15.4870    7.1923   10.3237 C   0  0  0  0  0  0  0  0  0  0  0  0
   15.8734    6.0573   11.0787 C   0  0  0  0  0  0  0  0  0  0  0  0
   14.7670    5.1886   11.3846 N   0  0  0  0  0  0  0  0  0  0  0  0
   17.2975    5.7556   11.5401 C   0  0  0  0  0  0  0  0  0  0  0  0
   16.2849    8.3655    9.7790 C   0  0  0  0  0  0  0  0  0  0  0  0
   17.4770    8.4321    9.1005 N   0  0  0  0  0  0  0  0  0  0  0  0
   17.8500    9.7095    8.8170 O   0  0  0  0  0  0  0  0  0  0  0  0
   16.9108   10.5643    9.2998 C   0  0  0  0  0  0  0  0  0  0  0  0
   15.9061    9.7468    9.9030 C   0  0  0  0  0  0  0  0  0  0  0  0
   16.8439   11.9626    9.2697 C   0  0  0  0  0  0  0  0  0  0  0  0
   15.6994   12.6505    9.8791 C   0  0  0  0  0  0  0  0  0  0  0  0
   14.6616   11.8781   10.4885 C   0  0  0  0  0  0  0  0  0  0  0  0
   14.7424   10.4666   10.5119 C   0  0  0  0  0  0  0  0  0  0  0  0
   15.7047   14.0390    9.8158 O   0  0  0  0  0  0  0  0  0  0  0  0
   15.1975   14.7879   10.8991 C   0  0  0  0  0  0  0  0  0  0  0  0
   14.7279    3.9062   12.1479 C   0  0  0  0  0  0  0  0  0  0  0  0
   13.9013    3.9625   13.4692 C   0  0  0  0  0  0  0  0  0  0  0  0
   12.6140    3.2671   13.5679 C   0  0  0  0  0  0  0  0  0  0  0  0
   11.8101    3.2854   14.7607 C   0  0  0  0  0  0  0  0  0  0  0  0
   12.2934    4.0238   15.9046 C   0  0  0  0  0  0  0  0  0  0  0  0
   13.5465    4.7183   15.8536 C   0  0  0  0  0  0  0  0  0  0  0  0
   14.3413    4.6876   14.6573 C   0  0  0  0  0  0  0  0  0  0  0  0
   15.8134    5.5501   14.7323 Cl  0  0  0  0  0  0  0  0  0  0  0  0
   10.5856    2.5445   14.7210 O   0  0  0  0  0  0  0  0  0  0  0  0
    9.2936    3.1101   15.0392 C   0  0  0  0  0  0  0  0  0  0  0  0
    8.6997    2.2374   16.1541 C   0  0  0  0  0  0  0  0  0  0  0  0
    8.2653    3.0379   13.9120 C   0  0  0  0  0  0  0  0  0  0  0  0
    8.1578    2.1135   13.1911 O   0  0  0  0  0  0  0  0  0  0  0  0
    7.5114    4.1531   13.8365 O   0  0  0  0  0  0  0  0  0  0  0  0
    7.6492    4.8537   14.4432 H   0  0  0  0  0  0  0  0  0  0  0  0
    9.9997    5.9508    9.9708 O   0  0  0  0  0  0  0  0  0  0  0  0
    9.3420    5.4080   11.0876 C   0  0  0  0  0  0  0  0  0  0  0  0
    9.8550    5.9969   12.1465 F   0  0  0  0  0  0  0  0  0  0  0  0
    9.5618    4.0827   11.1544 F   0  0  0  0  0  0  0  0  0  0  0  0
    8.0425    5.6707   11.0177 F   0  0  0  0  0  0  0  0  0  0  0  0
  1  2  2  0  0  0
  1  6  1  0  0  0
  2  3  1  0  0  0
  3  7  1  0  0  0
  3  4  2  0  0  0
  4  9  1  0  0  0
  4  5  1  0  0  0
  5  6  2  0  0  0
  6 37  1  0  0  0
  7  8  2  0  0  0
  7 11  1  0  0  0
  8 10  1  0  0  0
  8  9  1  0  0  0
  9 22  1  0  0  0
 11 12  2  0  0  0
 11 15  1  0  0  0
 22 23  1  0  0  0
 37 38  1  0  0  0
 38 40  1  0  0  0
 38 39  1  0  0  0
 38 41  1  0  0  0
 23 28  2  0  0  0
 23 24  1  0  0  0
 24 25  2  0  0  0
 25 26  1  0  0  0
 25 30  1  0  0  0
 26 27  2  0  0  0
 27 28  1  0  0  0
 28 29  1  0  0  0
 30 31  1  0  0  0
 31 33  1  0  0  0
 31 32  1  0  0  0
 33 34  2  0  0  0
 33 35  1  0  0  0
 12 13  1  0  0  0
 13 14  1  0  0  0
 14 15  2  0  0  0
 14 16  1  0  0  0
 15 19  1  0  0  0
 16 17  2  0  0  0
 17 18  1  0  0  0
 17 20  1  0  0  0
 18 19  2  0  0  0
 20 21  1  0  0  0
 35 36  1  0  0  0
M  END
> <minimizedAffinity>
-9.55739

$$$$
2P4Y_C03_A_478


 41 45  0  0  0  0  0  0  0  0999 V2000
   13.7930    4.3994   14.6355 C   0  0  0  0  0  0  0  0  0  0  0  0
   14.2177    5.0906   13.5020 C   0  0  0  0  0  0  0  0  0  0  0  0
   13.2933    5.0903   12.2561 C   0  0  0  0  0  0  0  0  0  0  0  0
   12.1128    4.4438   12.2275 C   0  0  0  0  0  0  0  0  0  0  0  0
   11.6845    3.7348   13.3981 C   0  0  0  0  0  0  0  0  0  0  0  0
   12.5227    3.7127   14.6084 C   0  0  0  0  0  0  0  0  0  0  0  0
   13.6334    5.7761   11.0452 C   0  0  0  0  0  0  0  0  0  0  0  0
   12.5007    5.4616   10.2542 C   0  0  0  0  0  0  0  0  0  0  0  0
   11.5454    4.6404   10.9509 N   0  0  0  0  0  0  0  0  0  0  0  0
   12.2828    5.9212    8.8144 C   0  0  0  0  0  0  0  0  0  0  0  0
   14.8795    6.5941   10.7491 C   0  0  0  0  0  0  0  0  0  0  0  0
   16.2131    6.3526   10.9700 N   0  0  0  0  0  0  0  0  0  0  0  0
   17.0077    7.3806   10.5660 O   0  0  0  0  0  0  0  0  0  0  0  0
   16.2295    8.3675   10.0500 C   0  0  0  0  0  0  0  0  0  0  0  0
   14.8834    7.8974   10.1420 C   0  0  0  0  0  0  0  0  0  0  0  0
   16.5694    9.6173    9.5178 C   0  0  0  0  0  0  0  0  0  0  0  0
   15.5143   10.5098    9.0230 C   0  0  0  0  0  0  0  0  0  0  0  0
   14.1507   10.0832    9.0841 C   0  0  0  0  0  0  0  0  0  0  0  0
   13.8221    8.8186    9.6244 C   0  0  0  0  0  0  0  0  0  0  0  0
   15.9269   11.7357    8.5144 O   0  0  0  0  0  0  0  0  0  0  0  0
   16.0410   11.9081    7.1183 C   0  0  0  0  0  0  0  0  0  0  0  0
   10.2355    4.0859   10.4974 C   0  0  0  0  0  0  0  0  0  0  0  0
    9.0216    4.4702   11.3980 C   0  0  0  0  0  0  0  0  0  0  0  0
    8.5880    5.8673   11.5002 C   0  0  0  0  0  0  0  0  0  0  0  0
    7.4762    6.2786   12.3151 C   0  0  0  0  0  0  0  0  0  0  0  0
    6.7628    5.2703   13.0649 C   0  0  0  0  0  0  0  0  0  0  0  0
    7.1512    3.8921   12.9949 C   0  0  0  0  0  0  0  0  0  0  0  0
    8.2607    3.4950   12.1732 C   0  0  0  0  0  0  0  0  0  0  0  0
    8.6136    1.8240   12.1747 Cl  0  0  0  0  0  0  0  0  0  0  0  0
    7.1523    7.6731   12.3029 O   0  0  0  0  0  0  0  0  0  0  0  0
    5.9367    8.2207   12.8624 C   0  0  0  0  0  0  0  0  0  0  0  0
    4.9138    8.2666   11.7184 C   0  0  0  0  0  0  0  0  0  0  0  0
    6.0426    9.6692   13.3354 C   0  0  0  0  0  0  0  0  0  0  0  0
    6.1689   10.5824   12.6034 O   0  0  0  0  0  0  0  0  0  0  0  0
    5.9858    9.7731   14.6784 O   0  0  0  0  0  0  0  0  0  0  0  0
    5.8839    9.0041   15.2039 H   0  0  0  0  0  0  0  0  0  0  0  0
   12.0227    3.0123   15.6867 O   0  0  0  0  0  0  0  0  0  0  0  0
   11.0911    1.9686   15.5557 C   0  0  0  0  0  0  0  0  0  0  0  0
   11.0509    1.3550   16.7190 F   0  0  0  0  0  0  0  0  0  0  0  0
   11.4920    1.1083   14.6026 F   0  0  0  0  0  0  0  0  0  0  0  0
    9.8931    2.4658   15.2729 F   0  0  0  0  0  0  0  0  0  0  0  0
  1  2  2  0  0  0
  1  6  1  0  0  0
  2  3  1  0  0  0
  3  7  1  0  0  0
  3  4  2  0  0  0
  4  9  1  0  0  0
  4  5  1  0  0  0
  5  6  2  0  0  0
  6 37  1  0  0  0
  7  8  2  0  0  0
  7 11  1  0  0  0
  8 10  1  0  0  0
  8  9  1  0  0  0
  9 22  1  0  0  0
 11 12  2  0  0  0
 11 15  1  0  0  0
 22 23  1  0  0  0
 37 38  1  0  0  0
 38 40  1  0  0  0
 38 39  1  0  0  0
 38 41  1  0  0  0
 23 28  2  0  0  0
 23 24  1  0  0  0
 24 25  2  0  0  0
 25 26  1  0  0  0
 25 30  1  0  0  0
 26 27  2  0  0  0
 27 28  1  0  0  0
 28 29  1  0  0  0
 30 31  1  0  0  0
 31 33  1  0  0  0
 31 32  1  0  0  0
 33 34  2  0  0  0
 33 35  1  0  0  0
 12 13  1  0  0  0
 13 14  1  0  0  0
 14 15  2  0  0  0
 14 16  1  0  0  0
 15 19  1  0  0  0
 16 17  2  0  0  0
 17 18  1  0  0  0
 17 20  1  0  0  0
 18 19  2  0  0  0
 20 21  1  0  0  0
 35 36  1  0  0  0
M  END
> <minimizedAffinity>
-9.38355

$$$$
