4RQV_R2S_A_406


 24 27  0  0  0  0  0  0  0  0999 V2000
  -13.3088   17.6861   -7.7945 N   0  0  0  0  0  0  0  0  0  0  0  0
  -14.0999   17.6719   -7.2086 H   0  0  0  0  0  0  0  0  0  0  0  0
  -13.8249   19.4212  -15.3919 Cl  0  0  0  0  0  0  0  0  0  0  0  0
  -14.0039   18.7640  -13.8080 C   0  0  0  0  0  0  0  0  0  0  0  0
  -13.2154   19.2719  -12.7892 C   0  0  0  0  0  0  0  0  0  0  0  0
  -13.3453   18.7624  -11.5125 C   0  0  0  0  0  0  0  0  0  0  0  0
  -14.2585   17.7573  -11.2762 C   0  0  0  0  0  0  0  0  0  0  0  0
  -15.0500   17.2419  -12.3082 C   0  0  0  0  0  0  0  0  0  0  0  0
  -14.9170   17.7484  -13.5756 C   0  0  0  0  0  0  0  0  0  0  0  0
  -14.3693   17.2785   -9.9224 N   0  0  0  0  0  0  0  0  0  0  0  0
  -13.4656   17.9654   -9.1532 C   0  0  0  0  0  0  0  0  0  0  0  0
  -12.6174   19.0814  -10.0609 S   0  0  0  0  0  0  0  0  0  0  0  0
  -11.8539   17.3865   -7.1691 S   0  0  0  0  0  0  0  0  0  0  0  0
  -11.9047   17.1711   -5.7891 O   0  0  0  0  0  0  0  0  0  0  0  0
  -11.0126   18.4967   -7.3219 O   0  0  0  0  0  0  0  0  0  0  0  0
  -11.3275   15.9506   -8.0434 C   0  0  0  0  0  0  0  0  0  0  0  0
  -11.8659   14.6283   -7.9750 C   0  0  0  0  0  0  0  0  0  0  0  0
  -11.0224   13.7552   -8.8849 C   0  0  0  0  0  0  0  0  0  0  0  0
  -11.2083   12.3905   -9.1155 C   0  0  0  0  0  0  0  0  0  0  0  0
  -10.3483   11.7403   -9.9854 C   0  0  0  0  0  0  0  0  0  0  0  0
   -9.3072   12.4109  -10.6474 C   0  0  0  0  0  0  0  0  0  0  0  0
   -9.1240   13.7672  -10.4104 C   0  0  0  0  0  0  0  0  0  0  0  0
   -9.9862   14.4261   -9.5303 C   0  0  0  0  0  0  0  0  0  0  0  0
  -10.0575   15.9949   -9.0472 S   0  0  0  0  0  0  0  0  0  0  0  0
  3  4  1  0  0  0
  9  4  2  0  0  0
  9  8  1  0  0  0
  4  5  1  0  0  0
  8  7  2  0  0  0
  5  6  2  0  0  0
  7  6  1  0  0  0
  7 10  1  0  0  0
  6 12  1  0  0  0
 10 11  2  0  0  0
 20 19  2  0  0  0
 20 21  1  0  0  0
 19 18  1  0  0  0
 11 12  1  0  0  0
 11  1  1  0  0  0
 21 22  2  0  0  0
 18 17  1  0  0  0
 18 23  2  0  0  0
 17 16  2  0  0  0
  1 13  1  0  0  0
 22 23  1  0  0  0
 23 24  1  0  0  0
 16 24  1  0  0  0
 16 13  1  0  0  0
 13 14  2  0  0  0
 13 15  2  0  0  0
  1  2  1  0  0  0
M  END
> <minimizedAffinity>
-8.75710

$$$$
4RQV_R2S_A_406


 24 27  0  0  0  0  0  0  0  0999 V2000
  -11.3358   19.0744   -8.3644 N   0  0  0  0  0  0  0  0  0  0  0  0
  -10.8883   19.9513   -8.3623 H   0  0  0  0  0  0  0  0  0  0  0  0
  -16.2473   17.2070  -14.1428 Cl  0  0  0  0  0  0  0  0  0  0  0  0
  -14.8918   17.6533  -13.1752 C   0  0  0  0  0  0  0  0  0  0  0  0
  -15.0649   17.7614  -11.8055 C   0  0  0  0  0  0  0  0  0  0  0  0
  -13.9916   18.1140  -11.0118 C   0  0  0  0  0  0  0  0  0  0  0  0
  -12.7671   18.3517  -11.5984 C   0  0  0  0  0  0  0  0  0  0  0  0
  -12.5960   18.2474  -12.9830 C   0  0  0  0  0  0  0  0  0  0  0  0
  -13.6645   17.8992  -13.7689 C   0  0  0  0  0  0  0  0  0  0  0  0
  -11.6766   18.6937  -10.7219 N   0  0  0  0  0  0  0  0  0  0  0  0
  -12.1569   18.7253   -9.4380 C   0  0  0  0  0  0  0  0  0  0  0  0
  -13.7821   18.3441   -9.3864 S   0  0  0  0  0  0  0  0  0  0  0  0
  -11.1085   18.0655   -7.1284 S   0  0  0  0  0  0  0  0  0  0  0  0
  -12.1989   18.0443   -6.2544 O   0  0  0  0  0  0  0  0  0  0  0  0
  -10.0313   18.4879   -6.3378 O   0  0  0  0  0  0  0  0  0  0  0  0
  -10.8636   16.5098   -7.9178 C   0  0  0  0  0  0  0  0  0  0  0  0
  -11.6413   15.3183   -7.7814 C   0  0  0  0  0  0  0  0  0  0  0  0
  -10.9791   14.2529   -8.6346 C   0  0  0  0  0  0  0  0  0  0  0  0
  -11.4192   12.9369   -8.7915 C   0  0  0  0  0  0  0  0  0  0  0  0
  -10.6987   12.0890   -9.6168 C   0  0  0  0  0  0  0  0  0  0  0  0
   -9.5512   12.5139  -10.3057 C   0  0  0  0  0  0  0  0  0  0  0  0
   -9.1153   13.8225  -10.1421 C   0  0  0  0  0  0  0  0  0  0  0  0
   -9.8363   14.6798   -9.3070 C   0  0  0  0  0  0  0  0  0  0  0  0
   -9.6098   16.2584   -8.9116 S   0  0  0  0  0  0  0  0  0  0  0  0
  3  4  1  0  0  0
  9  4  2  0  0  0
  9  8  1  0  0  0
  4  5  1  0  0  0
  8  7  2  0  0  0
  5  6  2  0  0  0
  7  6  1  0  0  0
  7 10  1  0  0  0
  6 12  1  0  0  0
 10 11  2  0  0  0
 20 19  2  0  0  0
 20 21  1  0  0  0
 19 18  1  0  0  0
 11 12  1  0  0  0
 11  1  1  0  0  0
 21 22  2  0  0  0
 18 17  1  0  0  0
 18 23  2  0  0  0
 17 16  2  0  0  0
  1 13  1  0  0  0
 22 23  1  0  0  0
 23 24  1  0  0  0
 16 24  1  0  0  0
 16 13  1  0  0  0
 13 14  2  0  0  0
 13 15  2  0  0  0
  1  2  1  0  0  0
M  END
> <minimizedAffinity>
-8.35314

$$$$
4RQV_R2S_A_406


 24 27  0  0  0  0  0  0  0  0999 V2000
  -11.9980   17.8996   -6.6737 N   0  0  0  0  0  0  0  0  0  0  0  0
  -12.2555   17.9145   -5.7236 H   0  0  0  0  0  0  0  0  0  0  0  0
  -10.4090   11.0238  -10.0199 Cl  0  0  0  0  0  0  0  0  0  0  0  0
  -10.3862   12.6412   -9.4231 C   0  0  0  0  0  0  0  0  0  0  0  0
  -11.4878   13.1022   -8.7220 C   0  0  0  0  0  0  0  0  0  0  0  0
  -11.4887   14.3931   -8.2322 C   0  0  0  0  0  0  0  0  0  0  0  0
  -10.3919   15.1990   -8.4503 C   0  0  0  0  0  0  0  0  0  0  0  0
   -9.2824   14.7329   -9.1638 C   0  0  0  0  0  0  0  0  0  0  0  0
   -9.2855   13.4510   -9.6510 C   0  0  0  0  0  0  0  0  0  0  0  0
  -10.4361   16.5284   -7.8980 N   0  0  0  0  0  0  0  0  0  0  0  0
  -11.6446   16.6880   -7.2702 C   0  0  0  0  0  0  0  0  0  0  0  0
  -12.5704   15.3017   -7.3701 S   0  0  0  0  0  0  0  0  0  0  0  0
  -11.9913   19.2744   -7.5148 S   0  0  0  0  0  0  0  0  0  0  0  0
  -10.7072   19.8114   -7.6418 O   0  0  0  0  0  0  0  0  0  0  0  0
  -12.7234   20.2653   -6.8470 O   0  0  0  0  0  0  0  0  0  0  0  0
  -12.6656   18.7979   -9.0709 C   0  0  0  0  0  0  0  0  0  0  0  0
  -13.9558   18.2458   -9.3423 C   0  0  0  0  0  0  0  0  0  0  0  0
  -14.0179   17.9678  -10.8324 C   0  0  0  0  0  0  0  0  0  0  0  0
  -15.1064   17.4291  -11.5218 C   0  0  0  0  0  0  0  0  0  0  0  0
  -15.0007   17.2440  -12.8905 C   0  0  0  0  0  0  0  0  0  0  0  0
  -13.8417   17.5899  -13.6040 C   0  0  0  0  0  0  0  0  0  0  0  0
  -12.7604   18.1207  -12.9125 C   0  0  0  0  0  0  0  0  0  0  0  0
  -12.8610   18.3050  -11.5312 C   0  0  0  0  0  0  0  0  0  0  0  0
  -11.7981   18.9096  -10.4338 S   0  0  0  0  0  0  0  0  0  0  0  0
  3  4  1  0  0  0
  9  4  2  0  0  0
  9  8  1  0  0  0
  4  5  1  0  0  0
  8  7  2  0  0  0
  5  6  2  0  0  0
  7  6  1  0  0  0
  7 10  1  0  0  0
  6 12  1  0  0  0
 10 11  2  0  0  0
 20 19  2  0  0  0
 20 21  1  0  0  0
 19 18  1  0  0  0
 11 12  1  0  0  0
 11  1  1  0  0  0
 21 22  2  0  0  0
 18 17  1  0  0  0
 18 23  2  0  0  0
 17 16  2  0  0  0
  1 13  1  0  0  0
 22 23  1  0  0  0
 23 24  1  0  0  0
 16 24  1  0  0  0
 16 13  1  0  0  0
 13 14  2  0  0  0
 13 15  2  0  0  0
  1  2  1  0  0  0
M  END
> <minimizedAffinity>
-8.07811

$$$$
4RQV_R2S_A_406


 24 27  0  0  0  0  0  0  0  0999 V2000
  -10.7917   18.3862   -7.4730 N   0  0  0  0  0  0  0  0  0  0  0  0
  -10.0162   18.7996   -7.0292 H   0  0  0  0  0  0  0  0  0  0  0  0
  -10.6036   11.0087  -10.0295 Cl  0  0  0  0  0  0  0  0  0  0  0  0
  -10.3366   12.6861   -9.7336 C   0  0  0  0  0  0  0  0  0  0  0  0
  -11.1304   13.3261   -8.7966 C   0  0  0  0  0  0  0  0  0  0  0  0
  -10.9309   14.6684   -8.5417 C   0  0  0  0  0  0  0  0  0  0  0  0
   -9.9441   15.3462   -9.2249 C   0  0  0  0  0  0  0  0  0  0  0  0
   -9.1471   14.6988  -10.1751 C   0  0  0  0  0  0  0  0  0  0  0  0
   -9.3492   13.3662  -10.4278 C   0  0  0  0  0  0  0  0  0  0  0  0
   -9.7636   16.7385   -8.9037 N   0  0  0  0  0  0  0  0  0  0  0  0
  -10.6915   17.0794   -7.9535 C   0  0  0  0  0  0  0  0  0  0  0  0
  -11.6395   15.7710   -7.5312 S   0  0  0  0  0  0  0  0  0  0  0  0
  -12.1559   19.2292   -7.6327 S   0  0  0  0  0  0  0  0  0  0  0  0
  -11.9391   20.6077   -7.5540 O   0  0  0  0  0  0  0  0  0  0  0  0
  -13.0353   18.9499   -6.5780 O   0  0  0  0  0  0  0  0  0  0  0  0
  -12.7470   18.7424   -9.2192 C   0  0  0  0  0  0  0  0  0  0  0  0
  -12.1540   18.9891  -10.4961 C   0  0  0  0  0  0  0  0  0  0  0  0
  -13.0853   18.4041  -11.5412 C   0  0  0  0  0  0  0  0  0  0  0  0
  -12.8822   18.4215  -12.9228 C   0  0  0  0  0  0  0  0  0  0  0  0
  -13.8326   17.8339  -13.7417 C   0  0  0  0  0  0  0  0  0  0  0  0
  -14.9829   17.2148  -13.2265 C   0  0  0  0  0  0  0  0  0  0  0  0
  -15.1821   17.2048  -11.8519 C   0  0  0  0  0  0  0  0  0  0  0  0
  -14.2284   17.8003  -11.0225 C   0  0  0  0  0  0  0  0  0  0  0  0
  -14.1487   17.9492   -9.3881 S   0  0  0  0  0  0  0  0  0  0  0  0
  3  4  1  0  0  0
  9  4  2  0  0  0
  9  8  1  0  0  0
  4  5  1  0  0  0
  8  7  2  0  0  0
  5  6  2  0  0  0
  7  6  1  0  0  0
  7 10  1  0  0  0
  6 12  1  0  0  0
 10 11  2  0  0  0
 20 19  2  0  0  0
 20 21  1  0  0  0
 19 18  1  0  0  0
 11 12  1  0  0  0
 11  1  1  0  0  0
 21 22  2  0  0  0
 18 17  1  0  0  0
 18 23  2  0  0  0
 17 16  2  0  0  0
  1 13  1  0  0  0
 22 23  1  0  0  0
 23 24  1  0  0  0
 16 24  1  0  0  0
 16 13  1  0  0  0
 13 14  2  0  0  0
 13 15  2  0  0  0
  1  2  1  0  0  0
M  END
> <minimizedAffinity>
-7.91296

$$$$
4RQV_R2S_A_406


 24 27  0  0  0  0  0  0  0  0999 V2000
  -11.3335   18.7434   -8.8442 N   0  0  0  0  0  0  0  0  0  0  0  0
  -10.4284   18.9716   -9.1572 H   0  0  0  0  0  0  0  0  0  0  0  0
  -17.5803   21.5588  -12.5926 Cl  0  0  0  0  0  0  0  0  0  0  0  0
  -16.2859   21.2400  -11.4990 C   0  0  0  0  0  0  0  0  0  0  0  0
  -15.4285   20.1892  -11.7788 C   0  0  0  0  0  0  0  0  0  0  0  0
  -14.3832   19.9190  -10.9181 C   0  0  0  0  0  0  0  0  0  0  0  0
  -14.2127   20.7013   -9.7961 C   0  0  0  0  0  0  0  0  0  0  0  0
  -15.0836   21.7588   -9.5126 C   0  0  0  0  0  0  0  0  0  0  0  0
  -16.1223   22.0232  -10.3681 C   0  0  0  0  0  0  0  0  0  0  0  0
  -13.0934   20.3900   -8.9450 N   0  0  0  0  0  0  0  0  0  0  0  0
  -12.4417   19.3078   -9.4781 C   0  0  0  0  0  0  0  0  0  0  0  0
  -13.1715   18.7921  -10.8890 S   0  0  0  0  0  0  0  0  0  0  0  0
  -11.5114   17.7242   -7.6085 S   0  0  0  0  0  0  0  0  0  0  0  0
  -12.8056   17.7514   -7.0814 O   0  0  0  0  0  0  0  0  0  0  0  0
  -10.6870   18.0969   -6.5383 O   0  0  0  0  0  0  0  0  0  0  0  0
  -11.1188   16.1597   -8.3168 C   0  0  0  0  0  0  0  0  0  0  0  0
  -11.7547   14.9008   -8.0846 C   0  0  0  0  0  0  0  0  0  0  0  0
  -11.0041   13.8645   -8.8995 C   0  0  0  0  0  0  0  0  0  0  0  0
  -11.2995   12.5012   -8.9652 C   0  0  0  0  0  0  0  0  0  0  0  0
  -10.5144   11.6889   -9.7669 C   0  0  0  0  0  0  0  0  0  0  0  0
   -9.4425   12.1941  -10.5203 C   0  0  0  0  0  0  0  0  0  0  0  0
   -9.1502   13.5500  -10.4474 C   0  0  0  0  0  0  0  0  0  0  0  0
   -9.9366   14.3723   -9.6365 C   0  0  0  0  0  0  0  0  0  0  0  0
   -9.8754   15.9872   -9.3398 S   0  0  0  0  0  0  0  0  0  0  0  0
  3  4  1  0  0  0
  9  4  2  0  0  0
  9  8  1  0  0  0
  4  5  1  0  0  0
  8  7  2  0  0  0
  5  6  2  0  0  0
  7  6  1  0  0  0
  7 10  1  0  0  0
  6 12  1  0  0  0
 10 11  2  0  0  0
 20 19  2  0  0  0
 20 21  1  0  0  0
 19 18  1  0  0  0
 11 12  1  0  0  0
 11  1  1  0  0  0
 21 22  2  0  0  0
 18 17  1  0  0  0
 18 23  2  0  0  0
 17 16  2  0  0  0
  1 13  1  0  0  0
 22 23  1  0  0  0
 23 24  1  0  0  0
 16 24  1  0  0  0
 16 13  1  0  0  0
 13 14  2  0  0  0
 13 15  2  0  0  0
  1  2  1  0  0  0
M  END
> <minimizedAffinity>
-7.31923

$$$$
4RQV_R2S_A_406


 24 27  0  0  0  0  0  0  0  0999 V2000
   -9.7487   18.6317   -7.8545 N   0  0  0  0  0  0  0  0  0  0  0  0
   -8.8737   18.8957   -7.4885 H   0  0  0  0  0  0  0  0  0  0  0  0
  -10.6229   11.1747  -10.0057 Cl  0  0  0  0  0  0  0  0  0  0  0  0
  -10.7376   12.7309   -9.2722 C   0  0  0  0  0  0  0  0  0  0  0  0
   -9.8751   13.7270   -9.6981 C   0  0  0  0  0  0  0  0  0  0  0  0
   -9.9524   14.9815   -9.1265 C   0  0  0  0  0  0  0  0  0  0  0  0
  -10.8879   15.2187   -8.1423 C   0  0  0  0  0  0  0  0  0  0  0  0
  -11.7545   14.2092   -7.7098 C   0  0  0  0  0  0  0  0  0  0  0  0
  -11.6736   12.9636   -8.2778 C   0  0  0  0  0  0  0  0  0  0  0  0
  -10.9408   16.5506   -7.5968 N   0  0  0  0  0  0  0  0  0  0  0  0
   -9.9705   17.3003   -8.2104 C   0  0  0  0  0  0  0  0  0  0  0  0
   -9.1332   16.4031   -9.3431 S   0  0  0  0  0  0  0  0  0  0  0  0
  -10.9014   19.7439   -8.0328 S   0  0  0  0  0  0  0  0  0  0  0  0
  -10.3763   21.0224   -8.2403 O   0  0  0  0  0  0  0  0  0  0  0  0
  -11.6606   19.8605   -6.8607 O   0  0  0  0  0  0  0  0  0  0  0  0
  -11.8062   19.1660   -9.4295 C   0  0  0  0  0  0  0  0  0  0  0  0
  -11.3097   18.8389  -10.7294 C   0  0  0  0  0  0  0  0  0  0  0  0
  -12.5039   18.4408  -11.5762 C   0  0  0  0  0  0  0  0  0  0  0  0
  -12.4645   18.0414  -12.9137 C   0  0  0  0  0  0  0  0  0  0  0  0
  -13.6522   17.7032  -13.5416 C   0  0  0  0  0  0  0  0  0  0  0  0
  -14.8870   17.7394  -12.8740 C   0  0  0  0  0  0  0  0  0  0  0  0
  -14.9208   18.1421  -11.5451 C   0  0  0  0  0  0  0  0  0  0  0  0
  -13.7259   18.4884  -10.9092 C   0  0  0  0  0  0  0  0  0  0  0  0
  -13.4143   18.9832   -9.3737 S   0  0  0  0  0  0  0  0  0  0  0  0
  3  4  1  0  0  0
  9  4  2  0  0  0
  9  8  1  0  0  0
  4  5  1  0  0  0
  8  7  2  0  0  0
  5  6  2  0  0  0
  7  6  1  0  0  0
  7 10  1  0  0  0
  6 12  1  0  0  0
 10 11  2  0  0  0
 20 19  2  0  0  0
 20 21  1  0  0  0
 19 18  1  0  0  0
 11 12  1  0  0  0
 11  1  1  0  0  0
 21 22  2  0  0  0
 18 17  1  0  0  0
 18 23  2  0  0  0
 17 16  2  0  0  0
  1 13  1  0  0  0
 22 23  1  0  0  0
 23 24  1  0  0  0
 16 24  1  0  0  0
 16 13  1  0  0  0
 13 14  2  0  0  0
 13 15  2  0  0  0
  1  2  1  0  0  0
M  END
> <minimizedAffinity>
-6.87905

$$$$
4RQV_R2S_A_406


 24 27  0  0  0  0  0  0  0  0999 V2000
  -11.8231   18.9393   -8.1030 N   0  0  0  0  0  0  0  0  0  0  0  0
  -11.1353   19.4729   -7.6430 H   0  0  0  0  0  0  0  0  0  0  0  0
  -10.0941   11.5362   -9.8925 Cl  0  0  0  0  0  0  0  0  0  0  0  0
  -10.7070   12.9941   -9.2059 C   0  0  0  0  0  0  0  0  0  0  0  0
  -10.3050   14.2015   -9.7520 C   0  0  0  0  0  0  0  0  0  0  0  0
  -10.7868   15.3809   -9.2196 C   0  0  0  0  0  0  0  0  0  0  0  0
  -11.6599   15.3338   -8.1539 C   0  0  0  0  0  0  0  0  0  0  0  0
  -12.0601   14.1129   -7.6003 C   0  0  0  0  0  0  0  0  0  0  0  0
  -11.5781   12.9434   -8.1298 C   0  0  0  0  0  0  0  0  0  0  0  0
  -12.1492   16.5921   -7.6526 N   0  0  0  0  0  0  0  0  0  0  0  0
  -11.5731   17.5958   -8.3878 C   0  0  0  0  0  0  0  0  0  0  0  0
  -10.5628   16.9831   -9.5680 S   0  0  0  0  0  0  0  0  0  0  0  0
  -13.2192   19.6314   -8.5147 S   0  0  0  0  0  0  0  0  0  0  0  0
  -13.3477   20.9194   -7.9875 O   0  0  0  0  0  0  0  0  0  0  0  0
  -14.3003   18.9206   -7.9764 O   0  0  0  0  0  0  0  0  0  0  0  0
  -13.1606   19.6405  -10.2753 C   0  0  0  0  0  0  0  0  0  0  0  0
  -12.0980   20.0861  -11.1211 C   0  0  0  0  0  0  0  0  0  0  0  0
  -12.5709   19.9267  -12.5537 C   0  0  0  0  0  0  0  0  0  0  0  0
  -11.8372   20.2410  -13.6996 C   0  0  0  0  0  0  0  0  0  0  0  0
  -12.4174   20.0281  -14.9394 C   0  0  0  0  0  0  0  0  0  0  0  0
  -13.7104   19.4983  -15.0783 C   0  0  0  0  0  0  0  0  0  0  0  0
  -14.4374   19.1921  -13.9351 C   0  0  0  0  0  0  0  0  0  0  0  0
  -13.8579   19.4095  -12.6825 C   0  0  0  0  0  0  0  0  0  0  0  0
  -14.4232   19.1483  -11.1620 S   0  0  0  0  0  0  0  0  0  0  0  0
  3  4  1  0  0  0
  9  4  2  0  0  0
  9  8  1  0  0  0
  4  5  1  0  0  0
  8  7  2  0  0  0
  5  6  2  0  0  0
  7  6  1  0  0  0
  7 10  1  0  0  0
  6 12  1  0  0  0
 10 11  2  0  0  0
 20 19  2  0  0  0
 20 21  1  0  0  0
 19 18  1  0  0  0
 11 12  1  0  0  0
 11  1  1  0  0  0
 21 22  2  0  0  0
 18 17  1  0  0  0
 18 23  2  0  0  0
 17 16  2  0  0  0
  1 13  1  0  0  0
 22 23  1  0  0  0
 23 24  1  0  0  0
 16 24  1  0  0  0
 16 13  1  0  0  0
 13 14  2  0  0  0
 13 15  2  0  0  0
  1  2  1  0  0  0
M  END
> <minimizedAffinity>
-6.42487

$$$$
4RQV_R2S_A_406


 24 27  0  0  0  0  0  0  0  0999 V2000
  -11.5716   18.2149   -6.7482 N   0  0  0  0  0  0  0  0  0  0  0  0
  -11.5238   18.3119   -5.7696 H   0  0  0  0  0  0  0  0  0  0  0  0
  -10.5623   11.1755   -9.9773 Cl  0  0  0  0  0  0  0  0  0  0  0  0
  -10.4139   12.8028   -9.4273 C   0  0  0  0  0  0  0  0  0  0  0  0
  -11.4495   13.3464   -8.6858 C   0  0  0  0  0  0  0  0  0  0  0  0
  -11.3495   14.6468   -8.2324 C   0  0  0  0  0  0  0  0  0  0  0  0
  -10.2196   15.3795   -8.5264 C   0  0  0  0  0  0  0  0  0  0  0  0
   -9.1772   14.8300   -9.2805 C   0  0  0  0  0  0  0  0  0  0  0  0
   -9.2805   13.5390   -9.7314 C   0  0  0  0  0  0  0  0  0  0  0  0
  -10.1573   16.7224   -8.0096 N   0  0  0  0  0  0  0  0  0  0  0  0
  -11.3209   16.9699   -7.3277 C   0  0  0  0  0  0  0  0  0  0  0  0
  -12.3307   15.6398   -7.3436 S   0  0  0  0  0  0  0  0  0  0  0  0
  -11.9379   19.4961   -7.6547 S   0  0  0  0  0  0  0  0  0  0  0  0
  -12.1783   19.1506   -8.9875 O   0  0  0  0  0  0  0  0  0  0  0  0
  -10.8572   20.3865   -7.7108 O   0  0  0  0  0  0  0  0  0  0  0  0
  -13.3750   20.1468   -6.8707 C   0  0  0  0  0  0  0  0  0  0  0  0
  -14.6504   20.4228   -7.4539 C   0  0  0  0  0  0  0  0  0  0  0  0
  -15.5210   21.0170   -6.3628 C   0  0  0  0  0  0  0  0  0  0  0  0
  -16.8488   21.4257   -6.5042 C   0  0  0  0  0  0  0  0  0  0  0  0
  -17.5058   21.9443   -5.4003 C   0  0  0  0  0  0  0  0  0  0  0  0
  -16.8834   22.0607   -4.1469 C   0  0  0  0  0  0  0  0  0  0  0  0
  -15.5611   21.6571   -4.0133 C   0  0  0  0  0  0  0  0  0  0  0  0
  -14.8932   21.1378   -5.1252 C   0  0  0  0  0  0  0  0  0  0  0  0
  -13.3637   20.5657   -5.3065 S   0  0  0  0  0  0  0  0  0  0  0  0
  3  4  1  0  0  0
  9  4  2  0  0  0
  9  8  1  0  0  0
  4  5  1  0  0  0
  8  7  2  0  0  0
  5  6  2  0  0  0
  7  6  1  0  0  0
  7 10  1  0  0  0
  6 12  1  0  0  0
 10 11  2  0  0  0
 20 19  2  0  0  0
 20 21  1  0  0  0
 19 18  1  0  0  0
 11 12  1  0  0  0
 11  1  1  0  0  0
 21 22  2  0  0  0
 18 17  1  0  0  0
 18 23  2  0  0  0
 17 16  2  0  0  0
  1 13  1  0  0  0
 22 23  1  0  0  0
 23 24  1  0  0  0
 16 24  1  0  0  0
 16 13  1  0  0  0
 13 14  2  0  0  0
 13 15  2  0  0  0
  1  2  1  0  0  0
M  END
> <minimizedAffinity>
-6.11024

$$$$
4RQV_R2S_A_406


 24 27  0  0  0  0  0  0  0  0999 V2000
  -12.1203   18.3917   -7.6667 N   0  0  0  0  0  0  0  0  0  0  0  0
  -11.6376   18.8491   -6.9408 H   0  0  0  0  0  0  0  0  0  0  0  0
  -10.3128   11.0638   -9.6749 Cl  0  0  0  0  0  0  0  0  0  0  0  0
  -10.3961   12.7748   -9.4792 C   0  0  0  0  0  0  0  0  0  0  0  0
  -11.3751   13.2980   -8.6512 C   0  0  0  0  0  0  0  0  0  0  0  0
  -11.4572   14.6653   -8.4776 C   0  0  0  0  0  0  0  0  0  0  0  0
  -10.5621   15.4841   -9.1320 C   0  0  0  0  0  0  0  0  0  0  0  0
   -9.5774   14.9535   -9.9724 C   0  0  0  0  0  0  0  0  0  0  0  0
   -9.4999   13.5953  -10.1446 C   0  0  0  0  0  0  0  0  0  0  0  0
  -10.6781   16.9003   -8.8974 N   0  0  0  0  0  0  0  0  0  0  0  0
  -11.7324   17.1052   -8.0451 C   0  0  0  0  0  0  0  0  0  0  0  0
  -12.4471   15.6621   -7.6028 S   0  0  0  0  0  0  0  0  0  0  0  0
  -13.3454   19.1405   -8.3988 S   0  0  0  0  0  0  0  0  0  0  0  0
  -13.7311   20.3048   -7.7287 O   0  0  0  0  0  0  0  0  0  0  0  0
  -14.4915   18.3341   -8.3927 O   0  0  0  0  0  0  0  0  0  0  0  0
  -12.7068   19.4826  -10.0046 C   0  0  0  0  0  0  0  0  0  0  0  0
  -11.5749   20.2830  -10.3526 C   0  0  0  0  0  0  0  0  0  0  0  0
  -11.4847   20.2944  -11.8669 C   0  0  0  0  0  0  0  0  0  0  0  0
  -10.5172   20.9559  -12.6262 C   0  0  0  0  0  0  0  0  0  0  0  0
  -10.5750   20.8587  -14.0069 C   0  0  0  0  0  0  0  0  0  0  0  0
  -11.5655   20.1099  -14.6624 C   0  0  0  0  0  0  0  0  0  0  0  0
  -12.5281   19.4579  -13.9024 C   0  0  0  0  0  0  0  0  0  0  0  0
  -12.4764   19.5570  -12.5097 C   0  0  0  0  0  0  0  0  0  0  0  0
  -13.4298   18.9126  -11.3369 S   0  0  0  0  0  0  0  0  0  0  0  0
  3  4  1  0  0  0
  9  4  2  0  0  0
  9  8  1  0  0  0
  4  5  1  0  0  0
  8  7  2  0  0  0
  5  6  2  0  0  0
  7  6  1  0  0  0
  7 10  1  0  0  0
  6 12  1  0  0  0
 10 11  2  0  0  0
 20 19  2  0  0  0
 20 21  1  0  0  0
 19 18  1  0  0  0
 11 12  1  0  0  0
 11  1  1  0  0  0
 21 22  2  0  0  0
 18 17  1  0  0  0
 18 23  2  0  0  0
 17 16  2  0  0  0
  1 13  1  0  0  0
 22 23  1  0  0  0
 23 24  1  0  0  0
 16 24  1  0  0  0
 16 13  1  0  0  0
 13 14  2  0  0  0
 13 15  2  0  0  0
  1  2  1  0  0  0
M  END
> <minimizedAffinity>
-6.08238

$$$$
4RQV_R2S_A_406


 24 27  0  0  0  0  0  0  0  0999 V2000
  -11.0989   18.7335   -8.7070 N   0  0  0  0  0  0  0  0  0  0  0  0
  -11.6124   19.2406   -9.3768 H   0  0  0  0  0  0  0  0  0  0  0  0
  -10.3041   11.0212   -9.6489 Cl  0  0  0  0  0  0  0  0  0  0  0  0
  -10.1453   12.7378   -9.6812 C   0  0  0  0  0  0  0  0  0  0  0  0
  -11.0662   13.4996   -8.9818 C   0  0  0  0  0  0  0  0  0  0  0  0
  -10.9552   14.8758   -8.9914 C   0  0  0  0  0  0  0  0  0  0  0  0
   -9.9287   15.4657   -9.6974 C   0  0  0  0  0  0  0  0  0  0  0  0
   -9.0029   14.6941  -10.4079 C   0  0  0  0  0  0  0  0  0  0  0  0
   -9.1171   13.3276  -10.3983 C   0  0  0  0  0  0  0  0  0  0  0  0
   -9.8463   16.9029   -9.6549 N   0  0  0  0  0  0  0  0  0  0  0  0
  -10.8887   17.3663   -8.8941 C   0  0  0  0  0  0  0  0  0  0  0  0
  -11.8199   16.1101   -8.3076 S   0  0  0  0  0  0  0  0  0  0  0  0
  -10.5150   19.4957   -7.4126 S   0  0  0  0  0  0  0  0  0  0  0  0
   -9.6620   20.5478   -7.7574 O   0  0  0  0  0  0  0  0  0  0  0  0
   -9.7185   18.6321   -6.6486 O   0  0  0  0  0  0  0  0  0  0  0  0
  -11.9660   20.0632   -6.5905 C   0  0  0  0  0  0  0  0  0  0  0  0
  -12.1053   20.4750   -5.2288 C   0  0  0  0  0  0  0  0  0  0  0  0
  -13.5667   20.8215   -5.0146 C   0  0  0  0  0  0  0  0  0  0  0  0
  -14.1361   21.2749   -3.8228 C   0  0  0  0  0  0  0  0  0  0  0  0
  -15.4929   21.5535   -3.7983 C   0  0  0  0  0  0  0  0  0  0  0  0
  -16.3069   21.4048   -4.9328 C   0  0  0  0  0  0  0  0  0  0  0  0
  -15.7361   20.9488   -6.1141 C   0  0  0  0  0  0  0  0  0  0  0  0
  -14.3689   20.6623   -6.1422 C   0  0  0  0  0  0  0  0  0  0  0  0
  -13.3932   20.1306   -7.3526 S   0  0  0  0  0  0  0  0  0  0  0  0
  3  4  1  0  0  0
  9  4  2  0  0  0
  9  8  1  0  0  0
  4  5  1  0  0  0
  8  7  2  0  0  0
  5  6  2  0  0  0
  7  6  1  0  0  0
  7 10  1  0  0  0
  6 12  1  0  0  0
 10 11  2  0  0  0
 20 19  2  0  0  0
 20 21  1  0  0  0
 19 18  1  0  0  0
 11 12  1  0  0  0
 11  1  1  0  0  0
 21 22  2  0  0  0
 18 17  1  0  0  0
 18 23  2  0  0  0
 17 16  2  0  0  0
  1 13  1  0  0  0
 22 23  1  0  0  0
 23 24  1  0  0  0
 16 24  1  0  0  0
 16 13  1  0  0  0
 13 14  2  0  0  0
 13 15  2  0  0  0
  1  2  1  0  0  0
M  END
> <minimizedAffinity>
-5.90833

$$$$
