3QOX_SAH_A_417


 33 35  0  0  0  0  0  0  0  0999 V2000
   44.0783   50.8525    6.7215 C   0  0  0  0  0  0  0  0  0  0  0  0
   44.5261   49.4961    6.7958 O   0  0  0  0  0  0  0  0  0  0  0  0
   43.9856   51.3411    8.1714 C   0  0  0  0  0  0  0  0  0  0  0  0
   42.6180   51.6082    8.5057 O   0  0  0  0  0  0  0  0  0  0  0  0
   44.4765   50.1700    9.0089 C   0  0  0  0  0  0  0  0  0  0  0  0
   43.7126   50.0220   10.2011 O   0  0  0  0  0  0  0  0  0  0  0  0
   44.1608   49.0197    8.0876 C   0  0  0  0  0  0  0  0  0  0  0  0
   42.0887   50.8075    8.3660 H   0  0  0  0  0  0  0  0  0  0  0  0
   42.7736   49.9333    9.9745 H   0  0  0  0  0  0  0  0  0  0  0  0
   44.8692   47.7933    8.4728 N   0  0  0  0  0  0  0  0  0  0  0  0
   46.1347   47.7082    8.9644 C   0  0  0  0  0  0  0  0  0  0  0  0
   46.4429   46.4181    9.2072 N   0  0  0  0  0  0  0  0  0  0  0  0
   45.3740   45.6545    8.8794 C   0  0  0  0  0  0  0  0  0  0  0  0
   45.0324   44.2048    8.8959 C   0  0  0  0  0  0  0  0  0  0  0  0
   45.9216   43.2793    9.3358 N   0  0  0  0  0  0  0  0  0  0  0  0
   43.7960   43.8390    8.4605 N   0  0  0  0  0  0  0  0  0  0  0  0
   42.8984   44.7504    8.0179 C   0  0  0  0  0  0  0  0  0  0  0  0
   43.1436   46.0741    7.9865 N   0  0  0  0  0  0  0  0  0  0  0  0
   44.3365   46.5739    8.3861 C   0  0  0  0  0  0  0  0  0  0  0  0
   46.8119   43.5611    9.6474 H   0  0  0  0  0  0  0  0  0  0  0  0
   45.6764   42.3258    9.3434 H   0  0  0  0  0  0  0  0  0  0  0  0
   45.0785   51.6358    5.8729 C   0  0  0  0  0  0  0  0  0  0  0  0
   44.4126   53.2271    5.4784 S   0  0  0  0  0  0  0  0  0  0  0  0
   42.9923   52.8797    4.4784 C   0  0  0  0  0  0  0  0  0  0  0  0
   43.4151   52.5439    3.0419 C   0  0  0  0  0  0  0  0  0  0  0  0
   42.3287   51.4616    1.0391 N   0  0  0  0  0  0  0  0  0  0  0  0
   42.2815   52.6266    1.9915 C   0  0  0  0  0  0  0  0  0  0  0  0
   42.2782   50.5896    1.5659 H   0  0  0  0  0  0  0  0  0  0  0  0
   43.2006   51.4897    0.5106 H   0  0  0  0  0  0  0  0  0  0  0  0
   42.3572   53.9097    1.1955 C   0  0  0  0  0  0  0  0  0  0  0  0
   41.3514   54.4517    0.7162 O   0  0  0  0  0  0  0  0  0  0  0  0
   43.4438   54.4525    1.0012 O   0  0  0  0  0  0  0  0  0  0  0  0
   44.2265   54.0716    1.3483 H   0  0  0  0  0  0  0  0  0  0  0  0
 26 27  1  0  0  0
 27 25  1  0  0  0
 27 30  1  0  0  0
 25 24  1  0  0  0
 24 23  1  0  0  0
 23 22  1  0  0  0
 30 31  2  0  0  0
 30 32  1  0  0  0
 22  1  1  0  0  0
  1  2  1  0  0  0
  1  3  1  0  0  0
  2  7  1  0  0  0
  3  4  1  0  0  0
  3  5  1  0  0  0
  5  6  1  0  0  0
  5  7  1  0  0  0
  7 10  1  0  0  0
 10 11  1  0  0  0
 10 19  1  0  0  0
 11 12  2  0  0  0
 12 13  1  0  0  0
 13 14  1  0  0  0
 13 19  2  0  0  0
 14 15  1  0  0  0
 14 16  2  0  0  0
 16 17  1  0  0  0
 17 18  2  0  0  0
 18 19  1  0  0  0
 26 28  1  0  0  0
 26 29  1  0  0  0
 32 33  1  0  0  0
  4  8  1  0  0  0
  6  9  1  0  0  0
 15 20  1  0  0  0
 15 21  1  0  0  0
M  END
> <minimizedAffinity>
-10.61917

$$$$
3QOX_SAH_A_417


 33 35  0  0  0  0  0  0  0  0999 V2000
   44.4941   50.8559    6.4187 C   0  0  0  0  0  0  0  0  0  0  0  0
   44.9245   49.6997    7.1424 O   0  0  0  0  0  0  0  0  0  0  0  0
   43.8712   51.7921    7.4604 C   0  0  0  0  0  0  0  0  0  0  0  0
   42.4679   51.9328    7.2069 O   0  0  0  0  0  0  0  0  0  0  0  0
   44.0613   51.0769    8.7894 C   0  0  0  0  0  0  0  0  0  0  0  0
   42.9239   51.2268    9.6323 O   0  0  0  0  0  0  0  0  0  0  0  0
   44.1323   49.6448    8.3250 C   0  0  0  0  0  0  0  0  0  0  0  0
   42.0480   51.0585    7.2186 H   0  0  0  0  0  0  0  0  0  0  0  0
   42.1325   50.9148    9.1661 H   0  0  0  0  0  0  0  0  0  0  0  0
   44.6898   48.7580    9.3532 N   0  0  0  0  0  0  0  0  0  0  0  0
   44.3500   48.7289   10.6701 C   0  0  0  0  0  0  0  0  0  0  0  0
   45.0690   47.7812   11.3049 N   0  0  0  0  0  0  0  0  0  0  0  0
   45.8792   47.1823   10.4005 C   0  0  0  0  0  0  0  0  0  0  0  0
   46.8965   46.0944   10.4107 C   0  0  0  0  0  0  0  0  0  0  0  0
   47.1971   45.4253   11.5520 N   0  0  0  0  0  0  0  0  0  0  0  0
   47.5112   45.7891    9.2355 N   0  0  0  0  0  0  0  0  0  0  0  0
   47.2227   46.4481    8.0888 C   0  0  0  0  0  0  0  0  0  0  0  0
   46.3080   47.4333    8.0128 N   0  0  0  0  0  0  0  0  0  0  0  0
   45.6267   47.8410    9.1092 C   0  0  0  0  0  0  0  0  0  0  0  0
   46.7430   45.6589   12.3937 H   0  0  0  0  0  0  0  0  0  0  0  0
   47.8694   44.7061   11.5385 H   0  0  0  0  0  0  0  0  0  0  0  0
   45.7097   51.4501    5.7090 C   0  0  0  0  0  0  0  0  0  0  0  0
   45.2089   52.8227    4.7107 S   0  0  0  0  0  0  0  0  0  0  0  0
   44.1265   52.1191    3.4976 C   0  0  0  0  0  0  0  0  0  0  0  0
   42.7920   52.8762    3.4639 C   0  0  0  0  0  0  0  0  0  0  0  0
   42.3700   51.4855    1.4022 N   0  0  0  0  0  0  0  0  0  0  0  0
   41.9995   52.7436    2.1411 C   0  0  0  0  0  0  0  0  0  0  0  0
   42.2143   50.6782    2.0059 H   0  0  0  0  0  0  0  0  0  0  0  0
   43.3535   51.5254    1.1347 H   0  0  0  0  0  0  0  0  0  0  0  0
   42.2359   53.9292    1.2333 C   0  0  0  0  0  0  0  0  0  0  0  0
   41.3054   54.5951    0.7582 O   0  0  0  0  0  0  0  0  0  0  0  0
   43.3829   54.2626    0.9393 O   0  0  0  0  0  0  0  0  0  0  0  0
   44.1121   53.7827    1.2797 H   0  0  0  0  0  0  0  0  0  0  0  0
 26 27  1  0  0  0
 27 25  1  0  0  0
 27 30  1  0  0  0
 25 24  1  0  0  0
 24 23  1  0  0  0
 23 22  1  0  0  0
 30 31  2  0  0  0
 30 32  1  0  0  0
 22  1  1  0  0  0
  1  2  1  0  0  0
  1  3  1  0  0  0
  2  7  1  0  0  0
  3  4  1  0  0  0
  3  5  1  0  0  0
  5  6  1  0  0  0
  5  7  1  0  0  0
  7 10  1  0  0  0
 10 11  1  0  0  0
 10 19  1  0  0  0
 11 12  2  0  0  0
 12 13  1  0  0  0
 13 14  1  0  0  0
 13 19  2  0  0  0
 14 15  1  0  0  0
 14 16  2  0  0  0
 16 17  1  0  0  0
 17 18  2  0  0  0
 18 19  1  0  0  0
 26 28  1  0  0  0
 26 29  1  0  0  0
 32 33  1  0  0  0
  4  8  1  0  0  0
  6  9  1  0  0  0
 15 20  1  0  0  0
 15 21  1  0  0  0
M  END
> <minimizedAffinity>
-9.33411

$$$$
3QOX_SAH_A_417


 33 35  0  0  0  0  0  0  0  0999 V2000
   44.4089   50.6173    6.4901 C   0  0  0  0  0  0  0  0  0  0  0  0
   44.4196   49.1870    6.4950 O   0  0  0  0  0  0  0  0  0  0  0  0
   44.4013   51.0394    7.9637 C   0  0  0  0  0  0  0  0  0  0  0  0
   43.1654   51.6953    8.2729 O   0  0  0  0  0  0  0  0  0  0  0  0
   44.4735   49.7347    8.7425 C   0  0  0  0  0  0  0  0  0  0  0  0
   43.6459   49.7694    9.9003 O   0  0  0  0  0  0  0  0  0  0  0  0
   43.8668   48.7827    7.7440 C   0  0  0  0  0  0  0  0  0  0  0  0
   42.4250   51.1027    8.0692 H   0  0  0  0  0  0  0  0  0  0  0  0
   42.7360   49.9834    9.6411 H   0  0  0  0  0  0  0  0  0  0  0  0
   44.1504   47.3810    8.0747 N   0  0  0  0  0  0  0  0  0  0  0  0
   43.2457   46.3686    8.1586 C   0  0  0  0  0  0  0  0  0  0  0  0
   43.8758   45.2207    8.4805 N   0  0  0  0  0  0  0  0  0  0  0  0
   45.1992   45.4794    8.6025 C   0  0  0  0  0  0  0  0  0  0  0  0
   46.4294   44.7038    8.9239 C   0  0  0  0  0  0  0  0  0  0  0  0
   46.3730   43.3725    9.1793 N   0  0  0  0  0  0  0  0  0  0  0  0
   47.6140   45.3734    8.9473 N   0  0  0  0  0  0  0  0  0  0  0  0
   47.6863   46.7015    8.6954 C   0  0  0  0  0  0  0  0  0  0  0  0
   46.6130   47.4553    8.3906 N   0  0  0  0  0  0  0  0  0  0  0  0
   45.3722   46.9166    8.3387 C   0  0  0  0  0  0  0  0  0  0  0  0
   45.5077   42.9035    9.1583 H   0  0  0  0  0  0  0  0  0  0  0  0
   47.1974   42.8755    9.3858 H   0  0  0  0  0  0  0  0  0  0  0  0
   45.6384   51.0977    5.7208 C   0  0  0  0  0  0  0  0  0  0  0  0
   45.3476   52.7213    5.0801 S   0  0  0  0  0  0  0  0  0  0  0  0
   43.6867   52.6667    4.4664 C   0  0  0  0  0  0  0  0  0  0  0  0
   43.6823   52.5070    2.9402 C   0  0  0  0  0  0  0  0  0  0  0  0
   41.8451   51.5412    1.5068 N   0  0  0  0  0  0  0  0  0  0  0  0
   42.3138   52.7564    2.2616 C   0  0  0  0  0  0  0  0  0  0  0  0
   41.8005   50.7434    2.1409 H   0  0  0  0  0  0  0  0  0  0  0  0
   42.4982   51.3381    0.7501 H   0  0  0  0  0  0  0  0  0  0  0  0
   42.3743   53.9284    1.3085 C   0  0  0  0  0  0  0  0  0  0  0  0
   41.3561   54.5131    0.9128 O   0  0  0  0  0  0  0  0  0  0  0  0
   43.4601   54.3327    0.8953 O   0  0  0  0  0  0  0  0  0  0  0  0
   44.2518   53.9154    1.1726 H   0  0  0  0  0  0  0  0  0  0  0  0
 26 27  1  0  0  0
 27 25  1  0  0  0
 27 30  1  0  0  0
 25 24  1  0  0  0
 24 23  1  0  0  0
 23 22  1  0  0  0
 30 31  2  0  0  0
 30 32  1  0  0  0
 22  1  1  0  0  0
  1  2  1  0  0  0
  1  3  1  0  0  0
  2  7  1  0  0  0
  3  4  1  0  0  0
  3  5  1  0  0  0
  5  6  1  0  0  0
  5  7  1  0  0  0
  7 10  1  0  0  0
 10 11  1  0  0  0
 10 19  1  0  0  0
 11 12  2  0  0  0
 12 13  1  0  0  0
 13 14  1  0  0  0
 13 19  2  0  0  0
 14 15  1  0  0  0
 14 16  2  0  0  0
 16 17  1  0  0  0
 17 18  2  0  0  0
 18 19  1  0  0  0
 26 28  1  0  0  0
 26 29  1  0  0  0
 32 33  1  0  0  0
  4  8  1  0  0  0
  6  9  1  0  0  0
 15 20  1  0  0  0
 15 21  1  0  0  0
M  END
> <minimizedAffinity>
-9.11184

$$$$
3QOX_SAH_A_417


 33 35  0  0  0  0  0  0  0  0999 V2000
   44.0352   50.4747    6.2873 C   0  0  0  0  0  0  0  0  0  0  0  0
   44.4621   49.1338    6.5433 O   0  0  0  0  0  0  0  0  0  0  0  0
   44.0820   51.1929    7.6406 C   0  0  0  0  0  0  0  0  0  0  0  0
   42.7551   51.5556    8.0422 O   0  0  0  0  0  0  0  0  0  0  0  0
   44.6235   50.1559    8.6129 C   0  0  0  0  0  0  0  0  0  0  0  0
   43.9666   50.2269    9.8740 O   0  0  0  0  0  0  0  0  0  0  0  0
   44.2048   48.8837    7.9218 C   0  0  0  0  0  0  0  0  0  0  0  0
   42.2003   50.7609    8.0806 H   0  0  0  0  0  0  0  0  0  0  0  0
   43.0096   50.1343    9.7458 H   0  0  0  0  0  0  0  0  0  0  0  0
   44.9214   47.7122    8.4400 N   0  0  0  0  0  0  0  0  0  0  0  0
   46.1542   47.7047    9.0151 C   0  0  0  0  0  0  0  0  0  0  0  0
   46.4826   46.4463    9.3712 N   0  0  0  0  0  0  0  0  0  0  0  0
   45.4595   45.6260    9.0340 C   0  0  0  0  0  0  0  0  0  0  0  0
   45.1592   44.1707    9.1359 C   0  0  0  0  0  0  0  0  0  0  0  0
   46.0439   43.3092    9.6977 N   0  0  0  0  0  0  0  0  0  0  0  0
   43.9646   43.7337    8.6518 N   0  0  0  0  0  0  0  0  0  0  0  0
   43.0720   44.5808    8.0877 C   0  0  0  0  0  0  0  0  0  0  0  0
   43.2808   45.9062    7.9744 N   0  0  0  0  0  0  0  0  0  0  0  0
   44.4305   46.4727    8.4101 C   0  0  0  0  0  0  0  0  0  0  0  0
   46.9037   43.6420   10.0430 H   0  0  0  0  0  0  0  0  0  0  0  0
   45.8261   42.3511    9.7601 H   0  0  0  0  0  0  0  0  0  0  0  0
   44.9703   51.0778    5.2402 C   0  0  0  0  0  0  0  0  0  0  0  0
   44.2913   52.5951    4.6336 S   0  0  0  0  0  0  0  0  0  0  0  0
   45.5673   53.7936    4.9050 C   0  0  0  0  0  0  0  0  0  0  0  0
   46.9515   53.1500    4.7486 C   0  0  0  0  0  0  0  0  0  0  0  0
   47.6843   55.4597    5.4493 N   0  0  0  0  0  0  0  0  0  0  0  0
   48.1422   54.0609    5.1333 C   0  0  0  0  0  0  0  0  0  0  0  0
   46.9891   55.4296    6.1950 H   0  0  0  0  0  0  0  0  0  0  0  0
   47.2712   55.8786    4.6160 H   0  0  0  0  0  0  0  0  0  0  0  0
   49.1711   54.1233    4.0274 C   0  0  0  0  0  0  0  0  0  0  0  0
   49.9157   55.1010    3.8703 O   0  0  0  0  0  0  0  0  0  0  0  0
   49.2908   53.1843    3.2418 O   0  0  0  0  0  0  0  0  0  0  0  0
   48.7449   52.4278    3.3293 H   0  0  0  0  0  0  0  0  0  0  0  0
 26 27  1  0  0  0
 27 25  1  0  0  0
 27 30  1  0  0  0
 25 24  1  0  0  0
 24 23  1  0  0  0
 23 22  1  0  0  0
 30 31  2  0  0  0
 30 32  1  0  0  0
 22  1  1  0  0  0
  1  2  1  0  0  0
  1  3  1  0  0  0
  2  7  1  0  0  0
  3  4  1  0  0  0
  3  5  1  0  0  0
  5  6  1  0  0  0
  5  7  1  0  0  0
  7 10  1  0  0  0
 10 11  1  0  0  0
 10 19  1  0  0  0
 11 12  2  0  0  0
 12 13  1  0  0  0
 13 14  1  0  0  0
 13 19  2  0  0  0
 14 15  1  0  0  0
 14 16  2  0  0  0
 16 17  1  0  0  0
 17 18  2  0  0  0
 18 19  1  0  0  0
 26 28  1  0  0  0
 26 29  1  0  0  0
 32 33  1  0  0  0
  4  8  1  0  0  0
  6  9  1  0  0  0
 15 20  1  0  0  0
 15 21  1  0  0  0
M  END
> <minimizedAffinity>
-8.55592

$$$$
3QOX_SAH_A_417


 33 35  0  0  0  0  0  0  0  0999 V2000
   43.8943   50.7300    6.2145 C   0  0  0  0  0  0  0  0  0  0  0  0
   44.5230   49.5162    6.6357 O   0  0  0  0  0  0  0  0  0  0  0  0
   43.8784   51.6410    7.4471 C   0  0  0  0  0  0  0  0  0  0  0  0
   42.5263   51.8679    7.8638 O   0  0  0  0  0  0  0  0  0  0  0  0
   44.5988   50.8476    8.5267 C   0  0  0  0  0  0  0  0  0  0  0  0
   43.9802   51.0120    9.7983 O   0  0  0  0  0  0  0  0  0  0  0  0
   44.3507   49.4404    8.0477 C   0  0  0  0  0  0  0  0  0  0  0  0
   42.0967   51.0173    8.0450 H   0  0  0  0  0  0  0  0  0  0  0  0
   43.0437   50.7667    9.7365 H   0  0  0  0  0  0  0  0  0  0  0  0
   45.2493   48.4726    8.6882 N   0  0  0  0  0  0  0  0  0  0  0  0
   46.2394   47.7620    8.0839 C   0  0  0  0  0  0  0  0  0  0  0  0
   46.8554   46.9774    8.9911 N   0  0  0  0  0  0  0  0  0  0  0  0
   46.2714   47.1779   10.1961 C   0  0  0  0  0  0  0  0  0  0  0  0
   46.4448   46.6631   11.5829 C   0  0  0  0  0  0  0  0  0  0  0  0
   47.4054   45.7517   11.8782 N   0  0  0  0  0  0  0  0  0  0  0  0
   45.6113   47.1416   12.5464 N   0  0  0  0  0  0  0  0  0  0  0  0
   44.6476   48.0504   12.2673 C   0  0  0  0  0  0  0  0  0  0  0  0
   44.4465   48.5600   11.0372 N   0  0  0  0  0  0  0  0  0  0  0  0
   45.2019   48.1661    9.9852 C   0  0  0  0  0  0  0  0  0  0  0  0
   48.0001   45.4159   11.1691 H   0  0  0  0  0  0  0  0  0  0  0  0
   47.5078   45.4260   12.8017 H   0  0  0  0  0  0  0  0  0  0  0  0
   44.6951   51.2966    5.0432 C   0  0  0  0  0  0  0  0  0  0  0  0
   44.1941   52.9638    4.7258 S   0  0  0  0  0  0  0  0  0  0  0  0
   42.7245   52.8084    3.7489 C   0  0  0  0  0  0  0  0  0  0  0  0
   41.7647   53.9717    4.0327 C   0  0  0  0  0  0  0  0  0  0  0  0
   39.4754   53.9306    2.9743 N   0  0  0  0  0  0  0  0  0  0  0  0
   40.8953   54.4092    2.8292 C   0  0  0  0  0  0  0  0  0  0  0  0
   39.0880   54.2766    3.8521 H   0  0  0  0  0  0  0  0  0  0  0  0
   39.4586   52.9107    2.9738 H   0  0  0  0  0  0  0  0  0  0  0  0
   41.4540   53.8882    1.5246 C   0  0  0  0  0  0  0  0  0  0  0  0
   40.9633   52.9146    0.9361 O   0  0  0  0  0  0  0  0  0  0  0  0
   42.4308   54.4313    1.0107 O   0  0  0  0  0  0  0  0  0  0  0  0
   42.8289   55.1704    1.4269 H   0  0  0  0  0  0  0  0  0  0  0  0
 26 27  1  0  0  0
 27 25  1  0  0  0
 27 30  1  0  0  0
 25 24  1  0  0  0
 24 23  1  0  0  0
 23 22  1  0  0  0
 30 31  2  0  0  0
 30 32  1  0  0  0
 22  1  1  0  0  0
  1  2  1  0  0  0
  1  3  1  0  0  0
  2  7  1  0  0  0
  3  4  1  0  0  0
  3  5  1  0  0  0
  5  6  1  0  0  0
  5  7  1  0  0  0
  7 10  1  0  0  0
 10 11  1  0  0  0
 10 19  1  0  0  0
 11 12  2  0  0  0
 12 13  1  0  0  0
 13 14  1  0  0  0
 13 19  2  0  0  0
 14 15  1  0  0  0
 14 16  2  0  0  0
 16 17  1  0  0  0
 17 18  2  0  0  0
 18 19  1  0  0  0
 26 28  1  0  0  0
 26 29  1  0  0  0
 32 33  1  0  0  0
  4  8  1  0  0  0
  6  9  1  0  0  0
 15 20  1  0  0  0
 15 21  1  0  0  0
M  END
> <minimizedAffinity>
-8.10299

$$$$
3QOX_SAH_A_417


 33 35  0  0  0  0  0  0  0  0999 V2000
   43.7892   52.9068    4.4260 C   0  0  0  0  0  0  0  0  0  0  0  0
   43.2926   52.5739    5.7254 O   0  0  0  0  0  0  0  0  0  0  0  0
   45.2152   52.3476    4.3684 C   0  0  0  0  0  0  0  0  0  0  0  0
   46.1543   53.4256    4.2724 O   0  0  0  0  0  0  0  0  0  0  0  0
   45.4108   51.6428    5.7022 C   0  0  0  0  0  0  0  0  0  0  0  0
   46.7229   51.8476    6.2154 O   0  0  0  0  0  0  0  0  0  0  0  0
   44.4326   52.4014    6.5619 C   0  0  0  0  0  0  0  0  0  0  0  0
   46.0375   54.0243    5.0266 H   0  0  0  0  0  0  0  0  0  0  0  0
   46.8990   52.7991    6.2824 H   0  0  0  0  0  0  0  0  0  0  0  0
   44.1305   51.6928    7.8113 N   0  0  0  0  0  0  0  0  0  0  0  0
   43.4528   52.1889    8.8815 C   0  0  0  0  0  0  0  0  0  0  0  0
   43.3664   51.2466    9.8421 N   0  0  0  0  0  0  0  0  0  0  0  0
   43.9842   50.1265    9.3987 C   0  0  0  0  0  0  0  0  0  0  0  0
   44.2520   48.7578    9.9217 C   0  0  0  0  0  0  0  0  0  0  0  0
   43.8192   48.3790   11.1505 N   0  0  0  0  0  0  0  0  0  0  0  0
   44.9405   47.8968    9.1238 N   0  0  0  0  0  0  0  0  0  0  0  0
   45.3795   48.2602    7.8959 C   0  0  0  0  0  0  0  0  0  0  0  0
   45.1621   49.4780    7.3640 N   0  0  0  0  0  0  0  0  0  0  0  0
   44.4948   50.4331    8.0532 C   0  0  0  0  0  0  0  0  0  0  0  0
   43.3224   49.0145   11.7150 H   0  0  0  0  0  0  0  0  0  0  0  0
   44.0019   47.4686   11.4777 H   0  0  0  0  0  0  0  0  0  0  0  0
   42.8485   52.2959    3.3885 C   0  0  0  0  0  0  0  0  0  0  0  0
   43.7023   52.0920    1.8521 S   0  0  0  0  0  0  0  0  0  0  0  0
   42.4329   52.1930    0.6207 C   0  0  0  0  0  0  0  0  0  0  0  0
   41.5175   53.3950    0.8894 C   0  0  0  0  0  0  0  0  0  0  0  0
   39.0494   52.8930    1.0277 N   0  0  0  0  0  0  0  0  0  0  0  0
   40.3135   53.1042    1.8174 C   0  0  0  0  0  0  0  0  0  0  0  0
   39.1889   52.1355    0.3589 H   0  0  0  0  0  0  0  0  0  0  0  0
   38.8143   53.7498    0.5267 H   0  0  0  0  0  0  0  0  0  0  0  0
   40.0900   54.2288    2.8027 C   0  0  0  0  0  0  0  0  0  0  0  0
   40.9253   55.1258    2.9841 O   0  0  0  0  0  0  0  0  0  0  0  0
   39.0519   54.2758    3.4609 O   0  0  0  0  0  0  0  0  0  0  0  0
   38.3970   53.6147    3.3508 H   0  0  0  0  0  0  0  0  0  0  0  0
 26 27  1  0  0  0
 27 25  1  0  0  0
 27 30  1  0  0  0
 25 24  1  0  0  0
 24 23  1  0  0  0
 23 22  1  0  0  0
 30 31  2  0  0  0
 30 32  1  0  0  0
 22  1  1  0  0  0
  1  2  1  0  0  0
  1  3  1  0  0  0
  2  7  1  0  0  0
  3  4  1  0  0  0
  3  5  1  0  0  0
  5  6  1  0  0  0
  5  7  1  0  0  0
  7 10  1  0  0  0
 10 11  1  0  0  0
 10 19  1  0  0  0
 11 12  2  0  0  0
 12 13  1  0  0  0
 13 14  1  0  0  0
 13 19  2  0  0  0
 14 15  1  0  0  0
 14 16  2  0  0  0
 16 17  1  0  0  0
 17 18  2  0  0  0
 18 19  1  0  0  0
 26 28  1  0  0  0
 26 29  1  0  0  0
 32 33  1  0  0  0
  4  8  1  0  0  0
  6  9  1  0  0  0
 15 20  1  0  0  0
 15 21  1  0  0  0
M  END
> <minimizedAffinity>
-7.76833

$$$$
3QOX_SAH_A_417


 33 35  0  0  0  0  0  0  0  0999 V2000
   44.5751   50.4246    8.2089 C   0  0  0  0  0  0  0  0  0  0  0  0
   45.3147   49.7982    9.2607 O   0  0  0  0  0  0  0  0  0  0  0  0
   43.9669   49.2816    7.3885 C   0  0  0  0  0  0  0  0  0  0  0  0
   44.5403   49.2699    6.0753 O   0  0  0  0  0  0  0  0  0  0  0  0
   44.3845   48.0139    8.1183 C   0  0  0  0  0  0  0  0  0  0  0  0
   44.7269   46.9741    7.2080 O   0  0  0  0  0  0  0  0  0  0  0  0
   45.6405   48.4895    8.8021 C   0  0  0  0  0  0  0  0  0  0  0  0
   45.5040   49.1844    6.1440 H   0  0  0  0  0  0  0  0  0  0  0  0
   45.4199   47.2870    6.6056 H   0  0  0  0  0  0  0  0  0  0  0  0
   46.0575   47.5863    9.8813 N   0  0  0  0  0  0  0  0  0  0  0  0
   45.7141   47.6788   11.1944 C   0  0  0  0  0  0  0  0  0  0  0  0
   46.2828   46.6703   11.8856 N   0  0  0  0  0  0  0  0  0  0  0  0
   46.9970   45.9101   11.0225 C   0  0  0  0  0  0  0  0  0  0  0  0
   47.8412   44.6855   11.1006 C   0  0  0  0  0  0  0  0  0  0  0  0
   48.0363   44.0415   12.2787 N   0  0  0  0  0  0  0  0  0  0  0  0
   48.4064   44.2297    9.9495 N   0  0  0  0  0  0  0  0  0  0  0  0
   48.2218   44.8616    8.7667 C   0  0  0  0  0  0  0  0  0  0  0  0
   47.4639   45.9662    8.6294 N   0  0  0  0  0  0  0  0  0  0  0  0
   46.8483   46.5287    9.6958 C   0  0  0  0  0  0  0  0  0  0  0  0
   47.6201   44.3847   13.1021 H   0  0  0  0  0  0  0  0  0  0  0  0
   48.5942   43.2309   12.3100 H   0  0  0  0  0  0  0  0  0  0  0  0
   43.5341   51.3447    8.8446 C   0  0  0  0  0  0  0  0  0  0  0  0
   42.7458   52.3136    7.5912 S   0  0  0  0  0  0  0  0  0  0  0  0
   44.0672   52.8280    6.5295 C   0  0  0  0  0  0  0  0  0  0  0  0
   43.6702   52.6600    5.0567 C   0  0  0  0  0  0  0  0  0  0  0  0
   45.0520   50.9487    3.8219 N   0  0  0  0  0  0  0  0  0  0  0  0
   44.8509   52.4170    4.0859 C   0  0  0  0  0  0  0  0  0  0  0  0
   44.1881   50.5474    3.4571 H   0  0  0  0  0  0  0  0  0  0  0  0
   45.3048   50.4785    4.6910 H   0  0  0  0  0  0  0  0  0  0  0  0
   46.1391   52.9958    4.6255 C   0  0  0  0  0  0  0  0  0  0  0  0
   46.4185   54.1985    4.5234 O   0  0  0  0  0  0  0  0  0  0  0  0
   46.9555   52.2672    5.1876 O   0  0  0  0  0  0  0  0  0  0  0  0
   46.7787   51.3521    5.2835 H   0  0  0  0  0  0  0  0  0  0  0  0
 26 27  1  0  0  0
 27 25  1  0  0  0
 27 30  1  0  0  0
 25 24  1  0  0  0
 24 23  1  0  0  0
 23 22  1  0  0  0
 30 31  2  0  0  0
 30 32  1  0  0  0
 22  1  1  0  0  0
  1  2  1  0  0  0
  1  3  1  0  0  0
  2  7  1  0  0  0
  3  4  1  0  0  0
  3  5  1  0  0  0
  5  6  1  0  0  0
  5  7  1  0  0  0
  7 10  1  0  0  0
 10 11  1  0  0  0
 10 19  1  0  0  0
 11 12  2  0  0  0
 12 13  1  0  0  0
 13 14  1  0  0  0
 13 19  2  0  0  0
 14 15  1  0  0  0
 14 16  2  0  0  0
 16 17  1  0  0  0
 17 18  2  0  0  0
 18 19  1  0  0  0
 26 28  1  0  0  0
 26 29  1  0  0  0
 32 33  1  0  0  0
  4  8  1  0  0  0
  6  9  1  0  0  0
 15 20  1  0  0  0
 15 21  1  0  0  0
M  END
> <minimizedAffinity>
-7.71552

$$$$
