5OVR_AXK_A_601


 32 34  0  0  0  0  0  0  0  0999 V2000
    3.4732  -15.2658  -23.9024 C   0  0  0  0  0  0  0  0  0  0  0  0
    0.9440  -14.5313  -24.7338 C   0  0  0  0  0  0  0  0  0  0  0  0
    1.9320  -14.7052  -25.6801 C   0  0  0  0  0  0  0  0  0  0  0  0
    2.4642  -15.0657  -22.9773 C   0  0  0  0  0  0  0  0  0  0  0  0
    1.1959  -14.7111  -23.3877 C   0  0  0  0  0  0  0  0  0  0  0  0
    3.1893  -15.0904  -25.2464 C   0  0  0  0  0  0  0  0  0  0  0  0
    6.1746  -17.2420  -22.2929 C   0  0  0  0  0  0  0  0  0  0  0  0
    7.1694  -15.6450  -23.7652 C   0  0  0  0  0  0  0  0  0  0  0  0
    4.9175  -16.7681  -22.6167 C   0  0  0  0  0  0  0  0  0  0  0  0
    4.7811  -15.7198  -23.5101 C   0  0  0  0  0  0  0  0  0  0  0  0
    7.3006  -16.6855  -22.8731 C   0  0  0  0  0  0  0  0  0  0  0  0
    5.9165  -15.1647  -24.0779 C   0  0  0  0  0  0  0  0  0  0  0  0
    8.6426  -17.2499  -22.5298 C   0  0  0  0  0  0  0  0  0  0  0  0
    9.3273  -17.5339  -23.7324 O   0  0  0  0  0  0  0  0  0  0  0  0
    9.5009  -16.7070  -24.2087 H   0  0  0  0  0  0  0  0  0  0  0  0
    9.7924  -16.2352  -21.5646 P   0  0  0  0  0  0  0  0  0  0  0  0
   10.3396  -15.1233  -22.4161 O   0  0  0  0  0  0  0  0  0  0  0  0
   10.8502  -17.2940  -20.9524 O   0  0  0  0  0  0  0  0  0  0  0  0
    9.0241  -15.7615  -20.2327 O   0  0  0  0  0  0  0  0  0  0  0  0
    9.6106  -14.5604  -22.7206 H   0  0  0  0  0  0  0  0  0  0  0  0
   10.3763  -17.9569  -20.4262 H   0  0  0  0  0  0  0  0  0  0  0  0
    1.6767  -14.5284  -27.1536 C   0  0  0  0  0  0  0  0  0  0  0  0
    0.5310  -15.2376  -27.6192 O   0  0  0  0  0  0  0  0  0  0  0  0
   -0.2661  -14.8718  -27.2050 H   0  0  0  0  0  0  0  0  0  0  0  0
    1.6401  -13.0882  -27.5589 C   0  0  0  0  0  0  0  0  0  0  0  0
    1.6932  -10.4050  -28.2628 C   0  0  0  0  0  0  0  0  0  0  0  0
    0.5358  -10.9577  -27.7496 C   0  0  0  0  0  0  0  0  0  0  0  0
    0.5196  -12.2922  -27.3939 C   0  0  0  0  0  0  0  0  0  0  0  0
    2.7832  -12.5280  -28.0885 C   0  0  0  0  0  0  0  0  0  0  0  0
    2.8152  -11.1911  -28.4375 C   0  0  0  0  0  0  0  0  0  0  0  0
    4.2655  -10.5196  -29.1044 Cl  0  0  0  0  0  0  0  0  0  0  0  0
    1.7462   -8.7331  -28.7052 Cl  0  0  0  0  0  0  0  0  0  0  0  0
 31 30  1  0  0  0
 32 26  1  0  0  0
 30 26  2  0  0  0
 30 29  1  0  0  0
 26 27  1  0  0  0
 29 25  2  0  0  0
 27 28  2  0  0  0
 25 28  1  0  0  0
 25 22  1  0  0  0
 23 22  1  0  0  0
 22  3  1  0  0  0
  3  6  2  0  0  0
  3  2  1  0  0  0
  6  1  1  0  0  0
  2  5  2  0  0  0
 12  8  2  0  0  0
 12 10  1  0  0  0
 14 13  1  0  0  0
  8 11  1  0  0  0
  1 10  1  0  0  0
  1  4  2  0  0  0
 10  9  2  0  0  0
  5  4  1  0  0  0
 11 13  1  0  0  0
 11  7  2  0  0  0
 13 16  1  0  0  0
 19 16  2  0  0  0
  9  7  1  0  0  0
 16 17  1  0  0  0
 16 18  1  0  0  0
 17 20  1  0  0  0
 18 21  1  0  0  0
 14 15  1  0  0  0
 23 24  1  0  0  0
M  END
> <minimizedAffinity>
-7.66542

$$$$
5OVR_AXK_A_601


 32 34  0  0  0  0  0  0  0  0999 V2000
    4.6679  -17.1839  -23.7291 C   0  0  0  0  0  0  0  0  0  0  0  0
    2.1823  -17.4550  -24.9020 C   0  0  0  0  0  0  0  0  0  0  0  0
    2.5183  -16.2488  -24.3239 C   0  0  0  0  0  0  0  0  0  0  0  0
    4.2929  -18.3861  -24.3019 C   0  0  0  0  0  0  0  0  0  0  0  0
    3.0576  -18.5234  -24.9003 C   0  0  0  0  0  0  0  0  0  0  0  0
    3.7751  -16.1258  -23.7560 C   0  0  0  0  0  0  0  0  0  0  0  0
    8.0534  -15.7844  -23.1176 C   0  0  0  0  0  0  0  0  0  0  0  0
    7.6199  -17.4764  -21.4875 C   0  0  0  0  0  0  0  0  0  0  0  0
    6.8186  -16.0136  -23.6943 C   0  0  0  0  0  0  0  0  0  0  0  0
    5.9813  -16.9861  -23.1755 C   0  0  0  0  0  0  0  0  0  0  0  0
    8.4511  -16.5106  -22.0092 C   0  0  0  0  0  0  0  0  0  0  0  0
    6.3943  -17.7130  -22.0707 C   0  0  0  0  0  0  0  0  0  0  0  0
    9.7773  -16.2084  -21.3869 C   0  0  0  0  0  0  0  0  0  0  0  0
   10.1483  -14.8933  -21.7452 O   0  0  0  0  0  0  0  0  0  0  0  0
    9.5222  -14.2631  -21.3555 H   0  0  0  0  0  0  0  0  0  0  0  0
    9.9237  -16.2609  -19.5816 P   0  0  0  0  0  0  0  0  0  0  0  0
   10.1840  -17.6698  -19.1254 O   0  0  0  0  0  0  0  0  0  0  0  0
    8.5785  -15.5412  -19.0456 O   0  0  0  0  0  0  0  0  0  0  0  0
   11.0410  -15.1858  -19.1519 O   0  0  0  0  0  0  0  0  0  0  0  0
   11.0149  -17.9867  -19.5127 H   0  0  0  0  0  0  0  0  0  0  0  0
    8.5259  -14.6431  -19.4083 H   0  0  0  0  0  0  0  0  0  0  0  0
    1.5856  -15.0665  -24.3264 C   0  0  0  0  0  0  0  0  0  0  0  0
    1.7285  -14.2297  -23.1811 O   0  0  0  0  0  0  0  0  0  0  0  0
    2.6096  -13.8241  -23.1849 H   0  0  0  0  0  0  0  0  0  0  0  0
    1.6596  -14.2823  -25.5989 C   0  0  0  0  0  0  0  0  0  0  0  0
    1.6723  -12.8607  -27.9815 C   0  0  0  0  0  0  0  0  0  0  0  0
    2.7824  -13.5967  -27.6148 C   0  0  0  0  0  0  0  0  0  0  0  0
    2.7654  -14.3083  -26.4312 C   0  0  0  0  0  0  0  0  0  0  0  0
    0.5650  -13.5296  -25.9685 C   0  0  0  0  0  0  0  0  0  0  0  0
    0.5657  -12.8226  -27.1561 C   0  0  0  0  0  0  0  0  0  0  0  0
   -0.8235  -11.8834  -27.5887 Cl  0  0  0  0  0  0  0  0  0  0  0  0
    1.6606  -11.9697  -29.4647 Cl  0  0  0  0  0  0  0  0  0  0  0  0
 31 30  1  0  0  0
 32 26  1  0  0  0
 30 26  2  0  0  0
 30 29  1  0  0  0
 26 27  1  0  0  0
 29 25  2  0  0  0
 27 28  2  0  0  0
 25 28  1  0  0  0
 25 22  1  0  0  0
 23 22  1  0  0  0
 22  3  1  0  0  0
  3  6  2  0  0  0
  3  2  1  0  0  0
  6  1  1  0  0  0
  2  5  2  0  0  0
 12  8  2  0  0  0
 12 10  1  0  0  0
 14 13  1  0  0  0
  8 11  1  0  0  0
  1 10  1  0  0  0
  1  4  2  0  0  0
 10  9  2  0  0  0
  5  4  1  0  0  0
 11 13  1  0  0  0
 11  7  2  0  0  0
 13 16  1  0  0  0
 19 16  2  0  0  0
  9  7  1  0  0  0
 16 17  1  0  0  0
 16 18  1  0  0  0
 17 20  1  0  0  0
 18 21  1  0  0  0
 14 15  1  0  0  0
 23 24  1  0  0  0
M  END
> <minimizedAffinity>
-6.96383

$$$$
5OVR_AXK_A_601


 32 34  0  0  0  0  0  0  0  0999 V2000
    3.3252  -15.7185  -23.4830 C   0  0  0  0  0  0  0  0  0  0  0  0
    0.7131  -15.1399  -24.1684 C   0  0  0  0  0  0  0  0  0  0  0  0
    1.7259  -14.7613  -25.0243 C   0  0  0  0  0  0  0  0  0  0  0  0
    2.2871  -16.0686  -22.6380 C   0  0  0  0  0  0  0  0  0  0  0  0
    0.9797  -15.7934  -22.9811 C   0  0  0  0  0  0  0  0  0  0  0  0
    3.0279  -15.0751  -24.6726 C   0  0  0  0  0  0  0  0  0  0  0  0
    6.2847  -17.3817  -21.9769 C   0  0  0  0  0  0  0  0  0  0  0  0
    7.0299  -15.9273  -23.7197 C   0  0  0  0  0  0  0  0  0  0  0  0
    4.9767  -17.0006  -22.2083 C   0  0  0  0  0  0  0  0  0  0  0  0
    4.6898  -16.0697  -23.1918 C   0  0  0  0  0  0  0  0  0  0  0  0
    7.3110  -16.8508  -22.7379 C   0  0  0  0  0  0  0  0  0  0  0  0
    5.7269  -15.5384  -23.9413 C   0  0  0  0  0  0  0  0  0  0  0  0
    8.7102  -17.3159  -22.4866 C   0  0  0  0  0  0  0  0  0  0  0  0
    9.3452  -17.5118  -23.7332 O   0  0  0  0  0  0  0  0  0  0  0  0
    9.4265  -16.6610  -24.1919 H   0  0  0  0  0  0  0  0  0  0  0  0
    9.8308  -16.2398  -21.5541 P   0  0  0  0  0  0  0  0  0  0  0  0
   10.3394  -15.1345  -22.4376 O   0  0  0  0  0  0  0  0  0  0  0  0
   10.9239  -17.2478  -20.9186 O   0  0  0  0  0  0  0  0  0  0  0  0
    9.0528  -15.7549  -20.2319 O   0  0  0  0  0  0  0  0  0  0  0  0
    9.5918  -14.6033  -22.7537 H   0  0  0  0  0  0  0  0  0  0  0  0
   10.4732  -17.9109  -20.3726 H   0  0  0  0  0  0  0  0  0  0  0  0
    1.4578  -14.0607  -26.3300 C   0  0  0  0  0  0  0  0  0  0  0  0
    2.3809  -13.0109  -26.6098 O   0  0  0  0  0  0  0  0  0  0  0  0
    3.2681  -13.3841  -26.7302 H   0  0  0  0  0  0  0  0  0  0  0  0
    1.3383  -15.0146  -27.4770 C   0  0  0  0  0  0  0  0  0  0  0  0
    1.0471  -16.6927  -29.6672 C   0  0  0  0  0  0  0  0  0  0  0  0
    0.9719  -17.2119  -28.3892 C   0  0  0  0  0  0  0  0  0  0  0  0
    1.1098  -16.3688  -27.3039 C   0  0  0  0  0  0  0  0  0  0  0  0
    1.4286  -14.5125  -28.7580 C   0  0  0  0  0  0  0  0  0  0  0  0
    1.2808  -15.3442  -29.8519 C   0  0  0  0  0  0  0  0  0  0  0  0
    1.4042  -14.6825  -31.4475 Cl  0  0  0  0  0  0  0  0  0  0  0  0
    0.8655  -17.7231  -31.0452 Cl  0  0  0  0  0  0  0  0  0  0  0  0
 31 30  1  0  0  0
 32 26  1  0  0  0
 30 26  2  0  0  0
 30 29  1  0  0  0
 26 27  1  0  0  0
 29 25  2  0  0  0
 27 28  2  0  0  0
 25 28  1  0  0  0
 25 22  1  0  0  0
 23 22  1  0  0  0
 22  3  1  0  0  0
  3  6  2  0  0  0
  3  2  1  0  0  0
  6  1  1  0  0  0
  2  5  2  0  0  0
 12  8  2  0  0  0
 12 10  1  0  0  0
 14 13  1  0  0  0
  8 11  1  0  0  0
  1 10  1  0  0  0
  1  4  2  0  0  0
 10  9  2  0  0  0
  5  4  1  0  0  0
 11 13  1  0  0  0
 11  7  2  0  0  0
 13 16  1  0  0  0
 19 16  2  0  0  0
  9  7  1  0  0  0
 16 17  1  0  0  0
 16 18  1  0  0  0
 17 20  1  0  0  0
 18 21  1  0  0  0
 14 15  1  0  0  0
 23 24  1  0  0  0
M  END
> <minimizedAffinity>
-6.88500

$$$$
5OVR_AXK_A_601


 32 34  0  0  0  0  0  0  0  0999 V2000
    7.8965  -18.4968  -24.0979 C   0  0  0  0  0  0  0  0  0  0  0  0
   10.2218  -19.9869  -24.1141 C   0  0  0  0  0  0  0  0  0  0  0  0
   10.1627  -18.8528  -23.3317 C   0  0  0  0  0  0  0  0  0  0  0  0
    7.9948  -19.6299  -24.8856 C   0  0  0  0  0  0  0  0  0  0  0  0
    9.1492  -20.3850  -24.8879 C   0  0  0  0  0  0  0  0  0  0  0  0
    8.9830  -18.1278  -23.3228 C   0  0  0  0  0  0  0  0  0  0  0  0
    5.5440  -15.6375  -23.8082 C   0  0  0  0  0  0  0  0  0  0  0  0
    4.2810  -17.6324  -24.1734 C   0  0  0  0  0  0  0  0  0  0  0  0
    6.7170  -16.3680  -23.8280 C   0  0  0  0  0  0  0  0  0  0  0  0
    6.6761  -17.7396  -24.0096 C   0  0  0  0  0  0  0  0  0  0  0  0
    4.3261  -16.2687  -23.9887 C   0  0  0  0  0  0  0  0  0  0  0  0
    5.4500  -18.3616  -24.1803 C   0  0  0  0  0  0  0  0  0  0  0  0
    3.0800  -15.4415  -24.0013 C   0  0  0  0  0  0  0  0  0  0  0  0
    3.2425  -14.3771  -23.0867 O   0  0  0  0  0  0  0  0  0  0  0  0
    3.9527  -13.7923  -23.3940 H   0  0  0  0  0  0  0  0  0  0  0  0
    2.5745  -14.6530  -25.5525 P   0  0  0  0  0  0  0  0  0  0  0  0
    3.7569  -13.9919  -26.2049 O   0  0  0  0  0  0  0  0  0  0  0  0
    1.3281  -13.7094  -25.1390 O   0  0  0  0  0  0  0  0  0  0  0  0
    1.8346  -15.7672  -26.4468 O   0  0  0  0  0  0  0  0  0  0  0  0
    4.4322  -14.6596  -26.4028 H   0  0  0  0  0  0  0  0  0  0  0  0
    0.6344  -14.2506  -24.7306 H   0  0  0  0  0  0  0  0  0  0  0  0
   11.3144  -18.4077  -22.4696 C   0  0  0  0  0  0  0  0  0  0  0  0
   11.9920  -17.2607  -22.9772 O   0  0  0  0  0  0  0  0  0  0  0  0
   11.3916  -16.4989  -22.9654 H   0  0  0  0  0  0  0  0  0  0  0  0
   10.9210  -18.2305  -21.0366 C   0  0  0  0  0  0  0  0  0  0  0  0
   10.2703  -17.7975  -18.3745 C   0  0  0  0  0  0  0  0  0  0  0  0
   10.4488  -19.0869  -18.8370 C   0  0  0  0  0  0  0  0  0  0  0  0
   10.7805  -19.2939  -20.1617 C   0  0  0  0  0  0  0  0  0  0  0  0
   10.7230  -16.9497  -20.5658 C   0  0  0  0  0  0  0  0  0  0  0  0
   10.4020  -16.7292  -19.2397 C   0  0  0  0  0  0  0  0  0  0  0  0
   10.1554  -15.1085  -18.6814 Cl  0  0  0  0  0  0  0  0  0  0  0  0
    9.8667  -17.5076  -16.7171 Cl  0  0  0  0  0  0  0  0  0  0  0  0
 31 30  1  0  0  0
 32 26  1  0  0  0
 30 26  2  0  0  0
 30 29  1  0  0  0
 26 27  1  0  0  0
 29 25  2  0  0  0
 27 28  2  0  0  0
 25 28  1  0  0  0
 25 22  1  0  0  0
 23 22  1  0  0  0
 22  3  1  0  0  0
  3  6  2  0  0  0
  3  2  1  0  0  0
  6  1  1  0  0  0
  2  5  2  0  0  0
 12  8  2  0  0  0
 12 10  1  0  0  0
 14 13  1  0  0  0
  8 11  1  0  0  0
  1 10  1  0  0  0
  1  4  2  0  0  0
 10  9  2  0  0  0
  5  4  1  0  0  0
 11 13  1  0  0  0
 11  7  2  0  0  0
 13 16  1  0  0  0
 19 16  2  0  0  0
  9  7  1  0  0  0
 16 17  1  0  0  0
 16 18  1  0  0  0
 17 20  1  0  0  0
 18 21  1  0  0  0
 14 15  1  0  0  0
 23 24  1  0  0  0
M  END
> <minimizedAffinity>
-6.69895

$$$$
5OVR_AXK_A_601


 32 34  0  0  0  0  0  0  0  0999 V2000
    1.8714  -14.0510  -27.4932 C   0  0  0  0  0  0  0  0  0  0  0  0
    1.2556  -12.2440  -29.4889 C   0  0  0  0  0  0  0  0  0  0  0  0
    1.7577  -11.7718  -28.2944 C   0  0  0  0  0  0  0  0  0  0  0  0
    1.3493  -14.4902  -28.6967 C   0  0  0  0  0  0  0  0  0  0  0  0
    1.0517  -13.5934  -29.7017 C   0  0  0  0  0  0  0  0  0  0  0  0
    2.0769  -12.6937  -27.3117 C   0  0  0  0  0  0  0  0  0  0  0  0
    2.1354  -17.1309  -25.4345 C   0  0  0  0  0  0  0  0  0  0  0  0
    3.7251  -15.5375  -24.6333 C   0  0  0  0  0  0  0  0  0  0  0  0
    1.7016  -16.2295  -26.3879 C   0  0  0  0  0  0  0  0  0  0  0  0
    2.2715  -14.9702  -26.4609 C   0  0  0  0  0  0  0  0  0  0  0  0
    3.1528  -16.7878  -24.5619 C   0  0  0  0  0  0  0  0  0  0  0  0
    3.2834  -14.6349  -25.5758 C   0  0  0  0  0  0  0  0  0  0  0  0
    3.6242  -17.8024  -23.5691 C   0  0  0  0  0  0  0  0  0  0  0  0
    4.9548  -18.1535  -23.8886 O   0  0  0  0  0  0  0  0  0  0  0  0
    5.5298  -17.3810  -23.7724 H   0  0  0  0  0  0  0  0  0  0  0  0
    3.6676  -17.3491  -21.8153 P   0  0  0  0  0  0  0  0  0  0  0  0
    3.6849  -18.5872  -20.9623 O   0  0  0  0  0  0  0  0  0  0  0  0
    2.4230  -16.3338  -21.6291 O   0  0  0  0  0  0  0  0  0  0  0  0
    4.9130  -16.3533  -21.6001 O   0  0  0  0  0  0  0  0  0  0  0  0
    4.4762  -19.1097  -21.1667 H   0  0  0  0  0  0  0  0  0  0  0  0
    2.5275  -15.5803  -22.2309 H   0  0  0  0  0  0  0  0  0  0  0  0
    2.0012  -10.3068  -28.0455 C   0  0  0  0  0  0  0  0  0  0  0  0
    2.3748  -10.0149  -26.7010 O   0  0  0  0  0  0  0  0  0  0  0  0
    3.2329  -10.4239  -26.5078 H   0  0  0  0  0  0  0  0  0  0  0  0
    2.9590   -9.7110  -29.0291 C   0  0  0  0  0  0  0  0  0  0  0  0
    4.6351   -8.5923  -30.9361 C   0  0  0  0  0  0  0  0  0  0  0  0
    5.0774   -9.6540  -30.1709 C   0  0  0  0  0  0  0  0  0  0  0  0
    4.2343  -10.2107  -29.2291 C   0  0  0  0  0  0  0  0  0  0  0  0
    2.5365   -8.6399  -29.7876 C   0  0  0  0  0  0  0  0  0  0  0  0
    3.3669   -8.0816  -30.7410 C   0  0  0  0  0  0  0  0  0  0  0  0
    2.8072   -6.7341  -31.6738 Cl  0  0  0  0  0  0  0  0  0  0  0  0
    5.6651   -7.8831  -32.1319 Cl  0  0  0  0  0  0  0  0  0  0  0  0
 31 30  1  0  0  0
 32 26  1  0  0  0
 30 26  2  0  0  0
 30 29  1  0  0  0
 26 27  1  0  0  0
 29 25  2  0  0  0
 27 28  2  0  0  0
 25 28  1  0  0  0
 25 22  1  0  0  0
 23 22  1  0  0  0
 22  3  1  0  0  0
  3  6  2  0  0  0
  3  2  1  0  0  0
  6  1  1  0  0  0
  2  5  2  0  0  0
 12  8  2  0  0  0
 12 10  1  0  0  0
 14 13  1  0  0  0
  8 11  1  0  0  0
  1 10  1  0  0  0
  1  4  2  0  0  0
 10  9  2  0  0  0
  5  4  1  0  0  0
 11 13  1  0  0  0
 11  7  2  0  0  0
 13 16  1  0  0  0
 19 16  2  0  0  0
  9  7  1  0  0  0
 16 17  1  0  0  0
 16 18  1  0  0  0
 17 20  1  0  0  0
 18 21  1  0  0  0
 14 15  1  0  0  0
 23 24  1  0  0  0
M  END
> <minimizedAffinity>
-6.65092

$$$$
5OVR_AXK_A_601


 32 34  0  0  0  0  0  0  0  0999 V2000
    1.6962  -15.2965  -24.0182 C   0  0  0  0  0  0  0  0  0  0  0  0
    1.7176  -16.7697  -21.6822 C   0  0  0  0  0  0  0  0  0  0  0  0
    2.9155  -16.4964  -22.3085 C   0  0  0  0  0  0  0  0  0  0  0  0
    0.5105  -15.6033  -23.3747 C   0  0  0  0  0  0  0  0  0  0  0  0
    0.5162  -16.3279  -22.2009 C   0  0  0  0  0  0  0  0  0  0  0  0
    2.8869  -15.7419  -23.4692 C   0  0  0  0  0  0  0  0  0  0  0  0
    0.7731  -12.7306  -26.5396 C   0  0  0  0  0  0  0  0  0  0  0  0
    2.8850  -13.6705  -27.1435 C   0  0  0  0  0  0  0  0  0  0  0  0
    0.7067  -13.5672  -25.4416 C   0  0  0  0  0  0  0  0  0  0  0  0
    1.7268  -14.4698  -25.1955 C   0  0  0  0  0  0  0  0  0  0  0  0
    1.8662  -12.7768  -27.3866 C   0  0  0  0  0  0  0  0  0  0  0  0
    2.8120  -14.5129  -26.0558 C   0  0  0  0  0  0  0  0  0  0  0  0
    1.9234  -11.8293  -28.5425 C   0  0  0  0  0  0  0  0  0  0  0  0
    0.6133  -11.3738  -28.8105 O   0  0  0  0  0  0  0  0  0  0  0  0
    0.2910  -10.8547  -28.0572 H   0  0  0  0  0  0  0  0  0  0  0  0
    2.9196  -10.3238  -28.3853 P   0  0  0  0  0  0  0  0  0  0  0  0
    4.2072  -10.4750  -29.1469 O   0  0  0  0  0  0  0  0  0  0  0  0
    3.0223  -10.0715  -26.7914 O   0  0  0  0  0  0  0  0  0  0  0  0
    2.0007   -9.0823  -28.8357 O   0  0  0  0  0  0  0  0  0  0  0  0
    4.0124  -10.6206  -30.0859 H   0  0  0  0  0  0  0  0  0  0  0  0
    2.1304   -9.9915  -26.4186 H   0  0  0  0  0  0  0  0  0  0  0  0
    4.2380  -16.9557  -21.7538 C   0  0  0  0  0  0  0  0  0  0  0  0
    4.1543  -17.4367  -20.4143 O   0  0  0  0  0  0  0  0  0  0  0  0
    3.6080  -18.2379  -20.3921 H   0  0  0  0  0  0  0  0  0  0  0  0
    4.9264  -17.9344  -22.6526 C   0  0  0  0  0  0  0  0  0  0  0  0
    6.2525  -19.6480  -24.3854 C   0  0  0  0  0  0  0  0  0  0  0  0
    4.9751  -19.9558  -23.9588 C   0  0  0  0  0  0  0  0  0  0  0  0
    4.3183  -19.0936  -23.1026 C   0  0  0  0  0  0  0  0  0  0  0  0
    6.2082  -17.6482  -23.0723 C   0  0  0  0  0  0  0  0  0  0  0  0
    6.8713  -18.4973  -23.9381 C   0  0  0  0  0  0  0  0  0  0  0  0
    8.4823  -18.1108  -24.4426 Cl  0  0  0  0  0  0  0  0  0  0  0  0
    7.0943  -20.7031  -25.4679 Cl  0  0  0  0  0  0  0  0  0  0  0  0
 31 30  1  0  0  0
 32 26  1  0  0  0
 30 26  2  0  0  0
 30 29  1  0  0  0
 26 27  1  0  0  0
 29 25  2  0  0  0
 27 28  2  0  0  0
 25 28  1  0  0  0
 25 22  1  0  0  0
 23 22  1  0  0  0
 22  3  1  0  0  0
  3  6  2  0  0  0
  3  2  1  0  0  0
  6  1  1  0  0  0
  2  5  2  0  0  0
 12  8  2  0  0  0
 12 10  1  0  0  0
 14 13  1  0  0  0
  8 11  1  0  0  0
  1 10  1  0  0  0
  1  4  2  0  0  0
 10  9  2  0  0  0
  5  4  1  0  0  0
 11 13  1  0  0  0
 11  7  2  0  0  0
 13 16  1  0  0  0
 19 16  2  0  0  0
  9  7  1  0  0  0
 16 17  1  0  0  0
 16 18  1  0  0  0
 17 20  1  0  0  0
 18 21  1  0  0  0
 14 15  1  0  0  0
 23 24  1  0  0  0
M  END
> <minimizedAffinity>
-6.56189

$$$$
5OVR_AXK_A_601


 32 34  0  0  0  0  0  0  0  0999 V2000
    0.7358  -14.0744  -26.1976 C   0  0  0  0  0  0  0  0  0  0  0  0
   -0.3352  -12.6149  -28.2834 C   0  0  0  0  0  0  0  0  0  0  0  0
    0.3330  -11.9483  -27.2779 C   0  0  0  0  0  0  0  0  0  0  0  0
    0.0441  -14.7106  -27.2128 C   0  0  0  0  0  0  0  0  0  0  0  0
   -0.4820  -13.9881  -28.2636 C   0  0  0  0  0  0  0  0  0  0  0  0
    0.8783  -12.6980  -26.2493 C   0  0  0  0  0  0  0  0  0  0  0  0
    1.7596  -15.1667  -22.7987 C   0  0  0  0  0  0  0  0  0  0  0  0
    2.6340  -16.7147  -24.3947 C   0  0  0  0  0  0  0  0  0  0  0  0
    1.2025  -14.4189  -23.8186 C   0  0  0  0  0  0  0  0  0  0  0  0
    1.3689  -14.8106  -25.1357 C   0  0  0  0  0  0  0  0  0  0  0  0
    2.4690  -16.3192  -23.0862 C   0  0  0  0  0  0  0  0  0  0  0  0
    2.0890  -15.9617  -25.4116 C   0  0  0  0  0  0  0  0  0  0  0  0
    3.0241  -17.1254  -21.9552 C   0  0  0  0  0  0  0  0  0  0  0  0
    2.5344  -18.4458  -22.0668 O   0  0  0  0  0  0  0  0  0  0  0  0
    2.8803  -18.8515  -22.8771 H   0  0  0  0  0  0  0  0  0  0  0  0
    4.8218  -17.3031  -21.8131 P   0  0  0  0  0  0  0  0  0  0  0  0
    5.2433  -18.6712  -22.2730 O   0  0  0  0  0  0  0  0  0  0  0  0
    5.1484  -16.8987  -20.2820 O   0  0  0  0  0  0  0  0  0  0  0  0
    5.4968  -16.0770  -22.6068 O   0  0  0  0  0  0  0  0  0  0  0  0
    4.9928  -18.7913  -23.2024 H   0  0  0  0  0  0  0  0  0  0  0  0
    4.8290  -15.9991  -20.1100 H   0  0  0  0  0  0  0  0  0  0  0  0
    0.5173  -10.4538  -27.2860 C   0  0  0  0  0  0  0  0  0  0  0  0
    0.6108   -9.8873  -25.9811 O   0  0  0  0  0  0  0  0  0  0  0  0
    1.4132  -10.2128  -25.5440 H   0  0  0  0  0  0  0  0  0  0  0  0
    1.6525  -10.0222  -28.1606 C   0  0  0  0  0  0  0  0  0  0  0  0
    3.6713   -9.2043  -29.8791 C   0  0  0  0  0  0  0  0  0  0  0  0
    3.8969  -10.2468  -29.0012 C   0  0  0  0  0  0  0  0  0  0  0  0
    2.8843  -10.6536  -28.1545 C   0  0  0  0  0  0  0  0  0  0  0  0
    1.4464   -8.9717  -29.0296 C   0  0  0  0  0  0  0  0  0  0  0  0
    2.4482   -8.5631  -29.8897 C   0  0  0  0  0  0  0  0  0  0  0  0
    2.1584   -7.2374  -30.9657 Cl  0  0  0  0  0  0  0  0  0  0  0  0
    4.9172   -8.6819  -30.9600 Cl  0  0  0  0  0  0  0  0  0  0  0  0
 31 30  1  0  0  0
 32 26  1  0  0  0
 30 26  2  0  0  0
 30 29  1  0  0  0
 26 27  1  0  0  0
 29 25  2  0  0  0
 27 28  2  0  0  0
 25 28  1  0  0  0
 25 22  1  0  0  0
 23 22  1  0  0  0
 22  3  1  0  0  0
  3  6  2  0  0  0
  3  2  1  0  0  0
  6  1  1  0  0  0
  2  5  2  0  0  0
 12  8  2  0  0  0
 12 10  1  0  0  0
 14 13  1  0  0  0
  8 11  1  0  0  0
  1 10  1  0  0  0
  1  4  2  0  0  0
 10  9  2  0  0  0
  5  4  1  0  0  0
 11 13  1  0  0  0
 11  7  2  0  0  0
 13 16  1  0  0  0
 19 16  2  0  0  0
  9  7  1  0  0  0
 16 17  1  0  0  0
 16 18  1  0  0  0
 17 20  1  0  0  0
 18 21  1  0  0  0
 14 15  1  0  0  0
 23 24  1  0  0  0
M  END
> <minimizedAffinity>
-6.55899

$$$$
5OVR_AXK_A_601


 32 34  0  0  0  0  0  0  0  0999 V2000
    2.4246  -13.5107  -28.0436 C   0  0  0  0  0  0  0  0  0  0  0  0
    1.8836  -15.8516  -26.6817 C   0  0  0  0  0  0  0  0  0  0  0  0
    2.8008  -14.9689  -26.1511 C   0  0  0  0  0  0  0  0  0  0  0  0
    1.5231  -14.4257  -28.5575 C   0  0  0  0  0  0  0  0  0  0  0  0
    1.2396  -15.5906  -27.8753 C   0  0  0  0  0  0  0  0  0  0  0  0
    3.0465  -13.7925  -26.8389 C   0  0  0  0  0  0  0  0  0  0  0  0
    2.8504   -9.8618  -28.5898 C   0  0  0  0  0  0  0  0  0  0  0  0
    3.4321  -11.0090  -30.6032 C   0  0  0  0  0  0  0  0  0  0  0  0
    2.5470  -11.0658  -27.9830 C   0  0  0  0  0  0  0  0  0  0  0  0
    2.6744  -12.2493  -28.6894 C   0  0  0  0  0  0  0  0  0  0  0  0
    3.3004   -9.8338  -29.8978 C   0  0  0  0  0  0  0  0  0  0  0  0
    3.1175  -12.2078  -30.0015 C   0  0  0  0  0  0  0  0  0  0  0  0
    3.6574   -8.5165  -30.5096 C   0  0  0  0  0  0  0  0  0  0  0  0
    4.7059   -8.7237  -31.4334 O   0  0  0  0  0  0  0  0  0  0  0  0
    4.3888   -9.2784  -32.1633 H   0  0  0  0  0  0  0  0  0  0  0  0
    2.3879   -7.6149  -31.4365 P   0  0  0  0  0  0  0  0  0  0  0  0
    2.4425   -7.9949  -32.8903 O   0  0  0  0  0  0  0  0  0  0  0  0
    2.6406   -6.0621  -31.0627 O   0  0  0  0  0  0  0  0  0  0  0  0
    0.9756   -7.8805  -30.7131 O   0  0  0  0  0  0  0  0  0  0  0  0
    2.2761   -8.9461  -32.9823 H   0  0  0  0  0  0  0  0  0  0  0  0
    2.5796   -5.9468  -30.1016 H   0  0  0  0  0  0  0  0  0  0  0  0
    3.5043  -15.2261  -24.8447 C   0  0  0  0  0  0  0  0  0  0  0  0
    4.4456  -14.2128  -24.4990 O   0  0  0  0  0  0  0  0  0  0  0  0
    3.9786  -13.3766  -24.3449 H   0  0  0  0  0  0  0  0  0  0  0  0
    2.5496  -15.5013  -23.7256 C   0  0  0  0  0  0  0  0  0  0  0  0
    0.7925  -16.1394  -21.6754 C   0  0  0  0  0  0  0  0  0  0  0  0
    0.5401  -15.0459  -22.4809 C   0  0  0  0  0  0  0  0  0  0  0  0
    1.4153  -14.7394  -23.5046 C   0  0  0  0  0  0  0  0  0  0  0  0
    2.7986  -16.5797  -22.9032 C   0  0  0  0  0  0  0  0  0  0  0  0
    1.9243  -16.9032  -21.8828 C   0  0  0  0  0  0  0  0  0  0  0  0
    2.2686  -18.2614  -20.8650 Cl  0  0  0  0  0  0  0  0  0  0  0  0
   -0.2929  -16.5544  -20.3935 Cl  0  0  0  0  0  0  0  0  0  0  0  0
 31 30  1  0  0  0
 32 26  1  0  0  0
 30 26  2  0  0  0
 30 29  1  0  0  0
 26 27  1  0  0  0
 29 25  2  0  0  0
 27 28  2  0  0  0
 25 28  1  0  0  0
 25 22  1  0  0  0
 23 22  1  0  0  0
 22  3  1  0  0  0
  3  6  2  0  0  0
  3  2  1  0  0  0
  6  1  1  0  0  0
  2  5  2  0  0  0
 12  8  2  0  0  0
 12 10  1  0  0  0
 14 13  1  0  0  0
  8 11  1  0  0  0
  1 10  1  0  0  0
  1  4  2  0  0  0
 10  9  2  0  0  0
  5  4  1  0  0  0
 11 13  1  0  0  0
 11  7  2  0  0  0
 13 16  1  0  0  0
 19 16  2  0  0  0
  9  7  1  0  0  0
 16 17  1  0  0  0
 16 18  1  0  0  0
 17 20  1  0  0  0
 18 21  1  0  0  0
 14 15  1  0  0  0
 23 24  1  0  0  0
M  END
> <minimizedAffinity>
-6.52043

$$$$
5OVR_AXK_A_601


 32 34  0  0  0  0  0  0  0  0999 V2000
    3.7530   -9.0066  -30.4233 C   0  0  0  0  0  0  0  0  0  0  0  0
    4.0131   -6.6395  -31.8222 C   0  0  0  0  0  0  0  0  0  0  0  0
    2.7643   -7.0139  -31.3725 C   0  0  0  0  0  0  0  0  0  0  0  0
    4.9886   -8.6110  -30.9036 C   0  0  0  0  0  0  0  0  0  0  0  0
    5.1267   -7.4236  -31.5920 C   0  0  0  0  0  0  0  0  0  0  0  0
    2.6558   -8.1950  -30.6581 C   0  0  0  0  0  0  0  0  0  0  0  0
    2.7218  -11.2984  -27.6887 C   0  0  0  0  0  0  0  0  0  0  0  0
    3.8267  -12.5745  -29.3795 C   0  0  0  0  0  0  0  0  0  0  0  0
    2.9268  -10.1421  -28.4173 C   0  0  0  0  0  0  0  0  0  0  0  0
    3.5948  -10.1956  -29.6284 C   0  0  0  0  0  0  0  0  0  0  0  0
    3.1649  -12.5161  -28.1735 C   0  0  0  0  0  0  0  0  0  0  0  0
    4.0418  -11.4195  -30.0992 C   0  0  0  0  0  0  0  0  0  0  0  0
    2.8905  -13.7523  -27.3774 C   0  0  0  0  0  0  0  0  0  0  0  0
    3.8044  -13.8012  -26.3012 O   0  0  0  0  0  0  0  0  0  0  0  0
    3.6382  -13.0569  -25.7018 H   0  0  0  0  0  0  0  0  0  0  0  0
    1.2587  -13.9525  -26.6155 P   0  0  0  0  0  0  0  0  0  0  0  0
    1.1796  -13.1504  -25.3462 O   0  0  0  0  0  0  0  0  0  0  0  0
    1.0605  -15.5530  -26.4986 O   0  0  0  0  0  0  0  0  0  0  0  0
    0.1541  -13.5851  -27.7262 O   0  0  0  0  0  0  0  0  0  0  0  0
    1.3138  -12.2112  -25.5483 H   0  0  0  0  0  0  0  0  0  0  0  0
    1.1333  -15.9530  -27.3793 H   0  0  0  0  0  0  0  0  0  0  0  0
    1.5392   -6.1682  -31.5996 C   0  0  0  0  0  0  0  0  0  0  0  0
    1.1880   -6.0375  -32.9751 O   0  0  0  0  0  0  0  0  0  0  0  0
    0.9340   -6.9046  -33.3278 H   0  0  0  0  0  0  0  0  0  0  0  0
    0.3756   -6.6125  -30.7699 C   0  0  0  0  0  0  0  0  0  0  0  0
   -1.7012   -7.4442  -29.1289 C   0  0  0  0  0  0  0  0  0  0  0  0
   -1.6204   -7.9132  -30.4258 C   0  0  0  0  0  0  0  0  0  0  0  0
   -0.5791   -7.5009  -31.2340 C   0  0  0  0  0  0  0  0  0  0  0  0
    0.2733   -6.1387  -29.4791 C   0  0  0  0  0  0  0  0  0  0  0  0
   -0.7577   -6.5528  -28.6571 C   0  0  0  0  0  0  0  0  0  0  0  0
   -0.8599   -5.9352  -27.0424 Cl  0  0  0  0  0  0  0  0  0  0  0  0
   -2.9876   -7.9534  -28.0899 Cl  0  0  0  0  0  0  0  0  0  0  0  0
 31 30  1  0  0  0
 32 26  1  0  0  0
 30 26  2  0  0  0
 30 29  1  0  0  0
 26 27  1  0  0  0
 29 25  2  0  0  0
 27 28  2  0  0  0
 25 28  1  0  0  0
 25 22  1  0  0  0
 23 22  1  0  0  0
 22  3  1  0  0  0
  3  6  2  0  0  0
  3  2  1  0  0  0
  6  1  1  0  0  0
  2  5  2  0  0  0
 12  8  2  0  0  0
 12 10  1  0  0  0
 14 13  1  0  0  0
  8 11  1  0  0  0
  1 10  1  0  0  0
  1  4  2  0  0  0
 10  9  2  0  0  0
  5  4  1  0  0  0
 11 13  1  0  0  0
 11  7  2  0  0  0
 13 16  1  0  0  0
 19 16  2  0  0  0
  9  7  1  0  0  0
 16 17  1  0  0  0
 16 18  1  0  0  0
 17 20  1  0  0  0
 18 21  1  0  0  0
 14 15  1  0  0  0
 23 24  1  0  0  0
M  END
> <minimizedAffinity>
-6.47699

$$$$
5OVR_AXK_A_601


 32 34  0  0  0  0  0  0  0  0999 V2000
    5.2666  -16.7607  -23.4246 C   0  0  0  0  0  0  0  0  0  0  0  0
    2.7705  -15.5881  -23.2774 C   0  0  0  0  0  0  0  0  0  0  0  0
    2.9014  -16.9202  -22.9455 C   0  0  0  0  0  0  0  0  0  0  0  0
    5.0979  -15.4312  -23.7679 C   0  0  0  0  0  0  0  0  0  0  0  0
    3.8559  -14.8369  -23.6842 C   0  0  0  0  0  0  0  0  0  0  0  0
    4.1633  -17.4867  -23.0085 C   0  0  0  0  0  0  0  0  0  0  0  0
    8.7705  -17.5813  -22.5061 C   0  0  0  0  0  0  0  0  0  0  0  0
    8.0350  -19.1275  -24.1725 C   0  0  0  0  0  0  0  0  0  0  0  0
    7.5477  -16.9391  -22.5521 C   0  0  0  0  0  0  0  0  0  0  0  0
    6.5642  -17.3826  -23.4194 C   0  0  0  0  0  0  0  0  0  0  0  0
    9.0117  -18.6806  -23.3109 C   0  0  0  0  0  0  0  0  0  0  0  0
    6.8207  -18.4789  -24.2268 C   0  0  0  0  0  0  0  0  0  0  0  0
   10.3322  -19.3753  -23.2060 C   0  0  0  0  0  0  0  0  0  0  0  0
   10.2089  -20.6567  -23.7879 O   0  0  0  0  0  0  0  0  0  0  0  0
   10.0316  -20.5651  -24.7371 H   0  0  0  0  0  0  0  0  0  0  0  0
   11.7736  -18.6310  -24.0133 P   0  0  0  0  0  0  0  0  0  0  0  0
   12.2222  -17.4154  -23.2505 O   0  0  0  0  0  0  0  0  0  0  0  0
   11.3125  -18.4187  -25.5486 O   0  0  0  0  0  0  0  0  0  0  0  0
   12.8858  -19.7814  -24.1815 O   0  0  0  0  0  0  0  0  0  0  0  0
   12.4709  -17.6729  -22.3490 H   0  0  0  0  0  0  0  0  0  0  0  0
   11.0483  -19.2715  -25.9277 H   0  0  0  0  0  0  0  0  0  0  0  0
    1.7350  -17.7545  -22.4861 C   0  0  0  0  0  0  0  0  0  0  0  0
    1.9009  -19.1479  -22.7380 O   0  0  0  0  0  0  0  0  0  0  0  0
    2.6428  -19.4854  -22.2122 H   0  0  0  0  0  0  0  0  0  0  0  0
    1.3681  -17.4887  -21.0598 C   0  0  0  0  0  0  0  0  0  0  0  0
    0.5939  -16.9154  -18.4579 C   0  0  0  0  0  0  0  0  0  0  0  0
    1.9353  -17.0400  -18.7638 C   0  0  0  0  0  0  0  0  0  0  0  0
    2.3132  -17.3175  -20.0630 C   0  0  0  0  0  0  0  0  0  0  0  0
    0.0321  -17.3788  -20.7372 C   0  0  0  0  0  0  0  0  0  0  0  0
   -0.3580  -17.0901  -19.4430 C   0  0  0  0  0  0  0  0  0  0  0  0
   -2.0444  -16.9633  -19.0702 Cl  0  0  0  0  0  0  0  0  0  0  0  0
    0.0921  -16.5557  -16.8416 Cl  0  0  0  0  0  0  0  0  0  0  0  0
 31 30  1  0  0  0
 32 26  1  0  0  0
 30 26  2  0  0  0
 30 29  1  0  0  0
 26 27  1  0  0  0
 29 25  2  0  0  0
 27 28  2  0  0  0
 25 28  1  0  0  0
 25 22  1  0  0  0
 23 22  1  0  0  0
 22  3  1  0  0  0
  3  6  2  0  0  0
  3  2  1  0  0  0
  6  1  1  0  0  0
  2  5  2  0  0  0
 12  8  2  0  0  0
 12 10  1  0  0  0
 14 13  1  0  0  0
  8 11  1  0  0  0
  1 10  1  0  0  0
  1  4  2  0  0  0
 10  9  2  0  0  0
  5  4  1  0  0  0
 11 13  1  0  0  0
 11  7  2  0  0  0
 13 16  1  0  0  0
 19 16  2  0  0  0
  9  7  1  0  0  0
 16 17  1  0  0  0
 16 18  1  0  0  0
 17 20  1  0  0  0
 18 21  1  0  0  0
 14 15  1  0  0  0
 23 24  1  0  0  0
M  END
> <minimizedAffinity>
-6.15569

$$$$
