5AYT_L6Y_A_201


 25 28  0  0  0  0  0  0  0  0999 V2000
  -22.9505   -2.6860   -8.8439 O   0  0  0  0  0  0  0  0  0  0  0  0
  -22.4039   -1.6160   -8.5459 C   0  0  0  0  0  0  0  0  0  0  0  0
  -21.9254   -0.8171   -9.5214 N   0  0  0  0  0  0  0  0  0  0  0  0
  -22.0433   -1.2192  -10.8764 O   0  0  0  0  0  0  0  0  0  0  0  0
  -21.3158    0.3582   -9.2266 C   0  0  0  0  0  0  0  0  0  0  0  0
  -20.8880    1.0644  -10.1331 O   0  0  0  0  0  0  0  0  0  0  0  0
  -21.1662    0.7745   -7.9070 C   0  0  0  0  0  0  0  0  0  0  0  0
  -20.5527    1.9891   -7.6208 C   0  0  0  0  0  0  0  0  0  0  0  0
  -20.4159    2.3861   -6.2948 C   0  0  0  0  0  0  0  0  0  0  0  0
  -20.9019    1.5896   -5.2671 C   0  0  0  0  0  0  0  0  0  0  0  0
  -21.5202    0.3783   -5.5626 C   0  0  0  0  0  0  0  0  0  0  0  0
  -21.6627   -0.0209   -6.8894 C   0  0  0  0  0  0  0  0  0  0  0  0
  -22.2769   -1.2267   -7.2087 C   0  0  0  0  0  0  0  0  0  0  0  0
  -22.7648   -2.0330   -6.1880 C   0  0  0  0  0  0  0  0  0  0  0  0
  -22.6417   -1.6263   -4.8507 C   0  0  0  0  0  0  0  0  0  0  0  0
  -22.0028   -0.4245   -4.5363 C   0  0  0  0  0  0  0  0  0  0  0  0
  -22.4990   -2.0743  -10.9214 H   0  0  0  0  0  0  0  0  0  0  0  0
  -21.8630    0.0321   -3.2191 C   0  0  0  0  0  0  0  0  0  0  0  0
  -20.8377   -0.2048   -2.5888 O   0  0  0  0  0  0  0  0  0  0  0  0
  -22.8698    0.8057   -2.6369 C   0  0  0  0  0  0  0  0  0  0  0  0
  -24.1037    0.9804   -3.2460 C   0  0  0  0  0  0  0  0  0  0  0  0
  -25.0692    1.7519   -2.5962 C   0  0  0  0  0  0  0  0  0  0  0  0
  -24.8043    2.3296   -1.3529 C   0  0  0  0  0  0  0  0  0  0  0  0
  -23.5682    2.1299   -0.7496 C   0  0  0  0  0  0  0  0  0  0  0  0
  -22.6079    1.3704   -1.3964 C   0  0  0  0  0  0  0  0  0  0  0  0
 24 23  2  0  0  0
 24 25  1  0  0  0
 23 22  1  0  0  0
 25 20  2  0  0  0
 22 21  2  0  0  0
 20 21  1  0  0  0
 20 18  1  0  0  0
 19 18  2  0  0  0
 18 16  1  0  0  0
 16 15  1  0  0  0
 16 11  2  0  0  0
 15 14  2  0  0  0
 10 11  1  0  0  0
 10  9  2  0  0  0
 11 12  1  0  0  0
  9  8  1  0  0  0
 14 13  1  0  0  0
 12 13  2  0  0  0
 12  7  1  0  0  0
 13  2  1  0  0  0
  8  7  2  0  0  0
  7  5  1  0  0  0
  2  1  2  0  0  0
  2  3  1  0  0  0
  5  3  1  0  0  0
  5  6  2  0  0  0
  3  4  1  0  0  0
  4 17  1  0  0  0
M  END
> <minimizedAffinity>
-8.24313

$$$$
5AYT_L6Y_A_201


 25 28  0  0  0  0  0  0  0  0999 V2000
  -20.6291    2.7028   -8.8855 O   0  0  0  0  0  0  0  0  0  0  0  0
  -21.1721    1.6298   -8.5916 C   0  0  0  0  0  0  0  0  0  0  0  0
  -21.6439    0.8308   -9.5703 N   0  0  0  0  0  0  0  0  0  0  0  0
  -21.5230    1.2363  -10.9241 O   0  0  0  0  0  0  0  0  0  0  0  0
  -22.2494   -0.3476   -9.2800 C   0  0  0  0  0  0  0  0  0  0  0  0
  -22.6711   -1.0538  -10.1894 O   0  0  0  0  0  0  0  0  0  0  0  0
  -22.4019   -0.7672   -7.9618 C   0  0  0  0  0  0  0  0  0  0  0  0
  -23.0111   -1.9850   -7.6802 C   0  0  0  0  0  0  0  0  0  0  0  0
  -23.1508   -2.3852   -6.3554 C   0  0  0  0  0  0  0  0  0  0  0  0
  -22.6718   -1.5888   -5.3245 C   0  0  0  0  0  0  0  0  0  0  0  0
  -22.0576   -0.3742   -5.6154 C   0  0  0  0  0  0  0  0  0  0  0  0
  -21.9123    0.0282   -6.9408 C   0  0  0  0  0  0  0  0  0  0  0  0
  -21.3021    1.2373   -7.2556 C   0  0  0  0  0  0  0  0  0  0  0  0
  -20.8212    2.0436   -6.2316 C   0  0  0  0  0  0  0  0  0  0  0  0
  -20.9473    1.6337   -4.8955 C   0  0  0  0  0  0  0  0  0  0  0  0
  -21.5820    0.4285   -4.5858 C   0  0  0  0  0  0  0  0  0  0  0  0
  -21.0708    2.0934  -10.9658 H   0  0  0  0  0  0  0  0  0  0  0  0
  -21.7245   -0.0313   -3.2701 C   0  0  0  0  0  0  0  0  0  0  0  0
  -22.7586    0.1876   -2.6477 O   0  0  0  0  0  0  0  0  0  0  0  0
  -20.7092   -0.7880   -2.6803 C   0  0  0  0  0  0  0  0  0  0  0  0
  -19.4762   -0.9618   -3.2915 C   0  0  0  0  0  0  0  0  0  0  0  0
  -18.5021   -1.7158   -2.6341 C   0  0  0  0  0  0  0  0  0  0  0  0
  -18.7576   -2.2772   -1.3814 C   0  0  0  0  0  0  0  0  0  0  0  0
  -19.9931   -2.0785   -0.7764 C   0  0  0  0  0  0  0  0  0  0  0  0
  -20.9619   -1.3365   -1.4307 C   0  0  0  0  0  0  0  0  0  0  0  0
 24 23  2  0  0  0
 24 25  1  0  0  0
 23 22  1  0  0  0
 25 20  2  0  0  0
 22 21  2  0  0  0
 20 21  1  0  0  0
 20 18  1  0  0  0
 19 18  2  0  0  0
 18 16  1  0  0  0
 16 15  1  0  0  0
 16 11  2  0  0  0
 15 14  2  0  0  0
 10 11  1  0  0  0
 10  9  2  0  0  0
 11 12  1  0  0  0
  9  8  1  0  0  0
 14 13  1  0  0  0
 12 13  2  0  0  0
 12  7  1  0  0  0
 13  2  1  0  0  0
  8  7  2  0  0  0
  7  5  1  0  0  0
  2  1  2  0  0  0
  2  3  1  0  0  0
  5  3  1  0  0  0
  5  6  2  0  0  0
  3  4  1  0  0  0
  4 17  1  0  0  0
M  END
> <minimizedAffinity>
-8.23168

$$$$
5AYT_L6Y_A_201


 25 28  0  0  0  0  0  0  0  0999 V2000
  -20.4229    2.4371   -9.0223 O   0  0  0  0  0  0  0  0  0  0  0  0
  -21.0034    1.4049   -8.6617 C   0  0  0  0  0  0  0  0  0  0  0  0
  -21.4363    0.5250   -9.5874 N   0  0  0  0  0  0  0  0  0  0  0  0
  -21.2319    0.7996  -10.9638 O   0  0  0  0  0  0  0  0  0  0  0  0
  -22.0812   -0.6117   -9.2242 C   0  0  0  0  0  0  0  0  0  0  0  0
  -22.4660   -1.3935  -10.0867 O   0  0  0  0  0  0  0  0  0  0  0  0
  -22.3154   -0.9033   -7.8836 C   0  0  0  0  0  0  0  0  0  0  0  0
  -22.9643   -2.0798   -7.5256 C   0  0  0  0  0  0  0  0  0  0  0  0
  -23.1857   -2.3518   -6.1795 C   0  0  0  0  0  0  0  0  0  0  0  0
  -22.7485   -1.4696   -5.2012 C   0  0  0  0  0  0  0  0  0  0  0  0
  -22.0942   -0.2972   -5.5680 C   0  0  0  0  0  0  0  0  0  0  0  0
  -21.8671   -0.0232   -6.9145 C   0  0  0  0  0  0  0  0  0  0  0  0
  -21.2156    1.1415   -7.3047 C   0  0  0  0  0  0  0  0  0  0  0  0
  -20.7759    2.0329   -6.3340 C   0  0  0  0  0  0  0  0  0  0  0  0
  -20.9845    1.7522   -4.9751 C   0  0  0  0  0  0  0  0  0  0  0  0
  -21.6602    0.5912   -4.5918 C   0  0  0  0  0  0  0  0  0  0  0  0
  -20.7605    1.6420  -11.0589 H   0  0  0  0  0  0  0  0  0  0  0  0
  -21.8851    0.2592   -3.2494 C   0  0  0  0  0  0  0  0  0  0  0  0
  -21.1814   -0.5780   -2.6938 O   0  0  0  0  0  0  0  0  0  0  0  0
  -22.8779    0.9204   -2.5226 C   0  0  0  0  0  0  0  0  0  0  0  0
  -22.6286    1.4678   -1.2727 C   0  0  0  0  0  0  0  0  0  0  0  0
  -23.6646    2.1312   -0.6122 C   0  0  0  0  0  0  0  0  0  0  0  0
  -24.9255    2.2515   -1.2000 C   0  0  0  0  0  0  0  0  0  0  0  0
  -25.1524    1.7115   -2.4605 C   0  0  0  0  0  0  0  0  0  0  0  0
  -24.1274    1.0477   -3.1131 C   0  0  0  0  0  0  0  0  0  0  0  0
 24 23  2  0  0  0
 24 25  1  0  0  0
 23 22  1  0  0  0
 25 20  2  0  0  0
 22 21  2  0  0  0
 20 21  1  0  0  0
 20 18  1  0  0  0
 19 18  2  0  0  0
 18 16  1  0  0  0
 16 15  1  0  0  0
 16 11  2  0  0  0
 15 14  2  0  0  0
 10 11  1  0  0  0
 10  9  2  0  0  0
 11 12  1  0  0  0
  9  8  1  0  0  0
 14 13  1  0  0  0
 12 13  2  0  0  0
 12  7  1  0  0  0
 13  2  1  0  0  0
  8  7  2  0  0  0
  7  5  1  0  0  0
  2  1  2  0  0  0
  2  3  1  0  0  0
  5  3  1  0  0  0
  5  6  2  0  0  0
  3  4  1  0  0  0
  4 17  1  0  0  0
M  END
> <minimizedAffinity>
-8.05718

$$$$
5AYT_L6Y_A_201


 25 28  0  0  0  0  0  0  0  0999 V2000
  -23.1247    1.2851   -1.0760 O   0  0  0  0  0  0  0  0  0  0  0  0
  -22.2910    0.5186   -1.5758 C   0  0  0  0  0  0  0  0  0  0  0  0
  -21.6096   -0.3341   -0.7837 N   0  0  0  0  0  0  0  0  0  0  0  0
  -21.8483   -0.3331    0.6145 O   0  0  0  0  0  0  0  0  0  0  0  0
  -20.6853   -1.1816   -1.3004 C   0  0  0  0  0  0  0  0  0  0  0  0
  -20.0788   -1.9451   -0.5570 O   0  0  0  0  0  0  0  0  0  0  0  0
  -20.4125   -1.1958   -2.6651 C   0  0  0  0  0  0  0  0  0  0  0  0
  -19.4731   -2.0809   -3.1826 C   0  0  0  0  0  0  0  0  0  0  0  0
  -19.2182   -2.0792   -4.5500 C   0  0  0  0  0  0  0  0  0  0  0  0
  -19.9055   -1.2178   -5.3938 C   0  0  0  0  0  0  0  0  0  0  0  0
  -20.8486   -0.3394   -4.8685 C   0  0  0  0  0  0  0  0  0  0  0  0
  -21.1097   -0.3408   -3.5004 C   0  0  0  0  0  0  0  0  0  0  0  0
  -22.0474    0.5275   -2.9529 C   0  0  0  0  0  0  0  0  0  0  0  0
  -22.7395    1.3958   -3.7879 C   0  0  0  0  0  0  0  0  0  0  0  0
  -22.4947    1.3876   -5.1695 C   0  0  0  0  0  0  0  0  0  0  0  0
  -21.5345    0.5285   -5.7092 C   0  0  0  0  0  0  0  0  0  0  0  0
  -22.5313    0.3226    0.8254 H   0  0  0  0  0  0  0  0  0  0  0  0
  -21.2596    0.4736   -7.0819 C   0  0  0  0  0  0  0  0  0  0  0  0
  -20.6120    1.3666   -7.6185 O   0  0  0  0  0  0  0  0  0  0  0  0
  -21.6762   -0.6267   -7.8348 C   0  0  0  0  0  0  0  0  0  0  0  0
  -22.8649   -1.2896   -7.5668 C   0  0  0  0  0  0  0  0  0  0  0  0
  -23.2268   -2.3703   -8.3734 C   0  0  0  0  0  0  0  0  0  0  0  0
  -22.4151   -2.7724   -9.4360 C   0  0  0  0  0  0  0  0  0  0  0  0
  -21.2359   -2.0858   -9.7004 C   0  0  0  0  0  0  0  0  0  0  0  0
  -20.8730   -1.0182   -8.8968 C   0  0  0  0  0  0  0  0  0  0  0  0
 24 23  2  0  0  0
 24 25  1  0  0  0
 23 22  1  0  0  0
 25 20  2  0  0  0
 22 21  2  0  0  0
 20 21  1  0  0  0
 20 18  1  0  0  0
 19 18  2  0  0  0
 18 16  1  0  0  0
 16 15  1  0  0  0
 16 11  2  0  0  0
 15 14  2  0  0  0
 10 11  1  0  0  0
 10  9  2  0  0  0
 11 12  1  0  0  0
  9  8  1  0  0  0
 14 13  1  0  0  0
 12 13  2  0  0  0
 12  7  1  0  0  0
 13  2  1  0  0  0
  8  7  2  0  0  0
  7  5  1  0  0  0
  2  1  2  0  0  0
  2  3  1  0  0  0
  5  3  1  0  0  0
  5  6  2  0  0  0
  3  4  1  0  0  0
  4 17  1  0  0  0
M  END
> <minimizedAffinity>
-8.05644

$$$$
5AYT_L6Y_A_201


 25 28  0  0  0  0  0  0  0  0999 V2000
  -23.0502   -2.5055   -9.0206 O   0  0  0  0  0  0  0  0  0  0  0  0
  -22.4973   -1.4546   -8.6707 C   0  0  0  0  0  0  0  0  0  0  0  0
  -22.0865   -0.5737   -9.6056 N   0  0  0  0  0  0  0  0  0  0  0  0
  -22.2823   -0.8684  -10.9791 O   0  0  0  0  0  0  0  0  0  0  0  0
  -21.4719    0.5833   -9.2542 C   0  0  0  0  0  0  0  0  0  0  0  0
  -21.1068    1.3655  -10.1249 O   0  0  0  0  0  0  0  0  0  0  0  0
  -21.2468    0.8953   -7.9167 C   0  0  0  0  0  0  0  0  0  0  0  0
  -20.6292    2.0922   -7.5709 C   0  0  0  0  0  0  0  0  0  0  0  0
  -20.4163    2.3844   -6.2278 C   0  0  0  0  0  0  0  0  0  0  0  0
  -20.8313    1.5017   -5.2403 C   0  0  0  0  0  0  0  0  0  0  0  0
  -21.4543    0.3087   -5.5948 C   0  0  0  0  0  0  0  0  0  0  0  0
  -21.6729    0.0143   -6.9385 C   0  0  0  0  0  0  0  0  0  0  0  0
  -22.2934   -1.1711   -7.3165 C   0  0  0  0  0  0  0  0  0  0  0  0
  -22.7106   -2.0632   -6.3366 C   0  0  0  0  0  0  0  0  0  0  0  0
  -22.5108   -1.7624   -4.9806 C   0  0  0  0  0  0  0  0  0  0  0  0
  -21.8660   -0.5802   -4.6094 C   0  0  0  0  0  0  0  0  0  0  0  0
  -22.7314   -1.7239  -11.0654 H   0  0  0  0  0  0  0  0  0  0  0  0
  -21.6512   -0.2279   -3.2705 C   0  0  0  0  0  0  0  0  0  0  0  0
  -22.3415    0.6369   -2.7408 O   0  0  0  0  0  0  0  0  0  0  0  0
  -20.6849   -0.8990   -2.5174 C   0  0  0  0  0  0  0  0  0  0  0  0
  -20.9689   -1.4297   -1.2677 C   0  0  0  0  0  0  0  0  0  0  0  0
  -19.9582   -2.1045   -0.5801 C   0  0  0  0  0  0  0  0  0  0  0  0
  -18.6881   -2.2522   -1.1410 C   0  0  0  0  0  0  0  0  0  0  0  0
  -18.4263   -1.7287   -2.4016 C   0  0  0  0  0  0  0  0  0  0  0  0
  -19.4262   -1.0536   -3.0812 C   0  0  0  0  0  0  0  0  0  0  0  0
 24 23  2  0  0  0
 24 25  1  0  0  0
 23 22  1  0  0  0
 25 20  2  0  0  0
 22 21  2  0  0  0
 20 21  1  0  0  0
 20 18  1  0  0  0
 19 18  2  0  0  0
 18 16  1  0  0  0
 16 15  1  0  0  0
 16 11  2  0  0  0
 15 14  2  0  0  0
 10 11  1  0  0  0
 10  9  2  0  0  0
 11 12  1  0  0  0
  9  8  1  0  0  0
 14 13  1  0  0  0
 12 13  2  0  0  0
 12  7  1  0  0  0
 13  2  1  0  0  0
  8  7  2  0  0  0
  7  5  1  0  0  0
  2  1  2  0  0  0
  2  3  1  0  0  0
  5  3  1  0  0  0
  5  6  2  0  0  0
  3  4  1  0  0  0
  4 17  1  0  0  0
M  END
> <minimizedAffinity>
-8.05477

$$$$
5AYT_L6Y_A_201


 25 28  0  0  0  0  0  0  0  0999 V2000
  -20.3591   -1.3755   -1.0930 O   0  0  0  0  0  0  0  0  0  0  0  0
  -21.2005   -0.6025   -1.5693 C   0  0  0  0  0  0  0  0  0  0  0  0
  -21.8721    0.2366   -0.7547 N   0  0  0  0  0  0  0  0  0  0  0  0
  -21.6145    0.2140    0.6399 O   0  0  0  0  0  0  0  0  0  0  0  0
  -22.8045    1.0907   -1.2455 C   0  0  0  0  0  0  0  0  0  0  0  0
  -23.4019    1.8415   -0.4821 O   0  0  0  0  0  0  0  0  0  0  0  0
  -23.0959    1.1259   -2.6060 C   0  0  0  0  0  0  0  0  0  0  0  0
  -24.0433    2.0175   -3.0967 C   0  0  0  0  0  0  0  0  0  0  0  0
  -24.3168    2.0370   -4.4604 C   0  0  0  0  0  0  0  0  0  0  0  0
  -23.6399    1.1899   -5.3269 C   0  0  0  0  0  0  0  0  0  0  0  0
  -22.6886    0.3049   -4.8283 C   0  0  0  0  0  0  0  0  0  0  0  0
  -22.4089    0.2852   -3.4640 C   0  0  0  0  0  0  0  0  0  0  0  0
  -21.4627   -0.5902   -2.9430 C   0  0  0  0  0  0  0  0  0  0  0  0
  -20.7809   -1.4443   -3.8008 C   0  0  0  0  0  0  0  0  0  0  0  0
  -21.0444   -1.4147   -5.1787 C   0  0  0  0  0  0  0  0  0  0  0  0
  -22.0130   -0.5487   -5.6918 C   0  0  0  0  0  0  0  0  0  0  0  0
  -20.9279   -0.4439    0.8312 H   0  0  0  0  0  0  0  0  0  0  0  0
  -22.3066   -0.4726   -7.0596 C   0  0  0  0  0  0  0  0  0  0  0  0
  -22.9754   -1.3491   -7.5975 O   0  0  0  0  0  0  0  0  0  0  0  0
  -21.8839    0.6304   -7.8050 C   0  0  0  0  0  0  0  0  0  0  0  0
  -20.6953    1.2896   -7.5277 C   0  0  0  0  0  0  0  0  0  0  0  0
  -20.3270    2.3734   -8.3272 C   0  0  0  0  0  0  0  0  0  0  0  0
  -21.1326    2.7823   -9.3920 C   0  0  0  0  0  0  0  0  0  0  0  0
  -22.3118    2.0994   -9.6657 C   0  0  0  0  0  0  0  0  0  0  0  0
  -22.6809    1.0286   -8.8691 C   0  0  0  0  0  0  0  0  0  0  0  0
 24 23  2  0  0  0
 24 25  1  0  0  0
 23 22  1  0  0  0
 25 20  2  0  0  0
 22 21  2  0  0  0
 20 21  1  0  0  0
 20 18  1  0  0  0
 19 18  2  0  0  0
 18 16  1  0  0  0
 16 15  1  0  0  0
 16 11  2  0  0  0
 15 14  2  0  0  0
 10 11  1  0  0  0
 10  9  2  0  0  0
 11 12  1  0  0  0
  9  8  1  0  0  0
 14 13  1  0  0  0
 12 13  2  0  0  0
 12  7  1  0  0  0
 13  2  1  0  0  0
  8  7  2  0  0  0
  7  5  1  0  0  0
  2  1  2  0  0  0
  2  3  1  0  0  0
  5  3  1  0  0  0
  5  6  2  0  0  0
  3  4  1  0  0  0
  4 17  1  0  0  0
M  END
> <minimizedAffinity>
-8.03428

$$$$
5AYT_L6Y_A_201


 25 28  0  0  0  0  0  0  0  0999 V2000
  -19.7495   -2.4079   -0.9788 O   0  0  0  0  0  0  0  0  0  0  0  0
  -20.5183   -1.4834   -1.2732 C   0  0  0  0  0  0  0  0  0  0  0  0
  -21.1965   -0.8438   -0.2988 N   0  0  0  0  0  0  0  0  0  0  0  0
  -21.0296   -1.2470    1.0508 O   0  0  0  0  0  0  0  0  0  0  0  0
  -22.0509    0.1686   -0.5900 C   0  0  0  0  0  0  0  0  0  0  0  0
  -22.6564    0.7316    0.3154 O   0  0  0  0  0  0  0  0  0  0  0  0
  -22.2529    0.5773   -1.9050 C   0  0  0  0  0  0  0  0  0  0  0  0
  -23.1204    1.6268   -2.1870 C   0  0  0  0  0  0  0  0  0  0  0  0
  -23.3053    2.0199   -3.5085 C   0  0  0  0  0  0  0  0  0  0  0  0
  -22.6189    1.3858   -4.5348 C   0  0  0  0  0  0  0  0  0  0  0  0
  -21.7477    0.3403   -4.2432 C   0  0  0  0  0  0  0  0  0  0  0  0
  -21.5568   -0.0535   -2.9210 C   0  0  0  0  0  0  0  0  0  0  0  0
  -20.6916   -1.0953   -2.6056 C   0  0  0  0  0  0  0  0  0  0  0  0
  -20.0012   -1.7386   -3.6252 C   0  0  0  0  0  0  0  0  0  0  0  0
  -20.1748   -1.3327   -4.9571 C   0  0  0  0  0  0  0  0  0  0  0  0
  -21.0632   -0.3006   -5.2684 C   0  0  0  0  0  0  0  0  0  0  0  0
  -20.3910   -1.9759    1.0939 H   0  0  0  0  0  0  0  0  0  0  0  0
  -21.2650    0.1494   -6.5798 C   0  0  0  0  0  0  0  0  0  0  0  0
  -21.0891    1.3302   -6.8617 O   0  0  0  0  0  0  0  0  0  0  0  0
  -21.6154   -0.7565   -7.5836 C   0  0  0  0  0  0  0  0  0  0  0  0
  -22.7870   -1.4969   -7.5254 C   0  0  0  0  0  0  0  0  0  0  0  0
  -23.0817   -2.3697   -8.5746 C   0  0  0  0  0  0  0  0  0  0  0  0
  -22.2207   -2.4901   -9.6673 C   0  0  0  0  0  0  0  0  0  0  0  0
  -21.0596   -1.7278   -9.7169 C   0  0  0  0  0  0  0  0  0  0  0  0
  -20.7634   -0.8669   -8.6736 C   0  0  0  0  0  0  0  0  0  0  0  0
 24 23  2  0  0  0
 24 25  1  0  0  0
 23 22  1  0  0  0
 25 20  2  0  0  0
 22 21  2  0  0  0
 20 21  1  0  0  0
 20 18  1  0  0  0
 19 18  2  0  0  0
 18 16  1  0  0  0
 16 15  1  0  0  0
 16 11  2  0  0  0
 15 14  2  0  0  0
 10 11  1  0  0  0
 10  9  2  0  0  0
 11 12  1  0  0  0
  9  8  1  0  0  0
 14 13  1  0  0  0
 12 13  2  0  0  0
 12  7  1  0  0  0
 13  2  1  0  0  0
  8  7  2  0  0  0
  7  5  1  0  0  0
  2  1  2  0  0  0
  2  3  1  0  0  0
  5  3  1  0  0  0
  5  6  2  0  0  0
  3  4  1  0  0  0
  4 17  1  0  0  0
M  END
> <minimizedAffinity>
-7.90817

$$$$
5AYT_L6Y_A_201


 25 28  0  0  0  0  0  0  0  0999 V2000
  -23.4105    2.2358   -0.6704 O   0  0  0  0  0  0  0  0  0  0  0  0
  -22.7087    1.2842   -1.0369 C   0  0  0  0  0  0  0  0  0  0  0  0
  -22.0193    0.5725   -0.1220 N   0  0  0  0  0  0  0  0  0  0  0  0
  -22.0975    0.9314    1.2480 O   0  0  0  0  0  0  0  0  0  0  0  0
  -21.2368   -0.4715   -0.4929 C   0  0  0  0  0  0  0  0  0  0  0  0
  -20.6192   -1.1002    0.3596 O   0  0  0  0  0  0  0  0  0  0  0  0
  -21.1222   -0.8390   -1.8303 C   0  0  0  0  0  0  0  0  0  0  0  0
  -20.3281   -1.9210   -2.1939 C   0  0  0  0  0  0  0  0  0  0  0  0
  -20.2301   -2.2719   -3.5363 C   0  0  0  0  0  0  0  0  0  0  0  0
  -20.9305   -1.5634   -4.5027 C   0  0  0  0  0  0  0  0  0  0  0  0
  -21.7279   -0.4855   -4.1296 C   0  0  0  0  0  0  0  0  0  0  0  0
  -21.8319   -0.1336   -2.7860 C   0  0  0  0  0  0  0  0  0  0  0  0
  -22.6224    0.9393   -2.3895 C   0  0  0  0  0  0  0  0  0  0  0  0
  -23.3259    1.6571   -3.3486 C   0  0  0  0  0  0  0  0  0  0  0  0
  -23.2404    1.2944   -4.7014 C   0  0  0  0  0  0  0  0  0  0  0  0
  -22.4260    0.2298   -5.0947 C   0  0  0  0  0  0  0  0  0  0  0  0
  -22.6924    1.6908    1.3498 H   0  0  0  0  0  0  0  0  0  0  0  0
  -22.3137   -0.1791   -6.4300 C   0  0  0  0  0  0  0  0  0  0  0  0
  -22.5686   -1.3370   -6.7450 O   0  0  0  0  0  0  0  0  0  0  0  0
  -21.9628    0.7449   -7.4170 C   0  0  0  0  0  0  0  0  0  0  0  0
  -22.8421    1.1074   -8.4267 C   0  0  0  0  0  0  0  0  0  0  0  0
  -22.4293    2.0519   -9.3686 C   0  0  0  0  0  0  0  0  0  0  0  0
  -21.1602    2.6293   -9.2927 C   0  0  0  0  0  0  0  0  0  0  0  0
  -20.2986    2.2667   -8.2642 C   0  0  0  0  0  0  0  0  0  0  0  0
  -20.7047    1.3252   -7.3337 C   0  0  0  0  0  0  0  0  0  0  0  0
 24 23  2  0  0  0
 24 25  1  0  0  0
 23 22  1  0  0  0
 25 20  2  0  0  0
 22 21  2  0  0  0
 20 21  1  0  0  0
 20 18  1  0  0  0
 19 18  2  0  0  0
 18 16  1  0  0  0
 16 15  1  0  0  0
 16 11  2  0  0  0
 15 14  2  0  0  0
 10 11  1  0  0  0
 10  9  2  0  0  0
 11 12  1  0  0  0
  9  8  1  0  0  0
 14 13  1  0  0  0
 12 13  2  0  0  0
 12  7  1  0  0  0
 13  2  1  0  0  0
  8  7  2  0  0  0
  7  5  1  0  0  0
  2  1  2  0  0  0
  2  3  1  0  0  0
  5  3  1  0  0  0
  5  6  2  0  0  0
  3  4  1  0  0  0
  4 17  1  0  0  0
M  END
> <minimizedAffinity>
-7.85580

$$$$
5AYT_L6Y_A_201


 25 28  0  0  0  0  0  0  0  0999 V2000
  -20.3493   -1.1266   -1.7497 O   0  0  0  0  0  0  0  0  0  0  0  0
  -21.2549   -0.3670   -2.1177 C   0  0  0  0  0  0  0  0  0  0  0  0
  -21.9986    0.2794   -1.1969 N   0  0  0  0  0  0  0  0  0  0  0  0
  -21.7415    0.0711    0.1823 O   0  0  0  0  0  0  0  0  0  0  0  0
  -23.0020    1.1131   -1.5684 C   0  0  0  0  0  0  0  0  0  0  0  0
  -23.6638    1.6867   -0.7103 O   0  0  0  0  0  0  0  0  0  0  0  0
  -23.2938    1.3258   -2.9125 C   0  0  0  0  0  0  0  0  0  0  0  0
  -24.3154    2.1951   -3.2785 C   0  0  0  0  0  0  0  0  0  0  0  0
  -24.5881    2.3943   -4.6279 C   0  0  0  0  0  0  0  0  0  0  0  0
  -23.8384    1.7483   -5.6010 C   0  0  0  0  0  0  0  0  0  0  0  0
  -22.8134    0.8846   -5.2262 C   0  0  0  0  0  0  0  0  0  0  0  0
  -22.5347    0.6856   -3.8761 C   0  0  0  0  0  0  0  0  0  0  0  0
  -21.5157   -0.1724   -3.4778 C   0  0  0  0  0  0  0  0  0  0  0  0
  -20.7604   -0.8262   -4.4433 C   0  0  0  0  0  0  0  0  0  0  0  0
  -21.0241   -0.6140   -5.8051 C   0  0  0  0  0  0  0  0  0  0  0  0
  -22.0645    0.2316   -6.1973 C   0  0  0  0  0  0  0  0  0  0  0  0
  -20.9999   -0.5459    0.2834 H   0  0  0  0  0  0  0  0  0  0  0  0
  -22.3622    0.4854   -7.5427 C   0  0  0  0  0  0  0  0  0  0  0  0
  -22.7771    1.5874   -7.8863 O   0  0  0  0  0  0  0  0  0  0  0  0
  -22.1361   -0.5000   -8.5066 C   0  0  0  0  0  0  0  0  0  0  0  0
  -21.3191   -0.2761   -9.6050 C   0  0  0  0  0  0  0  0  0  0  0  0
  -21.1238   -1.3140  -10.5183 C   0  0  0  0  0  0  0  0  0  0  0  0
  -21.7298   -2.5573  -10.3275 C   0  0  0  0  0  0  0  0  0  0  0  0
  -22.5317   -2.7691   -9.2121 C   0  0  0  0  0  0  0  0  0  0  0  0
  -22.7312   -1.7382   -8.3094 C   0  0  0  0  0  0  0  0  0  0  0  0
 24 23  2  0  0  0
 24 25  1  0  0  0
 23 22  1  0  0  0
 25 20  2  0  0  0
 22 21  2  0  0  0
 20 21  1  0  0  0
 20 18  1  0  0  0
 19 18  2  0  0  0
 18 16  1  0  0  0
 16 15  1  0  0  0
 16 11  2  0  0  0
 15 14  2  0  0  0
 10 11  1  0  0  0
 10  9  2  0  0  0
 11 12  1  0  0  0
  9  8  1  0  0  0
 14 13  1  0  0  0
 12 13  2  0  0  0
 12  7  1  0  0  0
 13  2  1  0  0  0
  8  7  2  0  0  0
  7  5  1  0  0  0
  2  1  2  0  0  0
  2  3  1  0  0  0
  5  3  1  0  0  0
  5  6  2  0  0  0
  3  4  1  0  0  0
  4 17  1  0  0  0
M  END
> <minimizedAffinity>
-7.71486

$$$$
5AYT_L6Y_A_201


 25 28  0  0  0  0  0  0  0  0999 V2000
  -23.4333    1.3752   -8.0667 O   0  0  0  0  0  0  0  0  0  0  0  0
  -22.8311    0.8555   -7.1181 C   0  0  0  0  0  0  0  0  0  0  0  0
  -21.8517   -0.0395   -7.3596 N   0  0  0  0  0  0  0  0  0  0  0  0
  -21.5323   -0.3836   -8.6981 O   0  0  0  0  0  0  0  0  0  0  0  0
  -21.1780   -0.6308   -6.3416 C   0  0  0  0  0  0  0  0  0  0  0  0
  -20.2933   -1.4427   -6.5897 O   0  0  0  0  0  0  0  0  0  0  0  0
  -21.4785   -0.3307   -5.0162 C   0  0  0  0  0  0  0  0  0  0  0  0
  -20.7690   -0.9334   -3.9833 C   0  0  0  0  0  0  0  0  0  0  0  0
  -21.0849   -0.6168   -2.6662 C   0  0  0  0  0  0  0  0  0  0  0  0
  -22.0841    0.3040   -2.3831 C   0  0  0  0  0  0  0  0  0  0  0  0
  -22.7851    0.9073   -3.4230 C   0  0  0  0  0  0  0  0  0  0  0  0
  -22.4691    0.5960   -4.7433 C   0  0  0  0  0  0  0  0  0  0  0  0
  -23.1557    1.1861   -5.7985 C   0  0  0  0  0  0  0  0  0  0  0  0
  -24.1595    2.1073   -5.5267 C   0  0  0  0  0  0  0  0  0  0  0  0
  -24.4684    2.4395   -4.1989 C   0  0  0  0  0  0  0  0  0  0  0  0
  -23.7900    1.8253   -3.1435 C   0  0  0  0  0  0  0  0  0  0  0  0
  -22.0967    0.1205   -9.3049 H   0  0  0  0  0  0  0  0  0  0  0  0
  -24.0527    2.1288   -1.8012 C   0  0  0  0  0  0  0  0  0  0  0  0
  -23.1871    2.6485   -1.1044 O   0  0  0  0  0  0  0  0  0  0  0  0
  -25.3205    1.8899   -1.2657 C   0  0  0  0  0  0  0  0  0  0  0  0
  -26.2365    1.0596   -1.8946 C   0  0  0  0  0  0  0  0  0  0  0  0
  -27.4784    0.8520   -1.2912 C   0  0  0  0  0  0  0  0  0  0  0  0
  -27.7917    1.4592   -0.0735 C   0  0  0  0  0  0  0  0  0  0  0  0
  -26.8551    2.2746    0.5509 C   0  0  0  0  0  0  0  0  0  0  0  0
  -25.6259    2.4863   -0.0502 C   0  0  0  0  0  0  0  0  0  0  0  0
 24 23  2  0  0  0
 24 25  1  0  0  0
 23 22  1  0  0  0
 25 20  2  0  0  0
 22 21  2  0  0  0
 20 21  1  0  0  0
 20 18  1  0  0  0
 19 18  2  0  0  0
 18 16  1  0  0  0
 16 15  1  0  0  0
 16 11  2  0  0  0
 15 14  2  0  0  0
 10 11  1  0  0  0
 10  9  2  0  0  0
 11 12  1  0  0  0
  9  8  1  0  0  0
 14 13  1  0  0  0
 12 13  2  0  0  0
 12  7  1  0  0  0
 13  2  1  0  0  0
  8  7  2  0  0  0
  7  5  1  0  0  0
  2  1  2  0  0  0
  2  3  1  0  0  0
  5  3  1  0  0  0
  5  6  2  0  0  0
  3  4  1  0  0  0
  4 17  1  0  0  0
M  END
> <minimizedAffinity>
-7.22414

$$$$
