5EKM_TG5_A_304


 23 23  0  0  0  0  0  0  0  0999 V2000
   -2.0439    4.1520   84.5585 C   0  0  0  0  0  0  0  0  0  0  0  0
   -0.7354    3.9197   84.1384 C   0  0  0  0  0  0  0  0  0  0  0  0
   -0.0308    2.8349   84.6766 C   0  0  0  0  0  0  0  0  0  0  0  0
   -0.5990    2.0012   85.6145 C   0  0  0  0  0  0  0  0  0  0  0  0
   -1.9090    2.2367   86.0161 C   0  0  0  0  0  0  0  0  0  0  0  0
   -2.6257    3.3233   85.4929 C   0  0  0  0  0  0  0  0  0  0  0  0
   -2.6546    1.1685   87.2294 S   0  0  0  0  0  0  0  0  0  0  0  0
   -4.0327    0.9846   86.8792 O   0  0  0  0  0  0  0  0  0  0  0  0
   -2.5864    1.8054   88.5142 O   0  0  0  0  0  0  0  0  0  0  0  0
   -1.8136   -0.2277   87.1926 N   0  0  0  0  0  0  0  0  0  0  0  0
   -1.8886   -0.6454   86.2651 H   0  0  0  0  0  0  0  0  0  0  0  0
   -2.1927   -0.8714   87.8871 H   0  0  0  0  0  0  0  0  0  0  0  0
   -0.1983    4.8116   83.1771 N   0  0  0  0  0  0  0  0  0  0  0  0
    0.2076    4.5852   81.8159 C   0  0  0  0  0  0  0  0  0  0  0  0
    0.6513    5.5358   81.1891 O   0  0  0  0  0  0  0  0  0  0  0  0
   -0.0845    5.7373   83.4923 H   0  0  0  0  0  0  0  0  0  0  0  0
    0.1453    3.2290   81.0909 C   0  0  0  0  0  0  0  0  0  0  0  0
   -1.2373    2.9070   80.7626 N   0  0  0  0  0  0  0  0  0  0  0  0
   -1.8617    3.5740   81.2161 H   0  0  0  0  0  0  0  0  0  0  0  0
   -1.5272    1.5744   81.2322 C   0  0  0  0  0  0  0  0  0  0  0  0
   -0.2156    0.7890   81.3273 C   0  0  0  0  0  0  0  0  0  0  0  0
   -0.4776   -0.5883   81.9881 C   0  0  0  0  0  0  0  0  0  0  0  0
    0.4176   -1.6391   81.3415 C   0  0  0  0  0  0  0  0  0  0  0  0
 23 22  1  0  0  0
 22 21  1  0  0  0
 21 20  1  0  0  0
 20 18  1  0  0  0
 18 17  1  0  0  0
 15 14  2  0  0  0
 17 14  1  0  0  0
 14 13  1  0  0  0
 13  2  1  0  0  0
  2  3  2  0  0  0
  2  1  1  0  0  0
  3  4  1  0  0  0
  1  6  2  0  0  0
  4  5  2  0  0  0
  6  5  1  0  0  0
  5  7  1  0  0  0
 10  7  1  0  0  0
  8  7  2  0  0  0
  7  9  2  0  0  0
 13 16  1  0  0  0
 18 19  1  0  0  0
 10 11  1  0  0  0
 10 12  1  0  0  0
M  END
> <minimizedAffinity>
-7.14806

$$$$
5EKM_TG5_A_304


 23 23  0  0  0  0  0  0  0  0999 V2000
   -0.1025    2.8204   84.6208 C   0  0  0  0  0  0  0  0  0  0  0  0
   -0.9085    3.8040   84.0503 C   0  0  0  0  0  0  0  0  0  0  0  0
   -2.2274    3.9481   84.5006 C   0  0  0  0  0  0  0  0  0  0  0  0
   -2.7447    3.1359   85.4856 C   0  0  0  0  0  0  0  0  0  0  0  0
   -1.9266    2.1667   86.0549 C   0  0  0  0  0  0  0  0  0  0  0  0
   -0.6061    2.0040   85.6100 C   0  0  0  0  0  0  0  0  0  0  0  0
   -2.5833    1.1087   87.3271 S   0  0  0  0  0  0  0  0  0  0  0  0
   -1.7511   -0.0554   87.4166 O   0  0  0  0  0  0  0  0  0  0  0  0
   -3.9083    0.7007   86.9544 O   0  0  0  0  0  0  0  0  0  0  0  0
   -2.5761    1.9836   88.7028 N   0  0  0  0  0  0  0  0  0  0  0  0
   -1.6186    2.2517   88.9301 H   0  0  0  0  0  0  0  0  0  0  0  0
   -2.9623    1.4244   89.4634 H   0  0  0  0  0  0  0  0  0  0  0  0
   -0.3278    4.6065   83.0370 N   0  0  0  0  0  0  0  0  0  0  0  0
    0.2738    4.2388   81.7833 C   0  0  0  0  0  0  0  0  0  0  0  0
    0.7127    5.1353   81.0784 O   0  0  0  0  0  0  0  0  0  0  0  0
   -0.3377    5.5736   83.2211 H   0  0  0  0  0  0  0  0  0  0  0  0
    0.4266    2.7966   81.2677 C   0  0  0  0  0  0  0  0  0  0  0  0
   -0.7286    2.4370   80.4558 N   0  0  0  0  0  0  0  0  0  0  0  0
   -1.2856    3.2697   80.2640 H   0  0  0  0  0  0  0  0  0  0  0  0
   -1.5246    1.4775   81.1811 C   0  0  0  0  0  0  0  0  0  0  0  0
   -1.1365    0.0683   80.7231 C   0  0  0  0  0  0  0  0  0  0  0  0
   -0.5176   -0.7150   81.9087 C   0  0  0  0  0  0  0  0  0  0  0  0
    0.4103   -1.7983   81.3710 C   0  0  0  0  0  0  0  0  0  0  0  0
 23 22  1  0  0  0
 22 21  1  0  0  0
 21 20  1  0  0  0
 20 18  1  0  0  0
 18 17  1  0  0  0
 15 14  2  0  0  0
 17 14  1  0  0  0
 14 13  1  0  0  0
 13  2  1  0  0  0
  2  3  2  0  0  0
  2  1  1  0  0  0
  3  4  1  0  0  0
  1  6  2  0  0  0
  4  5  2  0  0  0
  6  5  1  0  0  0
  5  7  1  0  0  0
 10  7  1  0  0  0
  8  7  2  0  0  0
  7  9  2  0  0  0
 13 16  1  0  0  0
 18 19  1  0  0  0
 10 11  1  0  0  0
 10 12  1  0  0  0
M  END
> <minimizedAffinity>
-6.95474

$$$$
5EKM_TG5_A_304


 23 23  0  0  0  0  0  0  0  0999 V2000
   -2.2070    4.1924   84.9758 C   0  0  0  0  0  0  0  0  0  0  0  0
   -0.8680    4.2776   84.5983 C   0  0  0  0  0  0  0  0  0  0  0  0
    0.0183    3.2712   85.0041 C   0  0  0  0  0  0  0  0  0  0  0  0
   -0.4025    2.2078   85.7719 C   0  0  0  0  0  0  0  0  0  0  0  0
   -1.7431    2.1282   86.1314 C   0  0  0  0  0  0  0  0  0  0  0  0
   -2.6420    3.1317   85.7401 C   0  0  0  0  0  0  0  0  0  0  0  0
   -2.2998    0.7605   87.1257 S   0  0  0  0  0  0  0  0  0  0  0  0
   -1.8360    0.9628   88.4672 O   0  0  0  0  0  0  0  0  0  0  0  0
   -1.7219   -0.4506   86.6156 O   0  0  0  0  0  0  0  0  0  0  0  0
   -3.9271    0.7516   87.0267 N   0  0  0  0  0  0  0  0  0  0  0  0
   -4.2951    1.6272   87.3984 H   0  0  0  0  0  0  0  0  0  0  0  0
   -4.2964   -0.0297   87.5686 H   0  0  0  0  0  0  0  0  0  0  0  0
   -0.4883    5.3955   83.8146 N   0  0  0  0  0  0  0  0  0  0  0  0
    0.0180    5.4658   82.4701 C   0  0  0  0  0  0  0  0  0  0  0  0
    0.2788    6.5706   82.0176 O   0  0  0  0  0  0  0  0  0  0  0  0
   -0.5873    6.2661   84.2635 H   0  0  0  0  0  0  0  0  0  0  0  0
    0.2771    4.2515   81.5606 C   0  0  0  0  0  0  0  0  0  0  0  0
   -0.9683    3.8295   80.9329 N   0  0  0  0  0  0  0  0  0  0  0  0
   -1.7599    4.1646   81.4820 H   0  0  0  0  0  0  0  0  0  0  0  0
   -0.9934    2.3885   80.8752 C   0  0  0  0  0  0  0  0  0  0  0  0
   -0.1072    1.8347   81.9950 C   0  0  0  0  0  0  0  0  0  0  0  0
    0.6493    0.5793   81.4908 C   0  0  0  0  0  0  0  0  0  0  0  0
    1.8626    1.0122   80.6758 C   0  0  0  0  0  0  0  0  0  0  0  0
 23 22  1  0  0  0
 22 21  1  0  0  0
 21 20  1  0  0  0
 20 18  1  0  0  0
 18 17  1  0  0  0
 15 14  2  0  0  0
 17 14  1  0  0  0
 14 13  1  0  0  0
 13  2  1  0  0  0
  2  3  2  0  0  0
  2  1  1  0  0  0
  3  4  1  0  0  0
  1  6  2  0  0  0
  4  5  2  0  0  0
  6  5  1  0  0  0
  5  7  1  0  0  0
 10  7  1  0  0  0
  8  7  2  0  0  0
  7  9  2  0  0  0
 13 16  1  0  0  0
 18 19  1  0  0  0
 10 11  1  0  0  0
 10 12  1  0  0  0
M  END
> <minimizedAffinity>
-6.51361

$$$$
5EKM_TG5_A_304


 23 23  0  0  0  0  0  0  0  0999 V2000
   -1.8384    4.5457   84.8465 C   0  0  0  0  0  0  0  0  0  0  0  0
   -0.4823    4.6402   84.5389 C   0  0  0  0  0  0  0  0  0  0  0  0
    0.3657    3.5746   84.8686 C   0  0  0  0  0  0  0  0  0  0  0  0
   -0.1095    2.4436   85.4952 C   0  0  0  0  0  0  0  0  0  0  0  0
   -1.4663    2.3569   85.7856 C   0  0  0  0  0  0  0  0  0  0  0  0
   -2.3275    3.4182   85.4694 C   0  0  0  0  0  0  0  0  0  0  0  0
   -2.0932    0.9019   86.5975 S   0  0  0  0  0  0  0  0  0  0  0  0
   -1.5992    0.8911   87.9435 O   0  0  0  0  0  0  0  0  0  0  0  0
   -1.5988   -0.2605   85.9155 O   0  0  0  0  0  0  0  0  0  0  0  0
   -3.7191    1.0038   86.5343 N   0  0  0  0  0  0  0  0  0  0  0  0
   -4.0268    1.8409   87.0292 H   0  0  0  0  0  0  0  0  0  0  0  0
   -4.1287    0.1793   86.9734 H   0  0  0  0  0  0  0  0  0  0  0  0
   -0.0464    5.8279   83.9007 N   0  0  0  0  0  0  0  0  0  0  0  0
   -0.0955    6.2177   82.5170 C   0  0  0  0  0  0  0  0  0  0  0  0
    0.3589    7.3118   82.2178 O   0  0  0  0  0  0  0  0  0  0  0  0
    0.3555    6.4953   84.5026 H   0  0  0  0  0  0  0  0  0  0  0  0
   -0.6597    5.3519   81.3763 C   0  0  0  0  0  0  0  0  0  0  0  0
   -2.0247    5.7619   81.0734 N   0  0  0  0  0  0  0  0  0  0  0  0
   -2.5730    4.9486   80.7936 H   0  0  0  0  0  0  0  0  0  0  0  0
   -1.9929    6.7196   79.9954 C   0  0  0  0  0  0  0  0  0  0  0  0
   -3.3111    6.6334   79.2202 C   0  0  0  0  0  0  0  0  0  0  0  0
   -3.8959    8.0552   79.0232 C   0  0  0  0  0  0  0  0  0  0  0  0
   -5.2038    7.9619   78.2458 C   0  0  0  0  0  0  0  0  0  0  0  0
 23 22  1  0  0  0
 22 21  1  0  0  0
 21 20  1  0  0  0
 20 18  1  0  0  0
 18 17  1  0  0  0
 15 14  2  0  0  0
 17 14  1  0  0  0
 14 13  1  0  0  0
 13  2  1  0  0  0
  2  3  2  0  0  0
  2  1  1  0  0  0
  3  4  1  0  0  0
  1  6  2  0  0  0
  4  5  2  0  0  0
  6  5  1  0  0  0
  5  7  1  0  0  0
 10  7  1  0  0  0
  8  7  2  0  0  0
  7  9  2  0  0  0
 13 16  1  0  0  0
 18 19  1  0  0  0
 10 11  1  0  0  0
 10 12  1  0  0  0
M  END
> <minimizedAffinity>
-6.01963

$$$$
5EKM_TG5_A_304


 23 23  0  0  0  0  0  0  0  0999 V2000
   -1.0114    3.1447   83.9098 C   0  0  0  0  0  0  0  0  0  0  0  0
   -1.6079    4.3997   84.0182 C   0  0  0  0  0  0  0  0  0  0  0  0
   -2.5037    4.6384   85.0688 C   0  0  0  0  0  0  0  0  0  0  0  0
   -2.8123    3.6601   85.9881 C   0  0  0  0  0  0  0  0  0  0  0  0
   -2.2013    2.4163   85.8757 C   0  0  0  0  0  0  0  0  0  0  0  0
   -1.3081    2.1585   84.8251 C   0  0  0  0  0  0  0  0  0  0  0  0
   -2.5931    1.1423   87.0557 S   0  0  0  0  0  0  0  0  0  0  0  0
   -3.9713    0.7841   86.8885 O   0  0  0  0  0  0  0  0  0  0  0  0
   -2.4096    1.6634   88.3807 O   0  0  0  0  0  0  0  0  0  0  0  0
   -1.5865   -0.1012   86.7420 N   0  0  0  0  0  0  0  0  0  0  0  0
   -1.7499   -0.4400   85.7938 H   0  0  0  0  0  0  0  0  0  0  0  0
   -1.7599   -0.8551   87.4069 H   0  0  0  0  0  0  0  0  0  0  0  0
   -1.2598    5.3662   83.0422 N   0  0  0  0  0  0  0  0  0  0  0  0
   -0.1209    6.2406   82.9571 C   0  0  0  0  0  0  0  0  0  0  0  0
   -0.0558    6.9984   82.0007 O   0  0  0  0  0  0  0  0  0  0  0  0
   -1.9023    5.4534   82.3014 H   0  0  0  0  0  0  0  0  0  0  0  0
    1.0165    6.3107   83.9917 C   0  0  0  0  0  0  0  0  0  0  0  0
    2.2738    5.9136   83.3716 N   0  0  0  0  0  0  0  0  0  0  0  0
    2.3631    6.3618   82.4597 H   0  0  0  0  0  0  0  0  0  0  0  0
    2.2790    4.4803   83.2102 C   0  0  0  0  0  0  0  0  0  0  0  0
    2.6339    4.1492   81.7574 C   0  0  0  0  0  0  0  0  0  0  0  0
    1.5163    3.2760   81.1321 C   0  0  0  0  0  0  0  0  0  0  0  0
    1.9617    1.8182   81.1157 C   0  0  0  0  0  0  0  0  0  0  0  0
 23 22  1  0  0  0
 22 21  1  0  0  0
 21 20  1  0  0  0
 20 18  1  0  0  0
 18 17  1  0  0  0
 15 14  2  0  0  0
 17 14  1  0  0  0
 14 13  1  0  0  0
 13  2  1  0  0  0
  2  3  2  0  0  0
  2  1  1  0  0  0
  3  4  1  0  0  0
  1  6  2  0  0  0
  4  5  2  0  0  0
  6  5  1  0  0  0
  5  7  1  0  0  0
 10  7  1  0  0  0
  8  7  2  0  0  0
  7  9  2  0  0  0
 13 16  1  0  0  0
 18 19  1  0  0  0
 10 11  1  0  0  0
 10 12  1  0  0  0
M  END
> <minimizedAffinity>
-5.96408

$$$$
5EKM_TG5_A_304


 23 23  0  0  0  0  0  0  0  0999 V2000
   -0.4027    1.8715   83.9085 C   0  0  0  0  0  0  0  0  0  0  0  0
   -0.8229    3.1641   83.6000 C   0  0  0  0  0  0  0  0  0  0  0  0
   -1.8133    3.7638   84.3893 C   0  0  0  0  0  0  0  0  0  0  0  0
   -2.3837    3.1022   85.4543 C   0  0  0  0  0  0  0  0  0  0  0  0
   -1.9470    1.8178   85.7588 C   0  0  0  0  0  0  0  0  0  0  0  0
   -0.9620    1.2001   84.9738 C   0  0  0  0  0  0  0  0  0  0  0  0
   -2.6777    0.9506   87.1310 S   0  0  0  0  0  0  0  0  0  0  0  0
   -2.0571   -0.3382   87.2291 O   0  0  0  0  0  0  0  0  0  0  0  0
   -4.0784    0.7695   86.8739 O   0  0  0  0  0  0  0  0  0  0  0  0
   -2.4111    1.8695   88.4510 N   0  0  0  0  0  0  0  0  0  0  0  0
   -1.4068    1.9723   88.5966 H   0  0  0  0  0  0  0  0  0  0  0  0
   -2.8288    1.4219   89.2669 H   0  0  0  0  0  0  0  0  0  0  0  0
   -0.2075    3.7953   82.4906 N   0  0  0  0  0  0  0  0  0  0  0  0
    1.0447    4.4957   82.3898 C   0  0  0  0  0  0  0  0  0  0  0  0
    1.3504    4.9607   81.3018 O   0  0  0  0  0  0  0  0  0  0  0  0
   -0.7209    3.7465   81.6519 H   0  0  0  0  0  0  0  0  0  0  0  0
    2.0242    4.7235   83.5550 C   0  0  0  0  0  0  0  0  0  0  0  0
    2.1491    6.1500   83.8240 N   0  0  0  0  0  0  0  0  0  0  0  0
    2.9674    6.3184   84.4092 H   0  0  0  0  0  0  0  0  0  0  0  0
    0.9620    6.5983   84.5097 C   0  0  0  0  0  0  0  0  0  0  0  0
    1.1237    8.0814   84.8570 C   0  0  0  0  0  0  0  0  0  0  0  0
    2.5418    8.3327   85.4298 C   0  0  0  0  0  0  0  0  0  0  0  0
    3.0485    9.6885   84.9517 C   0  0  0  0  0  0  0  0  0  0  0  0
 23 22  1  0  0  0
 22 21  1  0  0  0
 21 20  1  0  0  0
 20 18  1  0  0  0
 18 17  1  0  0  0
 15 14  2  0  0  0
 17 14  1  0  0  0
 14 13  1  0  0  0
 13  2  1  0  0  0
  2  3  2  0  0  0
  2  1  1  0  0  0
  3  4  1  0  0  0
  1  6  2  0  0  0
  4  5  2  0  0  0
  6  5  1  0  0  0
  5  7  1  0  0  0
 10  7  1  0  0  0
  8  7  2  0  0  0
  7  9  2  0  0  0
 13 16  1  0  0  0
 18 19  1  0  0  0
 10 11  1  0  0  0
 10 12  1  0  0  0
M  END
> <minimizedAffinity>
-5.87322

$$$$
5EKM_TG5_A_304


 23 23  0  0  0  0  0  0  0  0999 V2000
   -0.6337    3.4275   82.3202 C   0  0  0  0  0  0  0  0  0  0  0  0
    0.1970    4.4301   82.8175 C   0  0  0  0  0  0  0  0  0  0  0  0
    0.6883    4.3197   84.1251 C   0  0  0  0  0  0  0  0  0  0  0  0
    0.3623    3.2496   84.9287 C   0  0  0  0  0  0  0  0  0  0  0  0
   -0.4574    2.2503   84.4164 C   0  0  0  0  0  0  0  0  0  0  0  0
   -0.9642    2.3495   83.1121 C   0  0  0  0  0  0  0  0  0  0  0  0
   -0.8885    0.8630   85.4453 S   0  0  0  0  0  0  0  0  0  0  0  0
    0.1718    0.6569   86.3882 O   0  0  0  0  0  0  0  0  0  0  0  0
   -1.0075   -0.3071   84.6221 O   0  0  0  0  0  0  0  0  0  0  0  0
   -2.2972    1.2476   86.1703 N   0  0  0  0  0  0  0  0  0  0  0  0
   -2.1682    2.0816   86.7431 H   0  0  0  0  0  0  0  0  0  0  0  0
   -2.5983    0.4725   86.7611 H   0  0  0  0  0  0  0  0  0  0  0  0
    0.4945    5.5108   81.9507 N   0  0  0  0  0  0  0  0  0  0  0  0
    1.7347    5.9020   81.3360 C   0  0  0  0  0  0  0  0  0  0  0  0
    1.7276    6.8935   80.6217 O   0  0  0  0  0  0  0  0  0  0  0  0
   -0.2728    6.0882   81.7337 H   0  0  0  0  0  0  0  0  0  0  0  0
    3.0797    5.1779   81.5249 C   0  0  0  0  0  0  0  0  0  0  0  0
    3.2845    4.2252   80.4417 N   0  0  0  0  0  0  0  0  0  0  0  0
    2.5354    4.3193   79.7559 H   0  0  0  0  0  0  0  0  0  0  0  0
    3.2758    2.8910   80.9896 C   0  0  0  0  0  0  0  0  0  0  0  0
    2.1021    2.1165   80.3825 C   0  0  0  0  0  0  0  0  0  0  0  0
    1.8908    0.7927   81.1605 C   0  0  0  0  0  0  0  0  0  0  0  0
    0.6319    0.1007   80.6507 C   0  0  0  0  0  0  0  0  0  0  0  0
 23 22  1  0  0  0
 22 21  1  0  0  0
 21 20  1  0  0  0
 20 18  1  0  0  0
 18 17  1  0  0  0
 15 14  2  0  0  0
 17 14  1  0  0  0
 14 13  1  0  0  0
 13  2  1  0  0  0
  2  3  2  0  0  0
  2  1  1  0  0  0
  3  4  1  0  0  0
  1  6  2  0  0  0
  4  5  2  0  0  0
  6  5  1  0  0  0
  5  7  1  0  0  0
 10  7  1  0  0  0
  8  7  2  0  0  0
  7  9  2  0  0  0
 13 16  1  0  0  0
 18 19  1  0  0  0
 10 11  1  0  0  0
 10 12  1  0  0  0
M  END
> <minimizedAffinity>
-5.80290

$$$$
5EKM_TG5_A_304


 23 23  0  0  0  0  0  0  0  0999 V2000
    1.1714    2.8565   82.0990 C   0  0  0  0  0  0  0  0  0  0  0  0
    0.5305    3.0202   83.3258 C   0  0  0  0  0  0  0  0  0  0  0  0
   -0.2245    1.9604   83.8454 C   0  0  0  0  0  0  0  0  0  0  0  0
   -0.3529    0.7679   83.1680 C   0  0  0  0  0  0  0  0  0  0  0  0
    0.3013    0.6133   81.9510 C   0  0  0  0  0  0  0  0  0  0  0  0
    1.0547    1.6673   81.4130 C   0  0  0  0  0  0  0  0  0  0  0  0
    0.1417   -0.9219   81.0640 S   0  0  0  0  0  0  0  0  0  0  0  0
    0.0455   -0.6239   79.6648 O   0  0  0  0  0  0  0  0  0  0  0  0
   -1.0666   -1.5760   81.4803 O   0  0  0  0  0  0  0  0  0  0  0  0
    1.4679   -1.8002   81.4214 N   0  0  0  0  0  0  0  0  0  0  0  0
    2.3007   -1.3007   81.1096 H   0  0  0  0  0  0  0  0  0  0  0  0
    1.4157   -2.7025   80.9486 H   0  0  0  0  0  0  0  0  0  0  0  0
    0.6908    4.2690   83.9761 N   0  0  0  0  0  0  0  0  0  0  0  0
   -0.2697    5.2966   84.2765 C   0  0  0  0  0  0  0  0  0  0  0  0
    0.1300    6.2985   84.8507 O   0  0  0  0  0  0  0  0  0  0  0  0
    1.6096    4.4653   84.2703 H   0  0  0  0  0  0  0  0  0  0  0  0
   -1.7640    5.2410   83.9116 C   0  0  0  0  0  0  0  0  0  0  0  0
   -2.5580    5.0171   85.1126 N   0  0  0  0  0  0  0  0  0  0  0  0
   -2.0546    5.3685   85.9271 H   0  0  0  0  0  0  0  0  0  0  0  0
   -2.7885    3.6008   85.2588 C   0  0  0  0  0  0  0  0  0  0  0  0
   -3.1364    3.3063   86.7211 C   0  0  0  0  0  0  0  0  0  0  0  0
   -2.5858    1.9132   87.1192 C   0  0  0  0  0  0  0  0  0  0  0  0
   -3.6903    0.8723   86.9772 C   0  0  0  0  0  0  0  0  0  0  0  0
 23 22  1  0  0  0
 22 21  1  0  0  0
 21 20  1  0  0  0
 20 18  1  0  0  0
 18 17  1  0  0  0
 15 14  2  0  0  0
 17 14  1  0  0  0
 14 13  1  0  0  0
 13  2  1  0  0  0
  2  3  2  0  0  0
  2  1  1  0  0  0
  3  4  1  0  0  0
  1  6  2  0  0  0
  4  5  2  0  0  0
  6  5  1  0  0  0
  5  7  1  0  0  0
 10  7  1  0  0  0
  8  7  2  0  0  0
  7  9  2  0  0  0
 13 16  1  0  0  0
 18 19  1  0  0  0
 10 11  1  0  0  0
 10 12  1  0  0  0
M  END
> <minimizedAffinity>
-5.75633

$$$$
5EKM_TG5_A_304


 23 23  0  0  0  0  0  0  0  0999 V2000
    0.0645    3.0843   84.8445 C   0  0  0  0  0  0  0  0  0  0  0  0
   -0.6822    4.1341   84.3125 C   0  0  0  0  0  0  0  0  0  0  0  0
   -2.0310    4.2592   84.6706 C   0  0  0  0  0  0  0  0  0  0  0  0
   -2.6343    3.3652   85.5276 C   0  0  0  0  0  0  0  0  0  0  0  0
   -1.8752    2.3296   86.0607 C   0  0  0  0  0  0  0  0  0  0  0  0
   -0.5256    2.1855   85.7062 C   0  0  0  0  0  0  0  0  0  0  0  0
   -2.6431    1.1657   87.1675 S   0  0  0  0  0  0  0  0  0  0  0  0
   -4.0036    0.9831   86.7534 O   0  0  0  0  0  0  0  0  0  0  0  0
   -2.6346    1.7116   88.4952 O   0  0  0  0  0  0  0  0  0  0  0  0
   -1.7737   -0.2096   87.0652 N   0  0  0  0  0  0  0  0  0  0  0  0
   -1.8064   -0.5621   86.1086 H   0  0  0  0  0  0  0  0  0  0  0  0
   -2.1650   -0.9071   87.6982 H   0  0  0  0  0  0  0  0  0  0  0  0
   -0.0135    5.0200   83.4315 N   0  0  0  0  0  0  0  0  0  0  0  0
    0.9154    4.7544   82.3660 C   0  0  0  0  0  0  0  0  0  0  0  0
    1.3609    5.7101   81.7484 O   0  0  0  0  0  0  0  0  0  0  0  0
   -0.2183    5.9727   83.5716 H   0  0  0  0  0  0  0  0  0  0  0  0
    1.4096    3.3560   81.9548 C   0  0  0  0  0  0  0  0  0  0  0  0
    2.8319    3.2292   82.2449 N   0  0  0  0  0  0  0  0  0  0  0  0
    3.1519    4.0509   82.7577 H   0  0  0  0  0  0  0  0  0  0  0  0
    3.5516    3.1241   80.9994 C   0  0  0  0  0  0  0  0  0  0  0  0
    4.8306    3.9613   81.0969 C   0  0  0  0  0  0  0  0  0  0  0  0
    4.6018    5.3446   80.4360 C   0  0  0  0  0  0  0  0  0  0  0  0
    4.8327    6.4432   81.4671 C   0  0  0  0  0  0  0  0  0  0  0  0
 23 22  1  0  0  0
 22 21  1  0  0  0
 21 20  1  0  0  0
 20 18  1  0  0  0
 18 17  1  0  0  0
 15 14  2  0  0  0
 17 14  1  0  0  0
 14 13  1  0  0  0
 13  2  1  0  0  0
  2  3  2  0  0  0
  2  1  1  0  0  0
  3  4  1  0  0  0
  1  6  2  0  0  0
  4  5  2  0  0  0
  6  5  1  0  0  0
  5  7  1  0  0  0
 10  7  1  0  0  0
  8  7  2  0  0  0
  7  9  2  0  0  0
 13 16  1  0  0  0
 18 19  1  0  0  0
 10 11  1  0  0  0
 10 12  1  0  0  0
M  END
> <minimizedAffinity>
-5.70375

$$$$
5EKM_TG5_A_304


 23 23  0  0  0  0  0  0  0  0999 V2000
   -2.2827    4.3015   84.9204 C   0  0  0  0  0  0  0  0  0  0  0  0
   -0.9662    4.4085   84.4755 C   0  0  0  0  0  0  0  0  0  0  0  0
   -0.0577    3.3887   84.7881 C   0  0  0  0  0  0  0  0  0  0  0  0
   -0.4349    2.2909   85.5298 C   0  0  0  0  0  0  0  0  0  0  0  0
   -1.7541    2.1904   85.9571 C   0  0  0  0  0  0  0  0  0  0  0  0
   -2.6743    3.2066   85.6595 C   0  0  0  0  0  0  0  0  0  0  0  0
   -2.2542    0.7781   86.9185 S   0  0  0  0  0  0  0  0  0  0  0  0
   -1.7152    0.9207   88.2395 O   0  0  0  0  0  0  0  0  0  0  0  0
   -1.7064   -0.4076   86.3226 O   0  0  0  0  0  0  0  0  0  0  0  0
   -3.8845    0.7700   86.9113 N   0  0  0  0  0  0  0  0  0  0  0  0
   -4.2306    1.6273   87.3422 H   0  0  0  0  0  0  0  0  0  0  0  0
   -4.2228   -0.0357   87.4374 H   0  0  0  0  0  0  0  0  0  0  0  0
   -0.6311    5.5613   83.7226 N   0  0  0  0  0  0  0  0  0  0  0  0
   -0.4047    5.7228   82.3114 C   0  0  0  0  0  0  0  0  0  0  0  0
   -0.1192    6.8393   81.9052 O   0  0  0  0  0  0  0  0  0  0  0  0
   -0.5381    6.3863   84.2517 H   0  0  0  0  0  0  0  0  0  0  0  0
   -0.4745    4.5901   81.2716 C   0  0  0  0  0  0  0  0  0  0  0  0
   -0.9082    5.1241   79.9872 N   0  0  0  0  0  0  0  0  0  0  0  0
   -1.7711    4.6635   79.6980 H   0  0  0  0  0  0  0  0  0  0  0  0
    0.1240    4.8782   79.0102 C   0  0  0  0  0  0  0  0  0  0  0  0
    0.0999    6.0052   77.9733 C   0  0  0  0  0  0  0  0  0  0  0  0
    0.0612    5.4019   76.5461 C   0  0  0  0  0  0  0  0  0  0  0  0
    1.2311    5.9458   75.7342 C   0  0  0  0  0  0  0  0  0  0  0  0
 23 22  1  0  0  0
 22 21  1  0  0  0
 21 20  1  0  0  0
 20 18  1  0  0  0
 18 17  1  0  0  0
 15 14  2  0  0  0
 17 14  1  0  0  0
 14 13  1  0  0  0
 13  2  1  0  0  0
  2  3  2  0  0  0
  2  1  1  0  0  0
  3  4  1  0  0  0
  1  6  2  0  0  0
  4  5  2  0  0  0
  6  5  1  0  0  0
  5  7  1  0  0  0
 10  7  1  0  0  0
  8  7  2  0  0  0
  7  9  2  0  0  0
 13 16  1  0  0  0
 18 19  1  0  0  0
 10 11  1  0  0  0
 10 12  1  0  0  0
M  END
> <minimizedAffinity>
-5.70049

$$$$
