2PU2_DK2_A_702


 29 31  0  0  0  0  0  0  0  0999 V2000
   22.2448    6.5988   16.0708 O   0  0  0  0  0  0  0  0  0  0  0  0
   23.5288    6.6741   16.2312 C   0  0  0  0  0  0  0  0  0  0  0  0
   24.1713    6.6466   17.5650 C   0  0  0  0  0  0  0  0  0  0  0  0
   25.5331    6.7505   17.3203 C   0  0  0  0  0  0  0  0  0  0  0  0
   26.4553    6.7582   18.3634 C   0  0  0  0  0  0  0  0  0  0  0  0
   23.6773    6.5290   18.8469 C   0  0  0  0  0  0  0  0  0  0  0  0
   24.5908    6.5310   19.8974 C   0  0  0  0  0  0  0  0  0  0  0  0
   25.9653    6.6316   19.6658 C   0  0  0  0  0  0  0  0  0  0  0  0
   24.4012    6.7852   15.2113 N   0  0  0  0  0  0  0  0  0  0  0  0
   25.6141    6.8390   15.8281 C   0  0  0  0  0  0  0  0  0  0  0  0
   26.7376    6.9538   15.2090 O   0  0  0  0  0  0  0  0  0  0  0  0
   26.8700    6.6402   20.8634 C   0  0  0  0  0  0  0  0  0  0  0  0
   26.4316    7.2033   21.9012 O   0  0  0  0  0  0  0  0  0  0  0  0
   28.0079    6.1008   20.8364 O   0  0  0  0  0  0  0  0  0  0  0  0
   25.5817    7.5978   21.8968 H   0  0  0  0  0  0  0  0  0  0  0  0
   24.0525    6.8736   13.7564 C   0  0  0  0  0  0  0  0  0  0  0  0
   24.3655    8.2366   13.2193 C   0  0  0  0  0  0  0  0  0  0  0  0
   25.5636    8.5375   13.0152 O   0  0  0  0  0  0  0  0  0  0  0  0
   23.4242    9.0247   13.0302 O   0  0  0  0  0  0  0  0  0  0  0  0
   26.2384    7.9069   13.1731 H   0  0  0  0  0  0  0  0  0  0  0  0
   24.8545    5.8017   12.9965 C   0  0  0  0  0  0  0  0  0  0  0  0
   24.0343    5.3520   11.8073 C   0  0  0  0  0  0  0  0  0  0  0  0
   23.1875    4.2436   11.9180 C   0  0  0  0  0  0  0  0  0  0  0  0
   22.4166    3.8537   10.8222 C   0  0  0  0  0  0  0  0  0  0  0  0
   22.4954    4.5787    9.6289 C   0  0  0  0  0  0  0  0  0  0  0  0
   21.7380    4.2039    8.5637 O   0  0  0  0  0  0  0  0  0  0  0  0
   23.3320    5.6975    9.5212 C   0  0  0  0  0  0  0  0  0  0  0  0
   24.1039    6.0822   10.6158 C   0  0  0  0  0  0  0  0  0  0  0  0
   21.1761    3.4569    8.6281 H   0  0  0  0  0  0  0  0  0  0  0  0
  1  2  2  0  0  0
  2  9  1  0  0  0
  2  3  1  0  0  0
  3  4  2  0  0  0
  3  6  1  0  0  0
  4 10  1  0  0  0
  4  5  1  0  0  0
  5  8  2  0  0  0
  6  7  2  0  0  0
  7  8  1  0  0  0
  8 12  1  0  0  0
 12 14  2  0  0  0
 12 13  1  0  0  0
  9 16  1  0  0  0
  9 10  1  0  0  0
 10 11  2  0  0  0
 16 17  1  0  0  0
 16 21  1  0  0  0
 17 19  2  0  0  0
 17 18  1  0  0  0
 21 22  1  0  0  0
 22 23  1  0  0  0
 22 28  2  0  0  0
 23 24  2  0  0  0
 24 25  1  0  0  0
 25 26  1  0  0  0
 25 27  2  0  0  0
 27 28  1  0  0  0
 13 15  1  0  0  0
 18 20  1  0  0  0
 26 29  1  0  0  0
M  END
> <minimizedAffinity>
-9.08182

$$$$
2PU2_DK2_A_702


 29 31  0  0  0  0  0  0  0  0999 V2000
   21.8594    6.9435   15.0814 O   0  0  0  0  0  0  0  0  0  0  0  0
   23.1158    6.6813   15.2623 C   0  0  0  0  0  0  0  0  0  0  0  0
   23.7042    6.4729   16.6050 C   0  0  0  0  0  0  0  0  0  0  0  0
   25.0509    6.2230   16.3825 C   0  0  0  0  0  0  0  0  0  0  0  0
   25.9239    5.9793   17.4394 C   0  0  0  0  0  0  0  0  0  0  0  0
   23.1728    6.4729   17.8773 C   0  0  0  0  0  0  0  0  0  0  0  0
   24.0359    6.2260   18.9413 C   0  0  0  0  0  0  0  0  0  0  0  0
   25.3936    5.9693   18.7321 C   0  0  0  0  0  0  0  0  0  0  0  0
   24.0061    6.5740   14.2576 N   0  0  0  0  0  0  0  0  0  0  0  0
   25.1799    6.3044   14.8933 C   0  0  0  0  0  0  0  0  0  0  0  0
   26.3060    6.1310   14.2931 O   0  0  0  0  0  0  0  0  0  0  0  0
   26.2471    5.7294   19.9432 C   0  0  0  0  0  0  0  0  0  0  0  0
   27.4299    5.3489   19.7370 O   0  0  0  0  0  0  0  0  0  0  0  0
   25.8063    5.9105   21.1092 O   0  0  0  0  0  0  0  0  0  0  0  0
   27.7349    5.2211   18.8603 H   0  0  0  0  0  0  0  0  0  0  0  0
   23.7194    6.7664   12.7991 C   0  0  0  0  0  0  0  0  0  0  0  0
   24.2979    8.0597   12.3124 C   0  0  0  0  0  0  0  0  0  0  0  0
   23.9725    9.1175   12.8980 O   0  0  0  0  0  0  0  0  0  0  0  0
   25.0513    8.0325   11.3252 O   0  0  0  0  0  0  0  0  0  0  0  0
   23.4006    9.0856   13.6395 H   0  0  0  0  0  0  0  0  0  0  0  0
   24.3251    5.5833   12.0227 C   0  0  0  0  0  0  0  0  0  0  0  0
   23.2721    5.0504   11.0759 C   0  0  0  0  0  0  0  0  0  0  0  0
   22.2646    4.2040   11.5518 C   0  0  0  0  0  0  0  0  0  0  0  0
   21.2840    3.7394   10.6744 C   0  0  0  0  0  0  0  0  0  0  0  0
   21.3170    4.1298    9.3319 C   0  0  0  0  0  0  0  0  0  0  0  0
   20.3567    3.6838    8.4788 O   0  0  0  0  0  0  0  0  0  0  0  0
   22.3169    4.9888    8.8571 C   0  0  0  0  0  0  0  0  0  0  0  0
   23.2973    5.4481    9.7346 C   0  0  0  0  0  0  0  0  0  0  0  0
   19.6847    3.1091    8.7889 H   0  0  0  0  0  0  0  0  0  0  0  0
  1  2  2  0  0  0
  2  9  1  0  0  0
  2  3  1  0  0  0
  3  4  2  0  0  0
  3  6  1  0  0  0
  4 10  1  0  0  0
  4  5  1  0  0  0
  5  8  2  0  0  0
  6  7  2  0  0  0
  7  8  1  0  0  0
  8 12  1  0  0  0
 12 14  2  0  0  0
 12 13  1  0  0  0
  9 16  1  0  0  0
  9 10  1  0  0  0
 10 11  2  0  0  0
 16 17  1  0  0  0
 16 21  1  0  0  0
 17 19  2  0  0  0
 17 18  1  0  0  0
 21 22  1  0  0  0
 22 23  1  0  0  0
 22 28  2  0  0  0
 23 24  2  0  0  0
 24 25  1  0  0  0
 25 26  1  0  0  0
 25 27  2  0  0  0
 27 28  1  0  0  0
 13 15  1  0  0  0
 18 20  1  0  0  0
 26 29  1  0  0  0
M  END
> <minimizedAffinity>
-8.63349

$$$$
2PU2_DK2_A_702


 29 31  0  0  0  0  0  0  0  0999 V2000
   26.0382    7.2614   13.9537 O   0  0  0  0  0  0  0  0  0  0  0  0
   25.0332    6.9188   14.6971 C   0  0  0  0  0  0  0  0  0  0  0  0
   25.1437    6.7518   16.1642 C   0  0  0  0  0  0  0  0  0  0  0  0
   23.8752    6.3843   16.5899 C   0  0  0  0  0  0  0  0  0  0  0  0
   23.6077    6.1397   17.9342 C   0  0  0  0  0  0  0  0  0  0  0  0
   26.1849    6.9068   17.0547 C   0  0  0  0  0  0  0  0  0  0  0  0
   25.9277    6.6691   18.4021 C   0  0  0  0  0  0  0  0  0  0  0  0
   24.6544    6.3017   18.8457 C   0  0  0  0  0  0  0  0  0  0  0  0
   23.7982    6.6806   14.2158 N   0  0  0  0  0  0  0  0  0  0  0  0
   23.0776    6.3518   15.3235 C   0  0  0  0  0  0  0  0  0  0  0  0
   21.8281    6.0400   15.3091 O   0  0  0  0  0  0  0  0  0  0  0  0
   24.4788    6.0524   20.3153 C   0  0  0  0  0  0  0  0  0  0  0  0
   23.4452    6.5316   20.8522 O   0  0  0  0  0  0  0  0  0  0  0  0
   25.3181    5.3867   20.9780 O   0  0  0  0  0  0  0  0  0  0  0  0
   22.8354    7.0235   20.3383 H   0  0  0  0  0  0  0  0  0  0  0  0
   23.3860    6.7339   12.7758 C   0  0  0  0  0  0  0  0  0  0  0  0
   23.8123    8.0270   12.1511 C   0  0  0  0  0  0  0  0  0  0  0  0
   24.8077    8.0239   11.3916 O   0  0  0  0  0  0  0  0  0  0  0  0
   23.1798    9.0563   12.4396 O   0  0  0  0  0  0  0  0  0  0  0  0
   25.2517    7.2202   11.2044 H   0  0  0  0  0  0  0  0  0  0  0  0
   24.0307    5.5456   12.0395 C   0  0  0  0  0  0  0  0  0  0  0  0
   23.0361    5.0208   11.0273 C   0  0  0  0  0  0  0  0  0  0  0  0
   21.9525    4.2417   11.4475 C   0  0  0  0  0  0  0  0  0  0  0  0
   21.0275    3.7846   10.5080 C   0  0  0  0  0  0  0  0  0  0  0  0
   21.1917    4.1155    9.1592 C   0  0  0  0  0  0  0  0  0  0  0  0
   20.2857    3.6773    8.2448 O   0  0  0  0  0  0  0  0  0  0  0  0
   22.2682    4.9077    8.7389 C   0  0  0  0  0  0  0  0  0  0  0  0
   23.1927    5.3594    9.6787 C   0  0  0  0  0  0  0  0  0  0  0  0
   19.5631    3.1471    8.5182 H   0  0  0  0  0  0  0  0  0  0  0  0
  1  2  2  0  0  0
  2  9  1  0  0  0
  2  3  1  0  0  0
  3  4  2  0  0  0
  3  6  1  0  0  0
  4 10  1  0  0  0
  4  5  1  0  0  0
  5  8  2  0  0  0
  6  7  2  0  0  0
  7  8  1  0  0  0
  8 12  1  0  0  0
 12 14  2  0  0  0
 12 13  1  0  0  0
  9 16  1  0  0  0
  9 10  1  0  0  0
 10 11  2  0  0  0
 16 17  1  0  0  0
 16 21  1  0  0  0
 17 19  2  0  0  0
 17 18  1  0  0  0
 21 22  1  0  0  0
 22 23  1  0  0  0
 22 28  2  0  0  0
 23 24  2  0  0  0
 24 25  1  0  0  0
 25 26  1  0  0  0
 25 27  2  0  0  0
 27 28  1  0  0  0
 13 15  1  0  0  0
 18 20  1  0  0  0
 26 29  1  0  0  0
M  END
> <minimizedAffinity>
-8.60750

$$$$
2PU2_DK2_A_702


 29 31  0  0  0  0  0  0  0  0999 V2000
   25.9632    5.8226   17.0015 O   0  0  0  0  0  0  0  0  0  0  0  0
   24.7265    6.2077   16.9514 C   0  0  0  0  0  0  0  0  0  0  0  0
   23.8422    6.2145   18.1390 C   0  0  0  0  0  0  0  0  0  0  0  0
   22.6175    6.6820   17.6839 C   0  0  0  0  0  0  0  0  0  0  0  0
   21.5322    6.8193   18.5451 C   0  0  0  0  0  0  0  0  0  0  0  0
   24.0396    5.8843   19.4630 C   0  0  0  0  0  0  0  0  0  0  0  0
   22.9623    6.0220   20.3340 C   0  0  0  0  0  0  0  0  0  0  0  0
   21.7242    6.4946   19.8906 C   0  0  0  0  0  0  0  0  0  0  0  0
   24.1250    6.6353   15.8250 N   0  0  0  0  0  0  0  0  0  0  0  0
   22.8559    6.9238   16.2260 C   0  0  0  0  0  0  0  0  0  0  0  0
   21.9316    7.3646   15.4449 O   0  0  0  0  0  0  0  0  0  0  0  0
   20.6191    6.5943   20.9013 C   0  0  0  0  0  0  0  0  0  0  0  0
   19.5058    7.0109   20.4851 O   0  0  0  0  0  0  0  0  0  0  0  0
   20.7926    6.2667   22.1052 O   0  0  0  0  0  0  0  0  0  0  0  0
   19.4013    7.2486   19.5848 H   0  0  0  0  0  0  0  0  0  0  0  0
   24.7481    6.7078   14.4638 C   0  0  0  0  0  0  0  0  0  0  0  0
   26.0227    7.4938   14.5066 C   0  0  0  0  0  0  0  0  0  0  0  0
   27.0928    6.8844   14.7332 O   0  0  0  0  0  0  0  0  0  0  0  0
   25.9606    8.7242   14.3487 O   0  0  0  0  0  0  0  0  0  0  0  0
   27.0875    5.9542   14.8451 H   0  0  0  0  0  0  0  0  0  0  0  0
   25.0197    5.2737   13.9747 C   0  0  0  0  0  0  0  0  0  0  0  0
   24.3295    5.0904   12.6408 C   0  0  0  0  0  0  0  0  0  0  0  0
   23.4790    3.9985   12.4353 C   0  0  0  0  0  0  0  0  0  0  0  0
   22.8279    3.8539   11.2096 C   0  0  0  0  0  0  0  0  0  0  0  0
   23.0289    4.8047   10.2040 C   0  0  0  0  0  0  0  0  0  0  0  0
   22.3879    4.6683    9.0126 O   0  0  0  0  0  0  0  0  0  0  0  0
   23.8689    5.9063   10.4134 C   0  0  0  0  0  0  0  0  0  0  0  0
   24.5211    6.0462   11.6370 C   0  0  0  0  0  0  0  0  0  0  0  0
   21.8245    3.9343    8.8650 H   0  0  0  0  0  0  0  0  0  0  0  0
  1  2  2  0  0  0
  2  9  1  0  0  0
  2  3  1  0  0  0
  3  4  2  0  0  0
  3  6  1  0  0  0
  4 10  1  0  0  0
  4  5  1  0  0  0
  5  8  2  0  0  0
  6  7  2  0  0  0
  7  8  1  0  0  0
  8 12  1  0  0  0
 12 14  2  0  0  0
 12 13  1  0  0  0
  9 16  1  0  0  0
  9 10  1  0  0  0
 10 11  2  0  0  0
 16 17  1  0  0  0
 16 21  1  0  0  0
 17 19  2  0  0  0
 17 18  1  0  0  0
 21 22  1  0  0  0
 22 23  1  0  0  0
 22 28  2  0  0  0
 23 24  2  0  0  0
 24 25  1  0  0  0
 25 26  1  0  0  0
 25 27  2  0  0  0
 27 28  1  0  0  0
 13 15  1  0  0  0
 18 20  1  0  0  0
 26 29  1  0  0  0
M  END
> <minimizedAffinity>
-8.45574

$$$$
2PU2_DK2_A_702


 29 31  0  0  0  0  0  0  0  0999 V2000
   26.0348    6.7176   13.8155 O   0  0  0  0  0  0  0  0  0  0  0  0
   25.0174    6.4754   14.5812 C   0  0  0  0  0  0  0  0  0  0  0  0
   25.1122    6.4681   16.0589 C   0  0  0  0  0  0  0  0  0  0  0  0
   23.8336    6.1710   16.5087 C   0  0  0  0  0  0  0  0  0  0  0  0
   23.5502    6.0794   17.8688 C   0  0  0  0  0  0  0  0  0  0  0  0
   26.1483    6.7018   16.9380 C   0  0  0  0  0  0  0  0  0  0  0  0
   25.8751    6.6173   18.3005 C   0  0  0  0  0  0  0  0  0  0  0  0
   24.5916    6.3223   18.7681 C   0  0  0  0  0  0  0  0  0  0  0  0
   23.7825    6.2071   14.1157 N   0  0  0  0  0  0  0  0  0  0  0  0
   23.0465    6.0138   15.2451 C   0  0  0  0  0  0  0  0  0  0  0  0
   21.7918    5.7235   15.2517 O   0  0  0  0  0  0  0  0  0  0  0  0
   24.3989    6.2383   20.2542 C   0  0  0  0  0  0  0  0  0  0  0  0
   23.3307    6.7203   20.7157 O   0  0  0  0  0  0  0  0  0  0  0  0
   25.2580    5.7018   21.0031 O   0  0  0  0  0  0  0  0  0  0  0  0
   22.7068    7.1144   20.1383 H   0  0  0  0  0  0  0  0  0  0  0  0
   23.3838    6.1096   12.6743 C   0  0  0  0  0  0  0  0  0  0  0  0
   22.5452    4.8909   12.4386 C   0  0  0  0  0  0  0  0  0  0  0  0
   21.2990    5.0098   12.4614 O   0  0  0  0  0  0  0  0  0  0  0  0
   23.1220    3.8048   12.2636 O   0  0  0  0  0  0  0  0  0  0  0  0
   20.9112    5.8520   12.5969 H   0  0  0  0  0  0  0  0  0  0  0  0
   22.5997    7.3798   12.2981 C   0  0  0  0  0  0  0  0  0  0  0  0
   23.1007    7.8643   10.9551 C   0  0  0  0  0  0  0  0  0  0  0  0
   22.3383    8.7677   10.2064 C   0  0  0  0  0  0  0  0  0  0  0  0
   22.8224    9.2273    8.9810 C   0  0  0  0  0  0  0  0  0  0  0  0
   24.0658    8.7840    8.5191 C   0  0  0  0  0  0  0  0  0  0  0  0
   24.5414    9.2384    7.3291 O   0  0  0  0  0  0  0  0  0  0  0  0
   24.8368    7.8907    9.2746 C   0  0  0  0  0  0  0  0  0  0  0  0
   24.3491    7.4301   10.4960 C   0  0  0  0  0  0  0  0  0  0  0  0
   24.0316    9.8359    6.8182 H   0  0  0  0  0  0  0  0  0  0  0  0
  1  2  2  0  0  0
  2  9  1  0  0  0
  2  3  1  0  0  0
  3  4  2  0  0  0
  3  6  1  0  0  0
  4 10  1  0  0  0
  4  5  1  0  0  0
  5  8  2  0  0  0
  6  7  2  0  0  0
  7  8  1  0  0  0
  8 12  1  0  0  0
 12 14  2  0  0  0
 12 13  1  0  0  0
  9 16  1  0  0  0
  9 10  1  0  0  0
 10 11  2  0  0  0
 16 17  1  0  0  0
 16 21  1  0  0  0
 17 19  2  0  0  0
 17 18  1  0  0  0
 21 22  1  0  0  0
 22 23  1  0  0  0
 22 28  2  0  0  0
 23 24  2  0  0  0
 24 25  1  0  0  0
 25 26  1  0  0  0
 25 27  2  0  0  0
 27 28  1  0  0  0
 13 15  1  0  0  0
 18 20  1  0  0  0
 26 29  1  0  0  0
M  END
> <minimizedAffinity>
-8.31324

$$$$
2PU2_DK2_A_702


 29 31  0  0  0  0  0  0  0  0999 V2000
   22.6516    3.9658   12.3261 O   0  0  0  0  0  0  0  0  0  0  0  0
   23.1784    4.9968   11.7434 C   0  0  0  0  0  0  0  0  0  0  0  0
   23.0316    5.2578   10.2932 C   0  0  0  0  0  0  0  0  0  0  0  0
   23.7284    6.4346   10.0583 C   0  0  0  0  0  0  0  0  0  0  0  0
   23.8046    6.9856    8.7819 C   0  0  0  0  0  0  0  0  0  0  0  0
   22.3728    4.5966    9.2785 C   0  0  0  0  0  0  0  0  0  0  0  0
   22.4386    5.1411    7.9989 C   0  0  0  0  0  0  0  0  0  0  0  0
   23.1337    6.3272    7.7480 C   0  0  0  0  0  0  0  0  0  0  0  0
   23.9069    5.9263   12.3906 N   0  0  0  0  0  0  0  0  0  0  0  0
   24.2583    6.8025   11.4091 C   0  0  0  0  0  0  0  0  0  0  0  0
   24.9760    7.8547   11.5998 O   0  0  0  0  0  0  0  0  0  0  0  0
   23.1603    6.8276    6.3332 C   0  0  0  0  0  0  0  0  0  0  0  0
   24.2849    6.8701    5.7678 O   0  0  0  0  0  0  0  0  0  0  0  0
   22.1080    7.1775    5.7357 O   0  0  0  0  0  0  0  0  0  0  0  0
   25.0536    6.6045    6.2332 H   0  0  0  0  0  0  0  0  0  0  0  0
   24.2569    5.9169   13.8479 C   0  0  0  0  0  0  0  0  0  0  0  0
   25.5769    5.2445   14.0707 C   0  0  0  0  0  0  0  0  0  0  0  0
   25.5845    4.0311   14.3793 O   0  0  0  0  0  0  0  0  0  0  0  0
   26.6092    5.9283   13.9729 O   0  0  0  0  0  0  0  0  0  0  0  0
   24.7780    3.5581   14.4402 H   0  0  0  0  0  0  0  0  0  0  0  0
   24.3065    7.3723   14.3470 C   0  0  0  0  0  0  0  0  0  0  0  0
   24.2344    7.3566   15.8582 C   0  0  0  0  0  0  0  0  0  0  0  0
   23.1768    6.7060   16.5033 C   0  0  0  0  0  0  0  0  0  0  0  0
   23.1346    6.6761   17.8978 C   0  0  0  0  0  0  0  0  0  0  0  0
   24.1524    7.2916   18.6332 C   0  0  0  0  0  0  0  0  0  0  0  0
   24.1157    7.2553   19.9920 O   0  0  0  0  0  0  0  0  0  0  0  0
   25.2197    7.9309   17.9886 C   0  0  0  0  0  0  0  0  0  0  0  0
   25.2573    7.9628   16.5960 C   0  0  0  0  0  0  0  0  0  0  0  0
   23.4053    6.8296   20.4303 H   0  0  0  0  0  0  0  0  0  0  0  0
  1  2  2  0  0  0
  2  9  1  0  0  0
  2  3  1  0  0  0
  3  4  2  0  0  0
  3  6  1  0  0  0
  4 10  1  0  0  0
  4  5  1  0  0  0
  5  8  2  0  0  0
  6  7  2  0  0  0
  7  8  1  0  0  0
  8 12  1  0  0  0
 12 14  2  0  0  0
 12 13  1  0  0  0
  9 16  1  0  0  0
  9 10  1  0  0  0
 10 11  2  0  0  0
 16 17  1  0  0  0
 16 21  1  0  0  0
 17 19  2  0  0  0
 17 18  1  0  0  0
 21 22  1  0  0  0
 22 23  1  0  0  0
 22 28  2  0  0  0
 23 24  2  0  0  0
 24 25  1  0  0  0
 25 26  1  0  0  0
 25 27  2  0  0  0
 27 28  1  0  0  0
 13 15  1  0  0  0
 18 20  1  0  0  0
 26 29  1  0  0  0
M  END
> <minimizedAffinity>
-8.23609

$$$$
2PU2_DK2_A_702


 29 31  0  0  0  0  0  0  0  0999 V2000
   22.4430    8.4743   14.3517 O   0  0  0  0  0  0  0  0  0  0  0  0
   22.8221    7.6983   15.3183 C   0  0  0  0  0  0  0  0  0  0  0  0
   22.1122    7.6322   16.6162 C   0  0  0  0  0  0  0  0  0  0  0  0
   22.8135    6.7043   17.3729 C   0  0  0  0  0  0  0  0  0  0  0  0
   22.4211    6.3867   18.6705 C   0  0  0  0  0  0  0  0  0  0  0  0
   20.9902    8.2633   17.1101 C   0  0  0  0  0  0  0  0  0  0  0  0
   20.5862    7.9499   18.4049 C   0  0  0  0  0  0  0  0  0  0  0  0
   21.2807    7.0150   19.1774 C   0  0  0  0  0  0  0  0  0  0  0  0
   23.8904    6.8820   15.2424 N   0  0  0  0  0  0  0  0  0  0  0  0
   23.9190    6.2732   16.4602 C   0  0  0  0  0  0  0  0  0  0  0  0
   24.8017    5.4055   16.8162 O   0  0  0  0  0  0  0  0  0  0  0  0
   20.7772    6.7550   20.5673 C   0  0  0  0  0  0  0  0  0  0  0  0
   19.5284    6.7711   20.7302 O   0  0  0  0  0  0  0  0  0  0  0  0
   21.5641    6.5207   21.5226 O   0  0  0  0  0  0  0  0  0  0  0  0
   18.9634    6.9479   20.0040 H   0  0  0  0  0  0  0  0  0  0  0  0
   24.8230    6.7540   14.0762 C   0  0  0  0  0  0  0  0  0  0  0  0
   26.1789    7.2890   14.4219 C   0  0  0  0  0  0  0  0  0  0  0  0
   26.9968    6.5255   14.9838 O   0  0  0  0  0  0  0  0  0  0  0  0
   26.4240    8.4796   14.1666 O   0  0  0  0  0  0  0  0  0  0  0  0
   26.7643    5.6341   15.1549 H   0  0  0  0  0  0  0  0  0  0  0  0
   24.9173    5.2674   13.6879 C   0  0  0  0  0  0  0  0  0  0  0  0
   24.1703    5.0702   12.3870 C   0  0  0  0  0  0  0  0  0  0  0  0
   24.3484    5.9722   11.3322 C   0  0  0  0  0  0  0  0  0  0  0  0
   23.6738    5.7658   10.1282 C   0  0  0  0  0  0  0  0  0  0  0  0
   22.8327    4.6572    9.9887 C   0  0  0  0  0  0  0  0  0  0  0  0
   22.1818    4.4514    8.8127 O   0  0  0  0  0  0  0  0  0  0  0  0
   22.6647    3.7453   11.0391 C   0  0  0  0  0  0  0  0  0  0  0  0
   23.3364    3.9560   12.2417 C   0  0  0  0  0  0  0  0  0  0  0  0
   22.2892    5.0569    8.1057 H   0  0  0  0  0  0  0  0  0  0  0  0
  1  2  2  0  0  0
  2  9  1  0  0  0
  2  3  1  0  0  0
  3  4  2  0  0  0
  3  6  1  0  0  0
  4 10  1  0  0  0
  4  5  1  0  0  0
  5  8  2  0  0  0
  6  7  2  0  0  0
  7  8  1  0  0  0
  8 12  1  0  0  0
 12 14  2  0  0  0
 12 13  1  0  0  0
  9 16  1  0  0  0
  9 10  1  0  0  0
 10 11  2  0  0  0
 16 17  1  0  0  0
 16 21  1  0  0  0
 17 19  2  0  0  0
 17 18  1  0  0  0
 21 22  1  0  0  0
 22 23  1  0  0  0
 22 28  2  0  0  0
 23 24  2  0  0  0
 24 25  1  0  0  0
 25 26  1  0  0  0
 25 27  2  0  0  0
 27 28  1  0  0  0
 13 15  1  0  0  0
 18 20  1  0  0  0
 26 29  1  0  0  0
M  END
> <minimizedAffinity>
-8.14939

$$$$
2PU2_DK2_A_702


 29 31  0  0  0  0  0  0  0  0999 V2000
   21.7951    6.3737   14.9019 O   0  0  0  0  0  0  0  0  0  0  0  0
   23.0799    6.2896   15.0506 C   0  0  0  0  0  0  0  0  0  0  0  0
   23.7429    6.4191   16.3684 C   0  0  0  0  0  0  0  0  0  0  0  0
   25.0994    6.2756   16.1141 C   0  0  0  0  0  0  0  0  0  0  0  0
   26.0373    6.3440   17.1409 C   0  0  0  0  0  0  0  0  0  0  0  0
   23.2673    6.6171   17.6473 C   0  0  0  0  0  0  0  0  0  0  0  0
   24.1960    6.6827   18.6823 C   0  0  0  0  0  0  0  0  0  0  0  0
   25.5649    6.5366   18.4417 C   0  0  0  0  0  0  0  0  0  0  0  0
   23.9351    6.0792   14.0318 N   0  0  0  0  0  0  0  0  0  0  0  0
   25.1573    6.0701   14.6324 C   0  0  0  0  0  0  0  0  0  0  0  0
   26.2707    5.9018   14.0075 O   0  0  0  0  0  0  0  0  0  0  0  0
   26.4892    6.6374   19.6199 C   0  0  0  0  0  0  0  0  0  0  0  0
   26.2496    7.5521   20.4519 O   0  0  0  0  0  0  0  0  0  0  0  0
   27.4512    5.8393   19.7759 O   0  0  0  0  0  0  0  0  0  0  0  0
   25.5280    8.1336   20.3141 H   0  0  0  0  0  0  0  0  0  0  0  0
   23.5687    5.9433   12.5849 C   0  0  0  0  0  0  0  0  0  0  0  0
   22.7764    4.6929   12.3550 C   0  0  0  0  0  0  0  0  0  0  0  0
   21.5265    4.7665   12.3706 O   0  0  0  0  0  0  0  0  0  0  0  0
   23.3933    3.6273   12.1917 O   0  0  0  0  0  0  0  0  0  0  0  0
   21.1075    5.5949   12.4973 H   0  0  0  0  0  0  0  0  0  0  0  0
   22.7500    7.1795   12.1708 C   0  0  0  0  0  0  0  0  0  0  0  0
   23.2804    7.6748   10.8432 C   0  0  0  0  0  0  0  0  0  0  0  0
   22.6292    8.7157   10.1720 C   0  0  0  0  0  0  0  0  0  0  0  0
   23.1423    9.1814    8.9608 C   0  0  0  0  0  0  0  0  0  0  0  0
   24.3039    8.6063    8.4357 C   0  0  0  0  0  0  0  0  0  0  0  0
   24.8087    9.0658    7.2597 O   0  0  0  0  0  0  0  0  0  0  0  0
   24.9652    7.5739    9.1139 C   0  0  0  0  0  0  0  0  0  0  0  0
   24.4483    7.1079   10.3212 C   0  0  0  0  0  0  0  0  0  0  0  0
   24.3721    9.7560    6.8003 H   0  0  0  0  0  0  0  0  0  0  0  0
  1  2  2  0  0  0
  2  9  1  0  0  0
  2  3  1  0  0  0
  3  4  2  0  0  0
  3  6  1  0  0  0
  4 10  1  0  0  0
  4  5  1  0  0  0
  5  8  2  0  0  0
  6  7  2  0  0  0
  7  8  1  0  0  0
  8 12  1  0  0  0
 12 14  2  0  0  0
 12 13  1  0  0  0
  9 16  1  0  0  0
  9 10  1  0  0  0
 10 11  2  0  0  0
 16 17  1  0  0  0
 16 21  1  0  0  0
 17 19  2  0  0  0
 17 18  1  0  0  0
 21 22  1  0  0  0
 22 23  1  0  0  0
 22 28  2  0  0  0
 23 24  2  0  0  0
 24 25  1  0  0  0
 25 26  1  0  0  0
 25 27  2  0  0  0
 27 28  1  0  0  0
 13 15  1  0  0  0
 18 20  1  0  0  0
 26 29  1  0  0  0
M  END
> <minimizedAffinity>
-8.03093

$$$$
2PU2_DK2_A_702


 29 31  0  0  0  0  0  0  0  0999 V2000
   23.6730    8.5223   12.5497 O   0  0  0  0  0  0  0  0  0  0  0  0
   23.6695    7.2704   12.2136 C   0  0  0  0  0  0  0  0  0  0  0  0
   23.1638    6.7948   10.9057 C   0  0  0  0  0  0  0  0  0  0  0  0
   23.3245    5.4167   10.9275 C   0  0  0  0  0  0  0  0  0  0  0  0
   22.9473    4.6289    9.8432 C   0  0  0  0  0  0  0  0  0  0  0  0
   22.6418    7.4412    9.8054 C   0  0  0  0  0  0  0  0  0  0  0  0
   22.2654    6.6637    8.7136 C   0  0  0  0  0  0  0  0  0  0  0  0
   22.4245    5.2753    8.7201 C   0  0  0  0  0  0  0  0  0  0  0  0
   24.1196    6.2839   13.0122 N   0  0  0  0  0  0  0  0  0  0  0  0
   23.9231    5.1561   12.2746 C   0  0  0  0  0  0  0  0  0  0  0  0
   24.2168    3.9678   12.6750 O   0  0  0  0  0  0  0  0  0  0  0  0
   21.9754    4.5216    7.5023 C   0  0  0  0  0  0  0  0  0  0  0  0
   22.7210    4.5851    6.4892 O   0  0  0  0  0  0  0  0  0  0  0  0
   20.9105    3.8488    7.4964 O   0  0  0  0  0  0  0  0  0  0  0  0
   23.5083    5.0924    6.5180 H   0  0  0  0  0  0  0  0  0  0  0  0
   24.6564    6.4481   14.4018 C   0  0  0  0  0  0  0  0  0  0  0  0
   26.0474    7.0032   14.3695 C   0  0  0  0  0  0  0  0  0  0  0  0
   27.0104    6.2061   14.4391 O   0  0  0  0  0  0  0  0  0  0  0  0
   26.1875    8.2359   14.3089 O   0  0  0  0  0  0  0  0  0  0  0  0
   26.8527    5.2835   14.4830 H   0  0  0  0  0  0  0  0  0  0  0  0
   23.7209    7.3929   15.1777 C   0  0  0  0  0  0  0  0  0  0  0  0
   24.0181    7.2452   16.6538 C   0  0  0  0  0  0  0  0  0  0  0  0
   24.1462    5.9719   17.2197 C   0  0  0  0  0  0  0  0  0  0  0  0
   24.4457    5.8484   18.5770 C   0  0  0  0  0  0  0  0  0  0  0  0
   24.6198    6.9983   19.3536 C   0  0  0  0  0  0  0  0  0  0  0  0
   24.9200    6.8780   20.6743 O   0  0  0  0  0  0  0  0  0  0  0  0
   24.5061    8.2739   18.7852 C   0  0  0  0  0  0  0  0  0  0  0  0
   24.2029    8.3944   17.4304 C   0  0  0  0  0  0  0  0  0  0  0  0
   24.9976    6.0283   21.0616 H   0  0  0  0  0  0  0  0  0  0  0  0
  1  2  2  0  0  0
  2  9  1  0  0  0
  2  3  1  0  0  0
  3  4  2  0  0  0
  3  6  1  0  0  0
  4 10  1  0  0  0
  4  5  1  0  0  0
  5  8  2  0  0  0
  6  7  2  0  0  0
  7  8  1  0  0  0
  8 12  1  0  0  0
 12 14  2  0  0  0
 12 13  1  0  0  0
  9 16  1  0  0  0
  9 10  1  0  0  0
 10 11  2  0  0  0
 16 17  1  0  0  0
 16 21  1  0  0  0
 17 19  2  0  0  0
 17 18  1  0  0  0
 21 22  1  0  0  0
 22 23  1  0  0  0
 22 28  2  0  0  0
 23 24  2  0  0  0
 24 25  1  0  0  0
 25 26  1  0  0  0
 25 27  2  0  0  0
 27 28  1  0  0  0
 13 15  1  0  0  0
 18 20  1  0  0  0
 26 29  1  0  0  0
M  END
> <minimizedAffinity>
-7.95671

$$$$
2PU2_DK2_A_702


 29 31  0  0  0  0  0  0  0  0999 V2000
   25.7339    7.3022   13.8183 O   0  0  0  0  0  0  0  0  0  0  0  0
   24.4670    7.0284   13.8187 C   0  0  0  0  0  0  0  0  0  0  0  0
   23.8252    6.2097   12.7649 C   0  0  0  0  0  0  0  0  0  0  0  0
   22.4834    6.1471   13.1129 C   0  0  0  0  0  0  0  0  0  0  0  0
   21.5672    5.4475   12.3322 C   0  0  0  0  0  0  0  0  0  0  0  0
   24.3087    5.5686   11.6441 C   0  0  0  0  0  0  0  0  0  0  0  0
   23.4021    4.8622   10.8585 C   0  0  0  0  0  0  0  0  0  0  0  0
   22.0486    4.7877   11.1984 C   0  0  0  0  0  0  0  0  0  0  0  0
   23.6130    7.4574   14.7675 N   0  0  0  0  0  0  0  0  0  0  0  0
   22.4115    6.9515   14.3734 C   0  0  0  0  0  0  0  0  0  0  0  0
   21.3055    7.1330   15.0077 O   0  0  0  0  0  0  0  0  0  0  0  0
   21.1462    4.0151   10.2811 C   0  0  0  0  0  0  0  0  0  0  0  0
   20.3283    3.2253   10.8229 O   0  0  0  0  0  0  0  0  0  0  0  0
   21.1959    4.1574    9.0305 O   0  0  0  0  0  0  0  0  0  0  0  0
   20.3104    3.1367   11.7556 H   0  0  0  0  0  0  0  0  0  0  0  0
   23.9574    8.3291   15.9370 C   0  0  0  0  0  0  0  0  0  0  0  0
   23.3868    9.7028   15.7590 C   0  0  0  0  0  0  0  0  0  0  0  0
   22.9494   10.3030   16.7670 O   0  0  0  0  0  0  0  0  0  0  0  0
   23.3404   10.1763   14.6116 O   0  0  0  0  0  0  0  0  0  0  0  0
   23.0076    9.9031   17.6124 H   0  0  0  0  0  0  0  0  0  0  0  0
   23.3955    7.6774   17.2134 C   0  0  0  0  0  0  0  0  0  0  0  0
   24.5511    7.0854   17.9900 C   0  0  0  0  0  0  0  0  0  0  0  0
   25.2748    7.8803   18.8857 C   0  0  0  0  0  0  0  0  0  0  0  0
   26.3223    7.3168   19.6154 C   0  0  0  0  0  0  0  0  0  0  0  0
   26.6321    5.9636   19.4469 C   0  0  0  0  0  0  0  0  0  0  0  0
   27.6473    5.4124   20.1642 O   0  0  0  0  0  0  0  0  0  0  0  0
   25.8990    5.1628   18.5612 C   0  0  0  0  0  0  0  0  0  0  0  0
   24.8561    5.7291   17.8307 C   0  0  0  0  0  0  0  0  0  0  0  0
   28.1421    5.9414   20.7585 H   0  0  0  0  0  0  0  0  0  0  0  0
  1  2  2  0  0  0
  2  9  1  0  0  0
  2  3  1  0  0  0
  3  4  2  0  0  0
  3  6  1  0  0  0
  4 10  1  0  0  0
  4  5  1  0  0  0
  5  8  2  0  0  0
  6  7  2  0  0  0
  7  8  1  0  0  0
  8 12  1  0  0  0
 12 14  2  0  0  0
 12 13  1  0  0  0
  9 16  1  0  0  0
  9 10  1  0  0  0
 10 11  2  0  0  0
 16 17  1  0  0  0
 16 21  1  0  0  0
 17 19  2  0  0  0
 17 18  1  0  0  0
 21 22  1  0  0  0
 22 23  1  0  0  0
 22 28  2  0  0  0
 23 24  2  0  0  0
 24 25  1  0  0  0
 25 26  1  0  0  0
 25 27  2  0  0  0
 27 28  1  0  0  0
 13 15  1  0  0  0
 18 20  1  0  0  0
 26 29  1  0  0  0
M  END
> <minimizedAffinity>
-7.89954

$$$$
