3R16_5UN_A_1


 22 23  0  0  0  0  0  0  0  0999 V2000
   15.8264    1.9835   16.0735 C   0  0  0  0  0  0  0  0  0  0  0  0
   14.8828    2.9494   15.7791 C   0  0  0  0  0  0  0  0  0  0  0  0
   15.2341    4.0514   15.0304 C   0  0  0  0  0  0  0  0  0  0  0  0
   16.5273    4.1917   14.5622 C   0  0  0  0  0  0  0  0  0  0  0  0
   17.4840    3.2197   14.8489 C   0  0  0  0  0  0  0  0  0  0  0  0
   17.1335    2.1084   15.6103 C   0  0  0  0  0  0  0  0  0  0  0  0
   13.6934    0.5580   17.0071 N   0  0  0  0  0  0  0  0  0  0  0  0
   15.8739   -0.5941   16.4294 O   0  0  0  0  0  0  0  0  0  0  0  0
   15.3146    0.5948   17.0275 S   0  0  0  0  0  0  0  0  0  0  0  0
   15.8417    0.7416   18.3545 O   0  0  0  0  0  0  0  0  0  0  0  0
   13.3678    0.4529   16.0462 H   0  0  0  0  0  0  0  0  0  0  0  0
   13.3287    1.4273   17.3966 H   0  0  0  0  0  0  0  0  0  0  0  0
   16.7720    5.3735   13.7925 N   0  0  0  0  0  0  0  0  0  0  0  0
   16.7151    5.4942   12.3720 C   0  0  0  0  0  0  0  0  0  0  0  0
   16.4246    4.5616   11.6462 O   0  0  0  0  0  0  0  0  0  0  0  0
   17.0035    6.1875   14.2955 H   0  0  0  0  0  0  0  0  0  0  0  0
   17.0068    6.8380   11.7925 C   0  0  0  0  0  0  0  0  0  0  0  0
   15.9609    7.3331   10.8583 C   0  0  0  0  0  0  0  0  0  0  0  0
   14.6094    7.5170   11.1284 C   0  0  0  0  0  0  0  0  0  0  0  0
   13.8599    8.0145   10.0741 C   0  0  0  0  0  0  0  0  0  0  0  0
   14.5613    8.2470    8.8989 C   0  0  0  0  0  0  0  0  0  0  0  0
   16.1915    7.8222    9.2264 S   0  0  0  0  0  0  0  0  0  0  0  0
  6  1  2  0  0  0
  2  1  1  0  0  0
  1  9  1  0  0  0
  7  9  1  0  0  0
  9  8  2  0  0  0
 10  9  2  0  0  0
  3  2  2  0  0  0
  4  3  1  0  0  0
 13  4  1  0  0  0
  4  5  2  0  0  0
  5  6  1  0  0  0
 14 13  1  0  0  0
 17 14  1  0  0  0
 14 15  2  0  0  0
 17 18  1  0  0  0
 19 18  2  0  0  0
 18 22  1  0  0  0
 19 20  1  0  0  0
 20 21  2  0  0  0
 22 21  1  0  0  0
  7 11  1  0  0  0
  7 12  1  0  0  0
 13 16  1  0  0  0
M  END
> <minimizedAffinity>
-7.16039

$$$$
3R16_5UN_A_1


 22 23  0  0  0  0  0  0  0  0999 V2000
   15.5137    1.8034   15.8603 C   0  0  0  0  0  0  0  0  0  0  0  0
   16.5364    1.2025   15.1513 C   0  0  0  0  0  0  0  0  0  0  0  0
   17.0969    1.8461   14.0697 C   0  0  0  0  0  0  0  0  0  0  0  0
   16.6469    3.0984   13.6946 C   0  0  0  0  0  0  0  0  0  0  0  0
   15.6202    3.7148   14.4075 C   0  0  0  0  0  0  0  0  0  0  0  0
   15.0479    3.0642   15.4969 C   0  0  0  0  0  0  0  0  0  0  0  0
   15.6448   -0.4699   17.3663 N   0  0  0  0  0  0  0  0  0  0  0  0
   15.0215    1.7497   18.4153 O   0  0  0  0  0  0  0  0  0  0  0  0
   14.8438    0.9342   17.2374 S   0  0  0  0  0  0  0  0  0  0  0  0
   13.4394    0.7439   17.0094 O   0  0  0  0  0  0  0  0  0  0  0  0
   16.6346   -0.2832   17.5270 H   0  0  0  0  0  0  0  0  0  0  0  0
   15.5351   -1.0043   16.5044 H   0  0  0  0  0  0  0  0  0  0  0  0
   17.3078    3.6691   12.5604 N   0  0  0  0  0  0  0  0  0  0  0  0
   16.9907    3.4481   11.1870 C   0  0  0  0  0  0  0  0  0  0  0  0
   16.0742    2.7298   10.8334 O   0  0  0  0  0  0  0  0  0  0  0  0
   18.0591    4.2772   12.7473 H   0  0  0  0  0  0  0  0  0  0  0  0
   17.8233    4.1613   10.1746 C   0  0  0  0  0  0  0  0  0  0  0  0
   19.2867    3.9588   10.3448 C   0  0  0  0  0  0  0  0  0  0  0  0
   20.0116    2.8000   10.0894 C   0  0  0  0  0  0  0  0  0  0  0  0
   21.3757    2.8962   10.3155 C   0  0  0  0  0  0  0  0  0  0  0  0
   21.8206    4.1287   10.7739 C   0  0  0  0  0  0  0  0  0  0  0  0
   20.4297    5.1292   10.8730 S   0  0  0  0  0  0  0  0  0  0  0  0
  6  1  2  0  0  0
  2  1  1  0  0  0
  1  9  1  0  0  0
  7  9  1  0  0  0
  9  8  2  0  0  0
 10  9  2  0  0  0
  3  2  2  0  0  0
  4  3  1  0  0  0
 13  4  1  0  0  0
  4  5  2  0  0  0
  5  6  1  0  0  0
 14 13  1  0  0  0
 17 14  1  0  0  0
 14 15  2  0  0  0
 17 18  1  0  0  0
 19 18  2  0  0  0
 18 22  1  0  0  0
 19 20  1  0  0  0
 20 21  2  0  0  0
 22 21  1  0  0  0
  7 11  1  0  0  0
  7 12  1  0  0  0
 13 16  1  0  0  0
M  END
> <minimizedAffinity>
-7.02575

$$$$
3R16_5UN_A_1


 22 23  0  0  0  0  0  0  0  0999 V2000
   15.7439    1.9638   16.1885 C   0  0  0  0  0  0  0  0  0  0  0  0
   14.8971    2.8429   15.5403 C   0  0  0  0  0  0  0  0  0  0  0  0
   15.3763    3.6391   14.5231 C   0  0  0  0  0  0  0  0  0  0  0  0
   16.7019    3.5560   14.1393 C   0  0  0  0  0  0  0  0  0  0  0  0
   17.5617    2.6680   14.7831 C   0  0  0  0  0  0  0  0  0  0  0  0
   17.0818    1.8668   15.8152 C   0  0  0  0  0  0  0  0  0  0  0  0
   15.0343    1.8682   18.8229 N   0  0  0  0  0  0  0  0  0  0  0  0
   13.7431    0.5590   17.0809 O   0  0  0  0  0  0  0  0  0  0  0  0
   15.0706    0.9676   17.4748 S   0  0  0  0  0  0  0  0  0  0  0  0
   15.8943   -0.1991   17.6183 O   0  0  0  0  0  0  0  0  0  0  0  0
   14.4386    2.6823   18.6720 H   0  0  0  0  0  0  0  0  0  0  0  0
   15.9794    2.1761   19.0516 H   0  0  0  0  0  0  0  0  0  0  0  0
   17.0825    4.4274   13.0694 N   0  0  0  0  0  0  0  0  0  0  0  0
   17.5600    5.7665   13.1877 C   0  0  0  0  0  0  0  0  0  0  0  0
   17.7101    6.3161   14.2631 O   0  0  0  0  0  0  0  0  0  0  0  0
   17.0069    4.0650   12.1572 H   0  0  0  0  0  0  0  0  0  0  0  0
   17.9002    6.4805   11.9223 C   0  0  0  0  0  0  0  0  0  0  0  0
   16.7955    7.3195   11.3862 C   0  0  0  0  0  0  0  0  0  0  0  0
   15.4329    7.0466   11.4312 C   0  0  0  0  0  0  0  0  0  0  0  0
   14.6183    8.0180   10.8711 C   0  0  0  0  0  0  0  0  0  0  0  0
   15.2779    9.1164   10.3368 C   0  0  0  0  0  0  0  0  0  0  0  0
   16.9506    8.8444   10.6077 S   0  0  0  0  0  0  0  0  0  0  0  0
  6  1  2  0  0  0
  2  1  1  0  0  0
  1  9  1  0  0  0
  7  9  1  0  0  0
  9  8  2  0  0  0
 10  9  2  0  0  0
  3  2  2  0  0  0
  4  3  1  0  0  0
 13  4  1  0  0  0
  4  5  2  0  0  0
  5  6  1  0  0  0
 14 13  1  0  0  0
 17 14  1  0  0  0
 14 15  2  0  0  0
 17 18  1  0  0  0
 19 18  2  0  0  0
 18 22  1  0  0  0
 19 20  1  0  0  0
 20 21  2  0  0  0
 22 21  1  0  0  0
  7 11  1  0  0  0
  7 12  1  0  0  0
 13 16  1  0  0  0
M  END
> <minimizedAffinity>
-6.79164

$$$$
3R16_5UN_A_1


 22 23  0  0  0  0  0  0  0  0999 V2000
   15.9539    1.9900   16.0629 C   0  0  0  0  0  0  0  0  0  0  0  0
   15.0717    2.9947   15.7135 C   0  0  0  0  0  0  0  0  0  0  0  0
   15.5154    4.0833   14.9950 C   0  0  0  0  0  0  0  0  0  0  0  0
   16.8408    4.1715   14.6117 C   0  0  0  0  0  0  0  0  0  0  0  0
   17.7363    3.1601   14.9542 C   0  0  0  0  0  0  0  0  0  0  0  0
   17.2922    2.0621   15.6854 C   0  0  0  0  0  0  0  0  0  0  0  0
   13.7067    0.6786   16.8895 N   0  0  0  0  0  0  0  0  0  0  0  0
   15.8388   -0.5905   16.3806 O   0  0  0  0  0  0  0  0  0  0  0  0
   15.3251    0.6209   16.9744 S   0  0  0  0  0  0  0  0  0  0  0  0
   15.8059    0.7195   18.3233 O   0  0  0  0  0  0  0  0  0  0  0  0
   13.4145    0.6052   15.9150 H   0  0  0  0  0  0  0  0  0  0  0  0
   13.3771    1.5624   17.2777 H   0  0  0  0  0  0  0  0  0  0  0  0
   17.1829    5.3443   13.8658 N   0  0  0  0  0  0  0  0  0  0  0  0
   16.9380    5.5760   12.4795 C   0  0  0  0  0  0  0  0  0  0  0  0
   16.3743    4.7645   11.7690 O   0  0  0  0  0  0  0  0  0  0  0  0
   17.6339    6.0659   14.3607 H   0  0  0  0  0  0  0  0  0  0  0  0
   17.3841    6.8858   11.9207 C   0  0  0  0  0  0  0  0  0  0  0  0
   18.7629    7.2748   12.3200 C   0  0  0  0  0  0  0  0  0  0  0  0
   19.1323    8.3102   13.1714 C   0  0  0  0  0  0  0  0  0  0  0  0
   20.4953    8.4368   13.3887 C   0  0  0  0  0  0  0  0  0  0  0  0
   21.2954    7.5214   12.7186 C   0  0  0  0  0  0  0  0  0  0  0  0
   20.2248    6.5089   11.8388 S   0  0  0  0  0  0  0  0  0  0  0  0
  6  1  2  0  0  0
  2  1  1  0  0  0
  1  9  1  0  0  0
  7  9  1  0  0  0
  9  8  2  0  0  0
 10  9  2  0  0  0
  3  2  2  0  0  0
  4  3  1  0  0  0
 13  4  1  0  0  0
  4  5  2  0  0  0
  5  6  1  0  0  0
 14 13  1  0  0  0
 17 14  1  0  0  0
 14 15  2  0  0  0
 17 18  1  0  0  0
 19 18  2  0  0  0
 18 22  1  0  0  0
 19 20  1  0  0  0
 20 21  2  0  0  0
 22 21  1  0  0  0
  7 11  1  0  0  0
  7 12  1  0  0  0
 13 16  1  0  0  0
M  END
> <minimizedAffinity>
-6.69563

$$$$
3R16_5UN_A_1


 22 23  0  0  0  0  0  0  0  0999 V2000
   15.8648    1.4896   15.7719 C   0  0  0  0  0  0  0  0  0  0  0  0
   15.4007    2.7622   15.4980 C   0  0  0  0  0  0  0  0  0  0  0  0
   15.9053    3.4645   14.4254 C   0  0  0  0  0  0  0  0  0  0  0  0
   16.8695    2.8972   13.6130 C   0  0  0  0  0  0  0  0  0  0  0  0
   17.3389    1.6120   13.8778 C   0  0  0  0  0  0  0  0  0  0  0  0
   16.8354    0.9025   14.9644 C   0  0  0  0  0  0  0  0  0  0  0  0
   13.5623    0.7728   17.0517 N   0  0  0  0  0  0  0  0  0  0  0  0
   15.5933   -0.7404   17.0858 O   0  0  0  0  0  0  0  0  0  0  0  0
   15.1755    0.6399   17.1515 S   0  0  0  0  0  0  0  0  0  0  0  0
   15.6997    1.2294   18.3507 O   0  0  0  0  0  0  0  0  0  0  0  0
   13.2386    0.3410   16.1861 H   0  0  0  0  0  0  0  0  0  0  0  0
   13.3013    1.7588   17.0581 H   0  0  0  0  0  0  0  0  0  0  0  0
   17.3132    3.7192   12.5284 N   0  0  0  0  0  0  0  0  0  0  0  0
   16.9322    3.6039   11.1584 C   0  0  0  0  0  0  0  0  0  0  0  0
   16.1440    2.7639   10.7658 O   0  0  0  0  0  0  0  0  0  0  0  0
   17.9471    4.4389   12.7509 H   0  0  0  0  0  0  0  0  0  0  0  0
   17.5266    4.5845   10.2034 C   0  0  0  0  0  0  0  0  0  0  0  0
   17.0594    5.9821   10.4035 C   0  0  0  0  0  0  0  0  0  0  0  0
   15.7514    6.4133   10.5954 C   0  0  0  0  0  0  0  0  0  0  0  0
   15.6020    7.7788   10.7794 C   0  0  0  0  0  0  0  0  0  0  0  0
   16.7747    8.5203   10.7350 C   0  0  0  0  0  0  0  0  0  0  0  0
   18.0409    7.3918   10.4726 S   0  0  0  0  0  0  0  0  0  0  0  0
  6  1  2  0  0  0
  2  1  1  0  0  0
  1  9  1  0  0  0
  7  9  1  0  0  0
  9  8  2  0  0  0
 10  9  2  0  0  0
  3  2  2  0  0  0
  4  3  1  0  0  0
 13  4  1  0  0  0
  4  5  2  0  0  0
  5  6  1  0  0  0
 14 13  1  0  0  0
 17 14  1  0  0  0
 14 15  2  0  0  0
 17 18  1  0  0  0
 19 18  2  0  0  0
 18 22  1  0  0  0
 19 20  1  0  0  0
 20 21  2  0  0  0
 22 21  1  0  0  0
  7 11  1  0  0  0
  7 12  1  0  0  0
 13 16  1  0  0  0
M  END
> <minimizedAffinity>
-6.61163

$$$$
3R16_5UN_A_1


 22 23  0  0  0  0  0  0  0  0999 V2000
   15.7487    1.9744   16.2016 C   0  0  0  0  0  0  0  0  0  0  0  0
   17.0878    1.7690   15.9288 C   0  0  0  0  0  0  0  0  0  0  0  0
   17.7156    2.5142   14.9547 C   0  0  0  0  0  0  0  0  0  0  0  0
   17.0132    3.4765   14.2532 C   0  0  0  0  0  0  0  0  0  0  0  0
   15.6641    3.6949   14.5258 C   0  0  0  0  0  0  0  0  0  0  0  0
   15.0257    2.9393   15.5051 C   0  0  0  0  0  0  0  0  0  0  0  0
   14.9425    1.8991   18.8088 N   0  0  0  0  0  0  0  0  0  0  0  0
   13.6828    0.6206   17.0215 O   0  0  0  0  0  0  0  0  0  0  0  0
   15.0049    0.9965   17.4630 S   0  0  0  0  0  0  0  0  0  0  0  0
   15.7938   -0.1901   17.6362 O   0  0  0  0  0  0  0  0  0  0  0  0
   14.3730    2.7275   18.6364 H   0  0  0  0  0  0  0  0  0  0  0  0
   15.8861    2.1837   19.0714 H   0  0  0  0  0  0  0  0  0  0  0  0
   17.7716    4.1896   13.2707 N   0  0  0  0  0  0  0  0  0  0  0  0
   18.3314    5.4948   13.4063 C   0  0  0  0  0  0  0  0  0  0  0  0
   18.2242    6.1512   14.4254 O   0  0  0  0  0  0  0  0  0  0  0  0
   17.9226    3.7318   12.4123 H   0  0  0  0  0  0  0  0  0  0  0  0
   19.0910    6.0324   12.2397 C   0  0  0  0  0  0  0  0  0  0  0  0
   19.8449    4.9989   11.4814 C   0  0  0  0  0  0  0  0  0  0  0  0
   21.0387    4.3883   11.8493 C   0  0  0  0  0  0  0  0  0  0  0  0
   21.5129    3.4371   10.9598 C   0  0  0  0  0  0  0  0  0  0  0  0
   20.7363    3.2383    9.8264 C   0  0  0  0  0  0  0  0  0  0  0  0
   19.3939    4.2967    9.9784 S   0  0  0  0  0  0  0  0  0  0  0  0
  6  1  2  0  0  0
  2  1  1  0  0  0
  1  9  1  0  0  0
  7  9  1  0  0  0
  9  8  2  0  0  0
 10  9  2  0  0  0
  3  2  2  0  0  0
  4  3  1  0  0  0
 13  4  1  0  0  0
  4  5  2  0  0  0
  5  6  1  0  0  0
 14 13  1  0  0  0
 17 14  1  0  0  0
 14 15  2  0  0  0
 17 18  1  0  0  0
 19 18  2  0  0  0
 18 22  1  0  0  0
 19 20  1  0  0  0
 20 21  2  0  0  0
 22 21  1  0  0  0
  7 11  1  0  0  0
  7 12  1  0  0  0
 13 16  1  0  0  0
M  END
> <minimizedAffinity>
-6.50322

$$$$
3R16_5UN_A_1


 22 23  0  0  0  0  0  0  0  0999 V2000
   16.0596    1.1821   15.7110 C   0  0  0  0  0  0  0  0  0  0  0  0
   16.1512    2.5481   15.5230 C   0  0  0  0  0  0  0  0  0  0  0  0
   16.8172    3.0505   14.4265 C   0  0  0  0  0  0  0  0  0  0  0  0
   17.3878    2.1923   13.5048 C   0  0  0  0  0  0  0  0  0  0  0  0
   17.2951    0.8132   13.6829 C   0  0  0  0  0  0  0  0  0  0  0  0
   16.6282    0.3029   14.7930 C   0  0  0  0  0  0  0  0  0  0  0  0
   13.6059    0.8195   16.8514 N   0  0  0  0  0  0  0  0  0  0  0  0
   15.5024   -0.7963   17.3073 O   0  0  0  0  0  0  0  0  0  0  0  0
   15.1890    0.6013   17.1270 S   0  0  0  0  0  0  0  0  0  0  0  0
   15.6512    1.3344   18.2713 O   0  0  0  0  0  0  0  0  0  0  0  0
   13.3260    0.2807   16.0318 H   0  0  0  0  0  0  0  0  0  0  0  0
   13.4227    1.8093   16.6864 H   0  0  0  0  0  0  0  0  0  0  0  0
   18.0479    2.8293   12.4061 N   0  0  0  0  0  0  0  0  0  0  0  0
   17.4492    3.2646   11.1864 C   0  0  0  0  0  0  0  0  0  0  0  0
   16.2597    3.1426   10.9603 O   0  0  0  0  0  0  0  0  0  0  0  0
   19.0156    2.9831   12.5019 H   0  0  0  0  0  0  0  0  0  0  0  0
   18.3448    3.9110   10.1831 C   0  0  0  0  0  0  0  0  0  0  0  0
   19.5208    4.6000   10.7781 C   0  0  0  0  0  0  0  0  0  0  0  0
   19.5286    5.8053   11.4714 C   0  0  0  0  0  0  0  0  0  0  0  0
   20.7694    6.2080   11.9394 C   0  0  0  0  0  0  0  0  0  0  0  0
   21.8260    5.3587   11.6405 C   0  0  0  0  0  0  0  0  0  0  0  0
   21.1477    4.0447   10.7694 S   0  0  0  0  0  0  0  0  0  0  0  0
  6  1  2  0  0  0
  2  1  1  0  0  0
  1  9  1  0  0  0
  7  9  1  0  0  0
  9  8  2  0  0  0
 10  9  2  0  0  0
  3  2  2  0  0  0
  4  3  1  0  0  0
 13  4  1  0  0  0
  4  5  2  0  0  0
  5  6  1  0  0  0
 14 13  1  0  0  0
 17 14  1  0  0  0
 14 15  2  0  0  0
 17 18  1  0  0  0
 19 18  2  0  0  0
 18 22  1  0  0  0
 19 20  1  0  0  0
 20 21  2  0  0  0
 22 21  1  0  0  0
  7 11  1  0  0  0
  7 12  1  0  0  0
 13 16  1  0  0  0
M  END
> <minimizedAffinity>
-6.36028

$$$$
3R16_5UN_A_1


 22 23  0  0  0  0  0  0  0  0999 V2000
   15.8270    2.0836   16.2958 C   0  0  0  0  0  0  0  0  0  0  0  0
   15.0650    3.0756   15.7084 C   0  0  0  0  0  0  0  0  0  0  0  0
   15.6226    3.9015   14.7570 C   0  0  0  0  0  0  0  0  0  0  0  0
   16.9419    3.7363   14.3782 C   0  0  0  0  0  0  0  0  0  0  0  0
   17.7162    2.7345   14.9606 C   0  0  0  0  0  0  0  0  0  0  0  0
   17.1573    1.9026   15.9266 C   0  0  0  0  0  0  0  0  0  0  0  0
   13.5853    0.6641   16.9384 N   0  0  0  0  0  0  0  0  0  0  0  0
   15.8766   -0.1181   17.6826 O   0  0  0  0  0  0  0  0  0  0  0  0
   15.0558    1.0553   17.4993 S   0  0  0  0  0  0  0  0  0  0  0  0
   14.9942    1.7795   18.7370 O   0  0  0  0  0  0  0  0  0  0  0  0
   13.6810    0.1529   16.0609 H   0  0  0  0  0  0  0  0  0  0  0  0
   13.0449    1.5144   16.7792 H   0  0  0  0  0  0  0  0  0  0  0  0
   17.4081    4.6490   13.3790 N   0  0  0  0  0  0  0  0  0  0  0  0
   17.9225    5.9621   13.5954 C   0  0  0  0  0  0  0  0  0  0  0  0
   18.0326    6.4480   14.7057 O   0  0  0  0  0  0  0  0  0  0  0  0
   17.3698    4.3386   12.4455 H   0  0  0  0  0  0  0  0  0  0  0  0
   18.3538    6.7295   12.3905 C   0  0  0  0  0  0  0  0  0  0  0  0
   19.8138    6.6552   12.1174 C   0  0  0  0  0  0  0  0  0  0  0  0
   20.6672    5.5906   12.3849 C   0  0  0  0  0  0  0  0  0  0  0  0
   21.9862    5.7826   12.0049 C   0  0  0  0  0  0  0  0  0  0  0  0
   22.2683    7.0111   11.4233 C   0  0  0  0  0  0  0  0  0  0  0  0
   20.7817    7.8674   11.3765 S   0  0  0  0  0  0  0  0  0  0  0  0
  6  1  2  0  0  0
  2  1  1  0  0  0
  1  9  1  0  0  0
  7  9  1  0  0  0
  9  8  2  0  0  0
 10  9  2  0  0  0
  3  2  2  0  0  0
  4  3  1  0  0  0
 13  4  1  0  0  0
  4  5  2  0  0  0
  5  6  1  0  0  0
 14 13  1  0  0  0
 17 14  1  0  0  0
 14 15  2  0  0  0
 17 18  1  0  0  0
 19 18  2  0  0  0
 18 22  1  0  0  0
 19 20  1  0  0  0
 20 21  2  0  0  0
 22 21  1  0  0  0
  7 11  1  0  0  0
  7 12  1  0  0  0
 13 16  1  0  0  0
M  END
> <minimizedAffinity>
-6.29856

$$$$
3R16_5UN_A_1


 22 23  0  0  0  0  0  0  0  0999 V2000
   17.2325    2.8314   12.4839 C   0  0  0  0  0  0  0  0  0  0  0  0
   17.7898    2.7790   13.7475 C   0  0  0  0  0  0  0  0  0  0  0  0
   18.0762    3.9446   14.4240 C   0  0  0  0  0  0  0  0  0  0  0  0
   17.7989    5.1704   13.8478 C   0  0  0  0  0  0  0  0  0  0  0  0
   17.2312    5.2329   12.5766 C   0  0  0  0  0  0  0  0  0  0  0  0
   16.9465    4.0570   11.8882 C   0  0  0  0  0  0  0  0  0  0  0  0
   15.4043    1.4314   11.0174 N   0  0  0  0  0  0  0  0  0  0  0  0
   17.8892    1.0932   10.6618 O   0  0  0  0  0  0  0  0  0  0  0  0
   16.8821    1.3079   11.6736 S   0  0  0  0  0  0  0  0  0  0  0  0
   16.9634    0.2532   12.6438 O   0  0  0  0  0  0  0  0  0  0  0  0
   15.3968    2.1914   10.3372 H   0  0  0  0  0  0  0  0  0  0  0  0
   14.7218    1.6245   11.7504 H   0  0  0  0  0  0  0  0  0  0  0  0
   18.1350    6.3094   14.6468 N   0  0  0  0  0  0  0  0  0  0  0  0
   19.2691    7.1601   14.4866 C   0  0  0  0  0  0  0  0  0  0  0  0
   20.0901    6.9982   13.6031 O   0  0  0  0  0  0  0  0  0  0  0  0
   17.5196    6.5286   15.3834 H   0  0  0  0  0  0  0  0  0  0  0  0
   19.4069    8.2957   15.4449 C   0  0  0  0  0  0  0  0  0  0  0  0
   19.9705    9.5318   14.8400 C   0  0  0  0  0  0  0  0  0  0  0  0
   19.2873   10.5006   14.1132 C   0  0  0  0  0  0  0  0  0  0  0  0
   20.0595   11.5676   13.6819 C   0  0  0  0  0  0  0  0  0  0  0  0
   21.4031   11.5115   14.0264 C   0  0  0  0  0  0  0  0  0  0  0  0
   21.6029   10.0639   14.9264 S   0  0  0  0  0  0  0  0  0  0  0  0
  6  1  2  0  0  0
  2  1  1  0  0  0
  1  9  1  0  0  0
  7  9  1  0  0  0
  9  8  2  0  0  0
 10  9  2  0  0  0
  3  2  2  0  0  0
  4  3  1  0  0  0
 13  4  1  0  0  0
  4  5  2  0  0  0
  5  6  1  0  0  0
 14 13  1  0  0  0
 17 14  1  0  0  0
 14 15  2  0  0  0
 17 18  1  0  0  0
 19 18  2  0  0  0
 18 22  1  0  0  0
 19 20  1  0  0  0
 20 21  2  0  0  0
 22 21  1  0  0  0
  7 11  1  0  0  0
  7 12  1  0  0  0
 13 16  1  0  0  0
M  END
> <minimizedAffinity>
-6.05560

$$$$
3R16_5UN_A_1


 22 23  0  0  0  0  0  0  0  0999 V2000
   18.3849    1.3126   11.4231 C   0  0  0  0  0  0  0  0  0  0  0  0
   17.9373    2.2906   12.2909 C   0  0  0  0  0  0  0  0  0  0  0  0
   18.7602    3.3429   12.6281 C   0  0  0  0  0  0  0  0  0  0  0  0
   20.0321    3.4314   12.0933 C   0  0  0  0  0  0  0  0  0  0  0  0
   20.4897    2.4532   11.2125 C   0  0  0  0  0  0  0  0  0  0  0  0
   19.6627    1.3856   10.8749 C   0  0  0  0  0  0  0  0  0  0  0  0
   15.8053    0.6367   10.8385 N   0  0  0  0  0  0  0  0  0  0  0  0
   17.7448   -0.6225    9.8049 O   0  0  0  0  0  0  0  0  0  0  0  0
   17.2840   -0.0026   11.0245 S   0  0  0  0  0  0  0  0  0  0  0  0
   17.3332   -0.9677   12.0859 O   0  0  0  0  0  0  0  0  0  0  0  0
   15.8211    1.3138   10.0759 H   0  0  0  0  0  0  0  0  0  0  0  0
   15.5254    1.1029   11.7015 H   0  0  0  0  0  0  0  0  0  0  0  0
   20.7916    4.5699   12.5125 N   0  0  0  0  0  0  0  0  0  0  0  0
   20.7599    5.8757   11.9387 C   0  0  0  0  0  0  0  0  0  0  0  0
   20.0378    6.1626   11.0022 O   0  0  0  0  0  0  0  0  0  0  0  0
   21.3990    4.4382   13.2761 H   0  0  0  0  0  0  0  0  0  0  0  0
   21.6437    6.9092   12.5533 C   0  0  0  0  0  0  0  0  0  0  0  0
   20.9225    7.8914   13.4058 C   0  0  0  0  0  0  0  0  0  0  0  0
   19.9034    7.6290   14.3146 C   0  0  0  0  0  0  0  0  0  0  0  0
   19.4218    8.7357   14.9960 C   0  0  0  0  0  0  0  0  0  0  0  0
   20.0163    9.9462   14.6667 C   0  0  0  0  0  0  0  0  0  0  0  0
   21.2063    9.5851   13.4840 S   0  0  0  0  0  0  0  0  0  0  0  0
  6  1  2  0  0  0
  2  1  1  0  0  0
  1  9  1  0  0  0
  7  9  1  0  0  0
  9  8  2  0  0  0
 10  9  2  0  0  0
  3  2  2  0  0  0
  4  3  1  0  0  0
 13  4  1  0  0  0
  4  5  2  0  0  0
  5  6  1  0  0  0
 14 13  1  0  0  0
 17 14  1  0  0  0
 14 15  2  0  0  0
 17 18  1  0  0  0
 19 18  2  0  0  0
 18 22  1  0  0  0
 19 20  1  0  0  0
 20 21  2  0  0  0
 22 21  1  0  0  0
  7 11  1  0  0  0
  7 12  1  0  0  0
 13 16  1  0  0  0
M  END
> <minimizedAffinity>
-6.02542

$$$$
