2HZY_DHJ_A_1102


 18 17  0  0  0  0  0  0  0  0999 V2000
   45.7302   42.1373   58.9354 P   0  0  0  0  0  0  0  0  0  0  0  0
   45.3899   42.8511   57.6471 O   0  0  0  0  0  0  0  0  0  0  0  0
   45.3982   42.8161   60.2222 O   0  0  0  0  0  0  0  0  0  0  0  0
   44.4448   42.9914   60.2587 H   0  0  0  0  0  0  0  0  0  0  0  0
   45.0590   40.5197   58.7802 C   0  0  0  0  0  0  0  0  0  0  0  0
   44.8979   39.8629   57.6244 C   0  0  0  0  0  0  0  0  0  0  0  0
   44.6855   37.5620   58.5321 O   0  0  0  0  0  0  0  0  0  0  0  0
   45.0084   38.3546   57.5598 C   0  0  0  0  0  0  0  0  0  0  0  0
   45.4179   37.8936   56.5001 O   0  0  0  0  0  0  0  0  0  0  0  0
   45.6510   38.4686   55.7980 H   0  0  0  0  0  0  0  0  0  0  0  0
   47.5280   41.8404   58.9362 C   0  0  0  0  0  0  0  0  0  0  0  0
   48.2204   42.9812   59.6087 C   0  0  0  0  0  0  0  0  0  0  0  0
   48.4202   44.0847   59.0883 O   0  0  0  0  0  0  0  0  0  0  0  0
   48.7046   42.7518   61.0488 C   0  0  0  0  0  0  0  0  0  0  0  0
   47.9174   43.5762   62.0705 C   0  0  0  0  0  0  0  0  0  0  0  0
   47.2154   42.9665   62.9186 O   0  0  0  0  0  0  0  0  0  0  0  0
   48.0051   44.8359   62.0129 O   0  0  0  0  0  0  0  0  0  0  0  0
   48.5433   45.2388   61.3602 H   0  0  0  0  0  0  0  0  0  0  0  0
  7  8  2  0  0  0
  8  6  1  0  0  0
  8  9  1  0  0  0
  6  5  1  0  0  0
  5  1  1  0  0  0
  1  2  2  0  0  0
  1 11  1  0  0  0
  1  3  1  0  0  0
 11 12  1  0  0  0
 12 13  2  0  0  0
 12 14  1  0  0  0
 14 15  1  0  0  0
 15 16  2  0  0  0
 15 17  1  0  0  0
  9 10  1  0  0  0
  3  4  1  0  0  0
 17 18  1  0  0  0
M  END
> <minimizedAffinity>
-7.85334

$$$$
2HZY_DHJ_A_1102


 18 17  0  0  0  0  0  0  0  0999 V2000
   46.0929   41.8786   58.4733 P   0  0  0  0  0  0  0  0  0  0  0  0
   45.4923   43.1951   58.0359 O   0  0  0  0  0  0  0  0  0  0  0  0
   47.0104   41.1777   57.5279 O   0  0  0  0  0  0  0  0  0  0  0  0
   47.7604   41.7555   57.3170 H   0  0  0  0  0  0  0  0  0  0  0  0
   46.7830   42.1704   60.0639 C   0  0  0  0  0  0  0  0  0  0  0  0
   47.4893   43.2550   60.4072 C   0  0  0  0  0  0  0  0  0  0  0  0
   47.3701   42.9274   62.8651 O   0  0  0  0  0  0  0  0  0  0  0  0
   47.5826   43.7033   61.8499 C   0  0  0  0  0  0  0  0  0  0  0  0
   47.8963   44.8754   62.0262 O   0  0  0  0  0  0  0  0  0  0  0  0
   48.0496   45.4351   61.2906 H   0  0  0  0  0  0  0  0  0  0  0  0
   44.7144   40.7396   58.8235 C   0  0  0  0  0  0  0  0  0  0  0  0
   45.0116   39.4012   58.2289 C   0  0  0  0  0  0  0  0  0  0  0  0
   45.8793   38.6260   58.6466 O   0  0  0  0  0  0  0  0  0  0  0  0
   44.1659   38.9721   57.0200 C   0  0  0  0  0  0  0  0  0  0  0  0
   44.8887   39.1966   55.6895 C   0  0  0  0  0  0  0  0  0  0  0  0
   44.1957   39.3620   54.6521 O   0  0  0  0  0  0  0  0  0  0  0  0
   46.1528   39.2013   55.6924 O   0  0  0  0  0  0  0  0  0  0  0  0
   46.6199   39.0731   56.4945 H   0  0  0  0  0  0  0  0  0  0  0  0
  7  8  2  0  0  0
  8  6  1  0  0  0
  8  9  1  0  0  0
  6  5  1  0  0  0
  5  1  1  0  0  0
  1  2  2  0  0  0
  1 11  1  0  0  0
  1  3  1  0  0  0
 11 12  1  0  0  0
 12 13  2  0  0  0
 12 14  1  0  0  0
 14 15  1  0  0  0
 15 16  2  0  0  0
 15 17  1  0  0  0
  9 10  1  0  0  0
  3  4  1  0  0  0
 17 18  1  0  0  0
M  END
> <minimizedAffinity>
-7.40395

$$$$
2HZY_DHJ_A_1102


 18 17  0  0  0  0  0  0  0  0999 V2000
   45.0140   40.8325   58.7076 P   0  0  0  0  0  0  0  0  0  0  0  0
   44.4232   41.7023   57.6216 O   0  0  0  0  0  0  0  0  0  0  0  0
   44.3567   40.8399   60.0473 O   0  0  0  0  0  0  0  0  0  0  0  0
   43.4324   40.5602   59.9555 H   0  0  0  0  0  0  0  0  0  0  0  0
   45.1890   39.2326   57.9999 C   0  0  0  0  0  0  0  0  0  0  0  0
   44.5714   38.8131   56.8883 C   0  0  0  0  0  0  0  0  0  0  0  0
   46.3695   39.3489   55.2626 O   0  0  0  0  0  0  0  0  0  0  0  0
   45.1148   39.1511   55.5166 C   0  0  0  0  0  0  0  0  0  0  0  0
   44.2866   39.2169   54.6149 O   0  0  0  0  0  0  0  0  0  0  0  0
   43.3795   39.0735   54.8006 H   0  0  0  0  0  0  0  0  0  0  0  0
   46.7386   41.3656   58.9557 C   0  0  0  0  0  0  0  0  0  0  0  0
   46.7745   42.4953   59.9333 C   0  0  0  0  0  0  0  0  0  0  0  0
   45.8694   43.3245   60.0796 O   0  0  0  0  0  0  0  0  0  0  0  0
   48.0276   42.6152   60.8145 C   0  0  0  0  0  0  0  0  0  0  0  0
   47.7933   43.4853   62.0518 C   0  0  0  0  0  0  0  0  0  0  0  0
   47.4566   42.9213   63.1254 O   0  0  0  0  0  0  0  0  0  0  0  0
   47.9447   44.7351   61.9377 O   0  0  0  0  0  0  0  0  0  0  0  0
   48.1967   45.1032   61.1137 H   0  0  0  0  0  0  0  0  0  0  0  0
  7  8  2  0  0  0
  8  6  1  0  0  0
  8  9  1  0  0  0
  6  5  1  0  0  0
  5  1  1  0  0  0
  1  2  2  0  0  0
  1 11  1  0  0  0
  1  3  1  0  0  0
 11 12  1  0  0  0
 12 13  2  0  0  0
 12 14  1  0  0  0
 14 15  1  0  0  0
 15 16  2  0  0  0
 15 17  1  0  0  0
  9 10  1  0  0  0
  3  4  1  0  0  0
 17 18  1  0  0  0
M  END
> <minimizedAffinity>
-7.25296

$$$$
2HZY_DHJ_A_1102


 18 17  0  0  0  0  0  0  0  0999 V2000
   46.2967   42.4023   58.9726 P   0  0  0  0  0  0  0  0  0  0  0  0
   45.6144   41.7888   60.1739 O   0  0  0  0  0  0  0  0  0  0  0  0
   45.4516   43.1325   57.9829 O   0  0  0  0  0  0  0  0  0  0  0  0
   44.9892   43.8604   58.4272 H   0  0  0  0  0  0  0  0  0  0  0  0
   47.6363   43.3456   59.6107 C   0  0  0  0  0  0  0  0  0  0  0  0
   48.2846   43.0835   60.7528 C   0  0  0  0  0  0  0  0  0  0  0  0
   47.4372   43.0340   63.0857 O   0  0  0  0  0  0  0  0  0  0  0  0
   47.8495   43.7096   62.0604 C   0  0  0  0  0  0  0  0  0  0  0  0
   47.9214   44.9322   62.1176 O   0  0  0  0  0  0  0  0  0  0  0  0
   48.2199   45.4193   61.3749 H   0  0  0  0  0  0  0  0  0  0  0  0
   47.1312   41.0558   58.0724 C   0  0  0  0  0  0  0  0  0  0  0  0
   46.1066   40.1635   57.4501 C   0  0  0  0  0  0  0  0  0  0  0  0
   46.0595   39.8829   56.2471 O   0  0  0  0  0  0  0  0  0  0  0  0
   45.0503   39.5560   58.3861 C   0  0  0  0  0  0  0  0  0  0  0  0
   44.5721   38.1800   57.9160 C   0  0  0  0  0  0  0  0  0  0  0  0
   44.7223   37.1978   58.6883 O   0  0  0  0  0  0  0  0  0  0  0  0
   44.0504   38.0918   56.7680 O   0  0  0  0  0  0  0  0  0  0  0  0
   43.9626   38.8561   56.2332 H   0  0  0  0  0  0  0  0  0  0  0  0
  7  8  2  0  0  0
  8  6  1  0  0  0
  8  9  1  0  0  0
  6  5  1  0  0  0
  5  1  1  0  0  0
  1  2  2  0  0  0
  1 11  1  0  0  0
  1  3  1  0  0  0
 11 12  1  0  0  0
 12 13  2  0  0  0
 12 14  1  0  0  0
 14 15  1  0  0  0
 15 16  2  0  0  0
 15 17  1  0  0  0
  9 10  1  0  0  0
  3  4  1  0  0  0
 17 18  1  0  0  0
M  END
> <minimizedAffinity>
-6.79425

$$$$
2HZY_DHJ_A_1102


 18 17  0  0  0  0  0  0  0  0999 V2000
   45.4025   41.5105   58.7713 P   0  0  0  0  0  0  0  0  0  0  0  0
   45.4386   42.8546   58.0806 O   0  0  0  0  0  0  0  0  0  0  0  0
   44.6521   41.4023   60.0567 O   0  0  0  0  0  0  0  0  0  0  0  0
   43.7261   41.6525   59.9125 H   0  0  0  0  0  0  0  0  0  0  0  0
   44.9021   40.3537   57.5455 C   0  0  0  0  0  0  0  0  0  0  0  0
   43.6661   40.2578   57.0394 C   0  0  0  0  0  0  0  0  0  0  0  0
   42.3921   41.9316   55.7208 O   0  0  0  0  0  0  0  0  0  0  0  0
   42.7940   41.4830   56.8676 C   0  0  0  0  0  0  0  0  0  0  0  0
   42.4561   42.0479   57.9020 O   0  0  0  0  0  0  0  0  0  0  0  0
   42.7479   41.7219   58.7306 H   0  0  0  0  0  0  0  0  0  0  0  0
   47.1254   41.0279   59.1162 C   0  0  0  0  0  0  0  0  0  0  0  0
   47.9370   42.2500   59.4005 C   0  0  0  0  0  0  0  0  0  0  0  0
   48.3211   43.0517   58.5414 O   0  0  0  0  0  0  0  0  0  0  0  0
   48.3045   42.5170   60.8684 C   0  0  0  0  0  0  0  0  0  0  0  0
   47.5402   43.7051   61.4575 C   0  0  0  0  0  0  0  0  0  0  0  0
   48.1373   44.4575   62.2706 O   0  0  0  0  0  0  0  0  0  0  0  0
   46.3388   43.8747   61.1028 O   0  0  0  0  0  0  0  0  0  0  0  0
   45.9424   43.2836   60.4933 H   0  0  0  0  0  0  0  0  0  0  0  0
  7  8  2  0  0  0
  8  6  1  0  0  0
  8  9  1  0  0  0
  6  5  1  0  0  0
  5  1  1  0  0  0
  1  2  2  0  0  0
  1 11  1  0  0  0
  1  3  1  0  0  0
 11 12  1  0  0  0
 12 13  2  0  0  0
 12 14  1  0  0  0
 14 15  1  0  0  0
 15 16  2  0  0  0
 15 17  1  0  0  0
  9 10  1  0  0  0
  3  4  1  0  0  0
 17 18  1  0  0  0
M  END
> <minimizedAffinity>
-6.62502

$$$$
2HZY_DHJ_A_1102


 18 17  0  0  0  0  0  0  0  0999 V2000
   45.1147   42.1213   58.8274 P   0  0  0  0  0  0  0  0  0  0  0  0
   43.8723   42.6877   59.4760 O   0  0  0  0  0  0  0  0  0  0  0  0
   45.6890   42.8487   57.6578 O   0  0  0  0  0  0  0  0  0  0  0  0
   45.9149   43.7550   57.9198 H   0  0  0  0  0  0  0  0  0  0  0  0
   46.2565   41.8455   60.1356 C   0  0  0  0  0  0  0  0  0  0  0  0
   47.5886   41.8255   60.0006 C   0  0  0  0  0  0  0  0  0  0  0  0
   48.3414   44.0527   59.2030 O   0  0  0  0  0  0  0  0  0  0  0  0
   48.4019   43.0998   60.0782 C   0  0  0  0  0  0  0  0  0  0  0  0
   49.1391   43.2048   61.0523 O   0  0  0  0  0  0  0  0  0  0  0  0
   49.1815   42.5144   61.6843 H   0  0  0  0  0  0  0  0  0  0  0  0
   44.7158   40.4349   58.2645 C   0  0  0  0  0  0  0  0  0  0  0  0
   43.8860   40.5077   57.0238 C   0  0  0  0  0  0  0  0  0  0  0  0
   43.1661   41.4648   56.7174 O   0  0  0  0  0  0  0  0  0  0  0  0
   43.9494   39.3038   56.0710 C   0  0  0  0  0  0  0  0  0  0  0  0
   45.3617   38.7261   55.9493 C   0  0  0  0  0  0  0  0  0  0  0  0
   46.2223   39.3794   55.3039 O   0  0  0  0  0  0  0  0  0  0  0  0
   45.5990   37.6136   56.5005 O   0  0  0  0  0  0  0  0  0  0  0  0
   44.9205   37.1690   56.9696 H   0  0  0  0  0  0  0  0  0  0  0  0
  7  8  2  0  0  0
  8  6  1  0  0  0
  8  9  1  0  0  0
  6  5  1  0  0  0
  5  1  1  0  0  0
  1  2  2  0  0  0
  1 11  1  0  0  0
  1  3  1  0  0  0
 11 12  1  0  0  0
 12 13  2  0  0  0
 12 14  1  0  0  0
 14 15  1  0  0  0
 15 16  2  0  0  0
 15 17  1  0  0  0
  9 10  1  0  0  0
  3  4  1  0  0  0
 17 18  1  0  0  0
M  END
> <minimizedAffinity>
-6.51748

$$$$
2HZY_DHJ_A_1102


 18 17  0  0  0  0  0  0  0  0999 V2000
   44.9218   41.0335   58.6769 P   0  0  0  0  0  0  0  0  0  0  0  0
   44.3088   41.0064   60.0584 O   0  0  0  0  0  0  0  0  0  0  0  0
   44.0023   41.0770   57.5023 O   0  0  0  0  0  0  0  0  0  0  0  0
   43.4411   41.8660   57.5601 H   0  0  0  0  0  0  0  0  0  0  0  0
   46.1150   42.3245   58.7059 C   0  0  0  0  0  0  0  0  0  0  0  0
   46.5998   42.8971   59.8150 C   0  0  0  0  0  0  0  0  0  0  0  0
   48.9524   42.5524   60.5289 O   0  0  0  0  0  0  0  0  0  0  0  0
   48.0616   43.2739   59.9258 C   0  0  0  0  0  0  0  0  0  0  0  0
   48.3849   44.3257   59.3851 O   0  0  0  0  0  0  0  0  0  0  0  0
   47.7391   44.8463   58.9493 H   0  0  0  0  0  0  0  0  0  0  0  0
   45.9406   39.5329   58.5026 C   0  0  0  0  0  0  0  0  0  0  0  0
   45.1340   38.4567   57.8512 C   0  0  0  0  0  0  0  0  0  0  0  0
   44.1245   37.9415   58.3448 O   0  0  0  0  0  0  0  0  0  0  0  0
   45.6020   37.9742   56.4694 C   0  0  0  0  0  0  0  0  0  0  0  0
   45.5565   39.0828   55.4148 C   0  0  0  0  0  0  0  0  0  0  0  0
   44.4366   39.4255   54.9544 O   0  0  0  0  0  0  0  0  0  0  0  0
   46.6497   39.6021   55.0500 O   0  0  0  0  0  0  0  0  0  0  0  0
   47.4563   39.3088   55.4260 H   0  0  0  0  0  0  0  0  0  0  0  0
  7  8  2  0  0  0
  8  6  1  0  0  0
  8  9  1  0  0  0
  6  5  1  0  0  0
  5  1  1  0  0  0
  1  2  2  0  0  0
  1 11  1  0  0  0
  1  3  1  0  0  0
 11 12  1  0  0  0
 12 13  2  0  0  0
 12 14  1  0  0  0
 14 15  1  0  0  0
 15 16  2  0  0  0
 15 17  1  0  0  0
  9 10  1  0  0  0
  3  4  1  0  0  0
 17 18  1  0  0  0
M  END
> <minimizedAffinity>
-6.42699

$$$$
2HZY_DHJ_A_1102


 18 17  0  0  0  0  0  0  0  0999 V2000
   45.1097   40.5390   58.6983 P   0  0  0  0  0  0  0  0  0  0  0  0
   44.3122   41.2733   59.7518 O   0  0  0  0  0  0  0  0  0  0  0  0
   45.7395   39.2395   59.0744 O   0  0  0  0  0  0  0  0  0  0  0  0
   45.0529   38.6204   59.3681 H   0  0  0  0  0  0  0  0  0  0  0  0
   44.0708   40.4529   57.2825 C   0  0  0  0  0  0  0  0  0  0  0  0
   44.0479   39.4396   56.4074 C   0  0  0  0  0  0  0  0  0  0  0  0
   46.1558   39.3957   55.0966 O   0  0  0  0  0  0  0  0  0  0  0  0
   45.3300   38.8108   55.9052 C   0  0  0  0  0  0  0  0  0  0  0  0
   45.5732   37.6848   56.3248 O   0  0  0  0  0  0  0  0  0  0  0  0
   44.9746   37.2633   56.9096 H   0  0  0  0  0  0  0  0  0  0  0  0
   46.4519   41.6471   58.1593 C   0  0  0  0  0  0  0  0  0  0  0  0
   47.3214   41.9807   59.3280 C   0  0  0  0  0  0  0  0  0  0  0  0
   48.0683   41.1771   59.8977 O   0  0  0  0  0  0  0  0  0  0  0  0
   47.2765   43.4289   59.8395 C   0  0  0  0  0  0  0  0  0  0  0  0
   47.7867   43.5592   61.2768 C   0  0  0  0  0  0  0  0  0  0  0  0
   46.9788   43.9303   62.1675 O   0  0  0  0  0  0  0  0  0  0  0  0
   49.0011   43.2916   61.5037 O   0  0  0  0  0  0  0  0  0  0  0  0
   49.5597   43.0191   60.8025 H   0  0  0  0  0  0  0  0  0  0  0  0
  7  8  2  0  0  0
  8  6  1  0  0  0
  8  9  1  0  0  0
  6  5  1  0  0  0
  5  1  1  0  0  0
  1  2  2  0  0  0
  1 11  1  0  0  0
  1  3  1  0  0  0
 11 12  1  0  0  0
 12 13  2  0  0  0
 12 14  1  0  0  0
 14 15  1  0  0  0
 15 16  2  0  0  0
 15 17  1  0  0  0
  9 10  1  0  0  0
  3  4  1  0  0  0
 17 18  1  0  0  0
M  END
> <minimizedAffinity>
-6.35776

$$$$
2HZY_DHJ_A_1102


 18 17  0  0  0  0  0  0  0  0999 V2000
   46.6582   41.9693   58.3440 P   0  0  0  0  0  0  0  0  0  0  0  0
   45.6757   43.0910   58.0958 O   0  0  0  0  0  0  0  0  0  0  0  0
   47.6573   41.6634   57.2785 O   0  0  0  0  0  0  0  0  0  0  0  0
   48.1930   42.4524   57.1015 H   0  0  0  0  0  0  0  0  0  0  0  0
   47.3635   42.2889   59.9225 C   0  0  0  0  0  0  0  0  0  0  0  0
   46.7895   43.0204   60.8861 C   0  0  0  0  0  0  0  0  0  0  0  0
   47.9690   44.8177   62.1278 O   0  0  0  0  0  0  0  0  0  0  0  0
   47.6031   43.5787   62.0339 C   0  0  0  0  0  0  0  0  0  0  0  0
   47.9005   42.7807   62.9160 O   0  0  0  0  0  0  0  0  0  0  0  0
   47.6350   41.8848   62.8463 H   0  0  0  0  0  0  0  0  0  0  0  0
   45.6923   40.4497   58.6229 C   0  0  0  0  0  0  0  0  0  0  0  0
   45.0851   40.0022   57.3329 C   0  0  0  0  0  0  0  0  0  0  0  0
   45.7308   39.6417   56.3423 O   0  0  0  0  0  0  0  0  0  0  0  0
   43.5507   39.9888   57.2521 C   0  0  0  0  0  0  0  0  0  0  0  0
   42.9596   41.3917   57.0921 C   0  0  0  0  0  0  0  0  0  0  0  0
   42.5878   41.7578   55.9469 O   0  0  0  0  0  0  0  0  0  0  0  0
   42.8756   42.1227   58.1200 O   0  0  0  0  0  0  0  0  0  0  0  0
   43.1678   41.7997   58.9497 H   0  0  0  0  0  0  0  0  0  0  0  0
  7  8  2  0  0  0
  8  6  1  0  0  0
  8  9  1  0  0  0
  6  5  1  0  0  0
  5  1  1  0  0  0
  1  2  2  0  0  0
  1 11  1  0  0  0
  1  3  1  0  0  0
 11 12  1  0  0  0
 12 13  2  0  0  0
 12 14  1  0  0  0
 14 15  1  0  0  0
 15 16  2  0  0  0
 15 17  1  0  0  0
  9 10  1  0  0  0
  3  4  1  0  0  0
 17 18  1  0  0  0
M  END
> <minimizedAffinity>
-6.26938

$$$$
2HZY_DHJ_A_1102


 18 17  0  0  0  0  0  0  0  0999 V2000
   47.0344   41.7076   58.5885 P   0  0  0  0  0  0  0  0  0  0  0  0
   47.5500   41.5986   57.1717 O   0  0  0  0  0  0  0  0  0  0  0  0
   46.5864   40.4579   59.2700 O   0  0  0  0  0  0  0  0  0  0  0  0
   47.3214   39.8257   59.3020 H   0  0  0  0  0  0  0  0  0  0  0  0
   48.2527   42.6142   59.4747 C   0  0  0  0  0  0  0  0  0  0  0  0
   48.3224   42.7054   60.8088 C   0  0  0  0  0  0  0  0  0  0  0  0
   48.2327   44.6419   62.3598 O   0  0  0  0  0  0  0  0  0  0  0  0
   47.6301   43.8269   61.5534 C   0  0  0  0  0  0  0  0  0  0  0  0
   46.4286   43.9476   61.3409 O   0  0  0  0  0  0  0  0  0  0  0  0
   45.9944   43.3571   60.7572 H   0  0  0  0  0  0  0  0  0  0  0  0
   45.6099   42.8434   58.5648 C   0  0  0  0  0  0  0  0  0  0  0  0
   44.3445   42.0571   58.6815 C   0  0  0  0  0  0  0  0  0  0  0  0
   43.3322   42.4428   59.2770 O   0  0  0  0  0  0  0  0  0  0  0  0
   44.3149   40.6791   58.0024 C   0  0  0  0  0  0  0  0  0  0  0  0
   43.5554   40.6965   56.6735 C   0  0  0  0  0  0  0  0  0  0  0  0
   43.7815   39.7788   55.8425 O   0  0  0  0  0  0  0  0  0  0  0  0
   42.7362   41.6372   56.4686 O   0  0  0  0  0  0  0  0  0  0  0  0
   42.6059   42.2957   57.1224 H   0  0  0  0  0  0  0  0  0  0  0  0
  7  8  2  0  0  0
  8  6  1  0  0  0
  8  9  1  0  0  0
  6  5  1  0  0  0
  5  1  1  0  0  0
  1  2  2  0  0  0
  1 11  1  0  0  0
  1  3  1  0  0  0
 11 12  1  0  0  0
 12 13  2  0  0  0
 12 14  1  0  0  0
 14 15  1  0  0  0
 15 16  2  0  0  0
 15 17  1  0  0  0
  9 10  1  0  0  0
  3  4  1  0  0  0
 17 18  1  0  0  0
M  END
> <minimizedAffinity>
-5.58612

$$$$
