3ZJ6_VM2_A_1516


 23 24  0  0  0  0  0  0  0  0999 V2000
   18.2087   17.3360   34.1836 C   0  0  0  0  0  0  0  0  0  0  0  0
   17.3124   17.3764   32.9371 C   0  0  0  0  0  0  0  0  0  0  0  0
   16.7571   18.7829   32.9788 C   0  0  0  0  0  0  0  0  0  0  0  0
   18.0498   19.5707   33.2296 C   0  0  0  0  0  0  0  0  0  0  0  0
   19.2408   16.3703   34.0128 O   0  0  0  0  0  0  0  0  0  0  0  0
   16.2648   16.3963   32.9266 O   0  0  0  0  0  0  0  0  0  0  0  0
   16.0051   19.1851   31.8219 O   0  0  0  0  0  0  0  0  0  0  0  0
   18.7576   18.7601   34.3500 C   0  0  0  0  0  0  0  0  0  0  0  0
   19.7607   16.5888   33.2235 H   0  0  0  0  0  0  0  0  0  0  0  0
   15.6976   16.5209   33.7036 H   0  0  0  0  0  0  0  0  0  0  0  0
   16.5618   19.1074   31.0314 H   0  0  0  0  0  0  0  0  0  0  0  0
   17.8197   21.0882   33.4716 C   0  0  0  0  0  0  0  0  0  0  0  0
   16.8536   21.2790   34.5371 O   0  0  0  0  0  0  0  0  0  0  0  0
   16.0116   20.8671   34.2877 H   0  0  0  0  0  0  0  0  0  0  0  0
   18.5970   19.2630   35.7403 N   0  0  0  0  0  0  0  0  0  0  0  0
   17.7388   19.8141   35.7511 H   0  0  0  0  0  0  0  0  0  0  0  0
   19.6409   20.0987   36.3800 C   0  0  0  0  0  0  0  0  0  0  0  0
   19.3413   20.7138   37.7568 C   0  0  0  0  0  0  0  0  0  0  0  0
   19.8771   22.1623   37.8425 C   0  0  0  0  0  0  0  0  0  0  0  0
   20.4399   22.6817   39.1732 C   0  0  0  0  0  0  0  0  0  0  0  0
   20.3264   21.7215   40.3772 C   0  0  0  0  0  0  0  0  0  0  0  0
   20.8282   20.3638   39.9107 C   0  0  0  0  0  0  0  0  0  0  0  0
   19.8712   19.7533   38.8558 C   0  0  0  0  0  0  0  0  0  0  0  0
 18 19  1  0  0  0
 18 23  1  0  0  0
 18 17  1  0  0  0
 19 20  1  0  0  0
 20 21  1  0  0  0
 21 22  1  0  0  0
 22 23  1  0  0  0
  1  2  1  0  0  0
  1  5  1  0  0  0
  1  8  1  0  0  0
  2  3  1  0  0  0
  2  6  1  0  0  0
  3  4  1  0  0  0
  3  7  1  0  0  0
  4 12  1  0  0  0
  4  8  1  0  0  0
 12 13  1  0  0  0
 15 17  1  0  0  0
 15  8  1  0  0  0
  5  9  1  0  0  0
  6 10  1  0  0  0
  7 11  1  0  0  0
 13 14  1  0  0  0
 15 16  1  0  0  0
M  END
> <minimizedAffinity>
-9.76731

$$$$
3ZJ6_VM2_A_1516


 23 24  0  0  0  0  0  0  0  0999 V2000
   18.1647   17.3196   34.1744 C   0  0  0  0  0  0  0  0  0  0  0  0
   17.2954   17.3929   32.9104 C   0  0  0  0  0  0  0  0  0  0  0  0
   16.7096   18.7849   32.9964 C   0  0  0  0  0  0  0  0  0  0  0  0
   17.9794   19.5879   33.3085 C   0  0  0  0  0  0  0  0  0  0  0  0
   19.2206   16.3829   33.9882 O   0  0  0  0  0  0  0  0  0  0  0  0
   16.2693   16.3929   32.8362 O   0  0  0  0  0  0  0  0  0  0  0  0
   15.9749   19.2188   31.8399 O   0  0  0  0  0  0  0  0  0  0  0  0
   18.6794   18.7466   34.4109 C   0  0  0  0  0  0  0  0  0  0  0  0
   19.7529   16.6442   33.2205 H   0  0  0  0  0  0  0  0  0  0  0  0
   15.6827   16.4740   33.6044 H   0  0  0  0  0  0  0  0  0  0  0  0
   16.5504   19.1850   31.0598 H   0  0  0  0  0  0  0  0  0  0  0  0
   17.7118   21.0892   33.6066 C   0  0  0  0  0  0  0  0  0  0  0  0
   18.7561   21.6178   34.4640 O   0  0  0  0  0  0  0  0  0  0  0  0
   18.7676   21.1263   35.3002 H   0  0  0  0  0  0  0  0  0  0  0  0
   18.4776   19.1886   35.8165 N   0  0  0  0  0  0  0  0  0  0  0  0
   19.0642   18.5879   36.3956 H   0  0  0  0  0  0  0  0  0  0  0  0
   17.1313   19.1851   36.4368 C   0  0  0  0  0  0  0  0  0  0  0  0
   16.8873   20.0886   37.6567 C   0  0  0  0  0  0  0  0  0  0  0  0
   15.9037   21.2307   37.3096 C   0  0  0  0  0  0  0  0  0  0  0  0
   16.0955   22.6130   37.9498 C   0  0  0  0  0  0  0  0  0  0  0  0
   17.2253   22.7235   38.9965 C   0  0  0  0  0  0  0  0  0  0  0  0
   18.4606   22.0801   38.3857 C   0  0  0  0  0  0  0  0  0  0  0  0
   18.2605   20.5531   38.2131 C   0  0  0  0  0  0  0  0  0  0  0  0
 18 19  1  0  0  0
 18 23  1  0  0  0
 18 17  1  0  0  0
 19 20  1  0  0  0
 20 21  1  0  0  0
 21 22  1  0  0  0
 22 23  1  0  0  0
  1  2  1  0  0  0
  1  5  1  0  0  0
  1  8  1  0  0  0
  2  3  1  0  0  0
  2  6  1  0  0  0
  3  4  1  0  0  0
  3  7  1  0  0  0
  4 12  1  0  0  0
  4  8  1  0  0  0
 12 13  1  0  0  0
 15 17  1  0  0  0
 15  8  1  0  0  0
  5  9  1  0  0  0
  6 10  1  0  0  0
  7 11  1  0  0  0
 13 14  1  0  0  0
 15 16  1  0  0  0
M  END
> <minimizedAffinity>
-9.11587

$$$$
3ZJ6_VM2_A_1516


 23 24  0  0  0  0  0  0  0  0999 V2000
   17.1838   21.0924   35.7045 C   0  0  0  0  0  0  0  0  0  0  0  0
   17.5447   21.3084   34.2274 C   0  0  0  0  0  0  0  0  0  0  0  0
   18.1852   19.9907   33.8510 C   0  0  0  0  0  0  0  0  0  0  0  0
   17.1496   19.0178   34.4303 C   0  0  0  0  0  0  0  0  0  0  0  0
   16.0898   21.9280   36.0679 O   0  0  0  0  0  0  0  0  0  0  0  0
   18.4294   22.4121   33.9872 O   0  0  0  0  0  0  0  0  0  0  0  0
   18.4755   19.8214   32.4536 O   0  0  0  0  0  0  0  0  0  0  0  0
   16.8536   19.5992   35.8400 C   0  0  0  0  0  0  0  0  0  0  0  0
   15.3302   21.7326   35.4972 H   0  0  0  0  0  0  0  0  0  0  0  0
   19.2554   22.2769   34.4773 H   0  0  0  0  0  0  0  0  0  0  0  0
   17.6578   19.9132   31.9400 H   0  0  0  0  0  0  0  0  0  0  0  0
   17.5743   17.5259   34.3390 C   0  0  0  0  0  0  0  0  0  0  0  0
   19.0195   17.4263   34.2586 O   0  0  0  0  0  0  0  0  0  0  0  0
   19.3323   17.8934   33.4680 H   0  0  0  0  0  0  0  0  0  0  0  0
   17.5657   18.9701   36.9841 N   0  0  0  0  0  0  0  0  0  0  0  0
   16.8944   18.3494   37.4363 H   0  0  0  0  0  0  0  0  0  0  0  0
   18.1680   19.7929   38.0599 C   0  0  0  0  0  0  0  0  0  0  0  0
   19.6766   20.0834   37.9987 C   0  0  0  0  0  0  0  0  0  0  0  0
   20.3519   19.7832   39.3575 C   0  0  0  0  0  0  0  0  0  0  0  0
   21.5160   20.6641   39.8331 C   0  0  0  0  0  0  0  0  0  0  0  0
   21.9977   21.7440   38.8400 C   0  0  0  0  0  0  0  0  0  0  0  0
   20.7587   22.4683   38.3369 C   0  0  0  0  0  0  0  0  0  0  0  0
   19.8829   21.5288   37.4699 C   0  0  0  0  0  0  0  0  0  0  0  0
 18 19  1  0  0  0
 18 23  1  0  0  0
 18 17  1  0  0  0
 19 20  1  0  0  0
 20 21  1  0  0  0
 21 22  1  0  0  0
 22 23  1  0  0  0
  1  2  1  0  0  0
  1  5  1  0  0  0
  1  8  1  0  0  0
  2  3  1  0  0  0
  2  6  1  0  0  0
  3  4  1  0  0  0
  3  7  1  0  0  0
  4 12  1  0  0  0
  4  8  1  0  0  0
 12 13  1  0  0  0
 15 17  1  0  0  0
 15  8  1  0  0  0
  5  9  1  0  0  0
  6 10  1  0  0  0
  7 11  1  0  0  0
 13 14  1  0  0  0
 15 16  1  0  0  0
M  END
> <minimizedAffinity>
-8.44855

$$$$
3ZJ6_VM2_A_1516


 23 24  0  0  0  0  0  0  0  0999 V2000
   20.2863   22.6340   40.1893 C   0  0  0  0  0  0  0  0  0  0  0  0
   21.5261   22.1696   40.9678 C   0  0  0  0  0  0  0  0  0  0  0  0
   21.8342   20.8348   40.3262 C   0  0  0  0  0  0  0  0  0  0  0  0
   21.7501   21.2271   38.8451 C   0  0  0  0  0  0  0  0  0  0  0  0
   20.1982   24.0549   40.2124 O   0  0  0  0  0  0  0  0  0  0  0  0
   21.3253   22.0406   42.3825 O   0  0  0  0  0  0  0  0  0  0  0  0
   23.0702   20.2243   40.7327 O   0  0  0  0  0  0  0  0  0  0  0  0
   20.4529   22.0783   38.7679 C   0  0  0  0  0  0  0  0  0  0  0  0
   21.0050   24.4351   39.8310 H   0  0  0  0  0  0  0  0  0  0  0  0
   20.6136   21.4035   42.5513 H   0  0  0  0  0  0  0  0  0  0  0  0
   23.8066   20.8254   40.5394 H   0  0  0  0  0  0  0  0  0  0  0  0
   21.8831   20.0235   37.8714 C   0  0  0  0  0  0  0  0  0  0  0  0
   23.2807   19.6685   37.7106 O   0  0  0  0  0  0  0  0  0  0  0  0
   23.7666   20.4251   37.3468 H   0  0  0  0  0  0  0  0  0  0  0  0
   19.2271   21.3844   38.2909 N   0  0  0  0  0  0  0  0  0  0  0  0
   19.4929   20.4153   38.1161 H   0  0  0  0  0  0  0  0  0  0  0  0
   18.5044   21.8463   37.0819 C   0  0  0  0  0  0  0  0  0  0  0  0
   18.9109   21.2601   35.7199 C   0  0  0  0  0  0  0  0  0  0  0  0
   18.2710   22.0606   34.5615 C   0  0  0  0  0  0  0  0  0  0  0  0
   17.8264   21.3239   33.2899 C   0  0  0  0  0  0  0  0  0  0  0  0
   18.1587   19.8172   33.2291 C   0  0  0  0  0  0  0  0  0  0  0  0
   17.7198   19.2123   34.5536 C   0  0  0  0  0  0  0  0  0  0  0  0
   18.5942   19.7400   35.7191 C   0  0  0  0  0  0  0  0  0  0  0  0
 18 19  1  0  0  0
 18 23  1  0  0  0
 18 17  1  0  0  0
 19 20  1  0  0  0
 20 21  1  0  0  0
 21 22  1  0  0  0
 22 23  1  0  0  0
  1  2  1  0  0  0
  1  5  1  0  0  0
  1  8  1  0  0  0
  2  3  1  0  0  0
  2  6  1  0  0  0
  3  4  1  0  0  0
  3  7  1  0  0  0
  4 12  1  0  0  0
  4  8  1  0  0  0
 12 13  1  0  0  0
 15 17  1  0  0  0
 15  8  1  0  0  0
  5  9  1  0  0  0
  6 10  1  0  0  0
  7 11  1  0  0  0
 13 14  1  0  0  0
 15 16  1  0  0  0
M  END
> <minimizedAffinity>
-8.37907

$$$$
3ZJ6_VM2_A_1516


 23 24  0  0  0  0  0  0  0  0999 V2000
   21.9115   20.6083   38.1701 C   0  0  0  0  0  0  0  0  0  0  0  0
   22.1170   21.7645   39.1600 C   0  0  0  0  0  0  0  0  0  0  0  0
   20.7022   22.0811   39.5915 C   0  0  0  0  0  0  0  0  0  0  0  0
   20.1951   20.6652   39.8962 C   0  0  0  0  0  0  0  0  0  0  0  0
   23.0830   19.8013   38.1107 O   0  0  0  0  0  0  0  0  0  0  0  0
   22.7680   22.9151   38.6026 O   0  0  0  0  0  0  0  0  0  0  0  0
   20.5811   23.0241   40.6693 O   0  0  0  0  0  0  0  0  0  0  0  0
   20.6887   19.8331   38.6809 C   0  0  0  0  0  0  0  0  0  0  0  0
   23.2873   19.4623   38.9962 H   0  0  0  0  0  0  0  0  0  0  0  0
   22.2466   23.2522   37.8574 H   0  0  0  0  0  0  0  0  0  0  0  0
   21.0624   22.6935   41.4438 H   0  0  0  0  0  0  0  0  0  0  0  0
   18.6823   20.6051   40.2460 C   0  0  0  0  0  0  0  0  0  0  0  0
   17.9603   21.6169   39.4977 O   0  0  0  0  0  0  0  0  0  0  0  0
   18.3035   22.4948   39.7267 H   0  0  0  0  0  0  0  0  0  0  0  0
   19.6981   19.5761   37.6018 N   0  0  0  0  0  0  0  0  0  0  0  0
   19.9629   18.6902   37.1713 H   0  0  0  0  0  0  0  0  0  0  0  0
   19.5030   20.5403   36.4930 C   0  0  0  0  0  0  0  0  0  0  0  0
   18.3386   20.3045   35.5170 C   0  0  0  0  0  0  0  0  0  0  0  0
   18.6511   19.1317   34.5581 C   0  0  0  0  0  0  0  0  0  0  0  0
   18.1526   19.1894   33.1071 C   0  0  0  0  0  0  0  0  0  0  0  0
   17.2667   20.4006   32.7431 C   0  0  0  0  0  0  0  0  0  0  0  0
   17.9729   21.6407   33.2690 C   0  0  0  0  0  0  0  0  0  0  0  0
   17.9963   21.6483   34.8184 C   0  0  0  0  0  0  0  0  0  0  0  0
 18 19  1  0  0  0
 18 23  1  0  0  0
 18 17  1  0  0  0
 19 20  1  0  0  0
 20 21  1  0  0  0
 21 22  1  0  0  0
 22 23  1  0  0  0
  1  2  1  0  0  0
  1  5  1  0  0  0
  1  8  1  0  0  0
  2  3  1  0  0  0
  2  6  1  0  0  0
  3  4  1  0  0  0
  3  7  1  0  0  0
  4 12  1  0  0  0
  4  8  1  0  0  0
 12 13  1  0  0  0
 15 17  1  0  0  0
 15  8  1  0  0  0
  5  9  1  0  0  0
  6 10  1  0  0  0
  7 11  1  0  0  0
 13 14  1  0  0  0
 15 16  1  0  0  0
M  END
> <minimizedAffinity>
-8.37422

$$$$
3ZJ6_VM2_A_1516


 23 24  0  0  0  0  0  0  0  0999 V2000
   18.3994   19.1415   34.7359 C   0  0  0  0  0  0  0  0  0  0  0  0
   16.8917   19.1774   34.4452 C   0  0  0  0  0  0  0  0  0  0  0  0
   16.3086   19.5583   35.7880 C   0  0  0  0  0  0  0  0  0  0  0  0
   17.2219   20.7375   36.1485 C   0  0  0  0  0  0  0  0  0  0  0  0
   19.1338   19.3879   33.5413 O   0  0  0  0  0  0  0  0  0  0  0  0
   16.3492   17.9382   33.9674 O   0  0  0  0  0  0  0  0  0  0  0  0
   14.9005   19.8462   35.7911 O   0  0  0  0  0  0  0  0  0  0  0  0
   18.6439   20.2130   35.8079 C   0  0  0  0  0  0  0  0  0  0  0  0
   18.8756   20.2479   33.1745 H   0  0  0  0  0  0  0  0  0  0  0  0
   16.5080   17.2414   34.6233 H   0  0  0  0  0  0  0  0  0  0  0  0
   14.7168   20.5685   35.1702 H   0  0  0  0  0  0  0  0  0  0  0  0
   16.9824   21.2992   37.5773 C   0  0  0  0  0  0  0  0  0  0  0  0
   16.0938   20.4193   38.3130 O   0  0  0  0  0  0  0  0  0  0  0  0
   15.2434   20.3581   37.8503 H   0  0  0  0  0  0  0  0  0  0  0  0
   19.4533   19.6947   36.9428 N   0  0  0  0  0  0  0  0  0  0  0  0
   18.8198   19.6183   37.7386 H   0  0  0  0  0  0  0  0  0  0  0  0
   20.6505   20.4221   37.4274 C   0  0  0  0  0  0  0  0  0  0  0  0
   20.5249   21.2632   38.7083 C   0  0  0  0  0  0  0  0  0  0  0  0
   21.4494   22.5017   38.6481 C   0  0  0  0  0  0  0  0  0  0  0  0
   22.1239   23.0036   39.9329 C   0  0  0  0  0  0  0  0  0  0  0  0
   21.7306   22.2718   41.2344 C   0  0  0  0  0  0  0  0  0  0  0  0
   21.8302   20.7806   40.9524 C   0  0  0  0  0  0  0  0  0  0  0  0
   20.7493   20.3371   39.9344 C   0  0  0  0  0  0  0  0  0  0  0  0
 18 19  1  0  0  0
 18 23  1  0  0  0
 18 17  1  0  0  0
 19 20  1  0  0  0
 20 21  1  0  0  0
 21 22  1  0  0  0
 22 23  1  0  0  0
  1  2  1  0  0  0
  1  5  1  0  0  0
  1  8  1  0  0  0
  2  3  1  0  0  0
  2  6  1  0  0  0
  3  4  1  0  0  0
  3  7  1  0  0  0
  4 12  1  0  0  0
  4  8  1  0  0  0
 12 13  1  0  0  0
 15 17  1  0  0  0
 15  8  1  0  0  0
  5  9  1  0  0  0
  6 10  1  0  0  0
  7 11  1  0  0  0
 13 14  1  0  0  0
 15 16  1  0  0  0
M  END
> <minimizedAffinity>
-8.34817

$$$$
3ZJ6_VM2_A_1516


 23 24  0  0  0  0  0  0  0  0999 V2000
   20.4339   20.2219   38.5741 C   0  0  0  0  0  0  0  0  0  0  0  0
   21.7846   20.4592   39.2655 C   0  0  0  0  0  0  0  0  0  0  0  0
   21.7993   21.9608   39.4483 C   0  0  0  0  0  0  0  0  0  0  0  0
   20.3967   22.1699   40.0347 C   0  0  0  0  0  0  0  0  0  0  0  0
   19.9715   18.9026   38.8438 O   0  0  0  0  0  0  0  0  0  0  0  0
   22.9224   20.0083   38.5169 O   0  0  0  0  0  0  0  0  0  0  0  0
   22.8816   22.4763   40.2410 O   0  0  0  0  0  0  0  0  0  0  0  0
   19.4884   21.2999   39.1230 C   0  0  0  0  0  0  0  0  0  0  0  0
   19.8929   18.7771   39.8024 H   0  0  0  0  0  0  0  0  0  0  0  0
   22.9451   20.4606   37.6592 H   0  0  0  0  0  0  0  0  0  0  0  0
   22.8607   22.0688   41.1210 H   0  0  0  0  0  0  0  0  0  0  0  0
   20.0137   23.6643   40.2207 C   0  0  0  0  0  0  0  0  0  0  0  0
   20.8783   24.2775   41.2114 O   0  0  0  0  0  0  0  0  0  0  0  0
   20.7765   23.8169   42.0589 H   0  0  0  0  0  0  0  0  0  0  0  0
   18.7576   22.0082   38.0385 N   0  0  0  0  0  0  0  0  0  0  0  0
   17.7777   21.7389   38.1266 H   0  0  0  0  0  0  0  0  0  0  0  0
   19.1202   21.8143   36.6144 C   0  0  0  0  0  0  0  0  0  0  0  0
   18.1192   21.0916   35.6981 C   0  0  0  0  0  0  0  0  0  0  0  0
   18.6419   19.6893   35.3073 C   0  0  0  0  0  0  0  0  0  0  0  0
   18.3427   19.1352   33.9071 C   0  0  0  0  0  0  0  0  0  0  0  0
   17.4308   20.0054   33.0151 C   0  0  0  0  0  0  0  0  0  0  0  0
   17.9690   21.4262   33.0831 C   0  0  0  0  0  0  0  0  0  0  0  0
   17.7806   22.0214   34.5015 C   0  0  0  0  0  0  0  0  0  0  0  0
 18 19  1  0  0  0
 18 23  1  0  0  0
 18 17  1  0  0  0
 19 20  1  0  0  0
 20 21  1  0  0  0
 21 22  1  0  0  0
 22 23  1  0  0  0
  1  2  1  0  0  0
  1  5  1  0  0  0
  1  8  1  0  0  0
  2  3  1  0  0  0
  2  6  1  0  0  0
  3  4  1  0  0  0
  3  7  1  0  0  0
  4 12  1  0  0  0
  4  8  1  0  0  0
 12 13  1  0  0  0
 15 17  1  0  0  0
 15  8  1  0  0  0
  5  9  1  0  0  0
  6 10  1  0  0  0
  7 11  1  0  0  0
 13 14  1  0  0  0
 15 16  1  0  0  0
M  END
> <minimizedAffinity>
-8.31054

$$$$
3ZJ6_VM2_A_1516


 23 24  0  0  0  0  0  0  0  0999 V2000
   21.6555   21.4556   38.5026 C   0  0  0  0  0  0  0  0  0  0  0  0
   22.2411   22.4756   39.4902 C   0  0  0  0  0  0  0  0  0  0  0  0
   21.0065   23.1918   39.9914 C   0  0  0  0  0  0  0  0  0  0  0  0
   20.1118   21.9863   40.3093 C   0  0  0  0  0  0  0  0  0  0  0  0
   22.5271   20.3364   38.3811 O   0  0  0  0  0  0  0  0  0  0  0  0
   23.1824   23.3904   38.9111 O   0  0  0  0  0  0  0  0  0  0  0  0
   21.2208   24.1043   41.0809 O   0  0  0  0  0  0  0  0  0  0  0  0
   20.2798   21.0711   39.0654 C   0  0  0  0  0  0  0  0  0  0  0  0
   22.6586   19.9328   39.2533 H   0  0  0  0  0  0  0  0  0  0  0  0
   22.7544   23.8841   38.1942 H   0  0  0  0  0  0  0  0  0  0  0  0
   21.6139   23.6282   41.8290 H   0  0  0  0  0  0  0  0  0  0  0  0
   18.6673   22.3742   40.7306 C   0  0  0  0  0  0  0  0  0  0  0  0
   18.0743   23.2392   39.7280 O   0  0  0  0  0  0  0  0  0  0  0  0
   18.6061   24.0458   39.6414 H   0  0  0  0  0  0  0  0  0  0  0  0
   19.2119   21.1458   38.0331 N   0  0  0  0  0  0  0  0  0  0  0  0
   18.3404   21.3270   38.5312 H   0  0  0  0  0  0  0  0  0  0  0  0
   18.9454   20.0086   37.1204 C   0  0  0  0  0  0  0  0  0  0  0  0
   19.0679   20.2440   35.6059 C   0  0  0  0  0  0  0  0  0  0  0  0
   18.6884   21.6983   35.2410 C   0  0  0  0  0  0  0  0  0  0  0  0
   17.9642   21.9801   33.9168 C   0  0  0  0  0  0  0  0  0  0  0  0
   17.7609   20.7661   32.9846 C   0  0  0  0  0  0  0  0  0  0  0  0
   17.2009   19.6395   33.8391 C   0  0  0  0  0  0  0  0  0  0  0  0
   18.2531   19.1489   34.8657 C   0  0  0  0  0  0  0  0  0  0  0  0
 18 19  1  0  0  0
 18 23  1  0  0  0
 18 17  1  0  0  0
 19 20  1  0  0  0
 20 21  1  0  0  0
 21 22  1  0  0  0
 22 23  1  0  0  0
  1  2  1  0  0  0
  1  5  1  0  0  0
  1  8  1  0  0  0
  2  3  1  0  0  0
  2  6  1  0  0  0
  3  4  1  0  0  0
  3  7  1  0  0  0
  4 12  1  0  0  0
  4  8  1  0  0  0
 12 13  1  0  0  0
 15 17  1  0  0  0
 15  8  1  0  0  0
  5  9  1  0  0  0
  6 10  1  0  0  0
  7 11  1  0  0  0
 13 14  1  0  0  0
 15 16  1  0  0  0
M  END
> <minimizedAffinity>
-7.82663

$$$$
3ZJ6_VM2_A_1516


 23 24  0  0  0  0  0  0  0  0999 V2000
   17.0088   20.5622   37.9978 C   0  0  0  0  0  0  0  0  0  0  0  0
   16.2975   21.5139   37.0247 C   0  0  0  0  0  0  0  0  0  0  0  0
   17.2899   21.6214   35.8880 C   0  0  0  0  0  0  0  0  0  0  0  0
   17.6139   20.1363   35.6780 C   0  0  0  0  0  0  0  0  0  0  0  0
   16.0523   19.8822   38.8038 O   0  0  0  0  0  0  0  0  0  0  0  0
   15.9848   22.8015   37.5749 O   0  0  0  0  0  0  0  0  0  0  0  0
   16.8218   22.3208   34.7229 O   0  0  0  0  0  0  0  0  0  0  0  0
   17.8272   19.6033   37.1214 C   0  0  0  0  0  0  0  0  0  0  0  0
   15.4380   19.3937   38.2338 H   0  0  0  0  0  0  0  0  0  0  0  0
   16.8015   23.2344   37.8690 H   0  0  0  0  0  0  0  0  0  0  0  0
   16.0247   21.8851   34.3829 H   0  0  0  0  0  0  0  0  0  0  0  0
   18.7431   19.8838   34.6408 C   0  0  0  0  0  0  0  0  0  0  0  0
   19.0813   18.4733   34.6104 O   0  0  0  0  0  0  0  0  0  0  0  0
   19.3893   18.1957   35.4873 H   0  0  0  0  0  0  0  0  0  0  0  0
   19.2345   19.4827   37.5869 N   0  0  0  0  0  0  0  0  0  0  0  0
   19.5041   18.5096   37.4432 H   0  0  0  0  0  0  0  0  0  0  0  0
   19.6148   19.8229   38.9787 C   0  0  0  0  0  0  0  0  0  0  0  0
   20.9283   20.5876   39.2103 C   0  0  0  0  0  0  0  0  0  0  0  0
   21.0494   21.0429   40.6836 C   0  0  0  0  0  0  0  0  0  0  0  0
   21.7204   22.3856   41.0062 C   0  0  0  0  0  0  0  0  0  0  0  0
   22.3286   23.1442   39.8066 C   0  0  0  0  0  0  0  0  0  0  0  0
   21.2753   23.1570   38.7096 C   0  0  0  0  0  0  0  0  0  0  0  0
   21.0304   21.7283   38.1617 C   0  0  0  0  0  0  0  0  0  0  0  0
 18 19  1  0  0  0
 18 23  1  0  0  0
 18 17  1  0  0  0
 19 20  1  0  0  0
 20 21  1  0  0  0
 21 22  1  0  0  0
 22 23  1  0  0  0
  1  2  1  0  0  0
  1  5  1  0  0  0
  1  8  1  0  0  0
  2  3  1  0  0  0
  2  6  1  0  0  0
  3  4  1  0  0  0
  3  7  1  0  0  0
  4 12  1  0  0  0
  4  8  1  0  0  0
 12 13  1  0  0  0
 15 17  1  0  0  0
 15  8  1  0  0  0
  5  9  1  0  0  0
  6 10  1  0  0  0
  7 11  1  0  0  0
 13 14  1  0  0  0
 15 16  1  0  0  0
M  END
> <minimizedAffinity>
-7.72459

$$$$
3ZJ6_VM2_A_1516


 23 24  0  0  0  0  0  0  0  0999 V2000
   17.7729   20.8406   34.5039 C   0  0  0  0  0  0  0  0  0  0  0  0
   16.9876   20.4562   33.2413 C   0  0  0  0  0  0  0  0  0  0  0  0
   17.4782   19.0520   32.9658 C   0  0  0  0  0  0  0  0  0  0  0  0
   17.3501   18.4464   34.3699 C   0  0  0  0  0  0  0  0  0  0  0  0
   17.0594   21.8271   35.2422 O   0  0  0  0  0  0  0  0  0  0  0  0
   17.2080   21.3213   32.1182 O   0  0  0  0  0  0  0  0  0  0  0  0
   16.7817   18.3470   31.9248 O   0  0  0  0  0  0  0  0  0  0  0  0
   17.9600   19.5369   35.2928 C   0  0  0  0  0  0  0  0  0  0  0  0
   16.1820   21.4851   35.4748 H   0  0  0  0  0  0  0  0  0  0  0  0
   18.1512   21.3230   31.8915 H   0  0  0  0  0  0  0  0  0  0  0  0
   15.8383   18.2958   32.1443 H   0  0  0  0  0  0  0  0  0  0  0  0
   17.9182   17.0045   34.4827 C   0  0  0  0  0  0  0  0  0  0  0  0
   18.4991   16.6006   33.2160 O   0  0  0  0  0  0  0  0  0  0  0  0
   17.8168   16.6188   32.5269 H   0  0  0  0  0  0  0  0  0  0  0  0
   19.3711   19.3379   35.7184 N   0  0  0  0  0  0  0  0  0  0  0  0
   19.4285   18.3920   36.0958 H   0  0  0  0  0  0  0  0  0  0  0  0
   20.0040   20.2288   36.7198 C   0  0  0  0  0  0  0  0  0  0  0  0
   19.2600   20.4879   38.0401 C   0  0  0  0  0  0  0  0  0  0  0  0
   18.9299   21.9903   38.2019 C   0  0  0  0  0  0  0  0  0  0  0  0
   18.9657   22.6250   39.5995 C   0  0  0  0  0  0  0  0  0  0  0  0
   19.2351   21.6603   40.7746 C   0  0  0  0  0  0  0  0  0  0  0  0
   20.4333   20.8089   40.3839 C   0  0  0  0  0  0  0  0  0  0  0  0
   20.0819   19.8689   39.2030 C   0  0  0  0  0  0  0  0  0  0  0  0
 18 19  1  0  0  0
 18 23  1  0  0  0
 18 17  1  0  0  0
 19 20  1  0  0  0
 20 21  1  0  0  0
 21 22  1  0  0  0
 22 23  1  0  0  0
  1  2  1  0  0  0
  1  5  1  0  0  0
  1  8  1  0  0  0
  2  3  1  0  0  0
  2  6  1  0  0  0
  3  4  1  0  0  0
  3  7  1  0  0  0
  4 12  1  0  0  0
  4  8  1  0  0  0
 12 13  1  0  0  0
 15 17  1  0  0  0
 15  8  1  0  0  0
  5  9  1  0  0  0
  6 10  1  0  0  0
  7 11  1  0  0  0
 13 14  1  0  0  0
 15 16  1  0  0  0
M  END
> <minimizedAffinity>
-7.61178

$$$$
