5F62_5W1_A_201


 41 44  0  0  0  0  0  0  0  0999 V2000
   15.6015   -4.6025    0.2518 C   0  0  0  0  0  0  0  0  0  0  0  0
   13.5829   -6.0633   -0.3368 C   0  0  0  0  0  0  0  0  0  0  0  0
   11.4368   -5.4584    0.4727 C   0  0  0  0  0  0  0  0  0  0  0  0
   11.9544   -4.3736    1.0968 N   0  0  0  0  0  0  0  0  0  0  0  0
   13.2721   -4.0969    1.0279 C   0  0  0  0  0  0  0  0  0  0  0  0
   14.1455   -4.9242    0.3035 C   0  0  0  0  0  0  0  0  0  0  0  0
   12.2540   -6.2771   -0.2320 N   0  0  0  0  0  0  0  0  0  0  0  0
   10.1003   -5.6987    0.5807 N   0  0  0  0  0  0  0  0  0  0  0  0
    9.5347   -4.9962    0.1861 H   0  0  0  0  0  0  0  0  0  0  0  0
    9.7369   -7.0852    2.4661 C   0  0  0  0  0  0  0  0  0  0  0  0
    8.0378   -8.8400    2.4910 C   0  0  0  0  0  0  0  0  0  0  0  0
    7.6990   -8.4839    1.1682 C   0  0  0  0  0  0  0  0  0  0  0  0
    6.7339   -9.1146    0.5672 F   0  0  0  0  0  0  0  0  0  0  0  0
    8.3662   -7.4385    0.4888 C   0  0  0  0  0  0  0  0  0  0  0  0
    9.0755   -8.1355    3.1344 C   0  0  0  0  0  0  0  0  0  0  0  0
    9.3979   -6.7303    1.1331 C   0  0  0  0  0  0  0  0  0  0  0  0
    4.7512  -12.8503    4.7152 C   0  0  0  0  0  0  0  0  0  0  0  0
    5.8553  -11.9165    4.3711 N   0  0  0  0  0  0  0  0  0  0  0  0
    6.3037  -12.0946    2.9628 C   0  0  0  0  0  0  0  0  0  0  0  0
    7.5521  -11.2261    2.6830 C   0  0  0  0  0  0  0  0  0  0  0  0
    5.5288  -10.4970    4.6811 C   0  0  0  0  0  0  0  0  0  0  0  0
    6.7753   -9.6171    4.4344 C   0  0  0  0  0  0  0  0  0  0  0  0
    7.3640   -9.8649    3.1314 N   0  0  0  0  0  0  0  0  0  0  0  0
   14.3444   -6.9362   -1.0542 N   0  0  0  0  0  0  0  0  0  0  0  0
   15.0320   -7.4256   -0.5472 H   0  0  0  0  0  0  0  0  0  0  0  0
   15.2096   -8.0943   -2.9371 C   0  0  0  0  0  0  0  0  0  0  0  0
   14.1645   -7.8457   -5.1218 C   0  0  0  0  0  0  0  0  0  0  0  0
   13.2097   -6.9560   -4.5929 C   0  0  0  0  0  0  0  0  0  0  0  0
   14.2730   -7.2170   -2.3883 C   0  0  0  0  0  0  0  0  0  0  0  0
   15.1622   -8.4016   -4.3124 C   0  0  0  0  0  0  0  0  0  0  0  0
   14.1373   -8.2515   -6.7669 Cl  0  0  0  0  0  0  0  0  0  0  0  0
   13.2903   -6.6665   -3.2328 C   0  0  0  0  0  0  0  0  0  0  0  0
   12.2659   -6.3830   -5.4193 N   0  0  0  0  0  0  0  0  0  0  0  0
   12.5421   -5.5751   -5.9096 H   0  0  0  0  0  0  0  0  0  0  0  0
   10.6730   -6.9257   -5.6808 S   0  0  0  0  0  0  0  0  0  0  0  0
   10.5210   -8.3166   -4.9981 O   0  0  0  0  0  0  0  0  0  0  0  0
   10.4062   -6.9868   -7.2022 O   0  0  0  0  0  0  0  0  0  0  0  0
    9.5516   -5.7384   -4.8706 C   0  0  0  0  0  0  0  0  0  0  0  0
    9.7377   -5.8011   -3.3308 C   0  0  0  0  0  0  0  0  0  0  0  0
    9.9076   -4.3393   -5.4309 C   0  0  0  0  0  0  0  0  0  0  0  0
    8.0862   -6.1298   -5.2152 C   0  0  0  0  0  0  0  0  0  0  0  0
 10 15  2  0  0  0
 10 16  1  0  0  0
  1  6  1  0  0  0
  2  6  2  0  0  0
  2 24  1  0  0  0
  2  7  1  0  0  0
 26 29  2  0  0  0
 26 30  1  0  0  0
 27 28  1  0  0  0
 27 30  2  0  0  0
 27 31  1  0  0  0
 28 33  1  0  0  0
 28 32  2  0  0  0
 17 18  1  0  0  0
 18 19  1  0  0  0
 18 21  1  0  0  0
 19 20  1  0  0  0
 20 23  1  0  0  0
 21 22  1  0  0  0
 22 23  1  0  0  0
 23 11  1  0  0  0
 11 12  2  0  0  0
 11 15  1  0  0  0
 12 13  1  0  0  0
 12 14  1  0  0  0
 14 16  2  0  0  0
 16  8  1  0  0  0
  8  3  1  0  0  0
  3  4  1  0  0  0
  3  7  2  0  0  0
  4  5  2  0  0  0
  5  6  1  0  0  0
 24 29  1  0  0  0
 29 32  1  0  0  0
 33 35  1  0  0  0
 35 38  1  0  0  0
 35 36  2  0  0  0
 35 37  2  0  0  0
 38 39  1  0  0  0
 38 40  1  0  0  0
 38 41  1  0  0  0
  8  9  1  0  0  0
 24 25  1  0  0  0
 33 34  1  0  0  0
M  END
> <minimizedAffinity>
-8.47084

$$$$
5F62_5W1_A_201


 41 44  0  0  0  0  0  0  0  0999 V2000
   15.1807   -6.2159   -0.9718 C   0  0  0  0  0  0  0  0  0  0  0  0
   12.7322   -6.7974   -1.4429 C   0  0  0  0  0  0  0  0  0  0  0  0
   11.0473   -6.0043    0.0266 C   0  0  0  0  0  0  0  0  0  0  0  0
   11.9775   -5.3911    0.7965 N   0  0  0  0  0  0  0  0  0  0  0  0
   13.2873   -5.4531    0.4833 C   0  0  0  0  0  0  0  0  0  0  0  0
   13.7245   -6.1527   -0.6531 C   0  0  0  0  0  0  0  0  0  0  0  0
   11.4378   -6.6892   -1.0748 N   0  0  0  0  0  0  0  0  0  0  0  0
    9.7376   -5.9192    0.3914 N   0  0  0  0  0  0  0  0  0  0  0  0
    9.2754   -5.1246    0.0390 H   0  0  0  0  0  0  0  0  0  0  0  0
    7.7910   -7.2619    0.5215 C   0  0  0  0  0  0  0  0  0  0  0  0
    7.1652   -8.4646    2.5534 C   0  0  0  0  0  0  0  0  0  0  0  0
    8.3148   -7.9372    3.1792 C   0  0  0  0  0  0  0  0  0  0  0  0
    8.5778   -8.2680    4.4088 F   0  0  0  0  0  0  0  0  0  0  0  0
    9.2034   -7.0780    2.4924 C   0  0  0  0  0  0  0  0  0  0  0  0
    6.9030   -8.1092    1.2146 C   0  0  0  0  0  0  0  0  0  0  0  0
    8.9457   -6.7282    1.1536 C   0  0  0  0  0  0  0  0  0  0  0  0
    4.1619  -11.8699    5.9024 C   0  0  0  0  0  0  0  0  0  0  0  0
    4.6875  -11.0416    4.7856 N   0  0  0  0  0  0  0  0  0  0  0  0
    4.7779   -9.6051    5.1653 C   0  0  0  0  0  0  0  0  0  0  0  0
    5.1744   -8.7497    3.9396 C   0  0  0  0  0  0  0  0  0  0  0  0
    5.9716  -11.5593    4.2373 C   0  0  0  0  0  0  0  0  0  0  0  0
    6.3692  -10.7335    2.9927 C   0  0  0  0  0  0  0  0  0  0  0  0
    6.3163   -9.3064    3.2500 N   0  0  0  0  0  0  0  0  0  0  0  0
   13.0511   -7.5121   -2.5583 N   0  0  0  0  0  0  0  0  0  0  0  0
   13.1826   -8.4790   -2.4274 H   0  0  0  0  0  0  0  0  0  0  0  0
   12.0927   -6.5718   -4.5159 C   0  0  0  0  0  0  0  0  0  0  0  0
   13.4821   -6.0849   -6.4547 C   0  0  0  0  0  0  0  0  0  0  0  0
   14.6252   -6.5690   -5.7900 C   0  0  0  0  0  0  0  0  0  0  0  0
   13.2109   -7.0548   -3.8346 C   0  0  0  0  0  0  0  0  0  0  0  0
   12.2265   -6.0949   -5.8361 C   0  0  0  0  0  0  0  0  0  0  0  0
   13.5997   -5.4920   -8.0379 Cl  0  0  0  0  0  0  0  0  0  0  0  0
   14.4566   -7.0414   -4.4904 C   0  0  0  0  0  0  0  0  0  0  0  0
   15.8428   -6.5942   -6.4370 N   0  0  0  0  0  0  0  0  0  0  0  0
   16.3764   -5.7676   -6.4037 H   0  0  0  0  0  0  0  0  0  0  0  0
   16.5206   -7.9049   -7.2874 S   0  0  0  0  0  0  0  0  0  0  0  0
   16.9954   -7.3834   -8.6753 O   0  0  0  0  0  0  0  0  0  0  0  0
   15.4620   -9.0245   -7.4123 O   0  0  0  0  0  0  0  0  0  0  0  0
   17.9680   -8.4806   -6.3401 C   0  0  0  0  0  0  0  0  0  0  0  0
   18.7697   -9.5145   -7.1754 C   0  0  0  0  0  0  0  0  0  0  0  0
   18.8166   -7.2252   -6.0210 C   0  0  0  0  0  0  0  0  0  0  0  0
   17.4644   -9.1688   -5.0393 C   0  0  0  0  0  0  0  0  0  0  0  0
 10 15  2  0  0  0
 10 16  1  0  0  0
  1  6  1  0  0  0
  2  6  2  0  0  0
  2 24  1  0  0  0
  2  7  1  0  0  0
 26 29  2  0  0  0
 26 30  1  0  0  0
 27 28  1  0  0  0
 27 30  2  0  0  0
 27 31  1  0  0  0
 28 33  1  0  0  0
 28 32  2  0  0  0
 17 18  1  0  0  0
 18 19  1  0  0  0
 18 21  1  0  0  0
 19 20  1  0  0  0
 20 23  1  0  0  0
 21 22  1  0  0  0
 22 23  1  0  0  0
 23 11  1  0  0  0
 11 12  2  0  0  0
 11 15  1  0  0  0
 12 13  1  0  0  0
 12 14  1  0  0  0
 14 16  2  0  0  0
 16  8  1  0  0  0
  8  3  1  0  0  0
  3  4  1  0  0  0
  3  7  2  0  0  0
  4  5  2  0  0  0
  5  6  1  0  0  0
 24 29  1  0  0  0
 29 32  1  0  0  0
 33 35  1  0  0  0
 35 38  1  0  0  0
 35 36  2  0  0  0
 35 37  2  0  0  0
 38 39  1  0  0  0
 38 40  1  0  0  0
 38 41  1  0  0  0
  8  9  1  0  0  0
 24 25  1  0  0  0
 33 34  1  0  0  0
M  END
> <minimizedAffinity>
-8.45195

$$$$
5F62_5W1_A_201


 41 44  0  0  0  0  0  0  0  0999 V2000
   13.1059   -3.0469    1.7771 C   0  0  0  0  0  0  0  0  0  0  0  0
   12.6317   -5.2401    0.5441 C   0  0  0  0  0  0  0  0  0  0  0  0
   14.3772   -6.2883   -0.6732 C   0  0  0  0  0  0  0  0  0  0  0  0
   15.2394   -5.3029   -0.3269 N   0  0  0  0  0  0  0  0  0  0  0  0
   14.8423   -4.2757    0.4508 C   0  0  0  0  0  0  0  0  0  0  0  0
   13.5235   -4.2000    0.9272 C   0  0  0  0  0  0  0  0  0  0  0  0
   13.0976   -6.2422   -0.2315 N   0  0  0  0  0  0  0  0  0  0  0  0
   14.8256   -7.2993   -1.4684 N   0  0  0  0  0  0  0  0  0  0  0  0
   15.3144   -8.0027   -0.9831 H   0  0  0  0  0  0  0  0  0  0  0  0
   13.8571   -6.6570   -3.5321 C   0  0  0  0  0  0  0  0  0  0  0  0
   14.3839   -7.7878   -5.6322 C   0  0  0  0  0  0  0  0  0  0  0  0
   15.2486   -8.6426   -4.9159 C   0  0  0  0  0  0  0  0  0  0  0  0
   15.9186   -9.5530   -5.5583 F   0  0  0  0  0  0  0  0  0  0  0  0
   15.4249   -8.5158   -3.5186 C   0  0  0  0  0  0  0  0  0  0  0  0
   13.6771   -6.7953   -4.9232 C   0  0  0  0  0  0  0  0  0  0  0  0
   14.7246   -7.5206   -2.8113 C   0  0  0  0  0  0  0  0  0  0  0  0
   13.3357   -7.8594  -11.1754 C   0  0  0  0  0  0  0  0  0  0  0  0
   13.8164   -8.1271   -9.7946 N   0  0  0  0  0  0  0  0  0  0  0  0
   14.5971   -6.9803   -9.2550 C   0  0  0  0  0  0  0  0  0  0  0  0
   15.2156   -7.3485   -7.8863 C   0  0  0  0  0  0  0  0  0  0  0  0
   12.7235   -8.5452   -8.8736 C   0  0  0  0  0  0  0  0  0  0  0  0
   13.3268   -8.9449   -7.5079 C   0  0  0  0  0  0  0  0  0  0  0  0
   14.2351   -7.9336   -7.0000 N   0  0  0  0  0  0  0  0  0  0  0  0
   11.3286   -5.2551    0.9419 N   0  0  0  0  0  0  0  0  0  0  0  0
   11.0896   -4.6237    1.6585 H   0  0  0  0  0  0  0  0  0  0  0  0
   10.1490   -6.1579   -0.9097 C   0  0  0  0  0  0  0  0  0  0  0  0
    8.2535   -7.6439   -0.5554 C   0  0  0  0  0  0  0  0  0  0  0  0
    8.3963   -7.5359    0.8413 C   0  0  0  0  0  0  0  0  0  0  0  0
   10.3130   -6.0365    0.4710 C   0  0  0  0  0  0  0  0  0  0  0  0
    9.1076   -6.9563   -1.4256 C   0  0  0  0  0  0  0  0  0  0  0  0
    7.0227   -8.6017   -1.2184 Cl  0  0  0  0  0  0  0  0  0  0  0  0
    9.4292   -6.7320    1.3178 C   0  0  0  0  0  0  0  0  0  0  0  0
    7.5128   -8.1837    1.6790 N   0  0  0  0  0  0  0  0  0  0  0  0
    6.6034   -8.3305    1.3315 H   0  0  0  0  0  0  0  0  0  0  0  0
    7.8294   -8.7566    3.2513 S   0  0  0  0  0  0  0  0  0  0  0  0
    8.1652   -7.5310    4.1507 O   0  0  0  0  0  0  0  0  0  0  0  0
    8.9904   -9.7754    3.1908 O   0  0  0  0  0  0  0  0  0  0  0  0
    6.3034   -9.5444    3.8630 C   0  0  0  0  0  0  0  0  0  0  0  0
    6.3925   -9.7481    5.3993 C   0  0  0  0  0  0  0  0  0  0  0  0
    5.1347   -8.6034    3.4800 C   0  0  0  0  0  0  0  0  0  0  0  0
    6.1578  -10.9343    3.1802 C   0  0  0  0  0  0  0  0  0  0  0  0
 10 15  2  0  0  0
 10 16  1  0  0  0
  1  6  1  0  0  0
  2  6  2  0  0  0
  2 24  1  0  0  0
  2  7  1  0  0  0
 26 29  2  0  0  0
 26 30  1  0  0  0
 27 28  1  0  0  0
 27 30  2  0  0  0
 27 31  1  0  0  0
 28 33  1  0  0  0
 28 32  2  0  0  0
 17 18  1  0  0  0
 18 19  1  0  0  0
 18 21  1  0  0  0
 19 20  1  0  0  0
 20 23  1  0  0  0
 21 22  1  0  0  0
 22 23  1  0  0  0
 23 11  1  0  0  0
 11 12  2  0  0  0
 11 15  1  0  0  0
 12 13  1  0  0  0
 12 14  1  0  0  0
 14 16  2  0  0  0
 16  8  1  0  0  0
  8  3  1  0  0  0
  3  4  1  0  0  0
  3  7  2  0  0  0
  4  5  2  0  0  0
  5  6  1  0  0  0
 24 29  1  0  0  0
 29 32  1  0  0  0
 33 35  1  0  0  0
 35 38  1  0  0  0
 35 36  2  0  0  0
 35 37  2  0  0  0
 38 39  1  0  0  0
 38 40  1  0  0  0
 38 41  1  0  0  0
  8  9  1  0  0  0
 24 25  1  0  0  0
 33 34  1  0  0  0
M  END
> <minimizedAffinity>
-8.31528

$$$$
5F62_5W1_A_201


 41 44  0  0  0  0  0  0  0  0999 V2000
   12.8367   -3.2775    1.8987 C   0  0  0  0  0  0  0  0  0  0  0  0
   12.5133   -5.1667    0.2012 C   0  0  0  0  0  0  0  0  0  0  0  0
   14.3892   -5.9803   -1.0015 C   0  0  0  0  0  0  0  0  0  0  0  0
   15.2029   -5.1021   -0.3685 N   0  0  0  0  0  0  0  0  0  0  0  0
   14.7166   -4.2458    0.5524 C   0  0  0  0  0  0  0  0  0  0  0  0
   13.3522   -4.2427    0.8843 C   0  0  0  0  0  0  0  0  0  0  0  0
   13.0678   -6.0000   -0.7049 N   0  0  0  0  0  0  0  0  0  0  0  0
   14.9284   -6.8182   -1.9304 N   0  0  0  0  0  0  0  0  0  0  0  0
   15.8858   -6.6636   -2.1002 H   0  0  0  0  0  0  0  0  0  0  0  0
   15.2156   -8.3773   -3.6899 C   0  0  0  0  0  0  0  0  0  0  0  0
   13.4780   -9.9751   -4.3181 C   0  0  0  0  0  0  0  0  0  0  0  0
   12.6613   -9.4349   -3.3019 C   0  0  0  0  0  0  0  0  0  0  0  0
   11.4803   -9.9398   -3.0996 F   0  0  0  0  0  0  0  0  0  0  0  0
   13.1065   -8.3744   -2.4794 C   0  0  0  0  0  0  0  0  0  0  0  0
   14.7621   -9.4272   -4.5138 C   0  0  0  0  0  0  0  0  0  0  0  0
   14.3911   -7.8315   -2.6700 C   0  0  0  0  0  0  0  0  0  0  0  0
   11.0951  -14.2909   -7.0615 C   0  0  0  0  0  0  0  0  0  0  0  0
   11.9675  -13.1782   -6.6030 N   0  0  0  0  0  0  0  0  0  0  0  0
   11.2396  -11.8798   -6.5948 C   0  0  0  0  0  0  0  0  0  0  0  0
   12.2109  -10.7218   -6.2682 C   0  0  0  0  0  0  0  0  0  0  0  0
   12.6260  -13.4610   -5.2976 C   0  0  0  0  0  0  0  0  0  0  0  0
   13.6231  -12.3268   -4.9684 C   0  0  0  0  0  0  0  0  0  0  0  0
   13.0162  -11.0157   -5.1044 N   0  0  0  0  0  0  0  0  0  0  0  0
   11.1737   -5.2368    0.4401 N   0  0  0  0  0  0  0  0  0  0  0  0
   10.8367   -4.6727    1.1732 H   0  0  0  0  0  0  0  0  0  0  0  0
   10.1779   -5.9223   -1.6029 C   0  0  0  0  0  0  0  0  0  0  0  0
    8.3541   -7.5349   -1.6029 C   0  0  0  0  0  0  0  0  0  0  0  0
    8.3953   -7.6209   -0.1980 C   0  0  0  0  0  0  0  0  0  0  0  0
   10.2405   -5.9917   -0.2103 C   0  0  0  0  0  0  0  0  0  0  0  0
    9.2231   -6.6889   -2.3020 C   0  0  0  0  0  0  0  0  0  0  0  0
    7.2300   -8.4472   -2.4836 Cl  0  0  0  0  0  0  0  0  0  0  0  0
    9.3440   -6.8437    0.4624 C   0  0  0  0  0  0  0  0  0  0  0  0
    7.4970   -8.4244    0.4724 N   0  0  0  0  0  0  0  0  0  0  0  0
    7.3714   -9.3347    0.1191 H   0  0  0  0  0  0  0  0  0  0  0  0
    6.5821   -8.0077    1.8470 S   0  0  0  0  0  0  0  0  0  0  0  0
    5.1558   -8.6075    1.6749 O   0  0  0  0  0  0  0  0  0  0  0  0
    6.5580   -6.4684    1.9872 O   0  0  0  0  0  0  0  0  0  0  0  0
    7.3832   -8.7803    3.2910 C   0  0  0  0  0  0  0  0  0  0  0  0
    8.5008   -7.8511    3.8360 C   0  0  0  0  0  0  0  0  0  0  0  0
    6.2712   -9.0118    4.3436 C   0  0  0  0  0  0  0  0  0  0  0  0
    8.0235  -10.1240    2.8397 C   0  0  0  0  0  0  0  0  0  0  0  0
 10 15  2  0  0  0
 10 16  1  0  0  0
  1  6  1  0  0  0
  2  6  2  0  0  0
  2 24  1  0  0  0
  2  7  1  0  0  0
 26 29  2  0  0  0
 26 30  1  0  0  0
 27 28  1  0  0  0
 27 30  2  0  0  0
 27 31  1  0  0  0
 28 33  1  0  0  0
 28 32  2  0  0  0
 17 18  1  0  0  0
 18 19  1  0  0  0
 18 21  1  0  0  0
 19 20  1  0  0  0
 20 23  1  0  0  0
 21 22  1  0  0  0
 22 23  1  0  0  0
 23 11  1  0  0  0
 11 12  2  0  0  0
 11 15  1  0  0  0
 12 13  1  0  0  0
 12 14  1  0  0  0
 14 16  2  0  0  0
 16  8  1  0  0  0
  8  3  1  0  0  0
  3  4  1  0  0  0
  3  7  2  0  0  0
  4  5  2  0  0  0
  5  6  1  0  0  0
 24 29  1  0  0  0
 29 32  1  0  0  0
 33 35  1  0  0  0
 35 38  1  0  0  0
 35 36  2  0  0  0
 35 37  2  0  0  0
 38 39  1  0  0  0
 38 40  1  0  0  0
 38 41  1  0  0  0
  8  9  1  0  0  0
 24 25  1  0  0  0
 33 34  1  0  0  0
M  END
> <minimizedAffinity>
-8.31152

$$$$
5F62_5W1_A_201


 41 44  0  0  0  0  0  0  0  0999 V2000
   13.1160   -3.0926    2.1706 C   0  0  0  0  0  0  0  0  0  0  0  0
   12.7462   -5.0711    0.5882 C   0  0  0  0  0  0  0  0  0  0  0  0
   14.5568   -5.8615   -0.7248 C   0  0  0  0  0  0  0  0  0  0  0  0
   15.3771   -4.9215   -0.1981 N   0  0  0  0  0  0  0  0  0  0  0  0
   14.9263   -4.0440    0.7208 C   0  0  0  0  0  0  0  0  0  0  0  0
   13.5934   -4.0820    1.1609 C   0  0  0  0  0  0  0  0  0  0  0  0
   13.2649   -5.9223   -0.3224 N   0  0  0  0  0  0  0  0  0  0  0  0
   15.0588   -6.7188   -1.6568 N   0  0  0  0  0  0  0  0  0  0  0  0
   16.0275   -6.6250   -1.8055 H   0  0  0  0  0  0  0  0  0  0  0  0
   15.2104   -8.1344   -3.5495 C   0  0  0  0  0  0  0  0  0  0  0  0
   13.4445   -9.7130   -4.1467 C   0  0  0  0  0  0  0  0  0  0  0  0
   12.7132   -9.2671   -3.0252 C   0  0  0  0  0  0  0  0  0  0  0  0
   11.5609   -9.8085   -2.7612 F   0  0  0  0  0  0  0  0  0  0  0  0
   13.2155   -8.2636   -2.1649 C   0  0  0  0  0  0  0  0  0  0  0  0
   14.6996   -9.1274   -4.4097 C   0  0  0  0  0  0  0  0  0  0  0  0
   14.4716   -7.6834   -2.4232 C   0  0  0  0  0  0  0  0  0  0  0  0
   10.7503  -13.6486   -7.1607 C   0  0  0  0  0  0  0  0  0  0  0  0
   11.7431  -12.7167   -6.5645 N   0  0  0  0  0  0  0  0  0  0  0  0
   11.3639  -11.2951   -6.7905 C   0  0  0  0  0  0  0  0  0  0  0  0
   12.4898  -10.3548   -6.3014 C   0  0  0  0  0  0  0  0  0  0  0  0
   12.0151  -13.0039   -5.1288 C   0  0  0  0  0  0  0  0  0  0  0  0
   13.1590  -12.0920   -4.6300 C   0  0  0  0  0  0  0  0  0  0  0  0
   12.9287  -10.6998   -4.9681 N   0  0  0  0  0  0  0  0  0  0  0  0
   11.4340   -5.1857    0.9368 N   0  0  0  0  0  0  0  0  0  0  0  0
   11.1415   -4.6370    1.7001 H   0  0  0  0  0  0  0  0  0  0  0  0
    9.4859   -6.5213    1.1743 C   0  0  0  0  0  0  0  0  0  0  0  0
    8.4643   -7.5650   -0.7735 C   0  0  0  0  0  0  0  0  0  0  0  0
    9.4512   -7.0189   -1.6164 C   0  0  0  0  0  0  0  0  0  0  0  0
   10.4741   -5.9663    0.3597 C   0  0  0  0  0  0  0  0  0  0  0  0
    8.4827   -7.3335    0.6070 C   0  0  0  0  0  0  0  0  0  0  0  0
    7.2336   -8.5375   -1.4147 Cl  0  0  0  0  0  0  0  0  0  0  0  0
   10.4330   -6.2289   -1.0228 C   0  0  0  0  0  0  0  0  0  0  0  0
    9.4407   -7.3004   -2.9665 N   0  0  0  0  0  0  0  0  0  0  0  0
    9.7386   -8.2007   -3.2310 H   0  0  0  0  0  0  0  0  0  0  0  0
    8.9667   -6.2544   -4.2242 S   0  0  0  0  0  0  0  0  0  0  0  0
    8.6700   -4.8585   -3.6022 O   0  0  0  0  0  0  0  0  0  0  0  0
    7.7329   -6.8530   -4.9376 O   0  0  0  0  0  0  0  0  0  0  0  0
   10.3751   -6.1079   -5.3725 C   0  0  0  0  0  0  0  0  0  0  0  0
   11.7065   -6.0746   -4.5753 C   0  0  0  0  0  0  0  0  0  0  0  0
   10.3067   -7.3339   -6.3162 C   0  0  0  0  0  0  0  0  0  0  0  0
   10.2303   -4.7764   -6.1634 C   0  0  0  0  0  0  0  0  0  0  0  0
 10 15  2  0  0  0
 10 16  1  0  0  0
  1  6  1  0  0  0
  2  6  2  0  0  0
  2 24  1  0  0  0
  2  7  1  0  0  0
 26 29  2  0  0  0
 26 30  1  0  0  0
 27 28  1  0  0  0
 27 30  2  0  0  0
 27 31  1  0  0  0
 28 33  1  0  0  0
 28 32  2  0  0  0
 17 18  1  0  0  0
 18 19  1  0  0  0
 18 21  1  0  0  0
 19 20  1  0  0  0
 20 23  1  0  0  0
 21 22  1  0  0  0
 22 23  1  0  0  0
 23 11  1  0  0  0
 11 12  2  0  0  0
 11 15  1  0  0  0
 12 13  1  0  0  0
 12 14  1  0  0  0
 14 16  2  0  0  0
 16  8  1  0  0  0
  8  3  1  0  0  0
  3  4  1  0  0  0
  3  7  2  0  0  0
  4  5  2  0  0  0
  5  6  1  0  0  0
 24 29  1  0  0  0
 29 32  1  0  0  0
 33 35  1  0  0  0
 35 38  1  0  0  0
 35 36  2  0  0  0
 35 37  2  0  0  0
 38 39  1  0  0  0
 38 40  1  0  0  0
 38 41  1  0  0  0
  8  9  1  0  0  0
 24 25  1  0  0  0
 33 34  1  0  0  0
M  END
> <minimizedAffinity>
-8.30065

$$$$
5F62_5W1_A_201


 41 44  0  0  0  0  0  0  0  0999 V2000
   13.3882   -3.1088    1.8732 C   0  0  0  0  0  0  0  0  0  0  0  0
   12.7136   -5.2314    0.6103 C   0  0  0  0  0  0  0  0  0  0  0  0
   14.3156   -6.3312   -0.7504 C   0  0  0  0  0  0  0  0  0  0  0  0
   15.2520   -5.4057   -0.4331 N   0  0  0  0  0  0  0  0  0  0  0  0
   14.9640   -4.3848    0.3991 C   0  0  0  0  0  0  0  0  0  0  0  0
   13.6850   -4.2540    0.9639 C   0  0  0  0  0  0  0  0  0  0  0  0
   13.0717   -6.2309   -0.2236 N   0  0  0  0  0  0  0  0  0  0  0  0
   14.6544   -7.3381   -1.6030 N   0  0  0  0  0  0  0  0  0  0  0  0
   15.0116   -8.1383   -1.1545 H   0  0  0  0  0  0  0  0  0  0  0  0
   15.3230   -8.5145   -3.5468 C   0  0  0  0  0  0  0  0  0  0  0  0
   14.5795   -7.8740   -5.7837 C   0  0  0  0  0  0  0  0  0  0  0  0
   13.8502   -6.8154   -5.2014 C   0  0  0  0  0  0  0  0  0  0  0  0
   13.1421   -6.0360   -5.9640 F   0  0  0  0  0  0  0  0  0  0  0  0
   13.8490   -6.5976   -3.8042 C   0  0  0  0  0  0  0  0  0  0  0  0
   15.3290   -8.7200   -4.9412 C   0  0  0  0  0  0  0  0  0  0  0  0
   14.5918   -7.4461   -2.9620 C   0  0  0  0  0  0  0  0  0  0  0  0
   14.0067   -8.1676  -11.3887 C   0  0  0  0  0  0  0  0  0  0  0  0
   14.3913   -8.3600   -9.9659 N   0  0  0  0  0  0  0  0  0  0  0  0
   15.0258   -7.1379   -9.4004 C   0  0  0  0  0  0  0  0  0  0  0  0
   15.5566   -7.4188   -7.9755 C   0  0  0  0  0  0  0  0  0  0  0  0
   13.2641   -8.8483   -9.1240 C   0  0  0  0  0  0  0  0  0  0  0  0
   13.7828   -9.1620   -7.7022 C   0  0  0  0  0  0  0  0  0  0  0  0
   14.5579   -8.0646   -7.1539 N   0  0  0  0  0  0  0  0  0  0  0  0
   11.4401   -5.1894    1.0931 N   0  0  0  0  0  0  0  0  0  0  0  0
   11.2559   -4.4910    1.7621 H   0  0  0  0  0  0  0  0  0  0  0  0
    9.7471   -6.7040    1.7820 C   0  0  0  0  0  0  0  0  0  0  0  0
    8.2069   -7.6524    0.1525 C   0  0  0  0  0  0  0  0  0  0  0  0
    8.8377   -6.9495   -0.8919 C   0  0  0  0  0  0  0  0  0  0  0  0
   10.3879   -5.9948    0.7649 C   0  0  0  0  0  0  0  0  0  0  0  0
    8.6586   -7.5454    1.4731 C   0  0  0  0  0  0  0  0  0  0  0  0
    6.8881   -8.6658   -0.1722 Cl  0  0  0  0  0  0  0  0  0  0  0  0
    9.9156   -6.1344   -0.5540 C   0  0  0  0  0  0  0  0  0  0  0  0
    8.4059   -7.1083   -2.1920 N   0  0  0  0  0  0  0  0  0  0  0  0
    7.5731   -6.6451   -2.4392 H   0  0  0  0  0  0  0  0  0  0  0  0
    9.1619   -8.0211   -3.4150 S   0  0  0  0  0  0  0  0  0  0  0  0
    8.1820   -9.1514   -3.8462 O   0  0  0  0  0  0  0  0  0  0  0  0
   10.4981   -8.5784   -2.8732 O   0  0  0  0  0  0  0  0  0  0  0  0
    9.4471   -6.9078   -4.8302 C   0  0  0  0  0  0  0  0  0  0  0  0
    8.0886   -6.4539   -5.4285 C   0  0  0  0  0  0  0  0  0  0  0  0
   10.2621   -5.7062   -4.2915 C   0  0  0  0  0  0  0  0  0  0  0  0
   10.2397   -7.6865   -5.9187 C   0  0  0  0  0  0  0  0  0  0  0  0
 10 15  2  0  0  0
 10 16  1  0  0  0
  1  6  1  0  0  0
  2  6  2  0  0  0
  2 24  1  0  0  0
  2  7  1  0  0  0
 26 29  2  0  0  0
 26 30  1  0  0  0
 27 28  1  0  0  0
 27 30  2  0  0  0
 27 31  1  0  0  0
 28 33  1  0  0  0
 28 32  2  0  0  0
 17 18  1  0  0  0
 18 19  1  0  0  0
 18 21  1  0  0  0
 19 20  1  0  0  0
 20 23  1  0  0  0
 21 22  1  0  0  0
 22 23  1  0  0  0
 23 11  1  0  0  0
 11 12  2  0  0  0
 11 15  1  0  0  0
 12 13  1  0  0  0
 12 14  1  0  0  0
 14 16  2  0  0  0
 16  8  1  0  0  0
  8  3  1  0  0  0
  3  4  1  0  0  0
  3  7  2  0  0  0
  4  5  2  0  0  0
  5  6  1  0  0  0
 24 29  1  0  0  0
 29 32  1  0  0  0
 33 35  1  0  0  0
 35 38  1  0  0  0
 35 36  2  0  0  0
 35 37  2  0  0  0
 38 39  1  0  0  0
 38 40  1  0  0  0
 38 41  1  0  0  0
  8  9  1  0  0  0
 24 25  1  0  0  0
 33 34  1  0  0  0
M  END
> <minimizedAffinity>
-8.22418

$$$$
5F62_5W1_A_201


 41 44  0  0  0  0  0  0  0  0999 V2000
   14.9954   -5.5650   -0.8803 C   0  0  0  0  0  0  0  0  0  0  0  0
   12.6516   -6.5479   -1.1896 C   0  0  0  0  0  0  0  0  0  0  0  0
   10.9258   -5.9300    0.3160 C   0  0  0  0  0  0  0  0  0  0  0  0
   11.7791   -5.1309    0.9998 N   0  0  0  0  0  0  0  0  0  0  0  0
   13.0680   -5.0101    0.6235 C   0  0  0  0  0  0  0  0  0  0  0  0
   13.5620   -5.7069   -0.4911 C   0  0  0  0  0  0  0  0  0  0  0  0
   11.3728   -6.6172   -0.7622 N   0  0  0  0  0  0  0  0  0  0  0  0
    9.6355   -6.0246    0.7424 N   0  0  0  0  0  0  0  0  0  0  0  0
    9.1122   -5.1999    0.6188 H   0  0  0  0  0  0  0  0  0  0  0  0
    9.3647   -7.4810    2.5903 C   0  0  0  0  0  0  0  0  0  0  0  0
    7.5879   -9.1544    2.6873 C   0  0  0  0  0  0  0  0  0  0  0  0
    7.1560   -8.7203    1.4158 C   0  0  0  0  0  0  0  0  0  0  0  0
    6.1127   -9.2763    0.8746 F   0  0  0  0  0  0  0  0  0  0  0  0
    7.8146   -7.6758    0.7268 C   0  0  0  0  0  0  0  0  0  0  0  0
    8.7107   -8.5301    3.2675 C   0  0  0  0  0  0  0  0  0  0  0  0
    8.9317   -7.0476    1.3087 C   0  0  0  0  0  0  0  0  0  0  0  0
    4.3175  -13.1412    4.9765 C   0  0  0  0  0  0  0  0  0  0  0  0
    5.4231  -12.2193    4.6064 N   0  0  0  0  0  0  0  0  0  0  0  0
    5.8241  -12.3894    3.1830 C   0  0  0  0  0  0  0  0  0  0  0  0
    7.0751  -11.5353    2.8718 C   0  0  0  0  0  0  0  0  0  0  0  0
    5.1265  -10.7986    4.9402 C   0  0  0  0  0  0  0  0  0  0  0  0
    6.3769   -9.9335    4.6623 C   0  0  0  0  0  0  0  0  0  0  0  0
    6.9205  -10.1762    3.3390 N   0  0  0  0  0  0  0  0  0  0  0  0
   13.0322   -7.2764   -2.2763 N   0  0  0  0  0  0  0  0  0  0  0  0
   13.3347   -8.1955   -2.0944 H   0  0  0  0  0  0  0  0  0  0  0  0
   14.2085   -7.0984   -4.3305 C   0  0  0  0  0  0  0  0  0  0  0  0
   13.1280   -6.1356   -6.2881 C   0  0  0  0  0  0  0  0  0  0  0  0
   11.9445   -5.9135   -5.5581 C   0  0  0  0  0  0  0  0  0  0  0  0
   13.0463   -6.8911   -3.5859 C   0  0  0  0  0  0  0  0  0  0  0  0
   14.2536   -6.7088   -5.6848 C   0  0  0  0  0  0  0  0  0  0  0  0
   13.2220   -5.6931   -7.9212 Cl  0  0  0  0  0  0  0  0  0  0  0  0
   11.9365   -6.3014   -4.2203 C   0  0  0  0  0  0  0  0  0  0  0  0
   10.8646   -5.3029   -6.1605 N   0  0  0  0  0  0  0  0  0  0  0  0
   10.8682   -4.3186   -6.1778 H   0  0  0  0  0  0  0  0  0  0  0  0
    9.5253   -6.0725   -6.8778 S   0  0  0  0  0  0  0  0  0  0  0  0
    9.6958   -7.6085   -6.6892 O   0  0  0  0  0  0  0  0  0  0  0  0
    9.4526   -5.6692   -8.3683 O   0  0  0  0  0  0  0  0  0  0  0  0
    8.0356   -5.5238   -5.9817 C   0  0  0  0  0  0  0  0  0  0  0  0
    8.4388   -4.8895   -4.6236 C   0  0  0  0  0  0  0  0  0  0  0  0
    7.3189   -4.5012   -6.8976 C   0  0  0  0  0  0  0  0  0  0  0  0
    7.1386   -6.7650   -5.7091 C   0  0  0  0  0  0  0  0  0  0  0  0
 10 15  2  0  0  0
 10 16  1  0  0  0
  1  6  1  0  0  0
  2  6  2  0  0  0
  2 24  1  0  0  0
  2  7  1  0  0  0
 26 29  2  0  0  0
 26 30  1  0  0  0
 27 28  1  0  0  0
 27 30  2  0  0  0
 27 31  1  0  0  0
 28 33  1  0  0  0
 28 32  2  0  0  0
 17 18  1  0  0  0
 18 19  1  0  0  0
 18 21  1  0  0  0
 19 20  1  0  0  0
 20 23  1  0  0  0
 21 22  1  0  0  0
 22 23  1  0  0  0
 23 11  1  0  0  0
 11 12  2  0  0  0
 11 15  1  0  0  0
 12 13  1  0  0  0
 12 14  1  0  0  0
 14 16  2  0  0  0
 16  8  1  0  0  0
  8  3  1  0  0  0
  3  4  1  0  0  0
  3  7  2  0  0  0
  4  5  2  0  0  0
  5  6  1  0  0  0
 24 29  1  0  0  0
 29 32  1  0  0  0
 33 35  1  0  0  0
 35 38  1  0  0  0
 35 36  2  0  0  0
 35 37  2  0  0  0
 38 39  1  0  0  0
 38 40  1  0  0  0
 38 41  1  0  0  0
  8  9  1  0  0  0
 24 25  1  0  0  0
 33 34  1  0  0  0
M  END
> <minimizedAffinity>
-8.07038

$$$$
5F62_5W1_A_201


 41 44  0  0  0  0  0  0  0  0999 V2000
   12.6076   -3.1901    1.6522 C   0  0  0  0  0  0  0  0  0  0  0  0
   12.2804   -5.4011    0.4035 C   0  0  0  0  0  0  0  0  0  0  0  0
   14.0937   -6.3252   -0.8153 C   0  0  0  0  0  0  0  0  0  0  0  0
   14.8890   -5.2882   -0.4599 N   0  0  0  0  0  0  0  0  0  0  0  0
   14.4238   -4.2943    0.3232 C   0  0  0  0  0  0  0  0  0  0  0  0
   13.1016   -4.3077    0.7961 C   0  0  0  0  0  0  0  0  0  0  0  0
   12.8127   -6.3655   -0.3772 N   0  0  0  0  0  0  0  0  0  0  0  0
   14.6090   -7.2996   -1.6158 N   0  0  0  0  0  0  0  0  0  0  0  0
   15.0593   -8.0240   -1.1242 H   0  0  0  0  0  0  0  0  0  0  0  0
   15.3953   -8.5373   -3.4756 C   0  0  0  0  0  0  0  0  0  0  0  0
   14.7587   -7.9955   -5.7708 C   0  0  0  0  0  0  0  0  0  0  0  0
   13.9840   -6.9284   -5.2682 C   0  0  0  0  0  0  0  0  0  0  0  0
   13.3044   -6.1910   -6.0958 F   0  0  0  0  0  0  0  0  0  0  0  0
   13.9072   -6.6575   -3.8824 C   0  0  0  0  0  0  0  0  0  0  0  0
   15.4766   -8.7957   -4.8589 C   0  0  0  0  0  0  0  0  0  0  0  0
   14.6185   -7.4604   -2.9710 C   0  0  0  0  0  0  0  0  0  0  0  0
   14.4249   -8.5772  -11.3727 C   0  0  0  0  0  0  0  0  0  0  0  0
   14.7838   -8.6597   -9.9326 N   0  0  0  0  0  0  0  0  0  0  0  0
   15.2206   -7.3397   -9.4010 C   0  0  0  0  0  0  0  0  0  0  0  0
   15.7366   -7.4889   -7.9509 C   0  0  0  0  0  0  0  0  0  0  0  0
   13.7083   -9.2709   -9.1036 C   0  0  0  0  0  0  0  0  0  0  0  0
   14.2170   -9.4544   -7.6556 C   0  0  0  0  0  0  0  0  0  0  0  0
   14.8110   -8.2384   -7.1319 N   0  0  0  0  0  0  0  0  0  0  0  0
   10.9801   -5.5036    0.7973 N   0  0  0  0  0  0  0  0  0  0  0  0
   10.7209   -4.9573    1.5742 H   0  0  0  0  0  0  0  0  0  0  0  0
    9.1485   -6.9826    1.1022 C   0  0  0  0  0  0  0  0  0  0  0  0
    7.9304   -7.8460   -0.8207 C   0  0  0  0  0  0  0  0  0  0  0  0
    8.7690   -7.1380   -1.7029 C   0  0  0  0  0  0  0  0  0  0  0  0
    9.9917   -6.2693    0.2489 C   0  0  0  0  0  0  0  0  0  0  0  0
    8.1200   -7.7836    0.5649 C   0  0  0  0  0  0  0  0  0  0  0  0
    6.6748   -8.8116   -1.4231 Cl  0  0  0  0  0  0  0  0  0  0  0  0
    9.7808   -6.3637   -1.1398 C   0  0  0  0  0  0  0  0  0  0  0  0
    8.5936   -7.2532   -3.0659 N   0  0  0  0  0  0  0  0  0  0  0  0
    8.2084   -8.0990   -3.3906 H   0  0  0  0  0  0  0  0  0  0  0  0
    8.9733   -6.0861   -4.2467 S   0  0  0  0  0  0  0  0  0  0  0  0
   10.4871   -6.2194   -4.5849 O   0  0  0  0  0  0  0  0  0  0  0  0
    8.6153   -4.6846   -3.7016 O   0  0  0  0  0  0  0  0  0  0  0  0
    7.9939   -6.4756   -5.7342 C   0  0  0  0  0  0  0  0  0  0  0  0
    6.9610   -7.5882   -5.4112 C   0  0  0  0  0  0  0  0  0  0  0  0
    7.2986   -5.1602   -6.1640 C   0  0  0  0  0  0  0  0  0  0  0  0
    8.9591   -6.9924   -6.8391 C   0  0  0  0  0  0  0  0  0  0  0  0
 10 15  2  0  0  0
 10 16  1  0  0  0
  1  6  1  0  0  0
  2  6  2  0  0  0
  2 24  1  0  0  0
  2  7  1  0  0  0
 26 29  2  0  0  0
 26 30  1  0  0  0
 27 28  1  0  0  0
 27 30  2  0  0  0
 27 31  1  0  0  0
 28 33  1  0  0  0
 28 32  2  0  0  0
 17 18  1  0  0  0
 18 19  1  0  0  0
 18 21  1  0  0  0
 19 20  1  0  0  0
 20 23  1  0  0  0
 21 22  1  0  0  0
 22 23  1  0  0  0
 23 11  1  0  0  0
 11 12  2  0  0  0
 11 15  1  0  0  0
 12 13  1  0  0  0
 12 14  1  0  0  0
 14 16  2  0  0  0
 16  8  1  0  0  0
  8  3  1  0  0  0
  3  4  1  0  0  0
  3  7  2  0  0  0
  4  5  2  0  0  0
  5  6  1  0  0  0
 24 29  1  0  0  0
 29 32  1  0  0  0
 33 35  1  0  0  0
 35 38  1  0  0  0
 35 36  2  0  0  0
 35 37  2  0  0  0
 38 39  1  0  0  0
 38 40  1  0  0  0
 38 41  1  0  0  0
  8  9  1  0  0  0
 24 25  1  0  0  0
 33 34  1  0  0  0
M  END
> <minimizedAffinity>
-7.88020

$$$$
5F62_5W1_A_201


 41 44  0  0  0  0  0  0  0  0999 V2000
   15.3148   -5.7360   -0.5989 C   0  0  0  0  0  0  0  0  0  0  0  0
   12.9591   -6.6646   -0.9773 C   0  0  0  0  0  0  0  0  0  0  0  0
   11.1656   -5.8552    0.3477 C   0  0  0  0  0  0  0  0  0  0  0  0
   12.0038   -5.0261    1.0140 N   0  0  0  0  0  0  0  0  0  0  0  0
   13.3180   -4.9829    0.7164 C   0  0  0  0  0  0  0  0  0  0  0  0
   13.8549   -5.7943   -0.2962 C   0  0  0  0  0  0  0  0  0  0  0  0
   11.6537   -6.6522   -0.6327 N   0  0  0  0  0  0  0  0  0  0  0  0
    9.8478   -5.8678    0.6927 N   0  0  0  0  0  0  0  0  0  0  0  0
    9.3687   -5.0369    0.4707 H   0  0  0  0  0  0  0  0  0  0  0  0
    8.1465   -7.4971    0.4480 C   0  0  0  0  0  0  0  0  0  0  0  0
    7.3557   -8.8534    2.3193 C   0  0  0  0  0  0  0  0  0  0  0  0
    8.2733   -8.1784    3.1524 C   0  0  0  0  0  0  0  0  0  0  0  0
    8.3548   -8.5086    4.4073 F   0  0  0  0  0  0  0  0  0  0  0  0
    9.1263   -7.1691    2.6494 C   0  0  0  0  0  0  0  0  0  0  0  0
    7.2911   -8.4949    0.9575 C   0  0  0  0  0  0  0  0  0  0  0  0
    9.0669   -6.8154    1.2882 C   0  0  0  0  0  0  0  0  0  0  0  0
    3.7457  -12.9237    3.8131 C   0  0  0  0  0  0  0  0  0  0  0  0
    4.7834  -11.8603    3.7699 N   0  0  0  0  0  0  0  0  0  0  0  0
    5.9134  -12.2345    2.8761 C   0  0  0  0  0  0  0  0  0  0  0  0
    7.0457  -11.1859    2.9745 C   0  0  0  0  0  0  0  0  0  0  0  0
    4.2240  -10.5209    3.4372 C   0  0  0  0  0  0  0  0  0  0  0  0
    5.3364   -9.4547    3.5585 C   0  0  0  0  0  0  0  0  0  0  0  0
    6.5367   -9.8398    2.8396 N   0  0  0  0  0  0  0  0  0  0  0  0
   13.3798   -7.5013   -1.9670 N   0  0  0  0  0  0  0  0  0  0  0  0
   14.3548   -7.5909   -2.0698 H   0  0  0  0  0  0  0  0  0  0  0  0
   12.6592   -9.6234   -2.7495 C   0  0  0  0  0  0  0  0  0  0  0  0
   11.0596   -9.7828   -4.5778 C   0  0  0  0  0  0  0  0  0  0  0  0
   11.0023   -8.3799   -4.6847 C   0  0  0  0  0  0  0  0  0  0  0  0
   12.6181   -8.2309   -2.8338 C   0  0  0  0  0  0  0  0  0  0  0  0
   11.8850  -10.4035   -3.6328 C   0  0  0  0  0  0  0  0  0  0  0  0
   10.1370  -10.7584   -5.6116 Cl  0  0  0  0  0  0  0  0  0  0  0  0
   11.7864   -7.6392   -3.8033 C   0  0  0  0  0  0  0  0  0  0  0  0
   10.2189   -7.7917   -5.6554 N   0  0  0  0  0  0  0  0  0  0  0  0
   10.5874   -7.7746   -6.5682 H   0  0  0  0  0  0  0  0  0  0  0  0
    8.6811   -7.0919   -5.4413 S   0  0  0  0  0  0  0  0  0  0  0  0
    8.0739   -7.6593   -4.1249 O   0  0  0  0  0  0  0  0  0  0  0  0
    7.8071   -7.4113   -6.6758 O   0  0  0  0  0  0  0  0  0  0  0  0
    8.9199   -5.2936   -5.2607 C   0  0  0  0  0  0  0  0  0  0  0  0
   10.3588   -4.9048   -5.6942 C   0  0  0  0  0  0  0  0  0  0  0  0
    7.8527   -4.6130   -6.1530 C   0  0  0  0  0  0  0  0  0  0  0  0
    8.7283   -4.9183   -3.7635 C   0  0  0  0  0  0  0  0  0  0  0  0
 10 15  2  0  0  0
 10 16  1  0  0  0
  1  6  1  0  0  0
  2  6  2  0  0  0
  2 24  1  0  0  0
  2  7  1  0  0  0
 26 29  2  0  0  0
 26 30  1  0  0  0
 27 28  1  0  0  0
 27 30  2  0  0  0
 27 31  1  0  0  0
 28 33  1  0  0  0
 28 32  2  0  0  0
 17 18  1  0  0  0
 18 19  1  0  0  0
 18 21  1  0  0  0
 19 20  1  0  0  0
 20 23  1  0  0  0
 21 22  1  0  0  0
 22 23  1  0  0  0
 23 11  1  0  0  0
 11 12  2  0  0  0
 11 15  1  0  0  0
 12 13  1  0  0  0
 12 14  1  0  0  0
 14 16  2  0  0  0
 16  8  1  0  0  0
  8  3  1  0  0  0
  3  4  1  0  0  0
  3  7  2  0  0  0
  4  5  2  0  0  0
  5  6  1  0  0  0
 24 29  1  0  0  0
 29 32  1  0  0  0
 33 35  1  0  0  0
 35 38  1  0  0  0
 35 36  2  0  0  0
 35 37  2  0  0  0
 38 39  1  0  0  0
 38 40  1  0  0  0
 38 41  1  0  0  0
  8  9  1  0  0  0
 24 25  1  0  0  0
 33 34  1  0  0  0
M  END
> <minimizedAffinity>
-7.71101

$$$$
5F62_5W1_A_201


 41 44  0  0  0  0  0  0  0  0999 V2000
    9.0223   -6.2734   -7.0466 C   0  0  0  0  0  0  0  0  0  0  0  0
   10.9431   -5.9826   -5.3790 C   0  0  0  0  0  0  0  0  0  0  0  0
   10.6973   -6.8099   -3.1693 C   0  0  0  0  0  0  0  0  0  0  0  0
    9.4511   -7.2580   -3.4529 N   0  0  0  0  0  0  0  0  0  0  0  0
    8.9172   -7.0928   -4.6798 C   0  0  0  0  0  0  0  0  0  0  0  0
    9.6399   -6.4540   -5.7004 C   0  0  0  0  0  0  0  0  0  0  0  0
   11.4186   -6.1874   -4.1321 N   0  0  0  0  0  0  0  0  0  0  0  0
   11.1874   -6.9935   -1.9117 N   0  0  0  0  0  0  0  0  0  0  0  0
   11.0364   -7.8974   -1.5520 H   0  0  0  0  0  0  0  0  0  0  0  0
   11.0489   -5.4408   -0.1287 C   0  0  0  0  0  0  0  0  0  0  0  0
   13.0256   -4.3826    0.8405 C   0  0  0  0  0  0  0  0  0  0  0  0
   13.8194   -5.1008   -0.0790 C   0  0  0  0  0  0  0  0  0  0  0  0
   15.1121   -4.9661   -0.0443 F   0  0  0  0  0  0  0  0  0  0  0  0
   13.2446   -5.9853   -1.0208 C   0  0  0  0  0  0  0  0  0  0  0  0
   11.6267   -4.5524    0.8006 C   0  0  0  0  0  0  0  0  0  0  0  0
   11.8484   -6.1602   -1.0566 C   0  0  0  0  0  0  0  0  0  0  0  0
   15.7712   -1.4454    4.7984 C   0  0  0  0  0  0  0  0  0  0  0  0
   14.8912   -1.9006    3.6904 N   0  0  0  0  0  0  0  0  0  0  0  0
   15.6826   -2.4129    2.5383 C   0  0  0  0  0  0  0  0  0  0  0  0
   14.7510   -2.7290    1.3453 C   0  0  0  0  0  0  0  0  0  0  0  0
   13.8562   -2.8734    4.1375 C   0  0  0  0  0  0  0  0  0  0  0  0
   12.8975   -3.1795    2.9643 C   0  0  0  0  0  0  0  0  0  0  0  0
   13.6172   -3.5274    1.7532 N   0  0  0  0  0  0  0  0  0  0  0  0
   11.7224   -5.3389   -6.2927 N   0  0  0  0  0  0  0  0  0  0  0  0
   11.5075   -4.3913   -6.4509 H   0  0  0  0  0  0  0  0  0  0  0  0
   12.5890   -6.0481   -8.3859 C   0  0  0  0  0  0  0  0  0  0  0  0
   14.8765   -6.8632   -8.5584 C   0  0  0  0  0  0  0  0  0  0  0  0
   15.0777   -6.6688   -7.1784 C   0  0  0  0  0  0  0  0  0  0  0  0
   12.7641   -5.8441   -7.0163 C   0  0  0  0  0  0  0  0  0  0  0  0
   13.6463   -6.5706   -9.1588 C   0  0  0  0  0  0  0  0  0  0  0  0
   16.1237   -7.4783   -9.5269 Cl  0  0  0  0  0  0  0  0  0  0  0  0
   14.0101   -6.1601   -6.4423 C   0  0  0  0  0  0  0  0  0  0  0  0
   16.2824   -7.0099   -6.6003 N   0  0  0  0  0  0  0  0  0  0  0  0
   16.9777   -6.3130   -6.5872 H   0  0  0  0  0  0  0  0  0  0  0  0
   16.6940   -8.5099   -5.9065 S   0  0  0  0  0  0  0  0  0  0  0  0
   16.0132   -9.6305   -6.7458 O   0  0  0  0  0  0  0  0  0  0  0  0
   16.2369   -8.5231   -4.4299 O   0  0  0  0  0  0  0  0  0  0  0  0
   18.5040   -8.6899   -6.0291 C   0  0  0  0  0  0  0  0  0  0  0  0
   18.8761   -9.4018   -7.3574 C   0  0  0  0  0  0  0  0  0  0  0  0
   19.0970   -7.2608   -5.9632 C   0  0  0  0  0  0  0  0  0  0  0  0
   18.9949   -9.5616   -4.8381 C   0  0  0  0  0  0  0  0  0  0  0  0
 10 15  2  0  0  0
 10 16  1  0  0  0
  1  6  1  0  0  0
  2  6  2  0  0  0
  2 24  1  0  0  0
  2  7  1  0  0  0
 26 29  2  0  0  0
 26 30  1  0  0  0
 27 28  1  0  0  0
 27 30  2  0  0  0
 27 31  1  0  0  0
 28 33  1  0  0  0
 28 32  2  0  0  0
 17 18  1  0  0  0
 18 19  1  0  0  0
 18 21  1  0  0  0
 19 20  1  0  0  0
 20 23  1  0  0  0
 21 22  1  0  0  0
 22 23  1  0  0  0
 23 11  1  0  0  0
 11 12  2  0  0  0
 11 15  1  0  0  0
 12 13  1  0  0  0
 12 14  1  0  0  0
 14 16  2  0  0  0
 16  8  1  0  0  0
  8  3  1  0  0  0
  3  4  1  0  0  0
  3  7  2  0  0  0
  4  5  2  0  0  0
  5  6  1  0  0  0
 24 29  1  0  0  0
 29 32  1  0  0  0
 33 35  1  0  0  0
 35 38  1  0  0  0
 35 36  2  0  0  0
 35 37  2  0  0  0
 38 39  1  0  0  0
 38 40  1  0  0  0
 38 41  1  0  0  0
  8  9  1  0  0  0
 24 25  1  0  0  0
 33 34  1  0  0  0
M  END
> <minimizedAffinity>
-7.69138

$$$$
