3N3J_WWV_A_263


 27 28  0  0  0  0  0  0  0  0999 V2000
   -4.1025    5.0541   13.1030 N   0  0  0  0  0  0  0  0  0  0  0  0
   -4.3631    4.9932   11.8044 C   0  0  0  0  0  0  0  0  0  0  0  0
   -4.8840    4.0056   11.2868 O   0  0  0  0  0  0  0  0  0  0  0  0
   -3.9501    6.0749   11.1124 N   0  0  0  0  0  0  0  0  0  0  0  0
   -3.5700    5.8235   13.4089 H   0  0  0  0  0  0  0  0  0  0  0  0
   -3.4414    6.7753   11.5813 H   0  0  0  0  0  0  0  0  0  0  0  0
   -5.6162    2.4492   16.0429 C   0  0  0  0  0  0  0  0  0  0  0  0
   -4.3000    2.2288   15.5846 C   0  0  0  0  0  0  0  0  0  0  0  0
   -3.7292    3.0743   14.6179 C   0  0  0  0  0  0  0  0  0  0  0  0
   -4.5117    4.1227   14.1053 C   0  0  0  0  0  0  0  0  0  0  0  0
   -5.8076    4.3382   14.5649 C   0  0  0  0  0  0  0  0  0  0  0  0
   -6.3827    3.4986   15.5197 C   0  0  0  0  0  0  0  0  0  0  0  0
   -5.4991    0.0343   17.1779 N   0  0  0  0  0  0  0  0  0  0  0  0
   -7.7566    1.1413   16.7684 O   0  0  0  0  0  0  0  0  0  0  0  0
   -6.3472    1.3782   17.2108 S   0  0  0  0  0  0  0  0  0  0  0  0
   -6.2693    2.0314   18.5785 O   0  0  0  0  0  0  0  0  0  0  0  0
   -5.5655   -0.3870   16.2513 H   0  0  0  0  0  0  0  0  0  0  0  0
   -5.8648   -0.6155   17.8739 H   0  0  0  0  0  0  0  0  0  0  0  0
   -4.2199    6.2314    9.7604 C   0  0  0  0  0  0  0  0  0  0  0  0
   -5.1170    7.2340    9.3708 C   0  0  0  0  0  0  0  0  0  0  0  0
   -5.4096    7.4000    8.0165 C   0  0  0  0  0  0  0  0  0  0  0  0
   -4.7877    6.5779    7.0650 C   0  0  0  0  0  0  0  0  0  0  0  0
   -3.8978    5.5736    7.4644 C   0  0  0  0  0  0  0  0  0  0  0  0
   -3.6096    5.3928    8.8196 C   0  0  0  0  0  0  0  0  0  0  0  0
   -5.8002    8.1380   10.4394 C   0  0  0  0  0  0  0  0  0  0  0  0
   -5.7308    9.6306   10.0745 C   0  0  0  0  0  0  0  0  0  0  0  0
   -7.2566    7.7380   10.7472 C   0  0  0  0  0  0  0  0  0  0  0  0
  8  7  2  0  0  0
 12  7  1  0  0  0
  7 15  1  0  0  0
 13 15  1  0  0  0
 14 15  2  0  0  0
 15 16  2  0  0  0
  9  8  1  0  0  0
 10  9  2  0  0  0
  1 10  1  0  0  0
 10 11  1  0  0  0
 11 12  2  0  0  0
  2  1  1  0  0  0
  4  2  1  0  0  0
  3  2  2  0  0  0
 19  4  1  0  0  0
 24 19  2  0  0  0
 19 20  1  0  0  0
 21 20  2  0  0  0
 20 25  1  0  0  0
 22 21  1  0  0  0
 23 22  2  0  0  0
 23 24  1  0  0  0
 25 26  1  0  0  0
 25 27  1  0  0  0
 13 17  1  0  0  0
 13 18  1  0  0  0
  1  5  1  0  0  0
  4  6  1  0  0  0
M  END
> <minimizedAffinity>
-7.70388

$$$$
3N3J_WWV_A_263


 27 28  0  0  0  0  0  0  0  0999 V2000
   -3.7542    4.5804   12.9859 N   0  0  0  0  0  0  0  0  0  0  0  0
   -3.9148    4.5099   11.6717 C   0  0  0  0  0  0  0  0  0  0  0  0
   -4.6639    3.6863   11.1470 O   0  0  0  0  0  0  0  0  0  0  0  0
   -3.1420    5.3717   10.9793 N   0  0  0  0  0  0  0  0  0  0  0  0
   -3.0423    5.1781   13.3104 H   0  0  0  0  0  0  0  0  0  0  0  0
   -2.4866    5.9217   11.4663 H   0  0  0  0  0  0  0  0  0  0  0  0
   -5.7013    2.3090   15.9471 C   0  0  0  0  0  0  0  0  0  0  0  0
   -6.3323    3.4912   15.5052 C   0  0  0  0  0  0  0  0  0  0  0  0
   -5.7435    4.2843   14.5054 C   0  0  0  0  0  0  0  0  0  0  0  0
   -4.5035    3.8821   13.9811 C   0  0  0  0  0  0  0  0  0  0  0  0
   -3.8884    2.7123   14.4175 C   0  0  0  0  0  0  0  0  0  0  0  0
   -4.4644    1.9238   15.4143 C   0  0  0  0  0  0  0  0  0  0  0  0
   -5.5656   -0.0069   17.2707 N   0  0  0  0  0  0  0  0  0  0  0  0
   -7.8275    1.0814   16.8364 O   0  0  0  0  0  0  0  0  0  0  0  0
   -6.4046    1.3420   17.2183 S   0  0  0  0  0  0  0  0  0  0  0  0
   -6.2837    2.1032   18.5257 O   0  0  0  0  0  0  0  0  0  0  0  0
   -5.6610   -0.5013   16.3837 H   0  0  0  0  0  0  0  0  0  0  0  0
   -5.9149   -0.5953   18.0272 H   0  0  0  0  0  0  0  0  0  0  0  0
   -3.2419    5.5073    9.6020 C   0  0  0  0  0  0  0  0  0  0  0  0
   -2.2043    5.0069    8.8054 C   0  0  0  0  0  0  0  0  0  0  0  0
   -2.2811    5.1433    7.4187 C   0  0  0  0  0  0  0  0  0  0  0  0
   -3.4022    5.7583    6.8418 C   0  0  0  0  0  0  0  0  0  0  0  0
   -4.4313    6.2620    7.6465 C   0  0  0  0  0  0  0  0  0  0  0  0
   -4.3553    6.1407    9.0364 C   0  0  0  0  0  0  0  0  0  0  0  0
   -0.9655    4.3275    9.4612 C   0  0  0  0  0  0  0  0  0  0  0  0
   -1.2037    2.8372    9.7577 C   0  0  0  0  0  0  0  0  0  0  0  0
    0.3352    4.5027    8.6530 C   0  0  0  0  0  0  0  0  0  0  0  0
  8  7  2  0  0  0
 12  7  1  0  0  0
  7 15  1  0  0  0
 13 15  1  0  0  0
 14 15  2  0  0  0
 15 16  2  0  0  0
  9  8  1  0  0  0
 10  9  2  0  0  0
  1 10  1  0  0  0
 10 11  1  0  0  0
 11 12  2  0  0  0
  2  1  1  0  0  0
  4  2  1  0  0  0
  3  2  2  0  0  0
 19  4  1  0  0  0
 24 19  2  0  0  0
 19 20  1  0  0  0
 21 20  2  0  0  0
 20 25  1  0  0  0
 22 21  1  0  0  0
 23 22  2  0  0  0
 23 24  1  0  0  0
 25 26  1  0  0  0
 25 27  1  0  0  0
 13 17  1  0  0  0
 13 18  1  0  0  0
  1  5  1  0  0  0
  4  6  1  0  0  0
M  END
> <minimizedAffinity>
-7.28115

$$$$
3N3J_WWV_A_263


 27 28  0  0  0  0  0  0  0  0999 V2000
   -3.3391    5.2597   13.7323 N   0  0  0  0  0  0  0  0  0  0  0  0
   -3.0690    6.4991   14.1180 C   0  0  0  0  0  0  0  0  0  0  0  0
   -3.5781    6.9981   15.1214 O   0  0  0  0  0  0  0  0  0  0  0  0
   -2.2466    7.1652   13.2818 N   0  0  0  0  0  0  0  0  0  0  0  0
   -2.9910    4.9873   12.8526 H   0  0  0  0  0  0  0  0  0  0  0  0
   -1.9699    6.7339   12.4412 H   0  0  0  0  0  0  0  0  0  0  0  0
   -5.2301    2.2225   15.9503 C   0  0  0  0  0  0  0  0  0  0  0  0
   -6.0384    3.2532   15.4257 C   0  0  0  0  0  0  0  0  0  0  0  0
   -5.4711    4.2866   14.6604 C   0  0  0  0  0  0  0  0  0  0  0  0
   -4.0809    4.2775   14.4565 C   0  0  0  0  0  0  0  0  0  0  0  0
   -3.2895    3.2554   14.9723 C   0  0  0  0  0  0  0  0  0  0  0  0
   -3.8455    2.2301   15.7384 C   0  0  0  0  0  0  0  0  0  0  0  0
   -7.4970    1.0709   16.7681 N   0  0  0  0  0  0  0  0  0  0  0  0
   -5.5063    1.2299   18.3496 O   0  0  0  0  0  0  0  0  0  0  0  0
   -5.9205    0.9600   16.9375 S   0  0  0  0  0  0  0  0  0  0  0  0
   -5.4167   -0.3786   16.4298 O   0  0  0  0  0  0  0  0  0  0  0  0
   -7.8133    1.9765   17.1150 H   0  0  0  0  0  0  0  0  0  0  0  0
   -7.9492    0.3266   17.2990 H   0  0  0  0  0  0  0  0  0  0  0  0
   -1.7782    8.4392   13.5694 C   0  0  0  0  0  0  0  0  0  0  0  0
   -1.9806    9.4534   12.6247 C   0  0  0  0  0  0  0  0  0  0  0  0
   -1.5074   10.7390   12.8908 C   0  0  0  0  0  0  0  0  0  0  0  0
   -0.8566   11.0026   14.1052 C   0  0  0  0  0  0  0  0  0  0  0  0
   -0.6524    9.9809   15.0404 C   0  0  0  0  0  0  0  0  0  0  0  0
   -1.1120    8.6882   14.7755 C   0  0  0  0  0  0  0  0  0  0  0  0
   -2.7041    9.1444   11.2804 C   0  0  0  0  0  0  0  0  0  0  0  0
   -3.4608   10.3647   10.7288 C   0  0  0  0  0  0  0  0  0  0  0  0
   -1.7730    8.5674   10.1961 C   0  0  0  0  0  0  0  0  0  0  0  0
  8  7  2  0  0  0
 12  7  1  0  0  0
  7 15  1  0  0  0
 13 15  1  0  0  0
 14 15  2  0  0  0
 15 16  2  0  0  0
  9  8  1  0  0  0
 10  9  2  0  0  0
  1 10  1  0  0  0
 10 11  1  0  0  0
 11 12  2  0  0  0
  2  1  1  0  0  0
  4  2  1  0  0  0
  3  2  2  0  0  0
 19  4  1  0  0  0
 24 19  2  0  0  0
 19 20  1  0  0  0
 21 20  2  0  0  0
 20 25  1  0  0  0
 22 21  1  0  0  0
 23 22  2  0  0  0
 23 24  1  0  0  0
 25 26  1  0  0  0
 25 27  1  0  0  0
 13 17  1  0  0  0
 13 18  1  0  0  0
  1  5  1  0  0  0
  4  6  1  0  0  0
M  END
> <minimizedAffinity>
-7.25857

$$$$
3N3J_WWV_A_263


 27 28  0  0  0  0  0  0  0  0999 V2000
   -3.7939    5.2617   13.4653 N   0  0  0  0  0  0  0  0  0  0  0  0
   -2.5743    5.7572   13.6239 C   0  0  0  0  0  0  0  0  0  0  0  0
   -1.9029    5.5340   14.6310 O   0  0  0  0  0  0  0  0  0  0  0  0
   -2.1774    6.5654   12.6196 N   0  0  0  0  0  0  0  0  0  0  0  0
   -4.3066    5.5945   12.6936 H   0  0  0  0  0  0  0  0  0  0  0  0
   -2.8155    6.7831   11.9022 H   0  0  0  0  0  0  0  0  0  0  0  0
   -5.4175    2.2441   15.9102 C   0  0  0  0  0  0  0  0  0  0  0  0
   -6.2133    3.3806   15.6534 C   0  0  0  0  0  0  0  0  0  0  0  0
   -5.7369    4.4149   14.8297 C   0  0  0  0  0  0  0  0  0  0  0  0
   -4.4431    4.2971   14.2944 C   0  0  0  0  0  0  0  0  0  0  0  0
   -3.6648    3.1712   14.5472 C   0  0  0  0  0  0  0  0  0  0  0  0
   -4.1292    2.1438   15.3693 C   0  0  0  0  0  0  0  0  0  0  0  0
   -7.5718    1.0058   16.8895 N   0  0  0  0  0  0  0  0  0  0  0  0
   -5.5019    1.3029   18.3444 O   0  0  0  0  0  0  0  0  0  0  0  0
   -5.9845    0.9760   16.9664 S   0  0  0  0  0  0  0  0  0  0  0  0
   -5.4451   -0.3494   16.4609 O   0  0  0  0  0  0  0  0  0  0  0  0
   -7.9121    1.9037   17.2334 H   0  0  0  0  0  0  0  0  0  0  0  0
   -7.9542    0.2547   17.4639 H   0  0  0  0  0  0  0  0  0  0  0  0
   -0.8979    7.0994   12.5659 C   0  0  0  0  0  0  0  0  0  0  0  0
   -0.6645    8.3354   13.1820 C   0  0  0  0  0  0  0  0  0  0  0  0
    0.6131    8.8943   13.1296 C   0  0  0  0  0  0  0  0  0  0  0  0
    1.6480    8.2035   12.4816 C   0  0  0  0  0  0  0  0  0  0  0  0
    1.4036    6.9718   11.8624 C   0  0  0  0  0  0  0  0  0  0  0  0
    0.1239    6.4120   11.8995 C   0  0  0  0  0  0  0  0  0  0  0  0
   -1.8243    9.0906   13.8966 C   0  0  0  0  0  0  0  0  0  0  0  0
   -1.7709    8.9331   15.4257 C   0  0  0  0  0  0  0  0  0  0  0  0
   -1.9120   10.5834   13.5233 C   0  0  0  0  0  0  0  0  0  0  0  0
  8  7  2  0  0  0
 12  7  1  0  0  0
  7 15  1  0  0  0
 13 15  1  0  0  0
 14 15  2  0  0  0
 15 16  2  0  0  0
  9  8  1  0  0  0
 10  9  2  0  0  0
  1 10  1  0  0  0
 10 11  1  0  0  0
 11 12  2  0  0  0
  2  1  1  0  0  0
  4  2  1  0  0  0
  3  2  2  0  0  0
 19  4  1  0  0  0
 24 19  2  0  0  0
 19 20  1  0  0  0
 21 20  2  0  0  0
 20 25  1  0  0  0
 22 21  1  0  0  0
 23 22  2  0  0  0
 23 24  1  0  0  0
 25 26  1  0  0  0
 25 27  1  0  0  0
 13 17  1  0  0  0
 13 18  1  0  0  0
  1  5  1  0  0  0
  4  6  1  0  0  0
M  END
> <minimizedAffinity>
-7.18184

$$$$
3N3J_WWV_A_263


 27 28  0  0  0  0  0  0  0  0999 V2000
   -4.1480    5.0293   13.1497 N   0  0  0  0  0  0  0  0  0  0  0  0
   -4.3667    4.9433   11.8447 C   0  0  0  0  0  0  0  0  0  0  0  0
   -4.8346    3.9307   11.3247 O   0  0  0  0  0  0  0  0  0  0  0  0
   -3.9735    6.0315   11.1514 N   0  0  0  0  0  0  0  0  0  0  0  0
   -3.6540    5.8219   13.4613 H   0  0  0  0  0  0  0  0  0  0  0  0
   -3.5057    6.7560   11.6262 H   0  0  0  0  0  0  0  0  0  0  0  0
   -5.6477    2.4163   16.0895 C   0  0  0  0  0  0  0  0  0  0  0  0
   -4.3335    2.1974   15.6246 C   0  0  0  0  0  0  0  0  0  0  0  0
   -3.7673    3.0456   14.6576 C   0  0  0  0  0  0  0  0  0  0  0  0
   -4.5524    4.0952   14.1513 C   0  0  0  0  0  0  0  0  0  0  0  0
   -5.8462    4.3091   14.6175 C   0  0  0  0  0  0  0  0  0  0  0  0
   -6.4167    3.4668   15.5726 C   0  0  0  0  0  0  0  0  0  0  0  0
   -5.5343   -0.0072   17.2065 N   0  0  0  0  0  0  0  0  0  0  0  0
   -7.7887    1.1174   16.8292 O   0  0  0  0  0  0  0  0  0  0  0  0
   -6.3730    1.3420   17.2578 S   0  0  0  0  0  0  0  0  0  0  0  0
   -6.2760    1.9851   18.6291 O   0  0  0  0  0  0  0  0  0  0  0  0
   -5.6135   -0.4216   16.2778 H   0  0  0  0  0  0  0  0  0  0  0  0
   -5.8967   -0.6595   17.9019 H   0  0  0  0  0  0  0  0  0  0  0  0
   -4.2079    6.1616    9.7901 C   0  0  0  0  0  0  0  0  0  0  0  0
   -3.1854    5.8085    8.9003 C   0  0  0  0  0  0  0  0  0  0  0  0
   -3.3979    5.9425    7.5277 C   0  0  0  0  0  0  0  0  0  0  0  0
   -4.6354    6.4071    7.0579 C   0  0  0  0  0  0  0  0  0  0  0  0
   -5.6491    6.7645    7.9550 C   0  0  0  0  0  0  0  0  0  0  0  0
   -5.4392    6.6453    9.3313 C   0  0  0  0  0  0  0  0  0  0  0  0
   -1.8164    5.2952    9.4377 C   0  0  0  0  0  0  0  0  0  0  0  0
   -1.3233    4.0470    8.6862 C   0  0  0  0  0  0  0  0  0  0  0  0
   -0.7143    6.3726    9.4499 C   0  0  0  0  0  0  0  0  0  0  0  0
  8  7  2  0  0  0
 12  7  1  0  0  0
  7 15  1  0  0  0
 13 15  1  0  0  0
 14 15  2  0  0  0
 15 16  2  0  0  0
  9  8  1  0  0  0
 10  9  2  0  0  0
  1 10  1  0  0  0
 10 11  1  0  0  0
 11 12  2  0  0  0
  2  1  1  0  0  0
  4  2  1  0  0  0
  3  2  2  0  0  0
 19  4  1  0  0  0
 24 19  2  0  0  0
 19 20  1  0  0  0
 21 20  2  0  0  0
 20 25  1  0  0  0
 22 21  1  0  0  0
 23 22  2  0  0  0
 23 24  1  0  0  0
 25 26  1  0  0  0
 25 27  1  0  0  0
 13 17  1  0  0  0
 13 18  1  0  0  0
  1  5  1  0  0  0
  4  6  1  0  0  0
M  END
> <minimizedAffinity>
-7.11374

$$$$
3N3J_WWV_A_263


 27 28  0  0  0  0  0  0  0  0999 V2000
   -3.2046    4.7714   13.3808 N   0  0  0  0  0  0  0  0  0  0  0  0
   -3.5168    6.0016   12.9973 C   0  0  0  0  0  0  0  0  0  0  0  0
   -4.6324    6.4843   13.1907 O   0  0  0  0  0  0  0  0  0  0  0  0
   -2.5292    6.6341   12.3312 N   0  0  0  0  0  0  0  0  0  0  0  0
   -2.3374    4.4216   13.0726 H   0  0  0  0  0  0  0  0  0  0  0  0
   -1.7045    6.1400   12.1192 H   0  0  0  0  0  0  0  0  0  0  0  0
   -5.2354    2.0903   15.9120 C   0  0  0  0  0  0  0  0  0  0  0  0
   -6.0118    2.9731   15.1316 C   0  0  0  0  0  0  0  0  0  0  0  0
   -5.3953    3.8798   14.2523 C   0  0  0  0  0  0  0  0  0  0  0  0
   -3.9916    3.8996   14.1932 C   0  0  0  0  0  0  0  0  0  0  0  0
   -3.2313    3.0229   14.9617 C   0  0  0  0  0  0  0  0  0  0  0  0
   -3.8368    2.1247   15.8414 C   0  0  0  0  0  0  0  0  0  0  0  0
   -7.5598    1.1884   16.8699 N   0  0  0  0  0  0  0  0  0  0  0  0
   -5.5387    1.3859   18.4081 O   0  0  0  0  0  0  0  0  0  0  0  0
   -5.9915    0.9918   17.0376 S   0  0  0  0  0  0  0  0  0  0  0  0
   -5.5841   -0.4247   16.6758 O   0  0  0  0  0  0  0  0  0  0  0  0
   -7.8109    2.1454   17.1178 H   0  0  0  0  0  0  0  0  0  0  0  0
   -8.0514    0.5382   17.4831 H   0  0  0  0  0  0  0  0  0  0  0  0
   -2.6391    7.9595   11.9354 C   0  0  0  0  0  0  0  0  0  0  0  0
   -2.0848    8.9492   12.7570 C   0  0  0  0  0  0  0  0  0  0  0  0
   -2.1944   10.2888   12.3816 C   0  0  0  0  0  0  0  0  0  0  0  0
   -2.8371   10.6238   11.1805 C   0  0  0  0  0  0  0  0  0  0  0  0
   -3.3945    9.6281   10.3692 C   0  0  0  0  0  0  0  0  0  0  0  0
   -3.3000    8.2856   10.7449 C   0  0  0  0  0  0  0  0  0  0  0  0
   -1.3752    8.5612   14.0882 C   0  0  0  0  0  0  0  0  0  0  0  0
   -0.1176    9.4074   14.3495 C   0  0  0  0  0  0  0  0  0  0  0  0
   -2.3034    8.6029   15.3180 C   0  0  0  0  0  0  0  0  0  0  0  0
  8  7  2  0  0  0
 12  7  1  0  0  0
  7 15  1  0  0  0
 13 15  1  0  0  0
 14 15  2  0  0  0
 15 16  2  0  0  0
  9  8  1  0  0  0
 10  9  2  0  0  0
  1 10  1  0  0  0
 10 11  1  0  0  0
 11 12  2  0  0  0
  2  1  1  0  0  0
  4  2  1  0  0  0
  3  2  2  0  0  0
 19  4  1  0  0  0
 24 19  2  0  0  0
 19 20  1  0  0  0
 21 20  2  0  0  0
 20 25  1  0  0  0
 22 21  1  0  0  0
 23 22  2  0  0  0
 23 24  1  0  0  0
 25 26  1  0  0  0
 25 27  1  0  0  0
 13 17  1  0  0  0
 13 18  1  0  0  0
  1  5  1  0  0  0
  4  6  1  0  0  0
M  END
> <minimizedAffinity>
-7.11052

$$$$
3N3J_WWV_A_263


 27 28  0  0  0  0  0  0  0  0999 V2000
   -3.4622    4.5248   13.3151 N   0  0  0  0  0  0  0  0  0  0  0  0
   -2.1731    4.7435   13.0954 C   0  0  0  0  0  0  0  0  0  0  0  0
   -1.2996    4.3282   13.8565 O   0  0  0  0  0  0  0  0  0  0  0  0
   -1.9247    5.5054   12.0104 N   0  0  0  0  0  0  0  0  0  0  0  0
   -4.0949    5.0005   12.7297 H   0  0  0  0  0  0  0  0  0  0  0  0
   -2.6829    5.8921   11.5156 H   0  0  0  0  0  0  0  0  0  0  0  0
   -5.4377    2.1590   16.1822 C   0  0  0  0  0  0  0  0  0  0  0  0
   -4.0781    1.8819   15.9258 C   0  0  0  0  0  0  0  0  0  0  0  0
   -3.3564    2.6475   14.9939 C   0  0  0  0  0  0  0  0  0  0  0  0
   -4.0311    3.6730   14.3102 C   0  0  0  0  0  0  0  0  0  0  0  0
   -5.3710    3.9448   14.5711 C   0  0  0  0  0  0  0  0  0  0  0  0
   -6.0950    3.1844   15.4903 C   0  0  0  0  0  0  0  0  0  0  0  0
   -6.2955    1.9423   18.7023 N   0  0  0  0  0  0  0  0  0  0  0  0
   -5.6766   -0.1473   17.3832 O   0  0  0  0  0  0  0  0  0  0  0  0
   -6.3518    1.1856   17.3057 S   0  0  0  0  0  0  0  0  0  0  0  0
   -7.7807    1.0850   16.8043 O   0  0  0  0  0  0  0  0  0  0  0  0
   -5.3278    1.9984   19.0198 H   0  0  0  0  0  0  0  0  0  0  0  0
   -6.8495    1.4304   19.3889 H   0  0  0  0  0  0  0  0  0  0  0  0
   -0.6341    5.7610   11.5698 C   0  0  0  0  0  0  0  0  0  0  0  0
   -0.0918    4.9343   10.5777 C   0  0  0  0  0  0  0  0  0  0  0  0
    1.2087    5.1686   10.1291 C   0  0  0  0  0  0  0  0  0  0  0  0
    1.9452    6.2379   10.6602 C   0  0  0  0  0  0  0  0  0  0  0  0
    1.3974    7.0546   11.6567 C   0  0  0  0  0  0  0  0  0  0  0  0
    0.1006    6.8183   12.1203 C   0  0  0  0  0  0  0  0  0  0  0  0
   -0.9220    3.7503    9.9988 C   0  0  0  0  0  0  0  0  0  0  0  0
   -0.7321    3.5891    8.4810 C   0  0  0  0  0  0  0  0  0  0  0  0
   -0.6603    2.4072   10.7082 C   0  0  0  0  0  0  0  0  0  0  0  0
  8  7  2  0  0  0
 12  7  1  0  0  0
  7 15  1  0  0  0
 13 15  1  0  0  0
 14 15  2  0  0  0
 15 16  2  0  0  0
  9  8  1  0  0  0
 10  9  2  0  0  0
  1 10  1  0  0  0
 10 11  1  0  0  0
 11 12  2  0  0  0
  2  1  1  0  0  0
  4  2  1  0  0  0
  3  2  2  0  0  0
 19  4  1  0  0  0
 24 19  2  0  0  0
 19 20  1  0  0  0
 21 20  2  0  0  0
 20 25  1  0  0  0
 22 21  1  0  0  0
 23 22  2  0  0  0
 23 24  1  0  0  0
 25 26  1  0  0  0
 25 27  1  0  0  0
 13 17  1  0  0  0
 13 18  1  0  0  0
  1  5  1  0  0  0
  4  6  1  0  0  0
M  END
> <minimizedAffinity>
-6.88529

$$$$
3N3J_WWV_A_263


 27 28  0  0  0  0  0  0  0  0999 V2000
   -4.8566    6.4766   12.4723 N   0  0  0  0  0  0  0  0  0  0  0  0
   -5.3882    6.5464   11.2597 C   0  0  0  0  0  0  0  0  0  0  0  0
   -5.5730    5.5457   10.5673 O   0  0  0  0  0  0  0  0  0  0  0  0
   -5.6417    7.8047   10.8452 N   0  0  0  0  0  0  0  0  0  0  0  0
   -4.6261    7.3323   12.9012 H   0  0  0  0  0  0  0  0  0  0  0  0
   -5.3626    8.5590   11.4129 H   0  0  0  0  0  0  0  0  0  0  0  0
   -4.3665    3.0051   14.8022 C   0  0  0  0  0  0  0  0  0  0  0  0
   -3.3115    3.3720   13.9400 C   0  0  0  0  0  0  0  0  0  0  0  0
   -3.4049    4.5304   13.1495 C   0  0  0  0  0  0  0  0  0  0  0  0
   -4.5828    5.2929   13.2229 C   0  0  0  0  0  0  0  0  0  0  0  0
   -5.6180    4.9287   14.0790 C   0  0  0  0  0  0  0  0  0  0  0  0
   -5.5343    3.7764   14.8617 C   0  0  0  0  0  0  0  0  0  0  0  0
   -5.2063    1.7795   17.0217 N   0  0  0  0  0  0  0  0  0  0  0  0
   -2.8456    1.3704   16.1562 O   0  0  0  0  0  0  0  0  0  0  0  0
   -4.2761    1.5455   15.7543 S   0  0  0  0  0  0  0  0  0  0  0  0
   -4.7896    0.3900   14.9148 O   0  0  0  0  0  0  0  0  0  0  0  0
   -4.8435    2.5589   17.5705 H   0  0  0  0  0  0  0  0  0  0  0  0
   -5.2180    0.9361   17.5953 H   0  0  0  0  0  0  0  0  0  0  0  0
   -6.2834    8.0691    9.6438 C   0  0  0  0  0  0  0  0  0  0  0  0
   -5.5020    8.3924    8.5271 C   0  0  0  0  0  0  0  0  0  0  0  0
   -6.1294    8.6722    7.3124 C   0  0  0  0  0  0  0  0  0  0  0  0
   -7.5276    8.6054    7.2206 C   0  0  0  0  0  0  0  0  0  0  0  0
   -8.3008    8.2884    8.3439 C   0  0  0  0  0  0  0  0  0  0  0  0
   -7.6806    8.0196    9.5667 C   0  0  0  0  0  0  0  0  0  0  0  0
   -3.9506    8.4635    8.6456 C   0  0  0  0  0  0  0  0  0  0  0  0
   -3.2638    7.1955    8.1104 C   0  0  0  0  0  0  0  0  0  0  0  0
   -3.3372    9.7137    7.9850 C   0  0  0  0  0  0  0  0  0  0  0  0
  8  7  2  0  0  0
 12  7  1  0  0  0
  7 15  1  0  0  0
 13 15  1  0  0  0
 14 15  2  0  0  0
 15 16  2  0  0  0
  9  8  1  0  0  0
 10  9  2  0  0  0
  1 10  1  0  0  0
 10 11  1  0  0  0
 11 12  2  0  0  0
  2  1  1  0  0  0
  4  2  1  0  0  0
  3  2  2  0  0  0
 19  4  1  0  0  0
 24 19  2  0  0  0
 19 20  1  0  0  0
 21 20  2  0  0  0
 20 25  1  0  0  0
 22 21  1  0  0  0
 23 22  2  0  0  0
 23 24  1  0  0  0
 25 26  1  0  0  0
 25 27  1  0  0  0
 13 17  1  0  0  0
 13 18  1  0  0  0
  1  5  1  0  0  0
  4  6  1  0  0  0
M  END
> <minimizedAffinity>
-6.79001

$$$$
3N3J_WWV_A_263


 27 28  0  0  0  0  0  0  0  0999 V2000
   -4.0717    5.8146   11.3809 N   0  0  0  0  0  0  0  0  0  0  0  0
   -4.9728    6.7458   11.1000 C   0  0  0  0  0  0  0  0  0  0  0  0
   -6.0460    6.8198   11.6979 O   0  0  0  0  0  0  0  0  0  0  0  0
   -4.6285    7.5474   10.0713 N   0  0  0  0  0  0  0  0  0  0  0  0
   -3.3023    5.7489   10.7702 H   0  0  0  0  0  0  0  0  0  0  0  0
   -3.8024    7.3539    9.5718 H   0  0  0  0  0  0  0  0  0  0  0  0
   -4.2262    2.8667   14.3818 C   0  0  0  0  0  0  0  0  0  0  0  0
   -3.8008    4.1599   14.7526 C   0  0  0  0  0  0  0  0  0  0  0  0
   -3.7451    5.1936   13.8020 C   0  0  0  0  0  0  0  0  0  0  0  0
   -4.0980    4.8968   12.4747 C   0  0  0  0  0  0  0  0  0  0  0  0
   -4.5216    3.6204   12.1161 C   0  0  0  0  0  0  0  0  0  0  0  0
   -4.5730    2.5881   13.0535 C   0  0  0  0  0  0  0  0  0  0  0  0
   -4.6196    0.2489   14.7368 N   0  0  0  0  0  0  0  0  0  0  0  0
   -5.3183    1.8991   16.5474 O   0  0  0  0  0  0  0  0  0  0  0  0
   -4.2567    1.5675   15.5466 S   0  0  0  0  0  0  0  0  0  0  0  0
   -2.8804    1.4521   16.1758 O   0  0  0  0  0  0  0  0  0  0  0  0
   -5.5467    0.3482   14.3233 H   0  0  0  0  0  0  0  0  0  0  0  0
   -4.6135   -0.5512   15.3696 H   0  0  0  0  0  0  0  0  0  0  0  0
   -5.4020    8.6360    9.6951 C   0  0  0  0  0  0  0  0  0  0  0  0
   -6.4211    8.4373    8.7550 C   0  0  0  0  0  0  0  0  0  0  0  0
   -7.2031    9.5220    8.3556 C   0  0  0  0  0  0  0  0  0  0  0  0
   -6.9730   10.7879    8.9146 C   0  0  0  0  0  0  0  0  0  0  0  0
   -5.9473   10.9785    9.8483 C   0  0  0  0  0  0  0  0  0  0  0  0
   -5.1519    9.8999   10.2434 C   0  0  0  0  0  0  0  0  0  0  0  0
   -6.6633    7.0257    8.1427 C   0  0  0  0  0  0  0  0  0  0  0  0
   -8.1594    6.6979    8.0008 C   0  0  0  0  0  0  0  0  0  0  0  0
   -5.9454    6.8046    6.7969 C   0  0  0  0  0  0  0  0  0  0  0  0
  8  7  2  0  0  0
 12  7  1  0  0  0
  7 15  1  0  0  0
 13 15  1  0  0  0
 14 15  2  0  0  0
 15 16  2  0  0  0
  9  8  1  0  0  0
 10  9  2  0  0  0
  1 10  1  0  0  0
 10 11  1  0  0  0
 11 12  2  0  0  0
  2  1  1  0  0  0
  4  2  1  0  0  0
  3  2  2  0  0  0
 19  4  1  0  0  0
 24 19  2  0  0  0
 19 20  1  0  0  0
 21 20  2  0  0  0
 20 25  1  0  0  0
 22 21  1  0  0  0
 23 22  2  0  0  0
 23 24  1  0  0  0
 25 26  1  0  0  0
 25 27  1  0  0  0
 13 17  1  0  0  0
 13 18  1  0  0  0
  1  5  1  0  0  0
  4  6  1  0  0  0
M  END
> <minimizedAffinity>
-6.78453

$$$$
3N3J_WWV_A_263


 27 28  0  0  0  0  0  0  0  0999 V2000
   -4.3179    5.7258   13.0309 N   0  0  0  0  0  0  0  0  0  0  0  0
   -3.9565    4.4973   12.6872 C   0  0  0  0  0  0  0  0  0  0  0  0
   -2.8309    4.2413   12.2602 O   0  0  0  0  0  0  0  0  0  0  0  0
   -4.9464    3.5869   12.7906 N   0  0  0  0  0  0  0  0  0  0  0  0
   -5.2706    5.8621   13.2381 H   0  0  0  0  0  0  0  0  0  0  0  0
   -5.8505    3.8912   13.0341 H   0  0  0  0  0  0  0  0  0  0  0  0
   -1.7696    9.0180   13.6531 C   0  0  0  0  0  0  0  0  0  0  0  0
   -2.2503    8.7974   12.3450 C   0  0  0  0  0  0  0  0  0  0  0  0
   -3.1197    7.7267   12.0745 C   0  0  0  0  0  0  0  0  0  0  0  0
   -3.4727    6.8724   13.1328 C   0  0  0  0  0  0  0  0  0  0  0  0
   -2.9993    7.0982   14.4220 C   0  0  0  0  0  0  0  0  0  0  0  0
   -2.1308    8.1555   14.6960 C   0  0  0  0  0  0  0  0  0  0  0  0
    0.5821   10.1109   13.0136 N   0  0  0  0  0  0  0  0  0  0  0  0
   -0.2460   10.1886   15.4215 O   0  0  0  0  0  0  0  0  0  0  0  0
   -0.6559   10.3190   13.9884 S   0  0  0  0  0  0  0  0  0  0  0  0
   -1.3529   11.6361   13.7009 O   0  0  0  0  0  0  0  0  0  0  0  0
    1.0348    9.2214   13.2241 H   0  0  0  0  0  0  0  0  0  0  0  0
    1.2493   10.8712   13.1443 H   0  0  0  0  0  0  0  0  0  0  0  0
   -4.7303    2.2351   12.5646 C   0  0  0  0  0  0  0  0  0  0  0  0
   -4.5097    1.4011   13.6680 C   0  0  0  0  0  0  0  0  0  0  0  0
   -4.2797    0.0404   13.4606 C   0  0  0  0  0  0  0  0  0  0  0  0
   -4.2936   -0.4760   12.1564 C   0  0  0  0  0  0  0  0  0  0  0  0
   -4.5079    0.3665   11.0590 C   0  0  0  0  0  0  0  0  0  0  0  0
   -4.7261    1.7322   11.2578 C   0  0  0  0  0  0  0  0  0  0  0  0
   -4.4962    1.9900   15.1100 C   0  0  0  0  0  0  0  0  0  0  0  0
   -5.1971    1.0706   16.1244 C   0  0  0  0  0  0  0  0  0  0  0  0
   -3.0865    2.3544   15.6153 C   0  0  0  0  0  0  0  0  0  0  0  0
  8  7  2  0  0  0
 12  7  1  0  0  0
  7 15  1  0  0  0
 13 15  1  0  0  0
 14 15  2  0  0  0
 15 16  2  0  0  0
  9  8  1  0  0  0
 10  9  2  0  0  0
  1 10  1  0  0  0
 10 11  1  0  0  0
 11 12  2  0  0  0
  2  1  1  0  0  0
  4  2  1  0  0  0
  3  2  2  0  0  0
 19  4  1  0  0  0
 24 19  2  0  0  0
 19 20  1  0  0  0
 21 20  2  0  0  0
 20 25  1  0  0  0
 22 21  1  0  0  0
 23 22  2  0  0  0
 23 24  1  0  0  0
 25 26  1  0  0  0
 25 27  1  0  0  0
 13 17  1  0  0  0
 13 18  1  0  0  0
  1  5  1  0  0  0
  4  6  1  0  0  0
M  END
> <minimizedAffinity>
-6.74173

$$$$
