5LLH_V49_A_302


 26 28  0  0  0  0  0  0  0  0999 V2000
   -3.9633    0.3034   14.6558 F   0  0  0  0  0  0  0  0  0  0  0  0
   -4.5215    1.5334   14.6541 C   0  0  0  0  0  0  0  0  0  0  0  0
   -5.4240    1.9785   15.6321 C   0  0  0  0  0  0  0  0  0  0  0  0
   -5.9964    3.2503   15.5308 C   0  0  0  0  0  0  0  0  0  0  0  0
   -6.8603    3.7040   16.4625 F   0  0  0  0  0  0  0  0  0  0  0  0
   -5.6217    4.0989   14.5075 C   0  0  0  0  0  0  0  0  0  0  0  0
   -6.1525    5.3276   14.5182 F   0  0  0  0  0  0  0  0  0  0  0  0
   -4.1603    2.4283   13.6354 C   0  0  0  0  0  0  0  0  0  0  0  0
   -3.3179    2.0628   12.6861 F   0  0  0  0  0  0  0  0  0  0  0  0
   -4.7141    3.6818   13.5354 C   0  0  0  0  0  0  0  0  0  0  0  0
   -5.9738    0.9066   16.9495 S   0  0  0  0  0  0  0  0  0  0  0  0
   -5.5286   -0.5261   16.8773 O   0  0  0  0  0  0  0  0  0  0  0  0
   -7.7357    0.8965   17.0259 N   0  0  0  0  0  0  0  0  0  0  0  0
   -5.3463    1.5945   18.1830 O   0  0  0  0  0  0  0  0  0  0  0  0
   -8.0793    1.8556   17.0762 H   0  0  0  0  0  0  0  0  0  0  0  0
   -8.0372    0.3834   17.8542 H   0  0  0  0  0  0  0  0  0  0  0  0
   -4.1116    4.6450   12.1071 S   0  0  0  0  0  0  0  0  0  0  0  0
   -3.2298    5.9070   12.9456 C   0  0  0  0  0  0  0  0  0  0  0  0
   -2.9110    7.0362   12.2612 N   0  0  0  0  0  0  0  0  0  0  0  0
   -2.2422    7.8800   13.0963 C   0  0  0  0  0  0  0  0  0  0  0  0
   -1.8380    9.1478   12.6777 C   0  0  0  0  0  0  0  0  0  0  0  0
   -1.1437    9.9457   13.6345 C   0  0  0  0  0  0  0  0  0  0  0  0
   -0.9078    9.4506   14.9646 C   0  0  0  0  0  0  0  0  0  0  0  0
   -1.3723    8.1828   15.3576 C   0  0  0  0  0  0  0  0  0  0  0  0
   -2.0411    7.4148   14.4175 C   0  0  0  0  0  0  0  0  0  0  0  0
   -2.6856    5.8860   14.5308 S   0  0  0  0  0  0  0  0  0  0  0  0
 17 18  1  0  0  0
 17 10  1  0  0  0
 19 18  2  0  0  0
 19 20  1  0  0  0
 21 20  2  0  0  0
 21 22  1  0  0  0
  9  8  1  0  0  0
 18 26  1  0  0  0
 20 25  1  0  0  0
 22 23  2  0  0  0
 10  8  2  0  0  0
 10  6  1  0  0  0
  8  2  1  0  0  0
 25 26  1  0  0  0
 25 24  2  0  0  0
  6  7  1  0  0  0
  6  4  2  0  0  0
  1  2  1  0  0  0
  2  3  2  0  0  0
 23 24  1  0  0  0
  4  3  1  0  0  0
  4  5  1  0  0  0
  3 11  1  0  0  0
 13 11  1  0  0  0
 14 11  2  0  0  0
 11 12  2  0  0  0
 13 15  1  0  0  0
 13 16  1  0  0  0
M  END
> <minimizedAffinity>
-8.71949

$$$$
5LLH_V49_A_302


 26 28  0  0  0  0  0  0  0  0999 V2000
   -4.9081    4.0408   15.2816 F   0  0  0  0  0  0  0  0  0  0  0  0
   -4.6228    3.1825   14.2784 C   0  0  0  0  0  0  0  0  0  0  0  0
   -4.5121    1.7944   14.4513 C   0  0  0  0  0  0  0  0  0  0  0  0
   -4.1641    0.9789   13.3700 C   0  0  0  0  0  0  0  0  0  0  0  0
   -4.0593   -0.3590   13.5091 F   0  0  0  0  0  0  0  0  0  0  0  0
   -3.9979    1.5280   12.1137 C   0  0  0  0  0  0  0  0  0  0  0  0
   -3.7417    0.6772   11.1127 F   0  0  0  0  0  0  0  0  0  0  0  0
   -4.4547    3.7004   12.9851 C   0  0  0  0  0  0  0  0  0  0  0  0
   -4.5441    4.9994   12.7636 F   0  0  0  0  0  0  0  0  0  0  0  0
   -4.1200    2.9027   11.9177 C   0  0  0  0  0  0  0  0  0  0  0  0
   -4.6743    1.0400   16.0611 S   0  0  0  0  0  0  0  0  0  0  0  0
   -5.1008   -0.3999   16.0862 O   0  0  0  0  0  0  0  0  0  0  0  0
   -5.8361    1.9396   17.0365 N   0  0  0  0  0  0  0  0  0  0  0  0
   -3.2348    1.1755   16.6068 O   0  0  0  0  0  0  0  0  0  0  0  0
   -5.5806    2.9270   17.0450 H   0  0  0  0  0  0  0  0  0  0  0  0
   -5.8306    1.5788   17.9906 H   0  0  0  0  0  0  0  0  0  0  0  0
   -3.9223    3.8120   10.3478 S   0  0  0  0  0  0  0  0  0  0  0  0
   -2.1729    3.8484   10.2392 C   0  0  0  0  0  0  0  0  0  0  0  0
   -1.5976    3.6780    9.0206 N   0  0  0  0  0  0  0  0  0  0  0  0
   -0.2443    3.7502    9.1615 C   0  0  0  0  0  0  0  0  0  0  0  0
    0.6068    3.6660    8.0595 C   0  0  0  0  0  0  0  0  0  0  0  0
    2.0057    3.7520    8.3241 C   0  0  0  0  0  0  0  0  0  0  0  0
    2.4844    3.9403    9.6678 C   0  0  0  0  0  0  0  0  0  0  0  0
    1.5881    4.0647   10.7443 C   0  0  0  0  0  0  0  0  0  0  0  0
    0.2315    3.9744   10.4751 C   0  0  0  0  0  0  0  0  0  0  0  0
   -1.0802    4.0448   11.4949 S   0  0  0  0  0  0  0  0  0  0  0  0
 17 18  1  0  0  0
 17 10  1  0  0  0
 19 18  2  0  0  0
 19 20  1  0  0  0
 21 20  2  0  0  0
 21 22  1  0  0  0
  9  8  1  0  0  0
 18 26  1  0  0  0
 20 25  1  0  0  0
 22 23  2  0  0  0
 10  8  2  0  0  0
 10  6  1  0  0  0
  8  2  1  0  0  0
 25 26  1  0  0  0
 25 24  2  0  0  0
  6  7  1  0  0  0
  6  4  2  0  0  0
  1  2  1  0  0  0
  2  3  2  0  0  0
 23 24  1  0  0  0
  4  3  1  0  0  0
  4  5  1  0  0  0
  3 11  1  0  0  0
 13 11  1  0  0  0
 14 11  2  0  0  0
 11 12  2  0  0  0
 13 15  1  0  0  0
 13 16  1  0  0  0
M  END
> <minimizedAffinity>
-8.28623

$$$$
5LLH_V49_A_302


 26 28  0  0  0  0  0  0  0  0999 V2000
   -4.4128   -0.2753   12.9766 F   0  0  0  0  0  0  0  0  0  0  0  0
   -4.1235    1.0440   12.9954 C   0  0  0  0  0  0  0  0  0  0  0  0
   -4.1228    1.8227   14.1627 C   0  0  0  0  0  0  0  0  0  0  0  0
   -3.8610    3.1944   14.0901 C   0  0  0  0  0  0  0  0  0  0  0  0
   -3.8467    3.9628   15.1991 F   0  0  0  0  0  0  0  0  0  0  0  0
   -3.5326    3.7737   12.8801 C   0  0  0  0  0  0  0  0  0  0  0  0
   -3.2193    5.0749   12.8997 F   0  0  0  0  0  0  0  0  0  0  0  0
   -3.7768    1.6681   11.7874 C   0  0  0  0  0  0  0  0  0  0  0  0
   -3.7642    0.9855   10.6568 F   0  0  0  0  0  0  0  0  0  0  0  0
   -3.5114    3.0141   11.7116 C   0  0  0  0  0  0  0  0  0  0  0  0
   -4.5826    1.1325   15.7436 S   0  0  0  0  0  0  0  0  0  0  0  0
   -4.9157   -0.3319   15.7638 O   0  0  0  0  0  0  0  0  0  0  0  0
   -5.9804    1.9888   16.3942 N   0  0  0  0  0  0  0  0  0  0  0  0
   -3.3059    1.3967   16.5736 O   0  0  0  0  0  0  0  0  0  0  0  0
   -5.7935    2.9916   16.3975 H   0  0  0  0  0  0  0  0  0  0  0  0
   -6.1591    1.6731   17.3475 H   0  0  0  0  0  0  0  0  0  0  0  0
   -3.1201    3.5973   10.0271 S   0  0  0  0  0  0  0  0  0  0  0  0
   -3.8190    5.2036   10.0948 C   0  0  0  0  0  0  0  0  0  0  0  0
   -5.1715    5.3220   10.0519 N   0  0  0  0  0  0  0  0  0  0  0  0
   -5.4978    6.6428   10.1261 C   0  0  0  0  0  0  0  0  0  0  0  0
   -6.8278    7.0622   10.1607 C   0  0  0  0  0  0  0  0  0  0  0  0
   -7.0529    8.4685   10.2369 C   0  0  0  0  0  0  0  0  0  0  0  0
   -5.9440    9.3832   10.2978 C   0  0  0  0  0  0  0  0  0  0  0  0
   -4.6184    8.9136   10.3051 C   0  0  0  0  0  0  0  0  0  0  0  0
   -4.4125    7.5453   10.2256 C   0  0  0  0  0  0  0  0  0  0  0  0
   -3.0024    6.6650   10.1797 S   0  0  0  0  0  0  0  0  0  0  0  0
 17 18  1  0  0  0
 17 10  1  0  0  0
 19 18  2  0  0  0
 19 20  1  0  0  0
 21 20  2  0  0  0
 21 22  1  0  0  0
  9  8  1  0  0  0
 18 26  1  0  0  0
 20 25  1  0  0  0
 22 23  2  0  0  0
 10  8  2  0  0  0
 10  6  1  0  0  0
  8  2  1  0  0  0
 25 26  1  0  0  0
 25 24  2  0  0  0
  6  7  1  0  0  0
  6  4  2  0  0  0
  1  2  1  0  0  0
  2  3  2  0  0  0
 23 24  1  0  0  0
  4  3  1  0  0  0
  4  5  1  0  0  0
  3 11  1  0  0  0
 13 11  1  0  0  0
 14 11  2  0  0  0
 11 12  2  0  0  0
 13 15  1  0  0  0
 13 16  1  0  0  0
M  END
> <minimizedAffinity>
-7.76234

$$$$
5LLH_V49_A_302


 26 28  0  0  0  0  0  0  0  0999 V2000
   -3.1233    3.9728   15.5579 F   0  0  0  0  0  0  0  0  0  0  0  0
   -3.3839    3.4071   14.3593 C   0  0  0  0  0  0  0  0  0  0  0  0
   -4.0049    2.1580   14.2082 C   0  0  0  0  0  0  0  0  0  0  0  0
   -4.1940    1.6189   12.9318 C   0  0  0  0  0  0  0  0  0  0  0  0
   -4.7958    0.4236   12.7602 F   0  0  0  0  0  0  0  0  0  0  0  0
   -3.8349    2.3451   11.8132 C   0  0  0  0  0  0  0  0  0  0  0  0
   -4.1162    1.7992   10.6240 F   0  0  0  0  0  0  0  0  0  0  0  0
   -3.0415    4.1170   13.1983 C   0  0  0  0  0  0  0  0  0  0  0  0
   -2.4515    5.2957   13.2798 F   0  0  0  0  0  0  0  0  0  0  0  0
   -3.2318    3.5952   11.9415 C   0  0  0  0  0  0  0  0  0  0  0  0
   -4.4484    1.1608   15.6210 S   0  0  0  0  0  0  0  0  0  0  0  0
   -4.6528   -0.3056   15.3683 O   0  0  0  0  0  0  0  0  0  0  0  0
   -5.9339    1.7710   16.3499 N   0  0  0  0  0  0  0  0  0  0  0  0
   -3.2243    1.3741   16.5400 O   0  0  0  0  0  0  0  0  0  0  0  0
   -5.8354    2.7686   16.5380 H   0  0  0  0  0  0  0  0  0  0  0  0
   -6.1119    1.2761   17.2239 H   0  0  0  0  0  0  0  0  0  0  0  0
   -2.6751    4.6918   10.5931 S   0  0  0  0  0  0  0  0  0  0  0  0
   -4.1274    5.6462   10.3622 C   0  0  0  0  0  0  0  0  0  0  0  0
   -4.7040    5.6577    9.1324 N   0  0  0  0  0  0  0  0  0  0  0  0
   -5.8141    6.4466    9.1768 C   0  0  0  0  0  0  0  0  0  0  0  0
   -6.6422    6.5995    8.0648 C   0  0  0  0  0  0  0  0  0  0  0  0
   -7.7757    7.4505    8.2240 C   0  0  0  0  0  0  0  0  0  0  0  0
   -8.0392    8.0869    9.4872 C   0  0  0  0  0  0  0  0  0  0  0  0
   -7.2016    7.8693   10.5956 C   0  0  0  0  0  0  0  0  0  0  0  0
   -6.1006    7.0443   10.4270 C   0  0  0  0  0  0  0  0  0  0  0  0
   -4.9066    6.6027   11.4969 S   0  0  0  0  0  0  0  0  0  0  0  0
 17 18  1  0  0  0
 17 10  1  0  0  0
 19 18  2  0  0  0
 19 20  1  0  0  0
 21 20  2  0  0  0
 21 22  1  0  0  0
  9  8  1  0  0  0
 18 26  1  0  0  0
 20 25  1  0  0  0
 22 23  2  0  0  0
 10  8  2  0  0  0
 10  6  1  0  0  0
  8  2  1  0  0  0
 25 26  1  0  0  0
 25 24  2  0  0  0
  6  7  1  0  0  0
  6  4  2  0  0  0
  1  2  1  0  0  0
  2  3  2  0  0  0
 23 24  1  0  0  0
  4  3  1  0  0  0
  4  5  1  0  0  0
  3 11  1  0  0  0
 13 11  1  0  0  0
 14 11  2  0  0  0
 11 12  2  0  0  0
 13 15  1  0  0  0
 13 16  1  0  0  0
M  END
> <minimizedAffinity>
-7.44254

$$$$
5LLH_V49_A_302


 26 28  0  0  0  0  0  0  0  0999 V2000
   -3.1360    8.3260   11.0248 F   0  0  0  0  0  0  0  0  0  0  0  0
   -2.8499    7.4019   11.9675 C   0  0  0  0  0  0  0  0  0  0  0  0
   -2.1180    7.6806   13.1318 C   0  0  0  0  0  0  0  0  0  0  0  0
   -1.8211    6.6555   14.0353 C   0  0  0  0  0  0  0  0  0  0  0  0
   -1.1260    6.8997   15.1656 F   0  0  0  0  0  0  0  0  0  0  0  0
   -2.3074    5.3807   13.8207 C   0  0  0  0  0  0  0  0  0  0  0  0
   -2.0484    4.4693   14.7661 F   0  0  0  0  0  0  0  0  0  0  0  0
   -3.3332    6.0965   11.7902 C   0  0  0  0  0  0  0  0  0  0  0  0
   -4.0248    5.7758   10.7117 F   0  0  0  0  0  0  0  0  0  0  0  0
   -3.0507    5.0871   12.6786 C   0  0  0  0  0  0  0  0  0  0  0  0
   -1.4303    9.2999   13.4350 S   0  0  0  0  0  0  0  0  0  0  0  0
   -1.8302   10.3871   12.4791 O   0  0  0  0  0  0  0  0  0  0  0  0
    0.3315    9.2216   13.4200 N   0  0  0  0  0  0  0  0  0  0  0  0
   -1.9827    9.6055   14.8457 O   0  0  0  0  0  0  0  0  0  0  0  0
    0.6448    8.4915   14.0597 H   0  0  0  0  0  0  0  0  0  0  0  0
    0.7143   10.1197   13.7153 H   0  0  0  0  0  0  0  0  0  0  0  0
   -3.7606    3.4716   12.2130 S   0  0  0  0  0  0  0  0  0  0  0  0
   -4.5762    3.0589   13.7090 C   0  0  0  0  0  0  0  0  0  0  0  0
   -4.2504    1.8910   14.3213 N   0  0  0  0  0  0  0  0  0  0  0  0
   -4.9885    1.7735   15.4607 C   0  0  0  0  0  0  0  0  0  0  0  0
   -4.8218    0.6926   16.3265 C   0  0  0  0  0  0  0  0  0  0  0  0
   -5.6487    0.6708   17.4884 C   0  0  0  0  0  0  0  0  0  0  0  0
   -6.5819    1.7364   17.7405 C   0  0  0  0  0  0  0  0  0  0  0  0
   -6.6855    2.8302   16.8626 C   0  0  0  0  0  0  0  0  0  0  0  0
   -5.8803    2.8375   15.7346 C   0  0  0  0  0  0  0  0  0  0  0  0
   -5.7688    3.9379   14.4928 S   0  0  0  0  0  0  0  0  0  0  0  0
 17 18  1  0  0  0
 17 10  1  0  0  0
 19 18  2  0  0  0
 19 20  1  0  0  0
 21 20  2  0  0  0
 21 22  1  0  0  0
  9  8  1  0  0  0
 18 26  1  0  0  0
 20 25  1  0  0  0
 22 23  2  0  0  0
 10  8  2  0  0  0
 10  6  1  0  0  0
  8  2  1  0  0  0
 25 26  1  0  0  0
 25 24  2  0  0  0
  6  7  1  0  0  0
  6  4  2  0  0  0
  1  2  1  0  0  0
  2  3  2  0  0  0
 23 24  1  0  0  0
  4  3  1  0  0  0
  4  5  1  0  0  0
  3 11  1  0  0  0
 13 11  1  0  0  0
 14 11  2  0  0  0
 11 12  2  0  0  0
 13 15  1  0  0  0
 13 16  1  0  0  0
M  END
> <minimizedAffinity>
-7.18397

$$$$
5LLH_V49_A_302


 26 28  0  0  0  0  0  0  0  0999 V2000
    0.5250    3.0001   11.6269 F   0  0  0  0  0  0  0  0  0  0  0  0
   -0.6853    3.5908   11.5229 C   0  0  0  0  0  0  0  0  0  0  0  0
   -0.8670    4.9790   11.4289 C   0  0  0  0  0  0  0  0  0  0  0  0
   -2.1574    5.5150   11.3746 C   0  0  0  0  0  0  0  0  0  0  0  0
   -2.3578    6.8455   11.2758 F   0  0  0  0  0  0  0  0  0  0  0  0
   -3.2546    4.6768   11.3417 C   0  0  0  0  0  0  0  0  0  0  0  0
   -4.4535    5.2577   11.2117 F   0  0  0  0  0  0  0  0  0  0  0  0
   -1.8248    2.7731   11.4780 C   0  0  0  0  0  0  0  0  0  0  0  0
   -1.7145    1.4599   11.5660 F   0  0  0  0  0  0  0  0  0  0  0  0
   -3.0947    3.2942   11.4172 C   0  0  0  0  0  0  0  0  0  0  0  0
    0.5141    6.1072   11.5109 S   0  0  0  0  0  0  0  0  0  0  0  0
    1.8478    5.5093   11.8570 O   0  0  0  0  0  0  0  0  0  0  0  0
    0.1923    7.3724   12.6966 N   0  0  0  0  0  0  0  0  0  0  0  0
    0.5405    6.6609   10.0683 O   0  0  0  0  0  0  0  0  0  0  0  0
   -0.7091    7.8055   12.4955 H   0  0  0  0  0  0  0  0  0  0  0  0
    0.9269    8.0783   12.6485 H   0  0  0  0  0  0  0  0  0  0  0  0
   -4.4126    2.0319   11.4051 S   0  0  0  0  0  0  0  0  0  0  0  0
   -4.7564    1.9390   13.1217 C   0  0  0  0  0  0  0  0  0  0  0  0
   -5.4853    2.9347   13.6893 N   0  0  0  0  0  0  0  0  0  0  0  0
   -5.6413    2.6618   15.0151 C   0  0  0  0  0  0  0  0  0  0  0  0
   -6.4001    3.4890   15.8432 C   0  0  0  0  0  0  0  0  0  0  0  0
   -6.4941    3.1082   17.2145 C   0  0  0  0  0  0  0  0  0  0  0  0
   -5.8477    1.9124   17.6860 C   0  0  0  0  0  0  0  0  0  0  0  0
   -5.1292    1.0834   16.8063 C   0  0  0  0  0  0  0  0  0  0  0  0
   -5.0408    1.4667   15.4772 C   0  0  0  0  0  0  0  0  0  0  0  0
   -4.2589    0.7520   14.1954 S   0  0  0  0  0  0  0  0  0  0  0  0
 17 18  1  0  0  0
 17 10  1  0  0  0
 19 18  2  0  0  0
 19 20  1  0  0  0
 21 20  2  0  0  0
 21 22  1  0  0  0
  9  8  1  0  0  0
 18 26  1  0  0  0
 20 25  1  0  0  0
 22 23  2  0  0  0
 10  8  2  0  0  0
 10  6  1  0  0  0
  8  2  1  0  0  0
 25 26  1  0  0  0
 25 24  2  0  0  0
  6  7  1  0  0  0
  6  4  2  0  0  0
  1  2  1  0  0  0
  2  3  2  0  0  0
 23 24  1  0  0  0
  4  3  1  0  0  0
  4  5  1  0  0  0
  3 11  1  0  0  0
 13 11  1  0  0  0
 14 11  2  0  0  0
 11 12  2  0  0  0
 13 15  1  0  0  0
 13 16  1  0  0  0
M  END
> <minimizedAffinity>
-7.04175

$$$$
5LLH_V49_A_302


 26 28  0  0  0  0  0  0  0  0999 V2000
   -2.1949    6.9553   11.1566 F   0  0  0  0  0  0  0  0  0  0  0  0
   -1.9249    5.6356   11.2565 C   0  0  0  0  0  0  0  0  0  0  0  0
   -0.6321    5.1178   11.4282 C   0  0  0  0  0  0  0  0  0  0  0  0
   -0.4310    3.7347   11.4726 C   0  0  0  0  0  0  0  0  0  0  0  0
    0.8011    3.2128   11.6449 F   0  0  0  0  0  0  0  0  0  0  0  0
   -1.5113    2.8758   11.4192 C   0  0  0  0  0  0  0  0  0  0  0  0
   -1.2497    1.5692   11.5448 F   0  0  0  0  0  0  0  0  0  0  0  0
   -2.9965    4.7305   11.2149 C   0  0  0  0  0  0  0  0  0  0  0  0
   -4.2345    5.1606   11.0514 F   0  0  0  0  0  0  0  0  0  0  0  0
   -2.8053    3.3709   11.2656 C   0  0  0  0  0  0  0  0  0  0  0  0
    0.8012    6.1817   11.4594 S   0  0  0  0  0  0  0  0  0  0  0  0
    2.0814    5.5666   11.9478 O   0  0  0  0  0  0  0  0  0  0  0  0
    0.4866    7.5911   12.4717 N   0  0  0  0  0  0  0  0  0  0  0  0
    0.9314    6.5603    9.9667 O   0  0  0  0  0  0  0  0  0  0  0  0
   -0.3788    8.0395   12.1709 H   0  0  0  0  0  0  0  0  0  0  0  0
    1.2594    8.2512   12.3852 H   0  0  0  0  0  0  0  0  0  0  0  0
   -4.3484    2.4023   11.1586 S   0  0  0  0  0  0  0  0  0  0  0  0
   -4.6777    2.1714   12.8649 C   0  0  0  0  0  0  0  0  0  0  0  0
   -5.4342    3.0984   13.5080 N   0  0  0  0  0  0  0  0  0  0  0  0
   -5.5728    2.7230   14.8105 C   0  0  0  0  0  0  0  0  0  0  0  0
   -6.3520    3.4618   15.7009 C   0  0  0  0  0  0  0  0  0  0  0  0
   -6.4249    2.9774   17.0405 C   0  0  0  0  0  0  0  0  0  0  0  0
   -5.7379    1.7713   17.4192 C   0  0  0  0  0  0  0  0  0  0  0  0
   -4.9991    1.0334   16.4773 C   0  0  0  0  0  0  0  0  0  0  0  0
   -4.9317    1.5169   15.1801 C   0  0  0  0  0  0  0  0  0  0  0  0
   -4.1359    0.9246   13.8454 S   0  0  0  0  0  0  0  0  0  0  0  0
 17 18  1  0  0  0
 17 10  1  0  0  0
 19 18  2  0  0  0
 19 20  1  0  0  0
 21 20  2  0  0  0
 21 22  1  0  0  0
  9  8  1  0  0  0
 18 26  1  0  0  0
 20 25  1  0  0  0
 22 23  2  0  0  0
 10  8  2  0  0  0
 10  6  1  0  0  0
  8  2  1  0  0  0
 25 26  1  0  0  0
 25 24  2  0  0  0
  6  7  1  0  0  0
  6  4  2  0  0  0
  1  2  1  0  0  0
  2  3  2  0  0  0
 23 24  1  0  0  0
  4  3  1  0  0  0
  4  5  1  0  0  0
  3 11  1  0  0  0
 13 11  1  0  0  0
 14 11  2  0  0  0
 11 12  2  0  0  0
 13 15  1  0  0  0
 13 16  1  0  0  0
M  END
> <minimizedAffinity>
-7.02739

$$$$
5LLH_V49_A_302


 26 28  0  0  0  0  0  0  0  0999 V2000
    0.1916    6.4853   12.6884 F   0  0  0  0  0  0  0  0  0  0  0  0
   -0.7446    5.6928   12.1225 C   0  0  0  0  0  0  0  0  0  0  0  0
   -0.4557    4.7169   11.1565 C   0  0  0  0  0  0  0  0  0  0  0  0
   -1.4899    3.9710   10.5825 C   0  0  0  0  0  0  0  0  0  0  0  0
   -1.2369    3.0217    9.6579 F   0  0  0  0  0  0  0  0  0  0  0  0
   -2.7902    4.1426   11.0154 C   0  0  0  0  0  0  0  0  0  0  0  0
   -3.7161    3.3404   10.4761 F   0  0  0  0  0  0  0  0  0  0  0  0
   -2.0768    5.8306   12.5414 C   0  0  0  0  0  0  0  0  0  0  0  0
   -2.4078    6.7351   13.4450 F   0  0  0  0  0  0  0  0  0  0  0  0
   -3.0958    5.0952   11.9860 C   0  0  0  0  0  0  0  0  0  0  0  0
    1.2006    4.4858   10.5318 S   0  0  0  0  0  0  0  0  0  0  0  0
    1.3933    3.3745    9.5399 O   0  0  0  0  0  0  0  0  0  0  0  0
    2.3141    4.1856   11.8661 N   0  0  0  0  0  0  0  0  0  0  0  0
    1.4638    5.8504    9.8559 O   0  0  0  0  0  0  0  0  0  0  0  0
    2.2138    4.9220   12.5648 H   0  0  0  0  0  0  0  0  0  0  0  0
    3.2716    4.1784   11.5147 H   0  0  0  0  0  0  0  0  0  0  0  0
   -4.7433    5.4784   12.6711 S   0  0  0  0  0  0  0  0  0  0  0  0
   -4.9140    4.1520   13.8046 C   0  0  0  0  0  0  0  0  0  0  0  0
   -5.8255    4.2702   14.8047 N   0  0  0  0  0  0  0  0  0  0  0  0
   -5.8005    3.1339   15.5563 C   0  0  0  0  0  0  0  0  0  0  0  0
   -6.6769    2.9502   16.6258 C   0  0  0  0  0  0  0  0  0  0  0  0
   -6.5609    1.7235   17.3441 C   0  0  0  0  0  0  0  0  0  0  0  0
   -5.5951    0.7337   16.9473 C   0  0  0  0  0  0  0  0  0  0  0  0
   -4.7610    0.9420   15.8344 C   0  0  0  0  0  0  0  0  0  0  0  0
   -4.8798    2.1401   15.1476 C   0  0  0  0  0  0  0  0  0  0  0  0
   -4.0458    2.7184   13.8302 S   0  0  0  0  0  0  0  0  0  0  0  0
 17 18  1  0  0  0
 17 10  1  0  0  0
 19 18  2  0  0  0
 19 20  1  0  0  0
 21 20  2  0  0  0
 21 22  1  0  0  0
  9  8  1  0  0  0
 18 26  1  0  0  0
 20 25  1  0  0  0
 22 23  2  0  0  0
 10  8  2  0  0  0
 10  6  1  0  0  0
  8  2  1  0  0  0
 25 26  1  0  0  0
 25 24  2  0  0  0
  6  7  1  0  0  0
  6  4  2  0  0  0
  1  2  1  0  0  0
  2  3  2  0  0  0
 23 24  1  0  0  0
  4  3  1  0  0  0
  4  5  1  0  0  0
  3 11  1  0  0  0
 13 11  1  0  0  0
 14 11  2  0  0  0
 11 12  2  0  0  0
 13 15  1  0  0  0
 13 16  1  0  0  0
M  END
> <minimizedAffinity>
-6.96321

$$$$
5LLH_V49_A_302


 26 28  0  0  0  0  0  0  0  0999 V2000
   -5.6270    4.0354   15.6048 F   0  0  0  0  0  0  0  0  0  0  0  0
   -5.0518    3.5621   14.4781 C   0  0  0  0  0  0  0  0  0  0  0  0
   -4.5695    2.2512   14.3435 C   0  0  0  0  0  0  0  0  0  0  0  0
   -3.9411    1.8536   13.1593 C   0  0  0  0  0  0  0  0  0  0  0  0
   -3.4764    0.5967   13.0027 F   0  0  0  0  0  0  0  0  0  0  0  0
   -3.8566    2.7273   12.0929 C   0  0  0  0  0  0  0  0  0  0  0  0
   -3.3114    2.2529   10.9664 F   0  0  0  0  0  0  0  0  0  0  0  0
   -4.9544    4.4165   13.3692 C   0  0  0  0  0  0  0  0  0  0  0  0
   -5.3883    5.6619   13.4393 F   0  0  0  0  0  0  0  0  0  0  0  0
   -4.3446    4.0286   12.2007 C   0  0  0  0  0  0  0  0  0  0  0  0
   -4.6150    1.0972   15.7048 S   0  0  0  0  0  0  0  0  0  0  0  0
   -4.5122   -0.3591   15.3521 O   0  0  0  0  0  0  0  0  0  0  0  0
   -6.1074    1.3021   16.6219 N   0  0  0  0  0  0  0  0  0  0  0  0
   -3.3743    1.5346   16.5158 O   0  0  0  0  0  0  0  0  0  0  0  0
   -6.2149    2.2826   16.8818 H   0  0  0  0  0  0  0  0  0  0  0  0
   -6.0698    0.7291   17.4649 H   0  0  0  0  0  0  0  0  0  0  0  0
   -4.3107    5.3260   10.9177 S   0  0  0  0  0  0  0  0  0  0  0  0
   -3.0562    6.3621   11.5704 C   0  0  0  0  0  0  0  0  0  0  0  0
   -3.2114    7.7076   11.4679 N   0  0  0  0  0  0  0  0  0  0  0  0
   -2.1364    8.3172   12.0419 C   0  0  0  0  0  0  0  0  0  0  0  0
   -2.0518    9.7066   12.1335 C   0  0  0  0  0  0  0  0  0  0  0  0
   -0.8809   10.2363   12.7521 C   0  0  0  0  0  0  0  0  0  0  0  0
    0.1339    9.3565   13.2681 C   0  0  0  0  0  0  0  0  0  0  0  0
   -0.0135    7.9600   13.1940 C   0  0  0  0  0  0  0  0  0  0  0  0
   -1.1532    7.4574   12.5861 C   0  0  0  0  0  0  0  0  0  0  0  0
   -1.6260    5.8881   12.3048 S   0  0  0  0  0  0  0  0  0  0  0  0
 17 18  1  0  0  0
 17 10  1  0  0  0
 19 18  2  0  0  0
 19 20  1  0  0  0
 21 20  2  0  0  0
 21 22  1  0  0  0
  9  8  1  0  0  0
 18 26  1  0  0  0
 20 25  1  0  0  0
 22 23  2  0  0  0
 10  8  2  0  0  0
 10  6  1  0  0  0
  8  2  1  0  0  0
 25 26  1  0  0  0
 25 24  2  0  0  0
  6  7  1  0  0  0
  6  4  2  0  0  0
  1  2  1  0  0  0
  2  3  2  0  0  0
 23 24  1  0  0  0
  4  3  1  0  0  0
  4  5  1  0  0  0
  3 11  1  0  0  0
 13 11  1  0  0  0
 14 11  2  0  0  0
 11 12  2  0  0  0
 13 15  1  0  0  0
 13 16  1  0  0  0
M  END
> <minimizedAffinity>
-6.74127

$$$$
5LLH_V49_A_302


 26 28  0  0  0  0  0  0  0  0999 V2000
   -5.3869    2.3726   10.7213 F   0  0  0  0  0  0  0  0  0  0  0  0
   -4.0416    2.4896   10.7508 C   0  0  0  0  0  0  0  0  0  0  0  0
   -3.1775    1.4383   11.0928 C   0  0  0  0  0  0  0  0  0  0  0  0
   -1.7971    1.6551   11.1482 C   0  0  0  0  0  0  0  0  0  0  0  0
   -0.9454    0.6584   11.4665 F   0  0  0  0  0  0  0  0  0  0  0  0
   -1.2747    2.8847   10.7978 C   0  0  0  0  0  0  0  0  0  0  0  0
    0.0592    2.9959   10.8001 F   0  0  0  0  0  0  0  0  0  0  0  0
   -3.4712    3.7209   10.3935 C   0  0  0  0  0  0  0  0  0  0  0  0
   -4.2357    4.7469   10.0661 F   0  0  0  0  0  0  0  0  0  0  0  0
   -2.1151    3.9373   10.4390 C   0  0  0  0  0  0  0  0  0  0  0  0
   -3.8034   -0.1563   11.5955 S   0  0  0  0  0  0  0  0  0  0  0  0
   -4.1678   -0.3062   13.0448 O   0  0  0  0  0  0  0  0  0  0  0  0
   -2.6224   -1.4133   11.2275 N   0  0  0  0  0  0  0  0  0  0  0  0
   -5.0685   -0.2773   10.7161 O   0  0  0  0  0  0  0  0  0  0  0  0
   -2.3478   -1.3454   10.2475 H   0  0  0  0  0  0  0  0  0  0  0  0
   -3.0353   -2.3294   11.4022 H   0  0  0  0  0  0  0  0  0  0  0  0
   -1.6192    5.6279    9.9630 S   0  0  0  0  0  0  0  0  0  0  0  0
   -1.5962    6.3905   11.5414 C   0  0  0  0  0  0  0  0  0  0  0  0
   -0.7745    7.4550   11.7326 N   0  0  0  0  0  0  0  0  0  0  0  0
   -0.9192    7.8951   13.0140 C   0  0  0  0  0  0  0  0  0  0  0  0
   -0.2355    9.0189   13.4782 C   0  0  0  0  0  0  0  0  0  0  0  0
   -0.4612    9.3883   14.8372 C   0  0  0  0  0  0  0  0  0  0  0  0
   -1.3724    8.6349   15.6569 C   0  0  0  0  0  0  0  0  0  0  0  0
   -2.0749    7.5344   15.1344 C   0  0  0  0  0  0  0  0  0  0  0  0
   -1.8433    7.1822   13.8140 C   0  0  0  0  0  0  0  0  0  0  0  0
   -2.4675    5.9405   12.9008 S   0  0  0  0  0  0  0  0  0  0  0  0
 17 18  1  0  0  0
 17 10  1  0  0  0
 19 18  2  0  0  0
 19 20  1  0  0  0
 21 20  2  0  0  0
 21 22  1  0  0  0
  9  8  1  0  0  0
 18 26  1  0  0  0
 20 25  1  0  0  0
 22 23  2  0  0  0
 10  8  2  0  0  0
 10  6  1  0  0  0
  8  2  1  0  0  0
 25 26  1  0  0  0
 25 24  2  0  0  0
  6  7  1  0  0  0
  6  4  2  0  0  0
  1  2  1  0  0  0
  2  3  2  0  0  0
 23 24  1  0  0  0
  4  3  1  0  0  0
  4  5  1  0  0  0
  3 11  1  0  0  0
 13 11  1  0  0  0
 14 11  2  0  0  0
 11 12  2  0  0  0
 13 15  1  0  0  0
 13 16  1  0  0  0
M  END
> <minimizedAffinity>
-6.73344

$$$$
