5O07_1VQ_A_302


 18 18  0  0  0  0  0  0  0  0999 V2000
   -4.1771    2.8919   13.2705 C   0  0  0  0  0  0  0  0  0  0  0  0
   -6.7662    3.4341   15.7589 N   0  0  0  0  0  0  0  0  0  0  0  0
   -5.0751    2.0211   15.5156 C   0  0  0  0  0  0  0  0  0  0  0  0
   -6.1122    2.3979   16.3271 C   0  0  0  0  0  0  0  0  0  0  0  0
   -6.1482    3.6947   14.6227 C   0  0  0  0  0  0  0  0  0  0  0  0
   -6.5225    4.7993   13.7264 C   0  0  0  0  0  0  0  0  0  0  0  0
   -5.0898    2.8632   14.4211 N   0  0  0  0  0  0  0  0  0  0  0  0
   -4.2066    0.9260   15.7070 N   0  0  0  0  0  0  0  0  0  0  0  0
   -3.0966    1.1608   16.1881 O   0  0  0  0  0  0  0  0  0  0  0  0
   -4.6059   -0.2144   15.4859 O   0  0  0  0  0  0  0  0  0  0  0  0
   -4.5213    1.9102   12.2026 C   0  0  0  0  0  0  0  0  0  0  0  0
   -3.4031    0.9798   12.0989 O   0  0  0  0  0  0  0  0  0  0  0  0
   -3.1997    0.1402   10.7874 S   0  0  0  0  0  0  0  0  0  0  0  0
   -2.0356    0.6857   10.1630 O   0  0  0  0  0  0  0  0  0  0  0  0
   -3.2043   -1.2352   11.1839 O   0  0  0  0  0  0  0  0  0  0  0  0
   -4.4433    0.4059    9.8232 N   0  0  0  0  0  0  0  0  0  0  0  0
   -5.2894    0.0251   10.2468 H   0  0  0  0  0  0  0  0  0  0  0  0
   -4.2794   -0.0474    8.9242 H   0  0  0  0  0  0  0  0  0  0  0  0
 10  8  2  0  0  0
  9  8  1  0  0  0
  8  3  1  0  0  0
  3  7  1  0  0  0
  3  4  2  0  0  0
  1  7  1  0  0  0
  1 11  1  0  0  0
  7  5  1  0  0  0
  4  2  1  0  0  0
  5  2  2  0  0  0
  5  6  1  0  0  0
 11 12  1  0  0  0
 12 13  1  0  0  0
 16 13  1  0  0  0
 13 15  2  0  0  0
 13 14  2  0  0  0
 16 17  1  0  0  0
 16 18  1  0  0  0
M  CHG 1   8   1
M  CHG 1   9  -1
M  END
> <minimizedAffinity>
-6.81521

$$$$
5O07_1VQ_A_302


 18 18  0  0  0  0  0  0  0  0999 V2000
   -4.0456    3.1464   12.5870 C   0  0  0  0  0  0  0  0  0  0  0  0
   -0.9723    1.8940   11.1121 N   0  0  0  0  0  0  0  0  0  0  0  0
   -3.0034    1.0800   11.4695 C   0  0  0  0  0  0  0  0  0  0  0  0
   -1.7643    0.8117   10.9512 C   0  0  0  0  0  0  0  0  0  0  0  0
   -1.7036    2.8122   11.7143 C   0  0  0  0  0  0  0  0  0  0  0  0
   -1.2200    4.1671   12.0207 C   0  0  0  0  0  0  0  0  0  0  0  0
   -2.9698    2.3735   11.9523 N   0  0  0  0  0  0  0  0  0  0  0  0
   -4.0873    0.1834   11.5765 N   0  0  0  0  0  0  0  0  0  0  0  0
   -4.1729   -0.4807   12.6110 O   0  0  0  0  0  0  0  0  0  0  0  0
   -4.9482    0.1607   10.7006 O   0  0  0  0  0  0  0  0  0  0  0  0
   -3.9717    3.1735   14.0758 C   0  0  0  0  0  0  0  0  0  0  0  0
   -4.7850    2.0665   14.5657 O   0  0  0  0  0  0  0  0  0  0  0  0
   -4.3712    1.3092   15.8779 S   0  0  0  0  0  0  0  0  0  0  0  0
   -2.9780    1.5784   16.0493 O   0  0  0  0  0  0  0  0  0  0  0  0
   -5.2955    1.7213   16.8902 O   0  0  0  0  0  0  0  0  0  0  0  0
   -4.5406   -0.2578   15.6279 N   0  0  0  0  0  0  0  0  0  0  0  0
   -5.5287   -0.4771   15.5021 H   0  0  0  0  0  0  0  0  0  0  0  0
   -4.1779   -0.7714   16.4311 H   0  0  0  0  0  0  0  0  0  0  0  0
 10  8  2  0  0  0
  9  8  1  0  0  0
  8  3  1  0  0  0
  3  7  1  0  0  0
  3  4  2  0  0  0
  1  7  1  0  0  0
  1 11  1  0  0  0
  7  5  1  0  0  0
  4  2  1  0  0  0
  5  2  2  0  0  0
  5  6  1  0  0  0
 11 12  1  0  0  0
 12 13  1  0  0  0
 16 13  1  0  0  0
 13 15  2  0  0  0
 13 14  2  0  0  0
 16 17  1  0  0  0
 16 18  1  0  0  0
M  CHG 1   8   1
M  CHG 1   9  -1
M  END
> <minimizedAffinity>
-6.45428

$$$$
5O07_1VQ_A_302


 18 18  0  0  0  0  0  0  0  0999 V2000
   -3.8970    3.1192   13.7346 C   0  0  0  0  0  0  0  0  0  0  0  0
   -6.8274    3.3703   15.8650 N   0  0  0  0  0  0  0  0  0  0  0  0
   -5.1302    1.9576   15.6671 C   0  0  0  0  0  0  0  0  0  0  0  0
   -6.2747    2.2430   16.3632 C   0  0  0  0  0  0  0  0  0  0  0  0
   -6.0431    3.7751   14.8844 C   0  0  0  0  0  0  0  0  0  0  0  0
   -6.2693    5.0094   14.1170 C   0  0  0  0  0  0  0  0  0  0  0  0
   -4.9730    2.9504   14.7201 N   0  0  0  0  0  0  0  0  0  0  0  0
   -4.3091    0.8205   15.8198 N   0  0  0  0  0  0  0  0  0  0  0  0
   -4.7496   -0.2552   15.4106 O   0  0  0  0  0  0  0  0  0  0  0  0
   -3.1679    0.9471   16.2560 O   0  0  0  0  0  0  0  0  0  0  0  0
   -4.1043    2.3462   12.4766 C   0  0  0  0  0  0  0  0  0  0  0  0
   -2.8712    1.6124   12.2162 O   0  0  0  0  0  0  0  0  0  0  0  0
   -1.9689    2.0034   10.9917 S   0  0  0  0  0  0  0  0  0  0  0  0
   -1.6610    0.7709   10.3369 O   0  0  0  0  0  0  0  0  0  0  0  0
   -2.6781    3.0204   10.2763 O   0  0  0  0  0  0  0  0  0  0  0  0
   -0.6049    2.6168   11.5486 N   0  0  0  0  0  0  0  0  0  0  0  0
   -0.7973    3.4996   12.0219 H   0  0  0  0  0  0  0  0  0  0  0  0
    0.0365    2.7798   10.7724 H   0  0  0  0  0  0  0  0  0  0  0  0
 10  8  2  0  0  0
  9  8  1  0  0  0
  8  3  1  0  0  0
  3  7  1  0  0  0
  3  4  2  0  0  0
  1  7  1  0  0  0
  1 11  1  0  0  0
  7  5  1  0  0  0
  4  2  1  0  0  0
  5  2  2  0  0  0
  5  6  1  0  0  0
 11 12  1  0  0  0
 12 13  1  0  0  0
 16 13  1  0  0  0
 13 15  2  0  0  0
 13 14  2  0  0  0
 16 17  1  0  0  0
 16 18  1  0  0  0
M  CHG 1   8   1
M  CHG 1   9  -1
M  END
> <minimizedAffinity>
-6.40481

$$$$
5O07_1VQ_A_302


 18 18  0  0  0  0  0  0  0  0999 V2000
   -4.4416    2.3898   12.5728 C   0  0  0  0  0  0  0  0  0  0  0  0
   -2.0331    0.2639   10.8789 N   0  0  0  0  0  0  0  0  0  0  0  0
   -2.1004    2.3875   11.5127 C   0  0  0  0  0  0  0  0  0  0  0  0
   -1.3398    1.4228   10.9072 C   0  0  0  0  0  0  0  0  0  0  0  0
   -3.1956    0.5041   11.4549 C   0  0  0  0  0  0  0  0  0  0  0  0
   -4.2241   -0.5243   11.6740 C   0  0  0  0  0  0  0  0  0  0  0  0
   -3.2934    1.7944   11.8766 N   0  0  0  0  0  0  0  0  0  0  0  0
   -1.7740    3.7519   11.6613 N   0  0  0  0  0  0  0  0  0  0  0  0
   -1.1222    4.0732   12.6566 O   0  0  0  0  0  0  0  0  0  0  0  0
   -2.0567    4.5468   10.7686 O   0  0  0  0  0  0  0  0  0  0  0  0
   -4.1697    2.7373   13.9969 C   0  0  0  0  0  0  0  0  0  0  0  0
   -4.9790    1.8445   14.8183 O   0  0  0  0  0  0  0  0  0  0  0  0
   -4.2849    0.8633   15.8292 S   0  0  0  0  0  0  0  0  0  0  0  0
   -4.3642   -0.4279   15.2216 O   0  0  0  0  0  0  0  0  0  0  0  0
   -3.0006    1.4250   16.1194 O   0  0  0  0  0  0  0  0  0  0  0  0
   -5.1503    0.8284   17.1696 N   0  0  0  0  0  0  0  0  0  0  0  0
   -5.1103    1.7407   17.6240 H   0  0  0  0  0  0  0  0  0  0  0  0
   -4.7747    0.1185   17.7984 H   0  0  0  0  0  0  0  0  0  0  0  0
 10  8  2  0  0  0
  9  8  1  0  0  0
  8  3  1  0  0  0
  3  7  1  0  0  0
  3  4  2  0  0  0
  1  7  1  0  0  0
  1 11  1  0  0  0
  7  5  1  0  0  0
  4  2  1  0  0  0
  5  2  2  0  0  0
  5  6  1  0  0  0
 11 12  1  0  0  0
 12 13  1  0  0  0
 16 13  1  0  0  0
 13 15  2  0  0  0
 13 14  2  0  0  0
 16 17  1  0  0  0
 16 18  1  0  0  0
M  CHG 1   8   1
M  CHG 1   9  -1
M  END
> <minimizedAffinity>
-6.37883

$$$$
5O07_1VQ_A_302


 18 18  0  0  0  0  0  0  0  0999 V2000
   -4.8361    4.1693   14.5047 C   0  0  0  0  0  0  0  0  0  0  0  0
   -5.4264    5.1731   11.0647 N   0  0  0  0  0  0  0  0  0  0  0  0
   -3.9177    3.9343   12.1159 C   0  0  0  0  0  0  0  0  0  0  0  0
   -4.3223    4.4130   10.8981 C   0  0  0  0  0  0  0  0  0  0  0  0
   -5.7008    5.1644   12.3552 C   0  0  0  0  0  0  0  0  0  0  0  0
   -6.8704    5.8343   12.9439 C   0  0  0  0  0  0  0  0  0  0  0  0
   -4.8116    4.4087   13.0556 N   0  0  0  0  0  0  0  0  0  0  0  0
   -2.7591    3.1750   12.3834 N   0  0  0  0  0  0  0  0  0  0  0  0
   -1.7633    3.7824   12.7810 O   0  0  0  0  0  0  0  0  0  0  0  0
   -2.8027    1.9498   12.3084 O   0  0  0  0  0  0  0  0  0  0  0  0
   -5.7171    3.0386   14.9146 C   0  0  0  0  0  0  0  0  0  0  0  0
   -4.9745    1.8070   14.6727 O   0  0  0  0  0  0  0  0  0  0  0  0
   -4.3451    1.0204   15.8775 S   0  0  0  0  0  0  0  0  0  0  0  0
   -4.5217   -0.3625   15.5630 O   0  0  0  0  0  0  0  0  0  0  0  0
   -3.0216    1.5377   16.0498 O   0  0  0  0  0  0  0  0  0  0  0  0
   -5.2006    1.3386   17.1866 N   0  0  0  0  0  0  0  0  0  0  0  0
   -5.0915    2.3223   17.4333 H   0  0  0  0  0  0  0  0  0  0  0  0
   -4.8722    0.7564   17.9572 H   0  0  0  0  0  0  0  0  0  0  0  0
 10  8  2  0  0  0
  9  8  1  0  0  0
  8  3  1  0  0  0
  3  7  1  0  0  0
  3  4  2  0  0  0
  1  7  1  0  0  0
  1 11  1  0  0  0
  7  5  1  0  0  0
  4  2  1  0  0  0
  5  2  2  0  0  0
  5  6  1  0  0  0
 11 12  1  0  0  0
 12 13  1  0  0  0
 16 13  1  0  0  0
 13 15  2  0  0  0
 13 14  2  0  0  0
 16 17  1  0  0  0
 16 18  1  0  0  0
M  CHG 1   8   1
M  CHG 1   9  -1
M  END
> <minimizedAffinity>
-6.32214

$$$$
5O07_1VQ_A_302


 18 18  0  0  0  0  0  0  0  0999 V2000
   -4.6580    2.3692   12.8201 C   0  0  0  0  0  0  0  0  0  0  0  0
   -6.5790    3.5596   15.6630 N   0  0  0  0  0  0  0  0  0  0  0  0
   -5.0354    2.0021   15.3356 C   0  0  0  0  0  0  0  0  0  0  0  0
   -5.8429    2.6008   16.2658 C   0  0  0  0  0  0  0  0  0  0  0  0
   -6.2346    3.5566   14.3894 C   0  0  0  0  0  0  0  0  0  0  0  0
   -6.7729    4.5000   13.3976 C   0  0  0  0  0  0  0  0  0  0  0  0
   -5.2783    2.6243   14.1268 N   0  0  0  0  0  0  0  0  0  0  0  0
   -4.1804    0.8992   15.5428 N   0  0  0  0  0  0  0  0  0  0  0  0
   -3.0851    1.1214   16.0620 O   0  0  0  0  0  0  0  0  0  0  0  0
   -4.5795   -0.2360   15.2964 O   0  0  0  0  0  0  0  0  0  0  0  0
   -3.6789    3.4132   12.4028 C   0  0  0  0  0  0  0  0  0  0  0  0
   -2.5227    3.2932   13.2835 O   0  0  0  0  0  0  0  0  0  0  0  0
   -2.0185    4.5420   14.0914 S   0  0  0  0  0  0  0  0  0  0  0  0
   -1.0931    5.2056   13.2278 O   0  0  0  0  0  0  0  0  0  0  0  0
   -3.1896    5.2370   14.5325 O   0  0  0  0  0  0  0  0  0  0  0  0
   -1.2126    4.0227   15.3672 N   0  0  0  0  0  0  0  0  0  0  0  0
   -1.8520    3.5438   16.0015 H   0  0  0  0  0  0  0  0  0  0  0  0
   -0.7882    4.8162   15.8474 H   0  0  0  0  0  0  0  0  0  0  0  0
 10  8  2  0  0  0
  9  8  1  0  0  0
  8  3  1  0  0  0
  3  7  1  0  0  0
  3  4  2  0  0  0
  1  7  1  0  0  0
  1 11  1  0  0  0
  7  5  1  0  0  0
  4  2  1  0  0  0
  5  2  2  0  0  0
  5  6  1  0  0  0
 11 12  1  0  0  0
 12 13  1  0  0  0
 16 13  1  0  0  0
 13 15  2  0  0  0
 13 14  2  0  0  0
 16 17  1  0  0  0
 16 18  1  0  0  0
M  CHG 1   8   1
M  CHG 1   9  -1
M  END
> <minimizedAffinity>
-6.18815

$$$$
5O07_1VQ_A_302


 18 18  0  0  0  0  0  0  0  0999 V2000
   -4.3478    2.8377   12.4891 C   0  0  0  0  0  0  0  0  0  0  0  0
   -1.7275    5.1933   13.3690 N   0  0  0  0  0  0  0  0  0  0  0  0
   -1.9198    3.4927   11.9594 C   0  0  0  0  0  0  0  0  0  0  0  0
   -1.0838    4.4725   12.4252 C   0  0  0  0  0  0  0  0  0  0  0  0
   -2.9347    4.6737   13.4843 C   0  0  0  0  0  0  0  0  0  0  0  0
   -3.9724    5.2139   14.3758 C   0  0  0  0  0  0  0  0  0  0  0  0
   -3.1178    3.6274   12.6332 N   0  0  0  0  0  0  0  0  0  0  0  0
   -1.5994    2.4777   11.0334 N   0  0  0  0  0  0  0  0  0  0  0  0
   -1.5979    2.7809    9.8389 O   0  0  0  0  0  0  0  0  0  0  0  0
   -1.2446    1.3736   11.4380 O   0  0  0  0  0  0  0  0  0  0  0  0
   -4.3312    1.5519   13.2436 C   0  0  0  0  0  0  0  0  0  0  0  0
   -4.8251    1.8361   14.5861 O   0  0  0  0  0  0  0  0  0  0  0  0
   -4.2661    1.0329   15.8144 S   0  0  0  0  0  0  0  0  0  0  0  0
   -4.4226   -0.3456   15.4707 O   0  0  0  0  0  0  0  0  0  0  0  0
   -2.9554    1.5480   16.0708 O   0  0  0  0  0  0  0  0  0  0  0  0
   -5.1967    1.3323   17.0757 N   0  0  0  0  0  0  0  0  0  0  0  0
   -5.1033    2.3125   17.3421 H   0  0  0  0  0  0  0  0  0  0  0  0
   -4.9132    0.7395   17.8558 H   0  0  0  0  0  0  0  0  0  0  0  0
 10  8  2  0  0  0
  9  8  1  0  0  0
  8  3  1  0  0  0
  3  7  1  0  0  0
  3  4  2  0  0  0
  1  7  1  0  0  0
  1 11  1  0  0  0
  7  5  1  0  0  0
  4  2  1  0  0  0
  5  2  2  0  0  0
  5  6  1  0  0  0
 11 12  1  0  0  0
 12 13  1  0  0  0
 16 13  1  0  0  0
 13 15  2  0  0  0
 13 14  2  0  0  0
 16 17  1  0  0  0
 16 18  1  0  0  0
M  CHG 1   8   1
M  CHG 1   9  -1
M  END
> <minimizedAffinity>
-6.14867

$$$$
5O07_1VQ_A_302


 18 18  0  0  0  0  0  0  0  0999 V2000
   -4.0134    1.2135   14.5504 C   0  0  0  0  0  0  0  0  0  0  0  0
   -6.7022    2.7791   16.4235 N   0  0  0  0  0  0  0  0  0  0  0  0
   -5.5512    3.2722   14.5937 C   0  0  0  0  0  0  0  0  0  0  0  0
   -6.5564    3.6816   15.4291 C   0  0  0  0  0  0  0  0  0  0  0  0
   -5.8096    1.8316   16.2086 C   0  0  0  0  0  0  0  0  0  0  0  0
   -5.6818    0.6281   17.0445 C   0  0  0  0  0  0  0  0  0  0  0  0
   -5.0754    2.0737   15.0884 N   0  0  0  0  0  0  0  0  0  0  0  0
   -5.0317    3.9767   13.4874 N   0  0  0  0  0  0  0  0  0  0  0  0
   -3.8619    4.3582   13.5574 O   0  0  0  0  0  0  0  0  0  0  0  0
   -5.7105    4.1022   12.4714 O   0  0  0  0  0  0  0  0  0  0  0  0
   -4.3637    0.5597   13.2571 C   0  0  0  0  0  0  0  0  0  0  0  0
   -3.4987    1.1387   12.2357 O   0  0  0  0  0  0  0  0  0  0  0  0
   -4.0637    1.4243   10.7985 S   0  0  0  0  0  0  0  0  0  0  0  0
   -3.4770    2.6647   10.3985 O   0  0  0  0  0  0  0  0  0  0  0  0
   -3.8119    0.2468   10.0245 O   0  0  0  0  0  0  0  0  0  0  0  0
   -5.6405    1.6421   10.9129 N   0  0  0  0  0  0  0  0  0  0  0  0
   -6.0845    0.7692   11.1978 H   0  0  0  0  0  0  0  0  0  0  0  0
   -6.0102    1.9320   10.0076 H   0  0  0  0  0  0  0  0  0  0  0  0
 10  8  2  0  0  0
  9  8  1  0  0  0
  8  3  1  0  0  0
  3  7  1  0  0  0
  3  4  2  0  0  0
  1  7  1  0  0  0
  1 11  1  0  0  0
  7  5  1  0  0  0
  4  2  1  0  0  0
  5  2  2  0  0  0
  5  6  1  0  0  0
 11 12  1  0  0  0
 12 13  1  0  0  0
 16 13  1  0  0  0
 13 15  2  0  0  0
 13 14  2  0  0  0
 16 17  1  0  0  0
 16 18  1  0  0  0
M  CHG 1   8   1
M  CHG 1   9  -1
M  END
> <minimizedAffinity>
-6.05641

$$$$
5O07_1VQ_A_302


 18 18  0  0  0  0  0  0  0  0999 V2000
   -4.0655    2.8285   14.3462 C   0  0  0  0  0  0  0  0  0  0  0  0
   -7.0199    3.4354   16.3691 N   0  0  0  0  0  0  0  0  0  0  0  0
   -5.4915    1.8346   16.2392 C   0  0  0  0  0  0  0  0  0  0  0  0
   -6.6190    2.2565   16.8924 C   0  0  0  0  0  0  0  0  0  0  0  0
   -6.1603    3.7381   15.4152 C   0  0  0  0  0  0  0  0  0  0  0  0
   -6.2152    4.9832   14.6339 C   0  0  0  0  0  0  0  0  0  0  0  0
   -5.1876    2.7940   15.2934 N   0  0  0  0  0  0  0  0  0  0  0  0
   -4.8132    0.6119   16.4270 N   0  0  0  0  0  0  0  0  0  0  0  0
   -5.5002   -0.3938   16.6148 O   0  0  0  0  0  0  0  0  0  0  0  0
   -3.5919    0.5673   16.3039 O   0  0  0  0  0  0  0  0  0  0  0  0
   -4.2764    1.9920   13.1302 C   0  0  0  0  0  0  0  0  0  0  0  0
   -4.9935    2.8147   12.1629 O   0  0  0  0  0  0  0  0  0  0  0  0
   -4.3084    3.2068   10.8052 S   0  0  0  0  0  0  0  0  0  0  0  0
   -2.9868    3.6253   11.1529 O   0  0  0  0  0  0  0  0  0  0  0  0
   -4.4829    2.0895    9.9276 O   0  0  0  0  0  0  0  0  0  0  0  0
   -5.0782    4.4668   10.1997 N   0  0  0  0  0  0  0  0  0  0  0  0
   -6.0269    4.1942    9.9427 H   0  0  0  0  0  0  0  0  0  0  0  0
   -4.5846    4.8014    9.3722 H   0  0  0  0  0  0  0  0  0  0  0  0
 10  8  2  0  0  0
  9  8  1  0  0  0
  8  3  1  0  0  0
  3  7  1  0  0  0
  3  4  2  0  0  0
  1  7  1  0  0  0
  1 11  1  0  0  0
  7  5  1  0  0  0
  4  2  1  0  0  0
  5  2  2  0  0  0
  5  6  1  0  0  0
 11 12  1  0  0  0
 12 13  1  0  0  0
 16 13  1  0  0  0
 13 15  2  0  0  0
 13 14  2  0  0  0
 16 17  1  0  0  0
 16 18  1  0  0  0
M  CHG 1   8   1
M  CHG 1   9  -1
M  END
> <minimizedAffinity>
-5.94597

$$$$
5O07_1VQ_A_302


 18 18  0  0  0  0  0  0  0  0999 V2000
   -4.1532    1.5666   12.2840 C   0  0  0  0  0  0  0  0  0  0  0  0
   -0.9168    2.9601   11.4049 N   0  0  0  0  0  0  0  0  0  0  0  0
   -2.7011    3.6750   12.5099 C   0  0  0  0  0  0  0  0  0  0  0  0
   -1.4390    4.0009   12.0893 C   0  0  0  0  0  0  0  0  0  0  0  0
   -1.8328    2.0107   11.4026 C   0  0  0  0  0  0  0  0  0  0  0  0
   -1.6288    0.6832   10.8028 C   0  0  0  0  0  0  0  0  0  0  0  0
   -2.9530    2.3878   12.0775 N   0  0  0  0  0  0  0  0  0  0  0  0
   -3.6131    4.5176   13.1795 N   0  0  0  0  0  0  0  0  0  0  0  0
   -3.6126    4.4872   14.4115 O   0  0  0  0  0  0  0  0  0  0  0  0
   -4.2968    5.3095   12.5359 O   0  0  0  0  0  0  0  0  0  0  0  0
   -4.1434    0.7935   13.5587 C   0  0  0  0  0  0  0  0  0  0  0  0
   -4.9170    1.5584   14.5300 O   0  0  0  0  0  0  0  0  0  0  0  0
   -4.6316    1.3936   16.0655 S   0  0  0  0  0  0  0  0  0  0  0  0
   -3.2082    1.4180   16.1927 O   0  0  0  0  0  0  0  0  0  0  0  0
   -5.4130    2.3917   16.7306 O   0  0  0  0  0  0  0  0  0  0  0  0
   -5.1396   -0.0497   16.5187 N   0  0  0  0  0  0  0  0  0  0  0  0
   -6.1554   -0.0937   16.4371 H   0  0  0  0  0  0  0  0  0  0  0  0
   -4.8688   -0.2167   17.4878 H   0  0  0  0  0  0  0  0  0  0  0  0
 10  8  2  0  0  0
  9  8  1  0  0  0
  8  3  1  0  0  0
  3  7  1  0  0  0
  3  4  2  0  0  0
  1  7  1  0  0  0
  1 11  1  0  0  0
  7  5  1  0  0  0
  4  2  1  0  0  0
  5  2  2  0  0  0
  5  6  1  0  0  0
 11 12  1  0  0  0
 12 13  1  0  0  0
 16 13  1  0  0  0
 13 15  2  0  0  0
 13 14  2  0  0  0
 16 17  1  0  0  0
 16 18  1  0  0  0
M  CHG 1   8   1
M  CHG 1   9  -1
M  END
> <minimizedAffinity>
-5.74900

$$$$
