4Q09_V14_A_302


 32 33  0  0  0  0  0  0  0  0999 V2000
   -5.9017    3.4781   15.7169 F   0  0  0  0  0  0  0  0  0  0  0  0
   -5.1339    2.7189   14.8831 C   0  0  0  0  0  0  0  0  0  0  0  0
   -4.7512    1.4344   15.2698 C   0  0  0  0  0  0  0  0  0  0  0  0
   -4.0373    0.7129   14.3886 C   0  0  0  0  0  0  0  0  0  0  0  0
   -3.6356   -0.5770   14.6098 F   0  0  0  0  0  0  0  0  0  0  0  0
   -3.6977    1.1372   13.1468 C   0  0  0  0  0  0  0  0  0  0  0  0
   -2.9655    0.3974   12.3220 F   0  0  0  0  0  0  0  0  0  0  0  0
   -4.7999    3.2587   13.6219 C   0  0  0  0  0  0  0  0  0  0  0  0
   -4.0392    2.4487   12.7809 C   0  0  0  0  0  0  0  0  0  0  0  0
   -5.3388    0.8569   16.8841 S   0  0  0  0  0  0  0  0  0  0  0  0
   -4.6925    1.7364   17.8233 O   0  0  0  0  0  0  0  0  0  0  0  0
   -6.8249    1.0818   16.8663 N   0  0  0  0  0  0  0  0  0  0  0  0
   -5.0394   -0.5325   16.9295 O   0  0  0  0  0  0  0  0  0  0  0  0
   -7.0169    2.0831   16.8338 H   0  0  0  0  0  0  0  0  0  0  0  0
   -7.2392    0.6834   17.7090 H   0  0  0  0  0  0  0  0  0  0  0  0
   -3.3432    2.9952   11.2058 S   0  0  0  0  0  0  0  0  0  0  0  0
   -3.9623    4.2598   10.8720 O   0  0  0  0  0  0  0  0  0  0  0  0
   -3.5158    1.9727   10.1914 O   0  0  0  0  0  0  0  0  0  0  0  0
   -1.5283    3.0588   11.1744 C   0  0  0  0  0  0  0  0  0  0  0  0
   -0.9063    3.6283    9.9161 C   0  0  0  0  0  0  0  0  0  0  0  0
   -1.8049    4.0516    8.8943 O   0  0  0  0  0  0  0  0  0  0  0  0
   -2.3434    4.7887    9.2222 H   0  0  0  0  0  0  0  0  0  0  0  0
   -5.2527    4.5422   13.2407 N   0  0  0  0  0  0  0  0  0  0  0  0
   -6.1042    4.5543   12.7468 H   0  0  0  0  0  0  0  0  0  0  0  0
   -4.6453    5.8642   13.4695 C   0  0  0  0  0  0  0  0  0  0  0  0
   -5.3623    6.7795   12.5267 C   0  0  0  0  0  0  0  0  0  0  0  0
   -6.7145    7.2711   12.9742 C   0  0  0  0  0  0  0  0  0  0  0  0
   -6.5820    8.7325   13.5781 C   0  0  0  0  0  0  0  0  0  0  0  0
   -5.9176    8.9442   15.0055 C   0  0  0  0  0  0  0  0  0  0  0  0
   -4.3838    8.7340   15.0316 C   0  0  0  0  0  0  0  0  0  0  0  0
   -3.8464    7.3345   15.4686 C   0  0  0  0  0  0  0  0  0  0  0  0
   -4.6484    6.1794   14.9672 C   0  0  0  0  0  0  0  0  0  0  0  0
 20 21  1  0  0  0
 20 19  1  0  0  0
 19 16  1  0  0  0
 18 16  2  0  0  0
 32 31  1  0  0  0
 32 25  1  0  0  0
 31 30  1  0  0  0
 23 25  1  0  0  0
 23  8  1  0  0  0
 30 29  1  0  0  0
 16  9  1  0  0  0
 16 17  2  0  0  0
 25 26  1  0  0  0
  8  9  2  0  0  0
  8  2  1  0  0  0
  9  6  1  0  0  0
  1  2  1  0  0  0
 29 28  1  0  0  0
  2  3  2  0  0  0
 28 27  1  0  0  0
 26 27  1  0  0  0
  6  7  1  0  0  0
  6  4  2  0  0  0
  3  4  1  0  0  0
  3 10  1  0  0  0
  4  5  1  0  0  0
 12 10  1  0  0  0
 10 11  2  0  0  0
 10 13  2  0  0  0
 12 14  1  0  0  0
 12 15  1  0  0  0
 21 22  1  0  0  0
 23 24  1  0  0  0
M  END
> <minimizedAffinity>
-9.59673

$$$$
4Q09_V14_A_302


 32 33  0  0  0  0  0  0  0  0999 V2000
   -5.9904    3.4996   15.8470 F   0  0  0  0  0  0  0  0  0  0  0  0
   -5.2055    2.7976   14.9797 C   0  0  0  0  0  0  0  0  0  0  0  0
   -4.7974    1.5039   15.3050 C   0  0  0  0  0  0  0  0  0  0  0  0
   -4.0670    0.8407   14.3922 C   0  0  0  0  0  0  0  0  0  0  0  0
   -3.6394   -0.4500   14.5518 F   0  0  0  0  0  0  0  0  0  0  0  0
   -3.7334    1.3316   13.1734 C   0  0  0  0  0  0  0  0  0  0  0  0
   -2.9844    0.6477   12.3161 F   0  0  0  0  0  0  0  0  0  0  0  0
   -4.8798    3.4047   13.7473 C   0  0  0  0  0  0  0  0  0  0  0  0
   -4.1008    2.6521   12.8704 C   0  0  0  0  0  0  0  0  0  0  0  0
   -5.3765    0.8369   16.8875 S   0  0  0  0  0  0  0  0  0  0  0  0
   -4.7631    1.6925   17.8698 O   0  0  0  0  0  0  0  0  0  0  0  0
   -6.8687    1.0173   16.8690 N   0  0  0  0  0  0  0  0  0  0  0  0
   -5.0351   -0.5434   16.8728 O   0  0  0  0  0  0  0  0  0  0  0  0
   -7.0910    2.0127   16.8799 H   0  0  0  0  0  0  0  0  0  0  0  0
   -7.2756    0.5690   17.6899 H   0  0  0  0  0  0  0  0  0  0  0  0
   -3.4127    3.2884   11.3259 S   0  0  0  0  0  0  0  0  0  0  0  0
   -4.0102    4.5840   11.0846 O   0  0  0  0  0  0  0  0  0  0  0  0
   -3.6179    2.3390   10.2484 O   0  0  0  0  0  0  0  0  0  0  0  0
   -1.5974    3.3190   11.2749 C   0  0  0  0  0  0  0  0  0  0  0  0
   -0.9788    3.8817   10.0119 C   0  0  0  0  0  0  0  0  0  0  0  0
   -1.8646    4.1360    8.9250 O   0  0  0  0  0  0  0  0  0  0  0  0
   -2.5000    4.8233    9.1796 H   0  0  0  0  0  0  0  0  0  0  0  0
   -5.3579    4.6956   13.4273 N   0  0  0  0  0  0  0  0  0  0  0  0
   -5.7096    4.7954   12.5132 H   0  0  0  0  0  0  0  0  0  0  0  0
   -5.4105    5.9144   14.2525 C   0  0  0  0  0  0  0  0  0  0  0  0
   -4.0032    6.1162   14.7213 C   0  0  0  0  0  0  0  0  0  0  0  0
   -3.0605    6.7640   13.7407 C   0  0  0  0  0  0  0  0  0  0  0  0
   -2.9150    8.3083   14.0754 C   0  0  0  0  0  0  0  0  0  0  0  0
   -4.1064    9.3070   13.7485 C   0  0  0  0  0  0  0  0  0  0  0  0
   -5.3327    9.1629   14.6828 C   0  0  0  0  0  0  0  0  0  0  0  0
   -6.5200    8.2728   14.1965 C   0  0  0  0  0  0  0  0  0  0  0  0
   -6.1084    7.0325   13.4746 C   0  0  0  0  0  0  0  0  0  0  0  0
 20 21  1  0  0  0
 20 19  1  0  0  0
 19 16  1  0  0  0
 18 16  2  0  0  0
 32 31  1  0  0  0
 32 25  1  0  0  0
 31 30  1  0  0  0
 23 25  1  0  0  0
 23  8  1  0  0  0
 30 29  1  0  0  0
 16  9  1  0  0  0
 16 17  2  0  0  0
 25 26  1  0  0  0
  8  9  2  0  0  0
  8  2  1  0  0  0
  9  6  1  0  0  0
  1  2  1  0  0  0
 29 28  1  0  0  0
  2  3  2  0  0  0
 28 27  1  0  0  0
 26 27  1  0  0  0
  6  7  1  0  0  0
  6  4  2  0  0  0
  3  4  1  0  0  0
  3 10  1  0  0  0
  4  5  1  0  0  0
 12 10  1  0  0  0
 10 11  2  0  0  0
 10 13  2  0  0  0
 12 14  1  0  0  0
 12 15  1  0  0  0
 21 22  1  0  0  0
 23 24  1  0  0  0
M  END
> <minimizedAffinity>
-9.44039

$$$$
4Q09_V14_A_302


 32 33  0  0  0  0  0  0  0  0999 V2000
   -0.7296    6.0256   12.3734 F   0  0  0  0  0  0  0  0  0  0  0  0
   -1.0563    4.7693   11.9540 C   0  0  0  0  0  0  0  0  0  0  0  0
   -0.2110    4.0887   11.0775 C   0  0  0  0  0  0  0  0  0  0  0  0
   -0.5570    2.8354   10.7367 C   0  0  0  0  0  0  0  0  0  0  0  0
    0.1991    2.0309    9.9272 F   0  0  0  0  0  0  0  0  0  0  0  0
   -1.6469    2.1847   11.2122 C   0  0  0  0  0  0  0  0  0  0  0  0
   -1.9627    0.9550   10.8226 F   0  0  0  0  0  0  0  0  0  0  0  0
   -2.2304    4.1850   12.4770 C   0  0  0  0  0  0  0  0  0  0  0  0
   -2.5227    2.8903   12.0523 C   0  0  0  0  0  0  0  0  0  0  0  0
    1.3034    4.9456   10.5706 S   0  0  0  0  0  0  0  0  0  0  0  0
    0.8255    6.1060    9.8646 O   0  0  0  0  0  0  0  0  0  0  0  0
    1.9844    5.3347   11.8530 N   0  0  0  0  0  0  0  0  0  0  0  0
    2.0736    3.9824    9.8627 O   0  0  0  0  0  0  0  0  0  0  0  0
    1.4161    6.0250   12.3438 H   0  0  0  0  0  0  0  0  0  0  0  0
    2.8995    5.7340   11.6444 H   0  0  0  0  0  0  0  0  0  0  0  0
   -4.0562    2.0183   12.4423 S   0  0  0  0  0  0  0  0  0  0  0  0
   -4.6379    1.5807   11.1917 O   0  0  0  0  0  0  0  0  0  0  0  0
   -4.9333    2.8607   13.2331 O   0  0  0  0  0  0  0  0  0  0  0  0
   -3.8639    0.6744   13.6487 C   0  0  0  0  0  0  0  0  0  0  0  0
   -3.9763    1.0706   15.1064 C   0  0  0  0  0  0  0  0  0  0  0  0
   -3.1496    0.3630   16.0265 O   0  0  0  0  0  0  0  0  0  0  0  0
   -2.2173    0.5397   15.8255 H   0  0  0  0  0  0  0  0  0  0  0  0
   -3.0339    4.8826   13.4073 N   0  0  0  0  0  0  0  0  0  0  0  0
   -3.4839    4.3174   14.0761 H   0  0  0  0  0  0  0  0  0  0  0  0
   -3.3008    6.3259   13.5290 C   0  0  0  0  0  0  0  0  0  0  0  0
   -4.3357    6.6097   12.4853 C   0  0  0  0  0  0  0  0  0  0  0  0
   -5.7579    6.2684   12.8470 C   0  0  0  0  0  0  0  0  0  0  0  0
   -6.5221    7.5777   13.3157 C   0  0  0  0  0  0  0  0  0  0  0  0
   -6.2051    8.2164   14.7352 C   0  0  0  0  0  0  0  0  0  0  0  0
   -4.8289    8.9205   14.8238 C   0  0  0  0  0  0  0  0  0  0  0  0
   -3.6290    8.1070   15.4041 C   0  0  0  0  0  0  0  0  0  0  0  0
   -3.5956    6.6730   14.9901 C   0  0  0  0  0  0  0  0  0  0  0  0
 20 21  1  0  0  0
 20 19  1  0  0  0
 19 16  1  0  0  0
 18 16  2  0  0  0
 32 31  1  0  0  0
 32 25  1  0  0  0
 31 30  1  0  0  0
 23 25  1  0  0  0
 23  8  1  0  0  0
 30 29  1  0  0  0
 16  9  1  0  0  0
 16 17  2  0  0  0
 25 26  1  0  0  0
  8  9  2  0  0  0
  8  2  1  0  0  0
  9  6  1  0  0  0
  1  2  1  0  0  0
 29 28  1  0  0  0
  2  3  2  0  0  0
 28 27  1  0  0  0
 26 27  1  0  0  0
  6  7  1  0  0  0
  6  4  2  0  0  0
  3  4  1  0  0  0
  3 10  1  0  0  0
  4  5  1  0  0  0
 12 10  1  0  0  0
 10 11  2  0  0  0
 10 13  2  0  0  0
 12 14  1  0  0  0
 12 15  1  0  0  0
 21 22  1  0  0  0
 23 24  1  0  0  0
M  END
> <minimizedAffinity>
-7.94680

$$$$
4Q09_V14_A_302


 32 33  0  0  0  0  0  0  0  0999 V2000
   -1.6935    4.9316   12.9296 F   0  0  0  0  0  0  0  0  0  0  0  0
   -1.4648    3.9057   12.0599 C   0  0  0  0  0  0  0  0  0  0  0  0
   -0.3393    3.9323   11.2361 C   0  0  0  0  0  0  0  0  0  0  0  0
   -0.1373    2.8722   10.4348 C   0  0  0  0  0  0  0  0  0  0  0  0
    0.9476    2.7370    9.6110 F   0  0  0  0  0  0  0  0  0  0  0  0
   -0.9316    1.7742   10.4011 C   0  0  0  0  0  0  0  0  0  0  0  0
   -0.7062    0.7632    9.5700 F   0  0  0  0  0  0  0  0  0  0  0  0
   -2.3667    2.8194   12.0713 C   0  0  0  0  0  0  0  0  0  0  0  0
   -2.0910    1.7736   11.1925 C   0  0  0  0  0  0  0  0  0  0  0  0
    0.7673    5.3572   11.4086 S   0  0  0  0  0  0  0  0  0  0  0  0
    0.2520    6.0597   12.5550 O   0  0  0  0  0  0  0  0  0  0  0  0
    2.1217    4.7720   11.6962 N   0  0  0  0  0  0  0  0  0  0  0  0
    0.7574    6.0089   10.1448 O   0  0  0  0  0  0  0  0  0  0  0  0
    2.1064    4.3103   12.6056 H   0  0  0  0  0  0  0  0  0  0  0  0
    2.8189    5.5165   11.7045 H   0  0  0  0  0  0  0  0  0  0  0  0
   -3.1977    0.3751   10.9036 S   0  0  0  0  0  0  0  0  0  0  0  0
   -3.2855    0.1782    9.4727 O   0  0  0  0  0  0  0  0  0  0  0  0
   -4.4799    0.6005   11.5435 O   0  0  0  0  0  0  0  0  0  0  0  0
   -2.7429   -1.1346   11.8050 C   0  0  0  0  0  0  0  0  0  0  0  0
   -2.0908   -2.2270   10.9829 C   0  0  0  0  0  0  0  0  0  0  0  0
   -2.4253   -3.5695   11.3240 O   0  0  0  0  0  0  0  0  0  0  0  0
   -3.3713   -3.7166   11.1679 H   0  0  0  0  0  0  0  0  0  0  0  0
   -3.4657    2.8001   12.9598 N   0  0  0  0  0  0  0  0  0  0  0  0
   -4.3419    2.9665   12.5430 H   0  0  0  0  0  0  0  0  0  0  0  0
   -3.5003    2.5690   14.4139 C   0  0  0  0  0  0  0  0  0  0  0  0
   -4.0739    3.8284   14.9847 C   0  0  0  0  0  0  0  0  0  0  0  0
   -5.5731    3.9655   14.9232 C   0  0  0  0  0  0  0  0  0  0  0  0
   -6.2061    3.5764   16.3253 C   0  0  0  0  0  0  0  0  0  0  0  0
   -6.2600    2.0542   16.7768 C   0  0  0  0  0  0  0  0  0  0  0  0
   -4.8861    1.4569   17.1683 C   0  0  0  0  0  0  0  0  0  0  0  0
   -4.1016    0.6568   16.0807 C   0  0  0  0  0  0  0  0  0  0  0  0
   -4.1876    1.2332   14.7062 C   0  0  0  0  0  0  0  0  0  0  0  0
 20 21  1  0  0  0
 20 19  1  0  0  0
 19 16  1  0  0  0
 18 16  2  0  0  0
 32 31  1  0  0  0
 32 25  1  0  0  0
 31 30  1  0  0  0
 23 25  1  0  0  0
 23  8  1  0  0  0
 30 29  1  0  0  0
 16  9  1  0  0  0
 16 17  2  0  0  0
 25 26  1  0  0  0
  8  9  2  0  0  0
  8  2  1  0  0  0
  9  6  1  0  0  0
  1  2  1  0  0  0
 29 28  1  0  0  0
  2  3  2  0  0  0
 28 27  1  0  0  0
 26 27  1  0  0  0
  6  7  1  0  0  0
  6  4  2  0  0  0
  3  4  1  0  0  0
  3 10  1  0  0  0
  4  5  1  0  0  0
 12 10  1  0  0  0
 10 11  2  0  0  0
 10 13  2  0  0  0
 12 14  1  0  0  0
 12 15  1  0  0  0
 21 22  1  0  0  0
 23 24  1  0  0  0
M  END
> <minimizedAffinity>
-7.85123

$$$$
4Q09_V14_A_302


 32 33  0  0  0  0  0  0  0  0999 V2000
   -3.9366    1.2266   15.0020 F   0  0  0  0  0  0  0  0  0  0  0  0
   -4.4874    2.4704   15.1049 C   0  0  0  0  0  0  0  0  0  0  0  0
   -5.3657    2.7559   16.1504 C   0  0  0  0  0  0  0  0  0  0  0  0
   -5.8393    4.0112   16.2316 C   0  0  0  0  0  0  0  0  0  0  0  0
   -6.6679    4.4487   17.2296 F   0  0  0  0  0  0  0  0  0  0  0  0
   -5.4949    5.0165   15.3900 C   0  0  0  0  0  0  0  0  0  0  0  0
   -6.0129    6.2349   15.4939 F   0  0  0  0  0  0  0  0  0  0  0  0
   -4.0951    3.4444   14.1610 C   0  0  0  0  0  0  0  0  0  0  0  0
   -4.6524    4.7131   14.3089 C   0  0  0  0  0  0  0  0  0  0  0  0
   -5.6956    1.4198   17.3298 S   0  0  0  0  0  0  0  0  0  0  0  0
   -6.9133    0.8229   16.8458 O   0  0  0  0  0  0  0  0  0  0  0  0
   -4.5359    0.4740   17.1886 N   0  0  0  0  0  0  0  0  0  0  0  0
   -5.6954    2.0298   18.6143 O   0  0  0  0  0  0  0  0  0  0  0  0
   -4.5551    0.0484   16.2618 H   0  0  0  0  0  0  0  0  0  0  0  0
   -4.6032   -0.2549   17.8989 H   0  0  0  0  0  0  0  0  0  0  0  0
   -4.4413    6.0570   13.1200 S   0  0  0  0  0  0  0  0  0  0  0  0
   -5.6971    6.2195   12.4197 O   0  0  0  0  0  0  0  0  0  0  0  0
   -3.3139    5.7910   12.2468 O   0  0  0  0  0  0  0  0  0  0  0  0
   -3.8228    7.6033   13.8445 C   0  0  0  0  0  0  0  0  0  0  0  0
   -4.7362    8.8054   13.7212 C   0  0  0  0  0  0  0  0  0  0  0  0
   -5.2244    9.1058   12.4165 O   0  0  0  0  0  0  0  0  0  0  0  0
   -5.7828    8.3767   12.1044 H   0  0  0  0  0  0  0  0  0  0  0  0
   -3.1592    3.1353   13.1481 N   0  0  0  0  0  0  0  0  0  0  0  0
   -2.2562    3.5015   13.2888 H   0  0  0  0  0  0  0  0  0  0  0  0
   -3.3283    2.3493   11.9142 C   0  0  0  0  0  0  0  0  0  0  0  0
   -2.2541    2.8461   10.9975 C   0  0  0  0  0  0  0  0  0  0  0  0
   -0.8741    2.2846   11.2221 C   0  0  0  0  0  0  0  0  0  0  0  0
   -0.5934    1.1178   10.1840 C   0  0  0  0  0  0  0  0  0  0  0  0
   -1.3077   -0.2902   10.3603 C   0  0  0  0  0  0  0  0  0  0  0  0
   -2.8201   -0.2832   10.0285 C   0  0  0  0  0  0  0  0  0  0  0  0
   -3.8257   -0.1112   11.2106 C   0  0  0  0  0  0  0  0  0  0  0  0
   -3.3895    0.8592   12.2579 C   0  0  0  0  0  0  0  0  0  0  0  0
 20 21  1  0  0  0
 20 19  1  0  0  0
 19 16  1  0  0  0
 18 16  2  0  0  0
 32 31  1  0  0  0
 32 25  1  0  0  0
 31 30  1  0  0  0
 23 25  1  0  0  0
 23  8  1  0  0  0
 30 29  1  0  0  0
 16  9  1  0  0  0
 16 17  2  0  0  0
 25 26  1  0  0  0
  8  9  2  0  0  0
  8  2  1  0  0  0
  9  6  1  0  0  0
  1  2  1  0  0  0
 29 28  1  0  0  0
  2  3  2  0  0  0
 28 27  1  0  0  0
 26 27  1  0  0  0
  6  7  1  0  0  0
  6  4  2  0  0  0
  3  4  1  0  0  0
  3 10  1  0  0  0
  4  5  1  0  0  0
 12 10  1  0  0  0
 10 11  2  0  0  0
 10 13  2  0  0  0
 12 14  1  0  0  0
 12 15  1  0  0  0
 21 22  1  0  0  0
 23 24  1  0  0  0
M  END
> <minimizedAffinity>
-7.72140

$$$$
4Q09_V14_A_302


 32 33  0  0  0  0  0  0  0  0999 V2000
   -4.5287    2.5866   11.8551 F   0  0  0  0  0  0  0  0  0  0  0  0
   -3.2165    2.6902   11.4968 C   0  0  0  0  0  0  0  0  0  0  0  0
   -2.4823    1.5390   11.2108 C   0  0  0  0  0  0  0  0  0  0  0  0
   -1.2084    1.7033   10.8151 C   0  0  0  0  0  0  0  0  0  0  0  0
   -0.3846    0.6712   10.4542 F   0  0  0  0  0  0  0  0  0  0  0  0
   -0.6074    2.9065   10.6452 C   0  0  0  0  0  0  0  0  0  0  0  0
    0.6645    3.0166   10.2796 F   0  0  0  0  0  0  0  0  0  0  0  0
   -2.6663    3.9852   11.3792 C   0  0  0  0  0  0  0  0  0  0  0  0
   -1.3321    4.0601   10.9839 C   0  0  0  0  0  0  0  0  0  0  0  0
   -3.3626   -0.0413   11.3223 S   0  0  0  0  0  0  0  0  0  0  0  0
   -4.4360    0.0918   10.3718 O   0  0  0  0  0  0  0  0  0  0  0  0
   -2.3699   -1.0780   10.8758 N   0  0  0  0  0  0  0  0  0  0  0  0
   -3.6826   -0.2089   12.6976 O   0  0  0  0  0  0  0  0  0  0  0  0
   -2.1548   -0.9397    9.8883 H   0  0  0  0  0  0  0  0  0  0  0  0
   -2.7659   -2.0083   11.0104 H   0  0  0  0  0  0  0  0  0  0  0  0
   -0.3715    5.5897   10.9449 S   0  0  0  0  0  0  0  0  0  0  0  0
    0.5790    5.5344   12.0345 O   0  0  0  0  0  0  0  0  0  0  0  0
   -1.2500    6.7432   10.9919 O   0  0  0  0  0  0  0  0  0  0  0  0
    0.4021    5.9439    9.3403 C   0  0  0  0  0  0  0  0  0  0  0  0
   -0.4672    5.7179    8.1206 C   0  0  0  0  0  0  0  0  0  0  0  0
   -1.8180    6.1635    8.2072 O   0  0  0  0  0  0  0  0  0  0  0  0
   -1.8344    7.1280    8.3089 H   0  0  0  0  0  0  0  0  0  0  0  0
   -3.4558    5.1321   11.6222 N   0  0  0  0  0  0  0  0  0  0  0  0
   -3.4137    5.8232   10.9223 H   0  0  0  0  0  0  0  0  0  0  0  0
   -4.3317    5.4512   12.7623 C   0  0  0  0  0  0  0  0  0  0  0  0
   -3.4268    5.4268   13.9545 C   0  0  0  0  0  0  0  0  0  0  0  0
   -2.5963    6.6624   14.1861 C   0  0  0  0  0  0  0  0  0  0  0  0
   -3.2827    7.5719   15.2905 C   0  0  0  0  0  0  0  0  0  0  0  0
   -4.5952    8.3944   14.9377 C   0  0  0  0  0  0  0  0  0  0  0  0
   -5.8680    7.5265   14.7815 C   0  0  0  0  0  0  0  0  0  0  0  0
   -6.2784    7.0859   13.3407 C   0  0  0  0  0  0  0  0  0  0  0  0
   -5.1332    6.7185   12.4561 C   0  0  0  0  0  0  0  0  0  0  0  0
 20 21  1  0  0  0
 20 19  1  0  0  0
 19 16  1  0  0  0
 18 16  2  0  0  0
 32 31  1  0  0  0
 32 25  1  0  0  0
 31 30  1  0  0  0
 23 25  1  0  0  0
 23  8  1  0  0  0
 30 29  1  0  0  0
 16  9  1  0  0  0
 16 17  2  0  0  0
 25 26  1  0  0  0
  8  9  2  0  0  0
  8  2  1  0  0  0
  9  6  1  0  0  0
  1  2  1  0  0  0
 29 28  1  0  0  0
  2  3  2  0  0  0
 28 27  1  0  0  0
 26 27  1  0  0  0
  6  7  1  0  0  0
  6  4  2  0  0  0
  3  4  1  0  0  0
  3 10  1  0  0  0
  4  5  1  0  0  0
 12 10  1  0  0  0
 10 11  2  0  0  0
 10 13  2  0  0  0
 12 14  1  0  0  0
 12 15  1  0  0  0
 21 22  1  0  0  0
 23 24  1  0  0  0
M  END
> <minimizedAffinity>
-7.67399

$$$$
4Q09_V14_A_302


 32 33  0  0  0  0  0  0  0  0999 V2000
   -4.4647    2.6546   11.9077 F   0  0  0  0  0  0  0  0  0  0  0  0
   -3.1778    2.7352   11.4623 C   0  0  0  0  0  0  0  0  0  0  0  0
   -2.4807    1.5705   11.1407 C   0  0  0  0  0  0  0  0  0  0  0  0
   -1.2336    1.7120   10.6598 C   0  0  0  0  0  0  0  0  0  0  0  0
   -0.4503    0.6642   10.2563 F   0  0  0  0  0  0  0  0  0  0  0  0
   -0.6282    2.9043   10.4375 C   0  0  0  0  0  0  0  0  0  0  0  0
    0.6181    2.9920    9.9874 F   0  0  0  0  0  0  0  0  0  0  0  0
   -2.6183    4.0207   11.2946 C   0  0  0  0  0  0  0  0  0  0  0  0
   -1.3124    4.0718   10.8110 C   0  0  0  0  0  0  0  0  0  0  0  0
   -3.3739    0.0045   11.3273 S   0  0  0  0  0  0  0  0  0  0  0  0
   -4.4606    0.1113   10.3887 O   0  0  0  0  0  0  0  0  0  0  0  0
   -2.3980   -1.0586   10.9067 N   0  0  0  0  0  0  0  0  0  0  0  0
   -3.6742   -0.1060   12.7128 O   0  0  0  0  0  0  0  0  0  0  0  0
   -2.1969   -0.9611    9.9115 H   0  0  0  0  0  0  0  0  0  0  0  0
   -2.8006   -1.9789   11.0837 H   0  0  0  0  0  0  0  0  0  0  0  0
   -0.3350    5.5866   10.6919 S   0  0  0  0  0  0  0  0  0  0  0  0
   -1.2438    6.7032   10.8370 O   0  0  0  0  0  0  0  0  0  0  0  0
    0.4243    5.6062    9.4561 O   0  0  0  0  0  0  0  0  0  0  0  0
    1.0721    5.6582   11.8380 C   0  0  0  0  0  0  0  0  0  0  0  0
    2.4363    5.4058   11.2300 C   0  0  0  0  0  0  0  0  0  0  0  0
    3.0735    4.1793   11.5769 O   0  0  0  0  0  0  0  0  0  0  0  0
    2.5471    3.4359   11.2436 H   0  0  0  0  0  0  0  0  0  0  0  0
   -3.3736    5.1815   11.5768 N   0  0  0  0  0  0  0  0  0  0  0  0
   -3.3081    5.8958   10.9025 H   0  0  0  0  0  0  0  0  0  0  0  0
   -4.2437    5.4857   12.7255 C   0  0  0  0  0  0  0  0  0  0  0  0
   -3.3250    5.4872   13.9074 C   0  0  0  0  0  0  0  0  0  0  0  0
   -2.5202    6.7423   14.1244 C   0  0  0  0  0  0  0  0  0  0  0  0
   -3.2146    7.6408   15.2327 C   0  0  0  0  0  0  0  0  0  0  0  0
   -4.5494    8.4317   14.8915 C   0  0  0  0  0  0  0  0  0  0  0  0
   -5.8037    7.5345   14.7534 C   0  0  0  0  0  0  0  0  0  0  0  0
   -6.2203    7.0784   13.3193 C   0  0  0  0  0  0  0  0  0  0  0  0
   -5.0772    6.7332   12.4232 C   0  0  0  0  0  0  0  0  0  0  0  0
 20 21  1  0  0  0
 20 19  1  0  0  0
 19 16  1  0  0  0
 18 16  2  0  0  0
 32 31  1  0  0  0
 32 25  1  0  0  0
 31 30  1  0  0  0
 23 25  1  0  0  0
 23  8  1  0  0  0
 30 29  1  0  0  0
 16  9  1  0  0  0
 16 17  2  0  0  0
 25 26  1  0  0  0
  8  9  2  0  0  0
  8  2  1  0  0  0
  9  6  1  0  0  0
  1  2  1  0  0  0
 29 28  1  0  0  0
  2  3  2  0  0  0
 28 27  1  0  0  0
 26 27  1  0  0  0
  6  7  1  0  0  0
  6  4  2  0  0  0
  3  4  1  0  0  0
  3 10  1  0  0  0
  4  5  1  0  0  0
 12 10  1  0  0  0
 10 11  2  0  0  0
 10 13  2  0  0  0
 12 14  1  0  0  0
 12 15  1  0  0  0
 21 22  1  0  0  0
 23 24  1  0  0  0
M  END
> <minimizedAffinity>
-7.49383

$$$$
4Q09_V14_A_302


 32 33  0  0  0  0  0  0  0  0999 V2000
   -2.9965    1.4917   12.8981 F   0  0  0  0  0  0  0  0  0  0  0  0
   -3.7894    2.4617   13.4379 C   0  0  0  0  0  0  0  0  0  0  0  0
   -4.4181    2.2415   14.6636 C   0  0  0  0  0  0  0  0  0  0  0  0
   -5.1470    3.2499   15.1719 C   0  0  0  0  0  0  0  0  0  0  0  0
   -5.7781    3.1959   16.3856 F   0  0  0  0  0  0  0  0  0  0  0  0
   -5.2813    4.4674   14.5914 C   0  0  0  0  0  0  0  0  0  0  0  0
   -6.0371    5.4234   15.1192 F   0  0  0  0  0  0  0  0  0  0  0  0
   -3.8971    3.6863   12.7434 C   0  0  0  0  0  0  0  0  0  0  0  0
   -4.6908    4.6679   13.3337 C   0  0  0  0  0  0  0  0  0  0  0  0
   -4.1044    0.6486   15.4693 S   0  0  0  0  0  0  0  0  0  0  0  0
   -2.9242    0.8860   16.2593 O   0  0  0  0  0  0  0  0  0  0  0  0
   -5.3022    0.4070   16.3448 N   0  0  0  0  0  0  0  0  0  0  0  0
   -4.0449   -0.3096   14.4203 O   0  0  0  0  0  0  0  0  0  0  0  0
   -5.3254    1.1041   17.0891 H   0  0  0  0  0  0  0  0  0  0  0  0
   -5.2417   -0.5253   16.7540 H   0  0  0  0  0  0  0  0  0  0  0  0
   -5.1200    6.2345   12.5428 S   0  0  0  0  0  0  0  0  0  0  0  0
   -6.4901    6.5387   12.8951 O   0  0  0  0  0  0  0  0  0  0  0  0
   -4.8848    6.1636   11.1131 O   0  0  0  0  0  0  0  0  0  0  0  0
   -3.9711    7.5932   12.9069 C   0  0  0  0  0  0  0  0  0  0  0  0
   -3.3888    7.6126   14.3051 C   0  0  0  0  0  0  0  0  0  0  0  0
   -2.6004    8.7475   14.6532 O   0  0  0  0  0  0  0  0  0  0  0  0
   -3.1549    9.5433   14.6386 H   0  0  0  0  0  0  0  0  0  0  0  0
   -3.2005    3.8950   11.5314 N   0  0  0  0  0  0  0  0  0  0  0  0
   -3.6617    3.5711   10.7242 H   0  0  0  0  0  0  0  0  0  0  0  0
   -1.8901    4.5230   11.2917 C   0  0  0  0  0  0  0  0  0  0  0  0
   -0.8982    3.4202   11.4940 C   0  0  0  0  0  0  0  0  0  0  0  0
   -0.7089    2.4736   10.3373 C   0  0  0  0  0  0  0  0  0  0  0  0
    0.5880    2.8792    9.5178 C   0  0  0  0  0  0  0  0  0  0  0  0
    0.5707    4.1705    8.5927 C   0  0  0  0  0  0  0  0  0  0  0  0
    0.5741    5.5102    9.3690 C   0  0  0  0  0  0  0  0  0  0  0  0
   -0.7990    6.2073    9.6276 C   0  0  0  0  0  0  0  0  0  0  0  0
   -1.9152    5.2723    9.9574 C   0  0  0  0  0  0  0  0  0  0  0  0
 20 21  1  0  0  0
 20 19  1  0  0  0
 19 16  1  0  0  0
 18 16  2  0  0  0
 32 31  1  0  0  0
 32 25  1  0  0  0
 31 30  1  0  0  0
 23 25  1  0  0  0
 23  8  1  0  0  0
 30 29  1  0  0  0
 16  9  1  0  0  0
 16 17  2  0  0  0
 25 26  1  0  0  0
  8  9  2  0  0  0
  8  2  1  0  0  0
  9  6  1  0  0  0
  1  2  1  0  0  0
 29 28  1  0  0  0
  2  3  2  0  0  0
 28 27  1  0  0  0
 26 27  1  0  0  0
  6  7  1  0  0  0
  6  4  2  0  0  0
  3  4  1  0  0  0
  3 10  1  0  0  0
  4  5  1  0  0  0
 12 10  1  0  0  0
 10 11  2  0  0  0
 10 13  2  0  0  0
 12 14  1  0  0  0
 12 15  1  0  0  0
 21 22  1  0  0  0
 23 24  1  0  0  0
M  END
> <minimizedAffinity>
-7.34944

$$$$
4Q09_V14_A_302


 32 33  0  0  0  0  0  0  0  0999 V2000
   -4.0043    3.9743   11.8917 F   0  0  0  0  0  0  0  0  0  0  0  0
   -2.7575    3.6620   11.4346 C   0  0  0  0  0  0  0  0  0  0  0  0
   -2.3515    2.3284   11.3825 C   0  0  0  0  0  0  0  0  0  0  0  0
   -1.1321    2.0751   10.8771 C   0  0  0  0  0  0  0  0  0  0  0  0
   -0.6211    0.8150   10.7183 F   0  0  0  0  0  0  0  0  0  0  0  0
   -0.2931    3.0210   10.3883 C   0  0  0  0  0  0  0  0  0  0  0  0
    0.9155    2.7235    9.9250 F   0  0  0  0  0  0  0  0  0  0  0  0
   -1.9398    4.7186   10.9780 C   0  0  0  0  0  0  0  0  0  0  0  0
   -0.6829    4.3656   10.4903 C   0  0  0  0  0  0  0  0  0  0  0  0
   -3.5548    1.0853   11.9222 S   0  0  0  0  0  0  0  0  0  0  0  0
   -3.6502    1.2895   13.3444 O   0  0  0  0  0  0  0  0  0  0  0  0
   -4.8394    1.4554   11.2350 N   0  0  0  0  0  0  0  0  0  0  0  0
   -3.0658   -0.1601   11.4406 O   0  0  0  0  0  0  0  0  0  0  0  0
   -5.1719    2.3501   11.5948 H   0  0  0  0  0  0  0  0  0  0  0  0
   -5.5400    0.7358   11.4132 H   0  0  0  0  0  0  0  0  0  0  0  0
    0.5949    5.5561   10.0275 S   0  0  0  0  0  0  0  0  0  0  0  0
   -0.0530    6.6328    9.3099 O   0  0  0  0  0  0  0  0  0  0  0  0
    1.6501    4.9032    9.2762 O   0  0  0  0  0  0  0  0  0  0  0  0
    1.6129    6.1349   11.4158 C   0  0  0  0  0  0  0  0  0  0  0  0
    3.0162    5.5695   11.4901 C   0  0  0  0  0  0  0  0  0  0  0  0
    3.1296    4.1527   11.5937 O   0  0  0  0  0  0  0  0  0  0  0  0
    2.7723    3.7403   10.7917 H   0  0  0  0  0  0  0  0  0  0  0  0
   -2.4054    6.0530   10.9930 N   0  0  0  0  0  0  0  0  0  0  0  0
   -2.8867    6.3359   10.1821 H   0  0  0  0  0  0  0  0  0  0  0  0
   -2.2806    7.0849   12.0363 C   0  0  0  0  0  0  0  0  0  0  0  0
   -3.6315    7.7269   12.0985 C   0  0  0  0  0  0  0  0  0  0  0  0
   -4.6837    6.9906   12.8864 C   0  0  0  0  0  0  0  0  0  0  0  0
   -4.8134    7.6262   14.3345 C   0  0  0  0  0  0  0  0  0  0  0  0
   -3.6783    7.3735   15.4168 C   0  0  0  0  0  0  0  0  0  0  0  0
   -2.3561    8.1309   15.1418 C   0  0  0  0  0  0  0  0  0  0  0  0
   -1.2163    7.3637   14.3998 C   0  0  0  0  0  0  0  0  0  0  0  0
   -1.6866    6.4658   13.3037 C   0  0  0  0  0  0  0  0  0  0  0  0
 20 21  1  0  0  0
 20 19  1  0  0  0
 19 16  1  0  0  0
 18 16  2  0  0  0
 32 31  1  0  0  0
 32 25  1  0  0  0
 31 30  1  0  0  0
 23 25  1  0  0  0
 23  8  1  0  0  0
 30 29  1  0  0  0
 16  9  1  0  0  0
 16 17  2  0  0  0
 25 26  1  0  0  0
  8  9  2  0  0  0
  8  2  1  0  0  0
  9  6  1  0  0  0
  1  2  1  0  0  0
 29 28  1  0  0  0
  2  3  2  0  0  0
 28 27  1  0  0  0
 26 27  1  0  0  0
  6  7  1  0  0  0
  6  4  2  0  0  0
  3  4  1  0  0  0
  3 10  1  0  0  0
  4  5  1  0  0  0
 12 10  1  0  0  0
 10 11  2  0  0  0
 10 13  2  0  0  0
 12 14  1  0  0  0
 12 15  1  0  0  0
 21 22  1  0  0  0
 23 24  1  0  0  0
M  END
> <minimizedAffinity>
-7.23031

$$$$
4Q09_V14_A_302


 32 33  0  0  0  0  0  0  0  0999 V2000
   -5.7257    6.2383   13.5416 F   0  0  0  0  0  0  0  0  0  0  0  0
   -4.7567    6.2764   12.5821 C   0  0  0  0  0  0  0  0  0  0  0  0
   -4.3222    7.5046   12.0834 C   0  0  0  0  0  0  0  0  0  0  0  0
   -3.3308    7.4850   11.1760 C   0  0  0  0  0  0  0  0  0  0  0  0
   -2.7701    8.6117   10.6373 F   0  0  0  0  0  0  0  0  0  0  0  0
   -2.7091    6.3606   10.7439 C   0  0  0  0  0  0  0  0  0  0  0  0
   -1.7526    6.3904    9.8230 F   0  0  0  0  0  0  0  0  0  0  0  0
   -4.1911    5.0507   12.1683 C   0  0  0  0  0  0  0  0  0  0  0  0
   -3.1838    5.1238   11.2082 C   0  0  0  0  0  0  0  0  0  0  0  0
   -5.0878    8.9898   12.7855 S   0  0  0  0  0  0  0  0  0  0  0  0
   -4.4956   10.0704   12.0405 O   0  0  0  0  0  0  0  0  0  0  0  0
   -6.5536    8.8604   12.4786 N   0  0  0  0  0  0  0  0  0  0  0  0
   -4.8575    8.9172   14.1868 O   0  0  0  0  0  0  0  0  0  0  0  0
   -6.6959    8.9150   11.4701 H   0  0  0  0  0  0  0  0  0  0  0  0
   -7.0646    9.6157   12.9355 H   0  0  0  0  0  0  0  0  0  0  0  0
   -2.4483    3.6849   10.4002 S   0  0  0  0  0  0  0  0  0  0  0  0
   -2.0467    4.0906    9.0705 O   0  0  0  0  0  0  0  0  0  0  0  0
   -3.3705    2.5653   10.4175 O   0  0  0  0  0  0  0  0  0  0  0  0
   -1.1070    2.9043   11.3437 C   0  0  0  0  0  0  0  0  0  0  0  0
   -0.7830    1.4715   10.9744 C   0  0  0  0  0  0  0  0  0  0  0  0
   -0.9950    1.0983    9.6155 O   0  0  0  0  0  0  0  0  0  0  0  0
   -0.4009    1.6089    9.0435 H   0  0  0  0  0  0  0  0  0  0  0  0
   -4.6166    3.8285   12.7365 N   0  0  0  0  0  0  0  0  0  0  0  0
   -5.4158    3.4313   12.3208 H   0  0  0  0  0  0  0  0  0  0  0  0
   -4.0472    3.0585   13.8553 C   0  0  0  0  0  0  0  0  0  0  0  0
   -4.4481    3.8179   15.0815 C   0  0  0  0  0  0  0  0  0  0  0  0
   -5.8524    3.5896   15.5773 C   0  0  0  0  0  0  0  0  0  0  0  0
   -5.8366    2.5496   16.7757 C   0  0  0  0  0  0  0  0  0  0  0  0
   -5.5775    1.0092   16.4864 C   0  0  0  0  0  0  0  0  0  0  0  0
   -4.1169    0.6706   16.0997 C   0  0  0  0  0  0  0  0  0  0  0  0
   -3.7688    0.5700   14.5808 C   0  0  0  0  0  0  0  0  0  0  0  0
   -4.4455    1.5868   13.7222 C   0  0  0  0  0  0  0  0  0  0  0  0
 20 21  1  0  0  0
 20 19  1  0  0  0
 19 16  1  0  0  0
 18 16  2  0  0  0
 32 31  1  0  0  0
 32 25  1  0  0  0
 31 30  1  0  0  0
 23 25  1  0  0  0
 23  8  1  0  0  0
 30 29  1  0  0  0
 16  9  1  0  0  0
 16 17  2  0  0  0
 25 26  1  0  0  0
  8  9  2  0  0  0
  8  2  1  0  0  0
  9  6  1  0  0  0
  1  2  1  0  0  0
 29 28  1  0  0  0
  2  3  2  0  0  0
 28 27  1  0  0  0
 26 27  1  0  0  0
  6  7  1  0  0  0
  6  4  2  0  0  0
  3  4  1  0  0  0
  3 10  1  0  0  0
  4  5  1  0  0  0
 12 10  1  0  0  0
 10 11  2  0  0  0
 10 13  2  0  0  0
 12 14  1  0  0  0
 12 15  1  0  0  0
 21 22  1  0  0  0
 23 24  1  0  0  0
M  END
> <minimizedAffinity>
-7.18392

$$$$
