2VXN_PGH_A_1251


 14 13  0  0  0  0  0  0  0  0999 V2000
   27.2331   -2.6294    8.1126 C   0  0  0  0  0  0  0  0  0  0  0  0
   26.4692   -1.5059    7.4233 C   0  0  0  0  0  0  0  0  0  0  0  0
   27.0879   -0.8585    6.5433 N   0  0  0  0  0  0  0  0  0  0  0  0
   26.4464    0.0171    5.7835 O   0  0  0  0  0  0  0  0  0  0  0  0
   25.2796   -1.3493    7.7648 O   0  0  0  0  0  0  0  0  0  0  0  0
   28.0537   -1.0021    6.4173 H   0  0  0  0  0  0  0  0  0  0  0  0
   25.5096    0.0376    6.0342 H   0  0  0  0  0  0  0  0  0  0  0  0
   27.4533   -2.2290    9.4885 O   0  0  0  0  0  0  0  0  0  0  0  0
   27.0568   -3.2148   11.7351 O   0  0  0  0  0  0  0  0  0  0  0  0
   25.5021   -1.3304   10.9129 O   0  0  0  0  0  0  0  0  0  0  0  0
   25.3982   -3.6381    9.8494 O   0  0  0  0  0  0  0  0  0  0  0  0
   26.2765   -2.6055   10.5510 P   0  0  0  0  0  0  0  0  0  0  0  0
   26.0973   -0.7051   11.3550 H   0  0  0  0  0  0  0  0  0  0  0  0
   25.9271   -4.4239    9.6404 H   0  0  0  0  0  0  0  0  0  0  0  0
  2  1  1  0  0  0
  2  3  1  0  0  0
  2  5  2  0  0  0
  1  8  1  0  0  0
  3  4  1  0  0  0
  8 12  1  0  0  0
  9 12  2  0  0  0
 10 12  1  0  0  0
 11 12  1  0  0  0
  3  6  1  0  0  0
  4  7  1  0  0  0
 10 13  1  0  0  0
 11 14  1  0  0  0
M  END
> <minimizedAffinity>
-6.33242

$$$$
2VXN_PGH_A_1251


 14 13  0  0  0  0  0  0  0  0999 V2000
   26.4187   -2.5447    9.5752 C   0  0  0  0  0  0  0  0  0  0  0  0
   26.4470   -2.6152   11.0967 C   0  0  0  0  0  0  0  0  0  0  0  0
   25.9218   -1.6582   11.7169 N   0  0  0  0  0  0  0  0  0  0  0  0
   25.7557   -1.7238   13.0298 O   0  0  0  0  0  0  0  0  0  0  0  0
   26.9559   -3.6379   11.5981 O   0  0  0  0  0  0  0  0  0  0  0  0
   25.6322   -0.8556   11.2257 H   0  0  0  0  0  0  0  0  0  0  0  0
   26.0911   -2.5734   13.3561 H   0  0  0  0  0  0  0  0  0  0  0  0
   27.7181   -2.0765    9.1345 O   0  0  0  0  0  0  0  0  0  0  0  0
   27.3870   -3.3289    7.0136 O   0  0  0  0  0  0  0  0  0  0  0  0
   27.2018   -0.7582    6.9806 O   0  0  0  0  0  0  0  0  0  0  0  0
   29.4580   -1.8797    7.3252 O   0  0  0  0  0  0  0  0  0  0  0  0
   27.9482   -1.9847    7.5239 P   0  0  0  0  0  0  0  0  0  0  0  0
   26.2493   -0.8679    7.1278 H   0  0  0  0  0  0  0  0  0  0  0  0
   29.8870   -2.6732    7.6819 H   0  0  0  0  0  0  0  0  0  0  0  0
  2  1  1  0  0  0
  2  3  1  0  0  0
  2  5  2  0  0  0
  1  8  1  0  0  0
  3  4  1  0  0  0
  8 12  1  0  0  0
  9 12  2  0  0  0
 10 12  1  0  0  0
 11 12  1  0  0  0
  3  6  1  0  0  0
  4  7  1  0  0  0
 10 13  1  0  0  0
 11 14  1  0  0  0
M  END
> <minimizedAffinity>
-6.25925

$$$$
2VXN_PGH_A_1251


 14 13  0  0  0  0  0  0  0  0999 V2000
   27.4458   -2.8072    8.4631 C   0  0  0  0  0  0  0  0  0  0  0  0
   27.2727   -1.7334    7.3964 C   0  0  0  0  0  0  0  0  0  0  0  0
   26.1083   -1.3013    7.2127 N   0  0  0  0  0  0  0  0  0  0  0  0
   25.9004   -0.2542    6.4278 O   0  0  0  0  0  0  0  0  0  0  0  0
   28.3102   -1.3460    6.8219 O   0  0  0  0  0  0  0  0  0  0  0  0
   25.3466   -1.7423    7.6536 H   0  0  0  0  0  0  0  0  0  0  0  0
   26.7480    0.0588    6.0750 H   0  0  0  0  0  0  0  0  0  0  0  0
   27.5129   -2.1402    9.7486 O   0  0  0  0  0  0  0  0  0  0  0  0
   26.2888   -1.0662   11.6259 O   0  0  0  0  0  0  0  0  0  0  0  0
   24.9511   -2.3972    9.8700 O   0  0  0  0  0  0  0  0  0  0  0  0
   26.4716   -3.6039   11.5129 O   0  0  0  0  0  0  0  0  0  0  0  0
   26.2222   -2.3192   10.7272 P   0  0  0  0  0  0  0  0  0  0  0  0
   24.8329   -1.5625    9.3902 H   0  0  0  0  0  0  0  0  0  0  0  0
   27.2817   -3.5096   12.0380 H   0  0  0  0  0  0  0  0  0  0  0  0
  2  1  1  0  0  0
  2  3  1  0  0  0
  2  5  2  0  0  0
  1  8  1  0  0  0
  3  4  1  0  0  0
  8 12  1  0  0  0
  9 12  2  0  0  0
 10 12  1  0  0  0
 11 12  1  0  0  0
  3  6  1  0  0  0
  4  7  1  0  0  0
 10 13  1  0  0  0
 11 14  1  0  0  0
M  END
> <minimizedAffinity>
-6.17908

$$$$
2VXN_PGH_A_1251


 14 13  0  0  0  0  0  0  0  0999 V2000
   27.3180   -3.0581    8.8989 C   0  0  0  0  0  0  0  0  0  0  0  0
   26.1777   -2.2250    9.4702 C   0  0  0  0  0  0  0  0  0  0  0  0
   26.1580   -2.0726   10.7163 N   0  0  0  0  0  0  0  0  0  0  0  0
   25.3024   -1.2276   11.2725 O   0  0  0  0  0  0  0  0  0  0  0  0
   25.3808   -1.7316    8.6469 O   0  0  0  0  0  0  0  0  0  0  0  0
   26.7809   -2.5831   11.2825 H   0  0  0  0  0  0  0  0  0  0  0  0
   24.7654   -0.8094   10.5814 H   0  0  0  0  0  0  0  0  0  0  0  0
   27.2023   -3.0258    7.4540 O   0  0  0  0  0  0  0  0  0  0  0  0
   28.3487   -2.5935    5.2919 O   0  0  0  0  0  0  0  0  0  0  0  0
   27.4033   -0.5958    6.6184 O   0  0  0  0  0  0  0  0  0  0  0  0
   29.4350   -1.8622    7.4762 O   0  0  0  0  0  0  0  0  0  0  0  0
   28.1380   -1.9425    6.6754 P   0  0  0  0  0  0  0  0  0  0  0  0
   26.5883   -0.6937    6.1016 H   0  0  0  0  0  0  0  0  0  0  0  0
   29.8637   -2.7322    7.4854 H   0  0  0  0  0  0  0  0  0  0  0  0
  2  1  1  0  0  0
  2  3  1  0  0  0
  2  5  2  0  0  0
  1  8  1  0  0  0
  3  4  1  0  0  0
  8 12  1  0  0  0
  9 12  2  0  0  0
 10 12  1  0  0  0
 11 12  1  0  0  0
  3  6  1  0  0  0
  4  7  1  0  0  0
 10 13  1  0  0  0
 11 14  1  0  0  0
M  END
> <minimizedAffinity>
-5.98841

$$$$
2VXN_PGH_A_1251


 14 13  0  0  0  0  0  0  0  0999 V2000
   27.6805   -2.7082    8.2792 C   0  0  0  0  0  0  0  0  0  0  0  0
   27.3026   -1.6290    7.2725 C   0  0  0  0  0  0  0  0  0  0  0  0
   26.0915   -1.3019    7.2220 N   0  0  0  0  0  0  0  0  0  0  0  0
   25.7107   -0.2595    6.4983 O   0  0  0  0  0  0  0  0  0  0  0  0
   28.2362   -1.1334    6.6097 O   0  0  0  0  0  0  0  0  0  0  0  0
   25.4220   -1.8221    7.7224 H   0  0  0  0  0  0  0  0  0  0  0  0
   26.4858    0.1391    6.0725 H   0  0  0  0  0  0  0  0  0  0  0  0
   27.5650   -2.1306    9.6040 O   0  0  0  0  0  0  0  0  0  0  0  0
   25.4944   -3.5023    9.5211 O   0  0  0  0  0  0  0  0  0  0  0  0
   26.8241   -3.3915   11.7265 O   0  0  0  0  0  0  0  0  0  0  0  0
   25.5453   -1.3574   10.8932 O   0  0  0  0  0  0  0  0  0  0  0  0
   26.2997   -2.6258   10.5036 P   0  0  0  0  0  0  0  0  0  0  0  0
   27.2949   -4.1870   11.4324 H   0  0  0  0  0  0  0  0  0  0  0  0
   25.2335   -0.9078   10.0923 H   0  0  0  0  0  0  0  0  0  0  0  0
  2  1  1  0  0  0
  2  3  1  0  0  0
  2  5  2  0  0  0
  1  8  1  0  0  0
  3  4  1  0  0  0
  8 12  1  0  0  0
  9 12  2  0  0  0
 10 12  1  0  0  0
 11 12  1  0  0  0
  3  6  1  0  0  0
  4  7  1  0  0  0
 10 13  1  0  0  0
 11 14  1  0  0  0
M  END
> <minimizedAffinity>
-5.96824

$$$$
2VXN_PGH_A_1251


 14 13  0  0  0  0  0  0  0  0999 V2000
   27.1439   -1.8050    7.3830 C   0  0  0  0  0  0  0  0  0  0  0  0
   26.7482   -0.6489    6.4732 C   0  0  0  0  0  0  0  0  0  0  0  0
   27.6072   -0.2634    5.6427 N   0  0  0  0  0  0  0  0  0  0  0  0
   27.2840    0.6180    4.7076 O   0  0  0  0  0  0  0  0  0  0  0  0
   25.5885   -0.2080    6.6043 O   0  0  0  0  0  0  0  0  0  0  0  0
   28.5248   -0.6174    5.6864 H   0  0  0  0  0  0  0  0  0  0  0  0
   26.3503    0.8630    4.8032 H   0  0  0  0  0  0  0  0  0  0  0  0
   25.9723   -2.1781    8.1512 O   0  0  0  0  0  0  0  0  0  0  0  0
   25.7782   -1.3678   10.4926 O   0  0  0  0  0  0  0  0  0  0  0  0
   25.4069   -3.8724   10.0095 O   0  0  0  0  0  0  0  0  0  0  0  0
   27.7310   -2.8577    9.8199 O   0  0  0  0  0  0  0  0  0  0  0  0
   26.2291   -2.6134    9.7004 P   0  0  0  0  0  0  0  0  0  0  0  0
   24.4621   -3.6712    9.9216 H   0  0  0  0  0  0  0  0  0  0  0  0
   28.2090   -2.0385    9.6167 H   0  0  0  0  0  0  0  0  0  0  0  0
  2  1  1  0  0  0
  2  3  1  0  0  0
  2  5  2  0  0  0
  1  8  1  0  0  0
  3  4  1  0  0  0
  8 12  1  0  0  0
  9 12  2  0  0  0
 10 12  1  0  0  0
 11 12  1  0  0  0
  3  6  1  0  0  0
  4  7  1  0  0  0
 10 13  1  0  0  0
 11 14  1  0  0  0
M  END
> <minimizedAffinity>
-5.59224

$$$$
2VXN_PGH_A_1251


 14 13  0  0  0  0  0  0  0  0999 V2000
   25.9840   -2.1067    8.7607 C   0  0  0  0  0  0  0  0  0  0  0  0
   26.3495   -2.4830   10.1909 C   0  0  0  0  0  0  0  0  0  0  0  0
   25.9130   -3.5807   10.6160 N   0  0  0  0  0  0  0  0  0  0  0  0
   26.3234   -4.0562   11.7826 O   0  0  0  0  0  0  0  0  0  0  0  0
   27.0851   -1.6853   10.8066 O   0  0  0  0  0  0  0  0  0  0  0  0
   25.2630   -4.0903   10.0803 H   0  0  0  0  0  0  0  0  0  0  0  0
   26.9571   -3.4380   12.1789 H   0  0  0  0  0  0  0  0  0  0  0  0
   26.8798   -2.8261    7.8763 O   0  0  0  0  0  0  0  0  0  0  0  0
   29.1439   -1.8056    7.9667 O   0  0  0  0  0  0  0  0  0  0  0  0
   28.2478   -2.6428    5.6995 O   0  0  0  0  0  0  0  0  0  0  0  0
   27.2422   -0.5807    6.7966 O   0  0  0  0  0  0  0  0  0  0  0  0
   27.9317   -1.9242    7.0187 P   0  0  0  0  0  0  0  0  0  0  0  0
   28.6836   -3.4885    5.8883 H   0  0  0  0  0  0  0  0  0  0  0  0
   27.0623   -0.1640    7.6539 H   0  0  0  0  0  0  0  0  0  0  0  0
  2  1  1  0  0  0
  2  3  1  0  0  0
  2  5  2  0  0  0
  1  8  1  0  0  0
  3  4  1  0  0  0
  8 12  1  0  0  0
  9 12  2  0  0  0
 10 12  1  0  0  0
 11 12  1  0  0  0
  3  6  1  0  0  0
  4  7  1  0  0  0
 10 13  1  0  0  0
 11 14  1  0  0  0
M  END
> <minimizedAffinity>
-5.53839

$$$$
2VXN_PGH_A_1251


 14 13  0  0  0  0  0  0  0  0999 V2000
   27.1239   -2.4990    7.9865 C   0  0  0  0  0  0  0  0  0  0  0  0
   28.3730   -2.2046    7.1655 C   0  0  0  0  0  0  0  0  0  0  0  0
   29.4026   -1.8717    7.8022 N   0  0  0  0  0  0  0  0  0  0  0  0
   30.5673   -1.7640    7.1797 O   0  0  0  0  0  0  0  0  0  0  0  0
   28.2775   -2.3571    5.9310 O   0  0  0  0  0  0  0  0  0  0  0  0
   29.3443   -1.6899    8.7680 H   0  0  0  0  0  0  0  0  0  0  0  0
   30.4524   -1.9751    6.2399 H   0  0  0  0  0  0  0  0  0  0  0  0
   27.4870   -2.3997    9.3866 O   0  0  0  0  0  0  0  0  0  0  0  0
   25.4619   -3.7981    9.7325 O   0  0  0  0  0  0  0  0  0  0  0  0
   26.9607   -3.2589   11.7590 O   0  0  0  0  0  0  0  0  0  0  0  0
   25.5537   -1.4360   10.6800 O   0  0  0  0  0  0  0  0  0  0  0  0
   26.3150   -2.7415   10.4660 P   0  0  0  0  0  0  0  0  0  0  0  0
   27.4318   -4.0869   11.5763 H   0  0  0  0  0  0  0  0  0  0  0  0
   25.1640   -1.1475    9.8399 H   0  0  0  0  0  0  0  0  0  0  0  0
  2  1  1  0  0  0
  2  3  1  0  0  0
  2  5  2  0  0  0
  1  8  1  0  0  0
  3  4  1  0  0  0
  8 12  1  0  0  0
  9 12  2  0  0  0
 10 12  1  0  0  0
 11 12  1  0  0  0
  3  6  1  0  0  0
  4  7  1  0  0  0
 10 13  1  0  0  0
 11 14  1  0  0  0
M  END
> <minimizedAffinity>
-5.38927

$$$$
2VXN_PGH_A_1251


 14 13  0  0  0  0  0  0  0  0999 V2000
   28.2163   -1.4548    5.9560 C   0  0  0  0  0  0  0  0  0  0  0  0
   27.7869   -0.2743    5.0941 C   0  0  0  0  0  0  0  0  0  0  0  0
   27.8848   -0.4170    3.8505 N   0  0  0  0  0  0  0  0  0  0  0  0
   27.3771    0.4926    3.0317 O   0  0  0  0  0  0  0  0  0  0  0  0
   27.3372    0.7214    5.6964 O   0  0  0  0  0  0  0  0  0  0  0  0
   28.3407   -1.2080    3.4823 H   0  0  0  0  0  0  0  0  0  0  0  0
   26.9660    1.2015    3.5508 H   0  0  0  0  0  0  0  0  0  0  0  0
   27.8682   -1.1439    7.3287 O   0  0  0  0  0  0  0  0  0  0  0  0
   27.2072   -3.5373    7.2237 O   0  0  0  0  0  0  0  0  0  0  0  0
   27.8729   -2.5306    9.5014 O   0  0  0  0  0  0  0  0  0  0  0  0
   25.6931   -1.8491    8.3828 O   0  0  0  0  0  0  0  0  0  0  0  0
   27.1287   -2.3241    8.1747 P   0  0  0  0  0  0  0  0  0  0  0  0
   28.7774   -2.8313    9.3213 H   0  0  0  0  0  0  0  0  0  0  0  0
   25.2630   -1.7323    7.5213 H   0  0  0  0  0  0  0  0  0  0  0  0
  2  1  1  0  0  0
  2  3  1  0  0  0
  2  5  2  0  0  0
  1  8  1  0  0  0
  3  4  1  0  0  0
  8 12  1  0  0  0
  9 12  2  0  0  0
 10 12  1  0  0  0
 11 12  1  0  0  0
  3  6  1  0  0  0
  4  7  1  0  0  0
 10 13  1  0  0  0
 11 14  1  0  0  0
M  END
> <minimizedAffinity>
-5.35639

$$$$
2VXN_PGH_A_1251


 14 13  0  0  0  0  0  0  0  0999 V2000
   27.8018   -2.2145    7.7133 C   0  0  0  0  0  0  0  0  0  0  0  0
   26.3754   -2.0507    8.2222 C   0  0  0  0  0  0  0  0  0  0  0  0
   26.1139   -2.5518    9.3433 N   0  0  0  0  0  0  0  0  0  0  0  0
   24.9505   -2.3087    9.9289 O   0  0  0  0  0  0  0  0  0  0  0  0
   25.5966   -1.3980    7.4984 O   0  0  0  0  0  0  0  0  0  0  0  0
   26.7762   -3.1279    9.7892 H   0  0  0  0  0  0  0  0  0  0  0  0
   24.4183   -1.7288    9.3622 H   0  0  0  0  0  0  0  0  0  0  0  0
   28.0710   -1.1172    6.8046 O   0  0  0  0  0  0  0  0  0  0  0  0
   30.3164   -1.3785    5.7721 O   0  0  0  0  0  0  0  0  0  0  0  0
   28.4003   -2.9124    4.9845 O   0  0  0  0  0  0  0  0  0  0  0  0
   28.3875   -0.4372    4.4011 O   0  0  0  0  0  0  0  0  0  0  0  0
   28.8210   -1.4984    5.4090 P   0  0  0  0  0  0  0  0  0  0  0  0
   28.6954   -3.5515    5.6518 H   0  0  0  0  0  0  0  0  0  0  0  0
   28.6734    0.4371    4.7091 H   0  0  0  0  0  0  0  0  0  0  0  0
  2  1  1  0  0  0
  2  3  1  0  0  0
  2  5  2  0  0  0
  1  8  1  0  0  0
  3  4  1  0  0  0
  8 12  1  0  0  0
  9 12  2  0  0  0
 10 12  1  0  0  0
 11 12  1  0  0  0
  3  6  1  0  0  0
  4  7  1  0  0  0
 10 13  1  0  0  0
 11 14  1  0  0  0
M  END
> <minimizedAffinity>
-5.30869

$$$$
