4G90_0G0_A_201


 28 30  0  0  0  0  0  0  0  0999 V2000
   35.5054   -2.2330   12.1233 C   0  0  0  0  0  0  0  0  0  0  0  0
   35.8054   -3.3260   13.0586 C   0  0  0  0  0  0  0  0  0  0  0  0
   35.0249   -2.8392   10.9732 N   0  0  0  0  0  0  0  0  0  0  0  0
   35.0767   -4.1519   11.1337 N   0  0  0  0  0  0  0  0  0  0  0  0
   35.5439   -4.4803   12.3345 N   0  0  0  0  0  0  0  0  0  0  0  0
   35.7069   -5.8117   12.9024 C   0  0  0  0  0  0  0  0  0  0  0  0
   36.0577   -6.6947   11.8825 O   0  0  0  0  0  0  0  0  0  0  0  0
   34.8480   -7.1433   11.2237 C   0  0  0  0  0  0  0  0  0  0  0  0
   33.7526   -7.0691   12.2957 C   0  0  0  0  0  0  0  0  0  0  0  0
   32.5589   -6.4678   11.8206 O   0  0  0  0  0  0  0  0  0  0  0  0
   34.3932   -6.3219   13.4851 C   0  0  0  0  0  0  0  0  0  0  0  0
   34.6871   -7.2156   14.5484 O   0  0  0  0  0  0  0  0  0  0  0  0
   32.7487   -5.5650   11.5208 H   0  0  0  0  0  0  0  0  0  0  0  0
   35.2673   -7.9227   14.2254 H   0  0  0  0  0  0  0  0  0  0  0  0
   35.0701   -8.4971   10.5999 C   0  0  0  0  0  0  0  0  0  0  0  0
   36.0447   -8.4372    9.5675 O   0  0  0  0  0  0  0  0  0  0  0  0
   36.8901   -8.1389    9.9379 H   0  0  0  0  0  0  0  0  0  0  0  0
   35.5636   -0.7949   12.4148 C   0  0  0  0  0  0  0  0  0  0  0  0
   38.9983    1.4606   12.6504 C   0  0  0  0  0  0  0  0  0  0  0  0
   39.0172    0.2083   12.0575 C   0  0  0  0  0  0  0  0  0  0  0  0
   37.8294   -0.4994   11.9932 C   0  0  0  0  0  0  0  0  0  0  0  0
   36.6734    0.0543   12.4702 N   0  0  0  0  0  0  0  0  0  0  0  0
   37.8202    1.9623   13.1421 N   0  0  0  0  0  0  0  0  0  0  0  0
   35.6178    1.7844   13.5270 O   0  0  0  0  0  0  0  0  0  0  0  0
   36.6686    1.2772   13.0755 C   0  0  0  0  0  0  0  0  0  0  0  0
   40.1832    2.1898   12.7313 O   0  0  0  0  0  0  0  0  0  0  0  0
   40.1306   -0.2896   11.5794 F   0  0  0  0  0  0  0  0  0  0  0  0
   37.8196    2.8548   13.5577 H   0  0  0  0  0  0  0  0  0  0  0  0
 24 25  2  0  0  0
 25 23  1  0  0  0
 25 22  1  0  0  0
 23 19  1  0  0  0
  3  4  2  0  0  0
  3  1  1  0  0  0
  4  5  1  0  0  0
 22 18  1  0  0  0
 22 21  1  0  0  0
 18  1  1  0  0  0
 19 26  2  0  0  0
 19 20  1  0  0  0
  1  2  2  0  0  0
 16 15  1  0  0  0
 15  8  1  0  0  0
 21 20  2  0  0  0
 20 27  1  0  0  0
  8  7  1  0  0  0
  8  9  1  0  0  0
  5  2  1  0  0  0
  5  6  1  0  0  0
 10  9  1  0  0  0
  7  6  1  0  0  0
  9 11  1  0  0  0
  6 11  1  0  0  0
 11 12  1  0  0  0
 23 28  1  0  0  0
 16 17  1  0  0  0
 10 13  1  0  0  0
 12 14  1  0  0  0
M  END
> <minimizedAffinity>
-7.85293

$$$$
4G90_0G0_A_201


 28 30  0  0  0  0  0  0  0  0999 V2000
   36.1340   -2.1244   11.4820 C   0  0  0  0  0  0  0  0  0  0  0  0
   36.7124   -3.2459   12.2351 C   0  0  0  0  0  0  0  0  0  0  0  0
   34.8452   -2.5135   11.1526 N   0  0  0  0  0  0  0  0  0  0  0  0
   34.6534   -3.7501   11.5833 N   0  0  0  0  0  0  0  0  0  0  0  0
   35.7277   -4.2231   12.2079 N   0  0  0  0  0  0  0  0  0  0  0  0
   35.8936   -5.5166   12.8569 C   0  0  0  0  0  0  0  0  0  0  0  0
   36.2677   -6.4555   11.8970 O   0  0  0  0  0  0  0  0  0  0  0  0
   35.0722   -6.9544   11.2485 C   0  0  0  0  0  0  0  0  0  0  0  0
   33.9599   -6.8267   12.2979 C   0  0  0  0  0  0  0  0  0  0  0  0
   32.7684   -6.2664   11.7700 O   0  0  0  0  0  0  0  0  0  0  0  0
   34.5756   -6.0036   13.4497 C   0  0  0  0  0  0  0  0  0  0  0  0
   34.8609   -6.8293   14.5688 O   0  0  0  0  0  0  0  0  0  0  0  0
   32.9549   -5.3813   11.4195 H   0  0  0  0  0  0  0  0  0  0  0  0
   35.4522   -7.5488   14.2974 H   0  0  0  0  0  0  0  0  0  0  0  0
   35.3156   -8.3409   10.7103 C   0  0  0  0  0  0  0  0  0  0  0  0
   34.0929   -9.0188   10.4559 O   0  0  0  0  0  0  0  0  0  0  0  0
   33.5831   -8.5282    9.7923 H   0  0  0  0  0  0  0  0  0  0  0  0
   36.7516   -0.8103   11.2629 C   0  0  0  0  0  0  0  0  0  0  0  0
   38.2191    1.9712   13.9180 C   0  0  0  0  0  0  0  0  0  0  0  0
   36.8538    1.7737   13.7874 C   0  0  0  0  0  0  0  0  0  0  0  0
   36.4177    0.8147   12.8897 C   0  0  0  0  0  0  0  0  0  0  0  0
   37.3238    0.0662   12.1903 N   0  0  0  0  0  0  0  0  0  0  0  0
   39.0894    1.2170   13.1727 N   0  0  0  0  0  0  0  0  0  0  0  0
   39.5004   -0.3860   11.6590 O   0  0  0  0  0  0  0  0  0  0  0  0
   38.6657    0.2849   12.3059 C   0  0  0  0  0  0  0  0  0  0  0  0
   38.6818    2.9349   14.8119 O   0  0  0  0  0  0  0  0  0  0  0  0
   36.0046    2.4812   14.4906 F   0  0  0  0  0  0  0  0  0  0  0  0
   40.0571    1.3647   13.2775 H   0  0  0  0  0  0  0  0  0  0  0  0
 24 25  2  0  0  0
 25 23  1  0  0  0
 25 22  1  0  0  0
 23 19  1  0  0  0
  3  4  2  0  0  0
  3  1  1  0  0  0
  4  5  1  0  0  0
 22 18  1  0  0  0
 22 21  1  0  0  0
 18  1  1  0  0  0
 19 26  2  0  0  0
 19 20  1  0  0  0
  1  2  2  0  0  0
 16 15  1  0  0  0
 15  8  1  0  0  0
 21 20  2  0  0  0
 20 27  1  0  0  0
  8  7  1  0  0  0
  8  9  1  0  0  0
  5  2  1  0  0  0
  5  6  1  0  0  0
 10  9  1  0  0  0
  7  6  1  0  0  0
  9 11  1  0  0  0
  6 11  1  0  0  0
 11 12  1  0  0  0
 23 28  1  0  0  0
 16 17  1  0  0  0
 10 13  1  0  0  0
 12 14  1  0  0  0
M  END
> <minimizedAffinity>
-7.72429

$$$$
4G90_0G0_A_201


 28 30  0  0  0  0  0  0  0  0999 V2000
   37.6378    1.2968   12.9278 C   0  0  0  0  0  0  0  0  0  0  0  0
   38.1074   -0.0759   13.1614 C   0  0  0  0  0  0  0  0  0  0  0  0
   36.8048    1.2297   11.8222 N   0  0  0  0  0  0  0  0  0  0  0  0
   36.7997   -0.0146   11.3713 N   0  0  0  0  0  0  0  0  0  0  0  0
   37.5631   -0.8085   12.1163 N   0  0  0  0  0  0  0  0  0  0  0  0
   37.7789   -2.2419   11.9723 C   0  0  0  0  0  0  0  0  0  0  0  0
   36.5639   -2.8494   11.6599 O   0  0  0  0  0  0  0  0  0  0  0  0
   35.8429   -3.0998   12.8912 C   0  0  0  0  0  0  0  0  0  0  0  0
   36.9251   -3.2759   13.9647 C   0  0  0  0  0  0  0  0  0  0  0  0
   36.6420   -2.5554   15.1534 O   0  0  0  0  0  0  0  0  0  0  0  0
   38.2473   -2.8587   13.2860 C   0  0  0  0  0  0  0  0  0  0  0  0
   39.0484   -3.9934   12.9923 O   0  0  0  0  0  0  0  0  0  0  0  0
   36.5713   -1.6098   14.9493 H   0  0  0  0  0  0  0  0  0  0  0  0
   38.5467   -4.6077   12.4339 H   0  0  0  0  0  0  0  0  0  0  0  0
   34.8976   -4.2596   12.7106 C   0  0  0  0  0  0  0  0  0  0  0  0
   34.9029   -4.7270   11.3687 O   0  0  0  0  0  0  0  0  0  0  0  0
   35.7940   -5.0314   11.1358 H   0  0  0  0  0  0  0  0  0  0  0  0
   37.8864    2.4616   13.7868 C   0  0  0  0  0  0  0  0  0  0  0  0
   36.4173    6.3059   13.8392 C   0  0  0  0  0  0  0  0  0  0  0  0
   37.7809    6.0739   13.7567 C   0  0  0  0  0  0  0  0  0  0  0  0
   38.2173    4.7607   13.7279 C   0  0  0  0  0  0  0  0  0  0  0  0
   37.3118    3.7358   13.7411 N   0  0  0  0  0  0  0  0  0  0  0  0
   35.5486    5.2453   13.8803 N   0  0  0  0  0  0  0  0  0  0  0  0
   35.1386    3.0403   13.8750 O   0  0  0  0  0  0  0  0  0  0  0  0
   35.9723    3.9727   13.8482 C   0  0  0  0  0  0  0  0  0  0  0  0
   35.9546    7.6200   13.8747 O   0  0  0  0  0  0  0  0  0  0  0  0
   38.6287    7.0718   13.7142 F   0  0  0  0  0  0  0  0  0  0  0  0
   34.5819    5.4237   13.9352 H   0  0  0  0  0  0  0  0  0  0  0  0
 24 25  2  0  0  0
 25 23  1  0  0  0
 25 22  1  0  0  0
 23 19  1  0  0  0
  3  4  2  0  0  0
  3  1  1  0  0  0
  4  5  1  0  0  0
 22 18  1  0  0  0
 22 21  1  0  0  0
 18  1  1  0  0  0
 19 26  2  0  0  0
 19 20  1  0  0  0
  1  2  2  0  0  0
 16 15  1  0  0  0
 15  8  1  0  0  0
 21 20  2  0  0  0
 20 27  1  0  0  0
  8  7  1  0  0  0
  8  9  1  0  0  0
  5  2  1  0  0  0
  5  6  1  0  0  0
 10  9  1  0  0  0
  7  6  1  0  0  0
  9 11  1  0  0  0
  6 11  1  0  0  0
 11 12  1  0  0  0
 23 28  1  0  0  0
 16 17  1  0  0  0
 10 13  1  0  0  0
 12 14  1  0  0  0
M  END
> <minimizedAffinity>
-7.71759

$$$$
4G90_0G0_A_201


 28 30  0  0  0  0  0  0  0  0999 V2000
   37.4712   -0.8526   12.6330 C   0  0  0  0  0  0  0  0  0  0  0  0
   36.9186    0.4017   12.1030 C   0  0  0  0  0  0  0  0  0  0  0  0
   37.9288   -0.5568   13.9074 N   0  0  0  0  0  0  0  0  0  0  0  0
   37.7505    0.7353   14.1316 N   0  0  0  0  0  0  0  0  0  0  0  0
   37.1774    1.3378   13.0940 N   0  0  0  0  0  0  0  0  0  0  0  0
   36.7791    2.7336   12.9724 C   0  0  0  0  0  0  0  0  0  0  0  0
   37.5978    3.3534   12.0299 O   0  0  0  0  0  0  0  0  0  0  0  0
   38.8180    3.7774   12.6856 C   0  0  0  0  0  0  0  0  0  0  0  0
   38.4247    4.0299   14.1472 C   0  0  0  0  0  0  0  0  0  0  0  0
   39.3442    3.4663   15.0686 O   0  0  0  0  0  0  0  0  0  0  0  0
   36.9895    3.4784   14.2865 C   0  0  0  0  0  0  0  0  0  0  0  0
   36.0441    4.5348   14.3638 O   0  0  0  0  0  0  0  0  0  0  0  0
   39.3930    2.5073   14.9312 H   0  0  0  0  0  0  0  0  0  0  0  0
   36.1273    5.1011   13.5807 H   0  0  0  0  0  0  0  0  0  0  0  0
   39.4194    4.9487   11.9524 C   0  0  0  0  0  0  0  0  0  0  0  0
   38.5647    6.0828   12.0000 O   0  0  0  0  0  0  0  0  0  0  0  0
   38.4304    6.3480   12.9233 H   0  0  0  0  0  0  0  0  0  0  0  0
   37.4072   -2.1728   11.9933 C   0  0  0  0  0  0  0  0  0  0  0  0
   35.0251   -5.4685   12.6288 C   0  0  0  0  0  0  0  0  0  0  0  0
   36.3044   -5.4114   13.1581 C   0  0  0  0  0  0  0  0  0  0  0  0
   37.0552   -4.2722   12.9247 C   0  0  0  0  0  0  0  0  0  0  0  0
   36.5183   -3.2276   12.2239 N   0  0  0  0  0  0  0  0  0  0  0  0
   34.5402   -4.4080   11.9066 N   0  0  0  0  0  0  0  0  0  0  0  0
   34.7744   -2.3569   11.0301 O   0  0  0  0  0  0  0  0  0  0  0  0
   35.2672   -3.3026   11.6844 C   0  0  0  0  0  0  0  0  0  0  0  0
   34.2522   -6.6076   12.8463 O   0  0  0  0  0  0  0  0  0  0  0  0
   36.7871   -6.4117   13.8527 F   0  0  0  0  0  0  0  0  0  0  0  0
   33.6284   -4.4598   11.5390 H   0  0  0  0  0  0  0  0  0  0  0  0
 24 25  2  0  0  0
 25 23  1  0  0  0
 25 22  1  0  0  0
 23 19  1  0  0  0
  3  4  2  0  0  0
  3  1  1  0  0  0
  4  5  1  0  0  0
 22 18  1  0  0  0
 22 21  1  0  0  0
 18  1  1  0  0  0
 19 26  2  0  0  0
 19 20  1  0  0  0
  1  2  2  0  0  0
 16 15  1  0  0  0
 15  8  1  0  0  0
 21 20  2  0  0  0
 20 27  1  0  0  0
  8  7  1  0  0  0
  8  9  1  0  0  0
  5  2  1  0  0  0
  5  6  1  0  0  0
 10  9  1  0  0  0
  7  6  1  0  0  0
  9 11  1  0  0  0
  6 11  1  0  0  0
 11 12  1  0  0  0
 23 28  1  0  0  0
 16 17  1  0  0  0
 10 13  1  0  0  0
 12 14  1  0  0  0
M  END
> <minimizedAffinity>
-7.60957

$$$$
4G90_0G0_A_201


 28 30  0  0  0  0  0  0  0  0999 V2000
   37.3030   -0.9226   12.2059 C   0  0  0  0  0  0  0  0  0  0  0  0
   37.7199   -0.2701   13.4549 C   0  0  0  0  0  0  0  0  0  0  0  0
   36.9460    0.1020   11.3436 N   0  0  0  0  0  0  0  0  0  0  0  0
   37.0580    1.2538   11.9858 N   0  0  0  0  0  0  0  0  0  0  0  0
   37.4919    1.0801   13.2307 N   0  0  0  0  0  0  0  0  0  0  0  0
   37.7838    2.0976   14.2312 C   0  0  0  0  0  0  0  0  0  0  0  0
   36.6364    2.8600   14.4439 O   0  0  0  0  0  0  0  0  0  0  0  0
   36.5767    3.8963   13.4334 C   0  0  0  0  0  0  0  0  0  0  0  0
   38.0371    4.1758   13.0542 C   0  0  0  0  0  0  0  0  0  0  0  0
   38.2350    4.2548   11.6518 O   0  0  0  0  0  0  0  0  0  0  0  0
   38.8580    3.0596   13.7350 C   0  0  0  0  0  0  0  0  0  0  0  0
   39.5677    3.5626   14.8571 O   0  0  0  0  0  0  0  0  0  0  0  0
   37.9721    3.4166   11.2404 H   0  0  0  0  0  0  0  0  0  0  0  0
   38.9435    3.9676   15.4795 H   0  0  0  0  0  0  0  0  0  0  0  0
   35.7911    5.0753   13.9471 C   0  0  0  0  0  0  0  0  0  0  0  0
   34.5486    5.2036   13.2695 O   0  0  0  0  0  0  0  0  0  0  0  0
   34.0165    4.4060   13.4161 H   0  0  0  0  0  0  0  0  0  0  0  0
   37.3953   -2.3553   11.8975 C   0  0  0  0  0  0  0  0  0  0  0  0
   34.9886   -5.5856   12.7419 C   0  0  0  0  0  0  0  0  0  0  0  0
   36.2768   -5.5155   13.2476 C   0  0  0  0  0  0  0  0  0  0  0  0
   37.0358   -4.3989   12.9432 C   0  0  0  0  0  0  0  0  0  0  0  0
   36.4990   -3.3863   12.1968 N   0  0  0  0  0  0  0  0  0  0  0  0
   34.5036   -4.5589   11.9724 N   0  0  0  0  0  0  0  0  0  0  0  0
   34.7457   -2.5593   10.9859 O   0  0  0  0  0  0  0  0  0  0  0  0
   35.2387   -3.4750   11.6813 C   0  0  0  0  0  0  0  0  0  0  0  0
   34.2072   -6.7028   13.0308 O   0  0  0  0  0  0  0  0  0  0  0  0
   36.7598   -6.4836   13.9864 F   0  0  0  0  0  0  0  0  0  0  0  0
   33.5855   -4.6193   11.6222 H   0  0  0  0  0  0  0  0  0  0  0  0
 24 25  2  0  0  0
 25 23  1  0  0  0
 25 22  1  0  0  0
 23 19  1  0  0  0
  3  4  2  0  0  0
  3  1  1  0  0  0
  4  5  1  0  0  0
 22 18  1  0  0  0
 22 21  1  0  0  0
 18  1  1  0  0  0
 19 26  2  0  0  0
 19 20  1  0  0  0
  1  2  2  0  0  0
 16 15  1  0  0  0
 15  8  1  0  0  0
 21 20  2  0  0  0
 20 27  1  0  0  0
  8  7  1  0  0  0
  8  9  1  0  0  0
  5  2  1  0  0  0
  5  6  1  0  0  0
 10  9  1  0  0  0
  7  6  1  0  0  0
  9 11  1  0  0  0
  6 11  1  0  0  0
 11 12  1  0  0  0
 23 28  1  0  0  0
 16 17  1  0  0  0
 10 13  1  0  0  0
 12 14  1  0  0  0
M  END
> <minimizedAffinity>
-7.46728

$$$$
4G90_0G0_A_201


 28 30  0  0  0  0  0  0  0  0999 V2000
   35.0853   -3.4130   12.3040 C   0  0  0  0  0  0  0  0  0  0  0  0
   35.9724   -2.5223   13.0650 C   0  0  0  0  0  0  0  0  0  0  0  0
   35.0248   -2.8849   11.0240 N   0  0  0  0  0  0  0  0  0  0  0  0
   35.7295   -1.7650   10.9947 N   0  0  0  0  0  0  0  0  0  0  0  0
   36.2873   -1.5065   12.1737 N   0  0  0  0  0  0  0  0  0  0  0  0
   37.1663   -0.4007   12.5293 C   0  0  0  0  0  0  0  0  0  0  0  0
   38.1745   -0.3032   11.5717 O   0  0  0  0  0  0  0  0  0  0  0  0
   39.2315   -1.2313   11.9179 C   0  0  0  0  0  0  0  0  0  0  0  0
   39.1644   -1.3692   13.4447 C   0  0  0  0  0  0  0  0  0  0  0  0
   39.2456   -2.7173   13.8786 O   0  0  0  0  0  0  0  0  0  0  0  0
   37.8585   -0.6600   13.8632 C   0  0  0  0  0  0  0  0  0  0  0  0
   38.1332    0.5887   14.4803 O   0  0  0  0  0  0  0  0  0  0  0  0
   38.5115   -3.2243   13.4978 H   0  0  0  0  0  0  0  0  0  0  0  0
   38.6533    1.1407   13.8755 H   0  0  0  0  0  0  0  0  0  0  0  0
   40.5453   -0.7525   11.3558 C   0  0  0  0  0  0  0  0  0  0  0  0
   40.7690   -1.2701   10.0514 O   0  0  0  0  0  0  0  0  0  0  0  0
   40.0642   -0.9669    9.4580 H   0  0  0  0  0  0  0  0  0  0  0  0
   34.5110   -4.6805   12.7731 C   0  0  0  0  0  0  0  0  0  0  0  0
   35.5241   -8.4127   11.3645 C   0  0  0  0  0  0  0  0  0  0  0  0
   36.4945   -7.5643   11.8730 C   0  0  0  0  0  0  0  0  0  0  0  0
   36.0941   -6.3268   12.3463 C   0  0  0  0  0  0  0  0  0  0  0  0
   34.7698   -5.9850   12.3407 N   0  0  0  0  0  0  0  0  0  0  0  0
   34.2116   -8.0142   11.3518 N   0  0  0  0  0  0  0  0  0  0  0  0
   32.6125   -6.5048   11.7930 O   0  0  0  0  0  0  0  0  0  0  0  0
   33.8241   -6.8160   11.8146 C   0  0  0  0  0  0  0  0  0  0  0  0
   35.9040   -9.6619   10.8774 O   0  0  0  0  0  0  0  0  0  0  0  0
   37.7537   -7.9251   11.8968 F   0  0  0  0  0  0  0  0  0  0  0  0
   33.5314   -8.6278   10.9911 H   0  0  0  0  0  0  0  0  0  0  0  0
 24 25  2  0  0  0
 25 23  1  0  0  0
 25 22  1  0  0  0
 23 19  1  0  0  0
  3  4  2  0  0  0
  3  1  1  0  0  0
  4  5  1  0  0  0
 22 18  1  0  0  0
 22 21  1  0  0  0
 18  1  1  0  0  0
 19 26  2  0  0  0
 19 20  1  0  0  0
  1  2  2  0  0  0
 16 15  1  0  0  0
 15  8  1  0  0  0
 21 20  2  0  0  0
 20 27  1  0  0  0
  8  7  1  0  0  0
  8  9  1  0  0  0
  5  2  1  0  0  0
  5  6  1  0  0  0
 10  9  1  0  0  0
  7  6  1  0  0  0
  9 11  1  0  0  0
  6 11  1  0  0  0
 11 12  1  0  0  0
 23 28  1  0  0  0
 16 17  1  0  0  0
 10 13  1  0  0  0
 12 14  1  0  0  0
M  END
> <minimizedAffinity>
-7.35856

$$$$
4G90_0G0_A_201


 28 30  0  0  0  0  0  0  0  0999 V2000
   36.5225   -2.7635   13.4814 C   0  0  0  0  0  0  0  0  0  0  0  0
   37.5920   -1.8663   13.9402 C   0  0  0  0  0  0  0  0  0  0  0  0
   35.8159   -2.0527   12.5241 N   0  0  0  0  0  0  0  0  0  0  0  0
   36.3300   -0.8364   12.4352 N   0  0  0  0  0  0  0  0  0  0  0  0
   37.3612   -0.6793   13.2598 N   0  0  0  0  0  0  0  0  0  0  0  0
   38.2130    0.4913   13.4212 C   0  0  0  0  0  0  0  0  0  0  0  0
   38.3886    0.7342   14.7824 O   0  0  0  0  0  0  0  0  0  0  0  0
   37.2628    1.5094   15.2622 C   0  0  0  0  0  0  0  0  0  0  0  0
   36.7782    2.3126   14.0478 C   0  0  0  0  0  0  0  0  0  0  0  0
   35.3684    2.2789   13.8940 O   0  0  0  0  0  0  0  0  0  0  0  0
   37.5482    1.7351   12.8408 C   0  0  0  0  0  0  0  0  0  0  0  0
   38.5623    2.6300   12.4091 O   0  0  0  0  0  0  0  0  0  0  0  0
   35.0771    1.3603   13.7834 H   0  0  0  0  0  0  0  0  0  0  0  0
   39.1612    2.8207   13.1480 H   0  0  0  0  0  0  0  0  0  0  0  0
   37.6671    2.3170   16.4687 C   0  0  0  0  0  0  0  0  0  0  0  0
   37.9760    3.6578   16.1137 O   0  0  0  0  0  0  0  0  0  0  0  0
   37.1931    4.0778   15.7243 H   0  0  0  0  0  0  0  0  0  0  0  0
   36.3443   -4.1717   13.8575 C   0  0  0  0  0  0  0  0  0  0  0  0
   34.4668   -7.2671   11.8995 C   0  0  0  0  0  0  0  0  0  0  0  0
   33.7326   -6.2107   12.4143 C   0  0  0  0  0  0  0  0  0  0  0  0
   34.4182   -5.1901   13.0501 C   0  0  0  0  0  0  0  0  0  0  0  0
   35.7836   -5.2215   13.1230 N   0  0  0  0  0  0  0  0  0  0  0  0
   35.8329   -7.2696   12.0232 N   0  0  0  0  0  0  0  0  0  0  0  0
   37.7449   -6.3206   12.7114 O   0  0  0  0  0  0  0  0  0  0  0  0
   36.4968   -6.2779   12.6360 C   0  0  0  0  0  0  0  0  0  0  0  0
   33.7978   -8.3088   11.2596 O   0  0  0  0  0  0  0  0  0  0  0  0
   32.4273   -6.1865   12.3058 F   0  0  0  0  0  0  0  0  0  0  0  0
   36.3431   -8.0243   11.6499 H   0  0  0  0  0  0  0  0  0  0  0  0
 24 25  2  0  0  0
 25 23  1  0  0  0
 25 22  1  0  0  0
 23 19  1  0  0  0
  3  4  2  0  0  0
  3  1  1  0  0  0
  4  5  1  0  0  0
 22 18  1  0  0  0
 22 21  1  0  0  0
 18  1  1  0  0  0
 19 26  2  0  0  0
 19 20  1  0  0  0
  1  2  2  0  0  0
 16 15  1  0  0  0
 15  8  1  0  0  0
 21 20  2  0  0  0
 20 27  1  0  0  0
  8  7  1  0  0  0
  8  9  1  0  0  0
  5  2  1  0  0  0
  5  6  1  0  0  0
 10  9  1  0  0  0
  7  6  1  0  0  0
  9 11  1  0  0  0
  6 11  1  0  0  0
 11 12  1  0  0  0
 23 28  1  0  0  0
 16 17  1  0  0  0
 10 13  1  0  0  0
 12 14  1  0  0  0
M  END
> <minimizedAffinity>
-7.33386

$$$$
4G90_0G0_A_201


 28 30  0  0  0  0  0  0  0  0999 V2000
   35.5075   -3.1734   12.9410 C   0  0  0  0  0  0  0  0  0  0  0  0
   36.6941   -2.5302   13.5222 C   0  0  0  0  0  0  0  0  0  0  0  0
   35.0974   -2.3480   11.9060 N   0  0  0  0  0  0  0  0  0  0  0  0
   35.8831   -1.2833   11.8772 N   0  0  0  0  0  0  0  0  0  0  0  0
   36.8211   -1.3415   12.8178 N   0  0  0  0  0  0  0  0  0  0  0  0
   37.8940   -0.3911   13.0775 C   0  0  0  0  0  0  0  0  0  0  0  0
   38.0998   -0.3119   14.4538 O   0  0  0  0  0  0  0  0  0  0  0  0
   37.1525    0.6333   15.0087 C   0  0  0  0  0  0  0  0  0  0  0  0
   36.8584    1.6240   13.8744 C   0  0  0  0  0  0  0  0  0  0  0  0
   35.4739    1.8960   13.7278 O   0  0  0  0  0  0  0  0  0  0  0  0
   37.5070    1.0097   12.6153 C   0  0  0  0  0  0  0  0  0  0  0  0
   38.6889    1.7107   12.2586 O   0  0  0  0  0  0  0  0  0  0  0  0
   35.0007    1.0709   13.5374 H   0  0  0  0  0  0  0  0  0  0  0  0
   39.3055    1.7071   13.0074 H   0  0  0  0  0  0  0  0  0  0  0  0
   37.7004    1.2294   16.2798 C   0  0  0  0  0  0  0  0  0  0  0  0
   37.0293    0.7166   17.4226 O   0  0  0  0  0  0  0  0  0  0  0  0
   37.1548   -0.2442   17.4673 H   0  0  0  0  0  0  0  0  0  0  0  0
   34.9695   -4.4931   13.2950 C   0  0  0  0  0  0  0  0  0  0  0  0
   35.7848   -8.0171   11.3312 C   0  0  0  0  0  0  0  0  0  0  0  0
   36.7726   -7.3694   12.0555 C   0  0  0  0  0  0  0  0  0  0  0  0
   36.4378   -6.1954   12.7078 C   0  0  0  0  0  0  0  0  0  0  0  0
   35.1543   -5.7253   12.6601 N   0  0  0  0  0  0  0  0  0  0  0  0
   34.5186   -7.4914   11.2875 N   0  0  0  0  0  0  0  0  0  0  0  0
   33.0212   -5.9241   11.8634 O   0  0  0  0  0  0  0  0  0  0  0  0
   34.1940   -6.3556   11.9235 C   0  0  0  0  0  0  0  0  0  0  0  0
   36.0997   -9.1981   10.6617 O   0  0  0  0  0  0  0  0  0  0  0  0
   37.9882   -7.8545   12.1127 F   0  0  0  0  0  0  0  0  0  0  0  0
   33.8250   -7.9632   10.7723 H   0  0  0  0  0  0  0  0  0  0  0  0
 24 25  2  0  0  0
 25 23  1  0  0  0
 25 22  1  0  0  0
 23 19  1  0  0  0
  3  4  2  0  0  0
  3  1  1  0  0  0
  4  5  1  0  0  0
 22 18  1  0  0  0
 22 21  1  0  0  0
 18  1  1  0  0  0
 19 26  2  0  0  0
 19 20  1  0  0  0
  1  2  2  0  0  0
 16 15  1  0  0  0
 15  8  1  0  0  0
 21 20  2  0  0  0
 20 27  1  0  0  0
  8  7  1  0  0  0
  8  9  1  0  0  0
  5  2  1  0  0  0
  5  6  1  0  0  0
 10  9  1  0  0  0
  7  6  1  0  0  0
  9 11  1  0  0  0
  6 11  1  0  0  0
 11 12  1  0  0  0
 23 28  1  0  0  0
 16 17  1  0  0  0
 10 13  1  0  0  0
 12 14  1  0  0  0
M  END
> <minimizedAffinity>
-7.17583

$$$$
4G90_0G0_A_201


 28 30  0  0  0  0  0  0  0  0999 V2000
   37.6878   -4.1604   13.4665 C   0  0  0  0  0  0  0  0  0  0  0  0
   38.4478   -3.0361   12.9028 C   0  0  0  0  0  0  0  0  0  0  0  0
   37.1933   -3.7128   14.6814 N   0  0  0  0  0  0  0  0  0  0  0  0
   37.6386   -2.4845   14.8927 N   0  0  0  0  0  0  0  0  0  0  0  0
   38.3911   -2.0562   13.8836 N   0  0  0  0  0  0  0  0  0  0  0  0
   39.0213   -0.7529   13.7221 C   0  0  0  0  0  0  0  0  0  0  0  0
   38.1757    0.2225   14.2478 O   0  0  0  0  0  0  0  0  0  0  0  0
   37.2051    0.5864   13.2358 C   0  0  0  0  0  0  0  0  0  0  0  0
   37.9065    0.3354   11.8943 C   0  0  0  0  0  0  0  0  0  0  0  0
   37.0848   -0.3530   10.9652 O   0  0  0  0  0  0  0  0  0  0  0  0
   39.2085   -0.4154   12.2467 C   0  0  0  0  0  0  0  0  0  0  0  0
   40.3374    0.4358   12.1174 O   0  0  0  0  0  0  0  0  0  0  0  0
   36.8270   -1.2117   11.3357 H   0  0  0  0  0  0  0  0  0  0  0  0
   40.2198    1.2166   12.6808 H   0  0  0  0  0  0  0  0  0  0  0  0
   36.7144    1.9918   13.4710 C   0  0  0  0  0  0  0  0  0  0  0  0
   35.3262    2.0109   13.7743 O   0  0  0  0  0  0  0  0  0  0  0  0
   35.1651    1.5010   14.5836 H   0  0  0  0  0  0  0  0  0  0  0  0
   37.3941   -5.4357   12.8003 C   0  0  0  0  0  0  0  0  0  0  0  0
   33.9076   -7.4425   11.9303 C   0  0  0  0  0  0  0  0  0  0  0  0
   34.9422   -8.0827   12.5934 C   0  0  0  0  0  0  0  0  0  0  0  0
   36.0856   -7.3544   12.8728 C   0  0  0  0  0  0  0  0  0  0  0  0
   36.1578   -6.0318   12.5320 N   0  0  0  0  0  0  0  0  0  0  0  0
   34.0375   -6.1222   11.5816 N   0  0  0  0  0  0  0  0  0  0  0  0
   35.2089   -4.2104   11.5288 O   0  0  0  0  0  0  0  0  0  0  0  0
   35.1447   -5.4161   11.8565 C   0  0  0  0  0  0  0  0  0  0  0  0
   32.7483   -8.1568   11.6336 O   0  0  0  0  0  0  0  0  0  0  0  0
   34.8389   -9.3424   12.9378 F   0  0  0  0  0  0  0  0  0  0  0  0
   33.2937   -5.6781   11.1140 H   0  0  0  0  0  0  0  0  0  0  0  0
 24 25  2  0  0  0
 25 23  1  0  0  0
 25 22  1  0  0  0
 23 19  1  0  0  0
  3  4  2  0  0  0
  3  1  1  0  0  0
  4  5  1  0  0  0
 22 18  1  0  0  0
 22 21  1  0  0  0
 18  1  1  0  0  0
 19 26  2  0  0  0
 19 20  1  0  0  0
  1  2  2  0  0  0
 16 15  1  0  0  0
 15  8  1  0  0  0
 21 20  2  0  0  0
 20 27  1  0  0  0
  8  7  1  0  0  0
  8  9  1  0  0  0
  5  2  1  0  0  0
  5  6  1  0  0  0
 10  9  1  0  0  0
  7  6  1  0  0  0
  9 11  1  0  0  0
  6 11  1  0  0  0
 11 12  1  0  0  0
 23 28  1  0  0  0
 16 17  1  0  0  0
 10 13  1  0  0  0
 12 14  1  0  0  0
M  END
> <minimizedAffinity>
-7.13806

$$$$
4G90_0G0_A_201


 28 30  0  0  0  0  0  0  0  0999 V2000
   38.1215   -0.5943   14.1620 C   0  0  0  0  0  0  0  0  0  0  0  0
   37.7023    0.2852   13.0620 C   0  0  0  0  0  0  0  0  0  0  0  0
   37.8165    0.0871   15.3297 N   0  0  0  0  0  0  0  0  0  0  0  0
   37.3282    1.2752   15.0109 N   0  0  0  0  0  0  0  0  0  0  0  0
   37.2603    1.4391   13.6932 N   0  0  0  0  0  0  0  0  0  0  0  0
   36.7416    2.5828   12.9551 C   0  0  0  0  0  0  0  0  0  0  0  0
   37.7563    3.0930   12.1471 O   0  0  0  0  0  0  0  0  0  0  0  0
   38.5677    3.9948   12.9389 C   0  0  0  0  0  0  0  0  0  0  0  0
   37.6236    4.5500   14.0136 C   0  0  0  0  0  0  0  0  0  0  0  0
   38.2010    4.5419   15.3093 O   0  0  0  0  0  0  0  0  0  0  0  0
   36.3354    3.7063   13.9029 C   0  0  0  0  0  0  0  0  0  0  0  0
   35.2896    4.4521   13.2981 O   0  0  0  0  0  0  0  0  0  0  0  0
   38.4341    3.6327   15.5538 H   0  0  0  0  0  0  0  0  0  0  0  0
   35.5784    4.7664   12.4271 H   0  0  0  0  0  0  0  0  0  0  0  0
   39.2262    5.0162   12.0477 C   0  0  0  0  0  0  0  0  0  0  0  0
   38.5079    6.2423   12.0476 O   0  0  0  0  0  0  0  0  0  0  0  0
   38.4855    6.6040   12.9473 H   0  0  0  0  0  0  0  0  0  0  0  0
   38.6185   -1.9705   14.0373 C   0  0  0  0  0  0  0  0  0  0  0  0
   36.4444   -5.3432   13.1220 C   0  0  0  0  0  0  0  0  0  0  0  0
   35.8154   -4.2128   13.6183 C   0  0  0  0  0  0  0  0  0  0  0  0
   36.5945   -3.1026   13.8946 C   0  0  0  0  0  0  0  0  0  0  0  0
   37.9383   -3.1264   13.6412 N   0  0  0  0  0  0  0  0  0  0  0  0
   37.7999   -5.3302   12.9122 N   0  0  0  0  0  0  0  0  0  0  0  0
   39.7845   -4.2864   12.9555 O   0  0  0  0  0  0  0  0  0  0  0  0
   38.5536   -4.2522   13.1766 C   0  0  0  0  0  0  0  0  0  0  0  0
   35.6813   -6.4750   12.8411 O   0  0  0  0  0  0  0  0  0  0  0  0
   34.5217   -4.2023   13.8244 F   0  0  0  0  0  0  0  0  0  0  0  0
   38.2341   -6.1387   12.5559 H   0  0  0  0  0  0  0  0  0  0  0  0
 24 25  2  0  0  0
 25 23  1  0  0  0
 25 22  1  0  0  0
 23 19  1  0  0  0
  3  4  2  0  0  0
  3  1  1  0  0  0
  4  5  1  0  0  0
 22 18  1  0  0  0
 22 21  1  0  0  0
 18  1  1  0  0  0
 19 26  2  0  0  0
 19 20  1  0  0  0
  1  2  2  0  0  0
 16 15  1  0  0  0
 15  8  1  0  0  0
 21 20  2  0  0  0
 20 27  1  0  0  0
  8  7  1  0  0  0
  8  9  1  0  0  0
  5  2  1  0  0  0
  5  6  1  0  0  0
 10  9  1  0  0  0
  7  6  1  0  0  0
  9 11  1  0  0  0
  6 11  1  0  0  0
 11 12  1  0  0  0
 23 28  1  0  0  0
 16 17  1  0  0  0
 10 13  1  0  0  0
 12 14  1  0  0  0
M  END
> <minimizedAffinity>
-7.04206

$$$$
