1USN_IN9_A_300


 31 32  0  0  0  0  0  0  0  0999 V2000
   26.2325   44.2481   48.7796 C   0  0  0  0  0  0  0  0  0  0  0  0
   28.2349   45.7161   48.8481 C   0  0  0  0  0  0  0  0  0  0  0  0
   29.5653   45.8136   48.6829 N   0  0  0  0  0  0  0  0  0  0  0  0
   27.4757   46.8564   48.9499 O   0  0  0  0  0  0  0  0  0  0  0  0
   27.6686   44.4091   48.8019 N   0  0  0  0  0  0  0  0  0  0  0  0
   30.0606   44.9656   48.6132 H   0  0  0  0  0  0  0  0  0  0  0  0
   28.2541   43.6178   48.7852 H   0  0  0  0  0  0  0  0  0  0  0  0
   30.3575   47.0355   48.5954 C   0  0  0  0  0  0  0  0  0  0  0  0
   31.5528   49.1016   48.7684 C   0  0  0  0  0  0  0  0  0  0  0  0
   30.1230   48.4975   49.4505 S   0  0  0  0  0  0  0  0  0  0  0  0
   31.4193   46.9949   47.8449 N   0  0  0  0  0  0  0  0  0  0  0  0
   32.1202   48.1983   47.9530 N   0  0  0  0  0  0  0  0  0  0  0  0
   32.3001   50.7341   48.9961 S   0  0  0  0  0  0  0  0  0  0  0  0
   31.5449   51.4615   49.8623 H   0  0  0  0  0  0  0  0  0  0  0  0
   24.5154   41.4322   50.7170 C   0  0  0  0  0  0  0  0  0  0  0  0
   25.9745   42.9719   49.4844 C   0  0  0  0  0  0  0  0  0  0  0  0
   26.8161   42.0966   49.4346 O   0  0  0  0  0  0  0  0  0  0  0  0
   24.7049   42.7848   50.1251 N   0  0  0  0  0  0  0  0  0  0  0  0
   24.0188   43.4895   50.1697 H   0  0  0  0  0  0  0  0  0  0  0  0
   25.7660   44.1247   47.3102 C   0  0  0  0  0  0  0  0  0  0  0  0
   24.7204   46.3427   46.9430 C   0  0  0  0  0  0  0  0  0  0  0  0
   25.7012   45.4595   46.6229 C   0  0  0  0  0  0  0  0  0  0  0  0
   26.5941   45.7347   45.6155 C   0  0  0  0  0  0  0  0  0  0  0  0
   26.5458   46.9474   44.9909 C   0  0  0  0  0  0  0  0  0  0  0  0
   25.5952   47.8597   45.3424 C   0  0  0  0  0  0  0  0  0  0  0  0
   24.6899   47.5750   46.3205 C   0  0  0  0  0  0  0  0  0  0  0  0
   27.5808   44.8594   45.2730 F   0  0  0  0  0  0  0  0  0  0  0  0
   27.4146   47.2829   43.9845 F   0  0  0  0  0  0  0  0  0  0  0  0
   25.4954   49.0437   44.6666 F   0  0  0  0  0  0  0  0  0  0  0  0
   23.6813   48.4858   46.6049 F   0  0  0  0  0  0  0  0  0  0  0  0
   23.7272   46.0798   47.8605 F   0  0  0  0  0  0  0  0  0  0  0  0
  8 10  1  0  0  0
  8 11  2  0  0  0
  8  3  1  0  0  0
  9 10  1  0  0  0
  9 12  2  0  0  0
  9 13  1  0  0  0
  2  3  1  0  0  0
  2  4  2  0  0  0
  2  5  1  0  0  0
 20 22  1  0  0  0
 20  1  1  0  0  0
 21 22  2  0  0  0
 21 26  1  0  0  0
 21 31  1  0  0  0
 22 23  1  0  0  0
 23 24  2  0  0  0
 23 27  1  0  0  0
 24 25  1  0  0  0
 24 28  1  0  0  0
 25 26  2  0  0  0
 25 29  1  0  0  0
 26 30  1  0  0  0
 15 18  1  0  0  0
 11 12  1  0  0  0
  5  1  1  0  0  0
  1 16  1  0  0  0
 16 17  2  0  0  0
 16 18  1  0  0  0
  3  6  1  0  0  0
 13 14  1  0  0  0
  5  7  1  0  0  0
 18 19  1  0  0  0
M  END
> <minimizedAffinity>
-7.69357

$$$$
1USN_IN9_A_300


 31 32  0  0  0  0  0  0  0  0999 V2000
   26.1718   44.2416   48.7552 C   0  0  0  0  0  0  0  0  0  0  0  0
   28.1894   45.6887   48.8219 C   0  0  0  0  0  0  0  0  0  0  0  0
   29.5128   45.7855   48.6077 N   0  0  0  0  0  0  0  0  0  0  0  0
   27.4459   46.8272   49.0177 O   0  0  0  0  0  0  0  0  0  0  0  0
   27.6090   44.3905   48.7271 N   0  0  0  0  0  0  0  0  0  0  0  0
   29.9966   44.9390   48.4709 H   0  0  0  0  0  0  0  0  0  0  0  0
   28.1858   43.5971   48.6427 H   0  0  0  0  0  0  0  0  0  0  0  0
   30.3126   47.0044   48.5551 C   0  0  0  0  0  0  0  0  0  0  0  0
   31.5052   49.0671   48.7798 C   0  0  0  0  0  0  0  0  0  0  0  0
   30.0420   48.4697   49.3937 S   0  0  0  0  0  0  0  0  0  0  0  0
   31.4092   46.9581   47.8570 N   0  0  0  0  0  0  0  0  0  0  0  0
   32.1083   48.1594   47.9953 N   0  0  0  0  0  0  0  0  0  0  0  0
   32.2463   50.6978   49.0388 S   0  0  0  0  0  0  0  0  0  0  0  0
   31.4526   51.4303   49.8654 H   0  0  0  0  0  0  0  0  0  0  0  0
   24.4934   41.4423   50.7496 C   0  0  0  0  0  0  0  0  0  0  0  0
   25.9276   42.9712   49.4751 C   0  0  0  0  0  0  0  0  0  0  0  0
   26.7675   42.0949   49.4148 O   0  0  0  0  0  0  0  0  0  0  0  0
   24.6715   42.7901   50.1434 N   0  0  0  0  0  0  0  0  0  0  0  0
   23.9869   43.4956   50.1966 H   0  0  0  0  0  0  0  0  0  0  0  0
   25.6538   44.1149   47.3034 C   0  0  0  0  0  0  0  0  0  0  0  0
   26.5331   45.7231   45.6336 C   0  0  0  0  0  0  0  0  0  0  0  0
   25.6186   45.4410   46.5972 C   0  0  0  0  0  0  0  0  0  0  0  0
   24.7049   46.3856   46.9980 C   0  0  0  0  0  0  0  0  0  0  0  0
   24.6624   47.5900   46.3570 C   0  0  0  0  0  0  0  0  0  0  0  0
   25.5448   47.8616   45.3535 C   0  0  0  0  0  0  0  0  0  0  0  0
   26.4715   46.9362   44.9766 C   0  0  0  0  0  0  0  0  0  0  0  0
   23.7839   46.1261   47.9682 F   0  0  0  0  0  0  0  0  0  0  0  0
   23.7683   48.5692   46.7064 F   0  0  0  0  0  0  0  0  0  0  0  0
   25.5555   49.0940   44.7624 F   0  0  0  0  0  0  0  0  0  0  0  0
   27.4116   47.2646   44.0090 F   0  0  0  0  0  0  0  0  0  0  0  0
   27.5457   44.8637   45.2682 F   0  0  0  0  0  0  0  0  0  0  0  0
  8 10  1  0  0  0
  8 11  2  0  0  0
  8  3  1  0  0  0
  9 10  1  0  0  0
  9 12  2  0  0  0
  9 13  1  0  0  0
  2  3  1  0  0  0
  2  4  2  0  0  0
  2  5  1  0  0  0
 20 22  1  0  0  0
 20  1  1  0  0  0
 21 22  2  0  0  0
 21 26  1  0  0  0
 21 31  1  0  0  0
 22 23  1  0  0  0
 23 24  2  0  0  0
 23 27  1  0  0  0
 24 25  1  0  0  0
 24 28  1  0  0  0
 25 26  2  0  0  0
 25 29  1  0  0  0
 26 30  1  0  0  0
 15 18  1  0  0  0
 11 12  1  0  0  0
  5  1  1  0  0  0
  1 16  1  0  0  0
 16 17  2  0  0  0
 16 18  1  0  0  0
  3  6  1  0  0  0
 13 14  1  0  0  0
  5  7  1  0  0  0
 18 19  1  0  0  0
M  END
> <minimizedAffinity>
-7.55960

$$$$
1USN_IN9_A_300


 31 32  0  0  0  0  0  0  0  0999 V2000
   27.5891   47.8233   47.4127 C   0  0  0  0  0  0  0  0  0  0  0  0
   29.5860   49.2277   47.8704 C   0  0  0  0  0  0  0  0  0  0  0  0
   30.2534   49.9785   48.7635 N   0  0  0  0  0  0  0  0  0  0  0  0
   30.2073   48.8369   46.7092 O   0  0  0  0  0  0  0  0  0  0  0  0
   28.2816   48.7864   48.2381 N   0  0  0  0  0  0  0  0  0  0  0  0
   29.7617   50.2281   49.5791 H   0  0  0  0  0  0  0  0  0  0  0  0
   27.8535   49.1369   49.0524 H   0  0  0  0  0  0  0  0  0  0  0  0
   31.6248   50.4648   48.6595 C   0  0  0  0  0  0  0  0  0  0  0  0
   33.7453   51.5692   48.5532 C   0  0  0  0  0  0  0  0  0  0  0  0
   32.1481   52.0335   48.2246 S   0  0  0  0  0  0  0  0  0  0  0  0
   32.5682   49.6436   49.0171 N   0  0  0  0  0  0  0  0  0  0  0  0
   33.8043   50.2917   48.9624 N   0  0  0  0  0  0  0  0  0  0  0  0
   35.2555   52.5517   48.3811 S   0  0  0  0  0  0  0  0  0  0  0  0
   34.9359   53.8034   47.9562 H   0  0  0  0  0  0  0  0  0  0  0  0
   27.0504   49.0333   43.8243 C   0  0  0  0  0  0  0  0  0  0  0  0
   27.1182   48.5886   46.2361 C   0  0  0  0  0  0  0  0  0  0  0  0
   26.2323   49.4066   46.3876 O   0  0  0  0  0  0  0  0  0  0  0  0
   27.6641   48.2735   44.9476 N   0  0  0  0  0  0  0  0  0  0  0  0
   28.3820   47.6124   44.8175 H   0  0  0  0  0  0  0  0  0  0  0  0
   26.3684   47.2820   48.1931 C   0  0  0  0  0  0  0  0  0  0  0  0
   27.0081   44.9809   48.8590 C   0  0  0  0  0  0  0  0  0  0  0  0
   26.2419   45.7888   48.0813 C   0  0  0  0  0  0  0  0  0  0  0  0
   25.4048   45.2602   47.1286 C   0  0  0  0  0  0  0  0  0  0  0  0
   25.2795   43.9049   47.0253 C   0  0  0  0  0  0  0  0  0  0  0  0
   26.0080   43.0873   47.8379 C   0  0  0  0  0  0  0  0  0  0  0  0
   26.8616   43.6112   48.7621 C   0  0  0  0  0  0  0  0  0  0  0  0
   24.6333   46.0527   46.3326 F   0  0  0  0  0  0  0  0  0  0  0  0
   24.4546   43.3186   46.1000 F   0  0  0  0  0  0  0  0  0  0  0  0
   25.9430   41.7306   47.6848 F   0  0  0  0  0  0  0  0  0  0  0  0
   27.6530   42.7602   49.5220 F   0  0  0  0  0  0  0  0  0  0  0  0
   27.9489   45.4488   49.7497 F   0  0  0  0  0  0  0  0  0  0  0  0
  8 10  1  0  0  0
  8 11  2  0  0  0
  8  3  1  0  0  0
  9 10  1  0  0  0
  9 12  2  0  0  0
  9 13  1  0  0  0
  2  3  1  0  0  0
  2  4  2  0  0  0
  2  5  1  0  0  0
 20 22  1  0  0  0
 20  1  1  0  0  0
 21 22  2  0  0  0
 21 26  1  0  0  0
 21 31  1  0  0  0
 22 23  1  0  0  0
 23 24  2  0  0  0
 23 27  1  0  0  0
 24 25  1  0  0  0
 24 28  1  0  0  0
 25 26  2  0  0  0
 25 29  1  0  0  0
 26 30  1  0  0  0
 15 18  1  0  0  0
 11 12  1  0  0  0
  5  1  1  0  0  0
  1 16  1  0  0  0
 16 17  2  0  0  0
 16 18  1  0  0  0
  3  6  1  0  0  0
 13 14  1  0  0  0
  5  7  1  0  0  0
 18 19  1  0  0  0
M  END
> <minimizedAffinity>
-7.19731

$$$$
1USN_IN9_A_300


 31 32  0  0  0  0  0  0  0  0999 V2000
   27.6458   47.8519   47.3968 C   0  0  0  0  0  0  0  0  0  0  0  0
   29.6466   49.2545   47.8429 C   0  0  0  0  0  0  0  0  0  0  0  0
   30.3086   50.0230   48.7249 N   0  0  0  0  0  0  0  0  0  0  0  0
   30.2788   48.8309   46.6992 O   0  0  0  0  0  0  0  0  0  0  0  0
   28.3352   48.8309   48.2062 N   0  0  0  0  0  0  0  0  0  0  0  0
   29.8092   50.2960   49.5282 H   0  0  0  0  0  0  0  0  0  0  0  0
   27.9000   49.2042   49.0064 H   0  0  0  0  0  0  0  0  0  0  0  0
   31.6844   50.4978   48.6250 C   0  0  0  0  0  0  0  0  0  0  0  0
   33.8126   51.5864   48.5103 C   0  0  0  0  0  0  0  0  0  0  0  0
   32.2240   52.0445   48.1347 S   0  0  0  0  0  0  0  0  0  0  0  0
   32.6167   49.6875   49.0329 N   0  0  0  0  0  0  0  0  0  0  0  0
   33.8573   50.3267   48.9730 N   0  0  0  0  0  0  0  0  0  0  0  0
   35.3311   52.5534   48.3242 S   0  0  0  0  0  0  0  0  0  0  0  0
   35.0261   53.7880   47.8422 H   0  0  0  0  0  0  0  0  0  0  0  0
   27.0878   49.0778   43.8168 C   0  0  0  0  0  0  0  0  0  0  0  0
   27.1453   48.6025   46.2230 C   0  0  0  0  0  0  0  0  0  0  0  0
   26.2057   49.3590   46.3706 O   0  0  0  0  0  0  0  0  0  0  0  0
   27.7314   48.3428   44.9398 N   0  0  0  0  0  0  0  0  0  0  0  0
   28.4928   47.7317   44.8130 H   0  0  0  0  0  0  0  0  0  0  0  0
   26.4457   47.2961   48.1987 C   0  0  0  0  0  0  0  0  0  0  0  0
   25.4264   45.3250   47.0926 C   0  0  0  0  0  0  0  0  0  0  0  0
   26.2867   45.8120   48.0237 C   0  0  0  0  0  0  0  0  0  0  0  0
   26.9592   44.9651   48.8713 C   0  0  0  0  0  0  0  0  0  0  0  0
   26.8250   43.6157   48.7145 C   0  0  0  0  0  0  0  0  0  0  0  0
   26.0017   43.1186   47.7478 C   0  0  0  0  0  0  0  0  0  0  0  0
   25.3106   43.9589   46.9271 C   0  0  0  0  0  0  0  0  0  0  0  0
   27.8209   45.4329   49.8176 F   0  0  0  0  0  0  0  0  0  0  0  0
   27.4763   42.7207   49.5238 F   0  0  0  0  0  0  0  0  0  0  0  0
   25.8055   41.7703   47.6386 F   0  0  0  0  0  0  0  0  0  0  0  0
   24.4167   43.4318   46.0047 F   0  0  0  0  0  0  0  0  0  0  0  0
   24.6375   46.1219   46.2925 F   0  0  0  0  0  0  0  0  0  0  0  0
  8 10  1  0  0  0
  8 11  2  0  0  0
  8  3  1  0  0  0
  9 10  1  0  0  0
  9 12  2  0  0  0
  9 13  1  0  0  0
  2  3  1  0  0  0
  2  4  2  0  0  0
  2  5  1  0  0  0
 20 22  1  0  0  0
 20  1  1  0  0  0
 21 22  2  0  0  0
 21 26  1  0  0  0
 21 31  1  0  0  0
 22 23  1  0  0  0
 23 24  2  0  0  0
 23 27  1  0  0  0
 24 25  1  0  0  0
 24 28  1  0  0  0
 25 26  2  0  0  0
 25 29  1  0  0  0
 26 30  1  0  0  0
 15 18  1  0  0  0
 11 12  1  0  0  0
  5  1  1  0  0  0
  1 16  1  0  0  0
 16 17  2  0  0  0
 16 18  1  0  0  0
  3  6  1  0  0  0
 13 14  1  0  0  0
  5  7  1  0  0  0
 18 19  1  0  0  0
M  END
> <minimizedAffinity>
-7.18072

$$$$
1USN_IN9_A_300


 31 32  0  0  0  0  0  0  0  0999 V2000
   31.2954   50.4865   47.3673 C   0  0  0  0  0  0  0  0  0  0  0  0
   29.8034   50.5115   45.3817 C   0  0  0  0  0  0  0  0  0  0  0  0
   29.3093   49.8262   44.3362 N   0  0  0  0  0  0  0  0  0  0  0  0
   29.2265   51.7028   45.7493 O   0  0  0  0  0  0  0  0  0  0  0  0
   30.8521   49.8959   46.1250 N   0  0  0  0  0  0  0  0  0  0  0  0
   29.7588   48.9779   44.1177 H   0  0  0  0  0  0  0  0  0  0  0  0
   31.2736   49.0705   45.7929 H   0  0  0  0  0  0  0  0  0  0  0  0
   28.1816   50.1986   43.4891 C   0  0  0  0  0  0  0  0  0  0  0  0
   26.5116   50.6793   41.8436 C   0  0  0  0  0  0  0  0  0  0  0  0
   28.2022   50.5529   41.8164 S   0  0  0  0  0  0  0  0  0  0  0  0
   27.0029   50.1824   44.0392 N   0  0  0  0  0  0  0  0  0  0  0  0
   26.0286   50.4551   43.0762 N   0  0  0  0  0  0  0  0  0  0  0  0
   25.3969   51.0905   40.4784 S   0  0  0  0  0  0  0  0  0  0  0  0
   26.1203   51.2699   39.3408 H   0  0  0  0  0  0  0  0  0  0  0  0
   34.9995   51.1806   46.7119 C   0  0  0  0  0  0  0  0  0  0  0  0
   32.5682   51.1683   47.0400 C   0  0  0  0  0  0  0  0  0  0  0  0
   32.5285   52.3046   46.6108 O   0  0  0  0  0  0  0  0  0  0  0  0
   33.7932   50.4318   47.1591 N   0  0  0  0  0  0  0  0  0  0  0  0
   33.8328   49.5114   47.5064 H   0  0  0  0  0  0  0  0  0  0  0  0
   31.5677   49.3573   48.3885 C   0  0  0  0  0  0  0  0  0  0  0  0
   29.2726   49.4031   49.3255 C   0  0  0  0  0  0  0  0  0  0  0  0
   30.3033   48.6732   48.8263 C   0  0  0  0  0  0  0  0  0  0  0  0
   30.2408   47.3011   48.7902 C   0  0  0  0  0  0  0  0  0  0  0  0
   29.0935   46.6727   49.1800 C   0  0  0  0  0  0  0  0  0  0  0  0
   28.0352   47.4027   49.6347 C   0  0  0  0  0  0  0  0  0  0  0  0
   28.1082   48.7620   49.6998 C   0  0  0  0  0  0  0  0  0  0  0  0
   31.2666   46.5493   48.3007 F   0  0  0  0  0  0  0  0  0  0  0  0
   28.9682   45.3074   49.1589 F   0  0  0  0  0  0  0  0  0  0  0  0
   26.9141   46.7728   50.0982 F   0  0  0  0  0  0  0  0  0  0  0  0
   27.0496   49.4784   50.2421 F   0  0  0  0  0  0  0  0  0  0  0  0
   29.3177   50.7693   49.4957 F   0  0  0  0  0  0  0  0  0  0  0  0
  8 10  1  0  0  0
  8 11  2  0  0  0
  8  3  1  0  0  0
  9 10  1  0  0  0
  9 12  2  0  0  0
  9 13  1  0  0  0
  2  3  1  0  0  0
  2  4  2  0  0  0
  2  5  1  0  0  0
 20 22  1  0  0  0
 20  1  1  0  0  0
 21 22  2  0  0  0
 21 26  1  0  0  0
 21 31  1  0  0  0
 22 23  1  0  0  0
 23 24  2  0  0  0
 23 27  1  0  0  0
 24 25  1  0  0  0
 24 28  1  0  0  0
 25 26  2  0  0  0
 25 29  1  0  0  0
 26 30  1  0  0  0
 15 18  1  0  0  0
 11 12  1  0  0  0
  5  1  1  0  0  0
  1 16  1  0  0  0
 16 17  2  0  0  0
 16 18  1  0  0  0
  3  6  1  0  0  0
 13 14  1  0  0  0
  5  7  1  0  0  0
 18 19  1  0  0  0
M  END
> <minimizedAffinity>
-7.10287

$$$$
1USN_IN9_A_300


 31 32  0  0  0  0  0  0  0  0999 V2000
   31.3067   50.4437   47.3682 C   0  0  0  0  0  0  0  0  0  0  0  0
   29.8086   50.4842   45.3874 C   0  0  0  0  0  0  0  0  0  0  0  0
   29.3131   49.8078   44.3368 N   0  0  0  0  0  0  0  0  0  0  0  0
   29.2299   51.6704   45.7683 O   0  0  0  0  0  0  0  0  0  0  0  0
   30.8611   49.8641   46.1215 N   0  0  0  0  0  0  0  0  0  0  0  0
   29.7640   48.9629   44.1088 H   0  0  0  0  0  0  0  0  0  0  0  0
   31.2836   49.0430   45.7803 H   0  0  0  0  0  0  0  0  0  0  0  0
   28.1820   50.1856   43.4967 C   0  0  0  0  0  0  0  0  0  0  0  0
   26.5069   50.6802   41.8605 C   0  0  0  0  0  0  0  0  0  0  0  0
   28.1982   50.5655   41.8296 S   0  0  0  0  0  0  0  0  0  0  0  0
   27.0040   50.1531   44.0477 N   0  0  0  0  0  0  0  0  0  0  0  0
   26.0268   50.4340   43.0901 N   0  0  0  0  0  0  0  0  0  0  0  0
   25.3878   51.1047   40.5029 S   0  0  0  0  0  0  0  0  0  0  0  0
   26.1087   51.3063   39.3675 H   0  0  0  0  0  0  0  0  0  0  0  0
   34.9923   51.1999   46.6787 C   0  0  0  0  0  0  0  0  0  0  0  0
   32.5662   51.1491   47.0395 C   0  0  0  0  0  0  0  0  0  0  0  0
   32.5064   52.2944   46.6374 O   0  0  0  0  0  0  0  0  0  0  0  0
   33.8018   50.4257   47.1248 N   0  0  0  0  0  0  0  0  0  0  0  0
   33.8576   49.4981   47.4500 H   0  0  0  0  0  0  0  0  0  0  0  0
   31.6048   49.3045   48.3709 C   0  0  0  0  0  0  0  0  0  0  0  0
   30.2343   47.2763   48.7653 C   0  0  0  0  0  0  0  0  0  0  0  0
   30.3508   48.6269   48.8469 C   0  0  0  0  0  0  0  0  0  0  0  0
   29.3015   49.3982   49.2852 C   0  0  0  0  0  0  0  0  0  0  0  0
   28.1616   48.7898   49.7253 C   0  0  0  0  0  0  0  0  0  0  0  0
   28.0566   47.4305   49.6940 C   0  0  0  0  0  0  0  0  0  0  0  0
   29.0857   46.6668   49.2303 C   0  0  0  0  0  0  0  0  0  0  0  0
   29.3944   50.7552   49.3674 F   0  0  0  0  0  0  0  0  0  0  0  0
   27.0844   49.5051   50.1815 F   0  0  0  0  0  0  0  0  0  0  0  0
   26.8887   46.8226   50.0611 F   0  0  0  0  0  0  0  0  0  0  0  0
   28.9258   45.2911   49.1315 F   0  0  0  0  0  0  0  0  0  0  0  0
   31.2039   46.4583   48.2282 F   0  0  0  0  0  0  0  0  0  0  0  0
  8 10  1  0  0  0
  8 11  2  0  0  0
  8  3  1  0  0  0
  9 10  1  0  0  0
  9 12  2  0  0  0
  9 13  1  0  0  0
  2  3  1  0  0  0
  2  4  2  0  0  0
  2  5  1  0  0  0
 20 22  1  0  0  0
 20  1  1  0  0  0
 21 22  2  0  0  0
 21 26  1  0  0  0
 21 31  1  0  0  0
 22 23  1  0  0  0
 23 24  2  0  0  0
 23 27  1  0  0  0
 24 25  1  0  0  0
 24 28  1  0  0  0
 25 26  2  0  0  0
 25 29  1  0  0  0
 26 30  1  0  0  0
 15 18  1  0  0  0
 11 12  1  0  0  0
  5  1  1  0  0  0
  1 16  1  0  0  0
 16 17  2  0  0  0
 16 18  1  0  0  0
  3  6  1  0  0  0
 13 14  1  0  0  0
  5  7  1  0  0  0
 18 19  1  0  0  0
M  END
> <minimizedAffinity>
-7.04608

$$$$
1USN_IN9_A_300


 31 32  0  0  0  0  0  0  0  0999 V2000
   27.4402   47.0051   47.8541 C   0  0  0  0  0  0  0  0  0  0  0  0
   29.6377   48.1454   48.0544 C   0  0  0  0  0  0  0  0  0  0  0  0
   30.8392   48.3794   47.4991 N   0  0  0  0  0  0  0  0  0  0  0  0
   29.2179   48.9084   49.1168 O   0  0  0  0  0  0  0  0  0  0  0  0
   28.8113   47.1681   47.4273 N   0  0  0  0  0  0  0  0  0  0  0  0
   31.0890   47.8053   46.7394 H   0  0  0  0  0  0  0  0  0  0  0  0
   29.1736   46.6055   46.7052 H   0  0  0  0  0  0  0  0  0  0  0  0
   31.8145   49.3890   47.8963 C   0  0  0  0  0  0  0  0  0  0  0  0
   33.1728   51.2718   48.4771 C   0  0  0  0  0  0  0  0  0  0  0  0
   31.8983   51.0193   47.3878 S   0  0  0  0  0  0  0  0  0  0  0  0
   32.6777   49.0459   48.8070 N   0  0  0  0  0  0  0  0  0  0  0  0
   33.4644   50.1476   49.1509 N   0  0  0  0  0  0  0  0  0  0  0  0
   34.1191   52.7880   48.7622 S   0  0  0  0  0  0  0  0  0  0  0  0
   33.6363   53.7800   47.9669 H   0  0  0  0  0  0  0  0  0  0  0  0
   26.6649   43.3020   48.4171 C   0  0  0  0  0  0  0  0  0  0  0  0
   27.3771   45.6495   48.4460 C   0  0  0  0  0  0  0  0  0  0  0  0
   28.0607   45.4053   49.4206 O   0  0  0  0  0  0  0  0  0  0  0  0
   26.5786   44.6515   47.7949 N   0  0  0  0  0  0  0  0  0  0  0  0
   26.0221   44.8424   47.0055 H   0  0  0  0  0  0  0  0  0  0  0  0
   26.5198   47.0648   46.6126 C   0  0  0  0  0  0  0  0  0  0  0  0
   26.4521   49.5366   46.4303 C   0  0  0  0  0  0  0  0  0  0  0  0
   26.6973   48.3398   45.8371 C   0  0  0  0  0  0  0  0  0  0  0  0
   27.0290   48.2695   44.5056 C   0  0  0  0  0  0  0  0  0  0  0  0
   27.1985   49.4232   43.7962 C   0  0  0  0  0  0  0  0  0  0  0  0
   27.0036   50.6309   44.3988 C   0  0  0  0  0  0  0  0  0  0  0  0
   26.6444   50.7000   45.7116 C   0  0  0  0  0  0  0  0  0  0  0  0
   27.2715   47.0787   43.8890 F   0  0  0  0  0  0  0  0  0  0  0  0
   27.5369   49.4175   42.4674 F   0  0  0  0  0  0  0  0  0  0  0  0
   27.0969   51.7848   43.6720 F   0  0  0  0  0  0  0  0  0  0  0  0
   26.3721   51.9364   46.2818 F   0  0  0  0  0  0  0  0  0  0  0  0
   26.0049   49.6679   47.7265 F   0  0  0  0  0  0  0  0  0  0  0  0
  8 10  1  0  0  0
  8 11  2  0  0  0
  8  3  1  0  0  0
  9 10  1  0  0  0
  9 12  2  0  0  0
  9 13  1  0  0  0
  2  3  1  0  0  0
  2  4  2  0  0  0
  2  5  1  0  0  0
 20 22  1  0  0  0
 20  1  1  0  0  0
 21 22  2  0  0  0
 21 26  1  0  0  0
 21 31  1  0  0  0
 22 23  1  0  0  0
 23 24  2  0  0  0
 23 27  1  0  0  0
 24 25  1  0  0  0
 24 28  1  0  0  0
 25 26  2  0  0  0
 25 29  1  0  0  0
 26 30  1  0  0  0
 15 18  1  0  0  0
 11 12  1  0  0  0
  5  1  1  0  0  0
  1 16  1  0  0  0
 16 17  2  0  0  0
 16 18  1  0  0  0
  3  6  1  0  0  0
 13 14  1  0  0  0
  5  7  1  0  0  0
 18 19  1  0  0  0
M  END
> <minimizedAffinity>
-6.99797

$$$$
1USN_IN9_A_300


 31 32  0  0  0  0  0  0  0  0999 V2000
   27.7142   49.3451   44.5624 C   0  0  0  0  0  0  0  0  0  0  0  0
   29.2949   50.3305   46.2054 C   0  0  0  0  0  0  0  0  0  0  0  0
   29.4535   50.9033   47.4111 N   0  0  0  0  0  0  0  0  0  0  0  0
   30.3943   49.8822   45.5143 O   0  0  0  0  0  0  0  0  0  0  0  0
   27.9587   50.1246   45.7545 N   0  0  0  0  0  0  0  0  0  0  0  0
   28.6324   51.2040   47.8635 H   0  0  0  0  0  0  0  0  0  0  0  0
   27.2041   50.5125   46.2539 H   0  0  0  0  0  0  0  0  0  0  0  0
   30.7059   51.1292   48.1241 C   0  0  0  0  0  0  0  0  0  0  0  0
   32.6490   51.8163   49.3405 C   0  0  0  0  0  0  0  0  0  0  0  0
   31.5374   52.6083   48.3346 S   0  0  0  0  0  0  0  0  0  0  0  0
   31.2187   50.1097   48.7485 N   0  0  0  0  0  0  0  0  0  0  0  0
   32.3480   50.5137   49.4644 N   0  0  0  0  0  0  0  0  0  0  0  0
   34.1047   52.5075   50.1643 S   0  0  0  0  0  0  0  0  0  0  0  0
   34.1938   53.8362   49.8882 H   0  0  0  0  0  0  0  0  0  0  0  0
   27.9283   51.0973   41.1691 C   0  0  0  0  0  0  0  0  0  0  0  0
   27.5671   50.3375   43.4736 C   0  0  0  0  0  0  0  0  0  0  0  0
   26.8368   51.2929   43.6489 O   0  0  0  0  0  0  0  0  0  0  0  0
   28.2229   50.0879   42.2226 N   0  0  0  0  0  0  0  0  0  0  0  0
   28.8160   49.3163   42.0738 H   0  0  0  0  0  0  0  0  0  0  0  0
   26.3852   48.5728   44.7339 C   0  0  0  0  0  0  0  0  0  0  0  0
   26.1739   47.4540   46.9365 C   0  0  0  0  0  0  0  0  0  0  0  0
   26.5375   47.3762   45.6303 C   0  0  0  0  0  0  0  0  0  0  0  0
   27.1228   46.2384   45.1296 C   0  0  0  0  0  0  0  0  0  0  0  0
   27.2587   45.1453   45.9357 C   0  0  0  0  0  0  0  0  0  0  0  0
   26.8490   45.1993   47.2352 C   0  0  0  0  0  0  0  0  0  0  0  0
   26.2966   46.3380   47.7406 C   0  0  0  0  0  0  0  0  0  0  0  0
   27.5022   46.1421   43.8243 F   0  0  0  0  0  0  0  0  0  0  0  0
   27.8273   43.9794   45.4911 F   0  0  0  0  0  0  0  0  0  0  0  0
   27.0540   44.1330   48.0655 F   0  0  0  0  0  0  0  0  0  0  0  0
   25.9620   46.3965   49.0869 F   0  0  0  0  0  0  0  0  0  0  0  0
   25.6899   48.6008   47.5264 F   0  0  0  0  0  0  0  0  0  0  0  0
  8 10  1  0  0  0
  8 11  2  0  0  0
  8  3  1  0  0  0
  9 10  1  0  0  0
  9 12  2  0  0  0
  9 13  1  0  0  0
  2  3  1  0  0  0
  2  4  2  0  0  0
  2  5  1  0  0  0
 20 22  1  0  0  0
 20  1  1  0  0  0
 21 22  2  0  0  0
 21 26  1  0  0  0
 21 31  1  0  0  0
 22 23  1  0  0  0
 23 24  2  0  0  0
 23 27  1  0  0  0
 24 25  1  0  0  0
 24 28  1  0  0  0
 25 26  2  0  0  0
 25 29  1  0  0  0
 26 30  1  0  0  0
 15 18  1  0  0  0
 11 12  1  0  0  0
  5  1  1  0  0  0
  1 16  1  0  0  0
 16 17  2  0  0  0
 16 18  1  0  0  0
  3  6  1  0  0  0
 13 14  1  0  0  0
  5  7  1  0  0  0
 18 19  1  0  0  0
M  END
> <minimizedAffinity>
-6.94885

$$$$
1USN_IN9_A_300


 31 32  0  0  0  0  0  0  0  0999 V2000
   27.6970   49.3466   44.5706 C   0  0  0  0  0  0  0  0  0  0  0  0
   29.2676   50.3419   46.2174 C   0  0  0  0  0  0  0  0  0  0  0  0
   29.4173   50.9324   47.4155 N   0  0  0  0  0  0  0  0  0  0  0  0
   30.3706   49.8711   45.5474 O   0  0  0  0  0  0  0  0  0  0  0  0
   27.9350   50.1427   45.7530 N   0  0  0  0  0  0  0  0  0  0  0  0
   28.5940   51.2490   47.8528 H   0  0  0  0  0  0  0  0  0  0  0  0
   27.1784   50.5465   46.2366 H   0  0  0  0  0  0  0  0  0  0  0  0
   30.6631   51.1568   48.1405 C   0  0  0  0  0  0  0  0  0  0  0  0
   32.5881   51.8365   49.3895 C   0  0  0  0  0  0  0  0  0  0  0  0
   31.4602   52.6444   48.4150 S   0  0  0  0  0  0  0  0  0  0  0  0
   31.1982   50.1240   48.7230 N   0  0  0  0  0  0  0  0  0  0  0  0
   32.3168   50.5232   49.4580 N   0  0  0  0  0  0  0  0  0  0  0  0
   34.0263   52.5255   50.2452 S   0  0  0  0  0  0  0  0  0  0  0  0
   34.0853   53.8663   50.0252 H   0  0  0  0  0  0  0  0  0  0  0  0
   27.9067   51.1025   41.1789 C   0  0  0  0  0  0  0  0  0  0  0  0
   27.5207   50.3250   43.4735 C   0  0  0  0  0  0  0  0  0  0  0  0
   26.7237   51.2305   43.6209 O   0  0  0  0  0  0  0  0  0  0  0  0
   28.2323   50.1168   42.2457 N   0  0  0  0  0  0  0  0  0  0  0  0
   28.8796   49.3858   42.1195 H   0  0  0  0  0  0  0  0  0  0  0  0
   26.3856   48.5489   44.7606 C   0  0  0  0  0  0  0  0  0  0  0  0
   27.1279   46.2111   45.1228 C   0  0  0  0  0  0  0  0  0  0  0  0
   26.5787   47.3424   45.6355 C   0  0  0  0  0  0  0  0  0  0  0  0
   26.1179   47.3767   46.9295 C   0  0  0  0  0  0  0  0  0  0  0  0
   26.2954   46.2871   47.7323 C   0  0  0  0  0  0  0  0  0  0  0  0
   26.8924   45.1647   47.2390 C   0  0  0  0  0  0  0  0  0  0  0  0
   27.3218   45.1197   45.9464 C   0  0  0  0  0  0  0  0  0  0  0  0
   25.5565   48.4987   47.4612 F   0  0  0  0  0  0  0  0  0  0  0  0
   25.8644   46.2642   49.0339 F   0  0  0  0  0  0  0  0  0  0  0  0
   27.0020   44.0460   48.0167 F   0  0  0  0  0  0  0  0  0  0  0  0
   27.8524   43.9396   45.4428 F   0  0  0  0  0  0  0  0  0  0  0  0
   27.5029   46.0752   43.8043 F   0  0  0  0  0  0  0  0  0  0  0  0
  8 10  1  0  0  0
  8 11  2  0  0  0
  8  3  1  0  0  0
  9 10  1  0  0  0
  9 12  2  0  0  0
  9 13  1  0  0  0
  2  3  1  0  0  0
  2  4  2  0  0  0
  2  5  1  0  0  0
 20 22  1  0  0  0
 20  1  1  0  0  0
 21 22  2  0  0  0
 21 26  1  0  0  0
 21 31  1  0  0  0
 22 23  1  0  0  0
 23 24  2  0  0  0
 23 27  1  0  0  0
 24 25  1  0  0  0
 24 28  1  0  0  0
 25 26  2  0  0  0
 25 29  1  0  0  0
 26 30  1  0  0  0
 15 18  1  0  0  0
 11 12  1  0  0  0
  5  1  1  0  0  0
  1 16  1  0  0  0
 16 17  2  0  0  0
 16 18  1  0  0  0
  3  6  1  0  0  0
 13 14  1  0  0  0
  5  7  1  0  0  0
 18 19  1  0  0  0
M  END
> <minimizedAffinity>
-6.92620

$$$$
1USN_IN9_A_300


 31 32  0  0  0  0  0  0  0  0999 V2000
   29.7300   48.1148   47.3043 C   0  0  0  0  0  0  0  0  0  0  0  0
   28.4490   46.0722   47.9012 C   0  0  0  0  0  0  0  0  0  0  0  0
   27.8929   45.3383   48.8805 N   0  0  0  0  0  0  0  0  0  0  0  0
   28.1405   45.8038   46.5898 O   0  0  0  0  0  0  0  0  0  0  0  0
   29.2611   47.1746   48.2967 N   0  0  0  0  0  0  0  0  0  0  0  0
   28.1465   45.5749   49.8019 H   0  0  0  0  0  0  0  0  0  0  0  0
   29.5020   47.2954   49.2436 H   0  0  0  0  0  0  0  0  0  0  0  0
   26.9555   44.2307   48.7307 C   0  0  0  0  0  0  0  0  0  0  0  0
   25.2961   42.5839   48.2187 C   0  0  0  0  0  0  0  0  0  0  0  0
   25.4034   44.2636   48.0142 S   0  0  0  0  0  0  0  0  0  0  0  0
   27.3689   43.0561   49.1071 N   0  0  0  0  0  0  0  0  0  0  0  0
   26.4030   42.0948   48.8004 N   0  0  0  0  0  0  0  0  0  0  0  0
   23.9205   41.4888   47.7898 S   0  0  0  0  0  0  0  0  0  0  0  0
   22.9241   42.2156   47.2167 H   0  0  0  0  0  0  0  0  0  0  0  0
   32.7053   50.1115   48.6431 C   0  0  0  0  0  0  0  0  0  0  0  0
   31.0907   48.4973   47.7451 C   0  0  0  0  0  0  0  0  0  0  0  0
   31.9380   47.6316   47.8426 O   0  0  0  0  0  0  0  0  0  0  0  0
   31.3332   49.8593   48.1238 N   0  0  0  0  0  0  0  0  0  0  0  0
   30.6517   50.5657   48.0471 H   0  0  0  0  0  0  0  0  0  0  0  0
   28.8156   49.3619   47.3256 C   0  0  0  0  0  0  0  0  0  0  0  0
   28.7972   49.9202   44.9099 C   0  0  0  0  0  0  0  0  0  0  0  0
   28.1004   49.5618   46.0192 C   0  0  0  0  0  0  0  0  0  0  0  0
   26.7308   49.4574   45.9862 C   0  0  0  0  0  0  0  0  0  0  0  0
   26.0745   49.6311   44.8020 C   0  0  0  0  0  0  0  0  0  0  0  0
   26.7730   49.9412   43.6727 C   0  0  0  0  0  0  0  0  0  0  0  0
   28.1287   50.0752   43.7116 C   0  0  0  0  0  0  0  0  0  0  0  0
   26.0116   49.1069   47.0893 F   0  0  0  0  0  0  0  0  0  0  0  0
   24.7104   49.5317   44.7045 F   0  0  0  0  0  0  0  0  0  0  0  0
   26.1122   50.1916   42.5026 F   0  0  0  0  0  0  0  0  0  0  0  0
   28.8098   50.4711   42.5682 F   0  0  0  0  0  0  0  0  0  0  0  0
   30.1547   50.1538   44.9046 F   0  0  0  0  0  0  0  0  0  0  0  0
  8 10  1  0  0  0
  8 11  2  0  0  0
  8  3  1  0  0  0
  9 10  1  0  0  0
  9 12  2  0  0  0
  9 13  1  0  0  0
  2  3  1  0  0  0
  2  4  2  0  0  0
  2  5  1  0  0  0
 20 22  1  0  0  0
 20  1  1  0  0  0
 21 22  2  0  0  0
 21 26  1  0  0  0
 21 31  1  0  0  0
 22 23  1  0  0  0
 23 24  2  0  0  0
 23 27  1  0  0  0
 24 25  1  0  0  0
 24 28  1  0  0  0
 25 26  2  0  0  0
 25 29  1  0  0  0
 26 30  1  0  0  0
 15 18  1  0  0  0
 11 12  1  0  0  0
  5  1  1  0  0  0
  1 16  1  0  0  0
 16 17  2  0  0  0
 16 18  1  0  0  0
  3  6  1  0  0  0
 13 14  1  0  0  0
  5  7  1  0  0  0
 18 19  1  0  0  0
M  END
> <minimizedAffinity>
-6.64692

$$$$
