4PP0_OP1_A_301


 26 26  0  0  0  0  0  0  0  0999 V2000
   17.7880   -6.3081   -4.1070 C   0  0  0  0  0  0  0  0  0  0  0  0
   18.2022   -6.6948   -2.7501 N   0  0  0  0  0  0  0  0  0  0  0  0
   19.1669   -7.5885   -2.1408 C   0  0  0  0  0  0  0  0  0  0  0  0
   18.7411   -7.7870   -0.7342 C   0  0  0  0  0  0  0  0  0  0  0  0
   17.8525   -6.6649   -0.3436 C   0  0  0  0  0  0  0  0  0  0  0  0
   17.5178   -6.0990   -1.6614 C   0  0  0  0  0  0  0  0  0  0  0  0
   16.4213   -5.3552   -1.8655 O   0  0  0  0  0  0  0  0  0  0  0  0
   20.5497   -7.0155   -2.1721 C   0  0  0  0  0  0  0  0  0  0  0  0
   20.8742   -6.0278   -2.9151 O   0  0  0  0  0  0  0  0  0  0  0  0
   21.4353   -7.4932   -1.3876 O   0  0  0  0  0  0  0  0  0  0  0  0
   21.2265   -8.2174   -0.8310 H   0  0  0  0  0  0  0  0  0  0  0  0
   16.5469   -7.0645   -4.5327 C   0  0  0  0  0  0  0  0  0  0  0  0
   15.3984   -6.5857   -4.3941 O   0  0  0  0  0  0  0  0  0  0  0  0
   16.7096   -8.1996   -5.0397 O   0  0  0  0  0  0  0  0  0  0  0  0
   15.2876   -5.7365   -4.0141 H   0  0  0  0  0  0  0  0  0  0  0  0
   18.8820   -6.5112   -5.1455 C   0  0  0  0  0  0  0  0  0  0  0  0
   18.7709   -5.5822   -6.3369 C   0  0  0  0  0  0  0  0  0  0  0  0
   18.8561   -6.3145   -7.6414 C   0  0  0  0  0  0  0  0  0  0  0  0
   20.0435   -7.1510   -7.6968 N   0  0  0  0  0  0  0  0  0  0  0  0
   20.4577   -7.4604   -6.8590 H   0  0  0  0  0  0  0  0  0  0  0  0
   20.6229   -7.5339   -8.9559 C   0  0  0  0  0  0  0  0  0  0  0  0
   20.4057   -6.8510  -10.0661 N   0  0  0  0  0  0  0  0  0  0  0  0
   21.3480   -8.6581   -8.9679 N   0  0  0  0  0  0  0  0  0  0  0  0
   19.8697   -6.0256  -10.0395 H   0  0  0  0  0  0  0  0  0  0  0  0
   21.5001   -9.1546   -8.1316 H   0  0  0  0  0  0  0  0  0  0  0  0
   21.7295   -8.9888   -9.8131 H   0  0  0  0  0  0  0  0  0  0  0  0
  5  4  1  0  0  0
  5  6  1  0  0  0
  7  6  2  0  0  0
  4  3  1  0  0  0
  6  2  1  0  0  0
  9  8  2  0  0  0
  8 10  1  0  0  0
  8  3  1  0  0  0
  3  2  1  0  0  0
  2  1  1  0  0  0
  1 12  1  0  0  0
  1 16  1  0  0  0
 14 12  2  0  0  0
 12 13  1  0  0  0
 16 17  1  0  0  0
 17 18  1  0  0  0
 18 19  1  0  0  0
 19 21  1  0  0  0
 21 22  2  0  0  0
 21 23  1  0  0  0
 13 15  1  0  0  0
 19 20  1  0  0  0
 22 24  1  0  0  0
 23 25  1  0  0  0
 23 26  1  0  0  0
 10 11  1  0  0  0
M  END
> <minimizedAffinity>
-9.38530

$$$$
4PP0_OP1_A_301


 26 26  0  0  0  0  0  0  0  0999 V2000
   19.1318   -6.6391   -3.6785 C   0  0  0  0  0  0  0  0  0  0  0  0
   18.0518   -6.5750   -2.6826 N   0  0  0  0  0  0  0  0  0  0  0  0
   16.7277   -5.9951   -2.5775 C   0  0  0  0  0  0  0  0  0  0  0  0
   16.3845   -5.9647   -1.1351 C   0  0  0  0  0  0  0  0  0  0  0  0
   17.2341   -6.9511   -0.4234 C   0  0  0  0  0  0  0  0  0  0  0  0
   18.2725   -7.2101   -1.4351 C   0  0  0  0  0  0  0  0  0  0  0  0
   19.4827   -7.6899   -1.1148 O   0  0  0  0  0  0  0  0  0  0  0  0
   15.7089   -6.8022   -3.3205 C   0  0  0  0  0  0  0  0  0  0  0  0
   15.0281   -7.7340   -2.7716 O   0  0  0  0  0  0  0  0  0  0  0  0
   15.4651   -6.5193   -4.5405 O   0  0  0  0  0  0  0  0  0  0  0  0
   15.9483   -5.8408   -4.9696 H   0  0  0  0  0  0  0  0  0  0  0  0
   20.4299   -6.1073   -3.1076 C   0  0  0  0  0  0  0  0  0  0  0  0
   21.3918   -6.8604   -2.8341 O   0  0  0  0  0  0  0  0  0  0  0  0
   20.5125   -4.8704   -2.9195 O   0  0  0  0  0  0  0  0  0  0  0  0
   21.3199   -7.7834   -2.9784 H   0  0  0  0  0  0  0  0  0  0  0  0
   18.8037   -5.8920   -4.9634 C   0  0  0  0  0  0  0  0  0  0  0  0
   18.5686   -6.8002   -6.1528 C   0  0  0  0  0  0  0  0  0  0  0  0
   19.5026   -6.5077   -7.2875 C   0  0  0  0  0  0  0  0  0  0  0  0
   20.2299   -7.7004   -7.6891 N   0  0  0  0  0  0  0  0  0  0  0  0
   20.3402   -8.4394   -7.0480 H   0  0  0  0  0  0  0  0  0  0  0  0
   20.7909   -7.8181   -9.0078 C   0  0  0  0  0  0  0  0  0  0  0  0
   20.5441   -6.9339   -9.9581 N   0  0  0  0  0  0  0  0  0  0  0  0
   21.5307   -8.9057   -9.2524 N   0  0  0  0  0  0  0  0  0  0  0  0
   19.9978   -6.1390   -9.7609 H   0  0  0  0  0  0  0  0  0  0  0  0
   21.7049   -9.5546   -8.5328 H   0  0  0  0  0  0  0  0  0  0  0  0
   21.9009   -9.0571  -10.1520 H   0  0  0  0  0  0  0  0  0  0  0  0
  5  4  1  0  0  0
  5  6  1  0  0  0
  7  6  2  0  0  0
  4  3  1  0  0  0
  6  2  1  0  0  0
  9  8  2  0  0  0
  8 10  1  0  0  0
  8  3  1  0  0  0
  3  2  1  0  0  0
  2  1  1  0  0  0
  1 12  1  0  0  0
  1 16  1  0  0  0
 14 12  2  0  0  0
 12 13  1  0  0  0
 16 17  1  0  0  0
 17 18  1  0  0  0
 18 19  1  0  0  0
 19 21  1  0  0  0
 21 22  2  0  0  0
 21 23  1  0  0  0
 13 15  1  0  0  0
 19 20  1  0  0  0
 22 24  1  0  0  0
 23 25  1  0  0  0
 23 26  1  0  0  0
 10 11  1  0  0  0
M  END
> <minimizedAffinity>
-8.95615

$$$$
4PP0_OP1_A_301


 26 26  0  0  0  0  0  0  0  0999 V2000
   18.4853   -6.4176   -2.0014 C   0  0  0  0  0  0  0  0  0  0  0  0
   18.2978   -6.4644   -3.4592 N   0  0  0  0  0  0  0  0  0  0  0  0
   17.3201   -6.9829   -4.3950 C   0  0  0  0  0  0  0  0  0  0  0  0
   17.9842   -7.0477   -5.7194 C   0  0  0  0  0  0  0  0  0  0  0  0
   19.1496   -6.1294   -5.7123 C   0  0  0  0  0  0  0  0  0  0  0  0
   19.3068   -5.8854   -4.2685 C   0  0  0  0  0  0  0  0  0  0  0  0
   20.4653   -5.4765   -3.7318 O   0  0  0  0  0  0  0  0  0  0  0  0
   16.1128   -6.1015   -4.4799 C   0  0  0  0  0  0  0  0  0  0  0  0
   14.9309   -6.5586   -4.6445 O   0  0  0  0  0  0  0  0  0  0  0  0
   16.2541   -4.8424   -4.3291 O   0  0  0  0  0  0  0  0  0  0  0  0
   17.1086   -4.4782   -4.2064 H   0  0  0  0  0  0  0  0  0  0  0  0
   18.8463   -7.7834   -1.4556 C   0  0  0  0  0  0  0  0  0  0  0  0
   19.0150   -8.7730   -2.2037 O   0  0  0  0  0  0  0  0  0  0  0  0
   18.9767   -7.8912   -0.2133 O   0  0  0  0  0  0  0  0  0  0  0  0
   18.9151   -8.6818   -3.1309 H   0  0  0  0  0  0  0  0  0  0  0  0
   17.2674   -5.8851   -1.2600 C   0  0  0  0  0  0  0  0  0  0  0  0
   16.1624   -6.9074   -1.0907 C   0  0  0  0  0  0  0  0  0  0  0  0
   15.6720   -6.9888    0.3228 C   0  0  0  0  0  0  0  0  0  0  0  0
   16.2253   -8.1474    1.0042 N   0  0  0  0  0  0  0  0  0  0  0  0
   16.2693   -9.0109    0.5335 H   0  0  0  0  0  0  0  0  0  0  0  0
   16.7095   -8.0523    2.3548 C   0  0  0  0  0  0  0  0  0  0  0  0
   15.9066   -7.7978    3.3730 N   0  0  0  0  0  0  0  0  0  0  0  0
   18.0303   -8.1717    2.5306 N   0  0  0  0  0  0  0  0  0  0  0  0
   14.9369   -7.7130    3.2259 H   0  0  0  0  0  0  0  0  0  0  0  0
   18.6142   -8.3615    1.7610 H   0  0  0  0  0  0  0  0  0  0  0  0
   18.4184   -8.0698    3.4297 H   0  0  0  0  0  0  0  0  0  0  0  0
  5  4  1  0  0  0
  5  6  1  0  0  0
  7  6  2  0  0  0
  4  3  1  0  0  0
  6  2  1  0  0  0
  9  8  2  0  0  0
  8 10  1  0  0  0
  8  3  1  0  0  0
  3  2  1  0  0  0
  2  1  1  0  0  0
  1 12  1  0  0  0
  1 16  1  0  0  0
 14 12  2  0  0  0
 12 13  1  0  0  0
 16 17  1  0  0  0
 17 18  1  0  0  0
 18 19  1  0  0  0
 19 21  1  0  0  0
 21 22  2  0  0  0
 21 23  1  0  0  0
 13 15  1  0  0  0
 19 20  1  0  0  0
 22 24  1  0  0  0
 23 25  1  0  0  0
 23 26  1  0  0  0
 10 11  1  0  0  0
M  END
> <minimizedAffinity>
-8.46363

$$$$
4PP0_OP1_A_301


 26 26  0  0  0  0  0  0  0  0999 V2000
   17.5150   -6.1190   -3.5442 C   0  0  0  0  0  0  0  0  0  0  0  0
   17.7642   -6.4665   -2.1373 N   0  0  0  0  0  0  0  0  0  0  0  0
   17.1923   -6.1564   -0.8422 C   0  0  0  0  0  0  0  0  0  0  0  0
   18.2105   -6.5149    0.1748 C   0  0  0  0  0  0  0  0  0  0  0  0
   19.1627   -7.4813   -0.4259 C   0  0  0  0  0  0  0  0  0  0  0  0
   18.8574   -7.3241   -1.8580 C   0  0  0  0  0  0  0  0  0  0  0  0
   19.7321   -7.6546   -2.8187 O   0  0  0  0  0  0  0  0  0  0  0  0
   15.9360   -6.9311   -0.5915 C   0  0  0  0  0  0  0  0  0  0  0  0
   14.9608   -6.9564   -1.4169 O   0  0  0  0  0  0  0  0  0  0  0  0
   15.8477   -7.6421    0.4642 O   0  0  0  0  0  0  0  0  0  0  0  0
   16.5471   -7.6438    1.0878 H   0  0  0  0  0  0  0  0  0  0  0  0
   16.4563   -7.0187   -4.1471 C   0  0  0  0  0  0  0  0  0  0  0  0
   15.2522   -6.6807   -4.2029 O   0  0  0  0  0  0  0  0  0  0  0  0
   16.8311   -8.1267   -4.5988 O   0  0  0  0  0  0  0  0  0  0  0  0
   14.9824   -5.8504   -3.8625 H   0  0  0  0  0  0  0  0  0  0  0  0
   18.7701   -6.1730   -4.4035 C   0  0  0  0  0  0  0  0  0  0  0  0
   18.6523   -5.4031   -5.7028 C   0  0  0  0  0  0  0  0  0  0  0  0
   18.5728   -6.3061   -6.8959 C   0  0  0  0  0  0  0  0  0  0  0  0
   19.6646   -6.0505   -7.8209 N   0  0  0  0  0  0  0  0  0  0  0  0
   19.9941   -5.1304   -7.9389 H   0  0  0  0  0  0  0  0  0  0  0  0
   20.2709   -7.1203   -8.5662 C   0  0  0  0  0  0  0  0  0  0  0  0
   20.4566   -7.0495   -9.8726 N   0  0  0  0  0  0  0  0  0  0  0  0
   20.5853   -8.2270   -7.8835 N   0  0  0  0  0  0  0  0  0  0  0  0
   20.2197   -6.2274  -10.3596 H   0  0  0  0  0  0  0  0  0  0  0  0
   20.4405   -8.2628   -6.9104 H   0  0  0  0  0  0  0  0  0  0  0  0
   20.9615   -9.0055   -8.3542 H   0  0  0  0  0  0  0  0  0  0  0  0
  5  4  1  0  0  0
  5  6  1  0  0  0
  7  6  2  0  0  0
  4  3  1  0  0  0
  6  2  1  0  0  0
  9  8  2  0  0  0
  8 10  1  0  0  0
  8  3  1  0  0  0
  3  2  1  0  0  0
  2  1  1  0  0  0
  1 12  1  0  0  0
  1 16  1  0  0  0
 14 12  2  0  0  0
 12 13  1  0  0  0
 16 17  1  0  0  0
 17 18  1  0  0  0
 18 19  1  0  0  0
 19 21  1  0  0  0
 21 22  2  0  0  0
 21 23  1  0  0  0
 13 15  1  0  0  0
 19 20  1  0  0  0
 22 24  1  0  0  0
 23 25  1  0  0  0
 23 26  1  0  0  0
 10 11  1  0  0  0
M  END
> <minimizedAffinity>
-8.17584

$$$$
4PP0_OP1_A_301


 26 26  0  0  0  0  0  0  0  0999 V2000
   17.2135   -6.7959   -1.9446 C   0  0  0  0  0  0  0  0  0  0  0  0
   18.6491   -6.9668   -2.2138 N   0  0  0  0  0  0  0  0  0  0  0  0
   19.5372   -6.9028   -3.3574 C   0  0  0  0  0  0  0  0  0  0  0  0
   20.7865   -7.6026   -2.9717 C   0  0  0  0  0  0  0  0  0  0  0  0
   20.8697   -7.6454   -1.4909 C   0  0  0  0  0  0  0  0  0  0  0  0
   19.4844   -7.3090   -1.1213 C   0  0  0  0  0  0  0  0  0  0  0  0
   18.9581   -7.6396    0.0666 O   0  0  0  0  0  0  0  0  0  0  0  0
   19.8492   -5.4888   -3.7380 C   0  0  0  0  0  0  0  0  0  0  0  0
   20.6626   -4.7566   -3.0782 O   0  0  0  0  0  0  0  0  0  0  0  0
   19.3261   -5.0028   -4.7954 O   0  0  0  0  0  0  0  0  0  0  0  0
   18.7261   -5.5161   -5.2998 H   0  0  0  0  0  0  0  0  0  0  0  0
   16.4446   -6.5565   -3.2272 C   0  0  0  0  0  0  0  0  0  0  0  0
   16.3831   -5.4264   -3.7623 O   0  0  0  0  0  0  0  0  0  0  0  0
   15.8675   -7.5417   -3.7453 O   0  0  0  0  0  0  0  0  0  0  0  0
   16.8180   -4.6966   -3.3670 H   0  0  0  0  0  0  0  0  0  0  0  0
   16.9203   -5.6691   -0.9643 C   0  0  0  0  0  0  0  0  0  0  0  0
   16.2484   -6.1319    0.3121 C   0  0  0  0  0  0  0  0  0  0  0  0
   15.6711   -7.5089    0.1862 C   0  0  0  0  0  0  0  0  0  0  0  0
   16.3477   -8.4442    1.0694 N   0  0  0  0  0  0  0  0  0  0  0  0
   16.5660   -9.3471    0.7432 H   0  0  0  0  0  0  0  0  0  0  0  0
   16.7034   -8.0719    2.4119 C   0  0  0  0  0  0  0  0  0  0  0  0
   17.9253   -8.2374    2.8868 N   0  0  0  0  0  0  0  0  0  0  0  0
   15.7191   -7.6037    3.1877 N   0  0  0  0  0  0  0  0  0  0  0  0
   18.6380   -8.5830    2.3022 H   0  0  0  0  0  0  0  0  0  0  0  0
   14.8143   -7.4864    2.8177 H   0  0  0  0  0  0  0  0  0  0  0  0
   15.8995   -7.3765    4.1284 H   0  0  0  0  0  0  0  0  0  0  0  0
  5  4  1  0  0  0
  5  6  1  0  0  0
  7  6  2  0  0  0
  4  3  1  0  0  0
  6  2  1  0  0  0
  9  8  2  0  0  0
  8 10  1  0  0  0
  8  3  1  0  0  0
  3  2  1  0  0  0
  2  1  1  0  0  0
  1 12  1  0  0  0
  1 16  1  0  0  0
 14 12  2  0  0  0
 12 13  1  0  0  0
 16 17  1  0  0  0
 17 18  1  0  0  0
 18 19  1  0  0  0
 19 21  1  0  0  0
 21 22  2  0  0  0
 21 23  1  0  0  0
 13 15  1  0  0  0
 19 20  1  0  0  0
 22 24  1  0  0  0
 23 25  1  0  0  0
 23 26  1  0  0  0
 10 11  1  0  0  0
M  END
> <minimizedAffinity>
-7.89258

$$$$
4PP0_OP1_A_301


 26 26  0  0  0  0  0  0  0  0999 V2000
   18.8741   -6.6425   -3.3190 C   0  0  0  0  0  0  0  0  0  0  0  0
   18.0861   -6.5922   -2.0785 N   0  0  0  0  0  0  0  0  0  0  0  0
   16.8079   -6.0643   -1.6447 C   0  0  0  0  0  0  0  0  0  0  0  0
   16.8478   -6.0034   -0.1635 C   0  0  0  0  0  0  0  0  0  0  0  0
   17.8985   -6.9314    0.3224 C   0  0  0  0  0  0  0  0  0  0  0  0
   18.6516   -7.1787   -0.9189 C   0  0  0  0  0  0  0  0  0  0  0  0
   19.9249   -7.5979   -0.9142 O   0  0  0  0  0  0  0  0  0  0  0  0
   15.6716   -6.9354   -2.0822 C   0  0  0  0  0  0  0  0  0  0  0  0
   15.5455   -7.3606   -3.2807 O   0  0  0  0  0  0  0  0  0  0  0  0
   14.8165   -7.3184   -1.2162 O   0  0  0  0  0  0  0  0  0  0  0  0
   14.8832   -7.0232   -0.3295 H   0  0  0  0  0  0  0  0  0  0  0  0
   20.2183   -5.9691   -3.1368 C   0  0  0  0  0  0  0  0  0  0  0  0
   20.3227   -4.7342   -2.9593 O   0  0  0  0  0  0  0  0  0  0  0  0
   21.2371   -6.6994   -3.1654 O   0  0  0  0  0  0  0  0  0  0  0  0
   19.5551   -4.1972   -2.9395 H   0  0  0  0  0  0  0  0  0  0  0  0
   18.1561   -6.0194   -4.5076 C   0  0  0  0  0  0  0  0  0  0  0  0
   18.0536   -6.9386   -5.7074 C   0  0  0  0  0  0  0  0  0  0  0  0
   18.2085   -6.2038   -7.0040 C   0  0  0  0  0  0  0  0  0  0  0  0
   19.6059   -6.1181   -7.3948 N   0  0  0  0  0  0  0  0  0  0  0  0
   20.1430   -5.3450   -7.1065 H   0  0  0  0  0  0  0  0  0  0  0  0
   20.2163   -7.1444   -8.1959 C   0  0  0  0  0  0  0  0  0  0  0  0
   20.6353   -8.2850   -7.6769 N   0  0  0  0  0  0  0  0  0  0  0  0
   20.4005   -6.8669   -9.4916 N   0  0  0  0  0  0  0  0  0  0  0  0
   20.4916   -8.4732   -6.7213 H   0  0  0  0  0  0  0  0  0  0  0  0
   20.0820   -6.0122   -9.8621 H   0  0  0  0  0  0  0  0  0  0  0  0
   20.8546   -7.5174  -10.0746 H   0  0  0  0  0  0  0  0  0  0  0  0
  5  4  1  0  0  0
  5  6  1  0  0  0
  7  6  2  0  0  0
  4  3  1  0  0  0
  6  2  1  0  0  0
  9  8  2  0  0  0
  8 10  1  0  0  0
  8  3  1  0  0  0
  3  2  1  0  0  0
  2  1  1  0  0  0
  1 12  1  0  0  0
  1 16  1  0  0  0
 14 12  2  0  0  0
 12 13  1  0  0  0
 16 17  1  0  0  0
 17 18  1  0  0  0
 18 19  1  0  0  0
 19 21  1  0  0  0
 21 22  2  0  0  0
 21 23  1  0  0  0
 13 15  1  0  0  0
 19 20  1  0  0  0
 22 24  1  0  0  0
 23 25  1  0  0  0
 23 26  1  0  0  0
 10 11  1  0  0  0
M  END
> <minimizedAffinity>
-7.78618

$$$$
4PP0_OP1_A_301


 26 26  0  0  0  0  0  0  0  0999 V2000
   17.8406   -6.4187   -4.3911 C   0  0  0  0  0  0  0  0  0  0  0  0
   18.2353   -6.7278   -3.0087 N   0  0  0  0  0  0  0  0  0  0  0  0
   19.2168   -7.5562   -2.3372 C   0  0  0  0  0  0  0  0  0  0  0  0
   18.7642   -7.7069   -0.9330 C   0  0  0  0  0  0  0  0  0  0  0  0
   17.8257   -6.6027   -0.6148 C   0  0  0  0  0  0  0  0  0  0  0  0
   17.5031   -6.1098   -1.9646 C   0  0  0  0  0  0  0  0  0  0  0  0
   16.3854   -5.4178   -2.2277 O   0  0  0  0  0  0  0  0  0  0  0  0
   20.5781   -6.9335   -2.3632 C   0  0  0  0  0  0  0  0  0  0  0  0
   20.8513   -5.8926   -3.0523 O   0  0  0  0  0  0  0  0  0  0  0  0
   21.4974   -7.4248   -1.6274 O   0  0  0  0  0  0  0  0  0  0  0  0
   21.3266   -8.1876   -1.1108 H   0  0  0  0  0  0  0  0  0  0  0  0
   16.5362   -7.0998   -4.7492 C   0  0  0  0  0  0  0  0  0  0  0  0
   15.4338   -6.5148   -4.6503 O   0  0  0  0  0  0  0  0  0  0  0  0
   16.5976   -8.2835   -5.1579 O   0  0  0  0  0  0  0  0  0  0  0  0
   15.3987   -5.6300   -4.3438 H   0  0  0  0  0  0  0  0  0  0  0  0
   18.9029   -6.7965   -5.4136 C   0  0  0  0  0  0  0  0  0  0  0  0
   19.0457   -5.7956   -6.5417 C   0  0  0  0  0  0  0  0  0  0  0  0
   18.8187   -4.3863   -6.0861 C   0  0  0  0  0  0  0  0  0  0  0  0
   19.2394   -3.4331   -7.0997 N   0  0  0  0  0  0  0  0  0  0  0  0
   19.5125   -3.7591   -7.9876 H   0  0  0  0  0  0  0  0  0  0  0  0
   19.2629   -2.0216   -6.8262 C   0  0  0  0  0  0  0  0  0  0  0  0
   18.2697   -1.2220   -7.1726 N   0  0  0  0  0  0  0  0  0  0  0  0
   20.3721   -1.5373   -6.2562 N   0  0  0  0  0  0  0  0  0  0  0  0
   17.4604   -1.5951   -7.5911 H   0  0  0  0  0  0  0  0  0  0  0  0
   21.1027   -2.1472   -6.0042 H   0  0  0  0  0  0  0  0  0  0  0  0
   20.4577   -0.5709   -6.0886 H   0  0  0  0  0  0  0  0  0  0  0  0
  5  4  1  0  0  0
  5  6  1  0  0  0
  7  6  2  0  0  0
  4  3  1  0  0  0
  6  2  1  0  0  0
  9  8  2  0  0  0
  8 10  1  0  0  0
  8  3  1  0  0  0
  3  2  1  0  0  0
  2  1  1  0  0  0
  1 12  1  0  0  0
  1 16  1  0  0  0
 14 12  2  0  0  0
 12 13  1  0  0  0
 16 17  1  0  0  0
 17 18  1  0  0  0
 18 19  1  0  0  0
 19 21  1  0  0  0
 21 22  2  0  0  0
 21 23  1  0  0  0
 13 15  1  0  0  0
 19 20  1  0  0  0
 22 24  1  0  0  0
 23 25  1  0  0  0
 23 26  1  0  0  0
 10 11  1  0  0  0
M  END
> <minimizedAffinity>
-7.12424

$$$$
4PP0_OP1_A_301


 26 26  0  0  0  0  0  0  0  0999 V2000
   17.5362   -6.7460   -1.7529 C   0  0  0  0  0  0  0  0  0  0  0  0
   17.5274   -6.4843   -3.1999 N   0  0  0  0  0  0  0  0  0  0  0  0
   18.3435   -5.7713   -4.1622 C   0  0  0  0  0  0  0  0  0  0  0  0
   17.5083   -5.5726   -5.3714 C   0  0  0  0  0  0  0  0  0  0  0  0
   16.4061   -6.5657   -5.3564 C   0  0  0  0  0  0  0  0  0  0  0  0
   16.4539   -7.0180   -3.9556 C   0  0  0  0  0  0  0  0  0  0  0  0
   15.4003   -7.5808   -3.3470 O   0  0  0  0  0  0  0  0  0  0  0  0
   19.5756   -6.5418   -4.5225 C   0  0  0  0  0  0  0  0  0  0  0  0
   20.4725   -6.8545   -3.6676 O   0  0  0  0  0  0  0  0  0  0  0  0
   19.7190   -6.9542   -5.7214 O   0  0  0  0  0  0  0  0  0  0  0  0
   19.0775   -6.7408   -6.3701 H   0  0  0  0  0  0  0  0  0  0  0  0
   16.3300   -6.1240   -1.0806 C   0  0  0  0  0  0  0  0  0  0  0  0
   15.4115   -6.8197   -0.5912 O   0  0  0  0  0  0  0  0  0  0  0  0
   16.2830   -4.8723   -1.0255 O   0  0  0  0  0  0  0  0  0  0  0  0
   15.4562   -7.7544   -0.6376 H   0  0  0  0  0  0  0  0  0  0  0  0
   18.8032   -6.2570   -1.0658 C   0  0  0  0  0  0  0  0  0  0  0  0
   19.1760   -7.0571    0.1653 C   0  0  0  0  0  0  0  0  0  0  0  0
   18.3164   -8.2722    0.3380 C   0  0  0  0  0  0  0  0  0  0  0  0
   18.0001   -8.4963    1.7389 N   0  0  0  0  0  0  0  0  0  0  0  0
   18.5727   -9.0907    2.2756 H   0  0  0  0  0  0  0  0  0  0  0  0
   16.8644   -7.8637    2.3532 C   0  0  0  0  0  0  0  0  0  0  0  0
   16.9652   -6.7195    3.0063 N   0  0  0  0  0  0  0  0  0  0  0  0
   15.7010   -8.5210    2.2882 N   0  0  0  0  0  0  0  0  0  0  0  0
   17.8291   -6.2488    3.0443 H   0  0  0  0  0  0  0  0  0  0  0  0
   15.6434   -9.3724    1.7973 H   0  0  0  0  0  0  0  0  0  0  0  0
   14.9024   -8.1533    2.7313 H   0  0  0  0  0  0  0  0  0  0  0  0
  5  4  1  0  0  0
  5  6  1  0  0  0
  7  6  2  0  0  0
  4  3  1  0  0  0
  6  2  1  0  0  0
  9  8  2  0  0  0
  8 10  1  0  0  0
  8  3  1  0  0  0
  3  2  1  0  0  0
  2  1  1  0  0  0
  1 12  1  0  0  0
  1 16  1  0  0  0
 14 12  2  0  0  0
 12 13  1  0  0  0
 16 17  1  0  0  0
 17 18  1  0  0  0
 18 19  1  0  0  0
 19 21  1  0  0  0
 21 22  2  0  0  0
 21 23  1  0  0  0
 13 15  1  0  0  0
 19 20  1  0  0  0
 22 24  1  0  0  0
 23 25  1  0  0  0
 23 26  1  0  0  0
 10 11  1  0  0  0
M  END
> <minimizedAffinity>
-7.00294

$$$$
4PP0_OP1_A_301


 26 26  0  0  0  0  0  0  0  0999 V2000
   18.6757   -6.9557   -3.6435 C   0  0  0  0  0  0  0  0  0  0  0  0
   17.8033   -6.8211   -2.4674 N   0  0  0  0  0  0  0  0  0  0  0  0
   17.6780   -7.4230   -1.1549 C   0  0  0  0  0  0  0  0  0  0  0  0
   16.3153   -7.1047   -0.6639 C   0  0  0  0  0  0  0  0  0  0  0  0
   15.8043   -5.9278   -1.4089 C   0  0  0  0  0  0  0  0  0  0  0  0
   16.7460   -5.8802   -2.5403 C   0  0  0  0  0  0  0  0  0  0  0  0
   16.4472   -5.2733   -3.6977 O   0  0  0  0  0  0  0  0  0  0  0  0
   18.6962   -6.8839   -0.1988 C   0  0  0  0  0  0  0  0  0  0  0  0
   19.9541   -7.0292   -0.3709 O   0  0  0  0  0  0  0  0  0  0  0  0
   18.3022   -6.2031    0.8058 O   0  0  0  0  0  0  0  0  0  0  0  0
   17.3859   -6.0795    0.9578 H   0  0  0  0  0  0  0  0  0  0  0  0
   20.1007   -6.5653   -3.3108 C   0  0  0  0  0  0  0  0  0  0  0  0
   20.9946   -7.4203   -3.1178 O   0  0  0  0  0  0  0  0  0  0  0  0
   20.3606   -5.3409   -3.2384 O   0  0  0  0  0  0  0  0  0  0  0  0
   20.7900   -8.3330   -3.1742 H   0  0  0  0  0  0  0  0  0  0  0  0
   18.1969   -6.1426   -4.8377 C   0  0  0  0  0  0  0  0  0  0  0  0
   18.1831   -6.9202   -6.1377 C   0  0  0  0  0  0  0  0  0  0  0  0
   19.2697   -6.4861   -7.0738 C   0  0  0  0  0  0  0  0  0  0  0  0
   20.0821   -7.6157   -7.4944 N   0  0  0  0  0  0  0  0  0  0  0  0
   20.2353   -8.3613   -6.8700 H   0  0  0  0  0  0  0  0  0  0  0  0
   20.6654   -7.6615   -8.8079 C   0  0  0  0  0  0  0  0  0  0  0  0
   20.4862   -6.6947   -9.6905 N   0  0  0  0  0  0  0  0  0  0  0  0
   21.3528   -8.7651   -9.1232 N   0  0  0  0  0  0  0  0  0  0  0  0
   19.9777   -5.8892   -9.4419 H   0  0  0  0  0  0  0  0  0  0  0  0
   21.4769   -9.4759   -8.4534 H   0  0  0  0  0  0  0  0  0  0  0  0
   21.7345   -8.8664  -10.0250 H   0  0  0  0  0  0  0  0  0  0  0  0
  5  4  1  0  0  0
  5  6  1  0  0  0
  7  6  2  0  0  0
  4  3  1  0  0  0
  6  2  1  0  0  0
  9  8  2  0  0  0
  8 10  1  0  0  0
  8  3  1  0  0  0
  3  2  1  0  0  0
  2  1  1  0  0  0
  1 12  1  0  0  0
  1 16  1  0  0  0
 14 12  2  0  0  0
 12 13  1  0  0  0
 16 17  1  0  0  0
 17 18  1  0  0  0
 18 19  1  0  0  0
 19 21  1  0  0  0
 21 22  2  0  0  0
 21 23  1  0  0  0
 13 15  1  0  0  0
 19 20  1  0  0  0
 22 24  1  0  0  0
 23 25  1  0  0  0
 23 26  1  0  0  0
 10 11  1  0  0  0
M  END
> <minimizedAffinity>
-6.91033

$$$$
4PP0_OP1_A_301


 26 26  0  0  0  0  0  0  0  0999 V2000
   16.7424   -6.5326   -2.9531 C   0  0  0  0  0  0  0  0  0  0  0  0
   18.1948   -6.5010   -3.1806 N   0  0  0  0  0  0  0  0  0  0  0  0
   19.3879   -6.1712   -2.4268 C   0  0  0  0  0  0  0  0  0  0  0  0
   20.4743   -5.9560   -3.4131 C   0  0  0  0  0  0  0  0  0  0  0  0
   20.1027   -6.6263   -4.6835 C   0  0  0  0  0  0  0  0  0  0  0  0
   18.6639   -6.8569   -4.4696 C   0  0  0  0  0  0  0  0  0  0  0  0
   17.8074   -7.0375   -5.4850 O   0  0  0  0  0  0  0  0  0  0  0  0
   19.7717   -7.2720   -1.4874 C   0  0  0  0  0  0  0  0  0  0  0  0
   18.9153   -8.0484   -0.9425 O   0  0  0  0  0  0  0  0  0  0  0  0
   21.0082   -7.4856   -1.2565 O   0  0  0  0  0  0  0  0  0  0  0  0
   21.6591   -6.9328   -1.6422 H   0  0  0  0  0  0  0  0  0  0  0  0
   15.9961   -5.9186   -4.1192 C   0  0  0  0  0  0  0  0  0  0  0  0
   16.2830   -4.7855   -4.5674 O   0  0  0  0  0  0  0  0  0  0  0  0
   15.0716   -6.5935   -4.6309 O   0  0  0  0  0  0  0  0  0  0  0  0
   16.9757   -4.2892   -4.1778 H   0  0  0  0  0  0  0  0  0  0  0  0
   16.3248   -5.8363   -1.6656 C   0  0  0  0  0  0  0  0  0  0  0  0
   15.9418   -6.7909   -0.5535 C   0  0  0  0  0  0  0  0  0  0  0  0
   16.3090   -6.2658    0.8009 C   0  0  0  0  0  0  0  0  0  0  0  0
   17.4328   -6.9984    1.3606 N   0  0  0  0  0  0  0  0  0  0  0  0
   18.3468   -6.7836    1.0646 H   0  0  0  0  0  0  0  0  0  0  0  0
   17.2308   -8.0318    2.3398 C   0  0  0  0  0  0  0  0  0  0  0  0
   16.0275   -8.4820    2.6485 N   0  0  0  0  0  0  0  0  0  0  0  0
   18.3191   -8.4787    2.9767 N   0  0  0  0  0  0  0  0  0  0  0  0
   15.2371   -8.1423    2.1698 H   0  0  0  0  0  0  0  0  0  0  0  0
   19.2083   -8.1326    2.7342 H   0  0  0  0  0  0  0  0  0  0  0  0
   18.2308   -9.1538    3.6878 H   0  0  0  0  0  0  0  0  0  0  0  0
  5  4  1  0  0  0
  5  6  1  0  0  0
  7  6  2  0  0  0
  4  3  1  0  0  0
  6  2  1  0  0  0
  9  8  2  0  0  0
  8 10  1  0  0  0
  8  3  1  0  0  0
  3  2  1  0  0  0
  2  1  1  0  0  0
  1 12  1  0  0  0
  1 16  1  0  0  0
 14 12  2  0  0  0
 12 13  1  0  0  0
 16 17  1  0  0  0
 17 18  1  0  0  0
 18 19  1  0  0  0
 19 21  1  0  0  0
 21 22  2  0  0  0
 21 23  1  0  0  0
 13 15  1  0  0  0
 19 20  1  0  0  0
 22 24  1  0  0  0
 23 25  1  0  0  0
 23 26  1  0  0  0
 10 11  1  0  0  0
M  END
> <minimizedAffinity>
-6.85692

$$$$
