2BMK_PDD_B_1217


 26 26  0  0  0  0  0  0  0  0999 V2000
   75.0733   37.8436   62.3195 N   0  0  0  0  0  0  0  0  0  0  0  0
   74.9925   37.1419   63.4910 C   0  0  0  0  0  0  0  0  0  0  0  0
   74.3420   37.7979   64.6722 C   0  0  0  0  0  0  0  0  0  0  0  0
   75.5453   35.8112   63.5090 C   0  0  0  0  0  0  0  0  0  0  0  0
   75.5034   35.0595   64.6208 O   0  0  0  0  0  0  0  0  0  0  0  0
   76.1621   35.2780   62.3082 C   0  0  0  0  0  0  0  0  0  0  0  0
   76.2061   36.1014   61.1164 C   0  0  0  0  0  0  0  0  0  0  0  0
   75.6465   37.3757   61.1681 C   0  0  0  0  0  0  0  0  0  0  0  0
   75.1068   35.3969   65.3998 H   0  0  0  0  0  0  0  0  0  0  0  0
   76.7434   33.8650   62.3763 C   0  0  0  0  0  0  0  0  0  0  0  0
   75.7372   32.7739   62.1669 N   0  0  0  0  0  0  0  0  0  0  0  0
   76.0795   32.1468   61.4388 H   0  0  0  0  0  0  0  0  0  0  0  0
   75.4927   31.9698   63.4279 C   0  0  0  0  0  0  0  0  0  0  0  0
   76.7912   31.7361   64.2081 C   0  0  0  0  0  0  0  0  0  0  0  0
   74.8154   30.6296   63.0426 C   0  0  0  0  0  0  0  0  0  0  0  0
   75.6318   29.8669   62.2650 O   0  0  0  0  0  0  0  0  0  0  0  0
   73.5927   30.2886   63.3938 O   0  0  0  0  0  0  0  0  0  0  0  0
   73.0829   30.8614   63.9323 H   0  0  0  0  0  0  0  0  0  0  0  0
   76.8398   35.6408   59.8041 C   0  0  0  0  0  0  0  0  0  0  0  0
   75.7918   35.3522   58.8417 O   0  0  0  0  0  0  0  0  0  0  0  0
   75.8858   33.9758   58.0185 P   0  0  0  0  0  0  0  0  0  0  0  0
   76.8161   34.2350   56.8829 O   0  0  0  0  0  0  0  0  0  0  0  0
   74.4435   33.6648   57.5169 O   0  0  0  0  0  0  0  0  0  0  0  0
   76.2708   32.8860   58.9874 O   0  0  0  0  0  0  0  0  0  0  0  0
   74.1647   34.3499   56.8893 H   0  0  0  0  0  0  0  0  0  0  0  0
   77.1672   33.0506   59.3196 H   0  0  0  0  0  0  0  0  0  0  0  0
 11 10  1  0  0  0
 11 13  1  0  0  0
  1  2  2  0  0  0
  1  8  1  0  0  0
  2  3  1  0  0  0
  2  4  1  0  0  0
  4  5  1  0  0  0
  4  6  2  0  0  0
  6 10  1  0  0  0
  6  7  1  0  0  0
  7 19  1  0  0  0
  7  8  2  0  0  0
 19 20  1  0  0  0
 20 21  1  0  0  0
 21 22  2  0  0  0
 21 23  1  0  0  0
 21 24  1  0  0  0
 13 14  1  0  0  0
 13 15  1  0  0  0
 15 16  2  0  0  0
 15 17  1  0  0  0
 11 12  1  0  0  0
  5  9  1  0  0  0
 23 25  1  0  0  0
 24 26  1  0  0  0
 17 18  1  0  0  0
M  END
> <minimizedAffinity>
-7.17289

$$$$
2BMK_PDD_B_1217


 26 26  0  0  0  0  0  0  0  0999 V2000
   75.0498   38.0589   62.3923 N   0  0  0  0  0  0  0  0  0  0  0  0
   74.9650   37.2422   63.4865 C   0  0  0  0  0  0  0  0  0  0  0  0
   74.2312   37.7424   64.6948 C   0  0  0  0  0  0  0  0  0  0  0  0
   75.5945   35.9487   63.4018 C   0  0  0  0  0  0  0  0  0  0  0  0
   75.5537   35.0904   64.4336 O   0  0  0  0  0  0  0  0  0  0  0  0
   76.2882   35.5706   62.1842 C   0  0  0  0  0  0  0  0  0  0  0  0
   76.3299   36.5082   61.0798 C   0  0  0  0  0  0  0  0  0  0  0  0
   75.6943   37.7385   61.2282 C   0  0  0  0  0  0  0  0  0  0  0  0
   75.1077   35.3274   65.2228 H   0  0  0  0  0  0  0  0  0  0  0  0
   76.9490   34.1920   62.1426 C   0  0  0  0  0  0  0  0  0  0  0  0
   76.0261   33.0777   61.7511 N   0  0  0  0  0  0  0  0  0  0  0  0
   76.1430   32.8890   60.7556 H   0  0  0  0  0  0  0  0  0  0  0  0
   76.3038   31.8046   62.5249 C   0  0  0  0  0  0  0  0  0  0  0  0
   76.5513   30.6177   61.5871 C   0  0  0  0  0  0  0  0  0  0  0  0
   75.1145   31.5315   63.4812 C   0  0  0  0  0  0  0  0  0  0  0  0
   75.0827   32.4309   64.5023 O   0  0  0  0  0  0  0  0  0  0  0  0
   74.2648   30.5348   63.3422 O   0  0  0  0  0  0  0  0  0  0  0  0
   74.3432   29.9505   62.6139 H   0  0  0  0  0  0  0  0  0  0  0  0
   77.0405   36.2142   59.7590 C   0  0  0  0  0  0  0  0  0  0  0  0
   76.6218   37.1846   58.7636 O   0  0  0  0  0  0  0  0  0  0  0  0
   77.7520   38.1090   58.0934 P   0  0  0  0  0  0  0  0  0  0  0  0
   78.5364   37.2169   57.1928 O   0  0  0  0  0  0  0  0  0  0  0  0
   78.6262   38.6518   59.2638 O   0  0  0  0  0  0  0  0  0  0  0  0
   77.0628   39.2913   57.4597 O   0  0  0  0  0  0  0  0  0  0  0  0
   79.0849   37.9133   59.6942 H   0  0  0  0  0  0  0  0  0  0  0  0
   76.5083   38.9864   56.7245 H   0  0  0  0  0  0  0  0  0  0  0  0
 11 10  1  0  0  0
 11 13  1  0  0  0
  1  2  2  0  0  0
  1  8  1  0  0  0
  2  3  1  0  0  0
  2  4  1  0  0  0
  4  5  1  0  0  0
  4  6  2  0  0  0
  6 10  1  0  0  0
  6  7  1  0  0  0
  7 19  1  0  0  0
  7  8  2  0  0  0
 19 20  1  0  0  0
 20 21  1  0  0  0
 21 22  2  0  0  0
 21 23  1  0  0  0
 21 24  1  0  0  0
 13 14  1  0  0  0
 13 15  1  0  0  0
 15 16  2  0  0  0
 15 17  1  0  0  0
 11 12  1  0  0  0
  5  9  1  0  0  0
 23 25  1  0  0  0
 24 26  1  0  0  0
 17 18  1  0  0  0
M  END
> <minimizedAffinity>
-7.14483

$$$$
2BMK_PDD_B_1217


 26 26  0  0  0  0  0  0  0  0999 V2000
   75.1822   37.7386   62.2597 N   0  0  0  0  0  0  0  0  0  0  0  0
   75.0382   37.0544   63.4355 C   0  0  0  0  0  0  0  0  0  0  0  0
   74.4903   37.7861   64.6242 C   0  0  0  0  0  0  0  0  0  0  0  0
   75.4289   35.6674   63.4504 C   0  0  0  0  0  0  0  0  0  0  0  0
   75.3165   34.9288   64.5661 O   0  0  0  0  0  0  0  0  0  0  0  0
   75.9576   35.0615   62.2420 C   0  0  0  0  0  0  0  0  0  0  0  0
   76.0792   35.8709   61.0460 C   0  0  0  0  0  0  0  0  0  0  0  0
   75.6762   37.2029   61.1012 C   0  0  0  0  0  0  0  0  0  0  0  0
   74.9761   35.3130   65.3500 H   0  0  0  0  0  0  0  0  0  0  0  0
   76.3677   33.5895   62.3069 C   0  0  0  0  0  0  0  0  0  0  0  0
   77.2738   33.2522   63.4524 N   0  0  0  0  0  0  0  0  0  0  0  0
   77.1427   33.9446   64.1897 H   0  0  0  0  0  0  0  0  0  0  0  0
   76.9920   31.8757   64.0201 C   0  0  0  0  0  0  0  0  0  0  0  0
   75.6008   31.3738   63.6173 C   0  0  0  0  0  0  0  0  0  0  0  0
   77.1496   31.9289   65.5615 C   0  0  0  0  0  0  0  0  0  0  0  0
   76.5014   33.0031   66.0894 O   0  0  0  0  0  0  0  0  0  0  0  0
   77.8509   31.0646   66.2656 O   0  0  0  0  0  0  0  0  0  0  0  0
   78.2731   30.3454   65.8385 H   0  0  0  0  0  0  0  0  0  0  0  0
   76.6314   35.3348   59.7256 C   0  0  0  0  0  0  0  0  0  0  0  0
   75.5441   35.1933   58.7740 O   0  0  0  0  0  0  0  0  0  0  0  0
   75.5951   33.9535   57.7536 P   0  0  0  0  0  0  0  0  0  0  0  0
   76.3996   34.4116   56.5852 O   0  0  0  0  0  0  0  0  0  0  0  0
   74.1195   33.6556   57.3505 O   0  0  0  0  0  0  0  0  0  0  0  0
   76.1061   32.7544   58.5122 O   0  0  0  0  0  0  0  0  0  0  0  0
   73.7599   34.4105   56.8589 H   0  0  0  0  0  0  0  0  0  0  0  0
   77.0260   32.9083   58.7786 H   0  0  0  0  0  0  0  0  0  0  0  0
 11 10  1  0  0  0
 11 13  1  0  0  0
  1  2  2  0  0  0
  1  8  1  0  0  0
  2  3  1  0  0  0
  2  4  1  0  0  0
  4  5  1  0  0  0
  4  6  2  0  0  0
  6 10  1  0  0  0
  6  7  1  0  0  0
  7 19  1  0  0  0
  7  8  2  0  0  0
 19 20  1  0  0  0
 20 21  1  0  0  0
 21 22  2  0  0  0
 21 23  1  0  0  0
 21 24  1  0  0  0
 13 14  1  0  0  0
 13 15  1  0  0  0
 15 16  2  0  0  0
 15 17  1  0  0  0
 11 12  1  0  0  0
  5  9  1  0  0  0
 23 25  1  0  0  0
 24 26  1  0  0  0
 17 18  1  0  0  0
M  END
> <minimizedAffinity>
-6.73665

$$$$
2BMK_PDD_B_1217


 26 26  0  0  0  0  0  0  0  0999 V2000
   77.3225   32.1010   60.9335 N   0  0  0  0  0  0  0  0  0  0  0  0
   76.5941   31.2869   61.7569 C   0  0  0  0  0  0  0  0  0  0  0  0
   76.4843   29.8328   61.4073 C   0  0  0  0  0  0  0  0  0  0  0  0
   75.9756   31.8892   62.9107 C   0  0  0  0  0  0  0  0  0  0  0  0
   75.2458   31.1558   63.7666 O   0  0  0  0  0  0  0  0  0  0  0  0
   76.1395   33.3118   63.1477 C   0  0  0  0  0  0  0  0  0  0  0  0
   76.9248   34.0933   62.2135 C   0  0  0  0  0  0  0  0  0  0  0  0
   77.4996   33.4448   61.1232 C   0  0  0  0  0  0  0  0  0  0  0  0
   75.1355   30.2369   63.6201 H   0  0  0  0  0  0  0  0  0  0  0  0
   75.4579   33.9092   64.3796 C   0  0  0  0  0  0  0  0  0  0  0  0
   75.7290   33.1683   65.6541 N   0  0  0  0  0  0  0  0  0  0  0  0
   75.6154   32.1691   65.4835 H   0  0  0  0  0  0  0  0  0  0  0  0
   77.1298   33.4180   66.1756 C   0  0  0  0  0  0  0  0  0  0  0  0
   78.0418   32.2082   65.9431 C   0  0  0  0  0  0  0  0  0  0  0  0
   77.0455   33.7819   67.6802 C   0  0  0  0  0  0  0  0  0  0  0  0
   78.1145   33.2959   68.3686 O   0  0  0  0  0  0  0  0  0  0  0  0
   76.0487   34.4460   68.2279 O   0  0  0  0  0  0  0  0  0  0  0  0
   75.3418   34.7535   67.6952 H   0  0  0  0  0  0  0  0  0  0  0  0
   77.1516   35.5972   62.3643 C   0  0  0  0  0  0  0  0  0  0  0  0
   76.0385   36.3117   61.7658 O   0  0  0  0  0  0  0  0  0  0  0  0
   76.2892   37.0543   60.3633 P   0  0  0  0  0  0  0  0  0  0  0  0
   77.7659   37.2147   60.2378 O   0  0  0  0  0  0  0  0  0  0  0  0
   75.5703   38.4334   60.4621 O   0  0  0  0  0  0  0  0  0  0  0  0
   75.5906   36.2577   59.2900 O   0  0  0  0  0  0  0  0  0  0  0  0
   75.9971   38.9723   61.1464 H   0  0  0  0  0  0  0  0  0  0  0  0
   76.0156   35.3901   59.2031 H   0  0  0  0  0  0  0  0  0  0  0  0
 11 10  1  0  0  0
 11 13  1  0  0  0
  1  2  2  0  0  0
  1  8  1  0  0  0
  2  3  1  0  0  0
  2  4  1  0  0  0
  4  5  1  0  0  0
  4  6  2  0  0  0
  6 10  1  0  0  0
  6  7  1  0  0  0
  7 19  1  0  0  0
  7  8  2  0  0  0
 19 20  1  0  0  0
 20 21  1  0  0  0
 21 22  2  0  0  0
 21 23  1  0  0  0
 21 24  1  0  0  0
 13 14  1  0  0  0
 13 15  1  0  0  0
 15 16  2  0  0  0
 15 17  1  0  0  0
 11 12  1  0  0  0
  5  9  1  0  0  0
 23 25  1  0  0  0
 24 26  1  0  0  0
 17 18  1  0  0  0
M  END
> <minimizedAffinity>
-6.33903

$$$$
2BMK_PDD_B_1217


 26 26  0  0  0  0  0  0  0  0999 V2000
   75.0894   36.9664   63.0807 N   0  0  0  0  0  0  0  0  0  0  0  0
   75.6887   36.8550   61.8560 C   0  0  0  0  0  0  0  0  0  0  0  0
   75.6330   38.0292   60.9250 C   0  0  0  0  0  0  0  0  0  0  0  0
   76.3345   35.6055   61.5425 C   0  0  0  0  0  0  0  0  0  0  0  0
   76.9454   35.4196   60.3613 O   0  0  0  0  0  0  0  0  0  0  0  0
   76.3191   34.5296   62.5166 C   0  0  0  0  0  0  0  0  0  0  0  0
   75.6515   34.7409   63.7855 C   0  0  0  0  0  0  0  0  0  0  0  0
   75.0537   35.9758   64.0244 C   0  0  0  0  0  0  0  0  0  0  0  0
   76.9595   36.1096   59.7274 H   0  0  0  0  0  0  0  0  0  0  0  0
   77.0092   33.2186   62.1371 C   0  0  0  0  0  0  0  0  0  0  0  0
   76.0795   32.1558   61.6342 N   0  0  0  0  0  0  0  0  0  0  0  0
   76.2113   32.0536   60.6279 H   0  0  0  0  0  0  0  0  0  0  0  0
   76.3281   30.8160   62.2973 C   0  0  0  0  0  0  0  0  0  0  0  0
   76.9782   29.8204   61.3301 C   0  0  0  0  0  0  0  0  0  0  0  0
   74.9841   30.2740   62.8482 C   0  0  0  0  0  0  0  0  0  0  0  0
   74.8372   28.9476   62.5803 O   0  0  0  0  0  0  0  0  0  0  0  0
   74.0842   31.0114   63.4655 O   0  0  0  0  0  0  0  0  0  0  0  0
   74.2489   31.9210   63.6186 H   0  0  0  0  0  0  0  0  0  0  0  0
   75.5686   33.6726   64.8753 C   0  0  0  0  0  0  0  0  0  0  0  0
   76.4675   34.0241   65.9599 O   0  0  0  0  0  0  0  0  0  0  0  0
   77.6304   32.9827   66.3396 P   0  0  0  0  0  0  0  0  0  0  0  0
   77.0036   31.6307   66.3035 O   0  0  0  0  0  0  0  0  0  0  0  0
   78.1022   33.3563   67.7771 O   0  0  0  0  0  0  0  0  0  0  0  0
   78.7898   33.2279   65.4067 O   0  0  0  0  0  0  0  0  0  0  0  0
   77.3767   33.2093   68.4039 H   0  0  0  0  0  0  0  0  0  0  0  0
   78.5280   33.0042   64.4999 H   0  0  0  0  0  0  0  0  0  0  0  0
 11 10  1  0  0  0
 11 13  1  0  0  0
  1  2  2  0  0  0
  1  8  1  0  0  0
  2  3  1  0  0  0
  2  4  1  0  0  0
  4  5  1  0  0  0
  4  6  2  0  0  0
  6 10  1  0  0  0
  6  7  1  0  0  0
  7 19  1  0  0  0
  7  8  2  0  0  0
 19 20  1  0  0  0
 20 21  1  0  0  0
 21 22  2  0  0  0
 21 23  1  0  0  0
 21 24  1  0  0  0
 13 14  1  0  0  0
 13 15  1  0  0  0
 15 16  2  0  0  0
 15 17  1  0  0  0
 11 12  1  0  0  0
  5  9  1  0  0  0
 23 25  1  0  0  0
 24 26  1  0  0  0
 17 18  1  0  0  0
M  END
> <minimizedAffinity>
-6.32417

$$$$
2BMK_PDD_B_1217


 26 26  0  0  0  0  0  0  0  0999 V2000
   76.2492   37.1962   60.1010 N   0  0  0  0  0  0  0  0  0  0  0  0
   75.5979   37.5209   61.2593 C   0  0  0  0  0  0  0  0  0  0  0  0
   74.7932   38.7857   61.2949 C   0  0  0  0  0  0  0  0  0  0  0  0
   75.7342   36.6185   62.3746 C   0  0  0  0  0  0  0  0  0  0  0  0
   75.1244   36.8676   63.5447 O   0  0  0  0  0  0  0  0  0  0  0  0
   76.5479   35.4251   62.2322 C   0  0  0  0  0  0  0  0  0  0  0  0
   77.2054   35.1706   60.9660 C   0  0  0  0  0  0  0  0  0  0  0  0
   77.0247   36.0818   59.9283 C   0  0  0  0  0  0  0  0  0  0  0  0
   74.5975   37.6360   63.6441 H   0  0  0  0  0  0  0  0  0  0  0  0
   76.6712   34.5012   63.4447 C   0  0  0  0  0  0  0  0  0  0  0  0
   75.4723   33.6335   63.6828 N   0  0  0  0  0  0  0  0  0  0  0  0
   74.8983   33.6281   62.8396 H   0  0  0  0  0  0  0  0  0  0  0  0
   75.8552   32.2069   64.0215 C   0  0  0  0  0  0  0  0  0  0  0  0
   77.3765   32.0197   64.0346 C   0  0  0  0  0  0  0  0  0  0  0  0
   75.1766   31.2527   63.0055 C   0  0  0  0  0  0  0  0  0  0  0  0
   73.9468   30.8613   63.4379 O   0  0  0  0  0  0  0  0  0  0  0  0
   75.7343   30.8451   61.8840 O   0  0  0  0  0  0  0  0  0  0  0  0
   76.5859   31.1543   61.6450 H   0  0  0  0  0  0  0  0  0  0  0  0
   78.0910   33.9509   60.7134 C   0  0  0  0  0  0  0  0  0  0  0  0
   77.2520   32.7991   60.4354 O   0  0  0  0  0  0  0  0  0  0  0  0
   77.2020   32.2527   58.9255 P   0  0  0  0  0  0  0  0  0  0  0  0
   78.4496   32.7364   58.2685 O   0  0  0  0  0  0  0  0  0  0  0  0
   75.9326   32.8790   58.2736 O   0  0  0  0  0  0  0  0  0  0  0  0
   76.9896   30.7607   58.9832 O   0  0  0  0  0  0  0  0  0  0  0  0
   76.0375   33.8419   58.2215 H   0  0  0  0  0  0  0  0  0  0  0  0
   77.7651   30.3391   59.3854 H   0  0  0  0  0  0  0  0  0  0  0  0
 11 10  1  0  0  0
 11 13  1  0  0  0
  1  2  2  0  0  0
  1  8  1  0  0  0
  2  3  1  0  0  0
  2  4  1  0  0  0
  4  5  1  0  0  0
  4  6  2  0  0  0
  6 10  1  0  0  0
  6  7  1  0  0  0
  7 19  1  0  0  0
  7  8  2  0  0  0
 19 20  1  0  0  0
 20 21  1  0  0  0
 21 22  2  0  0  0
 21 23  1  0  0  0
 21 24  1  0  0  0
 13 14  1  0  0  0
 13 15  1  0  0  0
 15 16  2  0  0  0
 15 17  1  0  0  0
 11 12  1  0  0  0
  5  9  1  0  0  0
 23 25  1  0  0  0
 24 26  1  0  0  0
 17 18  1  0  0  0
M  END
> <minimizedAffinity>
-6.24723

$$$$
2BMK_PDD_B_1217


 26 26  0  0  0  0  0  0  0  0999 V2000
   75.1780   35.8657   64.5561 N   0  0  0  0  0  0  0  0  0  0  0  0
   74.7995   37.0867   64.0692 C   0  0  0  0  0  0  0  0  0  0  0  0
   74.1354   38.0529   65.0040 C   0  0  0  0  0  0  0  0  0  0  0  0
   75.0651   37.3603   62.6794 C   0  0  0  0  0  0  0  0  0  0  0  0
   74.7243   38.5363   62.1283 O   0  0  0  0  0  0  0  0  0  0  0  0
   75.7058   36.3464   61.8619 C   0  0  0  0  0  0  0  0  0  0  0  0
   76.0635   35.0792   62.4673 C   0  0  0  0  0  0  0  0  0  0  0  0
   75.7833   34.8851   63.8177 C   0  0  0  0  0  0  0  0  0  0  0  0
   74.3104   39.1956   62.6498 H   0  0  0  0  0  0  0  0  0  0  0  0
   75.9598   36.6773   60.3905 C   0  0  0  0  0  0  0  0  0  0  0  0
   77.1686   37.5306   60.1506 N   0  0  0  0  0  0  0  0  0  0  0  0
   77.8539   37.3424   60.8822 H   0  0  0  0  0  0  0  0  0  0  0  0
   77.8057   37.2563   58.8032 C   0  0  0  0  0  0  0  0  0  0  0  0
   79.1256   36.4908   58.9492 C   0  0  0  0  0  0  0  0  0  0  0  0
   78.0119   38.6034   58.0643 C   0  0  0  0  0  0  0  0  0  0  0  0
   76.8823   38.9875   57.4091 O   0  0  0  0  0  0  0  0  0  0  0  0
   79.1462   39.2724   58.0444 O   0  0  0  0  0  0  0  0  0  0  0  0
   79.8878   38.9515   58.5187 H   0  0  0  0  0  0  0  0  0  0  0  0
   76.7319   33.9421   61.6951 C   0  0  0  0  0  0  0  0  0  0  0  0
   76.7400   32.7452   62.5168 O   0  0  0  0  0  0  0  0  0  0  0  0
   76.6266   31.3242   61.7758 P   0  0  0  0  0  0  0  0  0  0  0  0
   75.5070   30.5986   62.4407 O   0  0  0  0  0  0  0  0  0  0  0  0
   77.9893   30.6022   61.9999 O   0  0  0  0  0  0  0  0  0  0  0  0
   76.4932   31.5864   60.2966 O   0  0  0  0  0  0  0  0  0  0  0  0
   78.1063   30.4185   62.9451 H   0  0  0  0  0  0  0  0  0  0  0  0
   75.6520   32.0368   60.1226 H   0  0  0  0  0  0  0  0  0  0  0  0
 11 10  1  0  0  0
 11 13  1  0  0  0
  1  2  2  0  0  0
  1  8  1  0  0  0
  2  3  1  0  0  0
  2  4  1  0  0  0
  4  5  1  0  0  0
  4  6  2  0  0  0
  6 10  1  0  0  0
  6  7  1  0  0  0
  7 19  1  0  0  0
  7  8  2  0  0  0
 19 20  1  0  0  0
 20 21  1  0  0  0
 21 22  2  0  0  0
 21 23  1  0  0  0
 21 24  1  0  0  0
 13 14  1  0  0  0
 13 15  1  0  0  0
 15 16  2  0  0  0
 15 17  1  0  0  0
 11 12  1  0  0  0
  5  9  1  0  0  0
 23 25  1  0  0  0
 24 26  1  0  0  0
 17 18  1  0  0  0
M  END
> <minimizedAffinity>
-6.22058

$$$$
2BMK_PDD_B_1217


 26 26  0  0  0  0  0  0  0  0999 V2000
   77.8704   33.1424   67.0977 N   0  0  0  0  0  0  0  0  0  0  0  0
   78.9557   32.5700   66.4929 C   0  0  0  0  0  0  0  0  0  0  0  0
   80.1010   32.1270   67.3536 C   0  0  0  0  0  0  0  0  0  0  0  0
   78.9235   32.4341   65.0586 C   0  0  0  0  0  0  0  0  0  0  0  0
   79.9502   31.8814   64.3927 O   0  0  0  0  0  0  0  0  0  0  0  0
   77.7656   32.9074   64.3225 C   0  0  0  0  0  0  0  0  0  0  0  0
   76.6665   33.5071   65.0524 C   0  0  0  0  0  0  0  0  0  0  0  0
   76.7618   33.6004   66.4387 C   0  0  0  0  0  0  0  0  0  0  0  0
   80.7010   31.5736   64.8611 H   0  0  0  0  0  0  0  0  0  0  0  0
   77.7790   32.7508   62.8012 C   0  0  0  0  0  0  0  0  0  0  0  0
   76.5222   32.1661   62.2307 N   0  0  0  0  0  0  0  0  0  0  0  0
   76.4831   32.3807   61.2343 H   0  0  0  0  0  0  0  0  0  0  0  0
   76.4570   30.6626   62.4089 C   0  0  0  0  0  0  0  0  0  0  0  0
   76.8487   29.9252   61.1235 C   0  0  0  0  0  0  0  0  0  0  0  0
   75.0284   30.2755   62.8701 C   0  0  0  0  0  0  0  0  0  0  0  0
   74.7531   28.9722   62.5901 O   0  0  0  0  0  0  0  0  0  0  0  0
   74.1777   31.1110   63.4293 O   0  0  0  0  0  0  0  0  0  0  0  0
   74.4320   31.9975   63.5950 H   0  0  0  0  0  0  0  0  0  0  0  0
   75.4069   34.0456   64.3746 C   0  0  0  0  0  0  0  0  0  0  0  0
   75.5064   35.4892   64.2571 O   0  0  0  0  0  0  0  0  0  0  0  0
   75.6420   36.1156   62.7839 P   0  0  0  0  0  0  0  0  0  0  0  0
   74.6472   37.2234   62.7116 O   0  0  0  0  0  0  0  0  0  0  0  0
   75.2957   34.9699   61.7859 O   0  0  0  0  0  0  0  0  0  0  0  0
   77.0904   36.4775   62.5697 O   0  0  0  0  0  0  0  0  0  0  0  0
   74.3672   34.7128   61.8984 H   0  0  0  0  0  0  0  0  0  0  0  0
   77.3388   37.1909   63.1782 H   0  0  0  0  0  0  0  0  0  0  0  0
 11 10  1  0  0  0
 11 13  1  0  0  0
  1  2  2  0  0  0
  1  8  1  0  0  0
  2  3  1  0  0  0
  2  4  1  0  0  0
  4  5  1  0  0  0
  4  6  2  0  0  0
  6 10  1  0  0  0
  6  7  1  0  0  0
  7 19  1  0  0  0
  7  8  2  0  0  0
 19 20  1  0  0  0
 20 21  1  0  0  0
 21 22  2  0  0  0
 21 23  1  0  0  0
 21 24  1  0  0  0
 13 14  1  0  0  0
 13 15  1  0  0  0
 15 16  2  0  0  0
 15 17  1  0  0  0
 11 12  1  0  0  0
  5  9  1  0  0  0
 23 25  1  0  0  0
 24 26  1  0  0  0
 17 18  1  0  0  0
M  END
> <minimizedAffinity>
-6.10356

$$$$
2BMK_PDD_B_1217


 26 26  0  0  0  0  0  0  0  0999 V2000
   77.8559   33.1151   67.1554 N   0  0  0  0  0  0  0  0  0  0  0  0
   79.0606   32.7385   66.6280 C   0  0  0  0  0  0  0  0  0  0  0  0
   80.1731   32.3867   67.5700 C   0  0  0  0  0  0  0  0  0  0  0  0
   79.1783   32.7086   65.1921 C   0  0  0  0  0  0  0  0  0  0  0  0
   80.3280   32.3485   64.5993 O   0  0  0  0  0  0  0  0  0  0  0  0
   78.0378   33.0793   64.3744 C   0  0  0  0  0  0  0  0  0  0  0  0
   76.8043   33.4716   65.0263 C   0  0  0  0  0  0  0  0  0  0  0  0
   76.7591   33.4714   66.4183 C   0  0  0  0  0  0  0  0  0  0  0  0
   81.0685   32.1079   65.1206 H   0  0  0  0  0  0  0  0  0  0  0  0
   78.2113   33.0416   62.8553 C   0  0  0  0  0  0  0  0  0  0  0  0
   78.0610   31.6778   62.2516 N   0  0  0  0  0  0  0  0  0  0  0  0
   78.1736   30.9793   62.9863 H   0  0  0  0  0  0  0  0  0  0  0  0
   76.7067   31.4858   61.5993 C   0  0  0  0  0  0  0  0  0  0  0  0
   75.8015   30.5757   62.4370 C   0  0  0  0  0  0  0  0  0  0  0  0
   76.9154   30.9171   60.1722 C   0  0  0  0  0  0  0  0  0  0  0  0
   76.9728   31.9123   59.2454 O   0  0  0  0  0  0  0  0  0  0  0  0
   76.9919   29.6330   59.8894 O   0  0  0  0  0  0  0  0  0  0  0  0
   76.9455   28.9983   60.5770 H   0  0  0  0  0  0  0  0  0  0  0  0
   75.5492   33.8889   64.2605 C   0  0  0  0  0  0  0  0  0  0  0  0
   75.4912   35.3378   64.1893 O   0  0  0  0  0  0  0  0  0  0  0  0
   75.6748   36.0274   62.7499 P   0  0  0  0  0  0  0  0  0  0  0  0
   77.0890   36.4953   62.6922 O   0  0  0  0  0  0  0  0  0  0  0  0
   74.6748   37.2217   62.7045 O   0  0  0  0  0  0  0  0  0  0  0  0
   75.2368   35.0327   61.7043 O   0  0  0  0  0  0  0  0  0  0  0  0
   74.9295   37.8821   63.3678 H   0  0  0  0  0  0  0  0  0  0  0  0
   75.8410   34.2739   61.7067 H   0  0  0  0  0  0  0  0  0  0  0  0
 11 10  1  0  0  0
 11 13  1  0  0  0
  1  2  2  0  0  0
  1  8  1  0  0  0
  2  3  1  0  0  0
  2  4  1  0  0  0
  4  5  1  0  0  0
  4  6  2  0  0  0
  6 10  1  0  0  0
  6  7  1  0  0  0
  7 19  1  0  0  0
  7  8  2  0  0  0
 19 20  1  0  0  0
 20 21  1  0  0  0
 21 22  2  0  0  0
 21 23  1  0  0  0
 21 24  1  0  0  0
 13 14  1  0  0  0
 13 15  1  0  0  0
 15 16  2  0  0  0
 15 17  1  0  0  0
 11 12  1  0  0  0
  5  9  1  0  0  0
 23 25  1  0  0  0
 24 26  1  0  0  0
 17 18  1  0  0  0
M  END
> <minimizedAffinity>
-6.08475

$$$$
2BMK_PDD_B_1217


 26 26  0  0  0  0  0  0  0  0999 V2000
   75.3538   35.8784   64.3183 N   0  0  0  0  0  0  0  0  0  0  0  0
   74.8782   37.0542   63.8059 C   0  0  0  0  0  0  0  0  0  0  0  0
   73.9875   37.8992   64.6669 C   0  0  0  0  0  0  0  0  0  0  0  0
   75.2673   37.4001   62.4621 C   0  0  0  0  0  0  0  0  0  0  0  0
   74.8423   38.5380   61.8899 O   0  0  0  0  0  0  0  0  0  0  0  0
   76.1273   36.5014   61.7141 C   0  0  0  0  0  0  0  0  0  0  0  0
   76.5746   35.2737   62.3410 C   0  0  0  0  0  0  0  0  0  0  0  0
   76.1653   35.0059   63.6450 C   0  0  0  0  0  0  0  0  0  0  0  0
   74.2869   39.1231   62.3666 H   0  0  0  0  0  0  0  0  0  0  0  0
   76.5071   36.9050   60.2887 C   0  0  0  0  0  0  0  0  0  0  0  0
   75.8212   36.1095   59.2194 N   0  0  0  0  0  0  0  0  0  0  0  0
   75.1703   36.7185   58.7236 H   0  0  0  0  0  0  0  0  0  0  0  0
   76.8009   35.5266   58.2209 C   0  0  0  0  0  0  0  0  0  0  0  0
   77.2951   36.5875   57.2311 C   0  0  0  0  0  0  0  0  0  0  0  0
   76.1216   34.3417   57.4875 C   0  0  0  0  0  0  0  0  0  0  0  0
   76.3293   34.4055   56.1438 O   0  0  0  0  0  0  0  0  0  0  0  0
   75.4053   33.4120   58.0852 O   0  0  0  0  0  0  0  0  0  0  0  0
   75.3020   33.4265   59.0164 H   0  0  0  0  0  0  0  0  0  0  0  0
   77.4727   34.2552   61.6396 C   0  0  0  0  0  0  0  0  0  0  0  0
   76.6500   33.3488   60.8589 O   0  0  0  0  0  0  0  0  0  0  0  0
   76.9836   31.7790   60.9325 P   0  0  0  0  0  0  0  0  0  0  0  0
   76.9266   31.2773   59.5299 O   0  0  0  0  0  0  0  0  0  0  0  0
   75.8729   31.1350   61.8159 O   0  0  0  0  0  0  0  0  0  0  0  0
   78.2916   31.6208   61.6665 O   0  0  0  0  0  0  0  0  0  0  0  0
   75.0155   31.2203   61.3704 H   0  0  0  0  0  0  0  0  0  0  0  0
   79.0066   32.0129   61.1412 H   0  0  0  0  0  0  0  0  0  0  0  0
 11 10  1  0  0  0
 11 13  1  0  0  0
  1  2  2  0  0  0
  1  8  1  0  0  0
  2  3  1  0  0  0
  2  4  1  0  0  0
  4  5  1  0  0  0
  4  6  2  0  0  0
  6 10  1  0  0  0
  6  7  1  0  0  0
  7 19  1  0  0  0
  7  8  2  0  0  0
 19 20  1  0  0  0
 20 21  1  0  0  0
 21 22  2  0  0  0
 21 23  1  0  0  0
 21 24  1  0  0  0
 13 14  1  0  0  0
 13 15  1  0  0  0
 15 16  2  0  0  0
 15 17  1  0  0  0
 11 12  1  0  0  0
  5  9  1  0  0  0
 23 25  1  0  0  0
 24 26  1  0  0  0
 17 18  1  0  0  0
M  END
> <minimizedAffinity>
-6.00871

$$$$
