2PTZ_PAH_A_600


 13 12  0  0  0  0  0  0  0  0999 V2000
   11.2062   28.4149   35.8258 C   0  0  0  0  0  0  0  0  0  0  0  0
   12.3626   29.2118   35.2951 C   0  0  0  0  0  0  0  0  0  0  0  0
   13.5421   28.8340   35.7200 N   0  0  0  0  0  0  0  0  0  0  0  0
   14.7118   29.4226   35.3698 O   0  0  0  0  0  0  0  0  0  0  0  0
   12.2086   30.1962   34.5669 O   0  0  0  0  0  0  0  0  0  0  0  0
   13.5822   28.0682   36.3375 H   0  0  0  0  0  0  0  0  0  0  0  0
   14.5346   30.1579   34.7625 H   0  0  0  0  0  0  0  0  0  0  0  0
   10.1053   30.2829   37.3867 O   0  0  0  0  0  0  0  0  0  0  0  0
   12.1593   29.2247   38.1620 O   0  0  0  0  0  0  0  0  0  0  0  0
    9.9635   27.9248   38.0576 O   0  0  0  0  0  0  0  0  0  0  0  0
   10.8533   29.0276   37.5188 P   0  0  0  0  0  0  0  0  0  0  0  0
   12.6269   29.9548   37.7271 H   0  0  0  0  0  0  0  0  0  0  0  0
    9.1371   27.8993   37.5505 H   0  0  0  0  0  0  0  0  0  0  0  0
  1  2  1  0  0  0
  1 11  1  0  0  0
  2  3  1  0  0  0
  2  5  2  0  0  0
  3  4  1  0  0  0
  8 11  2  0  0  0
  9 11  1  0  0  0
 10 11  1  0  0  0
  3  6  1  0  0  0
  4  7  1  0  0  0
  9 12  1  0  0  0
 10 13  1  0  0  0
M  END
> <minimizedAffinity>
-7.40317

$$$$
2PTZ_PAH_A_600


 13 12  0  0  0  0  0  0  0  0999 V2000
   11.5676   29.8735   36.8382 C   0  0  0  0  0  0  0  0  0  0  0  0
   10.8805   28.8532   37.6988 C   0  0  0  0  0  0  0  0  0  0  0  0
   10.2871   27.8837   37.0487 N   0  0  0  0  0  0  0  0  0  0  0  0
    9.6052   26.8687   37.6335 O   0  0  0  0  0  0  0  0  0  0  0  0
   10.8184   28.9579   38.9269 O   0  0  0  0  0  0  0  0  0  0  0  0
   10.3400   27.8927   36.0657 H   0  0  0  0  0  0  0  0  0  0  0  0
    9.6285   26.9766   38.5972 H   0  0  0  0  0  0  0  0  0  0  0  0
   13.5673   29.9609   35.0686 O   0  0  0  0  0  0  0  0  0  0  0  0
   11.8612   28.2469   34.7671 O   0  0  0  0  0  0  0  0  0  0  0  0
   13.5055   28.1427   36.7183 O   0  0  0  0  0  0  0  0  0  0  0  0
   12.7105   28.9672   35.7252 P   0  0  0  0  0  0  0  0  0  0  0  0
   11.4097   28.8845   34.1922 H   0  0  0  0  0  0  0  0  0  0  0  0
   14.0207   28.7334   37.2898 H   0  0  0  0  0  0  0  0  0  0  0  0
  1  2  1  0  0  0
  1 11  1  0  0  0
  2  3  1  0  0  0
  2  5  2  0  0  0
  3  4  1  0  0  0
  8 11  2  0  0  0
  9 11  1  0  0  0
 10 11  1  0  0  0
  3  6  1  0  0  0
  4  7  1  0  0  0
  9 12  1  0  0  0
 10 13  1  0  0  0
M  END
> <minimizedAffinity>
-7.39156

$$$$
2PTZ_PAH_A_600


 13 12  0  0  0  0  0  0  0  0999 V2000
   11.4659   28.3730   35.9201 C   0  0  0  0  0  0  0  0  0  0  0  0
   12.5072   29.2797   35.3307 C   0  0  0  0  0  0  0  0  0  0  0  0
   12.0413   30.2859   34.6344 N   0  0  0  0  0  0  0  0  0  0  0  0
   12.8094   31.2143   34.0136 O   0  0  0  0  0  0  0  0  0  0  0  0
   13.7161   29.0540   35.4349 O   0  0  0  0  0  0  0  0  0  0  0  0
   11.0639   30.3745   34.5563 H   0  0  0  0  0  0  0  0  0  0  0  0
   13.7460   31.0141   34.1673 H   0  0  0  0  0  0  0  0  0  0  0  0
   10.3489   30.3752   37.2918 O   0  0  0  0  0  0  0  0  0  0  0  0
   12.2295   29.2109   38.3152 O   0  0  0  0  0  0  0  0  0  0  0  0
    9.9674   28.0621   38.0233 O   0  0  0  0  0  0  0  0  0  0  0  0
   10.9858   29.0779   37.5446 P   0  0  0  0  0  0  0  0  0  0  0  0
   12.7914   29.8885   37.9078 H   0  0  0  0  0  0  0  0  0  0  0  0
    9.1980   28.0727   37.4328 H   0  0  0  0  0  0  0  0  0  0  0  0
  1  2  1  0  0  0
  1 11  1  0  0  0
  2  3  1  0  0  0
  2  5  2  0  0  0
  3  4  1  0  0  0
  8 11  2  0  0  0
  9 11  1  0  0  0
 10 11  1  0  0  0
  3  6  1  0  0  0
  4  7  1  0  0  0
  9 12  1  0  0  0
 10 13  1  0  0  0
M  END
> <minimizedAffinity>
-7.37902

$$$$
2PTZ_PAH_A_600


 13 12  0  0  0  0  0  0  0  0999 V2000
   11.6104   29.3120   35.9430 C   0  0  0  0  0  0  0  0  0  0  0  0
   13.0210   28.8203   36.0918 C   0  0  0  0  0  0  0  0  0  0  0  0
   13.1823   27.8367   36.9409 N   0  0  0  0  0  0  0  0  0  0  0  0
   14.3720   27.2541   37.2277 O   0  0  0  0  0  0  0  0  0  0  0  0
   13.9711   29.3509   35.5096 O   0  0  0  0  0  0  0  0  0  0  0  0
   12.3828   27.4962   37.4037 H   0  0  0  0  0  0  0  0  0  0  0  0
   15.0733   27.6786   36.7091 H   0  0  0  0  0  0  0  0  0  0  0  0
   10.2384   27.8796   37.7330 O   0  0  0  0  0  0  0  0  0  0  0  0
    9.8028   30.2751   37.6243 O   0  0  0  0  0  0  0  0  0  0  0  0
   12.0232   29.3768   38.5103 O   0  0  0  0  0  0  0  0  0  0  0  0
   10.8231   29.2185   37.5976 P   0  0  0  0  0  0  0  0  0  0  0  0
    9.0936   30.0555   37.0001 H   0  0  0  0  0  0  0  0  0  0  0  0
   12.6171   28.6182   38.3980 H   0  0  0  0  0  0  0  0  0  0  0  0
  1  2  1  0  0  0
  1 11  1  0  0  0
  2  3  1  0  0  0
  2  5  2  0  0  0
  3  4  1  0  0  0
  8 11  2  0  0  0
  9 11  1  0  0  0
 10 11  1  0  0  0
  3  6  1  0  0  0
  4  7  1  0  0  0
  9 12  1  0  0  0
 10 13  1  0  0  0
M  END
> <minimizedAffinity>
-7.33116

$$$$
2PTZ_PAH_A_600


 13 12  0  0  0  0  0  0  0  0999 V2000
   11.2580   28.5177   35.8197 C   0  0  0  0  0  0  0  0  0  0  0  0
   12.4322   29.3312   35.3577 C   0  0  0  0  0  0  0  0  0  0  0  0
   13.6063   28.8459   35.6744 N   0  0  0  0  0  0  0  0  0  0  0  0
   14.7900   29.4271   35.3611 O   0  0  0  0  0  0  0  0  0  0  0  0
   12.3004   30.4153   34.7827 O   0  0  0  0  0  0  0  0  0  0  0  0
   13.6311   27.9989   36.1756 H   0  0  0  0  0  0  0  0  0  0  0  0
   14.6273   30.2486   34.8715 H   0  0  0  0  0  0  0  0  0  0  0  0
   12.1290   29.1205   38.2724 O   0  0  0  0  0  0  0  0  0  0  0  0
    9.9567   28.0332   38.0765 O   0  0  0  0  0  0  0  0  0  0  0  0
   10.3037   30.4384   37.2912 O   0  0  0  0  0  0  0  0  0  0  0  0
   10.8650   29.0507   37.5307 P   0  0  0  0  0  0  0  0  0  0  0  0
   10.4349   27.1959   38.1818 H   0  0  0  0  0  0  0  0  0  0  0  0
   10.9995   31.0111   36.9323 H   0  0  0  0  0  0  0  0  0  0  0  0
  1  2  1  0  0  0
  1 11  1  0  0  0
  2  3  1  0  0  0
  2  5  2  0  0  0
  3  4  1  0  0  0
  8 11  2  0  0  0
  9 11  1  0  0  0
 10 11  1  0  0  0
  3  6  1  0  0  0
  4  7  1  0  0  0
  9 12  1  0  0  0
 10 13  1  0  0  0
M  END
> <minimizedAffinity>
-7.23844

$$$$
2PTZ_PAH_A_600


 13 12  0  0  0  0  0  0  0  0999 V2000
   11.6756   30.4154   36.0052 C   0  0  0  0  0  0  0  0  0  0  0  0
   12.5772   29.8311   34.9566 C   0  0  0  0  0  0  0  0  0  0  0  0
   12.1286   29.9088   33.7289 N   0  0  0  0  0  0  0  0  0  0  0  0
   12.7815   29.4366   32.6390 O   0  0  0  0  0  0  0  0  0  0  0  0
   13.6323   29.2559   35.2375 O   0  0  0  0  0  0  0  0  0  0  0  0
   11.2553   30.3408   33.5875 H   0  0  0  0  0  0  0  0  0  0  0  0
   13.6222   29.0380   32.9132 H   0  0  0  0  0  0  0  0  0  0  0  0
    9.9354   29.2779   37.6833 O   0  0  0  0  0  0  0  0  0  0  0  0
   12.2936   29.2380   38.2972 O   0  0  0  0  0  0  0  0  0  0  0  0
   11.4157   27.8493   36.3420 O   0  0  0  0  0  0  0  0  0  0  0  0
   11.3123   29.0845   37.2148 P   0  0  0  0  0  0  0  0  0  0  0  0
   12.1194   30.0628   38.7770 H   0  0  0  0  0  0  0  0  0  0  0  0
   10.7156   27.8681   35.6708 H   0  0  0  0  0  0  0  0  0  0  0  0
  1  2  1  0  0  0
  1 11  1  0  0  0
  2  3  1  0  0  0
  2  5  2  0  0  0
  3  4  1  0  0  0
  8 11  2  0  0  0
  9 11  1  0  0  0
 10 11  1  0  0  0
  3  6  1  0  0  0
  4  7  1  0  0  0
  9 12  1  0  0  0
 10 13  1  0  0  0
M  END
> <minimizedAffinity>
-6.72009

$$$$
2PTZ_PAH_A_600


 13 12  0  0  0  0  0  0  0  0999 V2000
   11.0846   28.0509   35.5911 C   0  0  0  0  0  0  0  0  0  0  0  0
   10.6557   27.9993   37.0289 C   0  0  0  0  0  0  0  0  0  0  0  0
   11.2296   28.8759   37.8141 N   0  0  0  0  0  0  0  0  0  0  0  0
   10.9905   28.9924   39.1432 O   0  0  0  0  0  0  0  0  0  0  0  0
    9.8717   27.1466   37.4549 O   0  0  0  0  0  0  0  0  0  0  0  0
   11.8809   29.4942   37.4105 H   0  0  0  0  0  0  0  0  0  0  0  0
   10.3349   28.3304   39.4130 H   0  0  0  0  0  0  0  0  0  0  0  0
   11.9533   30.5130   36.1580 O   0  0  0  0  0  0  0  0  0  0  0  0
   12.6253   29.5364   34.0287 O   0  0  0  0  0  0  0  0  0  0  0  0
   13.5349   28.6360   36.2386 O   0  0  0  0  0  0  0  0  0  0  0  0
   12.4169   29.3060   35.4645 P   0  0  0  0  0  0  0  0  0  0  0  0
   11.8420   29.9682   33.6534 H   0  0  0  0  0  0  0  0  0  0  0  0
   13.2739   28.5428   37.1682 H   0  0  0  0  0  0  0  0  0  0  0  0
  1  2  1  0  0  0
  1 11  1  0  0  0
  2  3  1  0  0  0
  2  5  2  0  0  0
  3  4  1  0  0  0
  8 11  2  0  0  0
  9 11  1  0  0  0
 10 11  1  0  0  0
  3  6  1  0  0  0
  4  7  1  0  0  0
  9 12  1  0  0  0
 10 13  1  0  0  0
M  END
> <minimizedAffinity>
-6.41377

$$$$
2PTZ_PAH_A_600


 13 12  0  0  0  0  0  0  0  0999 V2000
   12.8219   28.6921   35.8091 C   0  0  0  0  0  0  0  0  0  0  0  0
   11.9424   28.8925   37.0091 C   0  0  0  0  0  0  0  0  0  0  0  0
   10.8349   28.1939   37.0120 N   0  0  0  0  0  0  0  0  0  0  0  0
    9.9017   28.2336   37.9942 O   0  0  0  0  0  0  0  0  0  0  0  0
   12.2088   29.7091   37.8953 O   0  0  0  0  0  0  0  0  0  0  0  0
   10.6683   27.5976   36.2465 H   0  0  0  0  0  0  0  0  0  0  0  0
   10.1843   28.8546   38.6837 H   0  0  0  0  0  0  0  0  0  0  0  0
   13.8939   30.9095   34.7740 O   0  0  0  0  0  0  0  0  0  0  0  0
   11.5161   30.9426   35.3074 O   0  0  0  0  0  0  0  0  0  0  0  0
   12.4164   29.5293   33.3801 O   0  0  0  0  0  0  0  0  0  0  0  0
   12.6278   30.1691   34.7381 P   0  0  0  0  0  0  0  0  0  0  0  0
   11.7777   31.2963   36.1719 H   0  0  0  0  0  0  0  0  0  0  0  0
   13.2191   29.0514   33.1193 H   0  0  0  0  0  0  0  0  0  0  0  0
  1  2  1  0  0  0
  1 11  1  0  0  0
  2  3  1  0  0  0
  2  5  2  0  0  0
  3  4  1  0  0  0
  8 11  2  0  0  0
  9 11  1  0  0  0
 10 11  1  0  0  0
  3  6  1  0  0  0
  4  7  1  0  0  0
  9 12  1  0  0  0
 10 13  1  0  0  0
M  END
> <minimizedAffinity>
-6.40700

$$$$
2PTZ_PAH_A_600


 13 12  0  0  0  0  0  0  0  0999 V2000
   12.2136   29.0385   36.8025 C   0  0  0  0  0  0  0  0  0  0  0  0
   11.7641   28.5839   35.4441 C   0  0  0  0  0  0  0  0  0  0  0  0
   11.1879   27.4086   35.4117 N   0  0  0  0  0  0  0  0  0  0  0  0
   10.7180   26.8119   34.2890 O   0  0  0  0  0  0  0  0  0  0  0  0
   11.9847   29.2383   34.4213 O   0  0  0  0  0  0  0  0  0  0  0  0
   11.0889   26.9239   36.2629 H   0  0  0  0  0  0  0  0  0  0  0  0
   10.8761   27.3892   33.5256 H   0  0  0  0  0  0  0  0  0  0  0  0
   10.0252   27.7673   37.6585 O   0  0  0  0  0  0  0  0  0  0  0  0
    9.9414   30.1989   37.5183 O   0  0  0  0  0  0  0  0  0  0  0  0
   11.3860   29.0274   39.2684 O   0  0  0  0  0  0  0  0  0  0  0  0
   10.7408   29.0259   37.8965 P   0  0  0  0  0  0  0  0  0  0  0  0
    9.5866   30.0737   36.6242 H   0  0  0  0  0  0  0  0  0  0  0  0
   11.8815   28.2030   39.3935 H   0  0  0  0  0  0  0  0  0  0  0  0
  1  2  1  0  0  0
  1 11  1  0  0  0
  2  3  1  0  0  0
  2  5  2  0  0  0
  3  4  1  0  0  0
  8 11  2  0  0  0
  9 11  1  0  0  0
 10 11  1  0  0  0
  3  6  1  0  0  0
  4  7  1  0  0  0
  9 12  1  0  0  0
 10 13  1  0  0  0
M  END
> <minimizedAffinity>
-6.34583

$$$$
2PTZ_PAH_A_600


 13 12  0  0  0  0  0  0  0  0999 V2000
   11.7340   28.4421   35.7306 C   0  0  0  0  0  0  0  0  0  0  0  0
   10.7041   27.3500   35.7529 C   0  0  0  0  0  0  0  0  0  0  0  0
   10.2616   27.0248   36.9415 N   0  0  0  0  0  0  0  0  0  0  0  0
    9.3388   26.0617   37.1829 O   0  0  0  0  0  0  0  0  0  0  0  0
   10.3515   26.7526   34.7321 O   0  0  0  0  0  0  0  0  0  0  0  0
   10.6247   27.5144   37.7146 H   0  0  0  0  0  0  0  0  0  0  0  0
    9.0644   25.6593   36.3440 H   0  0  0  0  0  0  0  0  0  0  0  0
   12.2650   29.3740   38.1775 O   0  0  0  0  0  0  0  0  0  0  0  0
    9.9336   29.3103   37.4703 O   0  0  0  0  0  0  0  0  0  0  0  0
   11.5874   30.9467   36.4171 O   0  0  0  0  0  0  0  0  0  0  0  0
   11.3181   29.6112   37.0821 P   0  0  0  0  0  0  0  0  0  0  0  0
    9.8967   28.4328   37.8820 H   0  0  0  0  0  0  0  0  0  0  0  0
   12.5326   31.0212   36.2124 H   0  0  0  0  0  0  0  0  0  0  0  0
  1  2  1  0  0  0
  1 11  1  0  0  0
  2  3  1  0  0  0
  2  5  2  0  0  0
  3  4  1  0  0  0
  8 11  2  0  0  0
  9 11  1  0  0  0
 10 11  1  0  0  0
  3  6  1  0  0  0
  4  7  1  0  0  0
  9 12  1  0  0  0
 10 13  1  0  0  0
M  END
> <minimizedAffinity>
-5.64251

$$$$
