5UPF_8HV_A_901


 33 36  0  0  0  0  0  0  0  0999 V2000
   16.1584    4.9919   -0.3716 C   0  0  0  0  0  0  0  0  0  0  0  0
   14.3498    7.0846   -0.2692 C   0  0  0  0  0  0  0  0  0  0  0  0
   15.3645    7.0013    0.6864 C   0  0  0  0  0  0  0  0  0  0  0  0
   16.2972    5.9717    0.5936 C   0  0  0  0  0  0  0  0  0  0  0  0
   14.2393    6.1146   -1.2526 C   0  0  0  0  0  0  0  0  0  0  0  0
   15.1220    5.0352   -1.2991 C   0  0  0  0  0  0  0  0  0  0  0  0
   15.5111    7.8479    1.8124 N   0  0  0  0  0  0  0  0  0  0  0  0
   14.7047    8.8728    2.2248 C   0  0  0  0  0  0  0  0  0  0  0  0
   15.3174    8.9684    5.7187 C   0  0  0  0  0  0  0  0  0  0  0  0
   15.0797    9.0323    8.1258 C   0  0  0  0  0  0  0  0  0  0  0  0
   14.2366    9.8378    5.5926 C   0  0  0  0  0  0  0  0  0  0  0  0
   14.0475   10.2474    4.1645 C   0  0  0  0  0  0  0  0  0  0  0  0
   13.3560   10.3697    9.0575 F   0  0  0  0  0  0  0  0  0  0  0  0
   14.0036    9.8881    7.9523 C   0  0  0  0  0  0  0  0  0  0  0  0
   15.7301    8.5557    6.9878 C   0  0  0  0  0  0  0  0  0  0  0  0
   13.5619   10.2943    6.7194 C   0  0  0  0  0  0  0  0  0  0  0  0
   15.9029    8.6760    4.3646 C   0  0  0  0  0  0  0  0  0  0  0  0
   14.9883    9.3778    3.4567 N   0  0  0  0  0  0  0  0  0  0  0  0
   13.7044    9.2350    1.6168 O   0  0  0  0  0  0  0  0  0  0  0  0
   16.3007    7.6752    2.3745 H   0  0  0  0  0  0  0  0  0  0  0  0
   15.2277    3.0861   -4.6598 C   0  0  0  0  0  0  0  0  0  0  0  0
   15.4242    4.2646   -3.7012 C   0  0  0  0  0  0  0  0  0  0  0  0
   14.9494    3.9049   -2.2892 C   0  0  0  0  0  0  0  0  0  0  0  0
   13.5202    3.3396   -2.3305 C   0  0  0  0  0  0  0  0  0  0  0  0
   13.3973    2.2088   -3.3477 C   0  0  0  0  0  0  0  0  0  0  0  0
   13.8218    2.6649   -4.6804 N   0  0  0  0  0  0  0  0  0  0  0  0
   13.0627    2.7503   -5.7903 C   0  0  0  0  0  0  0  0  0  0  0  0
   13.5223    3.1881   -6.8301 O   0  0  0  0  0  0  0  0  0  0  0  0
   11.5950    2.3303   -5.9254 C   0  0  0  0  0  0  0  0  0  0  0  0
   11.3284    1.1218   -5.2014 O   0  0  0  0  0  0  0  0  0  0  0  0
   10.7119    3.4437   -5.3729 C   0  0  0  0  0  0  0  0  0  0  0  0
   11.2826    2.0508   -7.3958 C   0  0  0  0  0  0  0  0  0  0  0  0
   11.8868    0.4079   -5.5472 H   0  0  0  0  0  0  0  0  0  0  0  0
 32 29  1  0  0  0
 28 27  2  0  0  0
 29 27  1  0  0  0
 29 31  1  0  0  0
 29 30  1  0  0  0
 27 26  1  0  0  0
 26 21  1  0  0  0
 26 25  1  0  0  0
 21 22  1  0  0  0
 22 23  1  0  0  0
 25 24  1  0  0  0
 24 23  1  0  0  0
 23  6  1  0  0  0
  5  6  2  0  0  0
  5  2  1  0  0  0
  6  1  1  0  0  0
  2  3  2  0  0  0
  1  4  2  0  0  0
  4  3  1  0  0  0
  3  7  1  0  0  0
 19  8  2  0  0  0
  7  8  1  0  0  0
  8 18  1  0  0  0
 18 12  1  0  0  0
 18 17  1  0  0  0
 12 11  2  0  0  0
 17  9  2  0  0  0
 11  9  1  0  0  0
 11 16  1  0  0  0
  9 15  1  0  0  0
 16 14  2  0  0  0
 15 10  2  0  0  0
 14 10  1  0  0  0
 14 13  1  0  0  0
  7 20  1  0  0  0
 30 33  1  0  0  0
M  END
> <minimizedAffinity>
-15.00025

$$$$
5UPF_8HV_A_901


 33 36  0  0  0  0  0  0  0  0999 V2000
   16.4053    4.8671   -0.2817 C   0  0  0  0  0  0  0  0  0  0  0  0
   14.4232    6.7963   -0.1794 C   0  0  0  0  0  0  0  0  0  0  0  0
   15.4751    6.8375    0.7379 C   0  0  0  0  0  0  0  0  0  0  0  0
   16.4915    5.8905    0.6435 C   0  0  0  0  0  0  0  0  0  0  0  0
   14.3637    5.7844   -1.1243 C   0  0  0  0  0  0  0  0  0  0  0  0
   15.3363    4.7852   -1.1687 C   0  0  0  0  0  0  0  0  0  0  0  0
   15.5868    7.7350    1.8279 N   0  0  0  0  0  0  0  0  0  0  0  0
   14.7645    8.7726    2.1714 C   0  0  0  0  0  0  0  0  0  0  0  0
   15.2804    9.0296    5.6727 C   0  0  0  0  0  0  0  0  0  0  0  0
   14.9764    9.2008    8.0671 C   0  0  0  0  0  0  0  0  0  0  0  0
   14.1994    9.8860    5.4779 C   0  0  0  0  0  0  0  0  0  0  0  0
   14.0476   10.2295    4.0281 C   0  0  0  0  0  0  0  0  0  0  0  0
   13.2215   10.5686    8.8899 F   0  0  0  0  0  0  0  0  0  0  0  0
   13.9015   10.0415    7.8258 C   0  0  0  0  0  0  0  0  0  0  0  0
   15.6601    8.6772    6.9700 C   0  0  0  0  0  0  0  0  0  0  0  0
   13.4918   10.3888    6.5641 C   0  0  0  0  0  0  0  0  0  0  0  0
   15.9044    8.6799    4.3497 C   0  0  0  0  0  0  0  0  0  0  0  0
   15.0117    9.3344    3.3864 N   0  0  0  0  0  0  0  0  0  0  0  0
   13.7795    9.1009    1.5205 O   0  0  0  0  0  0  0  0  0  0  0  0
   16.3615    7.5926    2.4186 H   0  0  0  0  0  0  0  0  0  0  0  0
   16.4189    1.7993   -3.4086 C   0  0  0  0  0  0  0  0  0  0  0  0
   16.5869    2.9847   -2.4531 C   0  0  0  0  0  0  0  0  0  0  0  0
   15.2289    3.6081   -2.1124 C   0  0  0  0  0  0  0  0  0  0  0  0
   14.4445    3.9223   -3.3969 C   0  0  0  0  0  0  0  0  0  0  0  0
   14.3710    2.7068   -4.3165 C   0  0  0  0  0  0  0  0  0  0  0  0
   15.7214    2.2152   -4.6313 N   0  0  0  0  0  0  0  0  0  0  0  0
   16.3082    2.1706   -5.8433 C   0  0  0  0  0  0  0  0  0  0  0  0
   17.4553    1.7798   -5.9688 O   0  0  0  0  0  0  0  0  0  0  0  0
   15.6715    2.5679   -7.1796 C   0  0  0  0  0  0  0  0  0  0  0  0
   16.5915    2.4020   -8.2667 O   0  0  0  0  0  0  0  0  0  0  0  0
   14.4514    1.6867   -7.4243 C   0  0  0  0  0  0  0  0  0  0  0  0
   15.2891    4.0476   -7.1372 C   0  0  0  0  0  0  0  0  0  0  0  0
   17.3712    2.9597   -8.1185 H   0  0  0  0  0  0  0  0  0  0  0  0
 32 29  1  0  0  0
 28 27  2  0  0  0
 29 27  1  0  0  0
 29 31  1  0  0  0
 29 30  1  0  0  0
 27 26  1  0  0  0
 26 21  1  0  0  0
 26 25  1  0  0  0
 21 22  1  0  0  0
 22 23  1  0  0  0
 25 24  1  0  0  0
 24 23  1  0  0  0
 23  6  1  0  0  0
  5  6  2  0  0  0
  5  2  1  0  0  0
  6  1  1  0  0  0
  2  3  2  0  0  0
  1  4  2  0  0  0
  4  3  1  0  0  0
  3  7  1  0  0  0
 19  8  2  0  0  0
  7  8  1  0  0  0
  8 18  1  0  0  0
 18 12  1  0  0  0
 18 17  1  0  0  0
 12 11  2  0  0  0
 17  9  2  0  0  0
 11  9  1  0  0  0
 11 16  1  0  0  0
  9 15  1  0  0  0
 16 14  2  0  0  0
 15 10  2  0  0  0
 14 10  1  0  0  0
 14 13  1  0  0  0
  7 20  1  0  0  0
 30 33  1  0  0  0
M  END
> <minimizedAffinity>
-13.62649

$$$$
5UPF_8HV_A_901


 33 36  0  0  0  0  0  0  0  0999 V2000
   14.4019    4.5076   -0.1760 C   0  0  0  0  0  0  0  0  0  0  0  0
   16.9276    5.5742    0.2032 C   0  0  0  0  0  0  0  0  0  0  0  0
   15.8688    6.0040    1.0055 C   0  0  0  0  0  0  0  0  0  0  0  0
   14.6147    5.4230    0.8376 C   0  0  0  0  0  0  0  0  0  0  0  0
   16.7103    4.6315   -0.7890 C   0  0  0  0  0  0  0  0  0  0  0  0
   15.4371    4.1080   -1.0157 C   0  0  0  0  0  0  0  0  0  0  0  0
   15.9267    7.0474    1.9616 N   0  0  0  0  0  0  0  0  0  0  0  0
   15.1594    8.1765    2.0453 C   0  0  0  0  0  0  0  0  0  0  0  0
   15.2816    8.9282    5.5111 C   0  0  0  0  0  0  0  0  0  0  0  0
   14.7147    9.4805    7.7977 C   0  0  0  0  0  0  0  0  0  0  0  0
   14.3061    9.8137    5.0592 C   0  0  0  0  0  0  0  0  0  0  0  0
   14.3543    9.9422    3.5679 C   0  0  0  0  0  0  0  0  0  0  0  0
   12.9959   11.0690    8.1852 F   0  0  0  0  0  0  0  0  0  0  0  0
   13.7494   10.3431    7.3031 C   0  0  0  0  0  0  0  0  0  0  0  0
   15.4760    8.7529    6.8832 C   0  0  0  0  0  0  0  0  0  0  0  0
   13.5207   10.5208    5.9628 C   0  0  0  0  0  0  0  0  0  0  0  0
   16.0247    8.3416    4.3425 C   0  0  0  0  0  0  0  0  0  0  0  0
   15.3087    8.8991    3.1892 N   0  0  0  0  0  0  0  0  0  0  0  0
   14.2882    8.4658    1.2335 O   0  0  0  0  0  0  0  0  0  0  0  0
   16.6123    6.9461    2.6608 H   0  0  0  0  0  0  0  0  0  0  0  0
   15.7459    2.4183   -4.5020 C   0  0  0  0  0  0  0  0  0  0  0  0
   16.0759    3.3953   -3.3693 C   0  0  0  0  0  0  0  0  0  0  0  0
   15.1536    3.1685   -2.1666 C   0  0  0  0  0  0  0  0  0  0  0  0
   13.6815    3.1703   -2.6104 C   0  0  0  0  0  0  0  0  0  0  0  0
   13.4497    2.2133   -3.7761 C   0  0  0  0  0  0  0  0  0  0  0  0
   14.3389    2.5443   -4.9004 N   0  0  0  0  0  0  0  0  0  0  0  0
   13.9751    2.9552   -6.1309 C   0  0  0  0  0  0  0  0  0  0  0  0
   14.8128    3.2425   -6.9675 O   0  0  0  0  0  0  0  0  0  0  0  0
   12.5428    3.1106   -6.6537 C   0  0  0  0  0  0  0  0  0  0  0  0
   11.8431    4.1518   -5.9594 O   0  0  0  0  0  0  0  0  0  0  0  0
   12.5955    3.4539   -8.1384 C   0  0  0  0  0  0  0  0  0  0  0  0
   11.7723    1.8126   -6.4103 C   0  0  0  0  0  0  0  0  0  0  0  0
   11.8051    3.9408   -5.0134 H   0  0  0  0  0  0  0  0  0  0  0  0
 32 29  1  0  0  0
 28 27  2  0  0  0
 29 27  1  0  0  0
 29 31  1  0  0  0
 29 30  1  0  0  0
 27 26  1  0  0  0
 26 21  1  0  0  0
 26 25  1  0  0  0
 21 22  1  0  0  0
 22 23  1  0  0  0
 25 24  1  0  0  0
 24 23  1  0  0  0
 23  6  1  0  0  0
  5  6  2  0  0  0
  5  2  1  0  0  0
  6  1  1  0  0  0
  2  3  2  0  0  0
  1  4  2  0  0  0
  4  3  1  0  0  0
  3  7  1  0  0  0
 19  8  2  0  0  0
  7  8  1  0  0  0
  8 18  1  0  0  0
 18 12  1  0  0  0
 18 17  1  0  0  0
 12 11  2  0  0  0
 17  9  2  0  0  0
 11  9  1  0  0  0
 11 16  1  0  0  0
  9 15  1  0  0  0
 16 14  2  0  0  0
 15 10  2  0  0  0
 14 10  1  0  0  0
 14 13  1  0  0  0
  7 20  1  0  0  0
 30 33  1  0  0  0
M  END
> <minimizedAffinity>
-13.49374

$$$$
5UPF_8HV_A_901


 33 36  0  0  0  0  0  0  0  0999 V2000
   13.9735    6.4494   -1.3803 C   0  0  0  0  0  0  0  0  0  0  0  0
   15.9985    5.6567    0.3321 C   0  0  0  0  0  0  0  0  0  0  0  0
   15.2157    6.7668    0.6553 C   0  0  0  0  0  0  0  0  0  0  0  0
   14.1686    7.1244   -0.1899 C   0  0  0  0  0  0  0  0  0  0  0  0
   15.7732    4.9668   -0.8485 C   0  0  0  0  0  0  0  0  0  0  0  0
   14.7788    5.3726   -1.7388 C   0  0  0  0  0  0  0  0  0  0  0  0
   15.4224    7.6312    1.7581 N   0  0  0  0  0  0  0  0  0  0  0  0
   14.6873    8.7179    2.1447 C   0  0  0  0  0  0  0  0  0  0  0  0
   15.3178    8.8648    5.6336 C   0  0  0  0  0  0  0  0  0  0  0  0
   15.0938    9.0080    8.0386 C   0  0  0  0  0  0  0  0  0  0  0  0
   14.2966    9.8005    5.4865 C   0  0  0  0  0  0  0  0  0  0  0  0
   14.1298   10.1839    4.0484 C   0  0  0  0  0  0  0  0  0  0  0  0
   13.4662   10.4810    8.9378 F   0  0  0  0  0  0  0  0  0  0  0  0
   14.0763    9.9285    7.8445 C   0  0  0  0  0  0  0  0  0  0  0  0
   15.7070    8.4594    6.9125 C   0  0  0  0  0  0  0  0  0  0  0  0
   13.6579   10.3304    6.6021 C   0  0  0  0  0  0  0  0  0  0  0  0
   15.8777    8.4986    4.2867 C   0  0  0  0  0  0  0  0  0  0  0  0
   15.0082    9.2353    3.3622 N   0  0  0  0  0  0  0  0  0  0  0  0
   13.7109    9.1295    1.5292 O   0  0  0  0  0  0  0  0  0  0  0  0
   16.2009    7.4214    2.3231 H   0  0  0  0  0  0  0  0  0  0  0  0
   13.5379    2.8395   -4.4125 C   0  0  0  0  0  0  0  0  0  0  0  0
   13.6920    3.4699   -3.0249 C   0  0  0  0  0  0  0  0  0  0  0  0
   14.5928    4.7083   -3.0848 C   0  0  0  0  0  0  0  0  0  0  0  0
   15.9170    4.3759   -3.7920 C   0  0  0  0  0  0  0  0  0  0  0  0
   15.6753    3.7023   -5.1397 C   0  0  0  0  0  0  0  0  0  0  0  0
   14.8501    2.4958   -4.9732 N   0  0  0  0  0  0  0  0  0  0  0  0
   15.2075    1.2237   -5.2367 C   0  0  0  0  0  0  0  0  0  0  0  0
   14.4443    0.3007   -5.0140 O   0  0  0  0  0  0  0  0  0  0  0  0
   16.5408    0.7558   -5.8301 C   0  0  0  0  0  0  0  0  0  0  0  0
   16.9163    1.5506   -6.9629 O   0  0  0  0  0  0  0  0  0  0  0  0
   17.6228    0.8731   -4.7622 C   0  0  0  0  0  0  0  0  0  0  0  0
   16.3977   -0.6853   -6.3206 C   0  0  0  0  0  0  0  0  0  0  0  0
   16.2326    1.4813   -7.6474 H   0  0  0  0  0  0  0  0  0  0  0  0
 32 29  1  0  0  0
 28 27  2  0  0  0
 29 27  1  0  0  0
 29 31  1  0  0  0
 29 30  1  0  0  0
 27 26  1  0  0  0
 26 21  1  0  0  0
 26 25  1  0  0  0
 21 22  1  0  0  0
 22 23  1  0  0  0
 25 24  1  0  0  0
 24 23  1  0  0  0
 23  6  1  0  0  0
  5  6  2  0  0  0
  5  2  1  0  0  0
  6  1  1  0  0  0
  2  3  2  0  0  0
  1  4  2  0  0  0
  4  3  1  0  0  0
  3  7  1  0  0  0
 19  8  2  0  0  0
  7  8  1  0  0  0
  8 18  1  0  0  0
 18 12  1  0  0  0
 18 17  1  0  0  0
 12 11  2  0  0  0
 17  9  2  0  0  0
 11  9  1  0  0  0
 11 16  1  0  0  0
  9 15  1  0  0  0
 16 14  2  0  0  0
 15 10  2  0  0  0
 14 10  1  0  0  0
 14 13  1  0  0  0
  7 20  1  0  0  0
 30 33  1  0  0  0
M  END
> <minimizedAffinity>
-13.49250

$$$$
5UPF_8HV_A_901


 33 36  0  0  0  0  0  0  0  0999 V2000
   13.9953    9.9627    3.9380 C   0  0  0  0  0  0  0  0  0  0  0  0
   15.9477    8.0305    3.5984 C   0  0  0  0  0  0  0  0  0  0  0  0
   15.1633    8.4184    2.5104 C   0  0  0  0  0  0  0  0  0  0  0  0
   14.2189    9.4268    2.6836 C   0  0  0  0  0  0  0  0  0  0  0  0
   15.7373    8.5980    4.8450 C   0  0  0  0  0  0  0  0  0  0  0  0
   14.7356    9.5489    5.0413 C   0  0  0  0  0  0  0  0  0  0  0  0
   15.1874    7.8300    1.2223 N   0  0  0  0  0  0  0  0  0  0  0  0
   15.9781    6.8148    0.7586 C   0  0  0  0  0  0  0  0  0  0  0  0
   13.9897    5.4180   -1.8274 C   0  0  0  0  0  0  0  0  0  0  0  0
   12.7794    3.9072   -3.2791 C   0  0  0  0  0  0  0  0  0  0  0  0
   15.0183    4.4850   -1.7200 C   0  0  0  0  0  0  0  0  0  0  0  0
   16.1749    5.0541   -0.9576 C   0  0  0  0  0  0  0  0  0  0  0  0
   13.7593    1.8106   -3.8001 F   0  0  0  0  0  0  0  0  0  0  0  0
   13.8218    3.0054   -3.1359 C   0  0  0  0  0  0  0  0  0  0  0  0
   12.8631    5.1216   -2.5983 C   0  0  0  0  0  0  0  0  0  0  0  0
   14.9305    3.2589   -2.3697 C   0  0  0  0  0  0  0  0  0  0  0  0
   14.3551    6.6740   -1.0852 C   0  0  0  0  0  0  0  0  0  0  0  0
   15.6375    6.3229   -0.4642 N   0  0  0  0  0  0  0  0  0  0  0  0
   16.8454    6.2698    1.4312 O   0  0  0  0  0  0  0  0  0  0  0  0
   14.5484    8.2022    0.5725 H   0  0  0  0  0  0  0  0  0  0  0  0
   14.1800    9.6455    8.8866 C   0  0  0  0  0  0  0  0  0  0  0  0
   14.5180    9.0397    7.5209 C   0  0  0  0  0  0  0  0  0  0  0  0
   14.4104   10.0942    6.4141 C   0  0  0  0  0  0  0  0  0  0  0  0
   13.0508   10.8088    6.4830 C   0  0  0  0  0  0  0  0  0  0  0  0
   12.7675   11.3333    7.8877 C   0  0  0  0  0  0  0  0  0  0  0  0
   12.8386   10.2411    8.8707 N   0  0  0  0  0  0  0  0  0  0  0  0
   11.8374    9.7766    9.6436 C   0  0  0  0  0  0  0  0  0  0  0  0
   12.0121    8.8314   10.3921 O   0  0  0  0  0  0  0  0  0  0  0  0
   10.4092   10.3279    9.7140 C   0  0  0  0  0  0  0  0  0  0  0  0
    9.8022   10.3743    8.4158 O   0  0  0  0  0  0  0  0  0  0  0  0
    9.5772    9.4246   10.6178 C   0  0  0  0  0  0  0  0  0  0  0  0
   10.4464   11.7618   10.2435 C   0  0  0  0  0  0  0  0  0  0  0  0
   10.3259   10.9474    7.8343 H   0  0  0  0  0  0  0  0  0  0  0  0
 32 29  1  0  0  0
 28 27  2  0  0  0
 29 27  1  0  0  0
 29 31  1  0  0  0
 29 30  1  0  0  0
 27 26  1  0  0  0
 26 21  1  0  0  0
 26 25  1  0  0  0
 21 22  1  0  0  0
 22 23  1  0  0  0
 25 24  1  0  0  0
 24 23  1  0  0  0
 23  6  1  0  0  0
  5  6  2  0  0  0
  5  2  1  0  0  0
  6  1  1  0  0  0
  2  3  2  0  0  0
  1  4  2  0  0  0
  4  3  1  0  0  0
  3  7  1  0  0  0
 19  8  2  0  0  0
  7  8  1  0  0  0
  8 18  1  0  0  0
 18 12  1  0  0  0
 18 17  1  0  0  0
 12 11  2  0  0  0
 17  9  2  0  0  0
 11  9  1  0  0  0
 11 16  1  0  0  0
  9 15  1  0  0  0
 16 14  2  0  0  0
 15 10  2  0  0  0
 14 10  1  0  0  0
 14 13  1  0  0  0
  7 20  1  0  0  0
 30 33  1  0  0  0
M  END
> <minimizedAffinity>
-12.63021

$$$$
