2GVJ_DGB_A_502


 30 32  0  0  0  0  0  0  0  0999 V2000
   14.7092    5.3779   -0.7158 C   0  0  0  0  0  0  0  0  0  0  0  0
   15.1002    6.0056    0.6239 C   0  0  0  0  0  0  0  0  0  0  0  0
   15.5660    7.4649    0.5375 C   0  0  0  0  0  0  0  0  0  0  0  0
   17.2135    8.4534    2.6904 O   0  0  0  0  0  0  0  0  0  0  0  0
   15.1783    8.0142    1.8300 N   0  0  0  0  0  0  0  0  0  0  0  0
   15.9899    8.4560    2.7910 C   0  0  0  0  0  0  0  0  0  0  0  0
   14.2124    8.0647    2.0136 H   0  0  0  0  0  0  0  0  0  0  0  0
   15.3694    8.9144    3.8918 C   0  0  0  0  0  0  0  0  0  0  0  0
   15.6730    8.5037    5.1284 C   0  0  0  0  0  0  0  0  0  0  0  0
   14.6248    9.2454    8.6738 C   0  0  0  0  0  0  0  0  0  0  0  0
   13.6121   10.1667    8.4238 C   0  0  0  0  0  0  0  0  0  0  0  0
   15.3076    8.6885    7.6043 C   0  0  0  0  0  0  0  0  0  0  0  0
   13.9386    9.9975    6.1210 C   0  0  0  0  0  0  0  0  0  0  0  0
   13.2853   10.5232    7.1694 N   0  0  0  0  0  0  0  0  0  0  0  0
   14.9641    9.0720    6.3060 C   0  0  0  0  0  0  0  0  0  0  0  0
   15.8834    4.5441   -1.2413 C   0  0  0  0  0  0  0  0  0  0  0  0
   14.4340    3.7560   -7.1541 O   0  0  0  0  0  0  0  0  0  0  0  0
   16.2568    4.1846   -3.7651 C   0  0  0  0  0  0  0  0  0  0  0  0
   14.1267    3.4194   -2.6984 C   0  0  0  0  0  0  0  0  0  0  0  0
   16.0418    3.1931   -4.9263 C   0  0  0  0  0  0  0  0  0  0  0  0
   13.9329    2.4358   -3.8510 C   0  0  0  0  0  0  0  0  0  0  0  0
   13.8989    3.2936   -6.1545 C   0  0  0  0  0  0  0  0  0  0  0  0
   15.6225    3.6533   -2.4676 C   0  0  0  0  0  0  0  0  0  0  0  0
   14.5848    2.9978   -5.0397 N   0  0  0  0  0  0  0  0  0  0  0  0
    9.6634    2.6963   -6.1945 C   0  0  0  0  0  0  0  0  0  0  0  0
   10.4861    1.8193   -6.8934 C   0  0  0  0  0  0  0  0  0  0  0  0
   10.2082    3.7620   -5.4865 C   0  0  0  0  0  0  0  0  0  0  0  0
   11.8667    2.0113   -6.8881 C   0  0  0  0  0  0  0  0  0  0  0  0
   11.5858    3.9519   -5.4802 C   0  0  0  0  0  0  0  0  0  0  0  0
   12.4134    3.0791   -6.1803 C   0  0  0  0  0  0  0  0  0  0  0  0
  4  6  2  0  0  0
 17 22  2  0  0  0
  8  9  2  0  0  0
  8  6  1  0  0  0
  9 15  1  0  0  0
 25 26  2  0  0  0
 25 27  1  0  0  0
 26 28  1  0  0  0
 27 29  2  0  0  0
 10 11  2  0  0  0
 10 12  1  0  0  0
 11 14  1  0  0  0
 12 15  2  0  0  0
 28 30  2  0  0  0
 29 30  1  0  0  0
 13 14  2  0  0  0
 13 15  1  0  0  0
  2  1  1  0  0  0
  2  3  1  0  0  0
  1 16  1  0  0  0
  3  5  1  0  0  0
 16 23  1  0  0  0
 18 20  1  0  0  0
 18 23  1  0  0  0
 19 21  1  0  0  0
 19 23  1  0  0  0
 20 24  1  0  0  0
 21 24  1  0  0  0
  5  6  1  0  0  0
 22 30  1  0  0  0
 22 24  1  0  0  0
  5  7  1  0  0  0
M  END
> <minimizedAffinity>
-11.44118

$$$$
2GVJ_DGB_A_502


 30 32  0  0  0  0  0  0  0  0999 V2000
   14.8190    6.9309    0.4652 C   0  0  0  0  0  0  0  0  0  0  0  0
   15.9769    6.6414    1.4229 C   0  0  0  0  0  0  0  0  0  0  0  0
   16.7638    7.8798    1.8715 C   0  0  0  0  0  0  0  0  0  0  0  0
   14.6652    9.8188    2.2743 O   0  0  0  0  0  0  0  0  0  0  0  0
   16.0862    8.2772    3.0985 N   0  0  0  0  0  0  0  0  0  0  0  0
   15.1188    9.1860    3.2236 C   0  0  0  0  0  0  0  0  0  0  0  0
   16.3738    7.8257    3.9248 H   0  0  0  0  0  0  0  0  0  0  0  0
   14.6647    9.3629    4.4763 C   0  0  0  0  0  0  0  0  0  0  0  0
   15.3305    8.9520    5.5616 C   0  0  0  0  0  0  0  0  0  0  0  0
   13.1264   10.1408    8.3807 C   0  0  0  0  0  0  0  0  0  0  0  0
   13.8361    9.6213    9.4592 C   0  0  0  0  0  0  0  0  0  0  0  0
   13.6048    9.9331    7.0968 C   0  0  0  0  0  0  0  0  0  0  0  0
   15.4490    8.7113    8.0421 C   0  0  0  0  0  0  0  0  0  0  0  0
   14.9726    8.9262    9.2786 N   0  0  0  0  0  0  0  0  0  0  0  0
   14.7825    9.2033    6.9214 C   0  0  0  0  0  0  0  0  0  0  0  0
   15.1777    6.4055   -0.9296 C   0  0  0  0  0  0  0  0  0  0  0  0
   15.6328    1.3310   -4.3538 O   0  0  0  0  0  0  0  0  0  0  0  0
   16.0160    4.0792   -1.6534 C   0  0  0  0  0  0  0  0  0  0  0  0
   13.7356    4.8506   -2.3355 C   0  0  0  0  0  0  0  0  0  0  0  0
   15.5906    2.6114   -1.8590 C   0  0  0  0  0  0  0  0  0  0  0  0
   13.3267    3.3911   -2.5255 C   0  0  0  0  0  0  0  0  0  0  0  0
   14.6378    1.9768   -4.0500 C   0  0  0  0  0  0  0  0  0  0  0  0
   14.8108    4.9465   -1.2492 C   0  0  0  0  0  0  0  0  0  0  0  0
   14.5284    2.6274   -2.8814 N   0  0  0  0  0  0  0  0  0  0  0  0
   11.4367    2.1732   -6.8805 C   0  0  0  0  0  0  0  0  0  0  0  0
   12.4023    3.1742   -6.8669 C   0  0  0  0  0  0  0  0  0  0  0  0
   11.5059    1.1140   -5.9822 C   0  0  0  0  0  0  0  0  0  0  0  0
   13.4452    3.1183   -5.9439 C   0  0  0  0  0  0  0  0  0  0  0  0
   12.5478    1.0579   -5.0628 C   0  0  0  0  0  0  0  0  0  0  0  0
   13.5149    2.0585   -5.0429 C   0  0  0  0  0  0  0  0  0  0  0  0
  4  6  2  0  0  0
 17 22  2  0  0  0
  8  9  2  0  0  0
  8  6  1  0  0  0
  9 15  1  0  0  0
 25 26  2  0  0  0
 25 27  1  0  0  0
 26 28  1  0  0  0
 27 29  2  0  0  0
 10 11  2  0  0  0
 10 12  1  0  0  0
 11 14  1  0  0  0
 12 15  2  0  0  0
 28 30  2  0  0  0
 29 30  1  0  0  0
 13 14  2  0  0  0
 13 15  1  0  0  0
  2  1  1  0  0  0
  2  3  1  0  0  0
  1 16  1  0  0  0
  3  5  1  0  0  0
 16 23  1  0  0  0
 18 20  1  0  0  0
 18 23  1  0  0  0
 19 21  1  0  0  0
 19 23  1  0  0  0
 20 24  1  0  0  0
 21 24  1  0  0  0
  5  6  1  0  0  0
 22 30  1  0  0  0
 22 24  1  0  0  0
  5  7  1  0  0  0
M  END
> <minimizedAffinity>
-11.02388

$$$$
2GVJ_DGB_A_502


 30 32  0  0  0  0  0  0  0  0999 V2000
   16.9508    3.9145   -1.4344 C   0  0  0  0  0  0  0  0  0  0  0  0
   15.6361    4.5574   -0.9872 C   0  0  0  0  0  0  0  0  0  0  0  0
   15.5247    6.0598   -1.2780 C   0  0  0  0  0  0  0  0  0  0  0  0
   17.2609    6.8647    0.8816 O   0  0  0  0  0  0  0  0  0  0  0  0
   15.1920    6.6258    0.0227 N   0  0  0  0  0  0  0  0  0  0  0  0
   16.0430    6.9787    0.9864 C   0  0  0  0  0  0  0  0  0  0  0  0
   14.2352    6.7626    0.2102 H   0  0  0  0  0  0  0  0  0  0  0  0
   15.4697    7.4781    2.0950 C   0  0  0  0  0  0  0  0  0  0  0  0
   16.0780    8.3539    2.9031 C   0  0  0  0  0  0  0  0  0  0  0  0
   15.0523    8.9942    6.4747 C   0  0  0  0  0  0  0  0  0  0  0  0
   14.0347    9.9184    6.2572 C   0  0  0  0  0  0  0  0  0  0  0  0
   15.7295    8.4694    5.3856 C   0  0  0  0  0  0  0  0  0  0  0  0
   14.3455    9.8135    3.9484 C   0  0  0  0  0  0  0  0  0  0  0  0
   13.6979   10.3079    5.0153 N   0  0  0  0  0  0  0  0  0  0  0  0
   15.3755    8.8871    4.1008 C   0  0  0  0  0  0  0  0  0  0  0  0
   16.7118    2.4266   -1.7156 C   0  0  0  0  0  0  0  0  0  0  0  0
   14.5014    3.8630   -7.2593 O   0  0  0  0  0  0  0  0  0  0  0  0
   16.7472    2.9773   -4.2323 C   0  0  0  0  0  0  0  0  0  0  0  0
   14.7001    1.9699   -3.2051 C   0  0  0  0  0  0  0  0  0  0  0  0
   16.3073    2.4759   -5.6224 C   0  0  0  0  0  0  0  0  0  0  0  0
   14.2829    1.4717   -4.5876 C   0  0  0  0  0  0  0  0  0  0  0  0
   14.0504    3.0964   -6.4177 C   0  0  0  0  0  0  0  0  0  0  0  0
   16.2277    2.0442   -3.1244 C   0  0  0  0  0  0  0  0  0  0  0  0
   14.8355    2.3940   -5.5865 N   0  0  0  0  0  0  0  0  0  0  0  0
    9.8031    2.7386   -6.0572 C   0  0  0  0  0  0  0  0  0  0  0  0
   10.4987    1.8541   -6.8747 C   0  0  0  0  0  0  0  0  0  0  0  0
   10.4782    3.7347   -5.3602 C   0  0  0  0  0  0  0  0  0  0  0  0
   11.8822    1.9685   -7.0000 C   0  0  0  0  0  0  0  0  0  0  0  0
   11.8587    3.8471   -5.4842 C   0  0  0  0  0  0  0  0  0  0  0  0
   12.5593    2.9665   -6.3032 C   0  0  0  0  0  0  0  0  0  0  0  0
  4  6  2  0  0  0
 17 22  2  0  0  0
  8  9  2  0  0  0
  8  6  1  0  0  0
  9 15  1  0  0  0
 25 26  2  0  0  0
 25 27  1  0  0  0
 26 28  1  0  0  0
 27 29  2  0  0  0
 10 11  2  0  0  0
 10 12  1  0  0  0
 11 14  1  0  0  0
 12 15  2  0  0  0
 28 30  2  0  0  0
 29 30  1  0  0  0
 13 14  2  0  0  0
 13 15  1  0  0  0
  2  1  1  0  0  0
  2  3  1  0  0  0
  1 16  1  0  0  0
  3  5  1  0  0  0
 16 23  1  0  0  0
 18 20  1  0  0  0
 18 23  1  0  0  0
 19 21  1  0  0  0
 19 23  1  0  0  0
 20 24  1  0  0  0
 21 24  1  0  0  0
  5  6  1  0  0  0
 22 30  1  0  0  0
 22 24  1  0  0  0
  5  7  1  0  0  0
M  END
> <minimizedAffinity>
-10.84114

$$$$
2GVJ_DGB_A_502


 30 32  0  0  0  0  0  0  0  0999 V2000
   14.4864    9.6029    3.8427 C   0  0  0  0  0  0  0  0  0  0  0  0
   14.8772    8.9192    2.5307 C   0  0  0  0  0  0  0  0  0  0  0  0
   15.9122    7.7959    2.6757 C   0  0  0  0  0  0  0  0  0  0  0  0
   17.6329    6.5518    0.7218 O   0  0  0  0  0  0  0  0  0  0  0  0
   15.5787    6.8939    1.5812 N   0  0  0  0  0  0  0  0  0  0  0  0
   16.4222    6.3490    0.7042 C   0  0  0  0  0  0  0  0  0  0  0  0
   14.6276    6.6616    1.4780 H   0  0  0  0  0  0  0  0  0  0  0  0
   15.8500    5.5483   -0.2114 C   0  0  0  0  0  0  0  0  0  0  0  0
   14.9798    5.9881   -1.1275 C   0  0  0  0  0  0  0  0  0  0  0  0
   12.5736    4.2713   -3.4688 C   0  0  0  0  0  0  0  0  0  0  0  0
   13.4164    3.2899   -3.9820 C   0  0  0  0  0  0  0  0  0  0  0  0
   13.0698    5.1613   -2.5297 C   0  0  0  0  0  0  0  0  0  0  0  0
   15.1961    4.0457   -2.6783 C   0  0  0  0  0  0  0  0  0  0  0  0
   14.6966    3.1898   -3.5839 N   0  0  0  0  0  0  0  0  0  0  0  0
   14.4033    5.0519   -2.1293 C   0  0  0  0  0  0  0  0  0  0  0  0
   15.1986    8.9023    5.0055 C   0  0  0  0  0  0  0  0  0  0  0  0
   12.9592    8.5951   10.7128 O   0  0  0  0  0  0  0  0  0  0  0  0
   15.1778    8.4547    7.5427 C   0  0  0  0  0  0  0  0  0  0  0  0
   13.6147   10.1445    6.5619 C   0  0  0  0  0  0  0  0  0  0  0  0
   15.0526    9.1277    8.9243 C   0  0  0  0  0  0  0  0  0  0  0  0
   13.5087   10.8056    7.9350 C   0  0  0  0  0  0  0  0  0  0  0  0
   12.7854    9.4514    9.8549 C   0  0  0  0  0  0  0  0  0  0  0  0
   14.9881    9.4832    6.4139 C   0  0  0  0  0  0  0  0  0  0  0  0
   13.7262    9.7711    8.9530 N   0  0  0  0  0  0  0  0  0  0  0  0
    8.9977   11.4360    9.7432 C   0  0  0  0  0  0  0  0  0  0  0  0
    9.1947   10.2911    8.9783 C   0  0  0  0  0  0  0  0  0  0  0  0
   10.0214   11.9369   10.5399 C   0  0  0  0  0  0  0  0  0  0  0  0
   10.4282    9.6426    9.0068 C   0  0  0  0  0  0  0  0  0  0  0  0
   11.2513   11.2883   10.5693 C   0  0  0  0  0  0  0  0  0  0  0  0
   11.4547   10.1441    9.8036 C   0  0  0  0  0  0  0  0  0  0  0  0
  4  6  2  0  0  0
 17 22  2  0  0  0
  8  9  2  0  0  0
  8  6  1  0  0  0
  9 15  1  0  0  0
 25 26  2  0  0  0
 25 27  1  0  0  0
 26 28  1  0  0  0
 27 29  2  0  0  0
 10 11  2  0  0  0
 10 12  1  0  0  0
 11 14  1  0  0  0
 12 15  2  0  0  0
 28 30  2  0  0  0
 29 30  1  0  0  0
 13 14  2  0  0  0
 13 15  1  0  0  0
  2  1  1  0  0  0
  2  3  1  0  0  0
  1 16  1  0  0  0
  3  5  1  0  0  0
 16 23  1  0  0  0
 18 20  1  0  0  0
 18 23  1  0  0  0
 19 21  1  0  0  0
 19 23  1  0  0  0
 20 24  1  0  0  0
 21 24  1  0  0  0
  5  6  1  0  0  0
 22 30  1  0  0  0
 22 24  1  0  0  0
  5  7  1  0  0  0
M  END
> <minimizedAffinity>
-10.11734

$$$$
2GVJ_DGB_A_502


 30 32  0  0  0  0  0  0  0  0999 V2000
   13.5808    5.0756   -2.5060 C   0  0  0  0  0  0  0  0  0  0  0  0
   14.6776    5.8357   -1.7570 C   0  0  0  0  0  0  0  0  0  0  0  0
   15.4450    5.0015   -0.7229 C   0  0  0  0  0  0  0  0  0  0  0  0
   17.2328    6.6936    0.7827 O   0  0  0  0  0  0  0  0  0  0  0  0
   15.2164    5.7235    0.5218 N   0  0  0  0  0  0  0  0  0  0  0  0
   16.0870    6.4932    1.1753 C   0  0  0  0  0  0  0  0  0  0  0  0
   14.3223    5.6331    0.9238 H   0  0  0  0  0  0  0  0  0  0  0  0
   15.6178    7.0460    2.3072 C   0  0  0  0  0  0  0  0  0  0  0  0
   15.8310    8.3238    2.6414 C   0  0  0  0  0  0  0  0  0  0  0  0
   15.1457    8.9785    6.2911 C   0  0  0  0  0  0  0  0  0  0  0  0
   14.1605    9.9536    6.1664 C   0  0  0  0  0  0  0  0  0  0  0  0
   15.7009    8.4318    5.1452 C   0  0  0  0  0  0  0  0  0  0  0  0
   14.2685    9.8564    3.8390 C   0  0  0  0  0  0  0  0  0  0  0  0
   13.7392   10.3715    4.9600 N   0  0  0  0  0  0  0  0  0  0  0  0
   15.2602    8.8791    3.8976 C   0  0  0  0  0  0  0  0  0  0  0  0
   14.2204    3.9467   -3.3226 C   0  0  0  0  0  0  0  0  0  0  0  0
   13.1878   -0.6021   -7.3132 O   0  0  0  0  0  0  0  0  0  0  0  0
   13.4838    1.6237   -4.1589 C   0  0  0  0  0  0  0  0  0  0  0  0
   13.4642    3.5761   -5.7236 C   0  0  0  0  0  0  0  0  0  0  0  0
   12.4635    0.8877   -5.0503 C   0  0  0  0  0  0  0  0  0  0  0  0
   12.4463    2.8379   -6.5911 C   0  0  0  0  0  0  0  0  0  0  0  0
   13.0092    0.6022   -7.4443 C   0  0  0  0  0  0  0  0  0  0  0  0
   13.3012    3.1482   -4.2622 C   0  0  0  0  0  0  0  0  0  0  0  0
   12.6660    1.3970   -6.4191 N   0  0  0  0  0  0  0  0  0  0  0  0
   13.5651    2.2941  -11.3336 C   0  0  0  0  0  0  0  0  0  0  0  0
   14.5704    2.4209  -10.3807 C   0  0  0  0  0  0  0  0  0  0  0  0
   12.3853    1.6238  -11.0295 C   0  0  0  0  0  0  0  0  0  0  0  0
   14.3933    1.8758   -9.1101 C   0  0  0  0  0  0  0  0  0  0  0  0
   12.2101    1.0787   -9.7622 C   0  0  0  0  0  0  0  0  0  0  0  0
   13.2114    1.2052   -8.8041 C   0  0  0  0  0  0  0  0  0  0  0  0
  4  6  2  0  0  0
 17 22  2  0  0  0
  8  9  2  0  0  0
  8  6  1  0  0  0
  9 15  1  0  0  0
 25 26  2  0  0  0
 25 27  1  0  0  0
 26 28  1  0  0  0
 27 29  2  0  0  0
 10 11  2  0  0  0
 10 12  1  0  0  0
 11 14  1  0  0  0
 12 15  2  0  0  0
 28 30  2  0  0  0
 29 30  1  0  0  0
 13 14  2  0  0  0
 13 15  1  0  0  0
  2  1  1  0  0  0
  2  3  1  0  0  0
  1 16  1  0  0  0
  3  5  1  0  0  0
 16 23  1  0  0  0
 18 20  1  0  0  0
 18 23  1  0  0  0
 19 21  1  0  0  0
 19 23  1  0  0  0
 20 24  1  0  0  0
 21 24  1  0  0  0
  5  6  1  0  0  0
 22 30  1  0  0  0
 22 24  1  0  0  0
  5  7  1  0  0  0
M  END
> <minimizedAffinity>
-10.01970

$$$$
2GVJ_DGB_A_502


 30 32  0  0  0  0  0  0  0  0999 V2000
   17.4366    2.6954   -3.1780 C   0  0  0  0  0  0  0  0  0  0  0  0
   17.0211    2.2974   -1.7600 C   0  0  0  0  0  0  0  0  0  0  0  0
   15.5058    2.2531   -1.5237 C   0  0  0  0  0  0  0  0  0  0  0  0
   14.7045    4.8016   -2.6143 O   0  0  0  0  0  0  0  0  0  0  0  0
   15.2387    3.5141   -0.8445 N   0  0  0  0  0  0  0  0  0  0  0  0
   14.8710    4.6663   -1.4055 C   0  0  0  0  0  0  0  0  0  0  0  0
   15.3407    3.5155    0.1347 H   0  0  0  0  0  0  0  0  0  0  0  0
   14.6888    5.6834   -0.5458 C   0  0  0  0  0  0  0  0  0  0  0  0
   15.5524    5.9794    0.4323 C   0  0  0  0  0  0  0  0  0  0  0  0
   15.8848    8.4948    3.2218 C   0  0  0  0  0  0  0  0  0  0  0  0
   14.7753    9.2885    2.9460 C   0  0  0  0  0  0  0  0  0  0  0  0
   16.1514    7.4043    2.4093 C   0  0  0  0  0  0  0  0  0  0  0  0
   14.2058    7.9671    1.1109 C   0  0  0  0  0  0  0  0  0  0  0  0
   13.9611    9.0166    1.9113 N   0  0  0  0  0  0  0  0  0  0  0  0
   15.3024    7.1362    1.3332 C   0  0  0  0  0  0  0  0  0  0  0  0
   17.6557    1.4276   -4.0115 C   0  0  0  0  0  0  0  0  0  0  0  0
   13.8999    3.0477   -8.5888 O   0  0  0  0  0  0  0  0  0  0  0  0
   16.8624    1.7910   -6.4357 C   0  0  0  0  0  0  0  0  0  0  0  0
   15.1841    1.4266   -4.6159 C   0  0  0  0  0  0  0  0  0  0  0  0
   15.8317    1.3378   -7.4891 C   0  0  0  0  0  0  0  0  0  0  0  0
   14.1775    0.9710   -5.6707 C   0  0  0  0  0  0  0  0  0  0  0  0
   13.6407    2.4817   -7.5343 C   0  0  0  0  0  0  0  0  0  0  0  0
   16.6047    1.0995   -5.0853 C   0  0  0  0  0  0  0  0  0  0  0  0
   14.5035    1.6501   -6.9303 N   0  0  0  0  0  0  0  0  0  0  0  0
    9.8773    3.2800   -5.6642 C   0  0  0  0  0  0  0  0  0  0  0  0
    9.9781    2.2449   -6.5878 C   0  0  0  0  0  0  0  0  0  0  0  0
   10.9886    4.0536   -5.3476 C   0  0  0  0  0  0  0  0  0  0  0  0
   11.2006    1.9828   -7.2041 C   0  0  0  0  0  0  0  0  0  0  0  0
   12.2084    3.7904   -5.9615 C   0  0  0  0  0  0  0  0  0  0  0  0
   12.3140    2.7579   -6.8885 C   0  0  0  0  0  0  0  0  0  0  0  0
  4  6  2  0  0  0
 17 22  2  0  0  0
  8  9  2  0  0  0
  8  6  1  0  0  0
  9 15  1  0  0  0
 25 26  2  0  0  0
 25 27  1  0  0  0
 26 28  1  0  0  0
 27 29  2  0  0  0
 10 11  2  0  0  0
 10 12  1  0  0  0
 11 14  1  0  0  0
 12 15  2  0  0  0
 28 30  2  0  0  0
 29 30  1  0  0  0
 13 14  2  0  0  0
 13 15  1  0  0  0
  2  1  1  0  0  0
  2  3  1  0  0  0
  1 16  1  0  0  0
  3  5  1  0  0  0
 16 23  1  0  0  0
 18 20  1  0  0  0
 18 23  1  0  0  0
 19 21  1  0  0  0
 19 23  1  0  0  0
 20 24  1  0  0  0
 21 24  1  0  0  0
  5  6  1  0  0  0
 22 30  1  0  0  0
 22 24  1  0  0  0
  5  7  1  0  0  0
M  END
> <minimizedAffinity>
-9.86483

$$$$
2GVJ_DGB_A_502


 30 32  0  0  0  0  0  0  0  0999 V2000
   13.3809    5.2515   -2.1102 C   0  0  0  0  0  0  0  0  0  0  0  0
   14.7028    5.9402   -1.7639 C   0  0  0  0  0  0  0  0  0  0  0  0
   15.5921    5.1659   -0.7822 C   0  0  0  0  0  0  0  0  0  0  0  0
   17.4177    6.6953    0.8471 O   0  0  0  0  0  0  0  0  0  0  0  0
   15.3617    5.8489    0.4840 N   0  0  0  0  0  0  0  0  0  0  0  0
   16.2504    6.5427    1.1956 C   0  0  0  0  0  0  0  0  0  0  0  0
   14.4512    5.7918    0.8543 H   0  0  0  0  0  0  0  0  0  0  0  0
   15.7745    7.0746    2.3347 C   0  0  0  0  0  0  0  0  0  0  0  0
   15.8260    8.3829    2.6097 C   0  0  0  0  0  0  0  0  0  0  0  0
   15.1511    8.9591    6.2745 C   0  0  0  0  0  0  0  0  0  0  0  0
   14.1587    9.9296    6.1734 C   0  0  0  0  0  0  0  0  0  0  0  0
   15.7054    8.4395    5.1156 C   0  0  0  0  0  0  0  0  0  0  0  0
   14.2578    9.8801    3.8441 C   0  0  0  0  0  0  0  0  0  0  0  0
   13.7296   10.3687    4.9774 N   0  0  0  0  0  0  0  0  0  0  0  0
   15.2566    8.9087    3.8791 C   0  0  0  0  0  0  0  0  0  0  0  0
   13.6761    3.8788   -2.7254 C   0  0  0  0  0  0  0  0  0  0  0  0
   15.4895    1.0594   -7.8680 O   0  0  0  0  0  0  0  0  0  0  0  0
   13.6424    3.1771   -5.2043 C   0  0  0  0  0  0  0  0  0  0  0  0
   15.8028    3.1925   -3.9421 C   0  0  0  0  0  0  0  0  0  0  0  0
   14.4104    3.2798   -6.5374 C   0  0  0  0  0  0  0  0  0  0  0  0
   16.5486    3.3037   -5.2706 C   0  0  0  0  0  0  0  0  0  0  0  0
   16.1626    1.5981   -6.9983 C   0  0  0  0  0  0  0  0  0  0  0  0
   14.4274    3.8544   -4.0672 C   0  0  0  0  0  0  0  0  0  0  0  0
   15.7286    2.6617   -6.3047 N   0  0  0  0  0  0  0  0  0  0  0  0
   20.0159   -0.0521   -6.1459 C   0  0  0  0  0  0  0  0  0  0  0  0
   18.9696   -0.2566   -5.2526 C   0  0  0  0  0  0  0  0  0  0  0  0
   19.8168    0.6833   -7.3092 C   0  0  0  0  0  0  0  0  0  0  0  0
   17.7129    0.2826   -5.5224 C   0  0  0  0  0  0  0  0  0  0  0  0
   18.5622    1.2193   -7.5787 C   0  0  0  0  0  0  0  0  0  0  0  0
   17.5126    1.0203   -6.6867 C   0  0  0  0  0  0  0  0  0  0  0  0
  4  6  2  0  0  0
 17 22  2  0  0  0
  8  9  2  0  0  0
  8  6  1  0  0  0
  9 15  1  0  0  0
 25 26  2  0  0  0
 25 27  1  0  0  0
 26 28  1  0  0  0
 27 29  2  0  0  0
 10 11  2  0  0  0
 10 12  1  0  0  0
 11 14  1  0  0  0
 12 15  2  0  0  0
 28 30  2  0  0  0
 29 30  1  0  0  0
 13 14  2  0  0  0
 13 15  1  0  0  0
  2  1  1  0  0  0
  2  3  1  0  0  0
  1 16  1  0  0  0
  3  5  1  0  0  0
 16 23  1  0  0  0
 18 20  1  0  0  0
 18 23  1  0  0  0
 19 21  1  0  0  0
 19 23  1  0  0  0
 20 24  1  0  0  0
 21 24  1  0  0  0
  5  6  1  0  0  0
 22 30  1  0  0  0
 22 24  1  0  0  0
  5  7  1  0  0  0
M  END
> <minimizedAffinity>
-9.69403

$$$$
2GVJ_DGB_A_502


 30 32  0  0  0  0  0  0  0  0999 V2000
   12.9462    3.8149   -7.0797 C   0  0  0  0  0  0  0  0  0  0  0  0
   11.6950    2.9890   -6.7728 C   0  0  0  0  0  0  0  0  0  0  0  0
   11.8844    1.9133   -5.6953 C   0  0  0  0  0  0  0  0  0  0  0  0
   14.0607    1.3820   -3.8766 O   0  0  0  0  0  0  0  0  0  0  0  0
   12.3405    2.6762   -4.5410 N   0  0  0  0  0  0  0  0  0  0  0  0
   13.3576    2.3781   -3.7322 C   0  0  0  0  0  0  0  0  0  0  0  0
   11.8440    3.5013   -4.3360 H   0  0  0  0  0  0  0  0  0  0  0  0
   13.5667    3.2559   -2.7359 C   0  0  0  0  0  0  0  0  0  0  0  0
   14.3217    4.3520   -2.8719 C   0  0  0  0  0  0  0  0  0  0  0  0
   15.2817    5.8135    0.4689 C   0  0  0  0  0  0  0  0  0  0  0  0
   14.7629    7.0956    0.3140 C   0  0  0  0  0  0  0  0  0  0  0  0
   15.1423    4.9013   -0.5649 C   0  0  0  0  0  0  0  0  0  0  0  0
   13.9902    6.5937   -1.8281 C   0  0  0  0  0  0  0  0  0  0  0  0
   14.1310    7.4625   -0.8145 N   0  0  0  0  0  0  0  0  0  0  0  0
   14.4903    5.2962   -1.7351 C   0  0  0  0  0  0  0  0  0  0  0  0
   13.7658    3.1017   -8.1613 C   0  0  0  0  0  0  0  0  0  0  0  0
   18.1197   -0.4161   -5.6412 O   0  0  0  0  0  0  0  0  0  0  0  0
   15.6065    1.3036   -8.0324 C   0  0  0  0  0  0  0  0  0  0  0  0
   15.6158    3.2153   -6.4182 C   0  0  0  0  0  0  0  0  0  0  0  0
   17.1125    1.0793   -7.7892 C   0  0  0  0  0  0  0  0  0  0  0  0
   17.1096    2.9864   -6.1953 C   0  0  0  0  0  0  0  0  0  0  0  0
   17.8770    0.7701   -5.4588 C   0  0  0  0  0  0  0  0  0  0  0  0
   15.2354    2.7842   -7.8376 C   0  0  0  0  0  0  0  0  0  0  0  0
   17.3883    1.5638   -6.4242 N   0  0  0  0  0  0  0  0  0  0  0  0
   18.5818    2.3737   -1.5563 C   0  0  0  0  0  0  0  0  0  0  0  0
   17.2783    2.2722   -2.0307 C   0  0  0  0  0  0  0  0  0  0  0  0
   19.6523    1.9590   -2.3409 C   0  0  0  0  0  0  0  0  0  0  0  0
   17.0424    1.7549   -3.3034 C   0  0  0  0  0  0  0  0  0  0  0  0
   19.4162    1.4413   -3.6098 C   0  0  0  0  0  0  0  0  0  0  0  0
   18.1141    1.3403   -4.0906 C   0  0  0  0  0  0  0  0  0  0  0  0
  4  6  2  0  0  0
 17 22  2  0  0  0
  8  9  2  0  0  0
  8  6  1  0  0  0
  9 15  1  0  0  0
 25 26  2  0  0  0
 25 27  1  0  0  0
 26 28  1  0  0  0
 27 29  2  0  0  0
 10 11  2  0  0  0
 10 12  1  0  0  0
 11 14  1  0  0  0
 12 15  2  0  0  0
 28 30  2  0  0  0
 29 30  1  0  0  0
 13 14  2  0  0  0
 13 15  1  0  0  0
  2  1  1  0  0  0
  2  3  1  0  0  0
  1 16  1  0  0  0
  3  5  1  0  0  0
 16 23  1  0  0  0
 18 20  1  0  0  0
 18 23  1  0  0  0
 19 21  1  0  0  0
 19 23  1  0  0  0
 20 24  1  0  0  0
 21 24  1  0  0  0
  5  6  1  0  0  0
 22 30  1  0  0  0
 22 24  1  0  0  0
  5  7  1  0  0  0
M  END
> <minimizedAffinity>
-9.22292

$$$$
2GVJ_DGB_A_502


 30 32  0  0  0  0  0  0  0  0999 V2000
   14.3064    3.9033   -3.0646 C   0  0  0  0  0  0  0  0  0  0  0  0
   14.2808    4.9196   -1.9208 C   0  0  0  0  0  0  0  0  0  0  0  0
   15.5869    5.0199   -1.1219 C   0  0  0  0  0  0  0  0  0  0  0  0
   17.2901    6.4597    0.7090 O   0  0  0  0  0  0  0  0  0  0  0  0
   15.2320    5.8974   -0.0143 N   0  0  0  0  0  0  0  0  0  0  0  0
   16.0685    6.5375    0.8030 C   0  0  0  0  0  0  0  0  0  0  0  0
   14.2704    6.0322    0.1482 H   0  0  0  0  0  0  0  0  0  0  0  0
   15.4758    7.2874    1.7481 C   0  0  0  0  0  0  0  0  0  0  0  0
   16.1172    7.7438    2.8299 C   0  0  0  0  0  0  0  0  0  0  0  0
   14.8951    9.1953    6.0886 C   0  0  0  0  0  0  0  0  0  0  0  0
   14.0656   10.1976    5.5944 C   0  0  0  0  0  0  0  0  0  0  0  0
   15.5720    8.3802    5.1954 C   0  0  0  0  0  0  0  0  0  0  0  0
   14.5600    9.6102    3.3925 C   0  0  0  0  0  0  0  0  0  0  0  0
   13.9092   10.3873    4.2727 N   0  0  0  0  0  0  0  0  0  0  0  0
   15.4071    8.5915    3.8247 C   0  0  0  0  0  0  0  0  0  0  0  0
   15.7195    3.8493   -3.6566 C   0  0  0  0  0  0  0  0  0  0  0  0
   16.5743    2.1575   -9.4952 O   0  0  0  0  0  0  0  0  0  0  0  0
   17.0078    3.2353   -5.8017 C   0  0  0  0  0  0  0  0  0  0  0  0
   14.7041    2.3325   -5.4293 C   0  0  0  0  0  0  0  0  0  0  0  0
   17.3068    2.0893   -6.7890 C   0  0  0  0  0  0  0  0  0  0  0  0
   15.0191    1.1980   -6.4025 C   0  0  0  0  0  0  0  0  0  0  0  0
   15.7524    1.7547   -8.6818 C   0  0  0  0  0  0  0  0  0  0  0  0
   15.9915    2.7882   -4.7362 C   0  0  0  0  0  0  0  0  0  0  0  0
   16.0099    1.6910   -7.3664 N   0  0  0  0  0  0  0  0  0  0  0  0
   11.8800    0.6105  -10.0937 C   0  0  0  0  0  0  0  0  0  0  0  0
   12.8952   -0.3383  -10.0318 C   0  0  0  0  0  0  0  0  0  0  0  0
   12.1167    1.9234   -9.7014 C   0  0  0  0  0  0  0  0  0  0  0  0
   14.1604    0.0294   -9.5771 C   0  0  0  0  0  0  0  0  0  0  0  0
   13.3788    2.2892   -9.2461 C   0  0  0  0  0  0  0  0  0  0  0  0
   14.3989    1.3445   -9.1850 C   0  0  0  0  0  0  0  0  0  0  0  0
  4  6  2  0  0  0
 17 22  2  0  0  0
  8  9  2  0  0  0
  8  6  1  0  0  0
  9 15  1  0  0  0
 25 26  2  0  0  0
 25 27  1  0  0  0
 26 28  1  0  0  0
 27 29  2  0  0  0
 10 11  2  0  0  0
 10 12  1  0  0  0
 11 14  1  0  0  0
 12 15  2  0  0  0
 28 30  2  0  0  0
 29 30  1  0  0  0
 13 14  2  0  0  0
 13 15  1  0  0  0
  2  1  1  0  0  0
  2  3  1  0  0  0
  1 16  1  0  0  0
  3  5  1  0  0  0
 16 23  1  0  0  0
 18 20  1  0  0  0
 18 23  1  0  0  0
 19 21  1  0  0  0
 19 23  1  0  0  0
 20 24  1  0  0  0
 21 24  1  0  0  0
  5  6  1  0  0  0
 22 30  1  0  0  0
 22 24  1  0  0  0
  5  7  1  0  0  0
M  END
> <minimizedAffinity>
-8.93822

$$$$
2GVJ_DGB_A_502


 30 32  0  0  0  0  0  0  0  0999 V2000
   16.8494    1.1054   -4.5925 C   0  0  0  0  0  0  0  0  0  0  0  0
   18.0770    1.0746   -5.5056 C   0  0  0  0  0  0  0  0  0  0  0  0
   17.8916    1.7823   -6.8543 C   0  0  0  0  0  0  0  0  0  0  0  0
   16.3576    3.3101   -8.7618 O   0  0  0  0  0  0  0  0  0  0  0  0
   16.4628    2.0651   -6.8872 N   0  0  0  0  0  0  0  0  0  0  0  0
   15.8071    2.7834   -7.7991 C   0  0  0  0  0  0  0  0  0  0  0  0
   15.9230    1.6847   -6.1570 H   0  0  0  0  0  0  0  0  0  0  0  0
   14.4832    2.8907   -7.5924 C   0  0  0  0  0  0  0  0  0  0  0  0
   13.8511    2.3008   -6.5714 C   0  0  0  0  0  0  0  0  0  0  0  0
   10.5091    3.7328   -5.5719 C   0  0  0  0  0  0  0  0  0  0  0  0
    9.6749    2.7457   -6.0882 C   0  0  0  0  0  0  0  0  0  0  0  0
   11.8806    3.6001   -5.7190 C   0  0  0  0  0  0  0  0  0  0  0  0
   11.4991    1.5270   -6.8784 C   0  0  0  0  0  0  0  0  0  0  0  0
   10.1735    1.6705   -6.7227 N   0  0  0  0  0  0  0  0  0  0  0  0
   12.3864    2.4824   -6.3863 C   0  0  0  0  0  0  0  0  0  0  0  0
   17.1624    1.9605   -3.3592 C   0  0  0  0  0  0  0  0  0  0  0  0
   14.0433    7.1292   -2.2466 O   0  0  0  0  0  0  0  0  0  0  0  0
   15.3503    3.7678   -3.6553 C   0  0  0  0  0  0  0  0  0  0  0  0
   16.4064    3.4166   -1.4144 C   0  0  0  0  0  0  0  0  0  0  0  0
   14.1268    4.4251   -2.9856 C   0  0  0  0  0  0  0  0  0  0  0  0
   15.1831    4.0614   -0.7653 C   0  0  0  0  0  0  0  0  0  0  0  0
   14.5244    6.3266   -1.4568 C   0  0  0  0  0  0  0  0  0  0  0  0
   15.9942    2.7296   -2.7196 C   0  0  0  0  0  0  0  0  0  0  0  0
   14.6120    5.0145   -1.7242 N   0  0  0  0  0  0  0  0  0  0  0  0
   16.0207    7.8363    2.2553 C   0  0  0  0  0  0  0  0  0  0  0  0
   16.8838    7.1797    1.3843 C   0  0  0  0  0  0  0  0  0  0  0  0
   14.6797    8.0030    1.9273 C   0  0  0  0  0  0  0  0  0  0  0  0
   16.4012    6.6814    0.1753 C   0  0  0  0  0  0  0  0  0  0  0  0
   14.1993    7.5072    0.7201 C   0  0  0  0  0  0  0  0  0  0  0  0
   15.0580    6.8469   -0.1537 C   0  0  0  0  0  0  0  0  0  0  0  0
  4  6  2  0  0  0
 17 22  2  0  0  0
  8  9  2  0  0  0
  8  6  1  0  0  0
  9 15  1  0  0  0
 25 26  2  0  0  0
 25 27  1  0  0  0
 26 28  1  0  0  0
 27 29  2  0  0  0
 10 11  2  0  0  0
 10 12  1  0  0  0
 11 14  1  0  0  0
 12 15  2  0  0  0
 28 30  2  0  0  0
 29 30  1  0  0  0
 13 14  2  0  0  0
 13 15  1  0  0  0
  2  1  1  0  0  0
  2  3  1  0  0  0
  1 16  1  0  0  0
  3  5  1  0  0  0
 16 23  1  0  0  0
 18 20  1  0  0  0
 18 23  1  0  0  0
 19 21  1  0  0  0
 19 23  1  0  0  0
 20 24  1  0  0  0
 21 24  1  0  0  0
  5  6  1  0  0  0
 22 30  1  0  0  0
 22 24  1  0  0  0
  5  7  1  0  0  0
M  END
> <minimizedAffinity>
-8.92601

$$$$
