4YHM_4CC_H_301


 40 43  0  0  0  0  0  0  0  0999 V2000
   -4.2316   21.0353    9.6744 N   0  0  0  0  0  0  0  0  0  0  0  0
   -3.4602   23.2197   10.6018 C   0  0  0  0  0  0  0  0  0  0  0  0
   -0.8683   22.2230   10.0064 C   0  0  0  0  0  0  0  0  0  0  0  0
   -3.5579   19.9989    9.1170 C   0  0  0  0  0  0  0  0  0  0  0  0
   -5.6745   21.1346    9.9241 C   0  0  0  0  0  0  0  0  0  0  0  0
   -1.0614   23.5063   10.5614 C   0  0  0  0  0  0  0  0  0  0  0  0
   -3.3061   21.9811   10.0037 C   0  0  0  0  0  0  0  0  0  0  0  0
   -2.0235   21.4638    9.6958 C   0  0  0  0  0  0  0  0  0  0  0  0
   -2.2636   20.2285    9.1620 N   0  0  0  0  0  0  0  0  0  0  0  0
   -2.3587   23.9570   10.8695 C   0  0  0  0  0  0  0  0  0  0  0  0
   -0.0794   24.4818   11.0705 C   0  0  0  0  0  0  0  0  0  0  0  0
    0.4414   24.4053   12.3302 N   0  0  0  0  0  0  0  0  0  0  0  0
   -0.0013   25.5392   10.4636 O   0  0  0  0  0  0  0  0  0  0  0  0
    0.3823   23.2790   13.1396 C   0  0  0  0  0  0  0  0  0  0  0  0
   -0.6124   23.2568   14.1180 C   0  0  0  0  0  0  0  0  0  0  0  0
   -0.7634   22.1162   14.8911 C   0  0  0  0  0  0  0  0  0  0  0  0
    1.1206   22.2012   12.8910 N   0  0  0  0  0  0  0  0  0  0  0  0
    0.9973   21.0992   13.6171 C   0  0  0  0  0  0  0  0  0  0  0  0
    0.0624   21.0233   14.6378 C   0  0  0  0  0  0  0  0  0  0  0  0
    1.1960   25.5313   12.9046 C   0  0  0  0  0  0  0  0  0  0  0  0
    2.5459   25.4300   12.1574 C   0  0  0  0  0  0  0  0  0  0  0  0
    3.7636   25.1018   13.0003 C   0  0  0  0  0  0  0  0  0  0  0  0
    4.1097   23.9437   13.2156 O   0  0  0  0  0  0  0  0  0  0  0  0
    4.3879   26.0174   13.5126 O   0  0  0  0  0  0  0  0  0  0  0  0
    4.1320   26.9048   13.3547 H   0  0  0  0  0  0  0  0  0  0  0  0
   -4.2688   18.7551    8.6251 C   0  0  0  0  0  0  0  0  0  0  0  0
   -3.3509   17.7885    8.0206 N   0  0  0  0  0  0  0  0  0  0  0  0
   -2.5413   17.5096    8.5063 H   0  0  0  0  0  0  0  0  0  0  0  0
   -2.6757   16.4549    6.0798 C   0  0  0  0  0  0  0  0  0  0  0  0
   -5.1403   17.0127    4.9145 C   0  0  0  0  0  0  0  0  0  0  0  0
   -3.6224   17.2593    6.7520 C   0  0  0  0  0  0  0  0  0  0  0  0
   -4.8605   17.5305    6.1590 C   0  0  0  0  0  0  0  0  0  0  0  0
   -2.9587   15.9333    4.8274 C   0  0  0  0  0  0  0  0  0  0  0  0
   -4.1923   16.2302    4.2229 C   0  0  0  0  0  0  0  0  0  0  0  0
   -4.5328   15.6844    2.8838 C   0  0  0  0  0  0  0  0  0  0  0  0
   -4.4611   14.3708    2.6619 N   0  0  0  0  0  0  0  0  0  0  0  0
   -4.9163   16.5029    1.8946 N   0  0  0  0  0  0  0  0  0  0  0  0
   -4.6865   14.0084    1.7747 H   0  0  0  0  0  0  0  0  0  0  0  0
   -4.1827   13.7638    3.3853 H   0  0  0  0  0  0  0  0  0  0  0  0
   -4.9712   17.4732    2.0520 H   0  0  0  0  0  0  0  0  0  0  0  0
 23 22  2  0  0  0
 24 22  1  0  0  0
 22 21  1  0  0  0
 21 20  1  0  0  0
 20 12  1  0  0  0
 15 16  2  0  0  0
 15 14  1  0  0  0
 16 19  1  0  0  0
 13 11  2  0  0  0
 12 14  1  0  0  0
 12 11  1  0  0  0
 14 17  2  0  0  0
 11  6  1  0  0  0
 19 18  2  0  0  0
 17 18  1  0  0  0
  3  6  2  0  0  0
  3  8  1  0  0  0
  6 10  1  0  0  0
  8  9  1  0  0  0
  8  7  2  0  0  0
 10  2  2  0  0  0
  9  4  2  0  0  0
 29 33  2  0  0  0
 29 31  1  0  0  0
 33 34  1  0  0  0
  7  2  1  0  0  0
  7  1  1  0  0  0
 27 31  1  0  0  0
 27 26  1  0  0  0
 31 32  2  0  0  0
  4  1  1  0  0  0
  4 26  1  0  0  0
 37 35  2  0  0  0
 34 35  1  0  0  0
 34 30  2  0  0  0
 35 36  1  0  0  0
  1  5  1  0  0  0
 32 30  1  0  0  0
 27 28  1  0  0  0
 24 25  1  0  0  0
 36 38  1  0  0  0
 36 39  1  0  0  0
 37 40  1  0  0  0
M  END
> <minimizedAffinity>
-8.97337

$$$$
4YHM_4CC_H_301


 40 43  0  0  0  0  0  0  0  0999 V2000
   -1.6499   18.2992    9.0631 N   0  0  0  0  0  0  0  0  0  0  0  0
    0.6869   19.0785    9.4617 C   0  0  0  0  0  0  0  0  0  0  0  0
   -0.5092   21.6498    9.6157 C   0  0  0  0  0  0  0  0  0  0  0  0
   -2.8340   18.9597    9.0408 C   0  0  0  0  0  0  0  0  0  0  0  0
   -1.4154   16.8727    8.8096 C   0  0  0  0  0  0  0  0  0  0  0  0
    0.8778   21.4633    9.7996 C   0  0  0  0  0  0  0  0  0  0  0  0
   -0.6838   19.2224    9.3352 C   0  0  0  0  0  0  0  0  0  0  0  0
   -1.3032   20.4945    9.4102 C   0  0  0  0  0  0  0  0  0  0  0  0
   -2.6322   20.2489    9.2053 N   0  0  0  0  0  0  0  0  0  0  0  0
    1.4406   20.1780    9.6888 C   0  0  0  0  0  0  0  0  0  0  0  0
    1.9621   22.4533    9.9377 C   0  0  0  0  0  0  0  0  0  0  0  0
    2.0921   23.2459   11.0418 N   0  0  0  0  0  0  0  0  0  0  0  0
    2.5331   22.7789    8.9079 O   0  0  0  0  0  0  0  0  0  0  0  0
    1.4645   23.0113   12.2577 C   0  0  0  0  0  0  0  0  0  0  0  0
    0.5694   23.9845   12.7036 C   0  0  0  0  0  0  0  0  0  0  0  0
   -0.1442   23.7517   13.8690 C   0  0  0  0  0  0  0  0  0  0  0  0
    1.5757   21.8451   12.8871 N   0  0  0  0  0  0  0  0  0  0  0  0
    0.9063   21.5986   14.0042 C   0  0  0  0  0  0  0  0  0  0  0  0
    0.0355   22.5395   14.5315 C   0  0  0  0  0  0  0  0  0  0  0  0
    3.0021   24.4030   11.0374 C   0  0  0  0  0  0  0  0  0  0  0  0
    4.2021   23.8732   11.8560 C   0  0  0  0  0  0  0  0  0  0  0  0
    4.8741   24.8618   12.7899 C   0  0  0  0  0  0  0  0  0  0  0  0
    5.1489   26.0045   12.4351 O   0  0  0  0  0  0  0  0  0  0  0  0
    5.1878   24.4919   13.9102 O   0  0  0  0  0  0  0  0  0  0  0  0
    4.9828   23.6218   14.1909 H   0  0  0  0  0  0  0  0  0  0  0  0
   -4.1420   18.2471    8.7657 C   0  0  0  0  0  0  0  0  0  0  0  0
   -4.7777   18.7030    7.5287 N   0  0  0  0  0  0  0  0  0  0  0  0
   -5.2780   19.5509    7.5169 H   0  0  0  0  0  0  0  0  0  0  0  0
   -3.6144   17.0207    6.1806 C   0  0  0  0  0  0  0  0  0  0  0  0
   -5.5680   17.3257    4.2226 C   0  0  0  0  0  0  0  0  0  0  0  0
   -4.6758   17.9350    6.3613 C   0  0  0  0  0  0  0  0  0  0  0  0
   -5.6553   18.0779    5.3723 C   0  0  0  0  0  0  0  0  0  0  0  0
   -3.5279   16.2632    5.0231 C   0  0  0  0  0  0  0  0  0  0  0  0
   -4.4983   16.4292    4.0201 C   0  0  0  0  0  0  0  0  0  0  0  0
   -4.4411   15.6307    2.7686 C   0  0  0  0  0  0  0  0  0  0  0  0
   -4.3996   14.2986    2.8296 N   0  0  0  0  0  0  0  0  0  0  0  0
   -4.4348   16.2392    1.5748 N   0  0  0  0  0  0  0  0  0  0  0  0
   -4.3617   13.7688    2.0006 H   0  0  0  0  0  0  0  0  0  0  0  0
   -4.4069   13.8453    3.7035 H   0  0  0  0  0  0  0  0  0  0  0  0
   -4.4653   17.2219    1.5230 H   0  0  0  0  0  0  0  0  0  0  0  0
 23 22  2  0  0  0
 24 22  1  0  0  0
 22 21  1  0  0  0
 21 20  1  0  0  0
 20 12  1  0  0  0
 15 16  2  0  0  0
 15 14  1  0  0  0
 16 19  1  0  0  0
 13 11  2  0  0  0
 12 14  1  0  0  0
 12 11  1  0  0  0
 14 17  2  0  0  0
 11  6  1  0  0  0
 19 18  2  0  0  0
 17 18  1  0  0  0
  3  6  2  0  0  0
  3  8  1  0  0  0
  6 10  1  0  0  0
  8  9  1  0  0  0
  8  7  2  0  0  0
 10  2  2  0  0  0
  9  4  2  0  0  0
 29 33  2  0  0  0
 29 31  1  0  0  0
 33 34  1  0  0  0
  7  2  1  0  0  0
  7  1  1  0  0  0
 27 31  1  0  0  0
 27 26  1  0  0  0
 31 32  2  0  0  0
  4  1  1  0  0  0
  4 26  1  0  0  0
 37 35  2  0  0  0
 34 35  1  0  0  0
 34 30  2  0  0  0
 35 36  1  0  0  0
  1  5  1  0  0  0
 32 30  1  0  0  0
 27 28  1  0  0  0
 24 25  1  0  0  0
 36 38  1  0  0  0
 36 39  1  0  0  0
 37 40  1  0  0  0
M  END
> <minimizedAffinity>
-8.61018

$$$$
4YHM_4CC_H_301


 40 43  0  0  0  0  0  0  0  0999 V2000
   -1.8166   19.7003    9.4362 N   0  0  0  0  0  0  0  0  0  0  0  0
   -0.8174   21.8081   10.3224 C   0  0  0  0  0  0  0  0  0  0  0  0
    1.4919   20.2022   10.7148 C   0  0  0  0  0  0  0  0  0  0  0  0
   -1.2976   18.4623    9.2440 C   0  0  0  0  0  0  0  0  0  0  0  0
   -3.1946   20.1416    9.1902 C   0  0  0  0  0  0  0  0  0  0  0  0
    1.4798   21.5769   11.0345 C   0  0  0  0  0  0  0  0  0  0  0  0
   -0.8174   20.4766    9.9446 C   0  0  0  0  0  0  0  0  0  0  0  0
    0.3230   19.6564   10.1289 C   0  0  0  0  0  0  0  0  0  0  0  0
   -0.0584   18.4219    9.6829 N   0  0  0  0  0  0  0  0  0  0  0  0
    0.3088   22.3363   10.8528 C   0  0  0  0  0  0  0  0  0  0  0  0
    2.4864   22.4029   11.7270 C   0  0  0  0  0  0  0  0  0  0  0  0
    3.7090   22.6742   11.1832 N   0  0  0  0  0  0  0  0  0  0  0  0
    2.3294   22.5540   12.9291 O   0  0  0  0  0  0  0  0  0  0  0  0
    4.0296   22.5054    9.8430 C   0  0  0  0  0  0  0  0  0  0  0  0
    4.9161   21.4738    9.5315 C   0  0  0  0  0  0  0  0  0  0  0  0
    5.1967   21.2140    8.1992 C   0  0  0  0  0  0  0  0  0  0  0  0
    3.3980   23.1766    8.8843 N   0  0  0  0  0  0  0  0  0  0  0  0
    3.6500   22.9489    7.6031 C   0  0  0  0  0  0  0  0  0  0  0  0
    4.5559   21.9714    7.2214 C   0  0  0  0  0  0  0  0  0  0  0  0
    4.7855   23.2586   11.9997 C   0  0  0  0  0  0  0  0  0  0  0  0
    4.6522   24.7653   11.6793 C   0  0  0  0  0  0  0  0  0  0  0  0
    4.2001   25.6621   12.8162 C   0  0  0  0  0  0  0  0  0  0  0  0
    4.7179   26.7556   13.0241 O   0  0  0  0  0  0  0  0  0  0  0  0
    3.3264   25.2614   13.5689 O   0  0  0  0  0  0  0  0  0  0  0  0
    2.9247   24.4283   13.4191 H   0  0  0  0  0  0  0  0  0  0  0  0
   -2.1276   17.3253    8.6849 C   0  0  0  0  0  0  0  0  0  0  0  0
   -3.2870   17.7991    7.9275 N   0  0  0  0  0  0  0  0  0  0  0  0
   -3.8630   18.5047    8.3011 H   0  0  0  0  0  0  0  0  0  0  0  0
   -2.6608   16.3993    6.0173 C   0  0  0  0  0  0  0  0  0  0  0  0
   -5.1075   17.0129    4.8422 C   0  0  0  0  0  0  0  0  0  0  0  0
   -3.5787   17.2504    6.6718 C   0  0  0  0  0  0  0  0  0  0  0  0
   -4.8080   17.5494    6.0741 C   0  0  0  0  0  0  0  0  0  0  0  0
   -2.9637   15.8588    4.7775 C   0  0  0  0  0  0  0  0  0  0  0  0
   -4.1878   16.1832    4.1677 C   0  0  0  0  0  0  0  0  0  0  0  0
   -4.5490   15.6185    2.8420 C   0  0  0  0  0  0  0  0  0  0  0  0
   -4.4610   14.3040    2.6313 N   0  0  0  0  0  0  0  0  0  0  0  0
   -4.9676   16.4207    1.8537 N   0  0  0  0  0  0  0  0  0  0  0  0
   -4.7002   13.9291    1.7530 H   0  0  0  0  0  0  0  0  0  0  0  0
   -4.1569   13.7089    3.3542 H   0  0  0  0  0  0  0  0  0  0  0  0
   -5.0347   17.3916    2.0027 H   0  0  0  0  0  0  0  0  0  0  0  0
 23 22  2  0  0  0
 24 22  1  0  0  0
 22 21  1  0  0  0
 21 20  1  0  0  0
 20 12  1  0  0  0
 15 16  2  0  0  0
 15 14  1  0  0  0
 16 19  1  0  0  0
 13 11  2  0  0  0
 12 14  1  0  0  0
 12 11  1  0  0  0
 14 17  2  0  0  0
 11  6  1  0  0  0
 19 18  2  0  0  0
 17 18  1  0  0  0
  3  6  2  0  0  0
  3  8  1  0  0  0
  6 10  1  0  0  0
  8  9  1  0  0  0
  8  7  2  0  0  0
 10  2  2  0  0  0
  9  4  2  0  0  0
 29 33  2  0  0  0
 29 31  1  0  0  0
 33 34  1  0  0  0
  7  2  1  0  0  0
  7  1  1  0  0  0
 27 31  1  0  0  0
 27 26  1  0  0  0
 31 32  2  0  0  0
  4  1  1  0  0  0
  4 26  1  0  0  0
 37 35  2  0  0  0
 34 35  1  0  0  0
 34 30  2  0  0  0
 35 36  1  0  0  0
  1  5  1  0  0  0
 32 30  1  0  0  0
 27 28  1  0  0  0
 24 25  1  0  0  0
 36 38  1  0  0  0
 36 39  1  0  0  0
 37 40  1  0  0  0
M  END
> <minimizedAffinity>
-8.19255

$$$$
4YHM_4CC_H_301


 40 43  0  0  0  0  0  0  0  0999 V2000
    0.0437   25.1893    8.4335 N   0  0  0  0  0  0  0  0  0  0  0  0
   -0.3315   26.5923    6.4043 C   0  0  0  0  0  0  0  0  0  0  0  0
   -0.1160   24.1235    5.0172 C   0  0  0  0  0  0  0  0  0  0  0  0
    0.1902   23.8510    8.5954 C   0  0  0  0  0  0  0  0  0  0  0  0
    0.1054   26.2285    9.4682 C   0  0  0  0  0  0  0  0  0  0  0  0
   -0.3692   25.3361    4.3408 C   0  0  0  0  0  0  0  0  0  0  0  0
   -0.1413   25.4115    7.1008 C   0  0  0  0  0  0  0  0  0  0  0  0
   -0.0325   24.1678    6.4308 C   0  0  0  0  0  0  0  0  0  0  0  0
    0.1845   23.2537    7.4237 N   0  0  0  0  0  0  0  0  0  0  0  0
   -0.4422   26.5453    5.0574 C   0  0  0  0  0  0  0  0  0  0  0  0
   -0.4169   25.6292    2.8962 C   0  0  0  0  0  0  0  0  0  0  0  0
    0.6592   26.1197    2.2138 N   0  0  0  0  0  0  0  0  0  0  0  0
   -1.5286   25.7407    2.4022 O   0  0  0  0  0  0  0  0  0  0  0  0
    1.9663   26.0936    2.6809 C   0  0  0  0  0  0  0  0  0  0  0  0
    2.5140   27.3097    3.0910 C   0  0  0  0  0  0  0  0  0  0  0  0
    3.7847   27.3169    3.6448 C   0  0  0  0  0  0  0  0  0  0  0  0
    2.6102   24.9489    2.8898 N   0  0  0  0  0  0  0  0  0  0  0  0
    3.8267   24.9288    3.4154 C   0  0  0  0  0  0  0  0  0  0  0  0
    4.4520   26.1042    3.8016 C   0  0  0  0  0  0  0  0  0  0  0  0
    0.5077   26.6595    0.8527 C   0  0  0  0  0  0  0  0  0  0  0  0
    1.4151   25.7171    0.0286 C   0  0  0  0  0  0  0  0  0  0  0  0
    0.8306   24.3672   -0.3418 C   0  0  0  0  0  0  0  0  0  0  0  0
    1.5029   23.4981   -0.8895 O   0  0  0  0  0  0  0  0  0  0  0  0
   -0.3533   24.1603   -0.1268 O   0  0  0  0  0  0  0  0  0  0  0  0
   -0.8753   24.8170    0.2906 H   0  0  0  0  0  0  0  0  0  0  0  0
    0.4166   23.2305    9.9585 C   0  0  0  0  0  0  0  0  0  0  0  0
   -0.7362   22.4547   10.4183 N   0  0  0  0  0  0  0  0  0  0  0  0
   -1.3829   22.8580   11.0415 H   0  0  0  0  0  0  0  0  0  0  0  0
   -2.1234   20.7443    9.3454 C   0  0  0  0  0  0  0  0  0  0  0  0
   -0.0534   18.9211    9.7120 C   0  0  0  0  0  0  0  0  0  0  0  0
   -0.9212   21.1392    9.9731 C   0  0  0  0  0  0  0  0  0  0  0  0
    0.1152   20.2156   10.1490 C   0  0  0  0  0  0  0  0  0  0  0  0
   -2.2917   19.4410    8.9050 C   0  0  0  0  0  0  0  0  0  0  0  0
   -1.2594   18.5091    9.1078 C   0  0  0  0  0  0  0  0  0  0  0  0
   -1.4019   17.1049    8.6442 C   0  0  0  0  0  0  0  0  0  0  0  0
   -2.1415   16.8303    7.5683 N   0  0  0  0  0  0  0  0  0  0  0  0
   -0.7886   16.1087    9.2977 N   0  0  0  0  0  0  0  0  0  0  0  0
   -2.2364   15.9000    7.2606 H   0  0  0  0  0  0  0  0  0  0  0  0
   -2.5923   17.5580    7.0821 H   0  0  0  0  0  0  0  0  0  0  0  0
   -0.2414   16.3048   10.0924 H   0  0  0  0  0  0  0  0  0  0  0  0
 23 22  2  0  0  0
 24 22  1  0  0  0
 22 21  1  0  0  0
 21 20  1  0  0  0
 20 12  1  0  0  0
 15 16  2  0  0  0
 15 14  1  0  0  0
 16 19  1  0  0  0
 13 11  2  0  0  0
 12 14  1  0  0  0
 12 11  1  0  0  0
 14 17  2  0  0  0
 11  6  1  0  0  0
 19 18  2  0  0  0
 17 18  1  0  0  0
  3  6  2  0  0  0
  3  8  1  0  0  0
  6 10  1  0  0  0
  8  9  1  0  0  0
  8  7  2  0  0  0
 10  2  2  0  0  0
  9  4  2  0  0  0
 29 33  2  0  0  0
 29 31  1  0  0  0
 33 34  1  0  0  0
  7  2  1  0  0  0
  7  1  1  0  0  0
 27 31  1  0  0  0
 27 26  1  0  0  0
 31 32  2  0  0  0
  4  1  1  0  0  0
  4 26  1  0  0  0
 37 35  2  0  0  0
 34 35  1  0  0  0
 34 30  2  0  0  0
 35 36  1  0  0  0
  1  5  1  0  0  0
 32 30  1  0  0  0
 27 28  1  0  0  0
 24 25  1  0  0  0
 36 38  1  0  0  0
 36 39  1  0  0  0
 37 40  1  0  0  0
M  END
> <minimizedAffinity>
-8.18290

$$$$
4YHM_4CC_H_301


 40 43  0  0  0  0  0  0  0  0999 V2000
   -2.5723   18.5897    8.6481 N   0  0  0  0  0  0  0  0  0  0  0  0
   -0.1866   18.6186    9.3793 C   0  0  0  0  0  0  0  0  0  0  0  0
   -0.7450   21.3093   10.0966 C   0  0  0  0  0  0  0  0  0  0  0  0
   -3.5523   19.5245    8.7161 C   0  0  0  0  0  0  0  0  0  0  0  0
   -2.6544   17.2474    8.0602 C   0  0  0  0  0  0  0  0  0  0  0  0
    0.5229   20.7294   10.3167 C   0  0  0  0  0  0  0  0  0  0  0  0
   -1.4563   19.1412    9.2050 C   0  0  0  0  0  0  0  0  0  0  0  0
   -1.7590   20.4799    9.5569 C   0  0  0  0  0  0  0  0  0  0  0  0
   -3.0714   20.6439    9.2117 N   0  0  0  0  0  0  0  0  0  0  0  0
    0.7726   19.4013    9.9233 C   0  0  0  0  0  0  0  0  0  0  0  0
    1.7856   21.3430   10.7686 C   0  0  0  0  0  0  0  0  0  0  0  0
    1.8738   22.0701   11.9209 N   0  0  0  0  0  0  0  0  0  0  0  0
    2.6599   21.4678    9.9246 O   0  0  0  0  0  0  0  0  0  0  0  0
    0.9291   22.0512   12.9380 C   0  0  0  0  0  0  0  0  0  0  0  0
    0.8947   20.9142   13.7461 C   0  0  0  0  0  0  0  0  0  0  0  0
    0.0268   20.8888   14.8265 C   0  0  0  0  0  0  0  0  0  0  0  0
    0.2069   23.1264   13.2399 N   0  0  0  0  0  0  0  0  0  0  0  0
   -0.6321   23.1269   14.2660 C   0  0  0  0  0  0  0  0  0  0  0  0
   -0.7535   22.0138   15.0834 C   0  0  0  0  0  0  0  0  0  0  0  0
    3.0601   22.8944   12.2043 C   0  0  0  0  0  0  0  0  0  0  0  0
    2.7047   24.2245   11.5006 C   0  0  0  0  0  0  0  0  0  0  0  0
    2.5677   25.4456   12.3900 C   0  0  0  0  0  0  0  0  0  0  0  0
    2.6191   26.5858   11.9377 O   0  0  0  0  0  0  0  0  0  0  0  0
    2.4468   25.2851   13.5942 O   0  0  0  0  0  0  0  0  0  0  0  0
    2.4066   24.4191   13.9497 H   0  0  0  0  0  0  0  0  0  0  0  0
   -4.9469   19.2608    8.1872 C   0  0  0  0  0  0  0  0  0  0  0  0
   -5.9726   20.0056    8.9189 N   0  0  0  0  0  0  0  0  0  0  0  0
   -6.3955   19.6077    9.7140 H   0  0  0  0  0  0  0  0  0  0  0  0
   -6.3423   22.3836    9.3763 C   0  0  0  0  0  0  0  0  0  0  0  0
   -7.1109   22.7130    6.7223 C   0  0  0  0  0  0  0  0  0  0  0  0
   -6.3538   21.2838    8.4901 C   0  0  0  0  0  0  0  0  0  0  0  0
   -6.7381   21.4609    7.1563 C   0  0  0  0  0  0  0  0  0  0  0  0
   -6.7169   23.6440    8.9380 C   0  0  0  0  0  0  0  0  0  0  0  0
   -7.1285   23.8129    7.6049 C   0  0  0  0  0  0  0  0  0  0  0  0
   -7.5317   25.1500    7.0982 C   0  0  0  0  0  0  0  0  0  0  0  0
   -8.7836   25.3566    6.6860 N   0  0  0  0  0  0  0  0  0  0  0  0
   -6.6462   26.1549    7.0551 N   0  0  0  0  0  0  0  0  0  0  0  0
   -9.0515   26.2424    6.3501 H   0  0  0  0  0  0  0  0  0  0  0  0
   -9.4397   24.6232    6.7178 H   0  0  0  0  0  0  0  0  0  0  0  0
   -5.7209   26.0089    7.3578 H   0  0  0  0  0  0  0  0  0  0  0  0
 23 22  2  0  0  0
 24 22  1  0  0  0
 22 21  1  0  0  0
 21 20  1  0  0  0
 20 12  1  0  0  0
 15 16  2  0  0  0
 15 14  1  0  0  0
 16 19  1  0  0  0
 13 11  2  0  0  0
 12 14  1  0  0  0
 12 11  1  0  0  0
 14 17  2  0  0  0
 11  6  1  0  0  0
 19 18  2  0  0  0
 17 18  1  0  0  0
  3  6  2  0  0  0
  3  8  1  0  0  0
  6 10  1  0  0  0
  8  9  1  0  0  0
  8  7  2  0  0  0
 10  2  2  0  0  0
  9  4  2  0  0  0
 29 33  2  0  0  0
 29 31  1  0  0  0
 33 34  1  0  0  0
  7  2  1  0  0  0
  7  1  1  0  0  0
 27 31  1  0  0  0
 27 26  1  0  0  0
 31 32  2  0  0  0
  4  1  1  0  0  0
  4 26  1  0  0  0
 37 35  2  0  0  0
 34 35  1  0  0  0
 34 30  2  0  0  0
 35 36  1  0  0  0
  1  5  1  0  0  0
 32 30  1  0  0  0
 27 28  1  0  0  0
 24 25  1  0  0  0
 36 38  1  0  0  0
 36 39  1  0  0  0
 37 40  1  0  0  0
M  END
> <minimizedAffinity>
-7.96799

$$$$
4YHM_4CC_H_301


 40 43  0  0  0  0  0  0  0  0999 V2000
    1.0868   24.7283    9.0798 N   0  0  0  0  0  0  0  0  0  0  0  0
    2.2218   25.9318    7.2116 C   0  0  0  0  0  0  0  0  0  0  0  0
    0.4421   24.4508    5.5669 C   0  0  0  0  0  0  0  0  0  0  0  0
    0.0526   23.8514    9.0969 C   0  0  0  0  0  0  0  0  0  0  0  0
    1.8789   25.2011   10.2214 C   0  0  0  0  0  0  0  0  0  0  0  0
    1.3615   25.3738    5.0238 C   0  0  0  0  0  0  0  0  0  0  0  0
    1.2914   25.0776    7.7776 C   0  0  0  0  0  0  0  0  0  0  0  0
    0.3923   24.3298    6.9777 C   0  0  0  0  0  0  0  0  0  0  0  0
   -0.3317   23.5863    7.8673 N   0  0  0  0  0  0  0  0  0  0  0  0
    2.2479   26.0702    5.8667 C   0  0  0  0  0  0  0  0  0  0  0  0
    1.7120   25.6550    3.6192 C   0  0  0  0  0  0  0  0  0  0  0  0
    0.9469   26.4563    2.8212 N   0  0  0  0  0  0  0  0  0  0  0  0
    2.5095   24.8915    3.0963 O   0  0  0  0  0  0  0  0  0  0  0  0
   -0.0221   27.3353    3.2857 C   0  0  0  0  0  0  0  0  0  0  0  0
   -1.3256   26.8461    3.3775 C   0  0  0  0  0  0  0  0  0  0  0  0
   -2.3083   27.6611    3.9173 C   0  0  0  0  0  0  0  0  0  0  0  0
    0.2968   28.5280    3.7801 N   0  0  0  0  0  0  0  0  0  0  0  0
   -0.6243   29.3272    4.2993 C   0  0  0  0  0  0  0  0  0  0  0  0
   -1.9487   28.9254    4.3786 C   0  0  0  0  0  0  0  0  0  0  0  0
    1.1616   26.4976    1.3654 C   0  0  0  0  0  0  0  0  0  0  0  0
    0.0735   25.5271    0.8509 C   0  0  0  0  0  0  0  0  0  0  0  0
    0.5611   24.2687    0.1583 C   0  0  0  0  0  0  0  0  0  0  0  0
   -0.0012   23.8163   -0.8349 O   0  0  0  0  0  0  0  0  0  0  0  0
    1.5132   23.6687    0.6315 O   0  0  0  0  0  0  0  0  0  0  0  0
    1.9494   24.0054    1.3893 H   0  0  0  0  0  0  0  0  0  0  0  0
   -0.4593   23.2438   10.3865 C   0  0  0  0  0  0  0  0  0  0  0  0
    0.2090   21.9837   10.7149 N   0  0  0  0  0  0  0  0  0  0  0  0
    0.9854   21.9825   11.3203 H   0  0  0  0  0  0  0  0  0  0  0  0
   -1.5774   20.6572    9.6901 C   0  0  0  0  0  0  0  0  0  0  0  0
    0.1804   18.5042    9.5559 C   0  0  0  0  0  0  0  0  0  0  0  0
   -0.2543   20.7792   10.1695 C   0  0  0  0  0  0  0  0  0  0  0  0
    0.6229   19.6916   10.0936 C   0  0  0  0  0  0  0  0  0  0  0  0
   -2.0217   19.4615    9.1481 C   0  0  0  0  0  0  0  0  0  0  0  0
   -1.1463   18.3630    9.0986 C   0  0  0  0  0  0  0  0  0  0  0  0
   -1.5856   17.0673    8.5196 C   0  0  0  0  0  0  0  0  0  0  0  0
   -2.2971   17.0490    7.3911 N   0  0  0  0  0  0  0  0  0  0  0  0
   -1.2689   15.9127    9.1213 N   0  0  0  0  0  0  0  0  0  0  0  0
   -2.5885   16.1907    7.0068 H   0  0  0  0  0  0  0  0  0  0  0  0
   -2.5306   17.8937    6.9425 H   0  0  0  0  0  0  0  0  0  0  0  0
   -0.7442   15.9195    9.9543 H   0  0  0  0  0  0  0  0  0  0  0  0
 23 22  2  0  0  0
 24 22  1  0  0  0
 22 21  1  0  0  0
 21 20  1  0  0  0
 20 12  1  0  0  0
 15 16  2  0  0  0
 15 14  1  0  0  0
 16 19  1  0  0  0
 13 11  2  0  0  0
 12 14  1  0  0  0
 12 11  1  0  0  0
 14 17  2  0  0  0
 11  6  1  0  0  0
 19 18  2  0  0  0
 17 18  1  0  0  0
  3  6  2  0  0  0
  3  8  1  0  0  0
  6 10  1  0  0  0
  8  9  1  0  0  0
  8  7  2  0  0  0
 10  2  2  0  0  0
  9  4  2  0  0  0
 29 33  2  0  0  0
 29 31  1  0  0  0
 33 34  1  0  0  0
  7  2  1  0  0  0
  7  1  1  0  0  0
 27 31  1  0  0  0
 27 26  1  0  0  0
 31 32  2  0  0  0
  4  1  1  0  0  0
  4 26  1  0  0  0
 37 35  2  0  0  0
 34 35  1  0  0  0
 34 30  2  0  0  0
 35 36  1  0  0  0
  1  5  1  0  0  0
 32 30  1  0  0  0
 27 28  1  0  0  0
 24 25  1  0  0  0
 36 38  1  0  0  0
 36 39  1  0  0  0
 37 40  1  0  0  0
M  END
> <minimizedAffinity>
-7.87341

$$$$
4YHM_4CC_H_301


 40 43  0  0  0  0  0  0  0  0999 V2000
    3.5430   22.3012    8.1590 N   0  0  0  0  0  0  0  0  0  0  0  0
    4.6486   22.7079    5.9593 C   0  0  0  0  0  0  0  0  0  0  0  0
    2.9785   25.0034    5.8760 C   0  0  0  0  0  0  0  0  0  0  0  0
    2.6288   23.0167    8.8598 C   0  0  0  0  0  0  0  0  0  0  0  0
    4.1312   21.0051    8.5172 C   0  0  0  0  0  0  0  0  0  0  0  0
    3.8948   24.7133    4.8423 C   0  0  0  0  0  0  0  0  0  0  0  0
    3.8022   22.9973    7.0154 C   0  0  0  0  0  0  0  0  0  0  0  0
    2.9612   24.1373    6.9972 C   0  0  0  0  0  0  0  0  0  0  0  0
    2.2574   24.0714    8.1672 N   0  0  0  0  0  0  0  0  0  0  0  0
    4.6873   23.5518    4.9034 C   0  0  0  0  0  0  0  0  0  0  0  0
    4.0844   25.3569    3.5290 C   0  0  0  0  0  0  0  0  0  0  0  0
    3.1571   25.2685    2.5308 N   0  0  0  0  0  0  0  0  0  0  0  0
    5.2273   25.6816    3.2446 O   0  0  0  0  0  0  0  0  0  0  0  0
    1.8392   24.8722    2.7134 C   0  0  0  0  0  0  0  0  0  0  0  0
    0.8704   25.8762    2.6965 C   0  0  0  0  0  0  0  0  0  0  0  0
   -0.4653   25.5171    2.7883 C   0  0  0  0  0  0  0  0  0  0  0  0
    1.4927   23.5884    2.7331 N   0  0  0  0  0  0  0  0  0  0  0  0
    0.2231   23.2188    2.8229 C   0  0  0  0  0  0  0  0  0  0  0  0
   -0.7900   24.1644    2.8596 C   0  0  0  0  0  0  0  0  0  0  0  0
    3.4871   25.6773    1.1556 C   0  0  0  0  0  0  0  0  0  0  0  0
    3.6443   24.3144    0.4425 C   0  0  0  0  0  0  0  0  0  0  0  0
    2.6946   24.0383   -0.7076 C   0  0  0  0  0  0  0  0  0  0  0  0
    2.9118   24.4553   -1.8417 O   0  0  0  0  0  0  0  0  0  0  0  0
    1.6652   23.4210   -0.4846 O   0  0  0  0  0  0  0  0  0  0  0  0
    1.4898   23.0984    0.3775 H   0  0  0  0  0  0  0  0  0  0  0  0
    2.0989   22.5447   10.1979 C   0  0  0  0  0  0  0  0  0  0  0  0
    0.6472   22.3582   10.1903 N   0  0  0  0  0  0  0  0  0  0  0  0
    0.0544   23.1065   10.4308 H   0  0  0  0  0  0  0  0  0  0  0  0
   -1.1565   21.0279    9.2015 C   0  0  0  0  0  0  0  0  0  0  0  0
    0.2997   18.7296    9.7852 C   0  0  0  0  0  0  0  0  0  0  0  0
    0.0996   21.1166    9.8415 C   0  0  0  0  0  0  0  0  0  0  0  0
    0.8257   19.9550   10.1269 C   0  0  0  0  0  0  0  0  0  0  0  0
   -1.6847   19.7937    8.8570 C   0  0  0  0  0  0  0  0  0  0  0  0
   -0.9652   18.6276    9.1699 C   0  0  0  0  0  0  0  0  0  0  0  0
   -1.4973   17.2877    8.8111 C   0  0  0  0  0  0  0  0  0  0  0  0
   -2.6269   17.1857    8.1086 N   0  0  0  0  0  0  0  0  0  0  0  0
   -0.8478   16.1770    9.1852 N   0  0  0  0  0  0  0  0  0  0  0  0
   -2.9801   16.2981    7.8706 H   0  0  0  0  0  0  0  0  0  0  0  0
   -3.1073   17.9980    7.8283 H   0  0  0  0  0  0  0  0  0  0  0  0
   -0.0137   16.2455    9.7038 H   0  0  0  0  0  0  0  0  0  0  0  0
 23 22  2  0  0  0
 24 22  1  0  0  0
 22 21  1  0  0  0
 21 20  1  0  0  0
 20 12  1  0  0  0
 15 16  2  0  0  0
 15 14  1  0  0  0
 16 19  1  0  0  0
 13 11  2  0  0  0
 12 14  1  0  0  0
 12 11  1  0  0  0
 14 17  2  0  0  0
 11  6  1  0  0  0
 19 18  2  0  0  0
 17 18  1  0  0  0
  3  6  2  0  0  0
  3  8  1  0  0  0
  6 10  1  0  0  0
  8  9  1  0  0  0
  8  7  2  0  0  0
 10  2  2  0  0  0
  9  4  2  0  0  0
 29 33  2  0  0  0
 29 31  1  0  0  0
 33 34  1  0  0  0
  7  2  1  0  0  0
  7  1  1  0  0  0
 27 31  1  0  0  0
 27 26  1  0  0  0
 31 32  2  0  0  0
  4  1  1  0  0  0
  4 26  1  0  0  0
 37 35  2  0  0  0
 34 35  1  0  0  0
 34 30  2  0  0  0
 35 36  1  0  0  0
  1  5  1  0  0  0
 32 30  1  0  0  0
 27 28  1  0  0  0
 24 25  1  0  0  0
 36 38  1  0  0  0
 36 39  1  0  0  0
 37 40  1  0  0  0
M  END
> <minimizedAffinity>
-7.62169

$$$$
4YHM_4CC_H_301


 40 43  0  0  0  0  0  0  0  0999 V2000
   -0.6015   19.7366    9.7359 N   0  0  0  0  0  0  0  0  0  0  0  0
    0.1857   21.7959   10.9048 C   0  0  0  0  0  0  0  0  0  0  0  0
   -2.3502   22.8343   10.1588 C   0  0  0  0  0  0  0  0  0  0  0  0
   -1.7790   19.4278    9.1385 C   0  0  0  0  0  0  0  0  0  0  0  0
    0.6024   18.9020    9.8268 C   0  0  0  0  0  0  0  0  0  0  0  0
   -1.4270   23.5951   10.9079 C   0  0  0  0  0  0  0  0  0  0  0  0
   -0.7215   21.0055   10.2208 C   0  0  0  0  0  0  0  0  0  0  0  0
   -1.9929   21.5010    9.8396 C   0  0  0  0  0  0  0  0  0  0  0  0
   -2.5817   20.4694    9.1632 N   0  0  0  0  0  0  0  0  0  0  0  0
   -0.1680   23.0583   11.2364 C   0  0  0  0  0  0  0  0  0  0  0  0
   -1.4646   25.0139   11.3084 C   0  0  0  0  0  0  0  0  0  0  0  0
   -2.5735   25.7923   11.1390 N   0  0  0  0  0  0  0  0  0  0  0  0
   -0.3840   25.5571   11.4809 O   0  0  0  0  0  0  0  0  0  0  0  0
   -3.8493   25.3025   10.8947 C   0  0  0  0  0  0  0  0  0  0  0  0
   -4.6243   24.9778   12.0087 C   0  0  0  0  0  0  0  0  0  0  0  0
   -5.9340   24.5675   11.8144 C   0  0  0  0  0  0  0  0  0  0  0  0
   -4.3743   25.3009    9.6728 N   0  0  0  0  0  0  0  0  0  0  0  0
   -5.6229   24.9107    9.4600 C   0  0  0  0  0  0  0  0  0  0  0  0
   -6.4360   24.5279   10.5155 C   0  0  0  0  0  0  0  0  0  0  0  0
   -2.4986   27.2551   11.2864 C   0  0  0  0  0  0  0  0  0  0  0  0
   -2.6242   27.7340    9.8216 C   0  0  0  0  0  0  0  0  0  0  0  0
   -1.3767   27.6284    8.9651 C   0  0  0  0  0  0  0  0  0  0  0  0
   -1.4255   27.2781    7.7895 O   0  0  0  0  0  0  0  0  0  0  0  0
   -0.2918   27.8571    9.4763 O   0  0  0  0  0  0  0  0  0  0  0  0
   -0.2435   28.1250   10.3728 H   0  0  0  0  0  0  0  0  0  0  0  0
   -2.0138   18.0836    8.4811 C   0  0  0  0  0  0  0  0  0  0  0  0
   -3.3900   17.9247    8.0088 N   0  0  0  0  0  0  0  0  0  0  0  0
   -4.1404   18.2201    8.5735 H   0  0  0  0  0  0  0  0  0  0  0  0
   -2.6800   16.5356    6.1201 C   0  0  0  0  0  0  0  0  0  0  0  0
   -5.1341   17.0355    4.9074 C   0  0  0  0  0  0  0  0  0  0  0  0
   -3.6414   17.3532    6.7546 C   0  0  0  0  0  0  0  0  0  0  0  0
   -4.8740   17.5951    6.1380 C   0  0  0  0  0  0  0  0  0  0  0  0
   -2.9432   15.9720    4.8816 C   0  0  0  0  0  0  0  0  0  0  0  0
   -4.1715   16.2393    4.2529 C   0  0  0  0  0  0  0  0  0  0  0  0
   -4.4908   15.6482    2.9278 C   0  0  0  0  0  0  0  0  0  0  0  0
   -5.0007   16.4144    1.9620 N   0  0  0  0  0  0  0  0  0  0  0  0
   -4.2665   14.3483    2.6926 N   0  0  0  0  0  0  0  0  0  0  0  0
   -5.2126   16.0234    1.0836 H   0  0  0  0  0  0  0  0  0  0  0  0
   -5.1652   17.3709    2.1276 H   0  0  0  0  0  0  0  0  0  0  0  0
   -3.8903   13.7775    3.4011 H   0  0  0  0  0  0  0  0  0  0  0  0
 23 22  2  0  0  0
 24 22  1  0  0  0
 22 21  1  0  0  0
 21 20  1  0  0  0
 20 12  1  0  0  0
 15 16  2  0  0  0
 15 14  1  0  0  0
 16 19  1  0  0  0
 13 11  2  0  0  0
 12 14  1  0  0  0
 12 11  1  0  0  0
 14 17  2  0  0  0
 11  6  1  0  0  0
 19 18  2  0  0  0
 17 18  1  0  0  0
  3  6  2  0  0  0
  3  8  1  0  0  0
  6 10  1  0  0  0
  8  9  1  0  0  0
  8  7  2  0  0  0
 10  2  2  0  0  0
  9  4  2  0  0  0
 29 33  2  0  0  0
 29 31  1  0  0  0
 33 34  1  0  0  0
  7  2  1  0  0  0
  7  1  1  0  0  0
 27 31  1  0  0  0
 27 26  1  0  0  0
 31 32  2  0  0  0
  4  1  1  0  0  0
  4 26  1  0  0  0
 37 35  2  0  0  0
 34 35  1  0  0  0
 34 30  2  0  0  0
 35 36  1  0  0  0
  1  5  1  0  0  0
 32 30  1  0  0  0
 27 28  1  0  0  0
 24 25  1  0  0  0
 36 38  1  0  0  0
 36 39  1  0  0  0
 37 40  1  0  0  0
M  END
> <minimizedAffinity>
-7.60095

$$$$
4YHM_4CC_H_301


 40 43  0  0  0  0  0  0  0  0999 V2000
   -3.0047   20.4611    9.4331 N   0  0  0  0  0  0  0  0  0  0  0  0
   -2.4821   22.7959   10.1422 C   0  0  0  0  0  0  0  0  0  0  0  0
    0.2171   21.9860    9.7900 C   0  0  0  0  0  0  0  0  0  0  0  0
   -2.2118   19.4374    9.0304 C   0  0  0  0  0  0  0  0  0  0  0  0
   -4.4629   20.4522    9.5998 C   0  0  0  0  0  0  0  0  0  0  0  0
   -0.1192   23.2985   10.1854 C   0  0  0  0  0  0  0  0  0  0  0  0
   -2.1860   21.5193    9.6970 C   0  0  0  0  0  0  0  0  0  0  0  0
   -0.8474   21.0932    9.5123 C   0  0  0  0  0  0  0  0  0  0  0  0
   -0.9474   19.7902    9.1115 N   0  0  0  0  0  0  0  0  0  0  0  0
   -1.4666   23.6573   10.3772 C   0  0  0  0  0  0  0  0  0  0  0  0
    0.7426   24.4108   10.6271 C   0  0  0  0  0  0  0  0  0  0  0  0
    1.4682   25.1658    9.7510 N   0  0  0  0  0  0  0  0  0  0  0  0
    1.0498   24.4218   11.8095 O   0  0  0  0  0  0  0  0  0  0  0  0
    1.2495   25.2098    8.3808 C   0  0  0  0  0  0  0  0  0  0  0  0
    2.1226   24.4741    7.5786 C   0  0  0  0  0  0  0  0  0  0  0  0
    1.8896   24.4195    6.2133 C   0  0  0  0  0  0  0  0  0  0  0  0
    0.1654   25.7819    7.8650 N   0  0  0  0  0  0  0  0  0  0  0  0
   -0.0790   25.7461    6.5628 C   0  0  0  0  0  0  0  0  0  0  0  0
    0.7723   25.0739    5.6996 C   0  0  0  0  0  0  0  0  0  0  0  0
    2.5208   26.0762   10.2310 C   0  0  0  0  0  0  0  0  0  0  0  0
    1.7392   27.3947   10.4344 C   0  0  0  0  0  0  0  0  0  0  0  0
    1.7027   27.9495   11.8458 C   0  0  0  0  0  0  0  0  0  0  0  0
    2.1178   29.0740   12.1110 O   0  0  0  0  0  0  0  0  0  0  0  0
    1.2883   27.2373   12.7466 O   0  0  0  0  0  0  0  0  0  0  0  0
    0.9692   26.3774   12.5550 H   0  0  0  0  0  0  0  0  0  0  0  0
   -2.7817   18.0868    8.6494 C   0  0  0  0  0  0  0  0  0  0  0  0
   -4.0041   18.2002    7.8524 N   0  0  0  0  0  0  0  0  0  0  0  0
   -4.7620   18.7315    8.1881 H   0  0  0  0  0  0  0  0  0  0  0  0
   -3.0695   16.7001    6.1563 C   0  0  0  0  0  0  0  0  0  0  0  0
   -5.3450   17.1257    4.6123 C   0  0  0  0  0  0  0  0  0  0  0  0
   -4.0978   17.5542    6.6128 C   0  0  0  0  0  0  0  0  0  0  0  0
   -5.2399   17.7583    5.8304 C   0  0  0  0  0  0  0  0  0  0  0  0
   -3.1768   16.0629    4.9302 C   0  0  0  0  0  0  0  0  0  0  0  0
   -4.3128   16.2916    4.1348 C   0  0  0  0  0  0  0  0  0  0  0  0
   -4.4649   15.6218    2.8175 C   0  0  0  0  0  0  0  0  0  0  0  0
   -4.8234   16.3320    1.7465 N   0  0  0  0  0  0  0  0  0  0  0  0
   -4.2406   14.3065    2.6949 N   0  0  0  0  0  0  0  0  0  0  0  0
   -4.9244   15.8888    0.8732 H   0  0  0  0  0  0  0  0  0  0  0  0
   -4.9868   17.2993    1.8294 H   0  0  0  0  0  0  0  0  0  0  0  0
   -3.9758   13.7768    3.4814 H   0  0  0  0  0  0  0  0  0  0  0  0
 23 22  2  0  0  0
 24 22  1  0  0  0
 22 21  1  0  0  0
 21 20  1  0  0  0
 20 12  1  0  0  0
 15 16  2  0  0  0
 15 14  1  0  0  0
 16 19  1  0  0  0
 13 11  2  0  0  0
 12 14  1  0  0  0
 12 11  1  0  0  0
 14 17  2  0  0  0
 11  6  1  0  0  0
 19 18  2  0  0  0
 17 18  1  0  0  0
  3  6  2  0  0  0
  3  8  1  0  0  0
  6 10  1  0  0  0
  8  9  1  0  0  0
  8  7  2  0  0  0
 10  2  2  0  0  0
  9  4  2  0  0  0
 29 33  2  0  0  0
 29 31  1  0  0  0
 33 34  1  0  0  0
  7  2  1  0  0  0
  7  1  1  0  0  0
 27 31  1  0  0  0
 27 26  1  0  0  0
 31 32  2  0  0  0
  4  1  1  0  0  0
  4 26  1  0  0  0
 37 35  2  0  0  0
 34 35  1  0  0  0
 34 30  2  0  0  0
 35 36  1  0  0  0
  1  5  1  0  0  0
 32 30  1  0  0  0
 27 28  1  0  0  0
 24 25  1  0  0  0
 36 38  1  0  0  0
 36 39  1  0  0  0
 37 40  1  0  0  0
M  END
> <minimizedAffinity>
-7.44300

$$$$
4YHM_4CC_H_301


 40 43  0  0  0  0  0  0  0  0999 V2000
   -1.6024   20.6649    9.3581 N   0  0  0  0  0  0  0  0  0  0  0  0
   -1.3649   22.8988   10.4444 C   0  0  0  0  0  0  0  0  0  0  0  0
   -4.2048   22.8785   10.4352 C   0  0  0  0  0  0  0  0  0  0  0  0
   -2.6915   19.9173    9.0521 C   0  0  0  0  0  0  0  0  0  0  0  0
   -0.1951   20.3517    9.0827 C   0  0  0  0  0  0  0  0  0  0  0  0
   -3.4713   23.9517   10.9849 C   0  0  0  0  0  0  0  0  0  0  0  0
   -2.0562   21.8059    9.9513 C   0  0  0  0  0  0  0  0  0  0  0  0
   -3.4726   21.7722    9.9378 C   0  0  0  0  0  0  0  0  0  0  0  0
   -3.7884   20.5771    9.3544 N   0  0  0  0  0  0  0  0  0  0  0  0
   -2.0644   23.9411   10.9475 C   0  0  0  0  0  0  0  0  0  0  0  0
   -3.9295   25.2604   11.4873 C   0  0  0  0  0  0  0  0  0  0  0  0
   -5.2375   25.6478   11.4315 N   0  0  0  0  0  0  0  0  0  0  0  0
   -3.0684   26.1131   11.6422 O   0  0  0  0  0  0  0  0  0  0  0  0
   -6.3053   24.7864   11.2191 C   0  0  0  0  0  0  0  0  0  0  0  0
   -6.9425   24.2800   12.3525 C   0  0  0  0  0  0  0  0  0  0  0  0
   -8.0665   23.4857   12.1879 C   0  0  0  0  0  0  0  0  0  0  0  0
   -6.8082   24.5844   10.0046 N   0  0  0  0  0  0  0  0  0  0  0  0
   -7.8803   23.8271    9.8201 C   0  0  0  0  0  0  0  0  0  0  0  0
   -8.5361   23.2519   10.8974 C   0  0  0  0  0  0  0  0  0  0  0  0
   -5.6215   27.0472   11.6792 C   0  0  0  0  0  0  0  0  0  0  0  0
   -6.0108   27.5306   10.2630 C   0  0  0  0  0  0  0  0  0  0  0  0
   -4.8737   27.9752    9.3628 C   0  0  0  0  0  0  0  0  0  0  0  0
   -4.9041   27.8034    8.1476 O   0  0  0  0  0  0  0  0  0  0  0  0
   -3.8840   28.4780    9.8709 O   0  0  0  0  0  0  0  0  0  0  0  0
   -3.8506   28.6135   10.7975 H   0  0  0  0  0  0  0  0  0  0  0  0
   -2.5704   18.5677    8.3753 C   0  0  0  0  0  0  0  0  0  0  0  0
   -3.8652   18.0426    7.9391 N   0  0  0  0  0  0  0  0  0  0  0  0
   -4.6505   18.1206    8.5277 H   0  0  0  0  0  0  0  0  0  0  0  0
   -2.9616   16.6076    6.1713 C   0  0  0  0  0  0  0  0  0  0  0  0
   -5.2951   17.0328    4.7162 C   0  0  0  0  0  0  0  0  0  0  0  0
   -3.9891   17.4293    6.6855 C   0  0  0  0  0  0  0  0  0  0  0  0
   -5.1603   17.6335    5.9475 C   0  0  0  0  0  0  0  0  0  0  0  0
   -3.0988   16.0025    4.9319 C   0  0  0  0  0  0  0  0  0  0  0  0
   -4.2649   16.2318    4.1815 C   0  0  0  0  0  0  0  0  0  0  0  0
   -4.4493   15.5958    2.8516 C   0  0  0  0  0  0  0  0  0  0  0  0
   -4.8208   16.3354    1.8052 N   0  0  0  0  0  0  0  0  0  0  0  0
   -4.2412   14.2816    2.6929 N   0  0  0  0  0  0  0  0  0  0  0  0
   -4.9432   15.9146    0.9236 H   0  0  0  0  0  0  0  0  0  0  0  0
   -4.9725   17.3019    1.9146 H   0  0  0  0  0  0  0  0  0  0  0  0
   -3.9669   13.7304    3.4611 H   0  0  0  0  0  0  0  0  0  0  0  0
 23 22  2  0  0  0
 24 22  1  0  0  0
 22 21  1  0  0  0
 21 20  1  0  0  0
 20 12  1  0  0  0
 15 16  2  0  0  0
 15 14  1  0  0  0
 16 19  1  0  0  0
 13 11  2  0  0  0
 12 14  1  0  0  0
 12 11  1  0  0  0
 14 17  2  0  0  0
 11  6  1  0  0  0
 19 18  2  0  0  0
 17 18  1  0  0  0
  3  6  2  0  0  0
  3  8  1  0  0  0
  6 10  1  0  0  0
  8  9  1  0  0  0
  8  7  2  0  0  0
 10  2  2  0  0  0
  9  4  2  0  0  0
 29 33  2  0  0  0
 29 31  1  0  0  0
 33 34  1  0  0  0
  7  2  1  0  0  0
  7  1  1  0  0  0
 27 31  1  0  0  0
 27 26  1  0  0  0
 31 32  2  0  0  0
  4  1  1  0  0  0
  4 26  1  0  0  0
 37 35  2  0  0  0
 34 35  1  0  0  0
 34 30  2  0  0  0
 35 36  1  0  0  0
  1  5  1  0  0  0
 32 30  1  0  0  0
 27 28  1  0  0  0
 24 25  1  0  0  0
 36 38  1  0  0  0
 36 39  1  0  0  0
 37 40  1  0  0  0
M  END
> <minimizedAffinity>
-7.40597

$$$$
