4RD0_GDP_A_501


 36 38  0  0  0  0  0  0  0  0999 V2000
  -33.2084  -21.9285   19.5311 C   0  0  0  0  0  0  0  0  0  0  0  0
  -32.8429  -22.7673   18.4316 O   0  0  0  0  0  0  0  0  0  0  0  0
  -32.9317  -22.7334   20.7901 C   0  0  0  0  0  0  0  0  0  0  0  0
  -34.1623  -23.3375   21.1875 O   0  0  0  0  0  0  0  0  0  0  0  0
  -31.9791  -23.8201   20.3331 C   0  0  0  0  0  0  0  0  0  0  0  0
  -32.0565  -24.9988   21.1308 O   0  0  0  0  0  0  0  0  0  0  0  0
  -32.4418  -24.0480   18.9023 C   0  0  0  0  0  0  0  0  0  0  0  0
  -34.5172  -23.8619   20.4527 H   0  0  0  0  0  0  0  0  0  0  0  0
  -32.9665  -25.3345   21.1242 H   0  0  0  0  0  0  0  0  0  0  0  0
  -31.3420  -24.6107   18.0932 N   0  0  0  0  0  0  0  0  0  0  0  0
  -30.0860  -24.1335   17.9808 C   0  0  0  0  0  0  0  0  0  0  0  0
  -29.3509  -24.9197   17.1482 N   0  0  0  0  0  0  0  0  0  0  0  0
  -30.1567  -25.9107   16.7130 C   0  0  0  0  0  0  0  0  0  0  0  0
  -30.0243  -27.0786   15.8221 C   0  0  0  0  0  0  0  0  0  0  0  0
  -28.9339  -27.3087   15.2714 O   0  0  0  0  0  0  0  0  0  0  0  0
  -31.0962  -27.8656   15.6236 N   0  0  0  0  0  0  0  0  0  0  0  0
  -32.2799  -27.6197   16.2264 C   0  0  0  0  0  0  0  0  0  0  0  0
  -33.3302  -28.4481   15.9839 N   0  0  0  0  0  0  0  0  0  0  0  0
  -32.4721  -26.5639   17.0635 N   0  0  0  0  0  0  0  0  0  0  0  0
  -31.4640  -25.6977   17.3364 C   0  0  0  0  0  0  0  0  0  0  0  0
  -31.0164  -28.6415   15.0229 H   0  0  0  0  0  0  0  0  0  0  0  0
  -33.2199  -29.2197   15.3826 H   0  0  0  0  0  0  0  0  0  0  0  0
  -34.2011  -28.2763   16.4097 H   0  0  0  0  0  0  0  0  0  0  0  0
  -32.3645  -20.6629   19.4717 C   0  0  0  0  0  0  0  0  0  0  0  0
  -31.2474  -20.8577   20.3429 O   0  0  0  0  0  0  0  0  0  0  0  0
  -30.0529  -19.7777   20.4346 P   0  0  0  0  0  0  0  0  0  0  0  0
  -28.7468  -20.4746   20.1701 O   0  0  0  0  0  0  0  0  0  0  0  0
  -30.1125  -19.0845   21.7889 O   0  0  0  0  0  0  0  0  0  0  0  0
  -29.3963  -18.4333   21.8506 H   0  0  0  0  0  0  0  0  0  0  0  0
  -30.4645  -18.8427   19.2003 O   0  0  0  0  0  0  0  0  0  0  0  0
  -29.7439  -17.4569   18.8165 P   0  0  0  0  0  0  0  0  0  0  0  0
  -29.5777  -17.4132   17.3079 O   0  0  0  0  0  0  0  0  0  0  0  0
  -28.4187  -17.4655   19.4944 O   0  0  0  0  0  0  0  0  0  0  0  0
  -30.6025  -16.2912   19.2508 O   0  0  0  0  0  0  0  0  0  0  0  0
  -27.9457  -16.6437   19.2901 H   0  0  0  0  0  0  0  0  0  0  0  0
  -30.1616  -15.4597   19.0161 H   0  0  0  0  0  0  0  0  0  0  0  0
 31 32  2  0  0  0
 31 33  1  0  0  0
 31 34  1  0  0  0
 31 30  1  0  0  0
 30 26  1  0  0  0
 26 27  2  0  0  0
 26 28  1  0  0  0
 26 25  1  0  0  0
 25 24  1  0  0  0
 24  1  1  0  0  0
  1  2  1  0  0  0
  1  3  1  0  0  0
  2  7  1  0  0  0
  3  4  1  0  0  0
  3  5  1  0  0  0
  5  6  1  0  0  0
  5  7  1  0  0  0
  7 10  1  0  0  0
 10 11  1  0  0  0
 10 20  1  0  0  0
 11 12  2  0  0  0
 12 13  1  0  0  0
 13 14  1  0  0  0
 13 20  2  0  0  0
 14 15  2  0  0  0
 14 16  1  0  0  0
 16 17  1  0  0  0
 17 18  1  0  0  0
 17 19  2  0  0  0
 19 20  1  0  0  0
 33 35  1  0  0  0
 34 36  1  0  0  0
 28 29  1  0  0  0
  4  8  1  0  0  0
  6  9  1  0  0  0
 16 21  1  0  0  0
 18 22  1  0  0  0
 18 23  1  0  0  0
M  END
> <minimizedAffinity>
-10.97837

$$$$
4RD0_GDP_A_501


 36 38  0  0  0  0  0  0  0  0999 V2000
  -32.3362  -21.4612   19.5965 C   0  0  0  0  0  0  0  0  0  0  0  0
  -31.9369  -22.1390   18.4017 O   0  0  0  0  0  0  0  0  0  0  0  0
  -32.7876  -22.5404   20.5666 C   0  0  0  0  0  0  0  0  0  0  0  0
  -34.2081  -22.6366   20.4646 O   0  0  0  0  0  0  0  0  0  0  0  0
  -32.1710  -23.8121   20.0192 C   0  0  0  0  0  0  0  0  0  0  0  0
  -32.9083  -24.9816   20.3664 O   0  0  0  0  0  0  0  0  0  0  0  0
  -32.1799  -23.5349   18.5237 C   0  0  0  0  0  0  0  0  0  0  0  0
  -34.4552  -22.8056   19.5420 H   0  0  0  0  0  0  0  0  0  0  0  0
  -33.8207  -24.8947   20.0488 H   0  0  0  0  0  0  0  0  0  0  0  0
  -31.1374  -24.3348   17.8497 N   0  0  0  0  0  0  0  0  0  0  0  0
  -29.8215  -24.0537   17.7655 C   0  0  0  0  0  0  0  0  0  0  0  0
  -29.1709  -25.0251   17.0693 N   0  0  0  0  0  0  0  0  0  0  0  0
  -30.0914  -25.9372   16.6931 C   0  0  0  0  0  0  0  0  0  0  0  0
  -30.0893  -27.2067   15.9422 C   0  0  0  0  0  0  0  0  0  0  0  0
  -29.0197  -27.6484   15.4884 O   0  0  0  0  0  0  0  0  0  0  0  0
  -31.2540  -27.8538   15.7625 N   0  0  0  0  0  0  0  0  0  0  0  0
  -32.4160  -27.3776   16.2605 C   0  0  0  0  0  0  0  0  0  0  0  0
  -33.5633  -28.0735   16.0429 N   0  0  0  0  0  0  0  0  0  0  0  0
  -32.4910  -26.2162   16.9662 N   0  0  0  0  0  0  0  0  0  0  0  0
  -31.3812  -25.4737   17.2074 C   0  0  0  0  0  0  0  0  0  0  0  0
  -31.2603  -28.6971   15.2544 H   0  0  0  0  0  0  0  0  0  0  0  0
  -33.5388  -28.9169   15.5356 H   0  0  0  0  0  0  0  0  0  0  0  0
  -34.4187  -27.7341   16.3926 H   0  0  0  0  0  0  0  0  0  0  0  0
  -31.1413  -20.6840   20.1306 C   0  0  0  0  0  0  0  0  0  0  0  0
  -30.7950  -19.7090   19.1434 O   0  0  0  0  0  0  0  0  0  0  0  0
  -30.1107  -18.3060   19.5495 P   0  0  0  0  0  0  0  0  0  0  0  0
  -31.1289  -17.2089   19.4037 O   0  0  0  0  0  0  0  0  0  0  0  0
  -28.8627  -18.0981   18.7025 O   0  0  0  0  0  0  0  0  0  0  0  0
  -28.4461  -17.2555   18.9419 H   0  0  0  0  0  0  0  0  0  0  0  0
  -29.8123  -18.6100   21.0941 O   0  0  0  0  0  0  0  0  0  0  0  0
  -30.3847  -17.7508   22.3274 P   0  0  0  0  0  0  0  0  0  0  0  0
  -29.2263  -16.9953   22.9543 O   0  0  0  0  0  0  0  0  0  0  0  0
  -30.9638  -18.7258   23.2916 O   0  0  0  0  0  0  0  0  0  0  0  0
  -31.4098  -16.7565   21.8320 O   0  0  0  0  0  0  0  0  0  0  0  0
  -31.3233  -18.2496   24.0564 H   0  0  0  0  0  0  0  0  0  0  0  0
  -31.7501  -16.2426   22.5810 H   0  0  0  0  0  0  0  0  0  0  0  0
 31 32  2  0  0  0
 31 33  1  0  0  0
 31 34  1  0  0  0
 31 30  1  0  0  0
 30 26  1  0  0  0
 26 27  2  0  0  0
 26 28  1  0  0  0
 26 25  1  0  0  0
 25 24  1  0  0  0
 24  1  1  0  0  0
  1  2  1  0  0  0
  1  3  1  0  0  0
  2  7  1  0  0  0
  3  4  1  0  0  0
  3  5  1  0  0  0
  5  6  1  0  0  0
  5  7  1  0  0  0
  7 10  1  0  0  0
 10 11  1  0  0  0
 10 20  1  0  0  0
 11 12  2  0  0  0
 12 13  1  0  0  0
 13 14  1  0  0  0
 13 20  2  0  0  0
 14 15  2  0  0  0
 14 16  1  0  0  0
 16 17  1  0  0  0
 17 18  1  0  0  0
 17 19  2  0  0  0
 19 20  1  0  0  0
 33 35  1  0  0  0
 34 36  1  0  0  0
 28 29  1  0  0  0
  4  8  1  0  0  0
  6  9  1  0  0  0
 16 21  1  0  0  0
 18 22  1  0  0  0
 18 23  1  0  0  0
M  END
> <minimizedAffinity>
-8.96899

$$$$
4RD0_GDP_A_501


 36 38  0  0  0  0  0  0  0  0999 V2000
  -33.0868  -21.7553   19.4049 C   0  0  0  0  0  0  0  0  0  0  0  0
  -33.7503  -22.5142   18.3900 O   0  0  0  0  0  0  0  0  0  0  0  0
  -33.3242  -22.4941   20.7115 C   0  0  0  0  0  0  0  0  0  0  0  0
  -34.4396  -21.8759   21.3528 O   0  0  0  0  0  0  0  0  0  0  0  0
  -33.7216  -23.8916   20.2799 C   0  0  0  0  0  0  0  0  0  0  0  0
  -34.5485  -24.5539   21.2335 O   0  0  0  0  0  0  0  0  0  0  0  0
  -34.4435  -23.6117   18.9707 C   0  0  0  0  0  0  0  0  0  0  0  0
  -35.2011  -21.8800   20.7520 H   0  0  0  0  0  0  0  0  0  0  0  0
  -35.3426  -24.0217   21.3978 H   0  0  0  0  0  0  0  0  0  0  0  0
  -34.4076  -24.8056   18.1023 N   0  0  0  0  0  0  0  0  0  0  0  0
  -35.4600  -25.5173   17.6511 C   0  0  0  0  0  0  0  0  0  0  0  0
  -35.0376  -26.5492   16.8711 N   0  0  0  0  0  0  0  0  0  0  0  0
  -33.6897  -26.5008   16.8333 C   0  0  0  0  0  0  0  0  0  0  0  0
  -32.6124  -27.2814   16.1965 C   0  0  0  0  0  0  0  0  0  0  0  0
  -32.9019  -28.2621   15.4896 O   0  0  0  0  0  0  0  0  0  0  0  0
  -31.3364  -26.9120   16.4040 N   0  0  0  0  0  0  0  0  0  0  0  0
  -31.0211  -25.8428   17.1671 C   0  0  0  0  0  0  0  0  0  0  0  0
  -29.7126  -25.5199   17.3447 N   0  0  0  0  0  0  0  0  0  0  0  0
  -31.9630  -25.0754   17.7806 N   0  0  0  0  0  0  0  0  0  0  0  0
  -33.2842  -25.3540   17.6478 C   0  0  0  0  0  0  0  0  0  0  0  0
  -30.6126  -27.4346   15.9888 H   0  0  0  0  0  0  0  0  0  0  0  0
  -29.0099  -26.0575   16.9129 H   0  0  0  0  0  0  0  0  0  0  0  0
  -29.4676  -24.7484   17.9051 H   0  0  0  0  0  0  0  0  0  0  0  0
  -31.6064  -21.6798   19.0584 C   0  0  0  0  0  0  0  0  0  0  0  0
  -31.2432  -20.2967   19.0521 O   0  0  0  0  0  0  0  0  0  0  0  0
  -30.3293  -19.6610   20.2194 P   0  0  0  0  0  0  0  0  0  0  0  0
  -28.8922  -20.0213   19.9616 O   0  0  0  0  0  0  0  0  0  0  0  0
  -30.8461  -20.1371   21.5701 O   0  0  0  0  0  0  0  0  0  0  0  0
  -30.3005  -19.7581   22.2769 H   0  0  0  0  0  0  0  0  0  0  0  0
  -30.5927  -18.1079   19.9265 O   0  0  0  0  0  0  0  0  0  0  0  0
  -29.6512  -17.1710   19.0192 P   0  0  0  0  0  0  0  0  0  0  0  0
  -29.8268  -17.5879   17.5698 O   0  0  0  0  0  0  0  0  0  0  0  0
  -28.2533  -17.4083   19.4721 O   0  0  0  0  0  0  0  0  0  0  0  0
  -30.0647  -15.7248   19.1687 O   0  0  0  0  0  0  0  0  0  0  0  0
  -27.6468  -16.8607   18.9494 H   0  0  0  0  0  0  0  0  0  0  0  0
  -29.4928  -15.1665   18.6190 H   0  0  0  0  0  0  0  0  0  0  0  0
 31 32  2  0  0  0
 31 33  1  0  0  0
 31 34  1  0  0  0
 31 30  1  0  0  0
 30 26  1  0  0  0
 26 27  2  0  0  0
 26 28  1  0  0  0
 26 25  1  0  0  0
 25 24  1  0  0  0
 24  1  1  0  0  0
  1  2  1  0  0  0
  1  3  1  0  0  0
  2  7  1  0  0  0
  3  4  1  0  0  0
  3  5  1  0  0  0
  5  6  1  0  0  0
  5  7  1  0  0  0
  7 10  1  0  0  0
 10 11  1  0  0  0
 10 20  1  0  0  0
 11 12  2  0  0  0
 12 13  1  0  0  0
 13 14  1  0  0  0
 13 20  2  0  0  0
 14 15  2  0  0  0
 14 16  1  0  0  0
 16 17  1  0  0  0
 17 18  1  0  0  0
 17 19  2  0  0  0
 19 20  1  0  0  0
 33 35  1  0  0  0
 34 36  1  0  0  0
 28 29  1  0  0  0
  4  8  1  0  0  0
  6  9  1  0  0  0
 16 21  1  0  0  0
 18 22  1  0  0  0
 18 23  1  0  0  0
M  END
> <minimizedAffinity>
-8.58322

$$$$
