1SRG_MHB_A_300


 21 22  0  0  0  0  0  0  0  0999 V2000
   19.1025    4.9455   13.6205 N   0  0  0  0  0  0  0  0  0  0  0  0
   20.0221    4.2353   14.1275 N   0  0  0  0  0  0  0  0  0  0  0  0
   20.5041    4.5441   15.4848 C   0  0  0  0  0  0  0  0  0  0  0  0
   19.8056    5.3985   16.3456 C   0  0  0  0  0  0  0  0  0  0  0  0
   20.2899    5.6662   17.6311 C   0  0  0  0  0  0  0  0  0  0  0  0
   21.4945    5.1204   18.0261 C   0  0  0  0  0  0  0  0  0  0  0  0
   22.3176    4.3138   17.2559 C   0  0  0  0  0  0  0  0  0  0  0  0
   21.7205    3.9744   15.8434 C   0  0  0  0  0  0  0  0  0  0  0  0
   19.5395    6.6538   18.5514 C   0  0  0  0  0  0  0  0  0  0  0  0
   21.9754    5.4512   19.4037 O   0  0  0  0  0  0  0  0  0  0  0  0
   21.4553    5.9931   19.9639 H   0  0  0  0  0  0  0  0  0  0  0  0
   18.8649    4.9069   12.1677 C   0  0  0  0  0  0  0  0  0  0  0  0
   17.6361    5.3409   11.6564 C   0  0  0  0  0  0  0  0  0  0  0  0
   17.3822    5.3185   10.2769 C   0  0  0  0  0  0  0  0  0  0  0  0
   18.3695    4.8729    9.4073 C   0  0  0  0  0  0  0  0  0  0  0  0
   19.5999    4.4399    9.9055 C   0  0  0  0  0  0  0  0  0  0  0  0
   19.8523    4.4332   11.2811 C   0  0  0  0  0  0  0  0  0  0  0  0
   16.5246    5.8868   12.5576 C   0  0  0  0  0  0  0  0  0  0  0  0
   15.4006    5.7819   12.0654 O   0  0  0  0  0  0  0  0  0  0  0  0
   16.7975    6.5240   13.7693 O   0  0  0  0  0  0  0  0  0  0  0  0
   17.6777    6.5685   14.0874 H   0  0  0  0  0  0  0  0  0  0  0  0
 12 13  1  0  0  0
 12 17  2  0  0  0
 12  1  1  0  0  0
 13 14  2  0  0  0
 13 18  1  0  0  0
 14 15  1  0  0  0
 15 16  2  0  0  0
 16 17  1  0  0  0
  3  4  1  0  0  0
  3  8  2  0  0  0
  3  2  1  0  0  0
  4  5  2  0  0  0
  5  6  1  0  0  0
  5  9  1  0  0  0
  6  7  2  0  0  0
  6 10  1  0  0  0
  7  8  1  0  0  0
 18 19  2  0  0  0
 18 20  1  0  0  0
  1  2  2  0  0  0
 20 21  1  0  0  0
 10 11  1  0  0  0
M  END
> <minimizedAffinity>
-9.73327

$$$$
1SRG_MHB_A_300


 21 22  0  0  0  0  0  0  0  0999 V2000
   19.5169    4.7443   15.3631 N   0  0  0  0  0  0  0  0  0  0  0  0
   18.5623    5.4009   14.8486 N   0  0  0  0  0  0  0  0  0  0  0  0
   18.2244    5.1878   13.4308 C   0  0  0  0  0  0  0  0  0  0  0  0
   19.1751    4.7635   12.4954 C   0  0  0  0  0  0  0  0  0  0  0  0
   18.8184    4.5660   11.1565 C   0  0  0  0  0  0  0  0  0  0  0  0
   17.5282    4.8450   10.7533 C   0  0  0  0  0  0  0  0  0  0  0  0
   16.5081    5.3304   11.5565 C   0  0  0  0  0  0  0  0  0  0  0  0
   16.9150    5.4799   13.0661 C   0  0  0  0  0  0  0  0  0  0  0  0
   19.8884    4.1513   10.1229 C   0  0  0  0  0  0  0  0  0  0  0  0
   17.2031    4.6329    9.3084 O   0  0  0  0  0  0  0  0  0  0  0  0
   17.8585    4.3062    8.7238 H   0  0  0  0  0  0  0  0  0  0  0  0
   20.1111    5.1913   16.6343 C   0  0  0  0  0  0  0  0  0  0  0  0
   21.3459    4.6719   17.0405 C   0  0  0  0  0  0  0  0  0  0  0  0
   21.9377    5.0811   18.2448 C   0  0  0  0  0  0  0  0  0  0  0  0
   21.2951    6.0247   19.0362 C   0  0  0  0  0  0  0  0  0  0  0  0
   20.0643    6.5516   18.6400 C   0  0  0  0  0  0  0  0  0  0  0  0
   19.4538    6.1297   17.4545 C   0  0  0  0  0  0  0  0  0  0  0  0
   22.1264    3.6645   16.1912 C   0  0  0  0  0  0  0  0  0  0  0  0
   23.2870    4.0099   15.9667 O   0  0  0  0  0  0  0  0  0  0  0  0
   21.5267    2.5233   15.6556 O   0  0  0  0  0  0  0  0  0  0  0  0
   20.6374    2.3180   15.8677 H   0  0  0  0  0  0  0  0  0  0  0  0
 12 13  1  0  0  0
 12 17  2  0  0  0
 12  1  1  0  0  0
 13 14  2  0  0  0
 13 18  1  0  0  0
 14 15  1  0  0  0
 15 16  2  0  0  0
 16 17  1  0  0  0
  3  4  1  0  0  0
  3  8  2  0  0  0
  3  2  1  0  0  0
  4  5  2  0  0  0
  5  6  1  0  0  0
  5  9  1  0  0  0
  6  7  2  0  0  0
  6 10  1  0  0  0
  7  8  1  0  0  0
 18 19  2  0  0  0
 18 20  1  0  0  0
  1  2  2  0  0  0
 20 21  1  0  0  0
 10 11  1  0  0  0
M  END
> <minimizedAffinity>
-9.63834

$$$$
1SRG_MHB_A_300


 21 22  0  0  0  0  0  0  0  0999 V2000
   20.1507    3.7776   14.9562 N   0  0  0  0  0  0  0  0  0  0  0  0
   20.5093    4.5268   13.9984 N   0  0  0  0  0  0  0  0  0  0  0  0
   19.6875    4.5759   12.7769 C   0  0  0  0  0  0  0  0  0  0  0  0
   18.3533    4.9982   12.7947 C   0  0  0  0  0  0  0  0  0  0  0  0
   17.6027    5.0374   11.6141 C   0  0  0  0  0  0  0  0  0  0  0  0
   18.1752    4.6043   10.4353 C   0  0  0  0  0  0  0  0  0  0  0  0
   19.4588    4.1027   10.2865 C   0  0  0  0  0  0  0  0  0  0  0  0
   20.3016    4.1315   11.6115 C   0  0  0  0  0  0  0  0  0  0  0  0
   16.1156    5.4522   11.6552 C   0  0  0  0  0  0  0  0  0  0  0  0
   17.3248    4.6511    9.2053 O   0  0  0  0  0  0  0  0  0  0  0  0
   16.4494    4.9817    9.2532 H   0  0  0  0  0  0  0  0  0  0  0  0
   21.1169    3.4238   16.0098 C   0  0  0  0  0  0  0  0  0  0  0  0
   21.1948    4.2068   17.1675 C   0  0  0  0  0  0  0  0  0  0  0  0
   22.1033    3.8925   18.1892 C   0  0  0  0  0  0  0  0  0  0  0  0
   22.9255    2.7811   18.0547 C   0  0  0  0  0  0  0  0  0  0  0  0
   22.8549    1.9911   16.9056 C   0  0  0  0  0  0  0  0  0  0  0  0
   21.9715    2.3122   15.8699 C   0  0  0  0  0  0  0  0  0  0  0  0
   20.2844    5.4168   17.3967 C   0  0  0  0  0  0  0  0  0  0  0  0
   20.5451    6.0361   18.4288 O   0  0  0  0  0  0  0  0  0  0  0  0
   19.2103    5.7075   16.5538 O   0  0  0  0  0  0  0  0  0  0  0  0
   19.0683    5.1953   15.7821 H   0  0  0  0  0  0  0  0  0  0  0  0
 12 13  1  0  0  0
 12 17  2  0  0  0
 12  1  1  0  0  0
 13 14  2  0  0  0
 13 18  1  0  0  0
 14 15  1  0  0  0
 15 16  2  0  0  0
 16 17  1  0  0  0
  3  4  1  0  0  0
  3  8  2  0  0  0
  3  2  1  0  0  0
  4  5  2  0  0  0
  5  6  1  0  0  0
  5  9  1  0  0  0
  6  7  2  0  0  0
  6 10  1  0  0  0
  7  8  1  0  0  0
 18 19  2  0  0  0
 18 20  1  0  0  0
  1  2  2  0  0  0
 20 21  1  0  0  0
 10 11  1  0  0  0
M  END
> <minimizedAffinity>
-9.60252

$$$$
1SRG_MHB_A_300


 21 22  0  0  0  0  0  0  0  0999 V2000
   20.9328    4.6745   14.7567 N   0  0  0  0  0  0  0  0  0  0  0  0
   20.2484    3.8866   14.0369 N   0  0  0  0  0  0  0  0  0  0  0  0
   19.2323    4.4428   13.1270 C   0  0  0  0  0  0  0  0  0  0  0  0
   19.4219    4.4914   11.7411 C   0  0  0  0  0  0  0  0  0  0  0  0
   18.4329    5.0222   10.9051 C   0  0  0  0  0  0  0  0  0  0  0  0
   17.2862    5.5480   11.4650 C   0  0  0  0  0  0  0  0  0  0  0  0
   16.9985    5.6234   12.8189 C   0  0  0  0  0  0  0  0  0  0  0  0
   18.0926    4.9617   13.7309 C   0  0  0  0  0  0  0  0  0  0  0  0
   18.6766    5.1212    9.3832 C   0  0  0  0  0  0  0  0  0  0  0  0
   16.2681    6.1180   10.5285 O   0  0  0  0  0  0  0  0  0  0  0  0
   16.4156    6.0916    9.6035 H   0  0  0  0  0  0  0  0  0  0  0  0
   21.6705    4.1500   15.9183 C   0  0  0  0  0  0  0  0  0  0  0  0
   21.3353    4.5876   17.2051 C   0  0  0  0  0  0  0  0  0  0  0  0
   22.0185    4.1034   18.3306 C   0  0  0  0  0  0  0  0  0  0  0  0
   23.0308    3.1668   18.1653 C   0  0  0  0  0  0  0  0  0  0  0  0
   23.3721    2.7210   16.8869 C   0  0  0  0  0  0  0  0  0  0  0  0
   22.7150    3.2182   15.7568 C   0  0  0  0  0  0  0  0  0  0  0  0
   20.1991    5.5828   17.4581 C   0  0  0  0  0  0  0  0  0  0  0  0
   20.3160    6.1988   18.5181 O   0  0  0  0  0  0  0  0  0  0  0  0
   19.1014    5.6891   16.6023 O   0  0  0  0  0  0  0  0  0  0  0  0
   19.0758    5.1909   15.8091 H   0  0  0  0  0  0  0  0  0  0  0  0
 12 13  1  0  0  0
 12 17  2  0  0  0
 12  1  1  0  0  0
 13 14  2  0  0  0
 13 18  1  0  0  0
 14 15  1  0  0  0
 15 16  2  0  0  0
 16 17  1  0  0  0
  3  4  1  0  0  0
  3  8  2  0  0  0
  3  2  1  0  0  0
  4  5  2  0  0  0
  5  6  1  0  0  0
  5  9  1  0  0  0
  6  7  2  0  0  0
  6 10  1  0  0  0
  7  8  1  0  0  0
 18 19  2  0  0  0
 18 20  1  0  0  0
  1  2  2  0  0  0
 20 21  1  0  0  0
 10 11  1  0  0  0
M  END
> <minimizedAffinity>
-9.52716

$$$$
1SRG_MHB_A_300


 21 22  0  0  0  0  0  0  0  0999 V2000
   20.3510    4.4681   13.6801 N   0  0  0  0  0  0  0  0  0  0  0  0
   20.1542    3.4440   14.4009 N   0  0  0  0  0  0  0  0  0  0  0  0
   21.1090    3.1271   15.4769 C   0  0  0  0  0  0  0  0  0  0  0  0
   21.1678    1.8608   16.0699 C   0  0  0  0  0  0  0  0  0  0  0  0
   22.0911    1.5926   17.0869 C   0  0  0  0  0  0  0  0  0  0  0  0
   22.9113    2.6065   17.5389 C   0  0  0  0  0  0  0  0  0  0  0  0
   22.9140    3.9173   17.0882 C   0  0  0  0  0  0  0  0  0  0  0  0
   21.9166    4.1756   15.9027 C   0  0  0  0  0  0  0  0  0  0  0  0
   22.1090    0.2083   17.7715 C   0  0  0  0  0  0  0  0  0  0  0  0
   23.8687    2.2716   18.6387 O   0  0  0  0  0  0  0  0  0  0  0  0
   23.9055    1.3991   18.9784 H   0  0  0  0  0  0  0  0  0  0  0  0
   19.6490    4.6027   12.3926 C   0  0  0  0  0  0  0  0  0  0  0  0
   18.3494    5.1221   12.3648 C   0  0  0  0  0  0  0  0  0  0  0  0
   17.6571    5.2647   11.1530 C   0  0  0  0  0  0  0  0  0  0  0  0
   18.2763    4.8985    9.9648 C   0  0  0  0  0  0  0  0  0  0  0  0
   19.5733    4.3817    9.9799 C   0  0  0  0  0  0  0  0  0  0  0  0
   20.2612    4.2106   11.1855 C   0  0  0  0  0  0  0  0  0  0  0  0
   17.6295    5.5871   13.6340 C   0  0  0  0  0  0  0  0  0  0  0  0
   16.6598    6.3120   13.4081 O   0  0  0  0  0  0  0  0  0  0  0  0
   18.1059    5.2842   14.9107 O   0  0  0  0  0  0  0  0  0  0  0  0
   18.8504    4.7244   15.0123 H   0  0  0  0  0  0  0  0  0  0  0  0
 12 13  1  0  0  0
 12 17  2  0  0  0
 12  1  1  0  0  0
 13 14  2  0  0  0
 13 18  1  0  0  0
 14 15  1  0  0  0
 15 16  2  0  0  0
 16 17  1  0  0  0
  3  4  1  0  0  0
  3  8  2  0  0  0
  3  2  1  0  0  0
  4  5  2  0  0  0
  5  6  1  0  0  0
  5  9  1  0  0  0
  6  7  2  0  0  0
  6 10  1  0  0  0
  7  8  1  0  0  0
 18 19  2  0  0  0
 18 20  1  0  0  0
  1  2  2  0  0  0
 20 21  1  0  0  0
 10 11  1  0  0  0
M  END
> <minimizedAffinity>
-8.94860

$$$$
1SRG_MHB_A_300


 21 22  0  0  0  0  0  0  0  0999 V2000
   19.8411    4.5163   15.1805 N   0  0  0  0  0  0  0  0  0  0  0  0
   18.7744    5.0374   14.7358 N   0  0  0  0  0  0  0  0  0  0  0  0
   18.4534    4.9088   13.3039 C   0  0  0  0  0  0  0  0  0  0  0  0
   17.1911    5.2318   12.7928 C   0  0  0  0  0  0  0  0  0  0  0  0
   16.9218    5.1024   11.4256 C   0  0  0  0  0  0  0  0  0  0  0  0
   17.8988    4.6014   10.5893 C   0  0  0  0  0  0  0  0  0  0  0  0
   19.1644    4.1834   10.9700 C   0  0  0  0  0  0  0  0  0  0  0  0
   19.4646    4.4009   12.4963 C   0  0  0  0  0  0  0  0  0  0  0  0
   15.5090    5.4091   10.8821 C   0  0  0  0  0  0  0  0  0  0  0  0
   17.5543    4.4676    9.1395 O   0  0  0  0  0  0  0  0  0  0  0  0
   16.7111    4.7361    8.8316 H   0  0  0  0  0  0  0  0  0  0  0  0
   20.3693    4.9347   16.4899 C   0  0  0  0  0  0  0  0  0  0  0  0
   21.5584    4.3713   16.9677 C   0  0  0  0  0  0  0  0  0  0  0  0
   22.0872    4.7525   18.2099 C   0  0  0  0  0  0  0  0  0  0  0  0
   21.4283    5.7121   18.9679 C   0  0  0  0  0  0  0  0  0  0  0  0
   20.2428    6.2828   18.5004 C   0  0  0  0  0  0  0  0  0  0  0  0
   19.6938    5.8895   17.2757 C   0  0  0  0  0  0  0  0  0  0  0  0
   22.3563    3.3436   16.1599 C   0  0  0  0  0  0  0  0  0  0  0  0
   23.5200    3.6861   15.9470 O   0  0  0  0  0  0  0  0  0  0  0  0
   21.7690    2.1868   15.6447 O   0  0  0  0  0  0  0  0  0  0  0  0
   20.8766    1.9847   15.8463 H   0  0  0  0  0  0  0  0  0  0  0  0
 12 13  1  0  0  0
 12 17  2  0  0  0
 12  1  1  0  0  0
 13 14  2  0  0  0
 13 18  1  0  0  0
 14 15  1  0  0  0
 15 16  2  0  0  0
 16 17  1  0  0  0
  3  4  1  0  0  0
  3  8  2  0  0  0
  3  2  1  0  0  0
  4  5  2  0  0  0
  5  6  1  0  0  0
  5  9  1  0  0  0
  6  7  2  0  0  0
  6 10  1  0  0  0
  7  8  1  0  0  0
 18 19  2  0  0  0
 18 20  1  0  0  0
  1  2  2  0  0  0
 20 21  1  0  0  0
 10 11  1  0  0  0
M  END
> <minimizedAffinity>
-8.77265

$$$$
1SRG_MHB_A_300


 21 22  0  0  0  0  0  0  0  0999 V2000
   18.7353    5.0811   14.1473 N   0  0  0  0  0  0  0  0  0  0  0  0
   18.9578    3.9365   14.6449 N   0  0  0  0  0  0  0  0  0  0  0  0
   20.0062    3.7885   15.6690 C   0  0  0  0  0  0  0  0  0  0  0  0
   20.2341    4.7642   16.6462 C   0  0  0  0  0  0  0  0  0  0  0  0
   21.2359    4.5889   17.6077 C   0  0  0  0  0  0  0  0  0  0  0  0
   22.0359    3.4655   17.5524 C   0  0  0  0  0  0  0  0  0  0  0  0
   21.9629    2.4565   16.6047 C   0  0  0  0  0  0  0  0  0  0  0  0
   20.7892    2.6434   15.5780 C   0  0  0  0  0  0  0  0  0  0  0  0
   21.5147    5.6971   18.6467 C   0  0  0  0  0  0  0  0  0  0  0  0
   23.1024    3.3344   18.5933 O   0  0  0  0  0  0  0  0  0  0  0  0
   23.1932    3.9903   19.2563 H   0  0  0  0  0  0  0  0  0  0  0  0
   17.9799    5.1976   12.8886 C   0  0  0  0  0  0  0  0  0  0  0  0
   18.6145    4.9162   11.6729 C   0  0  0  0  0  0  0  0  0  0  0  0
   17.9196    5.0157   10.4584 C   0  0  0  0  0  0  0  0  0  0  0  0
   16.5804    5.3847   10.4653 C   0  0  0  0  0  0  0  0  0  0  0  0
   15.9362    5.6653   11.6718 C   0  0  0  0  0  0  0  0  0  0  0  0
   16.6280    5.5950   12.8853 C   0  0  0  0  0  0  0  0  0  0  0  0
   20.0746    4.4599   11.6014 C   0  0  0  0  0  0  0  0  0  0  0  0
   20.2949    3.6682   10.6842 O   0  0  0  0  0  0  0  0  0  0  0  0
   21.0194    4.8433   12.5548 O   0  0  0  0  0  0  0  0  0  0  0  0
   20.7855    5.4516   13.2281 H   0  0  0  0  0  0  0  0  0  0  0  0
 12 13  1  0  0  0
 12 17  2  0  0  0
 12  1  1  0  0  0
 13 14  2  0  0  0
 13 18  1  0  0  0
 14 15  1  0  0  0
 15 16  2  0  0  0
 16 17  1  0  0  0
  3  4  1  0  0  0
  3  8  2  0  0  0
  3  2  1  0  0  0
  4  5  2  0  0  0
  5  6  1  0  0  0
  5  9  1  0  0  0
  6  7  2  0  0  0
  6 10  1  0  0  0
  7  8  1  0  0  0
 18 19  2  0  0  0
 18 20  1  0  0  0
  1  2  2  0  0  0
 20 21  1  0  0  0
 10 11  1  0  0  0
M  END
> <minimizedAffinity>
-8.44934

$$$$
1SRG_MHB_A_300


 21 22  0  0  0  0  0  0  0  0999 V2000
   18.6572    5.4724   13.7476 N   0  0  0  0  0  0  0  0  0  0  0  0
   18.7116    4.5953   14.6612 N   0  0  0  0  0  0  0  0  0  0  0  0
   19.6164    4.8027   15.8049 C   0  0  0  0  0  0  0  0  0  0  0  0
   20.8261    4.1101   15.9312 C   0  0  0  0  0  0  0  0  0  0  0  0
   21.6646    4.3354   17.0288 C   0  0  0  0  0  0  0  0  0  0  0  0
   21.2628    5.2111   18.0170 C   0  0  0  0  0  0  0  0  0  0  0  0
   20.0671    5.9114   18.0512 C   0  0  0  0  0  0  0  0  0  0  0  0
   19.1747    5.6925   16.7774 C   0  0  0  0  0  0  0  0  0  0  0  0
   22.9700    3.5250   17.1854 C   0  0  0  0  0  0  0  0  0  0  0  0
   22.1882    5.4036   19.1768 O   0  0  0  0  0  0  0  0  0  0  0  0
   23.0090    4.9524   19.2011 H   0  0  0  0  0  0  0  0  0  0  0  0
   18.0661    5.1337   12.4420 C   0  0  0  0  0  0  0  0  0  0  0  0
   18.8950    4.7078   11.3975 C   0  0  0  0  0  0  0  0  0  0  0  0
   18.3601    4.3754   10.1439 C   0  0  0  0  0  0  0  0  0  0  0  0
   16.9881    4.4571    9.9428 C   0  0  0  0  0  0  0  0  0  0  0  0
   16.1511    4.8783   10.9780 C   0  0  0  0  0  0  0  0  0  0  0  0
   16.6780    5.2375   12.2227 C   0  0  0  0  0  0  0  0  0  0  0  0
   20.4088    4.5522   11.5691 C   0  0  0  0  0  0  0  0  0  0  0  0
   20.9556    4.0045   10.6110 O   0  0  0  0  0  0  0  0  0  0  0  0
   21.0633    4.9154   12.7474 O   0  0  0  0  0  0  0  0  0  0  0  0
   20.5867    5.3301   13.4393 H   0  0  0  0  0  0  0  0  0  0  0  0
 12 13  1  0  0  0
 12 17  2  0  0  0
 12  1  1  0  0  0
 13 14  2  0  0  0
 13 18  1  0  0  0
 14 15  1  0  0  0
 15 16  2  0  0  0
 16 17  1  0  0  0
  3  4  1  0  0  0
  3  8  2  0  0  0
  3  2  1  0  0  0
  4  5  2  0  0  0
  5  6  1  0  0  0
  5  9  1  0  0  0
  6  7  2  0  0  0
  6 10  1  0  0  0
  7  8  1  0  0  0
 18 19  2  0  0  0
 18 20  1  0  0  0
  1  2  2  0  0  0
 20 21  1  0  0  0
 10 11  1  0  0  0
M  END
> <minimizedAffinity>
-8.29718

$$$$
1SRG_MHB_A_300


 21 22  0  0  0  0  0  0  0  0999 V2000
   20.1622    3.3424   15.3391 N   0  0  0  0  0  0  0  0  0  0  0  0
   20.5200    3.8600   14.2386 N   0  0  0  0  0  0  0  0  0  0  0  0
   19.4953    4.4150   13.3376 C   0  0  0  0  0  0  0  0  0  0  0  0
   19.6569    4.4301   11.9474 C   0  0  0  0  0  0  0  0  0  0  0  0
   18.6604    4.9609   11.1202 C   0  0  0  0  0  0  0  0  0  0  0  0
   17.5353    5.5198   11.6917 C   0  0  0  0  0  0  0  0  0  0  0  0
   17.2772    5.6297   13.0492 C   0  0  0  0  0  0  0  0  0  0  0  0
   18.3780    4.9678   13.9530 C   0  0  0  0  0  0  0  0  0  0  0  0
   18.8740    5.0224    9.5919 C   0  0  0  0  0  0  0  0  0  0  0  0
   16.5083    6.0880   10.7639 O   0  0  0  0  0  0  0  0  0  0  0  0
   16.6360    6.0388    9.8370 H   0  0  0  0  0  0  0  0  0  0  0  0
   21.0908    2.4647   16.0712 C   0  0  0  0  0  0  0  0  0  0  0  0
   22.0107    3.0243   16.9658 C   0  0  0  0  0  0  0  0  0  0  0  0
   22.9055    2.2131   17.6794 C   0  0  0  0  0  0  0  0  0  0  0  0
   22.8671    0.8355   17.5053 C   0  0  0  0  0  0  0  0  0  0  0  0
   21.9522    0.2658   16.6176 C   0  0  0  0  0  0  0  0  0  0  0  0
   21.0746    1.0686   15.8817 C   0  0  0  0  0  0  0  0  0  0  0  0
   22.0721    4.5303   17.2370 C   0  0  0  0  0  0  0  0  0  0  0  0
   23.2212    4.9666   17.3142 O   0  0  0  0  0  0  0  0  0  0  0  0
   20.9241    5.2903   17.4674 O   0  0  0  0  0  0  0  0  0  0  0  0
   20.0778    4.8954   17.3916 H   0  0  0  0  0  0  0  0  0  0  0  0
 12 13  1  0  0  0
 12 17  2  0  0  0
 12  1  1  0  0  0
 13 14  2  0  0  0
 13 18  1  0  0  0
 14 15  1  0  0  0
 15 16  2  0  0  0
 16 17  1  0  0  0
  3  4  1  0  0  0
  3  8  2  0  0  0
  3  2  1  0  0  0
  4  5  2  0  0  0
  5  6  1  0  0  0
  5  9  1  0  0  0
  6  7  2  0  0  0
  6 10  1  0  0  0
  7  8  1  0  0  0
 18 19  2  0  0  0
 18 20  1  0  0  0
  1  2  2  0  0  0
 20 21  1  0  0  0
 10 11  1  0  0  0
M  END
> <minimizedAffinity>
-8.11877

$$$$
