2ZB1_GK4_A_361


 27 30  0  0  0  0  0  0  0  0999 V2000
   44.5761   33.1121   32.0906 C   0  0  0  0  0  0  0  0  0  0  0  0
   44.5838   31.7824   31.6382 C   0  0  0  0  0  0  0  0  0  0  0  0
   43.3942   31.0629   31.5085 C   0  0  0  0  0  0  0  0  0  0  0  0
   43.3581   33.6923   32.4376 C   0  0  0  0  0  0  0  0  0  0  0  0
   42.1809   32.9738   32.3185 C   0  0  0  0  0  0  0  0  0  0  0  0
   42.1749   31.6764   31.8316 C   0  0  0  0  0  0  0  0  0  0  0  0
   40.9518   31.0083   31.7636 C   0  0  0  0  0  0  0  0  0  0  0  0
   40.0292   31.0873   30.7196 C   0  0  0  0  0  0  0  0  0  0  0  0
   40.2919   31.9038   29.4909 C   0  0  0  0  0  0  0  0  0  0  0  0
   38.8237   30.3854   30.8025 C   0  0  0  0  0  0  0  0  0  0  0  0
   38.5178   29.6202   31.9210 C   0  0  0  0  0  0  0  0  0  0  0  0
   40.6248   30.2427   32.8824 C   0  0  0  0  0  0  0  0  0  0  0  0
   39.4329   29.5386   32.9706 C   0  0  0  0  0  0  0  0  0  0  0  0
   39.1898   28.7907   34.1276 C   0  0  0  0  0  0  0  0  0  0  0  0
   39.9942   28.7689   35.2205 N   0  0  0  0  0  0  0  0  0  0  0  0
   39.4141   27.9097   36.1584 N   0  0  0  0  0  0  0  0  0  0  0  0
   38.2095   28.0341   34.3560 O   0  0  0  0  0  0  0  0  0  0  0  0
   38.3181   27.5144   35.5036 C   0  0  0  0  0  0  0  0  0  0  0  0
   37.2036   26.5847   35.9051 C   0  0  0  0  0  0  0  0  0  0  0  0
   45.8210   35.1492   32.2615 O   0  0  0  0  0  0  0  0  0  0  0  0
   45.8565   33.9098   32.2849 C   0  0  0  0  0  0  0  0  0  0  0  0
   47.0011   33.2666   32.5674 N   0  0  0  0  0  0  0  0  0  0  0  0
   47.0209   32.2836   32.6190 H   0  0  0  0  0  0  0  0  0  0  0  0
   48.2117   34.0414   32.7961 C   0  0  0  0  0  0  0  0  0  0  0  0
   49.3942   33.3698   32.1374 C   0  0  0  0  0  0  0  0  0  0  0  0
   49.0834   33.2001   30.6557 C   0  0  0  0  0  0  0  0  0  0  0  0
   50.0044   34.3235   31.1270 C   0  0  0  0  0  0  0  0  0  0  0  0
  9  8  1  0  0  0
 26 27  1  0  0  0
 26 25  1  0  0  0
  8 10  2  0  0  0
  8  7  1  0  0  0
 10 11  1  0  0  0
 27 25  1  0  0  0
 25 24  1  0  0  0
  3  2  2  0  0  0
  3  6  1  0  0  0
  2  1  1  0  0  0
  7  6  1  0  0  0
  7 12  2  0  0  0
  6  5  2  0  0  0
 22 24  1  0  0  0
 22 21  1  0  0  0
 11 13  2  0  0  0
  1 21  1  0  0  0
  1  4  2  0  0  0
  5  4  1  0  0  0
 21 20  2  0  0  0
 12 13  1  0  0  0
 13 14  1  0  0  0
 14 17  1  0  0  0
 14 15  2  0  0  0
 17 18  1  0  0  0
 15 16  1  0  0  0
 18 19  1  0  0  0
 18 16  2  0  0  0
 22 23  1  0  0  0
M  END
> <minimizedAffinity>
-11.15232

$$$$
2ZB1_GK4_A_361


 27 30  0  0  0  0  0  0  0  0999 V2000
   44.5946   32.1744   31.1635 C   0  0  0  0  0  0  0  0  0  0  0  0
   44.1509   31.3043   30.1540 C   0  0  0  0  0  0  0  0  0  0  0  0
   42.8370   30.8319   30.1418 C   0  0  0  0  0  0  0  0  0  0  0  0
   43.7048   32.5347   32.1730 C   0  0  0  0  0  0  0  0  0  0  0  0
   42.4057   32.0568   32.1650 C   0  0  0  0  0  0  0  0  0  0  0  0
   41.9473   31.2333   31.1492 C   0  0  0  0  0  0  0  0  0  0  0  0
   40.6324   30.7722   31.2232 C   0  0  0  0  0  0  0  0  0  0  0  0
   39.5420   31.2818   30.5172 C   0  0  0  0  0  0  0  0  0  0  0  0
   39.6898   32.4009   29.5316 C   0  0  0  0  0  0  0  0  0  0  0  0
   38.2694   30.7400   30.7173 C   0  0  0  0  0  0  0  0  0  0  0  0
   38.0666   29.7088   31.6258 C   0  0  0  0  0  0  0  0  0  0  0  0
   40.4094   29.7430   32.1374 C   0  0  0  0  0  0  0  0  0  0  0  0
   39.1507   29.1958   32.3383 C   0  0  0  0  0  0  0  0  0  0  0  0
   39.0196   28.1613   33.2709 C   0  0  0  0  0  0  0  0  0  0  0  0
   39.4782   26.8961   33.0956 N   0  0  0  0  0  0  0  0  0  0  0  0
   39.1568   26.1645   34.2427 N   0  0  0  0  0  0  0  0  0  0  0  0
   38.4758   28.2200   34.4052 O   0  0  0  0  0  0  0  0  0  0  0  0
   38.5344   27.0929   34.9754 C   0  0  0  0  0  0  0  0  0  0  0  0
   37.9191   27.0254   36.3482 C   0  0  0  0  0  0  0  0  0  0  0  0
   46.6795   32.5431   32.2799 O   0  0  0  0  0  0  0  0  0  0  0  0
   46.0300   32.6726   31.2313 C   0  0  0  0  0  0  0  0  0  0  0  0
   46.6112   33.1702   30.1275 N   0  0  0  0  0  0  0  0  0  0  0  0
   46.1047   33.2414   29.2863 H   0  0  0  0  0  0  0  0  0  0  0  0
   47.9994   33.6027   30.1910 C   0  0  0  0  0  0  0  0  0  0  0  0
   48.2134   34.8047   29.3008 C   0  0  0  0  0  0  0  0  0  0  0  0
   49.4352   35.5619   29.8053 C   0  0  0  0  0  0  0  0  0  0  0  0
   49.5406   34.6561   28.5803 C   0  0  0  0  0  0  0  0  0  0  0  0
  9  8  1  0  0  0
 26 27  1  0  0  0
 26 25  1  0  0  0
  8 10  2  0  0  0
  8  7  1  0  0  0
 10 11  1  0  0  0
 27 25  1  0  0  0
 25 24  1  0  0  0
  3  2  2  0  0  0
  3  6  1  0  0  0
  2  1  1  0  0  0
  7  6  1  0  0  0
  7 12  2  0  0  0
  6  5  2  0  0  0
 22 24  1  0  0  0
 22 21  1  0  0  0
 11 13  2  0  0  0
  1 21  1  0  0  0
  1  4  2  0  0  0
  5  4  1  0  0  0
 21 20  2  0  0  0
 12 13  1  0  0  0
 13 14  1  0  0  0
 14 17  1  0  0  0
 14 15  2  0  0  0
 17 18  1  0  0  0
 15 16  1  0  0  0
 18 19  1  0  0  0
 18 16  2  0  0  0
 22 23  1  0  0  0
M  END
> <minimizedAffinity>
-10.15206

$$$$
2ZB1_GK4_A_361


 27 30  0  0  0  0  0  0  0  0999 V2000
   41.7137   30.5445   31.8600 C   0  0  0  0  0  0  0  0  0  0  0  0
   41.5753   31.8983   31.5122 C   0  0  0  0  0  0  0  0  0  0  0  0
   42.6810   32.7508   31.4970 C   0  0  0  0  0  0  0  0  0  0  0  0
   42.9743   30.0732   32.2201 C   0  0  0  0  0  0  0  0  0  0  0  0
   44.0673   30.9225   32.2148 C   0  0  0  0  0  0  0  0  0  0  0  0
   43.9474   32.2486   31.8308 C   0  0  0  0  0  0  0  0  0  0  0  0
   45.0897   33.0488   31.8747 C   0  0  0  0  0  0  0  0  0  0  0  0
   45.2852   34.1572   32.6996 C   0  0  0  0  0  0  0  0  0  0  0  0
   44.2554   34.5937   33.6968 C   0  0  0  0  0  0  0  0  0  0  0  0
   46.4728   34.8885   32.6115 C   0  0  0  0  0  0  0  0  0  0  0  0
   47.4606   34.5401   31.6989 C   0  0  0  0  0  0  0  0  0  0  0  0
   46.0878   32.7184   30.9584 C   0  0  0  0  0  0  0  0  0  0  0  0
   47.2717   33.4354   30.8681 C   0  0  0  0  0  0  0  0  0  0  0  0
   48.2212   33.0296   29.9243 C   0  0  0  0  0  0  0  0  0  0  0  0
   47.9364   32.6380   28.6565 N   0  0  0  0  0  0  0  0  0  0  0  0
   49.1434   32.3127   28.0306 N   0  0  0  0  0  0  0  0  0  0  0  0
   49.4695   32.9639   30.0763 O   0  0  0  0  0  0  0  0  0  0  0  0
   50.0168   32.5507   29.0139 C   0  0  0  0  0  0  0  0  0  0  0  0
   51.5169   32.4280   29.0599 C   0  0  0  0  0  0  0  0  0  0  0  0
   39.6609   29.6275   31.0391 O   0  0  0  0  0  0  0  0  0  0  0  0
   40.5241   29.5993   31.9291 C   0  0  0  0  0  0  0  0  0  0  0  0
   40.4635   28.6815   32.9077 N   0  0  0  0  0  0  0  0  0  0  0  0
   41.1672   28.6380   33.5948 H   0  0  0  0  0  0  0  0  0  0  0  0
   39.3440   27.7520   32.9392 C   0  0  0  0  0  0  0  0  0  0  0  0
   38.3855   28.1258   34.0459 C   0  0  0  0  0  0  0  0  0  0  0  0
   38.0960   26.8775   34.8698 C   0  0  0  0  0  0  0  0  0  0  0  0
   39.0749   27.9311   35.3836 C   0  0  0  0  0  0  0  0  0  0  0  0
  9  8  1  0  0  0
 26 27  1  0  0  0
 26 25  1  0  0  0
  8 10  2  0  0  0
  8  7  1  0  0  0
 10 11  1  0  0  0
 27 25  1  0  0  0
 25 24  1  0  0  0
  3  2  2  0  0  0
  3  6  1  0  0  0
  2  1  1  0  0  0
  7  6  1  0  0  0
  7 12  2  0  0  0
  6  5  2  0  0  0
 22 24  1  0  0  0
 22 21  1  0  0  0
 11 13  2  0  0  0
  1 21  1  0  0  0
  1  4  2  0  0  0
  5  4  1  0  0  0
 21 20  2  0  0  0
 12 13  1  0  0  0
 13 14  1  0  0  0
 14 17  1  0  0  0
 14 15  2  0  0  0
 17 18  1  0  0  0
 15 16  1  0  0  0
 18 19  1  0  0  0
 18 16  2  0  0  0
 22 23  1  0  0  0
M  END
> <minimizedAffinity>
-9.07966

$$$$
2ZB1_GK4_A_361


 27 30  0  0  0  0  0  0  0  0999 V2000
   43.5074   32.4704   31.0774 C   0  0  0  0  0  0  0  0  0  0  0  0
   43.9322   33.4396   32.0011 C   0  0  0  0  0  0  0  0  0  0  0  0
   45.2510   33.8980   32.0031 C   0  0  0  0  0  0  0  0  0  0  0  0
   44.4374   31.9509   30.1797 C   0  0  0  0  0  0  0  0  0  0  0  0
   45.7471   32.3988   30.1903 C   0  0  0  0  0  0  0  0  0  0  0  0
   46.1637   33.3862   31.0690 C   0  0  0  0  0  0  0  0  0  0  0  0
   47.5053   33.7681   31.0364 C   0  0  0  0  0  0  0  0  0  0  0  0
   48.4620   33.4928   32.0142 C   0  0  0  0  0  0  0  0  0  0  0  0
   48.1377   32.6856   33.2343 C   0  0  0  0  0  0  0  0  0  0  0  0
   49.7670   33.9697   31.8639 C   0  0  0  0  0  0  0  0  0  0  0  0
   50.1261   34.7331   30.7601 C   0  0  0  0  0  0  0  0  0  0  0  0
   47.8807   34.5431   29.9394 C   0  0  0  0  0  0  0  0  0  0  0  0
   49.1749   35.0159   29.7796 C   0  0  0  0  0  0  0  0  0  0  0  0
   49.4650   35.7809   28.6449 C   0  0  0  0  0  0  0  0  0  0  0  0
   50.4047   35.4671   27.7172 N   0  0  0  0  0  0  0  0  0  0  0  0
   50.3931   36.4704   26.7439 N   0  0  0  0  0  0  0  0  0  0  0  0
   48.9190   36.8587   28.2903 O   0  0  0  0  0  0  0  0  0  0  0  0
   49.4356   37.2756   27.2142 C   0  0  0  0  0  0  0  0  0  0  0  0
   48.8686   38.5627   26.6759 C   0  0  0  0  0  0  0  0  0  0  0  0
   41.5142   31.6992   29.9998 O   0  0  0  0  0  0  0  0  0  0  0  0
   42.0905   31.9175   31.0760 C   0  0  0  0  0  0  0  0  0  0  0  0
   41.5070   31.5882   32.2400 N   0  0  0  0  0  0  0  0  0  0  0  0
   41.9789   31.7307   33.0922 H   0  0  0  0  0  0  0  0  0  0  0  0
   40.1681   31.0178   32.2252 C   0  0  0  0  0  0  0  0  0  0  0  0
   39.6812   30.7908   33.6375 C   0  0  0  0  0  0  0  0  0  0  0  0
   38.9422   29.4593   33.6803 C   0  0  0  0  0  0  0  0  0  0  0  0
   40.3717   29.5655   34.2073 C   0  0  0  0  0  0  0  0  0  0  0  0
  9  8  1  0  0  0
 26 27  1  0  0  0
 26 25  1  0  0  0
  8 10  2  0  0  0
  8  7  1  0  0  0
 10 11  1  0  0  0
 27 25  1  0  0  0
 25 24  1  0  0  0
  3  2  2  0  0  0
  3  6  1  0  0  0
  2  1  1  0  0  0
  7  6  1  0  0  0
  7 12  2  0  0  0
  6  5  2  0  0  0
 22 24  1  0  0  0
 22 21  1  0  0  0
 11 13  2  0  0  0
  1 21  1  0  0  0
  1  4  2  0  0  0
  5  4  1  0  0  0
 21 20  2  0  0  0
 12 13  1  0  0  0
 13 14  1  0  0  0
 14 17  1  0  0  0
 14 15  2  0  0  0
 17 18  1  0  0  0
 15 16  1  0  0  0
 18 19  1  0  0  0
 18 16  2  0  0  0
 22 23  1  0  0  0
M  END
> <minimizedAffinity>
-8.96609

$$$$
2ZB1_GK4_A_361


 27 30  0  0  0  0  0  0  0  0999 V2000
   42.9936   30.8683   30.9031 C   0  0  0  0  0  0  0  0  0  0  0  0
   43.2522   31.6735   29.7817 C   0  0  0  0  0  0  0  0  0  0  0  0
   44.4229   32.4298   29.6973 C   0  0  0  0  0  0  0  0  0  0  0  0
   43.9159   30.8614   31.9471 C   0  0  0  0  0  0  0  0  0  0  0  0
   45.0708   31.6202   31.8664 C   0  0  0  0  0  0  0  0  0  0  0  0
   45.3546   32.3831   30.7449 C   0  0  0  0  0  0  0  0  0  0  0  0
   46.5266   33.1403   30.7475 C   0  0  0  0  0  0  0  0  0  0  0  0
   46.8495   34.1517   31.6532 C   0  0  0  0  0  0  0  0  0  0  0  0
   45.9448   34.5136   32.7916 C   0  0  0  0  0  0  0  0  0  0  0  0
   48.0504   34.8526   31.5137 C   0  0  0  0  0  0  0  0  0  0  0  0
   48.9254   34.5708   30.4721 C   0  0  0  0  0  0  0  0  0  0  0  0
   47.4122   32.8765   29.7030 C   0  0  0  0  0  0  0  0  0  0  0  0
   48.6087   33.5637   29.5602 C   0  0  0  0  0  0  0  0  0  0  0  0
   49.4402   33.2292   28.4861 C   0  0  0  0  0  0  0  0  0  0  0  0
   49.7610   31.9627   28.1185 N   0  0  0  0  0  0  0  0  0  0  0  0
   50.6065   32.0434   27.0081 N   0  0  0  0  0  0  0  0  0  0  0  0
   50.0153   34.0182   27.6908 O   0  0  0  0  0  0  0  0  0  0  0  0
   50.6921   33.3671   26.8442 C   0  0  0  0  0  0  0  0  0  0  0  0
   51.4320   34.1951   25.8270 C   0  0  0  0  0  0  0  0  0  0  0  0
   41.7460   28.8279   30.9976 O   0  0  0  0  0  0  0  0  0  0  0  0
   41.7091   30.0665   31.0467 C   0  0  0  0  0  0  0  0  0  0  0  0
   40.5571   30.7035   31.3127 N   0  0  0  0  0  0  0  0  0  0  0  0
   40.5353   31.6851   31.3848 H   0  0  0  0  0  0  0  0  0  0  0  0
   39.3414   29.9239   31.4930 C   0  0  0  0  0  0  0  0  0  0  0  0
   38.6975   30.2590   32.8183 C   0  0  0  0  0  0  0  0  0  0  0  0
   39.1081   29.1978   33.8313 C   0  0  0  0  0  0  0  0  0  0  0  0
   39.7840   30.5673   33.8317 C   0  0  0  0  0  0  0  0  0  0  0  0
  9  8  1  0  0  0
 26 27  1  0  0  0
 26 25  1  0  0  0
  8 10  2  0  0  0
  8  7  1  0  0  0
 10 11  1  0  0  0
 27 25  1  0  0  0
 25 24  1  0  0  0
  3  2  2  0  0  0
  3  6  1  0  0  0
  2  1  1  0  0  0
  7  6  1  0  0  0
  7 12  2  0  0  0
  6  5  2  0  0  0
 22 24  1  0  0  0
 22 21  1  0  0  0
 11 13  2  0  0  0
  1 21  1  0  0  0
  1  4  2  0  0  0
  5  4  1  0  0  0
 21 20  2  0  0  0
 12 13  1  0  0  0
 13 14  1  0  0  0
 14 17  1  0  0  0
 14 15  2  0  0  0
 17 18  1  0  0  0
 15 16  1  0  0  0
 18 19  1  0  0  0
 18 16  2  0  0  0
 22 23  1  0  0  0
M  END
> <minimizedAffinity>
-8.60177

$$$$
2ZB1_GK4_A_361


 27 30  0  0  0  0  0  0  0  0999 V2000
   44.7987   32.8811   31.0021 C   0  0  0  0  0  0  0  0  0  0  0  0
   44.8044   32.9029   29.5976 C   0  0  0  0  0  0  0  0  0  0  0  0
   45.9990   33.0411   28.8882 C   0  0  0  0  0  0  0  0  0  0  0  0
   46.0081   33.0306   31.6770 C   0  0  0  0  0  0  0  0  0  0  0  0
   47.1901   33.1783   30.9720 C   0  0  0  0  0  0  0  0  0  0  0  0
   47.2100   33.1569   29.5865 C   0  0  0  0  0  0  0  0  0  0  0  0
   48.4368   33.3364   28.9464 C   0  0  0  0  0  0  0  0  0  0  0  0
   49.0901   34.5535   28.7486 C   0  0  0  0  0  0  0  0  0  0  0  0
   48.5323   35.8448   29.2652 C   0  0  0  0  0  0  0  0  0  0  0  0
   50.3042   34.5866   28.0573 C   0  0  0  0  0  0  0  0  0  0  0  0
   50.8664   33.4242   27.5446 C   0  0  0  0  0  0  0  0  0  0  0  0
   49.0109   32.1807   28.4176 C   0  0  0  0  0  0  0  0  0  0  0  0
   50.2181   32.2038   27.7348 C   0  0  0  0  0  0  0  0  0  0  0  0
   50.7240   30.9956   27.2434 C   0  0  0  0  0  0  0  0  0  0  0  0
   50.1220   29.7876   27.3853 N   0  0  0  0  0  0  0  0  0  0  0  0
   50.9315   28.8332   26.7623 N   0  0  0  0  0  0  0  0  0  0  0  0
   51.7906   30.8207   26.5972 O   0  0  0  0  0  0  0  0  0  0  0  0
   51.9351   29.5959   26.3181 C   0  0  0  0  0  0  0  0  0  0  0  0
   53.1765   29.2480   25.5398 C   0  0  0  0  0  0  0  0  0  0  0  0
   43.2080   33.6749   32.6046 O   0  0  0  0  0  0  0  0  0  0  0  0
   43.5119   32.7761   31.8061 C   0  0  0  0  0  0  0  0  0  0  0  0
   42.6718   31.7528   31.5807 N   0  0  0  0  0  0  0  0  0  0  0  0
   42.8986   31.0573   30.9218 H   0  0  0  0  0  0  0  0  0  0  0  0
   41.4217   31.6854   32.3229 C   0  0  0  0  0  0  0  0  0  0  0  0
   40.3065   31.2018   31.4254 C   0  0  0  0  0  0  0  0  0  0  0  0
   40.5566   31.7369   30.0212 C   0  0  0  0  0  0  0  0  0  0  0  0
   40.8879   30.2861   30.3642 C   0  0  0  0  0  0  0  0  0  0  0  0
  9  8  1  0  0  0
 26 27  1  0  0  0
 26 25  1  0  0  0
  8 10  2  0  0  0
  8  7  1  0  0  0
 10 11  1  0  0  0
 27 25  1  0  0  0
 25 24  1  0  0  0
  3  2  2  0  0  0
  3  6  1  0  0  0
  2  1  1  0  0  0
  7  6  1  0  0  0
  7 12  2  0  0  0
  6  5  2  0  0  0
 22 24  1  0  0  0
 22 21  1  0  0  0
 11 13  2  0  0  0
  1 21  1  0  0  0
  1  4  2  0  0  0
  5  4  1  0  0  0
 21 20  2  0  0  0
 12 13  1  0  0  0
 13 14  1  0  0  0
 14 17  1  0  0  0
 14 15  2  0  0  0
 17 18  1  0  0  0
 15 16  1  0  0  0
 18 19  1  0  0  0
 18 16  2  0  0  0
 22 23  1  0  0  0
M  END
> <minimizedAffinity>
-8.23880

$$$$
