4F09_JAK_A_1201


 21 24  0  0  0  0  0  0  0  0999 V2000
   16.9478    6.1299   12.1897 C   0  0  0  0  0  0  0  0  0  0  0  0
   16.6383    7.5729   12.1143 C   0  0  0  0  0  0  0  0  0  0  0  0
   17.4067    8.5202   12.5323 N   0  0  0  0  0  0  0  0  0  0  0  0
   16.7229    9.6928   12.2839 C   0  0  0  0  0  0  0  0  0  0  0  0
   17.0427   11.0055   12.5879 C   0  0  0  0  0  0  0  0  0  0  0  0
   16.1971   11.9996   12.3465 N   0  0  0  0  0  0  0  0  0  0  0  0
   15.0240   11.6872   11.7887 C   0  0  0  0  0  0  0  0  0  0  0  0
   14.6206   10.4085   11.4272 C   0  0  0  0  0  0  0  0  0  0  0  0
   15.5268    9.3785   11.6996 C   0  0  0  0  0  0  0  0  0  0  0  0
   15.5243    8.0055   11.6133 N   0  0  0  0  0  0  0  0  0  0  0  0
   13.3132   10.5505   10.8620 C   0  0  0  0  0  0  0  0  0  0  0  0
   13.0003   11.8531   10.9204 C   0  0  0  0  0  0  0  0  0  0  0  0
   14.0145   12.5441   11.4841 N   0  0  0  0  0  0  0  0  0  0  0  0
   14.0213   13.5148   11.6483 H   0  0  0  0  0  0  0  0  0  0  0  0
   14.4626    7.1045   11.1621 C   0  0  0  0  0  0  0  0  0  0  0  0
   14.1366    7.2430    9.7034 C   0  0  0  0  0  0  0  0  0  0  0  0
   13.2144    6.1219    9.3641 C   0  0  0  0  0  0  0  0  0  0  0  0
   11.9893    6.0253   10.1170 N   0  0  0  0  0  0  0  0  0  0  0  0
   12.1935    6.1943   11.5471 C   0  0  0  0  0  0  0  0  0  0  0  0
   13.2120    7.1994   12.0037 C   0  0  0  0  0  0  0  0  0  0  0  0
   11.5771    5.1068    9.9527 H   0  0  0  0  0  0  0  0  0  0  0  0
  1  2  1  0  0  0
  2 10  1  0  0  0
  3  2  2  0  0  0
  3  4  1  0  0  0
  4  9  1  0  0  0
  5  4  2  0  0  0
  5  6  1  0  0  0
  6  7  2  0  0  0
  7  8  1  0  0  0
  7 13  1  0  0  0
  8 11  1  0  0  0
  9  8  2  0  0  0
  9 10  1  0  0  0
 10 15  1  0  0  0
 15 16  1  0  0  0
 16 17  1  0  0  0
 18 17  1  0  0  0
 19 18  1  0  0  0
 20 15  1  0  0  0
 20 19  1  0  0  0
 11 12  2  0  0  0
 13 12  1  0  0  0
 18 21  1  0  0  0
 13 14  1  0  0  0
M  END
> <minimizedAffinity>
-8.37075

$$$$
4F09_JAK_A_1201


 21 24  0  0  0  0  0  0  0  0999 V2000
   12.7704   10.8282   10.5803 C   0  0  0  0  0  0  0  0  0  0  0  0
   14.0580   10.3915   11.1591 C   0  0  0  0  0  0  0  0  0  0  0  0
   14.9881   11.1789   11.5805 N   0  0  0  0  0  0  0  0  0  0  0  0
   16.0058   10.3550   12.0162 C   0  0  0  0  0  0  0  0  0  0  0  0
   17.2665   10.6583   12.5028 C   0  0  0  0  0  0  0  0  0  0  0  0
   18.1489    9.7078   12.7843 N   0  0  0  0  0  0  0  0  0  0  0  0
   17.7719    8.4412   12.5886 C   0  0  0  0  0  0  0  0  0  0  0  0
   16.5265    8.0350   12.1272 C   0  0  0  0  0  0  0  0  0  0  0  0
   15.6183    9.0565   11.8306 C   0  0  0  0  0  0  0  0  0  0  0  0
   14.3606    9.1372   11.2791 N   0  0  0  0  0  0  0  0  0  0  0  0
   16.5668    6.6048   12.0854 C   0  0  0  0  0  0  0  0  0  0  0  0
   17.7891    6.2349   12.4942 C   0  0  0  0  0  0  0  0  0  0  0  0
   18.5251    7.3282   12.7890 N   0  0  0  0  0  0  0  0  0  0  0  0
   19.4592    7.3201   13.0998 H   0  0  0  0  0  0  0  0  0  0  0  0
   13.4936    8.0680   10.7812 C   0  0  0  0  0  0  0  0  0  0  0  0
   12.9457    7.1852   11.8646 C   0  0  0  0  0  0  0  0  0  0  0  0
   11.9254    6.3071   11.2241 C   0  0  0  0  0  0  0  0  0  0  0  0
   12.3594    5.4893   10.1196 N   0  0  0  0  0  0  0  0  0  0  0  0
   13.1746    6.2222    9.1637 C   0  0  0  0  0  0  0  0  0  0  0  0
   14.1396    7.2446    9.6923 C   0  0  0  0  0  0  0  0  0  0  0  0
   11.5360    5.1289    9.6373 H   0  0  0  0  0  0  0  0  0  0  0  0
  1  2  1  0  0  0
  2 10  1  0  0  0
  3  2  2  0  0  0
  3  4  1  0  0  0
  4  9  1  0  0  0
  5  4  2  0  0  0
  5  6  1  0  0  0
  6  7  2  0  0  0
  7  8  1  0  0  0
  7 13  1  0  0  0
  8 11  1  0  0  0
  9  8  2  0  0  0
  9 10  1  0  0  0
 10 15  1  0  0  0
 15 16  1  0  0  0
 16 17  1  0  0  0
 18 17  1  0  0  0
 19 18  1  0  0  0
 20 15  1  0  0  0
 20 19  1  0  0  0
 11 12  2  0  0  0
 13 12  1  0  0  0
 18 21  1  0  0  0
 13 14  1  0  0  0
M  END
> <minimizedAffinity>
-7.71242

$$$$
4F09_JAK_A_1201


 21 24  0  0  0  0  0  0  0  0999 V2000
   11.6437    9.8874    9.8169 C   0  0  0  0  0  0  0  0  0  0  0  0
   12.9134   10.2239   10.4940 C   0  0  0  0  0  0  0  0  0  0  0  0
   13.3541   11.4189   10.6949 N   0  0  0  0  0  0  0  0  0  0  0  0
   14.5670   11.2668   11.3354 C   0  0  0  0  0  0  0  0  0  0  0  0
   15.5042   12.2078   11.7279 C   0  0  0  0  0  0  0  0  0  0  0  0
   16.6693   11.8497   12.2529 N   0  0  0  0  0  0  0  0  0  0  0  0
   16.9027   10.5422   12.3976 C   0  0  0  0  0  0  0  0  0  0  0  0
   16.0205    9.5253   12.0567 C   0  0  0  0  0  0  0  0  0  0  0  0
   14.8034    9.9295   11.4984 C   0  0  0  0  0  0  0  0  0  0  0  0
   13.7109    9.3058   10.9419 N   0  0  0  0  0  0  0  0  0  0  0  0
   16.6789    8.3000   12.3942 C   0  0  0  0  0  0  0  0  0  0  0  0
   17.8819    8.6249   12.8895 C   0  0  0  0  0  0  0  0  0  0  0  0
   18.0322    9.9670   12.8869 N   0  0  0  0  0  0  0  0  0  0  0  0
   18.8333   10.4517   13.1912 H   0  0  0  0  0  0  0  0  0  0  0  0
   13.4574    7.8781   10.7417 C   0  0  0  0  0  0  0  0  0  0  0  0
   13.3262    7.1059   12.0223 C   0  0  0  0  0  0  0  0  0  0  0  0
   12.8557    5.7410   11.6510 C   0  0  0  0  0  0  0  0  0  0  0  0
   13.6691    4.9921   10.7266 N   0  0  0  0  0  0  0  0  0  0  0  0
   14.1003    5.7859    9.5866 C   0  0  0  0  0  0  0  0  0  0  0  0
   14.4606    7.2250    9.8208 C   0  0  0  0  0  0  0  0  0  0  0  0
   13.1276    4.1980   10.3850 H   0  0  0  0  0  0  0  0  0  0  0  0
  1  2  1  0  0  0
  2 10  1  0  0  0
  3  2  2  0  0  0
  3  4  1  0  0  0
  4  9  1  0  0  0
  5  4  2  0  0  0
  5  6  1  0  0  0
  6  7  2  0  0  0
  7  8  1  0  0  0
  7 13  1  0  0  0
  8 11  1  0  0  0
  9  8  2  0  0  0
  9 10  1  0  0  0
 10 15  1  0  0  0
 15 16  1  0  0  0
 16 17  1  0  0  0
 18 17  1  0  0  0
 19 18  1  0  0  0
 20 15  1  0  0  0
 20 19  1  0  0  0
 11 12  2  0  0  0
 13 12  1  0  0  0
 18 21  1  0  0  0
 13 14  1  0  0  0
M  END
> <minimizedAffinity>
-7.60209

$$$$
4F09_JAK_A_1201


 21 24  0  0  0  0  0  0  0  0999 V2000
   14.8201   10.0275   10.7939 C   0  0  0  0  0  0  0  0  0  0  0  0
   15.4985    8.8964   11.4604 C   0  0  0  0  0  0  0  0  0  0  0  0
   16.6752    8.9412   11.9856 N   0  0  0  0  0  0  0  0  0  0  0  0
   16.9152    7.6727   12.4730 C   0  0  0  0  0  0  0  0  0  0  0  0
   18.0416    7.1347   13.0726 C   0  0  0  0  0  0  0  0  0  0  0  0
   18.1109    5.8481   13.3907 N   0  0  0  0  0  0  0  0  0  0  0  0
   17.0459    5.0889   13.1182 C   0  0  0  0  0  0  0  0  0  0  0  0
   15.8650    5.5377   12.5412 C   0  0  0  0  0  0  0  0  0  0  0  0
   15.8211    6.8955   12.2086 C   0  0  0  0  0  0  0  0  0  0  0  0
   14.9418    7.7304   11.5587 N   0  0  0  0  0  0  0  0  0  0  0  0
   15.0090    4.3941   12.4503 C   0  0  0  0  0  0  0  0  0  0  0  0
   15.6932    3.3521   12.9446 C   0  0  0  0  0  0  0  0  0  0  0  0
   16.9206    3.7542   13.3389 N   0  0  0  0  0  0  0  0  0  0  0  0
   17.6146    3.1724   13.7250 H   0  0  0  0  0  0  0  0  0  0  0  0
   13.6453    7.4243   10.9522 C   0  0  0  0  0  0  0  0  0  0  0  0
   12.5941    7.0295   11.9484 C   0  0  0  0  0  0  0  0  0  0  0  0
   11.3028    6.9721   11.2058 C   0  0  0  0  0  0  0  0  0  0  0  0
   11.2347    6.0888   10.0691 N   0  0  0  0  0  0  0  0  0  0  0  0
   12.3971    6.1984    9.2016 C   0  0  0  0  0  0  0  0  0  0  0  0
   13.7406    6.4070    9.8399 C   0  0  0  0  0  0  0  0  0  0  0  0
   10.4010    6.3175    9.5277 H   0  0  0  0  0  0  0  0  0  0  0  0
  1  2  1  0  0  0
  2 10  1  0  0  0
  3  2  2  0  0  0
  3  4  1  0  0  0
  4  9  1  0  0  0
  5  4  2  0  0  0
  5  6  1  0  0  0
  6  7  2  0  0  0
  7  8  1  0  0  0
  7 13  1  0  0  0
  8 11  1  0  0  0
  9  8  2  0  0  0
  9 10  1  0  0  0
 10 15  1  0  0  0
 15 16  1  0  0  0
 16 17  1  0  0  0
 18 17  1  0  0  0
 19 18  1  0  0  0
 20 15  1  0  0  0
 20 19  1  0  0  0
 11 12  2  0  0  0
 13 12  1  0  0  0
 18 21  1  0  0  0
 13 14  1  0  0  0
M  END
> <minimizedAffinity>
-7.24250

$$$$
4F09_JAK_A_1201


 21 24  0  0  0  0  0  0  0  0999 V2000
   14.9515    3.9056   11.8221 C   0  0  0  0  0  0  0  0  0  0  0  0
   15.7653    5.1246   12.0104 C   0  0  0  0  0  0  0  0  0  0  0  0
   16.9953    5.1442   12.3969 N   0  0  0  0  0  0  0  0  0  0  0  0
   17.3478    6.4772   12.4530 C   0  0  0  0  0  0  0  0  0  0  0  0
   18.5220    7.0832   12.8679 C   0  0  0  0  0  0  0  0  0  0  0  0
   18.6342    8.4038   12.9378 N   0  0  0  0  0  0  0  0  0  0  0  0
   17.5709    9.1310   12.5834 C   0  0  0  0  0  0  0  0  0  0  0  0
   16.3605    8.6195   12.1339 C   0  0  0  0  0  0  0  0  0  0  0  0
   16.2661    7.2252   12.0772 C   0  0  0  0  0  0  0  0  0  0  0  0
   15.2786    6.3075   11.8030 N   0  0  0  0  0  0  0  0  0  0  0  0
   15.5285    9.7520   11.8619 C   0  0  0  0  0  0  0  0  0  0  0  0
   16.2447   10.8454   12.1611 C   0  0  0  0  0  0  0  0  0  0  0  0
   17.4682   10.4856   12.6052 N   0  0  0  0  0  0  0  0  0  0  0  0
   18.1739   11.1064   12.8982 H   0  0  0  0  0  0  0  0  0  0  0  0
   13.8759    6.5296   11.4483 C   0  0  0  0  0  0  0  0  0  0  0  0
   13.6933    7.3421   10.1994 C   0  0  0  0  0  0  0  0  0  0  0  0
   12.2424    7.2853    9.8618 C   0  0  0  0  0  0  0  0  0  0  0  0
   11.3138    7.7419   10.8649 N   0  0  0  0  0  0  0  0  0  0  0  0
   11.6204    7.2276   12.1905 C   0  0  0  0  0  0  0  0  0  0  0  0
   13.0640    7.1026   12.5857 C   0  0  0  0  0  0  0  0  0  0  0  0
   10.3763    7.4356   10.6051 H   0  0  0  0  0  0  0  0  0  0  0  0
  1  2  1  0  0  0
  2 10  1  0  0  0
  3  2  2  0  0  0
  3  4  1  0  0  0
  4  9  1  0  0  0
  5  4  2  0  0  0
  5  6  1  0  0  0
  6  7  2  0  0  0
  7  8  1  0  0  0
  7 13  1  0  0  0
  8 11  1  0  0  0
  9  8  2  0  0  0
  9 10  1  0  0  0
 10 15  1  0  0  0
 15 16  1  0  0  0
 16 17  1  0  0  0
 18 17  1  0  0  0
 19 18  1  0  0  0
 20 15  1  0  0  0
 20 19  1  0  0  0
 11 12  2  0  0  0
 13 12  1  0  0  0
 18 21  1  0  0  0
 13 14  1  0  0  0
M  END
> <minimizedAffinity>
-7.04587

$$$$
4F09_JAK_A_1201


 21 24  0  0  0  0  0  0  0  0999 V2000
   13.5238    5.4547   10.1583 C   0  0  0  0  0  0  0  0  0  0  0  0
   13.6456    6.9050   10.4145 C   0  0  0  0  0  0  0  0  0  0  0  0
   12.8290    7.8061    9.9858 N   0  0  0  0  0  0  0  0  0  0  0  0
   13.3295    9.0096   10.4391 C   0  0  0  0  0  0  0  0  0  0  0  0
   12.8961   10.3067   10.2207 C   0  0  0  0  0  0  0  0  0  0  0  0
   13.5782   11.3516   10.6726 N   0  0  0  0  0  0  0  0  0  0  0  0
   14.6989   11.1053   11.3567 C   0  0  0  0  0  0  0  0  0  0  0  0
   15.2032    9.8442   11.6468 C   0  0  0  0  0  0  0  0  0  0  0  0
   14.4698    8.7607   11.1524 C   0  0  0  0  0  0  0  0  0  0  0  0
   14.6260    7.3948   11.1060 N   0  0  0  0  0  0  0  0  0  0  0  0
   16.4006   10.0602   12.4007 C   0  0  0  0  0  0  0  0  0  0  0  0
   16.5598   11.3870   12.5120 C   0  0  0  0  0  0  0  0  0  0  0  0
   15.5508   12.0250   11.8807 N   0  0  0  0  0  0  0  0  0  0  0  0
   15.4486   13.0017   11.8111 H   0  0  0  0  0  0  0  0  0  0  0  0
   15.7214    6.5667   11.6129 C   0  0  0  0  0  0  0  0  0  0  0  0
   15.4964    6.0611   13.0083 C   0  0  0  0  0  0  0  0  0  0  0  0
   16.5768    5.0714   13.2828 C   0  0  0  0  0  0  0  0  0  0  0  0
   17.9376    5.5293   13.1578 N   0  0  0  0  0  0  0  0  0  0  0  0
   18.1597    6.3088   11.9501 C   0  0  0  0  0  0  0  0  0  0  0  0
   17.0699    7.2368   11.4951 C   0  0  0  0  0  0  0  0  0  0  0  0
   18.5546    4.7173   13.1400 H   0  0  0  0  0  0  0  0  0  0  0  0
  1  2  1  0  0  0
  2 10  1  0  0  0
  3  2  2  0  0  0
  3  4  1  0  0  0
  4  9  1  0  0  0
  5  4  2  0  0  0
  5  6  1  0  0  0
  6  7  2  0  0  0
  7  8  1  0  0  0
  7 13  1  0  0  0
  8 11  1  0  0  0
  9  8  2  0  0  0
  9 10  1  0  0  0
 10 15  1  0  0  0
 15 16  1  0  0  0
 16 17  1  0  0  0
 18 17  1  0  0  0
 19 18  1  0  0  0
 20 15  1  0  0  0
 20 19  1  0  0  0
 11 12  2  0  0  0
 13 12  1  0  0  0
 18 21  1  0  0  0
 13 14  1  0  0  0
M  END
> <minimizedAffinity>
-6.58110

$$$$
4F09_JAK_A_1201


 21 24  0  0  0  0  0  0  0  0999 V2000
   15.6989    5.7664   13.0915 C   0  0  0  0  0  0  0  0  0  0  0  0
   14.8307    5.0871   12.1073 C   0  0  0  0  0  0  0  0  0  0  0  0
   14.7736    3.8123   11.9223 N   0  0  0  0  0  0  0  0  0  0  0  0
   13.8574    3.6229   10.9080 C   0  0  0  0  0  0  0  0  0  0  0  0
   13.4548    2.4670   10.2600 C   0  0  0  0  0  0  0  0  0  0  0  0
   12.6191    2.5042    9.2296 N   0  0  0  0  0  0  0  0  0  0  0  0
   12.1714    3.7024    8.8439 C   0  0  0  0  0  0  0  0  0  0  0  0
   12.4973    4.9131    9.4411 C   0  0  0  0  0  0  0  0  0  0  0  0
   13.3856    4.8466   10.5194 C   0  0  0  0  0  0  0  0  0  0  0  0
   14.0422    5.7508   11.3218 N   0  0  0  0  0  0  0  0  0  0  0  0
   11.7853    5.9186    8.7125 C   0  0  0  0  0  0  0  0  0  0  0  0
   11.1034    5.2913    7.7432 C   0  0  0  0  0  0  0  0  0  0  0  0
   11.3352    3.9623    7.8050 N   0  0  0  0  0  0  0  0  0  0  0  0
   10.9581    3.2886    7.1941 H   0  0  0  0  0  0  0  0  0  0  0  0
   14.0104    7.2139   11.2927 C   0  0  0  0  0  0  0  0  0  0  0  0
   12.6378    7.7890   11.4888 C   0  0  0  0  0  0  0  0  0  0  0  0
   12.8115    9.2603   11.6548 C   0  0  0  0  0  0  0  0  0  0  0  0
   13.4757    9.9699   10.5907 N   0  0  0  0  0  0  0  0  0  0  0  0
   14.6775    9.2935   10.1285 C   0  0  0  0  0  0  0  0  0  0  0  0
   14.6648    7.7931   10.0609 C   0  0  0  0  0  0  0  0  0  0  0  0
   13.7327   10.8975   10.9280 H   0  0  0  0  0  0  0  0  0  0  0  0
  1  2  1  0  0  0
  2 10  1  0  0  0
  3  2  2  0  0  0
  3  4  1  0  0  0
  4  9  1  0  0  0
  5  4  2  0  0  0
  5  6  1  0  0  0
  6  7  2  0  0  0
  7  8  1  0  0  0
  7 13  1  0  0  0
  8 11  1  0  0  0
  9  8  2  0  0  0
  9 10  1  0  0  0
 10 15  1  0  0  0
 15 16  1  0  0  0
 16 17  1  0  0  0
 18 17  1  0  0  0
 19 18  1  0  0  0
 20 15  1  0  0  0
 20 19  1  0  0  0
 11 12  2  0  0  0
 13 12  1  0  0  0
 18 21  1  0  0  0
 13 14  1  0  0  0
M  END
> <minimizedAffinity>
-6.24137

$$$$
4F09_JAK_A_1201


 21 24  0  0  0  0  0  0  0  0999 V2000
   17.6699    8.0192   12.8294 C   0  0  0  0  0  0  0  0  0  0  0  0
   16.5266    8.6908   12.1770 C   0  0  0  0  0  0  0  0  0  0  0  0
   16.4130    9.9635   12.0038 N   0  0  0  0  0  0  0  0  0  0  0  0
   15.1968   10.1482   11.3785 C   0  0  0  0  0  0  0  0  0  0  0  0
   14.5357   11.3100   11.0164 C   0  0  0  0  0  0  0  0  0  0  0  0
   13.3125   11.2809   10.5022 N   0  0  0  0  0  0  0  0  0  0  0  0
   12.7429   10.0837   10.3377 C   0  0  0  0  0  0  0  0  0  0  0  0
   13.3306    8.8641   10.6476 C   0  0  0  0  0  0  0  0  0  0  0  0
   14.6163    8.9234   11.1952 C   0  0  0  0  0  0  0  0  0  0  0  0
   15.5121    8.0235   11.7245 N   0  0  0  0  0  0  0  0  0  0  0  0
   12.3706    7.8616   10.2980 C   0  0  0  0  0  0  0  0  0  0  0  0
   11.2904    8.5008    9.8261 C   0  0  0  0  0  0  0  0  0  0  0  0
   11.4975    9.8350    9.8548 N   0  0  0  0  0  0  0  0  0  0  0  0
   10.8489   10.5191    9.5708 H   0  0  0  0  0  0  0  0  0  0  0  0
   15.3839    6.5755   11.8955 C   0  0  0  0  0  0  0  0  0  0  0  0
   14.9304    5.8618   10.6552 C   0  0  0  0  0  0  0  0  0  0  0  0
   15.0662    4.4027   10.9288 C   0  0  0  0  0  0  0  0  0  0  0  0
   14.3547    3.8762   12.0662 N   0  0  0  0  0  0  0  0  0  0  0  0
   14.5010    4.7040   13.2532 C   0  0  0  0  0  0  0  0  0  0  0  0
   14.5252    6.1955   13.0785 C   0  0  0  0  0  0  0  0  0  0  0  0
   14.7135    2.9440   12.2724 H   0  0  0  0  0  0  0  0  0  0  0  0
  1  2  1  0  0  0
  2 10  1  0  0  0
  3  2  2  0  0  0
  3  4  1  0  0  0
  4  9  1  0  0  0
  5  4  2  0  0  0
  5  6  1  0  0  0
  6  7  2  0  0  0
  7  8  1  0  0  0
  7 13  1  0  0  0
  8 11  1  0  0  0
  9  8  2  0  0  0
  9 10  1  0  0  0
 10 15  1  0  0  0
 15 16  1  0  0  0
 16 17  1  0  0  0
 18 17  1  0  0  0
 19 18  1  0  0  0
 20 15  1  0  0  0
 20 19  1  0  0  0
 11 12  2  0  0  0
 13 12  1  0  0  0
 18 21  1  0  0  0
 13 14  1  0  0  0
M  END
> <minimizedAffinity>
-6.16160

$$$$
4F09_JAK_A_1201


 21 24  0  0  0  0  0  0  0  0999 V2000
   11.1092    5.3471    9.7253 C   0  0  0  0  0  0  0  0  0  0  0  0
   12.2110    4.6670   10.4376 C   0  0  0  0  0  0  0  0  0  0  0  0
   12.2431    3.4116   10.7302 N   0  0  0  0  0  0  0  0  0  0  0  0
   13.4323    3.2152   11.4022 C   0  0  0  0  0  0  0  0  0  0  0  0
   13.9523    2.0810   12.0032 C   0  0  0  0  0  0  0  0  0  0  0  0
   15.0860    2.1185   12.6922 N   0  0  0  0  0  0  0  0  0  0  0  0
   15.7149    3.2941   12.7779 C   0  0  0  0  0  0  0  0  0  0  0  0
   15.2875    4.4792   12.1935 C   0  0  0  0  0  0  0  0  0  0  0  0
   14.0863    4.4139   11.4800 C   0  0  0  0  0  0  0  0  0  0  0  0
   13.2593    5.3110   10.8445 N   0  0  0  0  0  0  0  0  0  0  0  0
   16.2673    5.4652   12.5352 C   0  0  0  0  0  0  0  0  0  0  0  0
   17.1924    4.8538   13.2891 C   0  0  0  0  0  0  0  0  0  0  0  0
   16.8666    3.5532   13.4507 N   0  0  0  0  0  0  0  0  0  0  0  0
   17.3819    2.8968   13.9731 H   0  0  0  0  0  0  0  0  0  0  0  0
   13.3950    6.7616   10.7034 C   0  0  0  0  0  0  0  0  0  0  0  0
   14.7367    7.1920   10.1860 C   0  0  0  0  0  0  0  0  0  0  0  0
   14.6332    8.6499    9.8928 C   0  0  0  0  0  0  0  0  0  0  0  0
   14.2436    9.5145   10.9780 N   0  0  0  0  0  0  0  0  0  0  0  0
   13.1149    8.9943   11.7337 C   0  0  0  0  0  0  0  0  0  0  0  0
   13.0394    7.5122   11.9648 C   0  0  0  0  0  0  0  0  0  0  0  0
   13.9878   10.4244   10.5944 H   0  0  0  0  0  0  0  0  0  0  0  0
  1  2  1  0  0  0
  2 10  1  0  0  0
  3  2  2  0  0  0
  3  4  1  0  0  0
  4  9  1  0  0  0
  5  4  2  0  0  0
  5  6  1  0  0  0
  6  7  2  0  0  0
  7  8  1  0  0  0
  7 13  1  0  0  0
  8 11  1  0  0  0
  9  8  2  0  0  0
  9 10  1  0  0  0
 10 15  1  0  0  0
 15 16  1  0  0  0
 16 17  1  0  0  0
 18 17  1  0  0  0
 19 18  1  0  0  0
 20 15  1  0  0  0
 20 19  1  0  0  0
 11 12  2  0  0  0
 13 12  1  0  0  0
 18 21  1  0  0  0
 13 14  1  0  0  0
M  END
> <minimizedAffinity>
-6.11812

$$$$
4F09_JAK_A_1201


 21 24  0  0  0  0  0  0  0  0999 V2000
   13.5092   11.0528   10.5407 C   0  0  0  0  0  0  0  0  0  0  0  0
   13.2723    9.5951   10.5916 C   0  0  0  0  0  0  0  0  0  0  0  0
   12.2780    8.9845   10.0427 N   0  0  0  0  0  0  0  0  0  0  0  0
   12.4413    7.6501   10.3539 C   0  0  0  0  0  0  0  0  0  0  0  0
   11.6374    6.5554   10.0829 C   0  0  0  0  0  0  0  0  0  0  0  0
   11.9246    5.3493   10.5562 N   0  0  0  0  0  0  0  0  0  0  0  0
   13.0277    5.2272   11.3001 C   0  0  0  0  0  0  0  0  0  0  0  0
   13.9077    6.2564   11.6083 C   0  0  0  0  0  0  0  0  0  0  0  0
   13.5776    7.5185   11.1039 C   0  0  0  0  0  0  0  0  0  0  0  0
   14.0720    8.7965   11.2256 N   0  0  0  0  0  0  0  0  0  0  0  0
   14.9395    5.6692   12.4078 C   0  0  0  0  0  0  0  0  0  0  0  0
   14.6360    4.3706   12.5475 C   0  0  0  0  0  0  0  0  0  0  0  0
   13.4854    4.0954   11.8962 N   0  0  0  0  0  0  0  0  0  0  0  0
   13.0478    3.2143   11.8592 H   0  0  0  0  0  0  0  0  0  0  0  0
   15.2155    9.2809   12.0004 C   0  0  0  0  0  0  0  0  0  0  0  0
   15.4091   10.7673   11.9205 C   0  0  0  0  0  0  0  0  0  0  0  0
   16.4548   11.1159   12.9242 C   0  0  0  0  0  0  0  0  0  0  0  0
   17.7336   10.4633   12.7976 N   0  0  0  0  0  0  0  0  0  0  0  0
   17.6139    9.0336   12.5589 C   0  0  0  0  0  0  0  0  0  0  0  0
   16.4986    8.5536   11.6748 C   0  0  0  0  0  0  0  0  0  0  0  0
   18.2599   10.6072   13.6594 H   0  0  0  0  0  0  0  0  0  0  0  0
  1  2  1  0  0  0
  2 10  1  0  0  0
  3  2  2  0  0  0
  3  4  1  0  0  0
  4  9  1  0  0  0
  5  4  2  0  0  0
  5  6  1  0  0  0
  6  7  2  0  0  0
  7  8  1  0  0  0
  7 13  1  0  0  0
  8 11  1  0  0  0
  9  8  2  0  0  0
  9 10  1  0  0  0
 10 15  1  0  0  0
 15 16  1  0  0  0
 16 17  1  0  0  0
 18 17  1  0  0  0
 19 18  1  0  0  0
 20 15  1  0  0  0
 20 19  1  0  0  0
 11 12  2  0  0  0
 13 12  1  0  0  0
 18 21  1  0  0  0
 13 14  1  0  0  0
M  END
> <minimizedAffinity>
-5.98401

$$$$
