6DQ4_K0I_A_601


 31 34  0  0  0  0  0  0  0  0999 V2000
  -23.1389   22.0560    1.1688 C   0  0  0  0  0  0  0  0  0  0  0  0
  -23.0440   21.0045    1.9609 N   0  0  0  0  0  0  0  0  0  0  0  0
  -23.6420   21.0764    3.1749 C   0  0  0  0  0  0  0  0  0  0  0  0
  -24.3394   22.1431    3.6433 N   0  0  0  0  0  0  0  0  0  0  0  0
  -24.4138   23.1828    2.8274 C   0  0  0  0  0  0  0  0  0  0  0  0
  -23.8162   23.1544    1.5754 C   0  0  0  0  0  0  0  0  0  0  0  0
  -25.1123   24.2810    3.2676 N   0  0  0  0  0  0  0  0  0  0  0  0
  -26.2162   24.8272    2.4935 C   0  0  0  0  0  0  0  0  0  0  0  0
  -27.4817   23.9658    2.5697 C   0  0  0  0  0  0  0  0  0  0  0  0
  -28.2006   23.9256    3.9231 C   0  0  0  0  0  0  0  0  0  0  0  0
  -27.7335   24.5918    5.0743 C   0  0  0  0  0  0  0  0  0  0  0  0
  -26.4336   25.4137    4.9900 C   0  0  0  0  0  0  0  0  0  0  0  0
  -25.2204   24.5593    4.6807 C   0  0  0  0  0  0  0  0  0  0  0  0
  -29.3843   23.1842    4.0261 C   0  0  0  0  0  0  0  0  0  0  0  0
  -30.0952   23.0901    5.2130 C   0  0  0  0  0  0  0  0  0  0  0  0
  -29.6323   23.7461    6.3419 C   0  0  0  0  0  0  0  0  0  0  0  0
  -28.4619   24.4846    6.2637 C   0  0  0  0  0  0  0  0  0  0  0  0
  -23.5346   19.8900    4.0724 C   0  0  0  0  0  0  0  0  0  0  0  0
  -23.4026   18.6808    3.4772 N   0  0  0  0  0  0  0  0  0  0  0  0
  -23.3032   17.5979    4.2798 C   0  0  0  0  0  0  0  0  0  0  0  0
  -23.3288   17.6948    5.6601 C   0  0  0  0  0  0  0  0  0  0  0  0
  -23.4593   18.9155    6.2358 C   0  0  0  0  0  0  0  0  0  0  0  0
  -23.5626   20.0181    5.4530 C   0  0  0  0  0  0  0  0  0  0  0  0
  -22.5505   22.0266   -0.0576 N   0  0  0  0  0  0  0  0  0  0  0  0
  -22.6393   21.2251   -0.6224 H   0  0  0  0  0  0  0  0  0  0  0  0
  -21.7907   23.1703   -0.5419 C   0  0  0  0  0  0  0  0  0  0  0  0
  -20.3481   22.7646   -0.8441 C   0  0  0  0  0  0  0  0  0  0  0  0
  -19.6279   22.0200    1.3420 O   0  0  0  0  0  0  0  0  0  0  0  0
  -19.9156   21.6976    0.1594 C   0  0  0  0  0  0  0  0  0  0  0  0
  -19.8463   20.4935   -0.1970 O   0  0  0  0  0  0  0  0  0  0  0  0
  -20.0602   20.2523   -1.0768 H   0  0  0  0  0  0  0  0  0  0  0  0
 28 29  2  0  0  0
 29 30  1  0  0  0
 29 27  1  0  0  0
 27 26  1  0  0  0
 26 24  1  0  0  0
 24  1  1  0  0  0
  1  2  2  0  0  0
  1  6  1  0  0  0
  2  3  1  0  0  0
  3 18  1  0  0  0
  3  4  2  0  0  0
 18 19  2  0  0  0
 18 23  1  0  0  0
 19 20  1  0  0  0
 20 21  2  0  0  0
 21 22  1  0  0  0
 22 23  2  0  0  0
  4  5  1  0  0  0
  5  6  2  0  0  0
  5  7  1  0  0  0
  7  8  1  0  0  0
  7 13  1  0  0  0
  8  9  1  0  0  0
  9 10  1  0  0  0
 10 11  1  0  0  0
 10 14  2  0  0  0
 11 12  1  0  0  0
 11 17  2  0  0  0
 12 13  1  0  0  0
 14 15  1  0  0  0
 15 16  2  0  0  0
 16 17  1  0  0  0
 30 31  1  0  0  0
 24 25  1  0  0  0
M  END
> <minimizedAffinity>
-9.43098

$$$$
6DQ4_K0I_A_601


 31 34  0  0  0  0  0  0  0  0999 V2000
  -23.2487   21.9902    1.0139 C   0  0  0  0  0  0  0  0  0  0  0  0
  -23.1175   20.9593    1.8276 N   0  0  0  0  0  0  0  0  0  0  0  0
  -23.6571   21.0639    3.0663 C   0  0  0  0  0  0  0  0  0  0  0  0
  -24.3301   22.1442    3.5395 N   0  0  0  0  0  0  0  0  0  0  0  0
  -24.4419   23.1626    2.7014 C   0  0  0  0  0  0  0  0  0  0  0  0
  -23.9046   23.1005    1.4235 C   0  0  0  0  0  0  0  0  0  0  0  0
  -25.1174   24.2735    3.1457 N   0  0  0  0  0  0  0  0  0  0  0  0
  -26.2384   24.8190    2.3961 C   0  0  0  0  0  0  0  0  0  0  0  0
  -27.5088   23.9708    2.5216 C   0  0  0  0  0  0  0  0  0  0  0  0
  -28.1883   23.9566    3.8957 C   0  0  0  0  0  0  0  0  0  0  0  0
  -27.6818   24.6348    5.0231 C   0  0  0  0  0  0  0  0  0  0  0  0
  -26.3775   25.4431    4.8891 C   0  0  0  0  0  0  0  0  0  0  0  0
  -25.1816   24.5729    4.5572 C   0  0  0  0  0  0  0  0  0  0  0  0
  -29.3751   23.2280    4.0439 C   0  0  0  0  0  0  0  0  0  0  0  0
  -30.0519   23.1576    5.2522 C   0  0  0  0  0  0  0  0  0  0  0  0
  -29.5503   23.8252    6.3575 C   0  0  0  0  0  0  0  0  0  0  0  0
  -28.3761   24.5515    6.2346 C   0  0  0  0  0  0  0  0  0  0  0  0
  -23.5086   19.9009    3.9881 C   0  0  0  0  0  0  0  0  0  0  0  0
  -23.3596   18.6817    3.4179 N   0  0  0  0  0  0  0  0  0  0  0  0
  -23.2230   17.6197    4.2427 C   0  0  0  0  0  0  0  0  0  0  0  0
  -23.2278   17.7473    5.6207 C   0  0  0  0  0  0  0  0  0  0  0  0
  -23.3759   18.9776    6.1711 C   0  0  0  0  0  0  0  0  0  0  0  0
  -23.5166   20.0597    5.3658 C   0  0  0  0  0  0  0  0  0  0  0  0
  -22.7194   21.9277   -0.2379 N   0  0  0  0  0  0  0  0  0  0  0  0
  -22.2623   21.1076   -0.5342 H   0  0  0  0  0  0  0  0  0  0  0  0
  -22.8232   23.0634   -1.1432 C   0  0  0  0  0  0  0  0  0  0  0  0
  -22.1286   22.7549   -2.4697 C   0  0  0  0  0  0  0  0  0  0  0  0
  -23.8252   21.1900   -3.1941 O   0  0  0  0  0  0  0  0  0  0  0  0
  -22.6029   21.3919   -2.9692 C   0  0  0  0  0  0  0  0  0  0  0  0
  -21.7699   20.4684   -3.1562 O   0  0  0  0  0  0  0  0  0  0  0  0
  -20.8600   20.6173   -2.9893 H   0  0  0  0  0  0  0  0  0  0  0  0
 28 29  2  0  0  0
 29 30  1  0  0  0
 29 27  1  0  0  0
 27 26  1  0  0  0
 26 24  1  0  0  0
 24  1  1  0  0  0
  1  2  2  0  0  0
  1  6  1  0  0  0
  2  3  1  0  0  0
  3 18  1  0  0  0
  3  4  2  0  0  0
 18 19  2  0  0  0
 18 23  1  0  0  0
 19 20  1  0  0  0
 20 21  2  0  0  0
 21 22  1  0  0  0
 22 23  2  0  0  0
  4  5  1  0  0  0
  5  6  2  0  0  0
  5  7  1  0  0  0
  7  8  1  0  0  0
  7 13  1  0  0  0
  8  9  1  0  0  0
  9 10  1  0  0  0
 10 11  1  0  0  0
 10 14  2  0  0  0
 11 12  1  0  0  0
 11 17  2  0  0  0
 12 13  1  0  0  0
 14 15  1  0  0  0
 15 16  2  0  0  0
 16 17  1  0  0  0
 30 31  1  0  0  0
 24 25  1  0  0  0
M  END
> <minimizedAffinity>
-9.22009

$$$$
6DQ4_K0I_A_601


 31 34  0  0  0  0  0  0  0  0999 V2000
  -26.0122   23.0144    5.3034 C   0  0  0  0  0  0  0  0  0  0  0  0
  -25.4710   21.8993    5.7574 N   0  0  0  0  0  0  0  0  0  0  0  0
  -24.5814   21.2620    4.9581 C   0  0  0  0  0  0  0  0  0  0  0  0
  -24.1941   21.6809    3.7259 N   0  0  0  0  0  0  0  0  0  0  0  0
  -24.7567   22.7998    3.2975 C   0  0  0  0  0  0  0  0  0  0  0  0
  -25.6735   23.4859    4.0813 C   0  0  0  0  0  0  0  0  0  0  0  0
  -24.3885   23.2548    2.0544 N   0  0  0  0  0  0  0  0  0  0  0  0
  -24.1806   22.3318    0.9495 C   0  0  0  0  0  0  0  0  0  0  0  0
  -25.4915   21.7772    0.3810 C   0  0  0  0  0  0  0  0  0  0  0  0
  -26.3864   22.7713   -0.3679 C   0  0  0  0  0  0  0  0  0  0  0  0
  -26.0821   24.1404   -0.5104 C   0  0  0  0  0  0  0  0  0  0  0  0
  -24.7830   24.6888    0.1093 C   0  0  0  0  0  0  0  0  0  0  0  0
  -24.7649   24.5801    1.6211 C   0  0  0  0  0  0  0  0  0  0  0  0
  -27.5740   22.2979   -0.9397 C   0  0  0  0  0  0  0  0  0  0  0  0
  -28.4435   23.1290   -1.6297 C   0  0  0  0  0  0  0  0  0  0  0  0
  -28.1407   24.4738   -1.7669 C   0  0  0  0  0  0  0  0  0  0  0  0
  -26.9713   24.9650   -1.2078 C   0  0  0  0  0  0  0  0  0  0  0  0
  -23.9699   20.0008    5.4682 C   0  0  0  0  0  0  0  0  0  0  0  0
  -23.5045   20.0158    6.7398 N   0  0  0  0  0  0  0  0  0  0  0  0
  -22.9490   18.8786    7.2142 C   0  0  0  0  0  0  0  0  0  0  0  0
  -22.8513   17.7283    6.4511 C   0  0  0  0  0  0  0  0  0  0  0  0
  -23.3258   17.7341    5.1809 C   0  0  0  0  0  0  0  0  0  0  0  0
  -23.8864   18.8628    4.6800 C   0  0  0  0  0  0  0  0  0  0  0  0
  -26.9122   23.6843    6.0730 N   0  0  0  0  0  0  0  0  0  0  0  0
  -26.9810   23.4797    7.0335 H   0  0  0  0  0  0  0  0  0  0  0  0
  -27.7746   24.7012    5.4881 C   0  0  0  0  0  0  0  0  0  0  0  0
  -29.1274   24.7287    6.1994 C   0  0  0  0  0  0  0  0  0  0  0  0
  -29.5511   22.7025    4.9477 O   0  0  0  0  0  0  0  0  0  0  0  0
  -29.8399   23.4001    5.9552 C   0  0  0  0  0  0  0  0  0  0  0  0
  -30.7178   23.0021    6.7630 O   0  0  0  0  0  0  0  0  0  0  0  0
  -30.9336   23.5203    7.5132 H   0  0  0  0  0  0  0  0  0  0  0  0
 28 29  2  0  0  0
 29 30  1  0  0  0
 29 27  1  0  0  0
 27 26  1  0  0  0
 26 24  1  0  0  0
 24  1  1  0  0  0
  1  2  2  0  0  0
  1  6  1  0  0  0
  2  3  1  0  0  0
  3 18  1  0  0  0
  3  4  2  0  0  0
 18 19  2  0  0  0
 18 23  1  0  0  0
 19 20  1  0  0  0
 20 21  2  0  0  0
 21 22  1  0  0  0
 22 23  2  0  0  0
  4  5  1  0  0  0
  5  6  2  0  0  0
  5  7  1  0  0  0
  7  8  1  0  0  0
  7 13  1  0  0  0
  8  9  1  0  0  0
  9 10  1  0  0  0
 10 11  1  0  0  0
 10 14  2  0  0  0
 11 12  1  0  0  0
 11 17  2  0  0  0
 12 13  1  0  0  0
 14 15  1  0  0  0
 15 16  2  0  0  0
 16 17  1  0  0  0
 30 31  1  0  0  0
 24 25  1  0  0  0
M  END
> <minimizedAffinity>
-9.21370

$$$$
6DQ4_K0I_A_601


 31 34  0  0  0  0  0  0  0  0999 V2000
  -23.3242   21.8744    1.7625 C   0  0  0  0  0  0  0  0  0  0  0  0
  -23.0220   20.9839    2.6888 N   0  0  0  0  0  0  0  0  0  0  0  0
  -24.0150   20.5760    3.5158 C   0  0  0  0  0  0  0  0  0  0  0  0
  -25.3024   21.0048    3.4661 N   0  0  0  0  0  0  0  0  0  0  0  0
  -25.5731   21.8997    2.5291 C   0  0  0  0  0  0  0  0  0  0  0  0
  -24.5878   22.3470    1.6604 C   0  0  0  0  0  0  0  0  0  0  0  0
  -26.8663   22.3565    2.4484 N   0  0  0  0  0  0  0  0  0  0  0  0
  -27.1684   23.7754    2.5564 C   0  0  0  0  0  0  0  0  0  0  0  0
  -26.7896   24.5633    1.2975 C   0  0  0  0  0  0  0  0  0  0  0  0
  -27.6236   24.2868    0.0413 C   0  0  0  0  0  0  0  0  0  0  0  0
  -28.6619   23.3347   -0.0113 C   0  0  0  0  0  0  0  0  0  0  0  0
  -28.9962   22.5184    1.2514 C   0  0  0  0  0  0  0  0  0  0  0  0
  -27.8532   21.6244    1.6894 C   0  0  0  0  0  0  0  0  0  0  0  0
  -27.3387   25.0152   -1.1204 C   0  0  0  0  0  0  0  0  0  0  0  0
  -28.0401   24.8251   -2.3014 C   0  0  0  0  0  0  0  0  0  0  0  0
  -29.0594   23.8881   -2.3487 C   0  0  0  0  0  0  0  0  0  0  0  0
  -29.3579   23.1543   -1.2113 C   0  0  0  0  0  0  0  0  0  0  0  0
  -23.6755   19.5712    4.5644 C   0  0  0  0  0  0  0  0  0  0  0  0
  -23.5616   18.2823    4.1645 N   0  0  0  0  0  0  0  0  0  0  0  0
  -23.2533   17.3622    5.1052 C   0  0  0  0  0  0  0  0  0  0  0  0
  -23.0527   17.6991    6.4325 C   0  0  0  0  0  0  0  0  0  0  0  0
  -23.1692   18.9958    6.8113 C   0  0  0  0  0  0  0  0  0  0  0  0
  -23.4795   19.9387    5.8872 C   0  0  0  0  0  0  0  0  0  0  0  0
  -22.3560   22.3128    0.9131 N   0  0  0  0  0  0  0  0  0  0  0  0
  -22.0808   23.2579    0.9328 H   0  0  0  0  0  0  0  0  0  0  0  0
  -21.7235   21.3963   -0.0250 C   0  0  0  0  0  0  0  0  0  0  0  0
  -20.2037   21.5572    0.0128 C   0  0  0  0  0  0  0  0  0  0  0  0
  -18.7448   19.7708    0.7425 O   0  0  0  0  0  0  0  0  0  0  0  0
  -19.6330   20.6043    1.0611 C   0  0  0  0  0  0  0  0  0  0  0  0
  -20.0520   20.6524    2.2459 O   0  0  0  0  0  0  0  0  0  0  0  0
  -20.7130   21.2722    2.4843 H   0  0  0  0  0  0  0  0  0  0  0  0
 28 29  2  0  0  0
 29 30  1  0  0  0
 29 27  1  0  0  0
 27 26  1  0  0  0
 26 24  1  0  0  0
 24  1  1  0  0  0
  1  2  2  0  0  0
  1  6  1  0  0  0
  2  3  1  0  0  0
  3 18  1  0  0  0
  3  4  2  0  0  0
 18 19  2  0  0  0
 18 23  1  0  0  0
 19 20  1  0  0  0
 20 21  2  0  0  0
 21 22  1  0  0  0
 22 23  2  0  0  0
  4  5  1  0  0  0
  5  6  2  0  0  0
  5  7  1  0  0  0
  7  8  1  0  0  0
  7 13  1  0  0  0
  8  9  1  0  0  0
  9 10  1  0  0  0
 10 11  1  0  0  0
 10 14  2  0  0  0
 11 12  1  0  0  0
 11 17  2  0  0  0
 12 13  1  0  0  0
 14 15  1  0  0  0
 15 16  2  0  0  0
 16 17  1  0  0  0
 30 31  1  0  0  0
 24 25  1  0  0  0
M  END
> <minimizedAffinity>
-9.08563

$$$$
6DQ4_K0I_A_601


 31 34  0  0  0  0  0  0  0  0999 V2000
  -23.3876   21.6609    1.7626 C   0  0  0  0  0  0  0  0  0  0  0  0
  -23.0554   20.8456    2.7461 N   0  0  0  0  0  0  0  0  0  0  0  0
  -24.0132   20.5303    3.6514 C   0  0  0  0  0  0  0  0  0  0  0  0
  -25.2940   20.9806    3.6268 N   0  0  0  0  0  0  0  0  0  0  0  0
  -25.5952   21.7988    2.6308 C   0  0  0  0  0  0  0  0  0  0  0  0
  -24.6464   22.1500    1.6809 C   0  0  0  0  0  0  0  0  0  0  0  0
  -26.8828   22.2746    2.5731 N   0  0  0  0  0  0  0  0  0  0  0  0
  -27.1616   23.6981    2.6823 C   0  0  0  0  0  0  0  0  0  0  0  0
  -26.7952   24.4765    1.4138 C   0  0  0  0  0  0  0  0  0  0  0  0
  -27.6570   24.2088    0.1746 C   0  0  0  0  0  0  0  0  0  0  0  0
  -28.7102   23.2721    0.1448 C   0  0  0  0  0  0  0  0  0  0  0  0
  -29.0325   22.4647    1.4163 C   0  0  0  0  0  0  0  0  0  0  0  0
  -27.8947   21.5550    1.8354 C   0  0  0  0  0  0  0  0  0  0  0  0
  -27.3835   24.9294   -0.9947 C   0  0  0  0  0  0  0  0  0  0  0  0
  -28.1100   24.7462   -2.1615 C   0  0  0  0  0  0  0  0  0  0  0  0
  -29.1438   23.8244   -2.1864 C   0  0  0  0  0  0  0  0  0  0  0  0
  -29.4315   23.0986   -1.0411 C   0  0  0  0  0  0  0  0  0  0  0  0
  -23.6397   19.6106    4.7646 C   0  0  0  0  0  0  0  0  0  0  0  0
  -23.4933   20.1622    5.9927 N   0  0  0  0  0  0  0  0  0  0  0  0
  -23.1560   19.3390    7.0102 C   0  0  0  0  0  0  0  0  0  0  0  0
  -22.9658   17.9800    6.8308 C   0  0  0  0  0  0  0  0  0  0  0  0
  -23.1197   17.4476    5.5933 C   0  0  0  0  0  0  0  0  0  0  0  0
  -23.4563   18.2521    4.5546 C   0  0  0  0  0  0  0  0  0  0  0  0
  -22.4552   22.0053    0.8336 N   0  0  0  0  0  0  0  0  0  0  0  0
  -21.8902   22.7982    0.9799 H   0  0  0  0  0  0  0  0  0  0  0  0
  -22.2858   21.2114   -0.3751 C   0  0  0  0  0  0  0  0  0  0  0  0
  -22.5864   22.0540   -1.6147 C   0  0  0  0  0  0  0  0  0  0  0  0
  -23.8648   20.9987   -3.3766 O   0  0  0  0  0  0  0  0  0  0  0  0
  -22.7443   21.1244   -2.8162 C   0  0  0  0  0  0  0  0  0  0  0  0
  -21.7522   20.4826   -3.2466 O   0  0  0  0  0  0  0  0  0  0  0  0
  -20.9178   20.5753   -2.8305 H   0  0  0  0  0  0  0  0  0  0  0  0
 28 29  2  0  0  0
 29 30  1  0  0  0
 29 27  1  0  0  0
 27 26  1  0  0  0
 26 24  1  0  0  0
 24  1  1  0  0  0
  1  2  2  0  0  0
  1  6  1  0  0  0
  2  3  1  0  0  0
  3 18  1  0  0  0
  3  4  2  0  0  0
 18 19  2  0  0  0
 18 23  1  0  0  0
 19 20  1  0  0  0
 20 21  2  0  0  0
 21 22  1  0  0  0
 22 23  2  0  0  0
  4  5  1  0  0  0
  5  6  2  0  0  0
  5  7  1  0  0  0
  7  8  1  0  0  0
  7 13  1  0  0  0
  8  9  1  0  0  0
  9 10  1  0  0  0
 10 11  1  0  0  0
 10 14  2  0  0  0
 11 12  1  0  0  0
 11 17  2  0  0  0
 12 13  1  0  0  0
 14 15  1  0  0  0
 15 16  2  0  0  0
 16 17  1  0  0  0
 30 31  1  0  0  0
 24 25  1  0  0  0
M  END
> <minimizedAffinity>
-8.82330

$$$$
6DQ4_K0I_A_601


 31 34  0  0  0  0  0  0  0  0999 V2000
  -24.2768   20.4246    3.8540 C   0  0  0  0  0  0  0  0  0  0  0  0
  -23.6880   20.4685    2.6735 N   0  0  0  0  0  0  0  0  0  0  0  0
  -23.6359   21.6661    2.0415 C   0  0  0  0  0  0  0  0  0  0  0  0
  -24.1361   22.8313    2.5273 N   0  0  0  0  0  0  0  0  0  0  0  0
  -24.7232   22.7541    3.7111 C   0  0  0  0  0  0  0  0  0  0  0  0
  -24.8006   21.5489    4.3946 C   0  0  0  0  0  0  0  0  0  0  0  0
  -25.2410   23.9139    4.2349 N   0  0  0  0  0  0  0  0  0  0  0  0
  -25.7798   24.9521    3.3700 C   0  0  0  0  0  0  0  0  0  0  0  0
  -27.1451   24.5856    2.7777 C   0  0  0  0  0  0  0  0  0  0  0  0
  -28.3219   24.5259    3.7584 C   0  0  0  0  0  0  0  0  0  0  0  0
  -28.1930   24.7436    5.1452 C   0  0  0  0  0  0  0  0  0  0  0  0
  -26.8038   25.0636    5.7286 C   0  0  0  0  0  0  0  0  0  0  0  0
  -25.8207   23.9227    5.5577 C   0  0  0  0  0  0  0  0  0  0  0  0
  -29.5953   24.2356    3.2530 C   0  0  0  0  0  0  0  0  0  0  0  0
  -30.7132   24.1572    4.0698 C   0  0  0  0  0  0  0  0  0  0  0  0
  -30.5819   24.3714    5.4321 C   0  0  0  0  0  0  0  0  0  0  0  0
  -29.3306   24.6586    5.9548 C   0  0  0  0  0  0  0  0  0  0  0  0
  -22.9726   21.7178    0.7067 C   0  0  0  0  0  0  0  0  0  0  0  0
  -23.7035   21.3087   -0.3574 N   0  0  0  0  0  0  0  0  0  0  0  0
  -23.1140   21.3517   -1.5729 C   0  0  0  0  0  0  0  0  0  0  0  0
  -21.8156   21.7966   -1.7504 C   0  0  0  0  0  0  0  0  0  0  0  0
  -21.1020   22.2040   -0.6718 C   0  0  0  0  0  0  0  0  0  0  0  0
  -21.6696   22.1692    0.5594 C   0  0  0  0  0  0  0  0  0  0  0  0
  -24.3531   19.2415    4.5215 N   0  0  0  0  0  0  0  0  0  0  0  0
  -25.2324   18.8317    4.6894 H   0  0  0  0  0  0  0  0  0  0  0  0
  -23.1455   18.5762    4.9895 C   0  0  0  0  0  0  0  0  0  0  0  0
  -23.1407   17.1101    4.5564 C   0  0  0  0  0  0  0  0  0  0  0  0
  -21.3626   16.3023    3.1289 O   0  0  0  0  0  0  0  0  0  0  0  0
  -22.4112   16.9933    3.2198 C   0  0  0  0  0  0  0  0  0  0  0  0
  -22.8592   17.5894    2.2071 O   0  0  0  0  0  0  0  0  0  0  0  0
  -23.6394   18.1040    2.2734 H   0  0  0  0  0  0  0  0  0  0  0  0
 28 29  2  0  0  0
 29 30  1  0  0  0
 29 27  1  0  0  0
 27 26  1  0  0  0
 26 24  1  0  0  0
 24  1  1  0  0  0
  1  2  2  0  0  0
  1  6  1  0  0  0
  2  3  1  0  0  0
  3 18  1  0  0  0
  3  4  2  0  0  0
 18 19  2  0  0  0
 18 23  1  0  0  0
 19 20  1  0  0  0
 20 21  2  0  0  0
 21 22  1  0  0  0
 22 23  2  0  0  0
  4  5  1  0  0  0
  5  6  2  0  0  0
  5  7  1  0  0  0
  7  8  1  0  0  0
  7 13  1  0  0  0
  8  9  1  0  0  0
  9 10  1  0  0  0
 10 11  1  0  0  0
 10 14  2  0  0  0
 11 12  1  0  0  0
 11 17  2  0  0  0
 12 13  1  0  0  0
 14 15  1  0  0  0
 15 16  2  0  0  0
 16 17  1  0  0  0
 30 31  1  0  0  0
 24 25  1  0  0  0
M  END
> <minimizedAffinity>
-8.69913

$$$$
6DQ4_K0I_A_601


 31 34  0  0  0  0  0  0  0  0999 V2000
  -26.1286   22.1891    3.3087 C   0  0  0  0  0  0  0  0  0  0  0  0
  -25.6532   21.2298    4.0807 N   0  0  0  0  0  0  0  0  0  0  0  0
  -24.4324   20.7260    3.7771 C   0  0  0  0  0  0  0  0  0  0  0  0
  -23.6514   21.1326    2.7434 N   0  0  0  0  0  0  0  0  0  0  0  0
  -24.1570   22.0931    1.9859 C   0  0  0  0  0  0  0  0  0  0  0  0
  -25.4036   22.6385    2.2585 C   0  0  0  0  0  0  0  0  0  0  0  0
  -23.3944   22.5307    0.9301 N   0  0  0  0  0  0  0  0  0  0  0  0
  -23.0946   21.6548   -0.1920 C   0  0  0  0  0  0  0  0  0  0  0  0
  -24.2955   21.4428   -1.1204 C   0  0  0  0  0  0  0  0  0  0  0  0
  -24.7470   22.6559   -1.9418 C   0  0  0  0  0  0  0  0  0  0  0  0
  -24.1488   23.9288   -1.8461 C   0  0  0  0  0  0  0  0  0  0  0  0
  -22.9736   24.1342   -0.8719 C   0  0  0  0  0  0  0  0  0  0  0  0
  -23.3721   23.9308    0.5764 C   0  0  0  0  0  0  0  0  0  0  0  0
  -25.8143   22.4955   -2.8343 C   0  0  0  0  0  0  0  0  0  0  0  0
  -26.2897   23.5406   -3.6118 C   0  0  0  0  0  0  0  0  0  0  0  0
  -25.6992   24.7899   -3.5141 C   0  0  0  0  0  0  0  0  0  0  0  0
  -24.6421   24.9724   -2.6362 C   0  0  0  0  0  0  0  0  0  0  0  0
  -23.8939   19.6408    4.6471 C   0  0  0  0  0  0  0  0  0  0  0  0
  -23.7875   18.4086    4.0953 N   0  0  0  0  0  0  0  0  0  0  0  0
  -23.2998   17.4167    4.8731 C   0  0  0  0  0  0  0  0  0  0  0  0
  -22.9131   17.6272    6.1851 C   0  0  0  0  0  0  0  0  0  0  0  0
  -23.0256   18.8692    6.7174 C   0  0  0  0  0  0  0  0  0  0  0  0
  -23.5136   19.8818    5.9588 C   0  0  0  0  0  0  0  0  0  0  0  0
  -27.3518   22.7209    3.5768 N   0  0  0  0  0  0  0  0  0  0  0  0
  -27.7977   22.5140    4.4298 H   0  0  0  0  0  0  0  0  0  0  0  0
  -28.0071   23.5936    2.6129 C   0  0  0  0  0  0  0  0  0  0  0  0
  -29.4219   23.0960    2.3165 C   0  0  0  0  0  0  0  0  0  0  0  0
  -29.2621   21.5529    0.4603 O   0  0  0  0  0  0  0  0  0  0  0  0
  -29.3353   21.6975    1.7089 C   0  0  0  0  0  0  0  0  0  0  0  0
  -29.3375   20.6874    2.4582 O   0  0  0  0  0  0  0  0  0  0  0  0
  -29.3919   20.7937    3.3876 H   0  0  0  0  0  0  0  0  0  0  0  0
 28 29  2  0  0  0
 29 30  1  0  0  0
 29 27  1  0  0  0
 27 26  1  0  0  0
 26 24  1  0  0  0
 24  1  1  0  0  0
  1  2  2  0  0  0
  1  6  1  0  0  0
  2  3  1  0  0  0
  3 18  1  0  0  0
  3  4  2  0  0  0
 18 19  2  0  0  0
 18 23  1  0  0  0
 19 20  1  0  0  0
 20 21  2  0  0  0
 21 22  1  0  0  0
 22 23  2  0  0  0
  4  5  1  0  0  0
  5  6  2  0  0  0
  5  7  1  0  0  0
  7  8  1  0  0  0
  7 13  1  0  0  0
  8  9  1  0  0  0
  9 10  1  0  0  0
 10 11  1  0  0  0
 10 14  2  0  0  0
 11 12  1  0  0  0
 11 17  2  0  0  0
 12 13  1  0  0  0
 14 15  1  0  0  0
 15 16  2  0  0  0
 16 17  1  0  0  0
 30 31  1  0  0  0
 24 25  1  0  0  0
M  END
> <minimizedAffinity>
-8.60179

$$$$
6DQ4_K0I_A_601


 31 34  0  0  0  0  0  0  0  0999 V2000
  -24.2658   20.4012    3.9516 C   0  0  0  0  0  0  0  0  0  0  0  0
  -23.6084   20.4727    2.8093 N   0  0  0  0  0  0  0  0  0  0  0  0
  -23.5230   21.6843    2.2083 C   0  0  0  0  0  0  0  0  0  0  0  0
  -24.0547   22.8374    2.6895 N   0  0  0  0  0  0  0  0  0  0  0  0
  -24.7105   22.7325    3.8345 C   0  0  0  0  0  0  0  0  0  0  0  0
  -24.8242   21.5121    4.4852 C   0  0  0  0  0  0  0  0  0  0  0  0
  -25.2620   23.8793    4.3525 N   0  0  0  0  0  0  0  0  0  0  0  0
  -25.7881   24.9182    3.4808 C   0  0  0  0  0  0  0  0  0  0  0  0
  -27.1280   24.5380    2.8411 C   0  0  0  0  0  0  0  0  0  0  0  0
  -28.3347   24.4512    3.7826 C   0  0  0  0  0  0  0  0  0  0  0  0
  -28.2538   24.6566    5.1750 C   0  0  0  0  0  0  0  0  0  0  0  0
  -26.8890   24.9909    5.8060 C   0  0  0  0  0  0  0  0  0  0  0  0
  -25.8841   23.8661    5.6559 C   0  0  0  0  0  0  0  0  0  0  0  0
  -29.5868   24.1476    3.2336 C   0  0  0  0  0  0  0  0  0  0  0  0
  -30.7291   24.0446    4.0130 C   0  0  0  0  0  0  0  0  0  0  0  0
  -30.6449   24.2468    5.3809 C   0  0  0  0  0  0  0  0  0  0  0  0
  -29.4155   24.5469    5.9465 C   0  0  0  0  0  0  0  0  0  0  0  0
  -22.7822   21.7672    0.9165 C   0  0  0  0  0  0  0  0  0  0  0  0
  -21.4301   21.7293    0.9816 N   0  0  0  0  0  0  0  0  0  0  0  0
  -20.7471   21.8025   -0.1824 C   0  0  0  0  0  0  0  0  0  0  0  0
  -21.3819   21.9086   -1.4076 C   0  0  0  0  0  0  0  0  0  0  0  0
  -22.7368   21.9425   -1.4506 C   0  0  0  0  0  0  0  0  0  0  0  0
  -23.4459   21.8723   -0.2967 C   0  0  0  0  0  0  0  0  0  0  0  0
  -24.3776   19.2033    4.5868 N   0  0  0  0  0  0  0  0  0  0  0  0
  -25.2698   18.8333    4.7773 H   0  0  0  0  0  0  0  0  0  0  0  0
  -23.1890   18.4638    4.9873 C   0  0  0  0  0  0  0  0  0  0  0  0
  -22.3734   19.2696    5.9984 C   0  0  0  0  0  0  0  0  0  0  0  0
  -22.7815   19.3800    8.3803 O   0  0  0  0  0  0  0  0  0  0  0  0
  -22.5508   18.6481    7.3822 C   0  0  0  0  0  0  0  0  0  0  0  0
  -22.4660   17.4014    7.5248 O   0  0  0  0  0  0  0  0  0  0  0  0
  -22.2944   16.8556    6.7828 H   0  0  0  0  0  0  0  0  0  0  0  0
 28 29  2  0  0  0
 29 30  1  0  0  0
 29 27  1  0  0  0
 27 26  1  0  0  0
 26 24  1  0  0  0
 24  1  1  0  0  0
  1  2  2  0  0  0
  1  6  1  0  0  0
  2  3  1  0  0  0
  3 18  1  0  0  0
  3  4  2  0  0  0
 18 19  2  0  0  0
 18 23  1  0  0  0
 19 20  1  0  0  0
 20 21  2  0  0  0
 21 22  1  0  0  0
 22 23  2  0  0  0
  4  5  1  0  0  0
  5  6  2  0  0  0
  5  7  1  0  0  0
  7  8  1  0  0  0
  7 13  1  0  0  0
  8  9  1  0  0  0
  9 10  1  0  0  0
 10 11  1  0  0  0
 10 14  2  0  0  0
 11 12  1  0  0  0
 11 17  2  0  0  0
 12 13  1  0  0  0
 14 15  1  0  0  0
 15 16  2  0  0  0
 16 17  1  0  0  0
 30 31  1  0  0  0
 24 25  1  0  0  0
M  END
> <minimizedAffinity>
-8.58230

$$$$
6DQ4_K0I_A_601


 31 34  0  0  0  0  0  0  0  0999 V2000
  -23.0413   22.0486    0.6337 C   0  0  0  0  0  0  0  0  0  0  0  0
  -22.7122   21.4320    1.7534 N   0  0  0  0  0  0  0  0  0  0  0  0
  -23.7162   21.0566    2.5825 C   0  0  0  0  0  0  0  0  0  0  0  0
  -25.0393   21.2575    2.3525 N   0  0  0  0  0  0  0  0  0  0  0  0
  -25.3370   21.8811    1.2235 C   0  0  0  0  0  0  0  0  0  0  0  0
  -24.3419   22.2845    0.3446 C   0  0  0  0  0  0  0  0  0  0  0  0
  -26.6666   22.1016    0.9567 N   0  0  0  0  0  0  0  0  0  0  0  0
  -27.4154   23.1234    1.6719 C   0  0  0  0  0  0  0  0  0  0  0  0
  -27.0671   24.5453    1.2178 C   0  0  0  0  0  0  0  0  0  0  0  0
  -27.5106   24.9393   -0.1957 C   0  0  0  0  0  0  0  0  0  0  0  0
  -28.1649   24.0591   -1.0815 C   0  0  0  0  0  0  0  0  0  0  0  0
  -28.4636   22.6190   -0.6240 C   0  0  0  0  0  0  0  0  0  0  0  0
  -27.2052   21.8186   -0.3531 C   0  0  0  0  0  0  0  0  0  0  0  0
  -27.2498   26.2429   -0.6360 C   0  0  0  0  0  0  0  0  0  0  0  0
  -27.6120   26.6812   -1.9008 C   0  0  0  0  0  0  0  0  0  0  0  0
  -28.2543   25.8127   -2.7681 C   0  0  0  0  0  0  0  0  0  0  0  0
  -28.5215   24.5170   -2.3543 C   0  0  0  0  0  0  0  0  0  0  0  0
  -23.3466   20.3613    3.8491 C   0  0  0  0  0  0  0  0  0  0  0  0
  -22.1309   19.7660    3.8896 N   0  0  0  0  0  0  0  0  0  0  0  0
  -21.7837   19.1334    5.0323 C   0  0  0  0  0  0  0  0  0  0  0  0
  -22.6191   19.0849    6.1347 C   0  0  0  0  0  0  0  0  0  0  0  0
  -23.8312   19.6895    6.0739 C   0  0  0  0  0  0  0  0  0  0  0  0
  -24.2046   20.3298    4.9382 C   0  0  0  0  0  0  0  0  0  0  0  0
  -22.0638   22.4449   -0.2256 N   0  0  0  0  0  0  0  0  0  0  0  0
  -21.1981   21.9761   -0.2296 H   0  0  0  0  0  0  0  0  0  0  0  0
  -22.2871   23.5563   -1.1393 C   0  0  0  0  0  0  0  0  0  0  0  0
  -21.8452   24.8721   -0.4987 C   0  0  0  0  0  0  0  0  0  0  0  0
  -20.5535   24.6997    1.5394 O   0  0  0  0  0  0  0  0  0  0  0  0
  -20.5550   24.6314    0.2822 C   0  0  0  0  0  0  0  0  0  0  0  0
  -19.4908   24.3645   -0.3326 O   0  0  0  0  0  0  0  0  0  0  0  0
  -19.4905   24.3135   -1.2682 H   0  0  0  0  0  0  0  0  0  0  0  0
 28 29  2  0  0  0
 29 30  1  0  0  0
 29 27  1  0  0  0
 27 26  1  0  0  0
 26 24  1  0  0  0
 24  1  1  0  0  0
  1  2  2  0  0  0
  1  6  1  0  0  0
  2  3  1  0  0  0
  3 18  1  0  0  0
  3  4  2  0  0  0
 18 19  2  0  0  0
 18 23  1  0  0  0
 19 20  1  0  0  0
 20 21  2  0  0  0
 21 22  1  0  0  0
 22 23  2  0  0  0
  4  5  1  0  0  0
  5  6  2  0  0  0
  5  7  1  0  0  0
  7  8  1  0  0  0
  7 13  1  0  0  0
  8  9  1  0  0  0
  9 10  1  0  0  0
 10 11  1  0  0  0
 10 14  2  0  0  0
 11 12  1  0  0  0
 11 17  2  0  0  0
 12 13  1  0  0  0
 14 15  1  0  0  0
 15 16  2  0  0  0
 16 17  1  0  0  0
 30 31  1  0  0  0
 24 25  1  0  0  0
M  END
> <minimizedAffinity>
-8.43763

$$$$
6DQ4_K0I_A_601


 31 34  0  0  0  0  0  0  0  0999 V2000
  -23.8093   20.4575    3.6344 C   0  0  0  0  0  0  0  0  0  0  0  0
  -22.9556   20.7837    2.6822 N   0  0  0  0  0  0  0  0  0  0  0  0
  -23.3927   21.6128    1.7034 C   0  0  0  0  0  0  0  0  0  0  0  0
  -24.6402   22.1432    1.6245 N   0  0  0  0  0  0  0  0  0  0  0  0
  -25.4739   21.7947    2.5917 C   0  0  0  0  0  0  0  0  0  0  0  0
  -25.0703   20.9475    3.6140 C   0  0  0  0  0  0  0  0  0  0  0  0
  -26.7456   22.3127    2.5451 N   0  0  0  0  0  0  0  0  0  0  0  0
  -26.9740   23.7473    2.6203 C   0  0  0  0  0  0  0  0  0  0  0  0
  -26.6064   24.4785    1.3244 C   0  0  0  0  0  0  0  0  0  0  0  0
  -27.5009   24.2073    0.1093 C   0  0  0  0  0  0  0  0  0  0  0  0
  -28.5855   23.3068    0.1249 C   0  0  0  0  0  0  0  0  0  0  0  0
  -28.9099   22.5453    1.4238 C   0  0  0  0  0  0  0  0  0  0  0  0
  -27.7955   21.6087    1.8465 C   0  0  0  0  0  0  0  0  0  0  0  0
  -27.2262   24.8865   -1.0842 C   0  0  0  0  0  0  0  0  0  0  0  0
  -27.9812   24.6972   -2.2318 C   0  0  0  0  0  0  0  0  0  0  0  0
  -29.0458   23.8110   -2.2121 C   0  0  0  0  0  0  0  0  0  0  0  0
  -29.3354   23.1264   -1.0421 C   0  0  0  0  0  0  0  0  0  0  0  0
  -22.4303   21.9815    0.6254 C   0  0  0  0  0  0  0  0  0  0  0  0
  -21.4783   22.8923    0.9385 N   0  0  0  0  0  0  0  0  0  0  0  0
  -20.5994   23.2341   -0.0296 C   0  0  0  0  0  0  0  0  0  0  0  0
  -20.6465   22.6856   -1.2994 C   0  0  0  0  0  0  0  0  0  0  0  0
  -21.6064   21.7735   -1.5913 C   0  0  0  0  0  0  0  0  0  0  0  0
  -22.5018   21.4144   -0.6382 C   0  0  0  0  0  0  0  0  0  0  0  0
  -23.4119   19.6252    4.6347 N   0  0  0  0  0  0  0  0  0  0  0  0
  -22.9311   19.9912    5.4119 H   0  0  0  0  0  0  0  0  0  0  0  0
  -23.6917   18.1980    4.5655 C   0  0  0  0  0  0  0  0  0  0  0  0
  -22.3890   17.3984    4.5402 C   0  0  0  0  0  0  0  0  0  0  0  0
  -21.1868   16.1555    2.8485 O   0  0  0  0  0  0  0  0  0  0  0  0
  -22.0756   17.0123    3.0962 C   0  0  0  0  0  0  0  0  0  0  0  0
  -22.7070   17.5520    2.1520 O   0  0  0  0  0  0  0  0  0  0  0  0
  -23.3686   18.1897    2.3350 H   0  0  0  0  0  0  0  0  0  0  0  0
 28 29  2  0  0  0
 29 30  1  0  0  0
 29 27  1  0  0  0
 27 26  1  0  0  0
 26 24  1  0  0  0
 24  1  1  0  0  0
  1  2  2  0  0  0
  1  6  1  0  0  0
  2  3  1  0  0  0
  3 18  1  0  0  0
  3  4  2  0  0  0
 18 19  2  0  0  0
 18 23  1  0  0  0
 19 20  1  0  0  0
 20 21  2  0  0  0
 21 22  1  0  0  0
 22 23  2  0  0  0
  4  5  1  0  0  0
  5  6  2  0  0  0
  5  7  1  0  0  0
  7  8  1  0  0  0
  7 13  1  0  0  0
  8  9  1  0  0  0
  9 10  1  0  0  0
 10 11  1  0  0  0
 10 14  2  0  0  0
 11 12  1  0  0  0
 11 17  2  0  0  0
 12 13  1  0  0  0
 14 15  1  0  0  0
 15 16  2  0  0  0
 16 17  1  0  0  0
 30 31  1  0  0  0
 24 25  1  0  0  0
M  END
> <minimizedAffinity>
-8.39570

$$$$
