3B24_B2J_A_237


 13 13  0  0  0  0  0  0  0  0999 V2000
   32.8537   34.3799   49.2966 C   0  0  0  0  0  0  0  0  0  0  0  0
   33.9464   34.0398   48.6121 N   0  0  0  0  0  0  0  0  0  0  0  0
   31.8197   33.5227   49.4064 N   0  0  0  0  0  0  0  0  0  0  0  0
   31.8875   32.3196   48.8170 C   0  0  0  0  0  0  0  0  0  0  0  0
   30.7091   31.3267   48.9728 C   0  0  0  0  0  0  0  0  0  0  0  0
   32.9939   31.9841   48.1154 N   0  0  0  0  0  0  0  0  0  0  0  0
   34.0052   32.8661   47.9791 C   0  0  0  0  0  0  0  0  0  0  0  0
   35.0602   32.6159   47.2228 N   0  0  0  0  0  0  0  0  0  0  0  0
   35.7803   33.2828   47.1463 H   0  0  0  0  0  0  0  0  0  0  0  0
   35.1258   31.7626   46.7361 H   0  0  0  0  0  0  0  0  0  0  0  0
   32.8437   35.9479   50.0431 S   0  0  0  0  0  0  0  0  0  0  0  0
   33.9460   34.6581   52.1866 C   0  0  0  0  0  0  0  0  0  0  0  0
   32.7355   35.5290   51.8255 C   0  0  0  0  0  0  0  0  0  0  0  0
 12 13  1  0  0  0
 13 11  1  0  0  0
 11  1  1  0  0  0
  1  2  2  0  0  0
  1  3  1  0  0  0
  2  7  1  0  0  0
  3  4  2  0  0  0
  4  5  1  0  0  0
  4  6  1  0  0  0
  6  7  2  0  0  0
  7  8  1  0  0  0
  8  9  1  0  0  0
  8 10  1  0  0  0
M  END
> <minimizedAffinity>
-5.63803

$$$$
3B24_B2J_A_237


 13 13  0  0  0  0  0  0  0  0999 V2000
   33.2755   33.7227   49.0710 C   0  0  0  0  0  0  0  0  0  0  0  0
   33.7854   33.5350   50.2888 N   0  0  0  0  0  0  0  0  0  0  0  0
   32.6718   34.8848   48.7528 N   0  0  0  0  0  0  0  0  0  0  0  0
   32.5776   35.8586   49.6706 C   0  0  0  0  0  0  0  0  0  0  0  0
   31.9106   37.2035   49.2895 C   0  0  0  0  0  0  0  0  0  0  0  0
   33.0873   35.6587   50.9071 N   0  0  0  0  0  0  0  0  0  0  0  0
   33.6532   34.4765   51.2256 C   0  0  0  0  0  0  0  0  0  0  0  0
   34.0757   34.2052   52.4486 N   0  0  0  0  0  0  0  0  0  0  0  0
   34.4842   33.3314   52.6457 H   0  0  0  0  0  0  0  0  0  0  0  0
   33.9817   34.8769   53.1622 H   0  0  0  0  0  0  0  0  0  0  0  0
   33.4471   32.4229   47.9322 S   0  0  0  0  0  0  0  0  0  0  0  0
   31.2381   31.0775   48.8173 C   0  0  0  0  0  0  0  0  0  0  0  0
   31.7043   31.9352   47.6337 C   0  0  0  0  0  0  0  0  0  0  0  0
 12 13  1  0  0  0
 13 11  1  0  0  0
 11  1  1  0  0  0
  1  2  2  0  0  0
  1  3  1  0  0  0
  2  7  1  0  0  0
  3  4  2  0  0  0
  4  5  1  0  0  0
  4  6  1  0  0  0
  6  7  2  0  0  0
  7  8  1  0  0  0
  8  9  1  0  0  0
  8 10  1  0  0  0
M  END
> <minimizedAffinity>
-5.25657

$$$$
3B24_B2J_A_237


 13 13  0  0  0  0  0  0  0  0999 V2000
   31.9087   34.7628   49.7348 C   0  0  0  0  0  0  0  0  0  0  0  0
   33.2031   34.7723   49.4141 N   0  0  0  0  0  0  0  0  0  0  0  0
   31.1666   33.6524   49.5551 N   0  0  0  0  0  0  0  0  0  0  0  0
   31.7330   32.5493   49.0436 C   0  0  0  0  0  0  0  0  0  0  0  0
   30.8826   31.2667   48.8685 C   0  0  0  0  0  0  0  0  0  0  0  0
   33.0436   32.5679   48.7105 N   0  0  0  0  0  0  0  0  0  0  0  0
   33.7658   33.6974   48.8576 C   0  0  0  0  0  0  0  0  0  0  0  0
   35.0218   33.7872   48.4548 N   0  0  0  0  0  0  0  0  0  0  0  0
   35.5193   34.6278   48.5781 H   0  0  0  0  0  0  0  0  0  0  0  0
   35.4595   33.0136   48.0317 H   0  0  0  0  0  0  0  0  0  0  0  0
   31.2486   36.2230   50.4039 S   0  0  0  0  0  0  0  0  0  0  0  0
   33.1409   37.6031   51.8139 C   0  0  0  0  0  0  0  0  0  0  0  0
   32.6920   37.3542   50.3680 C   0  0  0  0  0  0  0  0  0  0  0  0
 12 13  1  0  0  0
 13 11  1  0  0  0
 11  1  1  0  0  0
  1  2  2  0  0  0
  1  3  1  0  0  0
  2  7  1  0  0  0
  3  4  2  0  0  0
  4  5  1  0  0  0
  4  6  1  0  0  0
  6  7  2  0  0  0
  7  8  1  0  0  0
  8  9  1  0  0  0
  8 10  1  0  0  0
M  END
> <minimizedAffinity>
-5.23577

$$$$
3B24_B2J_A_237


 13 13  0  0  0  0  0  0  0  0999 V2000
   31.3945   34.4032   49.2108 C   0  0  0  0  0  0  0  0  0  0  0  0
   31.4119   35.6337   48.6972 N   0  0  0  0  0  0  0  0  0  0  0  0
   32.1574   34.0958   50.2784 N   0  0  0  0  0  0  0  0  0  0  0  0
   32.9453   35.0336   50.8252 C   0  0  0  0  0  0  0  0  0  0  0  0
   33.7960   34.6830   52.0711 C   0  0  0  0  0  0  0  0  0  0  0  0
   32.9665   36.2769   50.2938 N   0  0  0  0  0  0  0  0  0  0  0  0
   32.2291   36.5612   49.2008 C   0  0  0  0  0  0  0  0  0  0  0  0
   32.2946   37.7332   48.5928 N   0  0  0  0  0  0  0  0  0  0  0  0
   31.7417   37.9064   47.7968 H   0  0  0  0  0  0  0  0  0  0  0  0
   32.8963   38.4328   48.9360 H   0  0  0  0  0  0  0  0  0  0  0  0
   30.3403   33.2464   48.4584 S   0  0  0  0  0  0  0  0  0  0  0  0
   31.1693   30.6892   48.9550 C   0  0  0  0  0  0  0  0  0  0  0  0
   31.4933   31.8812   48.0449 C   0  0  0  0  0  0  0  0  0  0  0  0
 12 13  1  0  0  0
 13 11  1  0  0  0
 11  1  1  0  0  0
  1  2  2  0  0  0
  1  3  1  0  0  0
  2  7  1  0  0  0
  3  4  2  0  0  0
  4  5  1  0  0  0
  4  6  1  0  0  0
  6  7  2  0  0  0
  7  8  1  0  0  0
  8  9  1  0  0  0
  8 10  1  0  0  0
M  END
> <minimizedAffinity>
-5.11399

$$$$
3B24_B2J_A_237


 13 13  0  0  0  0  0  0  0  0999 V2000
   31.9896   33.9248   49.1697 C   0  0  0  0  0  0  0  0  0  0  0  0
   32.8712   33.5019   48.2630 N   0  0  0  0  0  0  0  0  0  0  0  0
   32.3889   34.2433   50.4168 N   0  0  0  0  0  0  0  0  0  0  0  0
   33.6830   34.1281   50.7507 C   0  0  0  0  0  0  0  0  0  0  0  0
   34.1409   34.5254   52.1760 C   0  0  0  0  0  0  0  0  0  0  0  0
   34.5709   33.6889   49.8302 N   0  0  0  0  0  0  0  0  0  0  0  0
   34.1525   33.3351   48.5977 C   0  0  0  0  0  0  0  0  0  0  0  0
   34.9697   32.8102   47.7008 N   0  0  0  0  0  0  0  0  0  0  0  0
   34.6300   32.5634   46.8102 H   0  0  0  0  0  0  0  0  0  0  0  0
   35.9178   32.6661   47.9233 H   0  0  0  0  0  0  0  0  0  0  0  0
   30.3348   34.0614   48.6609 S   0  0  0  0  0  0  0  0  0  0  0  0
   29.8584   36.5950   49.5704 C   0  0  0  0  0  0  0  0  0  0  0  0
   30.1939   35.8484   48.2726 C   0  0  0  0  0  0  0  0  0  0  0  0
 12 13  1  0  0  0
 13 11  1  0  0  0
 11  1  1  0  0  0
  1  2  2  0  0  0
  1  3  1  0  0  0
  2  7  1  0  0  0
  3  4  2  0  0  0
  4  5  1  0  0  0
  4  6  1  0  0  0
  6  7  2  0  0  0
  7  8  1  0  0  0
  8  9  1  0  0  0
  8 10  1  0  0  0
M  END
> <minimizedAffinity>
-5.11383

$$$$
3B24_B2J_A_237


 13 13  0  0  0  0  0  0  0  0999 V2000
   33.1981   34.2233   50.6212 C   0  0  0  0  0  0  0  0  0  0  0  0
   31.8826   34.3244   50.4276 N   0  0  0  0  0  0  0  0  0  0  0  0
   33.9860   33.6534   49.6882 N   0  0  0  0  0  0  0  0  0  0  0  0
   33.4417   33.1784   48.5579 C   0  0  0  0  0  0  0  0  0  0  0  0
   34.3561   32.5528   47.4756 C   0  0  0  0  0  0  0  0  0  0  0  0
   32.1057   33.2743   48.3716 N   0  0  0  0  0  0  0  0  0  0  0  0
   31.3229   33.8103   49.3303 C   0  0  0  0  0  0  0  0  0  0  0  0
   30.0049   33.8350   49.2306 N   0  0  0  0  0  0  0  0  0  0  0  0
   29.4642   34.2345   49.9498 H   0  0  0  0  0  0  0  0  0  0  0  0
   29.5641   33.4539   48.4370 H   0  0  0  0  0  0  0  0  0  0  0  0
   33.8322   34.8724   52.1018 S   0  0  0  0  0  0  0  0  0  0  0  0
   33.1345   37.4993   51.8086 C   0  0  0  0  0  0  0  0  0  0  0  0
   32.6388   36.2125   52.4813 C   0  0  0  0  0  0  0  0  0  0  0  0
 12 13  1  0  0  0
 13 11  1  0  0  0
 11  1  1  0  0  0
  1  2  2  0  0  0
  1  3  1  0  0  0
  2  7  1  0  0  0
  3  4  2  0  0  0
  4  5  1  0  0  0
  4  6  1  0  0  0
  6  7  2  0  0  0
  7  8  1  0  0  0
  8  9  1  0  0  0
  8 10  1  0  0  0
M  END
> <minimizedAffinity>
-5.10157

$$$$
3B24_B2J_A_237


 13 13  0  0  0  0  0  0  0  0999 V2000
   32.1212   35.2325   49.7033 C   0  0  0  0  0  0  0  0  0  0  0  0
   32.5585   35.1051   50.9566 N   0  0  0  0  0  0  0  0  0  0  0  0
   32.6854   34.5238   48.7056 N   0  0  0  0  0  0  0  0  0  0  0  0
   33.6994   33.6877   48.9744 C   0  0  0  0  0  0  0  0  0  0  0  0
   34.3230   32.8525   47.8288 C   0  0  0  0  0  0  0  0  0  0  0  0
   34.1454   33.5703   50.2456 N   0  0  0  0  0  0  0  0  0  0  0  0
   33.5992   34.3149   51.2286 C   0  0  0  0  0  0  0  0  0  0  0  0
   34.0687   34.3028   52.4644 N   0  0  0  0  0  0  0  0  0  0  0  0
   33.6452   34.8592   53.1574 H   0  0  0  0  0  0  0  0  0  0  0  0
   34.8419   33.7373   52.6917 H   0  0  0  0  0  0  0  0  0  0  0  0
   30.7970   36.3233   49.4342 S   0  0  0  0  0  0  0  0  0  0  0  0
   32.5897   38.3808   49.5955 C   0  0  0  0  0  0  0  0  0  0  0  0
   31.6191   37.7340   48.5987 C   0  0  0  0  0  0  0  0  0  0  0  0
 12 13  1  0  0  0
 13 11  1  0  0  0
 11  1  1  0  0  0
  1  2  2  0  0  0
  1  3  1  0  0  0
  2  7  1  0  0  0
  3  4  2  0  0  0
  4  5  1  0  0  0
  4  6  1  0  0  0
  6  7  2  0  0  0
  7  8  1  0  0  0
  8  9  1  0  0  0
  8 10  1  0  0  0
M  END
> <minimizedAffinity>
-5.01268

$$$$
3B24_B2J_A_237


 13 13  0  0  0  0  0  0  0  0999 V2000
   30.2795   34.6845   48.4504 C   0  0  0  0  0  0  0  0  0  0  0  0
   31.4904   35.0097   48.9044 N   0  0  0  0  0  0  0  0  0  0  0  0
   29.4695   35.6248   47.9253 N   0  0  0  0  0  0  0  0  0  0  0  0
   29.8823   36.8996   47.8642 C   0  0  0  0  0  0  0  0  0  0  0  0
   28.9595   37.9704   47.2311 C   0  0  0  0  0  0  0  0  0  0  0  0
   31.1072   37.2254   48.3356 N   0  0  0  0  0  0  0  0  0  0  0  0
   31.8924   36.2825   48.8955 C   0  0  0  0  0  0  0  0  0  0  0  0
   33.0539   36.5751   49.4549 N   0  0  0  0  0  0  0  0  0  0  0  0
   33.6016   35.8612   49.8544 H   0  0  0  0  0  0  0  0  0  0  0  0
   33.3712   37.5069   49.4721 H   0  0  0  0  0  0  0  0  0  0  0  0
   29.8196   33.0129   48.5503 S   0  0  0  0  0  0  0  0  0  0  0  0
   31.2216   30.6970   48.9306 C   0  0  0  0  0  0  0  0  0  0  0  0
   31.4438   32.1610   48.5285 C   0  0  0  0  0  0  0  0  0  0  0  0
 12 13  1  0  0  0
 13 11  1  0  0  0
 11  1  1  0  0  0
  1  2  2  0  0  0
  1  3  1  0  0  0
  2  7  1  0  0  0
  3  4  2  0  0  0
  4  5  1  0  0  0
  4  6  1  0  0  0
  6  7  2  0  0  0
  7  8  1  0  0  0
  8  9  1  0  0  0
  8 10  1  0  0  0
M  END
> <minimizedAffinity>
-4.96309

$$$$
3B24_B2J_A_237


 13 13  0  0  0  0  0  0  0  0999 V2000
   32.3164   33.9705   49.3461 C   0  0  0  0  0  0  0  0  0  0  0  0
   31.2902   34.6959   48.9001 N   0  0  0  0  0  0  0  0  0  0  0  0
   32.2512   32.6244   49.3548 N   0  0  0  0  0  0  0  0  0  0  0  0
   31.1424   32.0093   48.9170 C   0  0  0  0  0  0  0  0  0  0  0  0
   31.0853   30.4616   48.9001 C   0  0  0  0  0  0  0  0  0  0  0  0
   30.1009   32.7504   48.4755 N   0  0  0  0  0  0  0  0  0  0  0  0
   30.1630   34.0973   48.5094 C   0  0  0  0  0  0  0  0  0  0  0  0
   29.1333   34.8579   48.1793 N   0  0  0  0  0  0  0  0  0  0  0  0
   29.2140   35.8384   48.2156 H   0  0  0  0  0  0  0  0  0  0  0  0
   28.2859   34.4438   47.8970 H   0  0  0  0  0  0  0  0  0  0  0  0
   33.7226   34.8358   49.8843 S   0  0  0  0  0  0  0  0  0  0  0  0
   33.2796   35.7630   52.4175 C   0  0  0  0  0  0  0  0  0  0  0  0
   33.7257   34.4904   51.6856 C   0  0  0  0  0  0  0  0  0  0  0  0
 12 13  1  0  0  0
 13 11  1  0  0  0
 11  1  1  0  0  0
  1  2  2  0  0  0
  1  3  1  0  0  0
  2  7  1  0  0  0
  3  4  2  0  0  0
  4  5  1  0  0  0
  4  6  1  0  0  0
  6  7  2  0  0  0
  7  8  1  0  0  0
  8  9  1  0  0  0
  8 10  1  0  0  0
M  END
> <minimizedAffinity>
-4.70407

$$$$
3B24_B2J_A_237


 13 13  0  0  0  0  0  0  0  0999 V2000
   31.6642   35.5768   50.4911 C   0  0  0  0  0  0  0  0  0  0  0  0
   32.7542   34.8250   50.6489 N   0  0  0  0  0  0  0  0  0  0  0  0
   31.3019   36.4651   51.4375 N   0  0  0  0  0  0  0  0  0  0  0  0
   32.0404   36.5899   52.5503 C   0  0  0  0  0  0  0  0  0  0  0  0
   31.6367   37.6346   53.6201 C   0  0  0  0  0  0  0  0  0  0  0  0
   33.1390   35.8175   52.7096 N   0  0  0  0  0  0  0  0  0  0  0  0
   33.4685   34.9039   51.7737 C   0  0  0  0  0  0  0  0  0  0  0  0
   34.4761   34.0634   51.9346 N   0  0  0  0  0  0  0  0  0  0  0  0
   34.6886   33.4091   51.2304 H   0  0  0  0  0  0  0  0  0  0  0  0
   35.0141   34.0918   52.7587 H   0  0  0  0  0  0  0  0  0  0  0  0
   30.7661   35.3693   49.0193 S   0  0  0  0  0  0  0  0  0  0  0  0
   29.8941   32.8194   48.5603 C   0  0  0  0  0  0  0  0  0  0  0  0
   31.1858   33.6473   48.5474 C   0  0  0  0  0  0  0  0  0  0  0  0
 12 13  1  0  0  0
 13 11  1  0  0  0
 11  1  1  0  0  0
  1  2  2  0  0  0
  1  3  1  0  0  0
  2  7  1  0  0  0
  3  4  2  0  0  0
  4  5  1  0  0  0
  4  6  1  0  0  0
  6  7  2  0  0  0
  7  8  1  0  0  0
  8  9  1  0  0  0
  8 10  1  0  0  0
M  END
> <minimizedAffinity>
-4.61979

$$$$
