3K00_MTT_A_405


 59 62  0  0  0  0  0  0  0  0999 V2000
   -4.7503   -6.5255   22.2819 O   0  0  0  0  0  0  0  0  0  0  0  0
   -5.6253   -9.7900   22.8472 C   0  0  0  0  0  0  0  0  0  0  0  0
   -4.2444   -9.1716   23.1115 C   0  0  0  0  0  0  0  0  0  0  0  0
   -3.2893  -10.1309   23.6015 O   0  0  0  0  0  0  0  0  0  0  0  0
   -4.3734   -8.0442   24.1235 C   0  0  0  0  0  0  0  0  0  0  0  0
   -3.1190   -7.4643   24.4736 O   0  0  0  0  0  0  0  0  0  0  0  0
   -5.2814   -6.9737   23.5479 C   0  0  0  0  0  0  0  0  0  0  0  0
   -6.7086   -8.7204   22.6325 C   0  0  0  0  0  0  0  0  0  0  0  0
   -6.5947   -7.5709   23.4882 O   0  0  0  0  0  0  0  0  0  0  0  0
   -3.5919  -10.4821   24.4535 H   0  0  0  0  0  0  0  0  0  0  0  0
   -2.7116   -7.0742   23.6845 H   0  0  0  0  0  0  0  0  0  0  0  0
   -8.1059   -9.2958   22.9002 C   0  0  0  0  0  0  0  0  0  0  0  0
   -8.8995   -8.7851   21.8636 O   0  0  0  0  0  0  0  0  0  0  0  0
   -8.8678   -7.8158   21.8796 H   0  0  0  0  0  0  0  0  0  0  0  0
   -5.5764  -10.6114   21.6697 O   0  0  0  0  0  0  0  0  0  0  0  0
   -8.4264  -12.7769   19.0822 O   0  0  0  0  0  0  0  0  0  0  0  0
   -7.6457  -12.0950   20.0753 C   0  0  0  0  0  0  0  0  0  0  0  0
   -8.0405  -12.4532   21.5179 C   0  0  0  0  0  0  0  0  0  0  0  0
   -8.8083  -13.6597   21.5387 O   0  0  0  0  0  0  0  0  0  0  0  0
   -6.8606  -12.5450   22.5167 C   0  0  0  0  0  0  0  0  0  0  0  0
   -6.6257  -13.8867   22.9815 O   0  0  0  0  0  0  0  0  0  0  0  0
   -5.5381  -12.0263   21.9531 C   0  0  0  0  0  0  0  0  0  0  0  0
   -6.1839  -12.3360   19.6912 C   0  0  0  0  0  0  0  0  0  0  0  0
   -5.3027  -12.7370   20.7528 O   0  0  0  0  0  0  0  0  0  0  0  0
   -9.3696  -12.6586   19.2751 H   0  0  0  0  0  0  0  0  0  0  0  0
   -8.2606  -14.3969   21.2266 H   0  0  0  0  0  0  0  0  0  0  0  0
   -6.3433  -14.4417   22.2378 H   0  0  0  0  0  0  0  0  0  0  0  0
   -5.6342  -11.1146   18.9726 C   0  0  0  0  0  0  0  0  0  0  0  0
   -6.2957  -10.9873   17.7154 O   0  0  0  0  0  0  0  0  0  0  0  0
   -6.1397  -11.7847   17.1857 H   0  0  0  0  0  0  0  0  0  0  0  0
   -4.7057   -5.0863   22.1295 C   0  0  0  0  0  0  0  0  0  0  0  0
   -3.2555   -4.6664   21.8021 C   0  0  0  0  0  0  0  0  0  0  0  0
   -2.3628   -4.9439   22.8735 O   0  0  0  0  0  0  0  0  0  0  0  0
   -3.2427   -3.1534   21.5506 C   0  0  0  0  0  0  0  0  0  0  0  0
   -1.9510   -2.6951   21.1335 O   0  0  0  0  0  0  0  0  0  0  0  0
   -4.2785   -2.7383   20.5125 C   0  0  0  0  0  0  0  0  0  0  0  0
   -5.6905   -4.6063   21.0686 C   0  0  0  0  0  0  0  0  0  0  0  0
   -5.5755   -3.1837   20.8899 O   0  0  0  0  0  0  0  0  0  0  0  0
   -2.6391   -4.4494   23.6609 H   0  0  0  0  0  0  0  0  0  0  0  0
   -1.7207   -3.1054   20.2853 H   0  0  0  0  0  0  0  0  0  0  0  0
   -7.1700   -4.8574   21.3745 C   0  0  0  0  0  0  0  0  0  0  0  0
   -7.9881   -4.6553   20.2171 O   0  0  0  0  0  0  0  0  0  0  0  0
   -7.9022   -3.7370   19.9168 H   0  0  0  0  0  0  0  0  0  0  0  0
   -3.9225   -3.2869   19.2358 O   0  0  0  0  0  0  0  0  0  0  0  0
   -4.0979   -2.4641   18.0846 C   0  0  0  0  0  0  0  0  0  0  0  0
   -2.7280   -1.9630   17.6327 C   0  0  0  0  0  0  0  0  0  0  0  0
   -2.1478   -1.0452   18.5767 O   0  0  0  0  0  0  0  0  0  0  0  0
   -2.8593   -1.2964   16.2538 C   0  0  0  0  0  0  0  0  0  0  0  0
   -1.5618   -0.8760   15.8184 O   0  0  0  0  0  0  0  0  0  0  0  0
   -3.4694   -2.2841   15.2634 C   0  0  0  0  0  0  0  0  0  0  0  0
   -2.6344   -3.4383   15.1977 O   0  0  0  0  0  0  0  0  0  0  0  0
   -4.7731   -3.3036   16.9972 C   0  0  0  0  0  0  0  0  0  0  0  0
   -4.7877   -2.6629   15.6995 O   0  0  0  0  0  0  0  0  0  0  0  0
   -2.7175   -0.2646   18.6606 H   0  0  0  0  0  0  0  0  0  0  0  0
   -0.9747   -1.6461   15.7612 H   0  0  0  0  0  0  0  0  0  0  0  0
   -2.5727   -3.8432   16.0770 H   0  0  0  0  0  0  0  0  0  0  0  0
   -6.2382   -3.5944   17.3114 C   0  0  0  0  0  0  0  0  0  0  0  0
   -6.7372   -2.6218   18.2495 O   0  0  0  0  0  0  0  0  0  0  0  0
   -6.2198   -2.6675   19.0686 H   0  0  0  0  0  0  0  0  0  0  0  0
 16 17  1  0  0  0
 17 18  1  0  0  0
 17 23  1  0  0  0
 18 19  1  0  0  0
 18 20  1  0  0  0
 20 21  1  0  0  0
 20 22  1  0  0  0
 22 24  1  0  0  0
 22 15  1  0  0  0
 23 24  1  0  0  0
 23 28  1  0  0  0
 28 29  1  0  0  0
 15  2  1  0  0  0
  2  3  1  0  0  0
  2  8  1  0  0  0
  3  4  1  0  0  0
  3  5  1  0  0  0
  5  6  1  0  0  0
  5  7  1  0  0  0
  7  9  1  0  0  0
  7  1  1  0  0  0
  8  9  1  0  0  0
  8 12  1  0  0  0
 12 13  1  0  0  0
  1 31  1  0  0  0
 31 32  1  0  0  0
 31 37  1  0  0  0
 32 33  1  0  0  0
 32 34  1  0  0  0
 34 35  1  0  0  0
 34 36  1  0  0  0
 36 38  1  0  0  0
 36 44  1  0  0  0
 37 38  1  0  0  0
 37 41  1  0  0  0
 41 42  1  0  0  0
 44 45  1  0  0  0
 45 46  1  0  0  0
 45 52  1  0  0  0
 46 47  1  0  0  0
 46 48  1  0  0  0
 48 49  1  0  0  0
 48 50  1  0  0  0
 50 51  1  0  0  0
 50 53  1  0  0  0
 52 53  1  0  0  0
 52 57  1  0  0  0
 57 58  1  0  0  0
 16 25  1  0  0  0
 19 26  1  0  0  0
 21 27  1  0  0  0
 29 30  1  0  0  0
  4 10  1  0  0  0
  6 11  1  0  0  0
 13 14  1  0  0  0
 33 39  1  0  0  0
 35 40  1  0  0  0
 42 43  1  0  0  0
 47 54  1  0  0  0
 49 55  1  0  0  0
 51 56  1  0  0  0
 58 59  1  0  0  0
M  END
> <minimizedAffinity>
-13.33941

$$$$
