3FZN_D7K_A_601


 46 48  0  0  0  0  0  0  0  0999 V2000
  108.2287   45.6133   95.9908 C   0  0  0  0  0  0  0  0  0  0  0  0
  107.6062   46.7533   95.6477 C   0  0  0  0  0  0  0  0  0  0  0  0
  106.8004   47.6017   96.6916 C   0  0  0  0  0  0  0  0  0  0  0  0
  108.9799   44.9093   94.6269 S   0  0  0  0  0  0  0  0  0  0  0  0
  108.4664   46.2142   93.5477 C   0  0  0  0  0  0  0  0  0  0  0  0
  107.7143   47.1114   94.3055 N   0  0  0  0  0  0  0  0  0  0  0  0
  109.0093   46.2355   92.0768 C   0  0  0  0  0  0  0  0  0  0  0  0
  108.2198   46.9622   91.1343 O   0  0  0  0  0  0  0  0  0  0  0  0
  107.9783   47.8231   91.5104 H   0  0  0  0  0  0  0  0  0  0  0  0
  109.4044   44.9365   91.5754 C   0  0  0  0  0  0  0  0  0  0  0  0
  108.5120   44.1873   90.8167 C   0  0  0  0  0  0  0  0  0  0  0  0
  108.8400   42.9337   90.3177 C   0  0  0  0  0  0  0  0  0  0  0  0
  110.0995   42.3937   90.5683 C   0  0  0  0  0  0  0  0  0  0  0  0
  111.0124   43.1118   91.3118 C   0  0  0  0  0  0  0  0  0  0  0  0
  110.6764   44.3655   91.8190 C   0  0  0  0  0  0  0  0  0  0  0  0
  109.9486   48.8958   92.2699 O   0  0  0  0  0  0  0  0  0  0  0  0
  110.5127   47.4993   92.1116 P   0  0  0  0  0  0  0  0  0  0  0  0
  111.4739   47.2446   91.0132 O   0  0  0  0  0  0  0  0  0  0  0  0
  111.0676   47.4848   90.1658 H   0  0  0  0  0  0  0  0  0  0  0  0
  111.2427   47.0806   93.5083 O   0  0  0  0  0  0  0  0  0  0  0  0
  112.6798   47.0718   93.6094 C   0  0  0  0  0  0  0  0  0  0  0  0
  108.3469   44.9300   97.3817 C   0  0  0  0  0  0  0  0  0  0  0  0
  107.5754   43.6497   97.6001 C   0  0  0  0  0  0  0  0  0  0  0  0
  108.4894   42.7234   98.2899 O   0  0  0  0  0  0  0  0  0  0  0  0
  107.9469   41.4865   99.0957 P   0  0  0  0  0  0  0  0  0  0  0  0
  108.1552   41.8319  100.5432 O   0  0  0  0  0  0  0  0  0  0  0  0
  106.6053   41.1086   98.6588 O   0  0  0  0  0  0  0  0  0  0  0  0
  106.3006   40.3451   99.1737 H   0  0  0  0  0  0  0  0  0  0  0  0
  108.9732   40.2597   98.6601 O   0  0  0  0  0  0  0  0  0  0  0  0
  110.7944   40.7240  100.4372 O   0  0  0  0  0  0  0  0  0  0  0  0
  110.6204   40.2419   99.0244 P   0  0  0  0  0  0  0  0  0  0  0  0
  111.2208   38.8770   98.7065 O   0  0  0  0  0  0  0  0  0  0  0  0
  111.1961   41.3208   97.9774 O   0  0  0  0  0  0  0  0  0  0  0  0
  110.3798   41.5955  100.5349 H   0  0  0  0  0  0  0  0  0  0  0  0
  110.8193   42.1932   98.1720 H   0  0  0  0  0  0  0  0  0  0  0  0
  107.0472   48.3882   93.8451 C   0  0  0  0  0  0  0  0  0  0  0  0
  105.5950   48.2749   93.5087 C   0  0  0  0  0  0  0  0  0  0  0  0
  105.1881   47.2490   92.6303 C   0  0  0  0  0  0  0  0  0  0  0  0
  104.5254   49.0019   94.0883 C   0  0  0  0  0  0  0  0  0  0  0  0
  104.8308   49.9895   94.9362 N   0  0  0  0  0  0  0  0  0  0  0  0
  103.2120   48.8171   93.6876 N   0  0  0  0  0  0  0  0  0  0  0  0
  102.8589   47.8389   92.8299 C   0  0  0  0  0  0  0  0  0  0  0  0
  103.8071   47.0462   92.2917 N   0  0  0  0  0  0  0  0  0  0  0  0
  101.4835   47.6357   92.4993 C   0  0  0  0  0  0  0  0  0  0  0  0
  105.7636   50.1222   95.2219 H   0  0  0  0  0  0  0  0  0  0  0  0
  104.1230   50.5841   95.2748 H   0  0  0  0  0  0  0  0  0  0  0  0
 25 27  1  0  0  0
 25 29  1  0  0  0
 26 25  2  0  0  0
 31 30  1  0  0  0
 31 29  1  0  0  0
 31 33  1  0  0  0
 32 31  2  0  0  0
 24 25  1  0  0  0
 24 23  1  0  0  0
 22 23  1  0  0  0
 22  1  1  0  0  0
  1  4  1  0  0  0
  2  1  2  0  0  0
  2  6  1  0  0  0
  3  2  1  0  0  0
  4  5  1  0  0  0
  5  7  1  0  0  0
  6  5  2  0  0  0
  6 36  1  0  0  0
 37 36  1  0  0  0
 37 39  1  0  0  0
 38 37  2  0  0  0
 38 43  1  0  0  0
 39 40  1  0  0  0
 41 39  2  0  0  0
 42 41  1  0  0  0
 42 44  1  0  0  0
 43 42  2  0  0  0
 16 17  2  0  0  0
 17  7  1  0  0  0
 17 20  1  0  0  0
 18 17  1  0  0  0
 20 21  1  0  0  0
  7  8  1  0  0  0
  7 10  1  0  0  0
 10 11  1  0  0  0
 11 12  2  0  0  0
 13 12  1  0  0  0
 14 13  2  0  0  0
 15 10  2  0  0  0
 15 14  1  0  0  0
 27 28  1  0  0  0
 30 34  1  0  0  0
 33 35  1  0  0  0
 40 45  1  0  0  0
 40 46  1  0  0  0
 18 19  1  0  0  0
  8  9  1  0  0  0
M  CHG 1   6   1
M  END
> <minimizedAffinity>
-13.17341

$$$$
