1B6L_PI4_A_201


 45 47  0  0  0  0  0  0  0  0999 V2000
    5.8839    3.0895    9.0411 C   0  0  0  0  0  0  0  0  0  0  0  0
    4.1355    3.3691   10.8371 C   0  0  0  0  0  0  0  0  0  0  0  0
    4.1457    4.1832   11.7602 O   0  0  0  0  0  0  0  0  0  0  0  0
    4.5974    3.7682    9.4495 C   0  0  0  0  0  0  0  0  0  0  0  0
    3.7491    2.1056   10.9894 N   0  0  0  0  0  0  0  0  0  0  0  0
    3.2577    1.5920   12.2780 C   0  0  0  0  0  0  0  0  0  0  0  0
    3.9156    0.2930   12.7295 C   0  0  0  0  0  0  0  0  0  0  0  0
    3.8095   -0.7362   12.0619 O   0  0  0  0  0  0  0  0  0  0  0  0
    4.5859    0.3481   13.8755 N   0  0  0  0  0  0  0  0  0  0  0  0
    5.2611   -0.8299   14.4345 C   0  0  0  0  0  0  0  0  0  0  0  0
    6.7797   -0.6540   14.3543 C   0  0  0  0  0  0  0  0  0  0  0  0
    7.1979    0.2194   13.2047 C   0  0  0  0  0  0  0  0  0  0  0  0
    7.3661    1.5852   13.3883 C   0  0  0  0  0  0  0  0  0  0  0  0
    7.6575    2.4141   12.3351 C   0  0  0  0  0  0  0  0  0  0  0  0
    7.3524   -0.3013   11.9203 C   0  0  0  0  0  0  0  0  0  0  0  0
    7.6467    0.5283   10.8508 C   0  0  0  0  0  0  0  0  0  0  0  0
    7.7981    1.8877   11.0710 C   0  0  0  0  0  0  0  0  0  0  0  0
    8.0553    2.7492   10.0347 O   0  0  0  0  0  0  0  0  0  0  0  0
    7.0758    3.7266    9.7413 C   0  0  0  0  0  0  0  0  0  0  0  0
    3.7931    1.4961   10.2175 H   0  0  0  0  0  0  0  0  0  0  0  0
    4.6311    1.2022   14.3631 H   0  0  0  0  0  0  0  0  0  0  0  0
    4.8204   -1.0491   15.8935 C   0  0  0  0  0  0  0  0  0  0  0  0
    5.0707    0.1287   16.6659 O   0  0  0  0  0  0  0  0  0  0  0  0
    6.0219    0.3187   16.6667 H   0  0  0  0  0  0  0  0  0  0  0  0
    5.5430   -2.2333   16.5127 C   0  0  0  0  0  0  0  0  0  0  0  0
    4.7503   -3.4611   16.2665 N   0  0  0  0  0  0  0  0  0  0  0  0
    5.5182   -4.6174   16.8065 C   0  0  0  0  0  0  0  0  0  0  0  0
    4.7033   -5.9051   16.6362 C   0  0  0  0  0  0  0  0  0  0  0  0
    3.3194   -5.8387   17.2677 C   0  0  0  0  0  0  0  0  0  0  0  0
    2.5775   -4.6032   16.7827 C   0  0  0  0  0  0  0  0  0  0  0  0
    3.4250   -3.3522   16.9604 C   0  0  0  0  0  0  0  0  0  0  0  0
    6.8596   -4.7431   16.0864 C   0  0  0  0  0  0  0  0  0  0  0  0
    6.8967   -4.8330   14.8578 O   0  0  0  0  0  0  0  0  0  0  0  0
    7.9479   -4.7408   16.8609 N   0  0  0  0  0  0  0  0  0  0  0  0
    7.8194   -4.6545   17.8331 H   0  0  0  0  0  0  0  0  0  0  0  0
    9.3273   -4.8588   16.3581 C   0  0  0  0  0  0  0  0  0  0  0  0
    9.7205   -3.6133   15.5721 C   0  0  0  0  0  0  0  0  0  0  0  0
   10.2855   -5.0152   17.5352 C   0  0  0  0  0  0  0  0  0  0  0  0
    9.4555   -6.0900   15.4682 C   0  0  0  0  0  0  0  0  0  0  0  0
    1.7466    1.3809   12.2028 C   0  0  0  0  0  0  0  0  0  0  0  0
    1.0584    2.4347   11.3777 C   0  0  0  0  0  0  0  0  0  0  0  0
    0.9191    3.5768   11.8036 O   0  0  0  0  0  0  0  0  0  0  0  0
    0.6412    2.0624   10.1715 N   0  0  0  0  0  0  0  0  0  0  0  0
    0.7734    1.1347    9.8696 H   0  0  0  0  0  0  0  0  0  0  0  0
    0.2001    2.7143    9.5803 H   0  0  0  0  0  0  0  0  0  0  0  0
  1  4  1  0  0  0
  1 19  1  0  0  0
  2  3  2  0  0  0
  2  4  1  0  0  0
  2  5  1  0  0  0
  5  6  1  0  0  0
  6  7  1  0  0  0
  6 40  1  0  0  0
  7  8  2  0  0  0
  7  9  1  0  0  0
 40 41  1  0  0  0
 41 42  2  0  0  0
 41 43  1  0  0  0
  9 10  1  0  0  0
 10 11  1  0  0  0
 10 22  1  0  0  0
 11 12  1  0  0  0
 12 13  1  0  0  0
 12 15  2  0  0  0
 13 14  2  0  0  0
 14 17  1  0  0  0
 15 16  1  0  0  0
 16 17  2  0  0  0
 17 18  1  0  0  0
 18 19  1  0  0  0
 22 23  1  0  0  0
 22 25  1  0  0  0
 25 26  1  0  0  0
 26 27  1  0  0  0
 26 31  1  0  0  0
 27 28  1  0  0  0
 27 32  1  0  0  0
 28 29  1  0  0  0
 29 30  1  0  0  0
 30 31  1  0  0  0
 32 33  2  0  0  0
 32 34  1  0  0  0
 36 37  1  0  0  0
 36 38  1  0  0  0
 36 39  1  0  0  0
 36 34  1  0  0  0
  5 20  1  0  0  0
 43 44  1  0  0  0
 43 45  1  0  0  0
  9 21  1  0  0  0
 23 24  1  0  0  0
 34 35  1  0  0  0
M  END
> <minimizedAffinity>
-12.31024

$$$$
1B6L_PI4_A_201


 45 47  0  0  0  0  0  0  0  0999 V2000
    5.0229   -7.8157   17.1375 C   0  0  0  0  0  0  0  0  0  0  0  0
    6.7427   -6.0372   17.6274 C   0  0  0  0  0  0  0  0  0  0  0  0
    6.8348   -5.3576   18.6495 O   0  0  0  0  0  0  0  0  0  0  0  0
    6.3882   -7.5089   17.7072 C   0  0  0  0  0  0  0  0  0  0  0  0
    6.9213   -5.5389   16.4072 N   0  0  0  0  0  0  0  0  0  0  0  0
    7.2897   -4.1311   16.1878 C   0  0  0  0  0  0  0  0  0  0  0  0
    6.4235   -3.4065   15.1637 C   0  0  0  0  0  0  0  0  0  0  0  0
    6.3851   -3.7779   13.9904 O   0  0  0  0  0  0  0  0  0  0  0  0
    5.7385   -2.3618   15.6164 N   0  0  0  0  0  0  0  0  0  0  0  0
    4.8712   -1.5658   14.7387 C   0  0  0  0  0  0  0  0  0  0  0  0
    3.4019   -1.7920   15.1043 C   0  0  0  0  0  0  0  0  0  0  0  0
    3.1584   -3.1534   15.6930 C   0  0  0  0  0  0  0  0  0  0  0  0
    3.2020   -3.3394   17.0681 C   0  0  0  0  0  0  0  0  0  0  0  0
    3.0740   -4.5878   17.6217 C   0  0  0  0  0  0  0  0  0  0  0  0
    2.9600   -4.2680   14.8788 C   0  0  0  0  0  0  0  0  0  0  0  0
    2.8297   -5.5325   15.4291 C   0  0  0  0  0  0  0  0  0  0  0  0
    2.8877   -5.6803   16.8054 C   0  0  0  0  0  0  0  0  0  0  0  0
    2.7981   -6.9186   17.3895 O   0  0  0  0  0  0  0  0  0  0  0  0
    3.9269   -7.3861   18.1024 C   0  0  0  0  0  0  0  0  0  0  0  0
    6.8036   -6.1291   15.6280 H   0  0  0  0  0  0  0  0  0  0  0  0
    5.8145   -2.1146   16.5664 H   0  0  0  0  0  0  0  0  0  0  0  0
    5.2311   -0.0730   14.8524 C   0  0  0  0  0  0  0  0  0  0  0  0
    4.9252    0.4089   16.1642 O   0  0  0  0  0  0  0  0  0  0  0  0
    3.9735    0.3178   16.3283 H   0  0  0  0  0  0  0  0  0  0  0  0
    4.4871    0.7511   13.8154 C   0  0  0  0  0  0  0  0  0  0  0  0
    5.1843    0.6265   12.5135 N   0  0  0  0  0  0  0  0  0  0  0  0
    5.2580    1.9828   11.9025 C   0  0  0  0  0  0  0  0  0  0  0  0
    6.0349    1.9144   10.5822 C   0  0  0  0  0  0  0  0  0  0  0  0
    7.4270    1.3142   10.7245 C   0  0  0  0  0  0  0  0  0  0  0  0
    7.3519   -0.0284   11.4345 C   0  0  0  0  0  0  0  0  0  0  0  0
    6.5651    0.0830   12.7320 C   0  0  0  0  0  0  0  0  0  0  0  0
    3.8524    2.5296   11.6595 C   0  0  0  0  0  0  0  0  0  0  0  0
    3.5835    3.6969   11.9494 O   0  0  0  0  0  0  0  0  0  0  0  0
    2.9729    1.6797   11.1224 N   0  0  0  0  0  0  0  0  0  0  0  0
    3.2827    0.7685   10.9152 H   0  0  0  0  0  0  0  0  0  0  0  0
    1.5709    2.0141   10.8195 C   0  0  0  0  0  0  0  0  0  0  0  0
    1.4970    3.1339    9.7878 C   0  0  0  0  0  0  0  0  0  0  0  0
    0.8657    0.7841   10.2555 C   0  0  0  0  0  0  0  0  0  0  0  0
    0.8484    2.4397   12.0927 C   0  0  0  0  0  0  0  0  0  0  0  0
    8.7503   -4.0461   15.7485 C   0  0  0  0  0  0  0  0  0  0  0  0
    9.6404   -4.9784   16.5254 C   0  0  0  0  0  0  0  0  0  0  0  0
    9.8448   -6.1240   16.1368 O   0  0  0  0  0  0  0  0  0  0  0  0
   10.1996   -4.4828   17.6250 N   0  0  0  0  0  0  0  0  0  0  0  0
   10.0078   -3.5574   17.9006 H   0  0  0  0  0  0  0  0  0  0  0  0
   10.8056   -5.0413   18.1637 H   0  0  0  0  0  0  0  0  0  0  0  0
  1  4  1  0  0  0
  1 19  1  0  0  0
  2  3  2  0  0  0
  2  4  1  0  0  0
  2  5  1  0  0  0
  5  6  1  0  0  0
  6  7  1  0  0  0
  6 40  1  0  0  0
  7  8  2  0  0  0
  7  9  1  0  0  0
 40 41  1  0  0  0
 41 42  2  0  0  0
 41 43  1  0  0  0
  9 10  1  0  0  0
 10 11  1  0  0  0
 10 22  1  0  0  0
 11 12  1  0  0  0
 12 13  1  0  0  0
 12 15  2  0  0  0
 13 14  2  0  0  0
 14 17  1  0  0  0
 15 16  1  0  0  0
 16 17  2  0  0  0
 17 18  1  0  0  0
 18 19  1  0  0  0
 22 23  1  0  0  0
 22 25  1  0  0  0
 25 26  1  0  0  0
 26 27  1  0  0  0
 26 31  1  0  0  0
 27 28  1  0  0  0
 27 32  1  0  0  0
 28 29  1  0  0  0
 29 30  1  0  0  0
 30 31  1  0  0  0
 32 33  2  0  0  0
 32 34  1  0  0  0
 36 37  1  0  0  0
 36 38  1  0  0  0
 36 39  1  0  0  0
 36 34  1  0  0  0
  5 20  1  0  0  0
 43 44  1  0  0  0
 43 45  1  0  0  0
  9 21  1  0  0  0
 23 24  1  0  0  0
 34 35  1  0  0  0
M  END
> <minimizedAffinity>
-10.69693

$$$$
1B6L_PI4_A_201


 45 47  0  0  0  0  0  0  0  0999 V2000
    5.5105   -7.3777   17.2706 C   0  0  0  0  0  0  0  0  0  0  0  0
    6.9745   -5.3323   17.0865 C   0  0  0  0  0  0  0  0  0  0  0  0
    7.1380   -4.4595   17.9388 O   0  0  0  0  0  0  0  0  0  0  0  0
    6.8873   -6.7929   17.4829 C   0  0  0  0  0  0  0  0  0  0  0  0
    6.8436   -5.0641   15.7903 N   0  0  0  0  0  0  0  0  0  0  0  0
    6.9293   -3.6912   15.2672 C   0  0  0  0  0  0  0  0  0  0  0  0
    5.7840   -3.2985   14.3409 C   0  0  0  0  0  0  0  0  0  0  0  0
    5.5943   -3.8944   13.2802 O   0  0  0  0  0  0  0  0  0  0  0  0
    5.0305   -2.2818   14.7462 N   0  0  0  0  0  0  0  0  0  0  0  0
    3.8991   -1.7911   13.9492 C   0  0  0  0  0  0  0  0  0  0  0  0
    2.5784   -2.1277   14.6465 C   0  0  0  0  0  0  0  0  0  0  0  0
    2.6734   -3.3670   15.4917 C   0  0  0  0  0  0  0  0  0  0  0  0
    2.9965   -3.2728   16.8385 C   0  0  0  0  0  0  0  0  0  0  0  0
    3.1785   -4.3944   17.6068 C   0  0  0  0  0  0  0  0  0  0  0  0
    2.5161   -4.6356   14.9344 C   0  0  0  0  0  0  0  0  0  0  0  0
    2.6979   -5.7738   15.7026 C   0  0  0  0  0  0  0  0  0  0  0  0
    3.0289   -5.6404   17.0413 C   0  0  0  0  0  0  0  0  0  0  0  0
    3.2520   -6.7412   17.8293 O   0  0  0  0  0  0  0  0  0  0  0  0
    4.5529   -6.9113   18.3580 C   0  0  0  0  0  0  0  0  0  0  0  0
    6.6847   -5.8057   15.1626 H   0  0  0  0  0  0  0  0  0  0  0  0
    5.2364   -1.8457   15.6045 H   0  0  0  0  0  0  0  0  0  0  0  0
    4.0232   -0.2715   13.7347 C   0  0  0  0  0  0  0  0  0  0  0  0
    3.1133    0.4231   14.5927 O   0  0  0  0  0  0  0  0  0  0  0  0
    2.2037    0.1643   14.3767 H   0  0  0  0  0  0  0  0  0  0  0  0
    3.7518    0.1021   12.2873 C   0  0  0  0  0  0  0  0  0  0  0  0
    3.0572    1.4109   12.2519 N   0  0  0  0  0  0  0  0  0  0  0  0
    3.6607    2.2195   11.1564 C   0  0  0  0  0  0  0  0  0  0  0  0
    2.9251    3.5595   11.0364 C   0  0  0  0  0  0  0  0  0  0  0  0
    1.4234    3.4143   10.8307 C   0  0  0  0  0  0  0  0  0  0  0  0
    0.8302    2.5099   11.8995 C   0  0  0  0  0  0  0  0  0  0  0  0
    1.5955    1.1981   11.9915 C   0  0  0  0  0  0  0  0  0  0  0  0
    5.1450    2.4555   11.4303 C   0  0  0  0  0  0  0  0  0  0  0  0
    5.5266    3.5357   11.8847 O   0  0  0  0  0  0  0  0  0  0  0  0
    5.9651    1.4373   11.1566 N   0  0  0  0  0  0  0  0  0  0  0  0
    5.5665    0.6085   10.8051 H   0  0  0  0  0  0  0  0  0  0  0  0
    7.4254    1.4710   11.3452 C   0  0  0  0  0  0  0  0  0  0  0  0
    7.7739    1.9287   12.7569 C   0  0  0  0  0  0  0  0  0  0  0  0
    7.9979    0.0729   11.1306 C   0  0  0  0  0  0  0  0  0  0  0  0
    8.0619    2.4115   10.3280 C   0  0  0  0  0  0  0  0  0  0  0  0
    8.2514   -3.5076   14.5243 C   0  0  0  0  0  0  0  0  0  0  0  0
    9.4180   -4.0961   15.2710 C   0  0  0  0  0  0  0  0  0  0  0  0
    9.9161   -5.1618   14.9225 O   0  0  0  0  0  0  0  0  0  0  0  0
    9.8809   -3.3888   16.2971 N   0  0  0  0  0  0  0  0  0  0  0  0
    9.4506   -2.5381   16.5426 H   0  0  0  0  0  0  0  0  0  0  0  0
   10.6540   -3.7158   16.8116 H   0  0  0  0  0  0  0  0  0  0  0  0
  1  4  1  0  0  0
  1 19  1  0  0  0
  2  3  2  0  0  0
  2  4  1  0  0  0
  2  5  1  0  0  0
  5  6  1  0  0  0
  6  7  1  0  0  0
  6 40  1  0  0  0
  7  8  2  0  0  0
  7  9  1  0  0  0
 40 41  1  0  0  0
 41 42  2  0  0  0
 41 43  1  0  0  0
  9 10  1  0  0  0
 10 11  1  0  0  0
 10 22  1  0  0  0
 11 12  1  0  0  0
 12 13  1  0  0  0
 12 15  2  0  0  0
 13 14  2  0  0  0
 14 17  1  0  0  0
 15 16  1  0  0  0
 16 17  2  0  0  0
 17 18  1  0  0  0
 18 19  1  0  0  0
 22 23  1  0  0  0
 22 25  1  0  0  0
 25 26  1  0  0  0
 26 27  1  0  0  0
 26 31  1  0  0  0
 27 28  1  0  0  0
 27 32  1  0  0  0
 28 29  1  0  0  0
 29 30  1  0  0  0
 30 31  1  0  0  0
 32 33  2  0  0  0
 32 34  1  0  0  0
 36 37  1  0  0  0
 36 38  1  0  0  0
 36 39  1  0  0  0
 36 34  1  0  0  0
  5 20  1  0  0  0
 43 44  1  0  0  0
 43 45  1  0  0  0
  9 21  1  0  0  0
 23 24  1  0  0  0
 34 35  1  0  0  0
M  END
> <minimizedAffinity>
-10.43207

$$$$
1B6L_PI4_A_201


 45 47  0  0  0  0  0  0  0  0999 V2000
    7.6429   -6.9469   18.8418 C   0  0  0  0  0  0  0  0  0  0  0  0
    5.6119   -6.2931   17.4969 C   0  0  0  0  0  0  0  0  0  0  0  0
    5.2071   -6.8225   16.4621 O   0  0  0  0  0  0  0  0  0  0  0  0
    6.1584   -7.1349   18.6330 C   0  0  0  0  0  0  0  0  0  0  0  0
    5.6200   -4.9760   17.6821 N   0  0  0  0  0  0  0  0  0  0  0  0
    5.0989   -4.0445   16.6689 C   0  0  0  0  0  0  0  0  0  0  0  0
    6.0417   -2.8967   16.3256 C   0  0  0  0  0  0  0  0  0  0  0  0
    6.3800   -2.0777   17.1805 O   0  0  0  0  0  0  0  0  0  0  0  0
    6.4522   -2.8388   15.0632 N   0  0  0  0  0  0  0  0  0  0  0  0
    7.3546   -1.7812   14.5906 C   0  0  0  0  0  0  0  0  0  0  0  0
    8.7317   -2.3683   14.2704 C   0  0  0  0  0  0  0  0  0  0  0  0
    9.0479   -3.5804   15.1010 C   0  0  0  0  0  0  0  0  0  0  0  0
    8.7459   -4.8506   14.6290 C   0  0  0  0  0  0  0  0  0  0  0  0
    8.9408   -5.9637   15.4065 C   0  0  0  0  0  0  0  0  0  0  0  0
    9.5772   -3.4585   16.3854 C   0  0  0  0  0  0  0  0  0  0  0  0
    9.7775   -4.5769   17.1776 C   0  0  0  0  0  0  0  0  0  0  0  0
    9.4555   -5.8276   16.6759 C   0  0  0  0  0  0  0  0  0  0  0  0
    9.6055   -6.9576   17.4395 O   0  0  0  0  0  0  0  0  0  0  0  0
    8.4356   -7.6810   17.7696 C   0  0  0  0  0  0  0  0  0  0  0  0
    5.9853   -4.6136   18.5214 H   0  0  0  0  0  0  0  0  0  0  0  0
    6.1429   -3.5238   14.4273 H   0  0  0  0  0  0  0  0  0  0  0  0
    6.7592   -1.0947   13.3477 C   0  0  0  0  0  0  0  0  0  0  0  0
    7.5611   -1.3775   12.1972 O   0  0  0  0  0  0  0  0  0  0  0  0
    8.4554   -1.0270   12.3323 H   0  0  0  0  0  0  0  0  0  0  0  0
    6.6578    0.4080   13.5469 C   0  0  0  0  0  0  0  0  0  0  0  0
    5.2296    0.8019   13.5065 N   0  0  0  0  0  0  0  0  0  0  0  0
    4.7890    0.7799   12.0840 C   0  0  0  0  0  0  0  0  0  0  0  0
    3.2950    1.1142   11.9993 C   0  0  0  0  0  0  0  0  0  0  0  0
    2.4174    0.2028   12.8465 C   0  0  0  0  0  0  0  0  0  0  0  0
    2.9312    0.1574   14.2769 C   0  0  0  0  0  0  0  0  0  0  0  0
    4.4173   -0.1668   14.3136 C   0  0  0  0  0  0  0  0  0  0  0  0
    5.6008    1.7813   11.2641 C   0  0  0  0  0  0  0  0  0  0  0  0
    5.8583    2.8947   11.7256 O   0  0  0  0  0  0  0  0  0  0  0  0
    6.0007    1.3702   10.0578 N   0  0  0  0  0  0  0  0  0  0  0  0
    5.7549    0.4587    9.7785 H   0  0  0  0  0  0  0  0  0  0  0  0
    6.7845    2.1889    9.1172 C   0  0  0  0  0  0  0  0  0  0  0  0
    8.1173    2.5916    9.7380 C   0  0  0  0  0  0  0  0  0  0  0  0
    7.0600    1.3839    7.8506 C   0  0  0  0  0  0  0  0  0  0  0  0
    5.9992    3.4372    8.7312 C   0  0  0  0  0  0  0  0  0  0  0  0
    3.7667   -3.4657   17.1420 C   0  0  0  0  0  0  0  0  0  0  0  0
    2.6174   -3.8688   16.2580 C   0  0  0  0  0  0  0  0  0  0  0  0
    1.9687   -3.0269   15.6450 O   0  0  0  0  0  0  0  0  0  0  0  0
    2.3706   -5.1719   16.1663 N   0  0  0  0  0  0  0  0  0  0  0  0
    2.9163   -5.8134   16.6762 H   0  0  0  0  0  0  0  0  0  0  0  0
    1.6421   -5.4955   15.5886 H   0  0  0  0  0  0  0  0  0  0  0  0
  1  4  1  0  0  0
  1 19  1  0  0  0
  2  3  2  0  0  0
  2  4  1  0  0  0
  2  5  1  0  0  0
  5  6  1  0  0  0
  6  7  1  0  0  0
  6 40  1  0  0  0
  7  8  2  0  0  0
  7  9  1  0  0  0
 40 41  1  0  0  0
 41 42  2  0  0  0
 41 43  1  0  0  0
  9 10  1  0  0  0
 10 11  1  0  0  0
 10 22  1  0  0  0
 11 12  1  0  0  0
 12 13  1  0  0  0
 12 15  2  0  0  0
 13 14  2  0  0  0
 14 17  1  0  0  0
 15 16  1  0  0  0
 16 17  2  0  0  0
 17 18  1  0  0  0
 18 19  1  0  0  0
 22 23  1  0  0  0
 22 25  1  0  0  0
 25 26  1  0  0  0
 26 27  1  0  0  0
 26 31  1  0  0  0
 27 28  1  0  0  0
 27 32  1  0  0  0
 28 29  1  0  0  0
 29 30  1  0  0  0
 30 31  1  0  0  0
 32 33  2  0  0  0
 32 34  1  0  0  0
 36 37  1  0  0  0
 36 38  1  0  0  0
 36 39  1  0  0  0
 36 34  1  0  0  0
  5 20  1  0  0  0
 43 44  1  0  0  0
 43 45  1  0  0  0
  9 21  1  0  0  0
 23 24  1  0  0  0
 34 35  1  0  0  0
M  END
> <minimizedAffinity>
-10.39170

$$$$
1B6L_PI4_A_201


 45 47  0  0  0  0  0  0  0  0999 V2000
    4.7317    3.7333    8.8811 C   0  0  0  0  0  0  0  0  0  0  0  0
    3.6864    3.3775   11.1486 C   0  0  0  0  0  0  0  0  0  0  0  0
    3.9319    3.9980   12.1828 O   0  0  0  0  0  0  0  0  0  0  0  0
    3.6028    4.0972    9.8170 C   0  0  0  0  0  0  0  0  0  0  0  0
    3.5023    2.0606   11.1198 N   0  0  0  0  0  0  0  0  0  0  0  0
    3.5357    1.2433   12.3432 C   0  0  0  0  0  0  0  0  0  0  0  0
    4.4334    0.0143   12.2543 C   0  0  0  0  0  0  0  0  0  0  0  0
    4.2070   -0.8776   11.4361 O   0  0  0  0  0  0  0  0  0  0  0  0
    5.4469   -0.0290   13.1125 N   0  0  0  0  0  0  0  0  0  0  0  0
    6.3856   -1.1577   13.1450 C   0  0  0  0  0  0  0  0  0  0  0  0
    7.7595   -0.7149   12.6350 C   0  0  0  0  0  0  0  0  0  0  0  0
    7.6699    0.4128   11.6454 C   0  0  0  0  0  0  0  0  0  0  0  0
    7.7550    1.7300   12.0755 C   0  0  0  0  0  0  0  0  0  0  0  0
    7.5844    2.7755   11.2042 C   0  0  0  0  0  0  0  0  0  0  0  0
    7.4253    0.1707   10.2940 C   0  0  0  0  0  0  0  0  0  0  0  0
    7.2517    1.2203    9.4069 C   0  0  0  0  0  0  0  0  0  0  0  0
    7.3345    2.5218    9.8746 C   0  0  0  0  0  0  0  0  0  0  0  0
    7.1345    3.5899    9.0370 O   0  0  0  0  0  0  0  0  0  0  0  0
    6.0223    4.4239    9.2986 C   0  0  0  0  0  0  0  0  0  0  0  0
    3.3391    1.6197   10.2548 H   0  0  0  0  0  0  0  0  0  0  0  0
    5.5720    0.7160   13.7437 H   0  0  0  0  0  0  0  0  0  0  0  0
    6.4957   -1.7126   14.5771 C   0  0  0  0  0  0  0  0  0  0  0  0
    7.3816   -0.9007   15.3533 O   0  0  0  0  0  0  0  0  0  0  0  0
    8.2669   -0.9184   14.9573 H   0  0  0  0  0  0  0  0  0  0  0  0
    6.9873   -3.1501   14.5720 C   0  0  0  0  0  0  0  0  0  0  0  0
    7.7576   -3.3979   15.8138 N   0  0  0  0  0  0  0  0  0  0  0  0
    7.3922   -4.7515   16.3163 C   0  0  0  0  0  0  0  0  0  0  0  0
    8.2186   -5.0806   17.5652 C   0  0  0  0  0  0  0  0  0  0  0  0
    9.7219   -4.9780   17.3460 C   0  0  0  0  0  0  0  0  0  0  0  0
   10.0756   -3.6270   16.7443 C   0  0  0  0  0  0  0  0  0  0  0  0
    9.2263   -3.3369   15.5157 C   0  0  0  0  0  0  0  0  0  0  0  0
    5.9005   -4.8095   16.6406 C   0  0  0  0  0  0  0  0  0  0  0  0
    5.3602   -3.8769   17.2384 O   0  0  0  0  0  0  0  0  0  0  0  0
    5.2503   -5.9037   16.2355 N   0  0  0  0  0  0  0  0  0  0  0  0
    5.7649   -6.5923   15.7556 H   0  0  0  0  0  0  0  0  0  0  0  0
    3.8153   -6.1495   16.4584 C   0  0  0  0  0  0  0  0  0  0  0  0
    3.3858   -5.6213   17.8224 C   0  0  0  0  0  0  0  0  0  0  0  0
    3.0042   -5.4350   15.3814 C   0  0  0  0  0  0  0  0  0  0  0  0
    3.5210   -7.6427   16.3694 C   0  0  0  0  0  0  0  0  0  0  0  0
    2.1191    0.7962   12.6996 C   0  0  0  0  0  0  0  0  0  0  0  0
    1.0819    1.3824   11.7801 C   0  0  0  0  0  0  0  0  0  0  0  0
    0.9600    0.9775   10.6284 O   0  0  0  0  0  0  0  0  0  0  0  0
    0.3051    2.3314   12.2935 N   0  0  0  0  0  0  0  0  0  0  0  0
    0.4377    2.6267   13.2232 H   0  0  0  0  0  0  0  0  0  0  0  0
   -0.4029    2.7388   11.7439 H   0  0  0  0  0  0  0  0  0  0  0  0
  1  4  1  0  0  0
  1 19  1  0  0  0
  2  3  2  0  0  0
  2  4  1  0  0  0
  2  5  1  0  0  0
  5  6  1  0  0  0
  6  7  1  0  0  0
  6 40  1  0  0  0
  7  8  2  0  0  0
  7  9  1  0  0  0
 40 41  1  0  0  0
 41 42  2  0  0  0
 41 43  1  0  0  0
  9 10  1  0  0  0
 10 11  1  0  0  0
 10 22  1  0  0  0
 11 12  1  0  0  0
 12 13  1  0  0  0
 12 15  2  0  0  0
 13 14  2  0  0  0
 14 17  1  0  0  0
 15 16  1  0  0  0
 16 17  2  0  0  0
 17 18  1  0  0  0
 18 19  1  0  0  0
 22 23  1  0  0  0
 22 25  1  0  0  0
 25 26  1  0  0  0
 26 27  1  0  0  0
 26 31  1  0  0  0
 27 28  1  0  0  0
 27 32  1  0  0  0
 28 29  1  0  0  0
 29 30  1  0  0  0
 30 31  1  0  0  0
 32 33  2  0  0  0
 32 34  1  0  0  0
 36 37  1  0  0  0
 36 38  1  0  0  0
 36 39  1  0  0  0
 36 34  1  0  0  0
  5 20  1  0  0  0
 43 44  1  0  0  0
 43 45  1  0  0  0
  9 21  1  0  0  0
 23 24  1  0  0  0
 34 35  1  0  0  0
M  END
> <minimizedAffinity>
-9.58814

$$$$
1B6L_PI4_A_201


 45 47  0  0  0  0  0  0  0  0999 V2000
    7.8727   -6.8819   18.7554 C   0  0  0  0  0  0  0  0  0  0  0  0
    5.6725   -6.4016   17.6199 C   0  0  0  0  0  0  0  0  0  0  0  0
    5.2176   -6.9585   16.6210 O   0  0  0  0  0  0  0  0  0  0  0  0
    6.3971   -7.1987   18.6866 C   0  0  0  0  0  0  0  0  0  0  0  0
    5.5838   -5.0900   17.8222 N   0  0  0  0  0  0  0  0  0  0  0  0
    4.8884   -4.2021   16.8767 C   0  0  0  0  0  0  0  0  0  0  0  0
    5.6902   -2.9738   16.4615 C   0  0  0  0  0  0  0  0  0  0  0  0
    6.0367   -2.1332   17.2918 O   0  0  0  0  0  0  0  0  0  0  0  0
    5.9707   -2.8726   15.1666 N   0  0  0  0  0  0  0  0  0  0  0  0
    6.7279   -1.7370   14.6252 C   0  0  0  0  0  0  0  0  0  0  0  0
    8.1137   -2.1986   14.1668 C   0  0  0  0  0  0  0  0  0  0  0  0
    8.6126   -3.3831   14.9460 C   0  0  0  0  0  0  0  0  0  0  0  0
    8.3783   -4.6722   14.4870 C   0  0  0  0  0  0  0  0  0  0  0  0
    8.7434   -5.7682   15.2264 C   0  0  0  0  0  0  0  0  0  0  0  0
    9.2505   -3.2225   16.1757 C   0  0  0  0  0  0  0  0  0  0  0  0
    9.6227   -4.3236   16.9292 C   0  0  0  0  0  0  0  0  0  0  0  0
    9.3641   -5.5948   16.4427 C   0  0  0  0  0  0  0  0  0  0  0  0
    9.6847   -6.7116   17.1723 O   0  0  0  0  0  0  0  0  0  0  0  0
    8.6194   -7.5371   17.6022 C   0  0  0  0  0  0  0  0  0  0  0  0
    5.9952   -4.7018   18.6279 H   0  0  0  0  0  0  0  0  0  0  0  0
    5.6624   -3.5784   14.5534 H   0  0  0  0  0  0  0  0  0  0  0  0
    5.9581   -1.0982   13.4547 C   0  0  0  0  0  0  0  0  0  0  0  0
    6.5034   -1.5390   12.2076 O   0  0  0  0  0  0  0  0  0  0  0  0
    7.4301   -1.2599   12.1433 H   0  0  0  0  0  0  0  0  0  0  0  0
    6.0060    0.4184   13.5293 C   0  0  0  0  0  0  0  0  0  0  0  0
    6.3973    0.9518   12.2030 N   0  0  0  0  0  0  0  0  0  0  0  0
    5.3904    1.9749   11.8062 C   0  0  0  0  0  0  0  0  0  0  0  0
    5.7931    2.6060   10.4680 C   0  0  0  0  0  0  0  0  0  0  0  0
    7.1928    3.2054   10.4735 C   0  0  0  0  0  0  0  0  0  0  0  0
    8.2022    2.1824   10.9702 C   0  0  0  0  0  0  0  0  0  0  0  0
    7.7587    1.5749   12.2928 C   0  0  0  0  0  0  0  0  0  0  0  0
    4.0064    1.3378   11.6935 C   0  0  0  0  0  0  0  0  0  0  0  0
    3.8965    0.1217   11.5259 O   0  0  0  0  0  0  0  0  0  0  0  0
    2.9645    2.1676   11.7939 N   0  0  0  0  0  0  0  0  0  0  0  0
    3.1511    3.1236   11.9372 H   0  0  0  0  0  0  0  0  0  0  0  0
    1.5554    1.7486   11.7046 C   0  0  0  0  0  0  0  0  0  0  0  0
    1.2882    1.0424   10.3803 C   0  0  0  0  0  0  0  0  0  0  0  0
    1.2389    0.7842   12.8440 C   0  0  0  0  0  0  0  0  0  0  0  0
    0.6405    2.9612   11.8342 C   0  0  0  0  0  0  0  0  0  0  0  0
    3.5626   -3.7456   17.4829 C   0  0  0  0  0  0  0  0  0  0  0  0
    2.5210   -3.4543   16.4364 C   0  0  0  0  0  0  0  0  0  0  0  0
    1.7409   -4.3252   16.0646 O   0  0  0  0  0  0  0  0  0  0  0  0
    2.4850   -2.2106   15.9679 N   0  0  0  0  0  0  0  0  0  0  0  0
    3.1306   -1.5428   16.2942 H   0  0  0  0  0  0  0  0  0  0  0  0
    1.8127   -1.9575   15.2947 H   0  0  0  0  0  0  0  0  0  0  0  0
  1  4  1  0  0  0
  1 19  1  0  0  0
  2  3  2  0  0  0
  2  4  1  0  0  0
  2  5  1  0  0  0
  5  6  1  0  0  0
  6  7  1  0  0  0
  6 40  1  0  0  0
  7  8  2  0  0  0
  7  9  1  0  0  0
 40 41  1  0  0  0
 41 42  2  0  0  0
 41 43  1  0  0  0
  9 10  1  0  0  0
 10 11  1  0  0  0
 10 22  1  0  0  0
 11 12  1  0  0  0
 12 13  1  0  0  0
 12 15  2  0  0  0
 13 14  2  0  0  0
 14 17  1  0  0  0
 15 16  1  0  0  0
 16 17  2  0  0  0
 17 18  1  0  0  0
 18 19  1  0  0  0
 22 23  1  0  0  0
 22 25  1  0  0  0
 25 26  1  0  0  0
 26 27  1  0  0  0
 26 31  1  0  0  0
 27 28  1  0  0  0
 27 32  1  0  0  0
 28 29  1  0  0  0
 29 30  1  0  0  0
 30 31  1  0  0  0
 32 33  2  0  0  0
 32 34  1  0  0  0
 36 37  1  0  0  0
 36 38  1  0  0  0
 36 39  1  0  0  0
 36 34  1  0  0  0
  5 20  1  0  0  0
 43 44  1  0  0  0
 43 45  1  0  0  0
  9 21  1  0  0  0
 23 24  1  0  0  0
 34 35  1  0  0  0
M  END
> <minimizedAffinity>
-9.38286

$$$$
