2GSS_EAA_A_0


 20 20  0  0  0  0  0  0  0  0999 V2000
    8.9810    2.4979   27.1872 C   0  0  0  0  0  0  0  0  0  0  0  0
    8.1960    3.5206   27.7546 C   0  0  0  0  0  0  0  0  0  0  0  0
    8.4600    5.1299   27.2064 Cl  0  0  0  0  0  0  0  0  0  0  0  0
    7.2429    3.2360   28.6764 C   0  0  0  0  0  0  0  0  0  0  0  0
    6.3093    4.5311   29.3706 Cl  0  0  0  0  0  0  0  0  0  0  0  0
    7.0213    1.9307   29.1219 C   0  0  0  0  0  0  0  0  0  0  0  0
    7.8146    0.9237   28.5631 C   0  0  0  0  0  0  0  0  0  0  0  0
    8.7741    1.2023   27.6289 C   0  0  0  0  0  0  0  0  0  0  0  0
    5.8859    1.5796   30.0343 C   0  0  0  0  0  0  0  0  0  0  0  0
    4.7889    1.3598   29.5845 O   0  0  0  0  0  0  0  0  0  0  0  0
    6.1032    1.4660   31.4992 C   0  0  0  0  0  0  0  0  0  0  0  0
    5.7513    2.4559   32.2689 C   0  0  0  0  0  0  0  0  0  0  0  0
    6.6615    0.1760   31.9779 C   0  0  0  0  0  0  0  0  0  0  0  0
    6.7483   -0.0580   33.4116 C   0  0  0  0  0  0  0  0  0  0  0  0
    9.9058    2.8807   26.2694 O   0  0  0  0  0  0  0  0  0  0  0  0
    9.5717    2.7646   24.9038 C   0  0  0  0  0  0  0  0  0  0  0  0
   10.4324    1.7427   24.2599 C   0  0  0  0  0  0  0  0  0  0  0  0
   11.6443    2.0700   24.1201 O   0  0  0  0  0  0  0  0  0  0  0  0
    9.9710    0.6186   23.9149 O   0  0  0  0  0  0  0  0  0  0  0  0
    9.0626    0.4263   24.0408 H   0  0  0  0  0  0  0  0  0  0  0  0
  1 15  1  0  0  0
  1  2  2  0  0  0
  1  8  1  0  0  0
 15 16  1  0  0  0
  2  3  1  0  0  0
  2  4  1  0  0  0
  4  5  1  0  0  0
  4  6  2  0  0  0
  6  7  1  0  0  0
  6  9  1  0  0  0
  7  8  2  0  0  0
  9 10  2  0  0  0
  9 11  1  0  0  0
 11 13  1  0  0  0
 11 12  2  0  0  0
 13 14  1  0  0  0
 16 17  1  0  0  0
 17 18  2  0  0  0
 17 19  1  0  0  0
 19 20  1  0  0  0
M  END
> <minimizedAffinity>
-6.97568

$$$$
2GSS_EAA_A_0


 20 20  0  0  0  0  0  0  0  0999 V2000
    7.0269    1.4261   29.5449 C   0  0  0  0  0  0  0  0  0  0  0  0
    6.9082    2.7793   29.1725 C   0  0  0  0  0  0  0  0  0  0  0  0
    5.7285    3.7326   29.9849 Cl  0  0  0  0  0  0  0  0  0  0  0  0
    7.7215    3.3154   28.2291 C   0  0  0  0  0  0  0  0  0  0  0  0
    7.5277    4.9864   27.7806 Cl  0  0  0  0  0  0  0  0  0  0  0  0
    8.6839    2.5473   27.5694 C   0  0  0  0  0  0  0  0  0  0  0  0
    8.7855    1.2015   27.9359 C   0  0  0  0  0  0  0  0  0  0  0  0
    7.9723    0.6551   28.8905 C   0  0  0  0  0  0  0  0  0  0  0  0
    9.6795    3.1510   26.6265 C   0  0  0  0  0  0  0  0  0  0  0  0
   10.6251    3.7666   27.0515 O   0  0  0  0  0  0  0  0  0  0  0  0
    9.5331    2.9721   25.1592 C   0  0  0  0  0  0  0  0  0  0  0  0
    8.8624    3.8569   24.4786 C   0  0  0  0  0  0  0  0  0  0  0  0
   10.2333    1.8020   24.5716 C   0  0  0  0  0  0  0  0  0  0  0  0
   10.3133    1.6917   23.1227 C   0  0  0  0  0  0  0  0  0  0  0  0
    6.1714    0.9823   30.5016 O   0  0  0  0  0  0  0  0  0  0  0  0
    6.6559    0.0504   31.4432 C   0  0  0  0  0  0  0  0  0  0  0  0
    6.4587    0.5736   32.8170 C   0  0  0  0  0  0  0  0  0  0  0  0
    5.8864    1.6972   32.8882 O   0  0  0  0  0  0  0  0  0  0  0  0
    6.8158   -0.0910   33.8302 O   0  0  0  0  0  0  0  0  0  0  0  0
    7.2374   -0.9207   33.7215 H   0  0  0  0  0  0  0  0  0  0  0  0
  1 15  1  0  0  0
  1  2  2  0  0  0
  1  8  1  0  0  0
 15 16  1  0  0  0
  2  3  1  0  0  0
  2  4  1  0  0  0
  4  5  1  0  0  0
  4  6  2  0  0  0
  6  7  1  0  0  0
  6  9  1  0  0  0
  7  8  2  0  0  0
  9 10  2  0  0  0
  9 11  1  0  0  0
 11 13  1  0  0  0
 11 12  2  0  0  0
 13 14  1  0  0  0
 16 17  1  0  0  0
 17 18  2  0  0  0
 17 19  1  0  0  0
 19 20  1  0  0  0
M  END
> <minimizedAffinity>
-6.51988

$$$$
2GSS_EAA_A_0


 20 20  0  0  0  0  0  0  0  0999 V2000
    6.3185    1.0913   31.5564 C   0  0  0  0  0  0  0  0  0  0  0  0
    6.1477    2.4618   31.2794 C   0  0  0  0  0  0  0  0  0  0  0  0
    5.5663    3.4684   32.5478 Cl  0  0  0  0  0  0  0  0  0  0  0  0
    6.4646    2.9706   30.0631 C   0  0  0  0  0  0  0  0  0  0  0  0
    6.2175    4.6659   29.7532 Cl  0  0  0  0  0  0  0  0  0  0  0  0
    6.9412    2.1588   29.0309 C   0  0  0  0  0  0  0  0  0  0  0  0
    7.0946    0.7972   29.3107 C   0  0  0  0  0  0  0  0  0  0  0  0
    6.7823    0.2776   30.5369 C   0  0  0  0  0  0  0  0  0  0  0  0
    7.4240    2.7220   27.7292 C   0  0  0  0  0  0  0  0  0  0  0  0
    6.6384    3.0050   26.8594 O   0  0  0  0  0  0  0  0  0  0  0  0
    8.8714    2.9692   27.5052 C   0  0  0  0  0  0  0  0  0  0  0  0
    9.6715    1.9516   27.3629 C   0  0  0  0  0  0  0  0  0  0  0  0
    9.2816    4.3923   27.3998 C   0  0  0  0  0  0  0  0  0  0  0  0
   10.7002    4.7145   27.4372 C   0  0  0  0  0  0  0  0  0  0  0  0
    5.9782    0.6770   32.8041 O   0  0  0  0  0  0  0  0  0  0  0  0
    6.8623   -0.1912   33.4782 C   0  0  0  0  0  0  0  0  0  0  0  0
    6.1714   -1.4637   33.7994 C   0  0  0  0  0  0  0  0  0  0  0  0
    6.1383   -1.7638   35.0258 O   0  0  0  0  0  0  0  0  0  0  0  0
    5.6322   -2.1640   32.8969 O   0  0  0  0  0  0  0  0  0  0  0  0
    5.6862   -1.8957   32.0007 H   0  0  0  0  0  0  0  0  0  0  0  0
  1 15  1  0  0  0
  1  2  2  0  0  0
  1  8  1  0  0  0
 15 16  1  0  0  0
  2  3  1  0  0  0
  2  4  1  0  0  0
  4  5  1  0  0  0
  4  6  2  0  0  0
  6  7  1  0  0  0
  6  9  1  0  0  0
  7  8  2  0  0  0
  9 10  2  0  0  0
  9 11  1  0  0  0
 11 13  1  0  0  0
 11 12  2  0  0  0
 13 14  1  0  0  0
 16 17  1  0  0  0
 17 18  2  0  0  0
 17 19  1  0  0  0
 19 20  1  0  0  0
M  END
> <minimizedAffinity>
-6.43567

$$$$
2GSS_EAA_A_0


 20 20  0  0  0  0  0  0  0  0999 V2000
    6.9662    2.2205   29.0711 C   0  0  0  0  0  0  0  0  0  0  0  0
    6.4290    2.8749   30.1968 C   0  0  0  0  0  0  0  0  0  0  0  0
    6.0129    4.5364   30.0340 Cl  0  0  0  0  0  0  0  0  0  0  0  0
    6.2178    2.2045   31.3565 C   0  0  0  0  0  0  0  0  0  0  0  0
    5.5732    3.0549   32.7321 Cl  0  0  0  0  0  0  0  0  0  0  0  0
    6.5496    0.8544   31.4930 C   0  0  0  0  0  0  0  0  0  0  0  0
    7.0951    0.2164   30.3744 C   0  0  0  0  0  0  0  0  0  0  0  0
    7.3059    0.8847   29.1997 C   0  0  0  0  0  0  0  0  0  0  0  0
    6.1988    0.0650   32.7172 C   0  0  0  0  0  0  0  0  0  0  0  0
    6.8114    0.2277   33.7429 O   0  0  0  0  0  0  0  0  0  0  0  0
    5.0729   -0.9035   32.6928 C   0  0  0  0  0  0  0  0  0  0  0  0
    5.1701   -2.0030   33.3839 C   0  0  0  0  0  0  0  0  0  0  0  0
    3.8783   -0.4956   31.9108 C   0  0  0  0  0  0  0  0  0  0  0  0
    2.5693   -0.9640   32.3406 C   0  0  0  0  0  0  0  0  0  0  0  0
    7.1365    2.9743   27.9544 O   0  0  0  0  0  0  0  0  0  0  0  0
    8.4134    3.5237   27.7142 C   0  0  0  0  0  0  0  0  0  0  0  0
    9.1663    2.6564   26.7757 C   0  0  0  0  0  0  0  0  0  0  0  0
   10.1065    1.9910   27.2939 O   0  0  0  0  0  0  0  0  0  0  0  0
    8.8496    2.5792   25.5553 O   0  0  0  0  0  0  0  0  0  0  0  0
    8.1426    3.0955   25.2212 H   0  0  0  0  0  0  0  0  0  0  0  0
  1 15  1  0  0  0
  1  2  2  0  0  0
  1  8  1  0  0  0
 15 16  1  0  0  0
  2  3  1  0  0  0
  2  4  1  0  0  0
  4  5  1  0  0  0
  4  6  2  0  0  0
  6  7  1  0  0  0
  6  9  1  0  0  0
  7  8  2  0  0  0
  9 10  2  0  0  0
  9 11  1  0  0  0
 11 13  1  0  0  0
 11 12  2  0  0  0
 13 14  1  0  0  0
 16 17  1  0  0  0
 17 18  2  0  0  0
 17 19  1  0  0  0
 19 20  1  0  0  0
M  END
> <minimizedAffinity>
-6.36102

$$$$
2GSS_EAA_A_0


 20 20  0  0  0  0  0  0  0  0999 V2000
    9.0889    2.5200   27.0766 C   0  0  0  0  0  0  0  0  0  0  0  0
    8.2920    3.5113   27.6819 C   0  0  0  0  0  0  0  0  0  0  0  0
    8.4641    5.1290   27.1219 Cl  0  0  0  0  0  0  0  0  0  0  0  0
    7.3972    3.1903   28.6489 C   0  0  0  0  0  0  0  0  0  0  0  0
    6.4472    4.4480   29.3882 Cl  0  0  0  0  0  0  0  0  0  0  0  0
    7.2501    1.8779   29.1044 C   0  0  0  0  0  0  0  0  0  0  0  0
    8.0551    0.9026   28.5073 C   0  0  0  0  0  0  0  0  0  0  0  0
    8.9560    1.2179   27.5274 C   0  0  0  0  0  0  0  0  0  0  0  0
    6.1755    1.4830   30.0708 C   0  0  0  0  0  0  0  0  0  0  0  0
    6.3067    1.7004   31.2495 O   0  0  0  0  0  0  0  0  0  0  0  0
    4.9224    0.8489   29.5872 C   0  0  0  0  0  0  0  0  0  0  0  0
    4.2584    0.0682   30.3907 C   0  0  0  0  0  0  0  0  0  0  0  0
    4.4922    1.2175   28.2147 C   0  0  0  0  0  0  0  0  0  0  0  0
    3.6814    2.4125   28.0346 C   0  0  0  0  0  0  0  0  0  0  0  0
    9.9518    2.9381   26.1149 O   0  0  0  0  0  0  0  0  0  0  0  0
    9.5754    2.7657   24.7664 C   0  0  0  0  0  0  0  0  0  0  0  0
   10.4352    1.7376   24.1311 C   0  0  0  0  0  0  0  0  0  0  0  0
   11.6570    2.0425   24.0341 O   0  0  0  0  0  0  0  0  0  0  0  0
    9.9625    0.6291   23.7524 O   0  0  0  0  0  0  0  0  0  0  0  0
    9.0470    0.4532   23.8472 H   0  0  0  0  0  0  0  0  0  0  0  0
  1 15  1  0  0  0
  1  2  2  0  0  0
  1  8  1  0  0  0
 15 16  1  0  0  0
  2  3  1  0  0  0
  2  4  1  0  0  0
  4  5  1  0  0  0
  4  6  2  0  0  0
  6  7  1  0  0  0
  6  9  1  0  0  0
  7  8  2  0  0  0
  9 10  2  0  0  0
  9 11  1  0  0  0
 11 13  1  0  0  0
 11 12  2  0  0  0
 13 14  1  0  0  0
 16 17  1  0  0  0
 17 18  2  0  0  0
 17 19  1  0  0  0
 19 20  1  0  0  0
M  END
> <minimizedAffinity>
-6.20076

$$$$
2GSS_EAA_A_0


 20 20  0  0  0  0  0  0  0  0999 V2000
    6.6008    1.5913   30.6310 C   0  0  0  0  0  0  0  0  0  0  0  0
    6.3335    2.9725   30.5612 C   0  0  0  0  0  0  0  0  0  0  0  0
    5.5665    3.7089   31.9138 Cl  0  0  0  0  0  0  0  0  0  0  0  0
    6.7011    3.6984   29.4764 C   0  0  0  0  0  0  0  0  0  0  0  0
    6.3323    5.3989   29.4188 Cl  0  0  0  0  0  0  0  0  0  0  0  0
    7.3280    3.1067   28.3771 C   0  0  0  0  0  0  0  0  0  0  0  0
    7.5770    1.7325   28.4495 C   0  0  0  0  0  0  0  0  0  0  0  0
    7.2141    0.9947   29.5428 C   0  0  0  0  0  0  0  0  0  0  0  0
    7.8625    3.9123   27.2325 C   0  0  0  0  0  0  0  0  0  0  0  0
    7.2353    4.0035   26.2068 O   0  0  0  0  0  0  0  0  0  0  0  0
    9.1543    4.6348   27.3573 C   0  0  0  0  0  0  0  0  0  0  0  0
   10.2634    3.9523   27.3484 C   0  0  0  0  0  0  0  0  0  0  0  0
    9.0699    6.1158   27.4222 C   0  0  0  0  0  0  0  0  0  0  0  0
   10.0566    6.8373   28.2119 C   0  0  0  0  0  0  0  0  0  0  0  0
    6.1991    0.9515   31.7595 O   0  0  0  0  0  0  0  0  0  0  0  0
    6.7071   -0.3415   32.0046 C   0  0  0  0  0  0  0  0  0  0  0  0
    6.7084   -0.6140   33.4625 C   0  0  0  0  0  0  0  0  0  0  0  0
    6.0511   -1.6313   33.8208 O   0  0  0  0  0  0  0  0  0  0  0  0
    7.3563    0.1143   34.2660 O   0  0  0  0  0  0  0  0  0  0  0  0
    7.8278    0.8587   33.9476 H   0  0  0  0  0  0  0  0  0  0  0  0
  1 15  1  0  0  0
  1  2  2  0  0  0
  1  8  1  0  0  0
 15 16  1  0  0  0
  2  3  1  0  0  0
  2  4  1  0  0  0
  4  5  1  0  0  0
  4  6  2  0  0  0
  6  7  1  0  0  0
  6  9  1  0  0  0
  7  8  2  0  0  0
  9 10  2  0  0  0
  9 11  1  0  0  0
 11 13  1  0  0  0
 11 12  2  0  0  0
 13 14  1  0  0  0
 16 17  1  0  0  0
 17 18  2  0  0  0
 17 19  1  0  0  0
 19 20  1  0  0  0
M  END
> <minimizedAffinity>
-6.10050

$$$$
2GSS_EAA_A_0


 20 20  0  0  0  0  0  0  0  0999 V2000
    8.0513    2.9884   26.5918 C   0  0  0  0  0  0  0  0  0  0  0  0
    6.6884    3.3098   26.7446 C   0  0  0  0  0  0  0  0  0  0  0  0
    5.9603    4.3020   25.5423 Cl  0  0  0  0  0  0  0  0  0  0  0  0
    5.9714    2.8230   27.7875 C   0  0  0  0  0  0  0  0  0  0  0  0
    4.2948    3.2620   27.9532 Cl  0  0  0  0  0  0  0  0  0  0  0  0
    6.5563    2.0133   28.7642 C   0  0  0  0  0  0  0  0  0  0  0  0
    7.9131    1.7107   28.6118 C   0  0  0  0  0  0  0  0  0  0  0  0
    8.6415    2.1936   27.5594 C   0  0  0  0  0  0  0  0  0  0  0  0
    5.7522    1.3568   29.8446 C   0  0  0  0  0  0  0  0  0  0  0  0
    4.9355    0.5137   29.5689 O   0  0  0  0  0  0  0  0  0  0  0  0
    5.9728    1.7116   31.2700 C   0  0  0  0  0  0  0  0  0  0  0  0
    6.2601    0.7670   32.1192 C   0  0  0  0  0  0  0  0  0  0  0  0
    5.9046    3.1577   31.6004 C   0  0  0  0  0  0  0  0  0  0  0  0
    4.5994    3.7627   31.8200 C   0  0  0  0  0  0  0  0  0  0  0  0
    8.6832    3.5195   25.5134 O   0  0  0  0  0  0  0  0  0  0  0  0
   10.0937    3.5063   25.4989 C   0  0  0  0  0  0  0  0  0  0  0  0
   10.5782    2.7977   24.2894 C   0  0  0  0  0  0  0  0  0  0  0  0
   11.7388    2.3079   24.3810 O   0  0  0  0  0  0  0  0  0  0  0  0
    9.8505    2.6761   23.2640 O   0  0  0  0  0  0  0  0  0  0  0  0
    8.9958    3.0596   23.2480 H   0  0  0  0  0  0  0  0  0  0  0  0
  1 15  1  0  0  0
  1  2  2  0  0  0
  1  8  1  0  0  0
 15 16  1  0  0  0
  2  3  1  0  0  0
  2  4  1  0  0  0
  4  5  1  0  0  0
  4  6  2  0  0  0
  6  7  1  0  0  0
  6  9  1  0  0  0
  7  8  2  0  0  0
  9 10  2  0  0  0
  9 11  1  0  0  0
 11 13  1  0  0  0
 11 12  2  0  0  0
 13 14  1  0  0  0
 16 17  1  0  0  0
 17 18  2  0  0  0
 17 19  1  0  0  0
 19 20  1  0  0  0
M  END
> <minimizedAffinity>
-6.05895

$$$$
2GSS_EAA_A_0


 20 20  0  0  0  0  0  0  0  0999 V2000
    7.0945    1.5274   28.3033 C   0  0  0  0  0  0  0  0  0  0  0  0
    6.7433    2.5582   27.4098 C   0  0  0  0  0  0  0  0  0  0  0  0
    5.0992    3.0645   27.3783 Cl  0  0  0  0  0  0  0  0  0  0  0  0
    7.6796    3.1506   26.6281 C   0  0  0  0  0  0  0  0  0  0  0  0
    7.2010    4.4055   25.5203 Cl  0  0  0  0  0  0  0  0  0  0  0  0
    9.0167    2.7466   26.6527 C   0  0  0  0  0  0  0  0  0  0  0  0
    9.3536    1.7133   27.5328 C   0  0  0  0  0  0  0  0  0  0  0  0
    8.4157    1.1147   28.3284 C   0  0  0  0  0  0  0  0  0  0  0  0
   10.0864    3.4774   25.9001 C   0  0  0  0  0  0  0  0  0  0  0  0
   10.8107    4.2538   26.4714 O   0  0  0  0  0  0  0  0  0  0  0  0
   10.2898    3.2315   24.4494 C   0  0  0  0  0  0  0  0  0  0  0  0
   10.1183    4.2139   23.6119 C   0  0  0  0  0  0  0  0  0  0  0  0
   10.7414    1.8672   24.0759 C   0  0  0  0  0  0  0  0  0  0  0  0
   10.2390    1.2785   22.8436 C   0  0  0  0  0  0  0  0  0  0  0  0
    6.0885    0.9997   29.0473 O   0  0  0  0  0  0  0  0  0  0  0  0
    6.3020    0.8403   30.4325 C   0  0  0  0  0  0  0  0  0  0  0  0
    5.4622    1.8032   31.1857 C   0  0  0  0  0  0  0  0  0  0  0  0
    6.0474    2.8640   31.5425 O   0  0  0  0  0  0  0  0  0  0  0  0
    4.2412    1.5719   31.4128 O   0  0  0  0  0  0  0  0  0  0  0  0
    3.8555    0.7676   31.1260 H   0  0  0  0  0  0  0  0  0  0  0  0
  1 15  1  0  0  0
  1  2  2  0  0  0
  1  8  1  0  0  0
 15 16  1  0  0  0
  2  3  1  0  0  0
  2  4  1  0  0  0
  4  5  1  0  0  0
  4  6  2  0  0  0
  6  7  1  0  0  0
  6  9  1  0  0  0
  7  8  2  0  0  0
  9 10  2  0  0  0
  9 11  1  0  0  0
 11 13  1  0  0  0
 11 12  2  0  0  0
 13 14  1  0  0  0
 16 17  1  0  0  0
 17 18  2  0  0  0
 17 19  1  0  0  0
 19 20  1  0  0  0
M  END
> <minimizedAffinity>
-6.03754

$$$$
2GSS_EAA_A_0


 20 20  0  0  0  0  0  0  0  0999 V2000
    7.7093    4.2575   27.7993 C   0  0  0  0  0  0  0  0  0  0  0  0
    8.0600    2.9233   28.0838 C   0  0  0  0  0  0  0  0  0  0  0  0
    9.5480    2.3345   27.4519 Cl  0  0  0  0  0  0  0  0  0  0  0  0
    7.2644    2.1447   28.8582 C   0  0  0  0  0  0  0  0  0  0  0  0
    7.7219    0.4937   29.1678 Cl  0  0  0  0  0  0  0  0  0  0  0  0
    6.0574    2.6188   29.3776 C   0  0  0  0  0  0  0  0  0  0  0  0
    5.7107    3.9402   29.0786 C   0  0  0  0  0  0  0  0  0  0  0  0
    6.5108    4.7334   28.3027 C   0  0  0  0  0  0  0  0  0  0  0  0
    5.2350    1.8218   30.3436 C   0  0  0  0  0  0  0  0  0  0  0  0
    4.2507    1.2361   29.9669 O   0  0  0  0  0  0  0  0  0  0  0  0
    5.6384    1.7161   31.7692 C   0  0  0  0  0  0  0  0  0  0  0  0
    5.6936    2.7979   32.4921 C   0  0  0  0  0  0  0  0  0  0  0  0
    5.8918    0.3434   32.2755 C   0  0  0  0  0  0  0  0  0  0  0  0
    6.8418    0.1649   33.3634 C   0  0  0  0  0  0  0  0  0  0  0  0
    8.5719    4.9589   27.0193 O   0  0  0  0  0  0  0  0  0  0  0  0
    8.9368    6.2563   27.4358 C   0  0  0  0  0  0  0  0  0  0  0  0
   10.3202    6.2431   27.9703 C   0  0  0  0  0  0  0  0  0  0  0  0
   11.0762    5.3548   27.4859 O   0  0  0  0  0  0  0  0  0  0  0  0
   10.7022    7.0919   28.8243 O   0  0  0  0  0  0  0  0  0  0  0  0
   10.0999    7.7307   29.1518 H   0  0  0  0  0  0  0  0  0  0  0  0
  1 15  1  0  0  0
  1  2  2  0  0  0
  1  8  1  0  0  0
 15 16  1  0  0  0
  2  3  1  0  0  0
  2  4  1  0  0  0
  4  5  1  0  0  0
  4  6  2  0  0  0
  6  7  1  0  0  0
  6  9  1  0  0  0
  7  8  2  0  0  0
  9 10  2  0  0  0
  9 11  1  0  0  0
 11 13  1  0  0  0
 11 12  2  0  0  0
 13 14  1  0  0  0
 16 17  1  0  0  0
 17 18  2  0  0  0
 17 19  1  0  0  0
 19 20  1  0  0  0
M  END
> <minimizedAffinity>
-5.96348

$$$$
2GSS_EAA_A_0


 20 20  0  0  0  0  0  0  0  0999 V2000
   10.1800    1.9331   23.6588 C   0  0  0  0  0  0  0  0  0  0  0  0
    9.9232    1.4859   24.9696 C   0  0  0  0  0  0  0  0  0  0  0  0
   10.2909   -0.1529   25.3428 Cl  0  0  0  0  0  0  0  0  0  0  0  0
    9.4347    2.3318   25.9101 C   0  0  0  0  0  0  0  0  0  0  0  0
    9.1093    1.7346   27.5128 Cl  0  0  0  0  0  0  0  0  0  0  0  0
    9.1385    3.6644   25.6139 C   0  0  0  0  0  0  0  0  0  0  0  0
    9.3837    4.0959   24.3065 C   0  0  0  0  0  0  0  0  0  0  0  0
    9.8816    3.2500   23.3538 C   0  0  0  0  0  0  0  0  0  0  0  0
    8.7288    4.6458   26.6694 C   0  0  0  0  0  0  0  0  0  0  0  0
    7.5684    4.7622   26.9752 O   0  0  0  0  0  0  0  0  0  0  0  0
    9.7484    5.4638   27.3748 C   0  0  0  0  0  0  0  0  0  0  0  0
    9.3812    6.5732   27.9495 C   0  0  0  0  0  0  0  0  0  0  0  0
   11.1217    4.9007   27.4165 C   0  0  0  0  0  0  0  0  0  0  0  0
   12.0962    5.3645   26.4403 C   0  0  0  0  0  0  0  0  0  0  0  0
   10.6730    1.0137   22.7893 O   0  0  0  0  0  0  0  0  0  0  0  0
   11.8967    1.2979   22.1476 C   0  0  0  0  0  0  0  0  0  0  0  0
   12.1610    0.2858   21.0962 C   0  0  0  0  0  0  0  0  0  0  0  0
   12.0716   -0.9168   21.4717 O   0  0  0  0  0  0  0  0  0  0  0  0
   12.4218    0.6262   19.9080 O   0  0  0  0  0  0  0  0  0  0  0  0
   12.4767    1.5338   19.6820 H   0  0  0  0  0  0  0  0  0  0  0  0
  1 15  1  0  0  0
  1  2  2  0  0  0
  1  8  1  0  0  0
 15 16  1  0  0  0
  2  3  1  0  0  0
  2  4  1  0  0  0
  4  5  1  0  0  0
  4  6  2  0  0  0
  6  7  1  0  0  0
  6  9  1  0  0  0
  7  8  2  0  0  0
  9 10  2  0  0  0
  9 11  1  0  0  0
 11 13  1  0  0  0
 11 12  2  0  0  0
 13 14  1  0  0  0
 16 17  1  0  0  0
 17 18  2  0  0  0
 17 19  1  0  0  0
 19 20  1  0  0  0
M  END
> <minimizedAffinity>
-5.95987

$$$$
