4HU1_V13_B_302


 23 23  0  0  0  0  0  0  0  0999 V2000
  -38.3117  -34.8618   22.7635 C   0  0  0  0  0  0  0  0  0  0  0  0
  -37.2737  -35.0005   21.8180 C   0  0  0  0  0  0  0  0  0  0  0  0
  -37.4036  -34.5170   20.5767 F   0  0  0  0  0  0  0  0  0  0  0  0
  -36.0677  -35.6028   22.1383 C   0  0  0  0  0  0  0  0  0  0  0  0
  -35.0671  -35.6647   21.2362 F   0  0  0  0  0  0  0  0  0  0  0  0
  -35.8867  -36.1227   23.4384 C   0  0  0  0  0  0  0  0  0  0  0  0
  -36.9205  -36.0122   24.3566 C   0  0  0  0  0  0  0  0  0  0  0  0
  -36.9000  -36.5193   25.5679 F   0  0  0  0  0  0  0  0  0  0  0  0
  -38.1181  -35.4170   23.9951 C   0  0  0  0  0  0  0  0  0  0  0  0
  -39.0730  -35.3551   24.9115 F   0  0  0  0  0  0  0  0  0  0  0  0
  -34.3028  -36.8547   23.7837 S   0  0  0  0  0  0  0  0  0  0  0  0
  -33.4807  -35.6794   23.8659 O   0  0  0  0  0  0  0  0  0  0  0  0
  -34.2009  -37.6293   25.3109 N   0  0  0  0  0  0  0  0  0  0  0  0
  -33.8924  -37.8075   22.6982 O   0  0  0  0  0  0  0  0  0  0  0  0
  -34.7717  -38.4746   25.3021 H   0  0  0  0  0  0  0  0  0  0  0  0
  -34.5403  -36.9973   26.0360 H   0  0  0  0  0  0  0  0  0  0  0  0
  -40.1768  -33.1534   23.4932 O   0  0  0  0  0  0  0  0  0  0  0  0
  -39.9288  -34.0944   22.3338 S   0  0  0  0  0  0  0  0  0  0  0  0
  -41.0750  -35.0704   22.5766 O   0  0  0  0  0  0  0  0  0  0  0  0
  -40.2385  -33.2404   20.7744 C   0  0  0  0  0  0  0  0  0  0  0  0
  -41.3501  -32.2942   21.1233 C   0  0  0  0  0  0  0  0  0  0  0  0
  -40.7305  -31.1083   21.4995 O   0  0  0  0  0  0  0  0  0  0  0  0
  -40.1351  -31.2773   22.2463 H   0  0  0  0  0  0  0  0  0  0  0  0
 21 20  1  0  0  0
 21 22  1  0  0  0
  3  2  1  0  0  0
 17 18  2  0  0  0
 20 18  1  0  0  0
 18  1  1  0  0  0
 18 19  2  0  0  0
  5  4  1  0  0  0
  2  4  2  0  0  0
  2  1  1  0  0  0
  4  6  1  0  0  0
  1  9  2  0  0  0
  9 10  1  0  0  0
  9  7  1  0  0  0
  6  7  2  0  0  0
  6 11  1  0  0  0
 14 11  2  0  0  0
 12 11  2  0  0  0
  7  8  1  0  0  0
 11 13  1  0  0  0
 22 23  1  0  0  0
 13 15  1  0  0  0
 13 16  1  0  0  0
M  END
> <minimizedAffinity>
-7.59817

$$$$
4HU1_V13_B_302


 23 23  0  0  0  0  0  0  0  0999 V2000
  -38.2732  -34.8806   22.7474 C   0  0  0  0  0  0  0  0  0  0  0  0
  -37.2393  -35.0402   21.8008 C   0  0  0  0  0  0  0  0  0  0  0  0
  -37.3721  -34.5790   20.5514 F   0  0  0  0  0  0  0  0  0  0  0  0
  -36.0342  -35.6408   22.1276 C   0  0  0  0  0  0  0  0  0  0  0  0
  -35.0372  -35.7228   21.2232 F   0  0  0  0  0  0  0  0  0  0  0  0
  -35.8502  -36.1376   23.4364 C   0  0  0  0  0  0  0  0  0  0  0  0
  -36.8802  -36.0067   24.3561 C   0  0  0  0  0  0  0  0  0  0  0  0
  -36.8570  -36.4916   25.5765 F   0  0  0  0  0  0  0  0  0  0  0  0
  -38.0770  -35.4139   23.9882 C   0  0  0  0  0  0  0  0  0  0  0  0
  -39.0283  -35.3319   24.9068 F   0  0  0  0  0  0  0  0  0  0  0  0
  -34.2676  -36.8688   23.7892 S   0  0  0  0  0  0  0  0  0  0  0  0
  -33.4414  -35.6949   23.8491 O   0  0  0  0  0  0  0  0  0  0  0  0
  -34.1635  -37.6179   25.3289 N   0  0  0  0  0  0  0  0  0  0  0  0
  -33.8635  -37.8411   22.7187 O   0  0  0  0  0  0  0  0  0  0  0  0
  -34.7370  -38.4614   25.3361 H   0  0  0  0  0  0  0  0  0  0  0  0
  -34.4987  -36.9727   26.0443 H   0  0  0  0  0  0  0  0  0  0  0  0
  -39.5130  -33.1197   21.2335 O   0  0  0  0  0  0  0  0  0  0  0  0
  -39.8893  -34.1154   22.3096 S   0  0  0  0  0  0  0  0  0  0  0  0
  -40.3360  -33.1347   23.3886 O   0  0  0  0  0  0  0  0  0  0  0  0
  -41.3290  -35.0691   21.7858 C   0  0  0  0  0  0  0  0  0  0  0  0
  -40.7210  -36.1899   20.9941 C   0  0  0  0  0  0  0  0  0  0  0  0
  -40.2579  -35.6117   19.8180 O   0  0  0  0  0  0  0  0  0  0  0  0
  -40.9958  -35.1845   19.3555 H   0  0  0  0  0  0  0  0  0  0  0  0
 21 20  1  0  0  0
 21 22  1  0  0  0
  3  2  1  0  0  0
 17 18  2  0  0  0
 20 18  1  0  0  0
 18  1  1  0  0  0
 18 19  2  0  0  0
  5  4  1  0  0  0
  2  4  2  0  0  0
  2  1  1  0  0  0
  4  6  1  0  0  0
  1  9  2  0  0  0
  9 10  1  0  0  0
  9  7  1  0  0  0
  6  7  2  0  0  0
  6 11  1  0  0  0
 14 11  2  0  0  0
 12 11  2  0  0  0
  7  8  1  0  0  0
 11 13  1  0  0  0
 22 23  1  0  0  0
 13 15  1  0  0  0
 13 16  1  0  0  0
M  END
> <minimizedAffinity>
-7.44221

$$$$
4HU1_V13_B_302


 23 23  0  0  0  0  0  0  0  0999 V2000
  -38.0129  -35.2551   22.1979 C   0  0  0  0  0  0  0  0  0  0  0  0
  -37.8412  -35.6316   23.5468 C   0  0  0  0  0  0  0  0  0  0  0  0
  -38.8551  -35.5562   24.4174 F   0  0  0  0  0  0  0  0  0  0  0  0
  -36.6380  -36.1296   24.0201 C   0  0  0  0  0  0  0  0  0  0  0  0
  -36.5183  -36.5438   25.2979 F   0  0  0  0  0  0  0  0  0  0  0  0
  -35.5434  -36.2302   23.1340 C   0  0  0  0  0  0  0  0  0  0  0  0
  -35.7065  -35.8303   21.8159 C   0  0  0  0  0  0  0  0  0  0  0  0
  -34.7473  -35.8070   20.9190 F   0  0  0  0  0  0  0  0  0  0  0  0
  -36.9206  -35.3228   21.3827 C   0  0  0  0  0  0  0  0  0  0  0  0
  -37.0096  -34.9435   20.1164 F   0  0  0  0  0  0  0  0  0  0  0  0
  -34.0414  -36.9051   23.8064 S   0  0  0  0  0  0  0  0  0  0  0  0
  -33.2753  -35.7051   23.9991 O   0  0  0  0  0  0  0  0  0  0  0  0
  -34.2208  -37.6233   25.3539 N   0  0  0  0  0  0  0  0  0  0  0  0
  -33.4089  -37.8831   22.8587 O   0  0  0  0  0  0  0  0  0  0  0  0
  -34.7615  -38.4840   25.2686 H   0  0  0  0  0  0  0  0  0  0  0  0
  -34.7072  -36.9763   25.9746 H   0  0  0  0  0  0  0  0  0  0  0  0
  -39.7279  -35.1906   20.2018 O   0  0  0  0  0  0  0  0  0  0  0  0
  -39.5983  -34.5600   21.5717 S   0  0  0  0  0  0  0  0  0  0  0  0
  -39.4230  -33.1069   21.1436 O   0  0  0  0  0  0  0  0  0  0  0  0
  -41.1625  -34.6991   22.4609 C   0  0  0  0  0  0  0  0  0  0  0  0
  -41.4141  -33.2933   22.9224 C   0  0  0  0  0  0  0  0  0  0  0  0
  -40.3732  -32.9910   23.7925 O   0  0  0  0  0  0  0  0  0  0  0  0
  -40.3671  -33.6290   24.5232 H   0  0  0  0  0  0  0  0  0  0  0  0
 21 20  1  0  0  0
 21 22  1  0  0  0
  3  2  1  0  0  0
 17 18  2  0  0  0
 20 18  1  0  0  0
 18  1  1  0  0  0
 18 19  2  0  0  0
  5  4  1  0  0  0
  2  4  2  0  0  0
  2  1  1  0  0  0
  4  6  1  0  0  0
  1  9  2  0  0  0
  9 10  1  0  0  0
  9  7  1  0  0  0
  6  7  2  0  0  0
  6 11  1  0  0  0
 14 11  2  0  0  0
 12 11  2  0  0  0
  7  8  1  0  0  0
 11 13  1  0  0  0
 22 23  1  0  0  0
 13 15  1  0  0  0
 13 16  1  0  0  0
M  END
> <minimizedAffinity>
-7.24774

$$$$
4HU1_V13_B_302


 23 23  0  0  0  0  0  0  0  0999 V2000
  -37.4031  -35.9837   24.1897 C   0  0  0  0  0  0  0  0  0  0  0  0
  -37.7441  -35.7117   22.8479 C   0  0  0  0  0  0  0  0  0  0  0  0
  -36.9971  -36.1769   21.8395 F   0  0  0  0  0  0  0  0  0  0  0  0
  -38.8788  -34.9906   22.5129 C   0  0  0  0  0  0  0  0  0  0  0  0
  -39.2182  -34.7999   21.2218 F   0  0  0  0  0  0  0  0  0  0  0  0
  -39.6977  -34.4850   23.5460 C   0  0  0  0  0  0  0  0  0  0  0  0
  -39.3431  -34.7279   24.8648 C   0  0  0  0  0  0  0  0  0  0  0  0
  -39.9807  -34.2503   25.9091 F   0  0  0  0  0  0  0  0  0  0  0  0
  -38.1924  -35.4401   25.1612 C   0  0  0  0  0  0  0  0  0  0  0  0
  -37.8990  -35.6262   26.4397 F   0  0  0  0  0  0  0  0  0  0  0  0
  -41.1515  -33.5948   23.0384 S   0  0  0  0  0  0  0  0  0  0  0  0
  -40.5543  -32.4427   22.4220 O   0  0  0  0  0  0  0  0  0  0  0  0
  -42.0700  -34.3790   21.8202 N   0  0  0  0  0  0  0  0  0  0  0  0
  -42.0303  -33.2683   24.2113 O   0  0  0  0  0  0  0  0  0  0  0  0
  -42.5163  -35.2084   22.2118 H   0  0  0  0  0  0  0  0  0  0  0  0
  -41.4549  -34.6535   21.0543 H   0  0  0  0  0  0  0  0  0  0  0  0
  -36.1925  -38.3213   24.1916 O   0  0  0  0  0  0  0  0  0  0  0  0
  -35.8783  -36.9107   24.6417 S   0  0  0  0  0  0  0  0  0  0  0  0
  -35.8164  -37.1545   26.1458 O   0  0  0  0  0  0  0  0  0  0  0  0
  -34.2287  -36.4413   24.0800 C   0  0  0  0  0  0  0  0  0  0  0  0
  -34.0263  -37.3053   22.8696 C   0  0  0  0  0  0  0  0  0  0  0  0
  -33.4836  -38.4942   23.3425 O   0  0  0  0  0  0  0  0  0  0  0  0
  -32.6552  -38.3075   23.8114 H   0  0  0  0  0  0  0  0  0  0  0  0
 21 20  1  0  0  0
 21 22  1  0  0  0
  3  2  1  0  0  0
 17 18  2  0  0  0
 20 18  1  0  0  0
 18  1  1  0  0  0
 18 19  2  0  0  0
  5  4  1  0  0  0
  2  4  2  0  0  0
  2  1  1  0  0  0
  4  6  1  0  0  0
  1  9  2  0  0  0
  9 10  1  0  0  0
  9  7  1  0  0  0
  6  7  2  0  0  0
  6 11  1  0  0  0
 14 11  2  0  0  0
 12 11  2  0  0  0
  7  8  1  0  0  0
 11 13  1  0  0  0
 22 23  1  0  0  0
 13 15  1  0  0  0
 13 16  1  0  0  0
M  END
> <minimizedAffinity>
-7.20186

$$$$
4HU1_V13_B_302


 23 23  0  0  0  0  0  0  0  0999 V2000
  -37.5898  -35.7850   23.8866 C   0  0  0  0  0  0  0  0  0  0  0  0
  -38.4201  -35.2017   24.8669 C   0  0  0  0  0  0  0  0  0  0  0  0
  -38.0965  -35.2557   26.1645 F   0  0  0  0  0  0  0  0  0  0  0  0
  -39.5779  -34.5179   24.5326 C   0  0  0  0  0  0  0  0  0  0  0  0
  -40.3200  -33.9132   25.4825 F   0  0  0  0  0  0  0  0  0  0  0  0
  -39.9542  -34.4329   23.1744 C   0  0  0  0  0  0  0  0  0  0  0  0
  -39.1520  -35.0338   22.2157 C   0  0  0  0  0  0  0  0  0  0  0  0
  -39.4331  -35.0864   20.9338 F   0  0  0  0  0  0  0  0  0  0  0  0
  -38.0094  -35.7223   22.5895 C   0  0  0  0  0  0  0  0  0  0  0  0
  -37.2927  -36.2878   21.6293 F   0  0  0  0  0  0  0  0  0  0  0  0
  -41.4361  -33.5151   22.8206 S   0  0  0  0  0  0  0  0  0  0  0  0
  -40.8755  -32.2868   22.3295 O   0  0  0  0  0  0  0  0  0  0  0  0
  -42.3812  -34.1646   21.5449 N   0  0  0  0  0  0  0  0  0  0  0  0
  -42.2820  -33.3471   24.0498 O   0  0  0  0  0  0  0  0  0  0  0  0
  -42.8027  -35.0428   21.8471 H   0  0  0  0  0  0  0  0  0  0  0  0
  -41.7866  -34.3343   20.7336 H   0  0  0  0  0  0  0  0  0  0  0  0
  -36.4276  -38.1461   23.9502 O   0  0  0  0  0  0  0  0  0  0  0  0
  -36.0694  -36.7246   24.3272 S   0  0  0  0  0  0  0  0  0  0  0  0
  -35.9605  -36.9046   25.8376 O   0  0  0  0  0  0  0  0  0  0  0  0
  -34.4311  -36.3160   23.6902 C   0  0  0  0  0  0  0  0  0  0  0  0
  -33.8235  -37.6641   23.4332 C   0  0  0  0  0  0  0  0  0  0  0  0
  -33.8152  -38.3135   24.6621 O   0  0  0  0  0  0  0  0  0  0  0  0
  -33.3068  -37.7898   25.3010 H   0  0  0  0  0  0  0  0  0  0  0  0
 21 20  1  0  0  0
 21 22  1  0  0  0
  3  2  1  0  0  0
 17 18  2  0  0  0
 20 18  1  0  0  0
 18  1  1  0  0  0
 18 19  2  0  0  0
  5  4  1  0  0  0
  2  4  2  0  0  0
  2  1  1  0  0  0
  4  6  1  0  0  0
  1  9  2  0  0  0
  9 10  1  0  0  0
  9  7  1  0  0  0
  6  7  2  0  0  0
  6 11  1  0  0  0
 14 11  2  0  0  0
 12 11  2  0  0  0
  7  8  1  0  0  0
 11 13  1  0  0  0
 22 23  1  0  0  0
 13 15  1  0  0  0
 13 16  1  0  0  0
M  END
> <minimizedAffinity>
-7.12184

$$$$
4HU1_V13_B_302


 23 23  0  0  0  0  0  0  0  0999 V2000
  -38.3874  -34.8779   22.6674 C   0  0  0  0  0  0  0  0  0  0  0  0
  -38.1667  -35.3443   23.9806 C   0  0  0  0  0  0  0  0  0  0  0  0
  -39.1069  -35.2151   24.9245 F   0  0  0  0  0  0  0  0  0  0  0  0
  -36.9935  -35.9870   24.3415 C   0  0  0  0  0  0  0  0  0  0  0  0
  -36.8331  -36.4817   25.5858 F   0  0  0  0  0  0  0  0  0  0  0  0
  -35.9769  -36.1485   23.3751 C   0  0  0  0  0  0  0  0  0  0  0  0
  -36.1845  -35.6615   22.0931 C   0  0  0  0  0  0  0  0  0  0  0  0
  -35.2900  -35.6856   21.1317 F   0  0  0  0  0  0  0  0  0  0  0  0
  -37.3648  -35.0104   21.7734 C   0  0  0  0  0  0  0  0  0  0  0  0
  -37.4977  -34.5542   20.5367 F   0  0  0  0  0  0  0  0  0  0  0  0
  -34.5125  -37.0084   23.9043 S   0  0  0  0  0  0  0  0  0  0  0  0
  -35.0921  -38.0433   24.7150 O   0  0  0  0  0  0  0  0  0  0  0  0
  -33.6616  -37.7971   22.6408 N   0  0  0  0  0  0  0  0  0  0  0  0
  -33.5847  -36.0975   24.6553 O   0  0  0  0  0  0  0  0  0  0  0  0
  -33.2299  -37.0997   22.0346 H   0  0  0  0  0  0  0  0  0  0  0  0
  -34.3108  -38.3654   22.0968 H   0  0  0  0  0  0  0  0  0  0  0  0
  -39.4431  -32.9927   21.1636 O   0  0  0  0  0  0  0  0  0  0  0  0
  -39.9293  -33.9921   22.1912 S   0  0  0  0  0  0  0  0  0  0  0  0
  -40.3542  -33.0158   23.2829 O   0  0  0  0  0  0  0  0  0  0  0  0
  -41.4063  -34.8299   21.5803 C   0  0  0  0  0  0  0  0  0  0  0  0
  -40.8492  -36.0592   20.9237 C   0  0  0  0  0  0  0  0  0  0  0  0
  -40.2944  -35.6268   19.7250 O   0  0  0  0  0  0  0  0  0  0  0  0
  -40.9780  -35.1941   19.1898 H   0  0  0  0  0  0  0  0  0  0  0  0
 21 20  1  0  0  0
 21 22  1  0  0  0
  3  2  1  0  0  0
 17 18  2  0  0  0
 20 18  1  0  0  0
 18  1  1  0  0  0
 18 19  2  0  0  0
  5  4  1  0  0  0
  2  4  2  0  0  0
  2  1  1  0  0  0
  4  6  1  0  0  0
  1  9  2  0  0  0
  9 10  1  0  0  0
  9  7  1  0  0  0
  6  7  2  0  0  0
  6 11  1  0  0  0
 14 11  2  0  0  0
 12 11  2  0  0  0
  7  8  1  0  0  0
 11 13  1  0  0  0
 22 23  1  0  0  0
 13 15  1  0  0  0
 13 16  1  0  0  0
M  END
> <minimizedAffinity>
-7.06754

$$$$
4HU1_V13_B_302


 23 23  0  0  0  0  0  0  0  0999 V2000
  -38.9350  -34.8349   23.3941 C   0  0  0  0  0  0  0  0  0  0  0  0
  -38.4403  -35.3838   24.5960 C   0  0  0  0  0  0  0  0  0  0  0  0
  -39.1793  -35.3766   25.7120 F   0  0  0  0  0  0  0  0  0  0  0  0
  -37.1943  -35.9857   24.6674 C   0  0  0  0  0  0  0  0  0  0  0  0
  -36.7713  -36.5610   25.8114 F   0  0  0  0  0  0  0  0  0  0  0  0
  -36.3837  -36.0192   23.5119 C   0  0  0  0  0  0  0  0  0  0  0  0
  -36.8602  -35.4513   22.3396 C   0  0  0  0  0  0  0  0  0  0  0  0
  -36.1735  -35.3552   21.2242 F   0  0  0  0  0  0  0  0  0  0  0  0
  -38.1053  -34.8446   22.3106 C   0  0  0  0  0  0  0  0  0  0  0  0
  -38.4984  -34.3066   21.1654 F   0  0  0  0  0  0  0  0  0  0  0  0
  -34.8106  -36.8337   23.6732 S   0  0  0  0  0  0  0  0  0  0  0  0
  -35.2269  -38.1175   24.1658 O   0  0  0  0  0  0  0  0  0  0  0  0
  -34.0075  -37.1191   22.1846 N   0  0  0  0  0  0  0  0  0  0  0  0
  -33.9030  -36.0896   24.6099 O   0  0  0  0  0  0  0  0  0  0  0  0
  -33.6913  -36.2318   21.7933 H   0  0  0  0  0  0  0  0  0  0  0  0
  -34.6500  -37.5687   21.5324 H   0  0  0  0  0  0  0  0  0  0  0  0
  -41.2701  -34.7467   22.1820 O   0  0  0  0  0  0  0  0  0  0  0  0
  -40.5745  -34.0029   23.3018 S   0  0  0  0  0  0  0  0  0  0  0  0
  -40.4538  -32.6370   22.6344 O   0  0  0  0  0  0  0  0  0  0  0  0
  -41.6863  -33.8421   24.7141 C   0  0  0  0  0  0  0  0  0  0  0  0
  -42.7060  -34.9147   24.4640 C   0  0  0  0  0  0  0  0  0  0  0  0
  -42.0409  -36.1192   24.6607 O   0  0  0  0  0  0  0  0  0  0  0  0
  -41.2848  -36.1736   24.0554 H   0  0  0  0  0  0  0  0  0  0  0  0
 21 20  1  0  0  0
 21 22  1  0  0  0
  3  2  1  0  0  0
 17 18  2  0  0  0
 20 18  1  0  0  0
 18  1  1  0  0  0
 18 19  2  0  0  0
  5  4  1  0  0  0
  2  4  2  0  0  0
  2  1  1  0  0  0
  4  6  1  0  0  0
  1  9  2  0  0  0
  9 10  1  0  0  0
  9  7  1  0  0  0
  6  7  2  0  0  0
  6 11  1  0  0  0
 14 11  2  0  0  0
 12 11  2  0  0  0
  7  8  1  0  0  0
 11 13  1  0  0  0
 22 23  1  0  0  0
 13 15  1  0  0  0
 13 16  1  0  0  0
M  END
> <minimizedAffinity>
-6.65048

$$$$
4HU1_V13_B_302


 23 23  0  0  0  0  0  0  0  0999 V2000
  -40.0478  -35.5629   21.3818 C   0  0  0  0  0  0  0  0  0  0  0  0
  -39.0843  -36.0644   20.4814 C   0  0  0  0  0  0  0  0  0  0  0  0
  -37.7776  -35.8595   20.6862 F   0  0  0  0  0  0  0  0  0  0  0  0
  -39.4395  -36.8189   19.3749 C   0  0  0  0  0  0  0  0  0  0  0  0
  -38.4961  -37.3420   18.5656 F   0  0  0  0  0  0  0  0  0  0  0  0
  -40.8073  -37.0629   19.1238 C   0  0  0  0  0  0  0  0  0  0  0  0
  -41.7538  -36.5425   19.9939 C   0  0  0  0  0  0  0  0  0  0  0  0
  -43.0531  -36.6384   19.8274 F   0  0  0  0  0  0  0  0  0  0  0  0
  -41.3613  -35.7796   21.0816 C   0  0  0  0  0  0  0  0  0  0  0  0
  -42.3128  -35.2975   21.8674 F   0  0  0  0  0  0  0  0  0  0  0  0
  -41.1838  -38.0630   17.7019 S   0  0  0  0  0  0  0  0  0  0  0  0
  -42.5284  -38.4648   18.0099 O   0  0  0  0  0  0  0  0  0  0  0  0
  -41.2607  -37.1918   16.2263 N   0  0  0  0  0  0  0  0  0  0  0  0
  -40.2233  -39.2096   17.5698 O   0  0  0  0  0  0  0  0  0  0  0  0
  -40.3244  -36.8835   15.9643 H   0  0  0  0  0  0  0  0  0  0  0  0
  -41.8662  -36.3791   16.3424 H   0  0  0  0  0  0  0  0  0  0  0  0
  -40.1738  -33.1790   22.4912 O   0  0  0  0  0  0  0  0  0  0  0  0
  -39.5844  -34.5305   22.8337 S   0  0  0  0  0  0  0  0  0  0  0  0
  -38.1062  -34.1587   22.7865 O   0  0  0  0  0  0  0  0  0  0  0  0
  -40.0001  -34.9670   24.5347 C   0  0  0  0  0  0  0  0  0  0  0  0
  -38.8801  -34.3537   25.3234 C   0  0  0  0  0  0  0  0  0  0  0  0
  -38.9742  -32.9839   25.1076 O   0  0  0  0  0  0  0  0  0  0  0  0
  -38.9065  -32.8008   24.1575 H   0  0  0  0  0  0  0  0  0  0  0  0
 21 20  1  0  0  0
 21 22  1  0  0  0
  3  2  1  0  0  0
 17 18  2  0  0  0
 20 18  1  0  0  0
 18  1  1  0  0  0
 18 19  2  0  0  0
  5  4  1  0  0  0
  2  4  2  0  0  0
  2  1  1  0  0  0
  4  6  1  0  0  0
  1  9  2  0  0  0
  9 10  1  0  0  0
  9  7  1  0  0  0
  6  7  2  0  0  0
  6 11  1  0  0  0
 14 11  2  0  0  0
 12 11  2  0  0  0
  7  8  1  0  0  0
 11 13  1  0  0  0
 22 23  1  0  0  0
 13 15  1  0  0  0
 13 16  1  0  0  0
M  END
> <minimizedAffinity>
-5.99845

$$$$
4HU1_V13_B_302


 23 23  0  0  0  0  0  0  0  0999 V2000
  -39.8101  -34.3163   22.8089 C   0  0  0  0  0  0  0  0  0  0  0  0
  -39.0538  -35.1282   21.9374 C   0  0  0  0  0  0  0  0  0  0  0  0
  -39.3343  -35.1828   20.6298 F   0  0  0  0  0  0  0  0  0  0  0  0
  -37.9712  -35.8695   22.3826 C   0  0  0  0  0  0  0  0  0  0  0  0
  -37.2244  -36.5864   21.5183 F   0  0  0  0  0  0  0  0  0  0  0  0
  -37.6377  -35.8372   23.7542 C   0  0  0  0  0  0  0  0  0  0  0  0
  -38.4020  -35.0621   24.6138 C   0  0  0  0  0  0  0  0  0  0  0  0
  -38.2373  -35.0082   25.9157 F   0  0  0  0  0  0  0  0  0  0  0  0
  -39.4870  -34.3463   24.1345 C   0  0  0  0  0  0  0  0  0  0  0  0
  -40.1872  -33.6369   25.0072 F   0  0  0  0  0  0  0  0  0  0  0  0
  -36.2189  -36.7908   24.2454 S   0  0  0  0  0  0  0  0  0  0  0  0
  -35.1568  -35.9528   23.7618 O   0  0  0  0  0  0  0  0  0  0  0  0
  -36.0065  -36.9171   25.9429 N   0  0  0  0  0  0  0  0  0  0  0  0
  -36.2400  -38.1599   23.6291 O   0  0  0  0  0  0  0  0  0  0  0  0
  -36.7413  -37.5062   26.3346 H   0  0  0  0  0  0  0  0  0  0  0  0
  -36.0558  -35.9883   26.3618 H   0  0  0  0  0  0  0  0  0  0  0  0
  -40.7390  -31.9419   22.1537 O   0  0  0  0  0  0  0  0  0  0  0  0
  -41.2706  -33.3571   22.2298 S   0  0  0  0  0  0  0  0  0  0  0  0
  -42.2782  -33.1671   23.3586 O   0  0  0  0  0  0  0  0  0  0  0  0
  -42.1823  -33.7510   20.7230 C   0  0  0  0  0  0  0  0  0  0  0  0
  -41.9606  -32.5376   19.8680 C   0  0  0  0  0  0  0  0  0  0  0  0
  -40.6508  -32.6325   19.4127 O   0  0  0  0  0  0  0  0  0  0  0  0
  -40.0470  -32.6712   20.1708 H   0  0  0  0  0  0  0  0  0  0  0  0
 21 20  1  0  0  0
 21 22  1  0  0  0
  3  2  1  0  0  0
 17 18  2  0  0  0
 20 18  1  0  0  0
 18  1  1  0  0  0
 18 19  2  0  0  0
  5  4  1  0  0  0
  2  4  2  0  0  0
  2  1  1  0  0  0
  4  6  1  0  0  0
  1  9  2  0  0  0
  9 10  1  0  0  0
  9  7  1  0  0  0
  6  7  2  0  0  0
  6 11  1  0  0  0
 14 11  2  0  0  0
 12 11  2  0  0  0
  7  8  1  0  0  0
 11 13  1  0  0  0
 22 23  1  0  0  0
 13 15  1  0  0  0
 13 16  1  0  0  0
M  END
> <minimizedAffinity>
-5.92433

$$$$
4HU1_V13_B_302


 23 23  0  0  0  0  0  0  0  0999 V2000
  -40.3431  -33.7375   21.7595 C   0  0  0  0  0  0  0  0  0  0  0  0
  -39.5641  -33.1069   20.7664 C   0  0  0  0  0  0  0  0  0  0  0  0
  -38.3325  -33.5436   20.4767 F   0  0  0  0  0  0  0  0  0  0  0  0
  -40.0473  -32.0414   20.0242 C   0  0  0  0  0  0  0  0  0  0  0  0
  -39.3078  -31.4979   19.0361 F   0  0  0  0  0  0  0  0  0  0  0  0
  -41.3438  -31.5518   20.2942 C   0  0  0  0  0  0  0  0  0  0  0  0
  -42.0956  -32.1542   21.2922 C   0  0  0  0  0  0  0  0  0  0  0  0
  -43.2802  -31.7444   21.6843 F   0  0  0  0  0  0  0  0  0  0  0  0
  -41.5727  -33.2079   22.0240 C   0  0  0  0  0  0  0  0  0  0  0  0
  -42.3334  -33.7314   22.9741 F   0  0  0  0  0  0  0  0  0  0  0  0
  -41.9058  -30.2018   19.2816 S   0  0  0  0  0  0  0  0  0  0  0  0
  -42.6571  -29.4444   20.2439 O   0  0  0  0  0  0  0  0  0  0  0  0
  -40.6542  -29.1721   18.7197 N   0  0  0  0  0  0  0  0  0  0  0  0
  -42.7247  -30.6918   18.1222 O   0  0  0  0  0  0  0  0  0  0  0  0
  -40.0899  -29.6682   18.0299 H   0  0  0  0  0  0  0  0  0  0  0  0
  -40.0650  -28.8937   19.5043 H   0  0  0  0  0  0  0  0  0  0  0  0
  -39.4795  -36.2243   21.7486 O   0  0  0  0  0  0  0  0  0  0  0  0
  -39.6936  -35.1305   22.7727 S   0  0  0  0  0  0  0  0  0  0  0  0
  -40.8112  -35.7825   23.5798 O   0  0  0  0  0  0  0  0  0  0  0  0
  -38.2408  -34.9920   23.8343 C   0  0  0  0  0  0  0  0  0  0  0  0
  -38.8058  -34.4327   25.1074 C   0  0  0  0  0  0  0  0  0  0  0  0
  -38.9397  -33.0662   24.8911 O   0  0  0  0  0  0  0  0  0  0  0  0
  -38.0749  -32.6879   24.6678 H   0  0  0  0  0  0  0  0  0  0  0  0
 21 20  1  0  0  0
 21 22  1  0  0  0
  3  2  1  0  0  0
 17 18  2  0  0  0
 20 18  1  0  0  0
 18  1  1  0  0  0
 18 19  2  0  0  0
  5  4  1  0  0  0
  2  4  2  0  0  0
  2  1  1  0  0  0
  4  6  1  0  0  0
  1  9  2  0  0  0
  9 10  1  0  0  0
  9  7  1  0  0  0
  6  7  2  0  0  0
  6 11  1  0  0  0
 14 11  2  0  0  0
 12 11  2  0  0  0
  7  8  1  0  0  0
 11 13  1  0  0  0
 22 23  1  0  0  0
 13 15  1  0  0  0
 13 16  1  0  0  0
M  END
> <minimizedAffinity>
-5.92315

$$$$
