2J79_GTL_A_1446


 19 19  0  0  0  0  0  0  0  0999 V2000
   -0.9227   10.5298   10.5953 C   0  0  0  0  0  0  0  0  0  0  0  0
   -0.5943   10.0965   11.8118 N   0  0  0  0  0  0  0  0  0  0  0  0
    0.2133   11.2271    9.8182 C   0  0  0  0  0  0  0  0  0  0  0  0
   -2.2486   10.3328   10.1139 N   0  0  0  0  0  0  0  0  0  0  0  0
   -1.4891    9.2705   12.5114 O   0  0  0  0  0  0  0  0  0  0  0  0
    0.7301   12.3617   10.4737 O   0  0  0  0  0  0  0  0  0  0  0  0
   -0.3197   11.7786    8.4930 C   0  0  0  0  0  0  0  0  0  0  0  0
    0.8171   11.9932    7.6843 O   0  0  0  0  0  0  0  0  0  0  0  0
   -1.3695   10.8521    7.8209 C   0  0  0  0  0  0  0  0  0  0  0  0
   -0.7209    9.6153    7.6296 O   0  0  0  0  0  0  0  0  0  0  0  0
   -2.6000   10.7216    8.7461 C   0  0  0  0  0  0  0  0  0  0  0  0
   -2.9305    9.9344   10.7018 H   0  0  0  0  0  0  0  0  0  0  0  0
   -1.2685    8.9600   13.3675 H   0  0  0  0  0  0  0  0  0  0  0  0
    0.0323   13.0296   10.5628 H   0  0  0  0  0  0  0  0  0  0  0  0
    1.2866   11.1540    7.5573 H   0  0  0  0  0  0  0  0  0  0  0  0
   -0.4045    9.2806    8.4833 H   0  0  0  0  0  0  0  0  0  0  0  0
   -3.6949    9.7279    8.3174 C   0  0  0  0  0  0  0  0  0  0  0  0
   -3.3974    8.4026    8.6740 O   0  0  0  0  0  0  0  0  0  0  0  0
   -2.5824    8.1231    8.2285 H   0  0  0  0  0  0  0  0  0  0  0  0
  1  2  2  0  0  0
  1  3  1  0  0  0
  1  4  1  0  0  0
  2  5  1  0  0  0
  3  6  1  0  0  0
  3  7  1  0  0  0
  4 11  1  0  0  0
  7  8  1  0  0  0
  7  9  1  0  0  0
  9 10  1  0  0  0
  9 11  1  0  0  0
 11 17  1  0  0  0
 17 18  1  0  0  0
  4 12  1  0  0  0
  5 13  1  0  0  0
  6 14  1  0  0  0
  8 15  1  0  0  0
 10 16  1  0  0  0
 18 19  1  0  0  0
M  END
> <minimizedAffinity>
-8.11003

$$$$
2J79_GTL_A_1446


 19 19  0  0  0  0  0  0  0  0999 V2000
   -0.8098   10.7164   10.0092 C   0  0  0  0  0  0  0  0  0  0  0  0
   -0.1348   11.8025    9.6350 N   0  0  0  0  0  0  0  0  0  0  0  0
   -1.9261   10.2716    9.0415 C   0  0  0  0  0  0  0  0  0  0  0  0
   -0.4729   10.0666   11.2311 N   0  0  0  0  0  0  0  0  0  0  0  0
    1.0278   12.1639   10.3352 O   0  0  0  0  0  0  0  0  0  0  0  0
   -2.9153   11.2526    8.8338 O   0  0  0  0  0  0  0  0  0  0  0  0
   -2.6977    9.0912    9.6381 C   0  0  0  0  0  0  0  0  0  0  0  0
   -3.3716    8.4889    8.5540 O   0  0  0  0  0  0  0  0  0  0  0  0
   -1.7920    8.0946   10.4118 C   0  0  0  0  0  0  0  0  0  0  0  0
   -0.8298    7.6514    9.4818 O   0  0  0  0  0  0  0  0  0  0  0  0
   -1.1437    8.8213   11.6113 C   0  0  0  0  0  0  0  0  0  0  0  0
    0.2123   10.4554   11.8215 H   0  0  0  0  0  0  0  0  0  0  0  0
    1.5103   12.9257   10.0807 H   0  0  0  0  0  0  0  0  0  0  0  0
   -3.3635   11.4425    9.6729 H   0  0  0  0  0  0  0  0  0  0  0  0
   -2.7243    8.1939    7.8946 H   0  0  0  0  0  0  0  0  0  0  0  0
   -0.3461    8.4144    9.1285 H   0  0  0  0  0  0  0  0  0  0  0  0
   -0.0973    8.0356   12.4223 C   0  0  0  0  0  0  0  0  0  0  0  0
    1.1335    7.9202   11.7559 O   0  0  0  0  0  0  0  0  0  0  0  0
    1.0075    7.4345   10.9258 H   0  0  0  0  0  0  0  0  0  0  0  0
  1  2  2  0  0  0
  1  3  1  0  0  0
  1  4  1  0  0  0
  2  5  1  0  0  0
  3  6  1  0  0  0
  3  7  1  0  0  0
  4 11  1  0  0  0
  7  8  1  0  0  0
  7  9  1  0  0  0
  9 10  1  0  0  0
  9 11  1  0  0  0
 11 17  1  0  0  0
 17 18  1  0  0  0
  4 12  1  0  0  0
  5 13  1  0  0  0
  6 14  1  0  0  0
  8 15  1  0  0  0
 10 16  1  0  0  0
 18 19  1  0  0  0
M  END
> <minimizedAffinity>
-7.62459

$$$$
2J79_GTL_A_1446


 19 19  0  0  0  0  0  0  0  0999 V2000
   -2.2633   10.1352    8.7940 C   0  0  0  0  0  0  0  0  0  0  0  0
   -3.4412   10.3568    8.2118 N   0  0  0  0  0  0  0  0  0  0  0  0
   -1.1012   11.0088    8.2773 C   0  0  0  0  0  0  0  0  0  0  0  0
   -2.1580    9.1431    9.8105 N   0  0  0  0  0  0  0  0  0  0  0  0
   -4.5957    9.7663    8.7510 O   0  0  0  0  0  0  0  0  0  0  0  0
   -0.8523   10.8573    6.8992 O   0  0  0  0  0  0  0  0  0  0  0  0
    0.2116   10.5791    8.9379 C   0  0  0  0  0  0  0  0  0  0  0  0
    1.0999   11.6616    8.7609 O   0  0  0  0  0  0  0  0  0  0  0  0
    0.0449   10.1754   10.4283 C   0  0  0  0  0  0  0  0  0  0  0  0
   -0.4987   11.3056   11.0719 O   0  0  0  0  0  0  0  0  0  0  0  0
   -0.8925    8.9509   10.5224 C   0  0  0  0  0  0  0  0  0  0  0  0
   -2.9376    8.5854   10.0351 H   0  0  0  0  0  0  0  0  0  0  0  0
   -5.4292    9.9153    8.3498 H   0  0  0  0  0  0  0  0  0  0  0  0
   -0.5863    9.9424    6.7173 H   0  0  0  0  0  0  0  0  0  0  0  0
    0.7321   12.4539    9.1827 H   0  0  0  0  0  0  0  0  0  0  0  0
   -1.3347   11.5500   10.6449 H   0  0  0  0  0  0  0  0  0  0  0  0
   -1.2950    8.4854   11.9336 C   0  0  0  0  0  0  0  0  0  0  0  0
   -0.3589    8.8499   12.9149 O   0  0  0  0  0  0  0  0  0  0  0  0
    0.4939    8.4309   12.7198 H   0  0  0  0  0  0  0  0  0  0  0  0
  1  2  2  0  0  0
  1  3  1  0  0  0
  1  4  1  0  0  0
  2  5  1  0  0  0
  3  6  1  0  0  0
  3  7  1  0  0  0
  4 11  1  0  0  0
  7  8  1  0  0  0
  7  9  1  0  0  0
  9 10  1  0  0  0
  9 11  1  0  0  0
 11 17  1  0  0  0
 17 18  1  0  0  0
  4 12  1  0  0  0
  5 13  1  0  0  0
  6 14  1  0  0  0
  8 15  1  0  0  0
 10 16  1  0  0  0
 18 19  1  0  0  0
M  END
> <minimizedAffinity>
-7.43419

$$$$
2J79_GTL_A_1446


 19 19  0  0  0  0  0  0  0  0999 V2000
   -0.2876   10.2846   10.3173 C   0  0  0  0  0  0  0  0  0  0  0  0
    0.2684   11.4562   10.0113 N   0  0  0  0  0  0  0  0  0  0  0  0
   -0.1601    9.1944    9.2330 C   0  0  0  0  0  0  0  0  0  0  0  0
   -0.9409   10.1240   11.5727 N   0  0  0  0  0  0  0  0  0  0  0  0
    0.3886   12.4401   11.0062 O   0  0  0  0  0  0  0  0  0  0  0  0
   -0.7412    9.5544    8.0014 O   0  0  0  0  0  0  0  0  0  0  0  0
   -0.9353    7.9429    9.6540 C   0  0  0  0  0  0  0  0  0  0  0  0
   -0.4240    6.8929    8.8615 O   0  0  0  0  0  0  0  0  0  0  0  0
   -0.8433    7.6474   11.1759 C   0  0  0  0  0  0  0  0  0  0  0  0
    0.5313    7.5087   11.4559 O   0  0  0  0  0  0  0  0  0  0  0  0
   -1.4771    8.8174   11.9611 C   0  0  0  0  0  0  0  0  0  0  0  0
   -1.0323   10.8929   12.1808 H   0  0  0  0  0  0  0  0  0  0  0  0
    0.7780   13.2676   10.8021 H   0  0  0  0  0  0  0  0  0  0  0  0
   -1.6946    9.6878    8.1204 H   0  0  0  0  0  0  0  0  0  0  0  0
    0.5266    6.7953    9.0282 H   0  0  0  0  0  0  0  0  0  0  0  0
    0.9980    8.3175   11.1932 H   0  0  0  0  0  0  0  0  0  0  0  0
   -1.3566    8.7764   13.4953 C   0  0  0  0  0  0  0  0  0  0  0  0
   -0.0671    8.4307   13.9312 O   0  0  0  0  0  0  0  0  0  0  0  0
    0.1537    7.5411   13.6140 H   0  0  0  0  0  0  0  0  0  0  0  0
  1  2  2  0  0  0
  1  3  1  0  0  0
  1  4  1  0  0  0
  2  5  1  0  0  0
  3  6  1  0  0  0
  3  7  1  0  0  0
  4 11  1  0  0  0
  7  8  1  0  0  0
  7  9  1  0  0  0
  9 10  1  0  0  0
  9 11  1  0  0  0
 11 17  1  0  0  0
 17 18  1  0  0  0
  4 12  1  0  0  0
  5 13  1  0  0  0
  6 14  1  0  0  0
  8 15  1  0  0  0
 10 16  1  0  0  0
 18 19  1  0  0  0
M  END
> <minimizedAffinity>
-7.30523

$$$$
2J79_GTL_A_1446


 19 19  0  0  0  0  0  0  0  0999 V2000
   -0.6993    9.8321    9.2510 C   0  0  0  0  0  0  0  0  0  0  0  0
   -1.1077   10.7389    8.3643 N   0  0  0  0  0  0  0  0  0  0  0  0
   -1.0581   10.1419   10.7192 C   0  0  0  0  0  0  0  0  0  0  0  0
    0.0168    8.6852    8.8033 N   0  0  0  0  0  0  0  0  0  0  0  0
   -1.0151   10.4492    6.9932 O   0  0  0  0  0  0  0  0  0  0  0  0
   -0.5258   11.3604   11.1840 O   0  0  0  0  0  0  0  0  0  0  0  0
   -0.4358    9.0919   11.6438 C   0  0  0  0  0  0  0  0  0  0  0  0
   -1.1462    9.1854   12.8599 O   0  0  0  0  0  0  0  0  0  0  0  0
   -0.4546    7.6590   11.0450 C   0  0  0  0  0  0  0  0  0  0  0  0
   -1.8105    7.3689   10.7906 O   0  0  0  0  0  0  0  0  0  0  0  0
    0.3929    7.6357    9.7534 C   0  0  0  0  0  0  0  0  0  0  0  0
    0.2596    8.5976    7.8532 H   0  0  0  0  0  0  0  0  0  0  0  0
   -1.2993   11.0795    6.3608 H   0  0  0  0  0  0  0  0  0  0  0  0
    0.4431   11.3203   11.1594 H   0  0  0  0  0  0  0  0  0  0  0  0
   -2.0860    9.0064   12.6999 H   0  0  0  0  0  0  0  0  0  0  0  0
   -2.1780    8.0390   10.1933 H   0  0  0  0  0  0  0  0  0  0  0  0
    0.3824    6.3326    8.9337 C   0  0  0  0  0  0  0  0  0  0  0  0
   -0.9057    5.7937    8.7842 O   0  0  0  0  0  0  0  0  0  0  0  0
   -1.2670    5.5727    9.6569 H   0  0  0  0  0  0  0  0  0  0  0  0
  1  2  2  0  0  0
  1  3  1  0  0  0
  1  4  1  0  0  0
  2  5  1  0  0  0
  3  6  1  0  0  0
  3  7  1  0  0  0
  4 11  1  0  0  0
  7  8  1  0  0  0
  7  9  1  0  0  0
  9 10  1  0  0  0
  9 11  1  0  0  0
 11 17  1  0  0  0
 17 18  1  0  0  0
  4 12  1  0  0  0
  5 13  1  0  0  0
  6 14  1  0  0  0
  8 15  1  0  0  0
 10 16  1  0  0  0
 18 19  1  0  0  0
M  END
> <minimizedAffinity>
-6.61062

$$$$
2J79_GTL_A_1446


 19 19  0  0  0  0  0  0  0  0999 V2000
   -0.5374    7.5312   10.0709 C   0  0  0  0  0  0  0  0  0  0  0  0
    0.1683    6.5046    9.5981 N   0  0  0  0  0  0  0  0  0  0  0  0
   -0.4941    7.7071   11.6032 C   0  0  0  0  0  0  0  0  0  0  0  0
   -1.2598    8.3621    9.1674 N   0  0  0  0  0  0  0  0  0  0  0  0
    0.3619    6.3845    8.2123 O   0  0  0  0  0  0  0  0  0  0  0  0
   -0.9730    6.5882   12.3122 O   0  0  0  0  0  0  0  0  0  0  0  0
   -1.4318    8.8408   12.0275 C   0  0  0  0  0  0  0  0  0  0  0  0
   -1.0159    9.2150   13.3233 O   0  0  0  0  0  0  0  0  0  0  0  0
   -1.4429   10.0327   11.0318 C   0  0  0  0  0  0  0  0  0  0  0  0
   -0.1085   10.4812   10.9577 O   0  0  0  0  0  0  0  0  0  0  0  0
   -1.9656    9.5467    9.6616 C   0  0  0  0  0  0  0  0  0  0  0  0
   -1.2848    8.1398    8.2087 H   0  0  0  0  0  0  0  0  0  0  0  0
    0.8564    5.6665    7.8689 H   0  0  0  0  0  0  0  0  0  0  0  0
   -1.9078    6.4446   12.0966 H   0  0  0  0  0  0  0  0  0  0  0  0
   -0.0921    9.5095   13.2940 H   0  0  0  0  0  0  0  0  0  0  0  0
    0.4630    9.7503   10.6747 H   0  0  0  0  0  0  0  0  0  0  0  0
   -1.9184   10.5538    8.4981 C   0  0  0  0  0  0  0  0  0  0  0  0
   -0.9749   10.2085    7.5169 O   0  0  0  0  0  0  0  0  0  0  0  0
   -0.0881   10.2002    7.9098 H   0  0  0  0  0  0  0  0  0  0  0  0
  1  2  2  0  0  0
  1  3  1  0  0  0
  1  4  1  0  0  0
  2  5  1  0  0  0
  3  6  1  0  0  0
  3  7  1  0  0  0
  4 11  1  0  0  0
  7  8  1  0  0  0
  7  9  1  0  0  0
  9 10  1  0  0  0
  9 11  1  0  0  0
 11 17  1  0  0  0
 17 18  1  0  0  0
  4 12  1  0  0  0
  5 13  1  0  0  0
  6 14  1  0  0  0
  8 15  1  0  0  0
 10 16  1  0  0  0
 18 19  1  0  0  0
M  END
> <minimizedAffinity>
-6.58552

$$$$
2J79_GTL_A_1446


 19 19  0  0  0  0  0  0  0  0999 V2000
   -1.4890    9.2586   10.7440 C   0  0  0  0  0  0  0  0  0  0  0  0
   -1.6972    8.6815   11.9268 N   0  0  0  0  0  0  0  0  0  0  0  0
   -2.6193    9.0656    9.7117 C   0  0  0  0  0  0  0  0  0  0  0  0
   -0.2832    9.9823   10.5183 N   0  0  0  0  0  0  0  0  0  0  0  0
   -0.8316    8.9712   12.9942 O   0  0  0  0  0  0  0  0  0  0  0  0
   -2.8808    7.7151    9.4087 O   0  0  0  0  0  0  0  0  0  0  0  0
   -2.2100    9.6720    8.3666 C   0  0  0  0  0  0  0  0  0  0  0  0
   -3.4105    9.8436    7.6444 O   0  0  0  0  0  0  0  0  0  0  0  0
   -1.4002   10.9896    8.5088 C   0  0  0  0  0  0  0  0  0  0  0  0
   -2.2298   11.8722    9.2298 O   0  0  0  0  0  0  0  0  0  0  0  0
   -0.0800   10.6977    9.2564 C   0  0  0  0  0  0  0  0  0  0  0  0
    0.4151   10.0018   11.2120 H   0  0  0  0  0  0  0  0  0  0  0  0
   -0.9686    8.5710   13.8303 H   0  0  0  0  0  0  0  0  0  0  0  0
   -2.0940    7.3159    9.0055 H   0  0  0  0  0  0  0  0  0  0  0  0
   -4.0018   10.4349    8.1360 H   0  0  0  0  0  0  0  0  0  0  0  0
   -2.4642   11.4722   10.0819 H   0  0  0  0  0  0  0  0  0  0  0  0
    0.7995   11.9077    9.6206 C   0  0  0  0  0  0  0  0  0  0  0  0
    0.5153   12.4233   10.8956 O   0  0  0  0  0  0  0  0  0  0  0  0
   -0.4035   12.7332   10.9216 H   0  0  0  0  0  0  0  0  0  0  0  0
  1  2  2  0  0  0
  1  3  1  0  0  0
  1  4  1  0  0  0
  2  5  1  0  0  0
  3  6  1  0  0  0
  3  7  1  0  0  0
  4 11  1  0  0  0
  7  8  1  0  0  0
  7  9  1  0  0  0
  9 10  1  0  0  0
  9 11  1  0  0  0
 11 17  1  0  0  0
 17 18  1  0  0  0
  4 12  1  0  0  0
  5 13  1  0  0  0
  6 14  1  0  0  0
  8 15  1  0  0  0
 10 16  1  0  0  0
 18 19  1  0  0  0
M  END
> <minimizedAffinity>
-6.39368

$$$$
2J79_GTL_A_1446


 19 19  0  0  0  0  0  0  0  0999 V2000
   -1.0397    8.4852   12.0933 C   0  0  0  0  0  0  0  0  0  0  0  0
   -1.5110    8.4631   13.3394 N   0  0  0  0  0  0  0  0  0  0  0  0
   -1.1792    7.1601   11.3154 C   0  0  0  0  0  0  0  0  0  0  0  0
   -0.4574    9.6810   11.5839 N   0  0  0  0  0  0  0  0  0  0  0  0
   -1.6206    9.6674   14.0537 O   0  0  0  0  0  0  0  0  0  0  0  0
   -0.5201    6.0759   11.9271 O   0  0  0  0  0  0  0  0  0  0  0  0
   -0.4995    7.2804    9.9486 C   0  0  0  0  0  0  0  0  0  0  0  0
   -1.0332    6.2357    9.1638 O   0  0  0  0  0  0  0  0  0  0  0  0
   -0.6810    8.6772    9.2942 C   0  0  0  0  0  0  0  0  0  0  0  0
   -2.0732    8.8703    9.1853 O   0  0  0  0  0  0  0  0  0  0  0  0
   -0.0178    9.7485   10.1883 C   0  0  0  0  0  0  0  0  0  0  0  0
   -0.3502   10.4640   12.1710 H   0  0  0  0  0  0  0  0  0  0  0  0
   -1.9507    9.6636   14.9306 H   0  0  0  0  0  0  0  0  0  0  0  0
    0.4327    6.2544   11.9613 H   0  0  0  0  0  0  0  0  0  0  0  0
   -1.9947    6.3428    9.0936 H   0  0  0  0  0  0  0  0  0  0  0  0
   -2.4786    8.8027   10.0639 H   0  0  0  0  0  0  0  0  0  0  0  0
   -0.2134   11.2196    9.7788 C   0  0  0  0  0  0  0  0  0  0  0  0
    0.5150   12.1104   10.5839 O   0  0  0  0  0  0  0  0  0  0  0  0
    0.2117   12.0378   11.5024 H   0  0  0  0  0  0  0  0  0  0  0  0
  1  2  2  0  0  0
  1  3  1  0  0  0
  1  4  1  0  0  0
  2  5  1  0  0  0
  3  6  1  0  0  0
  3  7  1  0  0  0
  4 11  1  0  0  0
  7  8  1  0  0  0
  7  9  1  0  0  0
  9 10  1  0  0  0
  9 11  1  0  0  0
 11 17  1  0  0  0
 17 18  1  0  0  0
  4 12  1  0  0  0
  5 13  1  0  0  0
  6 14  1  0  0  0
  8 15  1  0  0  0
 10 16  1  0  0  0
 18 19  1  0  0  0
M  END
> <minimizedAffinity>
-6.30859

$$$$
2J79_GTL_A_1446


 19 19  0  0  0  0  0  0  0  0999 V2000
   -1.8281    7.8755   14.6833 C   0  0  0  0  0  0  0  0  0  0  0  0
   -1.3062    8.8900   13.9949 N   0  0  0  0  0  0  0  0  0  0  0  0
   -3.1136    8.2081   15.4691 C   0  0  0  0  0  0  0  0  0  0  0  0
   -1.1879    6.6035   14.6534 N   0  0  0  0  0  0  0  0  0  0  0  0
   -0.2637    8.6401   13.0876 O   0  0  0  0  0  0  0  0  0  0  0  0
   -2.9433    9.2340   16.4192 O   0  0  0  0  0  0  0  0  0  0  0  0
   -3.5444    6.9998   16.3052 C   0  0  0  0  0  0  0  0  0  0  0  0
   -4.9010    7.2217   16.6254 O   0  0  0  0  0  0  0  0  0  0  0  0
   -3.3101    5.6425   15.5877 C   0  0  0  0  0  0  0  0  0  0  0  0
   -4.0440    5.7136   14.3862 O   0  0  0  0  0  0  0  0  0  0  0  0
   -1.7980    5.4569   15.3304 C   0  0  0  0  0  0  0  0  0  0  0  0
   -0.3334    6.4948   14.1766 H   0  0  0  0  0  0  0  0  0  0  0  0
    0.1107    9.3459   12.5982 H   0  0  0  0  0  0  0  0  0  0  0  0
   -2.2995    8.9520   17.0877 H   0  0  0  0  0  0  0  0  0  0  0  0
   -5.4189    7.2917   15.8082 H   0  0  0  0  0  0  0  0  0  0  0  0
   -3.7444    6.4776   13.8691 H   0  0  0  0  0  0  0  0  0  0  0  0
   -1.3754    4.2316   14.4996 C   0  0  0  0  0  0  0  0  0  0  0  0
   -1.6845    4.3652   13.1362 O   0  0  0  0  0  0  0  0  0  0  0  0
   -2.6447    4.4521   13.0294 H   0  0  0  0  0  0  0  0  0  0  0  0
  1  2  2  0  0  0
  1  3  1  0  0  0
  1  4  1  0  0  0
  2  5  1  0  0  0
  3  6  1  0  0  0
  3  7  1  0  0  0
  4 11  1  0  0  0
  7  8  1  0  0  0
  7  9  1  0  0  0
  9 10  1  0  0  0
  9 11  1  0  0  0
 11 17  1  0  0  0
 17 18  1  0  0  0
  4 12  1  0  0  0
  5 13  1  0  0  0
  6 14  1  0  0  0
  8 15  1  0  0  0
 10 16  1  0  0  0
 18 19  1  0  0  0
M  END
> <minimizedAffinity>
-6.12343

$$$$
2J79_GTL_A_1446


 19 19  0  0  0  0  0  0  0  0999 V2000
   -0.4699    9.3681   10.9171 C   0  0  0  0  0  0  0  0  0  0  0  0
   -0.0700   10.5074   10.3537 N   0  0  0  0  0  0  0  0  0  0  0  0
   -0.0646    8.0850   10.1621 C   0  0  0  0  0  0  0  0  0  0  0  0
   -1.2192    9.4086   12.1277 N   0  0  0  0  0  0  0  0  0  0  0  0
   -0.2062   11.7105   11.0654 O   0  0  0  0  0  0  0  0  0  0  0  0
   -0.5613    8.0256    8.8454 O   0  0  0  0  0  0  0  0  0  0  0  0
   -0.6798    6.8594   10.8432 C   0  0  0  0  0  0  0  0  0  0  0  0
    0.0659    5.7529   10.3833 O   0  0  0  0  0  0  0  0  0  0  0  0
   -0.7040    6.9663   12.3925 C   0  0  0  0  0  0  0  0  0  0  0  0
    0.6386    7.1418   12.7845 O   0  0  0  0  0  0  0  0  0  0  0  0
   -1.5876    8.1641   12.8066 C   0  0  0  0  0  0  0  0  0  0  0  0
   -1.4900   10.2749   12.5090 H   0  0  0  0  0  0  0  0  0  0  0  0
    0.0717   12.5175   10.6790 H   0  0  0  0  0  0  0  0  0  0  0  0
   -1.5310    8.0160    8.8657 H   0  0  0  0  0  0  0  0  0  0  0  0
    0.9975    5.8662   10.6289 H   0  0  0  0  0  0  0  0  0  0  0  0
    1.0015    7.9302   12.3513 H   0  0  0  0  0  0  0  0  0  0  0  0
   -1.6239    8.5216   14.3036 C   0  0  0  0  0  0  0  0  0  0  0  0
   -1.7726    9.8994   14.5309 O   0  0  0  0  0  0  0  0  0  0  0  0
   -1.0150   10.3730   14.1532 H   0  0  0  0  0  0  0  0  0  0  0  0
  1  2  2  0  0  0
  1  3  1  0  0  0
  1  4  1  0  0  0
  2  5  1  0  0  0
  3  6  1  0  0  0
  3  7  1  0  0  0
  4 11  1  0  0  0
  7  8  1  0  0  0
  7  9  1  0  0  0
  9 10  1  0  0  0
  9 11  1  0  0  0
 11 17  1  0  0  0
 17 18  1  0  0  0
  4 12  1  0  0  0
  5 13  1  0  0  0
  6 14  1  0  0  0
  8 15  1  0  0  0
 10 16  1  0  0  0
 18 19  1  0  0  0
M  END
> <minimizedAffinity>
-5.80239

$$$$
