6AYR_BIG_A_301


 27 29  0  0  0  0  0  0  0  0999 V2000
   65.3986   14.9169   39.9741 C   0  0  0  0  0  0  0  0  0  0  0  0
   67.8768   18.4737   38.0853 C   0  0  0  0  0  0  0  0  0  0  0  0
   65.2333   18.6221   38.9173 C   0  0  0  0  0  0  0  0  0  0  0  0
   66.0315   17.3972   39.0100 C   0  0  0  0  0  0  0  0  0  0  0  0
   63.9631   17.0518   39.8320 C   0  0  0  0  0  0  0  0  0  0  0  0
   64.0128   18.3430   39.4065 N   0  0  0  0  0  0  0  0  0  0  0  0
   65.9193   19.7982   38.3095 C   0  0  0  0  0  0  0  0  0  0  0  0
   65.3023   20.9871   38.1429 N   0  0  0  0  0  0  0  0  0  0  0  0
   67.3265   17.3580   38.6041 N   0  0  0  0  0  0  0  0  0  0  0  0
   65.1727   16.3768   39.6396 C   0  0  0  0  0  0  0  0  0  0  0  0
   67.2047   19.6434   37.9345 N   0  0  0  0  0  0  0  0  0  0  0  0
   63.2637   18.9803   39.4504 H   0  0  0  0  0  0  0  0  0  0  0  0
   64.3634   21.0973   38.4177 H   0  0  0  0  0  0  0  0  0  0  0  0
   65.7913   21.7442   37.7465 H   0  0  0  0  0  0  0  0  0  0  0  0
   67.6802   13.4289   43.1014 O   0  0  0  0  0  0  0  0  0  0  0  0
   67.9646   14.7099   42.5376 C   0  0  0  0  0  0  0  0  0  0  0  0
   66.9984   15.7070   43.1254 C   0  0  0  0  0  0  0  0  0  0  0  0
   65.6982   15.3354   42.4139 C   0  0  0  0  0  0  0  0  0  0  0  0
   66.0981   14.5793   41.2105 N   0  0  0  0  0  0  0  0  0  0  0  0
   67.5848   14.6353   41.0868 C   0  0  0  0  0  0  0  0  0  0  0  0
   67.9117   13.4316   44.0434 H   0  0  0  0  0  0  0  0  0  0  0  0
   67.3393   17.1745   42.8933 C   0  0  0  0  0  0  0  0  0  0  0  0
   67.9820   17.9153   44.3520 S   0  0  0  0  0  0  0  0  0  0  0  0
   67.0091   17.1508   45.6138 C   0  0  0  0  0  0  0  0  0  0  0  0
   66.9393   18.0239   46.8541 C   0  0  0  0  0  0  0  0  0  0  0  0
   68.3429   18.4475   47.2747 C   0  0  0  0  0  0  0  0  0  0  0  0
   68.3330   18.8968   48.7192 C   0  0  0  0  0  0  0  0  0  0  0  0
  2  9  2  0  0  0
  2 11  1  0  0  0
  3  4  2  0  0  0
  3  6  1  0  0  0
  3  7  1  0  0  0
  4  9  1  0  0  0
  4 10  1  0  0  0
  5  6  1  0  0  0
  5 10  2  0  0  0
 15 16  1  0  0  0
 16 17  1  0  0  0
 16 20  1  0  0  0
 17 22  1  0  0  0
 17 18  1  0  0  0
 22 23  1  0  0  0
 23 24  1  0  0  0
 24 25  1  0  0  0
 25 26  1  0  0  0
 26 27  1  0  0  0
 18 19  1  0  0  0
 19 20  1  0  0  0
 19  1  1  0  0  0
  1 10  1  0  0  0
  7  8  1  0  0  0
  7 11  2  0  0  0
 15 21  1  0  0  0
  6 12  1  0  0  0
  8 13  1  0  0  0
  8 14  1  0  0  0
M  END
> <minimizedAffinity>
-9.49576

$$$$
