4QD6_30T_A_701


 39 43  0  0  0  0  0  0  0  0999 V2000
    4.3857   24.2564   20.4650 C   0  0  0  0  0  0  0  0  0  0  0  0
    4.9228   25.1675   19.5723 C   0  0  0  0  0  0  0  0  0  0  0  0
    4.2199   26.3399   19.2777 C   0  0  0  0  0  0  0  0  0  0  0  0
    2.9753   26.5661   19.9145 C   0  0  0  0  0  0  0  0  0  0  0  0
    2.4733   25.6683   20.7742 N   0  0  0  0  0  0  0  0  0  0  0  0
    3.1468   24.5333   21.0395 C   0  0  0  0  0  0  0  0  0  0  0  0
    6.3511   24.8183   18.9286 S   0  0  0  0  0  0  0  0  0  0  0  0
    7.1582   24.2025   19.9433 O   0  0  0  0  0  0  0  0  0  0  0  0
    7.0020   25.9925   18.3845 O   0  0  0  0  0  0  0  0  0  0  0  0
    6.2779   23.8164   17.6540 C   0  0  0  0  0  0  0  0  0  0  0  0
    5.1031   23.6396   16.9136 C   0  0  0  0  0  0  0  0  0  0  0  0
    5.0953   22.7632   15.8316 C   0  0  0  0  0  0  0  0  0  0  0  0
    6.2421   22.0423   15.4795 C   0  0  0  0  0  0  0  0  0  0  0  0
    7.4203   22.1972   16.2106 C   0  0  0  0  0  0  0  0  0  0  0  0
    7.4218   23.0846   17.2890 C   0  0  0  0  0  0  0  0  0  0  0  0
    2.1869   27.6507   19.7210 N   0  0  0  0  0  0  0  0  0  0  0  0
    2.1508   28.0644   18.8283 H   0  0  0  0  0  0  0  0  0  0  0  0
    1.3896   28.2217   20.8026 C   0  0  0  0  0  0  0  0  0  0  0  0
    0.3116   29.1119   20.1984 C   0  0  0  0  0  0  0  0  0  0  0  0
   -0.5140   29.8018   21.2824 C   0  0  0  0  0  0  0  0  0  0  0  0
    0.3184   30.6136   22.2918 C   0  0  0  0  0  0  0  0  0  0  0  0
    1.5748   29.8797   22.7741 C   0  0  0  0  0  0  0  0  0  0  0  0
    2.2840   29.0876   21.6819 C   0  0  0  0  0  0  0  0  0  0  0  0
   -0.5038   30.8839   23.4365 O   0  0  0  0  0  0  0  0  0  0  0  0
   -0.7667   30.0470   23.8505 H   0  0  0  0  0  0  0  0  0  0  0  0
    2.6026   23.6869   21.9245 N   0  0  0  0  0  0  0  0  0  0  0  0
    3.1832   23.2429   22.5841 H   0  0  0  0  0  0  0  0  0  0  0  0
    1.2757   23.4275   21.9339 C   0  0  0  0  0  0  0  0  0  0  0  0
    0.2300   23.3420   21.0417 C   0  0  0  0  0  0  0  0  0  0  0  0
   -0.8232   22.9624   21.8668 C   0  0  0  0  0  0  0  0  0  0  0  0
   -0.4936   22.8071   23.1256 N   0  0  0  0  0  0  0  0  0  0  0  0
    0.8557   23.1211   23.1442 N   0  0  0  0  0  0  0  0  0  0  0  0
   -1.0670   22.5330   23.8775 H   0  0  0  0  0  0  0  0  0  0  0  0
   -2.2395   22.6681   21.6994 C   0  0  0  0  0  0  0  0  0  0  0  0
   -2.7098   21.5069   22.2858 C   0  0  0  0  0  0  0  0  0  0  0  0
   -4.0519   21.2170   22.0957 C   0  0  0  0  0  0  0  0  0  0  0  0
   -4.9136   22.0826   21.3826 C   0  0  0  0  0  0  0  0  0  0  0  0
   -4.4087   23.2536   20.8356 C   0  0  0  0  0  0  0  0  0  0  0  0
   -3.0394   23.5563   20.9850 C   0  0  0  0  0  0  0  0  0  0  0  0
 32 31  1  0  0  0
 32 28  2  0  0  0
 31 30  1  0  0  0
 35 36  2  0  0  0
 35 34  1  0  0  0
 12 13  2  0  0  0
 12 11  1  0  0  0
 13 14  1  0  0  0
 36 37  1  0  0  0
 28 26  1  0  0  0
 28 29  1  0  0  0
 26  6  1  0  0  0
 30 34  1  0  0  0
 30 29  2  0  0  0
 34 39  2  0  0  0
 11 10  2  0  0  0
 14 15  2  0  0  0
 37 38  2  0  0  0
  6  1  2  0  0  0
  6  5  1  0  0  0
  1  2  1  0  0  0
 10 15  1  0  0  0
 10  7  1  0  0  0
 39 38  1  0  0  0
  5  4  2  0  0  0
  2  7  1  0  0  0
  2  3  2  0  0  0
  9  7  2  0  0  0
  7  8  2  0  0  0
  4  3  1  0  0  0
  4 16  1  0  0  0
 18 16  1  0  0  0
 18 19  1  0  0  0
 18 23  1  0  0  0
 20 19  1  0  0  0
 20 21  1  0  0  0
 23 22  1  0  0  0
 22 21  1  0  0  0
 24 21  1  0  0  0
 16 17  1  0  0  0
 26 27  1  0  0  0
 31 33  1  0  0  0
 24 25  1  0  0  0
M  END
> <minimizedAffinity>
-8.66816

$$$$
4QD6_30T_A_701


 39 43  0  0  0  0  0  0  0  0999 V2000
    4.8658   24.5145   20.4304 C   0  0  0  0  0  0  0  0  0  0  0  0
    5.3824   25.5352   19.6514 C   0  0  0  0  0  0  0  0  0  0  0  0
    4.5864   26.6460   19.3548 C   0  0  0  0  0  0  0  0  0  0  0  0
    3.2695   26.6981   19.8733 C   0  0  0  0  0  0  0  0  0  0  0  0
    2.7893   25.6965   20.6238 N   0  0  0  0  0  0  0  0  0  0  0  0
    3.5550   24.6218   20.8905 C   0  0  0  0  0  0  0  0  0  0  0  0
    6.8952   25.3805   19.1378 S   0  0  0  0  0  0  0  0  0  0  0  0
    7.0408   26.1590   17.9408 O   0  0  0  0  0  0  0  0  0  0  0  0
    7.2501   23.9952   18.9065 O   0  0  0  0  0  0  0  0  0  0  0  0
    8.0130   25.8712   20.2073 C   0  0  0  0  0  0  0  0  0  0  0  0
    9.3178   25.3642   20.2047 C   0  0  0  0  0  0  0  0  0  0  0  0
   10.2355   25.8174   21.1487 C   0  0  0  0  0  0  0  0  0  0  0  0
    9.8702   26.7635   22.1130 C   0  0  0  0  0  0  0  0  0  0  0  0
    8.5719   27.2742   22.1385 C   0  0  0  0  0  0  0  0  0  0  0  0
    7.6602   26.8205   21.1827 C   0  0  0  0  0  0  0  0  0  0  0  0
    2.3890   27.7060   19.6633 N   0  0  0  0  0  0  0  0  0  0  0  0
    2.3082   28.0925   18.7614 H   0  0  0  0  0  0  0  0  0  0  0  0
    1.5567   28.2338   20.7406 C   0  0  0  0  0  0  0  0  0  0  0  0
    0.4625   29.1017   20.1331 C   0  0  0  0  0  0  0  0  0  0  0  0
   -0.4018   29.7473   21.2144 C   0  0  0  0  0  0  0  0  0  0  0  0
    0.3887   30.5659   22.2517 C   0  0  0  0  0  0  0  0  0  0  0  0
    1.6585   29.8617   22.7430 C   0  0  0  0  0  0  0  0  0  0  0  0
    2.4096   29.1106   21.6498 C   0  0  0  0  0  0  0  0  0  0  0  0
   -0.4603   30.7912   23.3864 O   0  0  0  0  0  0  0  0  0  0  0  0
   -0.7047   29.9397   23.7815 H   0  0  0  0  0  0  0  0  0  0  0  0
    3.0250   23.6650   21.6648 N   0  0  0  0  0  0  0  0  0  0  0  0
    3.6224   23.0988   22.2050 H   0  0  0  0  0  0  0  0  0  0  0  0
    1.6902   23.4581   21.7223 C   0  0  0  0  0  0  0  0  0  0  0  0
    0.6188   23.3574   20.8626 C   0  0  0  0  0  0  0  0  0  0  0  0
   -0.4256   23.0710   21.7352 C   0  0  0  0  0  0  0  0  0  0  0  0
   -0.0689   22.9819   22.9930 N   0  0  0  0  0  0  0  0  0  0  0  0
    1.2911   23.2442   22.9593 N   0  0  0  0  0  0  0  0  0  0  0  0
   -0.6320   22.7776   23.7743 H   0  0  0  0  0  0  0  0  0  0  0  0
   -1.8557   22.8216   21.6207 C   0  0  0  0  0  0  0  0  0  0  0  0
   -2.3929   21.8670   22.4654 C   0  0  0  0  0  0  0  0  0  0  0  0
   -3.7486   21.6123   22.3291 C   0  0  0  0  0  0  0  0  0  0  0  0
   -4.5576   22.3218   21.4111 C   0  0  0  0  0  0  0  0  0  0  0  0
   -3.9854   23.2937   20.6029 C   0  0  0  0  0  0  0  0  0  0  0  0
   -2.6017   23.5493   20.6970 C   0  0  0  0  0  0  0  0  0  0  0  0
 32 31  1  0  0  0
 32 28  2  0  0  0
 31 30  1  0  0  0
 35 36  2  0  0  0
 35 34  1  0  0  0
 12 13  2  0  0  0
 12 11  1  0  0  0
 13 14  1  0  0  0
 36 37  1  0  0  0
 28 26  1  0  0  0
 28 29  1  0  0  0
 26  6  1  0  0  0
 30 34  1  0  0  0
 30 29  2  0  0  0
 34 39  2  0  0  0
 11 10  2  0  0  0
 14 15  2  0  0  0
 37 38  2  0  0  0
  6  1  2  0  0  0
  6  5  1  0  0  0
  1  2  1  0  0  0
 10 15  1  0  0  0
 10  7  1  0  0  0
 39 38  1  0  0  0
  5  4  2  0  0  0
  2  7  1  0  0  0
  2  3  2  0  0  0
  9  7  2  0  0  0
  7  8  2  0  0  0
  4  3  1  0  0  0
  4 16  1  0  0  0
 18 16  1  0  0  0
 18 19  1  0  0  0
 18 23  1  0  0  0
 20 19  1  0  0  0
 20 21  1  0  0  0
 23 22  1  0  0  0
 22 21  1  0  0  0
 24 21  1  0  0  0
 16 17  1  0  0  0
 26 27  1  0  0  0
 31 33  1  0  0  0
 24 25  1  0  0  0
M  END
> <minimizedAffinity>
-8.15138

$$$$
4QD6_30T_A_701


 39 43  0  0  0  0  0  0  0  0999 V2000
    4.4989   24.5596   20.6530 C   0  0  0  0  0  0  0  0  0  0  0  0
    5.1315   24.7076   19.4310 C   0  0  0  0  0  0  0  0  0  0  0  0
    4.4470   24.3794   18.2566 C   0  0  0  0  0  0  0  0  0  0  0  0
    3.1136   23.9119   18.3533 C   0  0  0  0  0  0  0  0  0  0  0  0
    2.5217   23.7743   19.5483 N   0  0  0  0  0  0  0  0  0  0  0  0
    3.1927   24.0750   20.6759 C   0  0  0  0  0  0  0  0  0  0  0  0
    6.6355   25.2681   19.4398 S   0  0  0  0  0  0  0  0  0  0  0  0
    6.9969   25.5944   18.0896 O   0  0  0  0  0  0  0  0  0  0  0  0
    7.5650   24.3169   20.0140 O   0  0  0  0  0  0  0  0  0  0  0  0
    6.8469   26.5880   20.3602 C   0  0  0  0  0  0  0  0  0  0  0  0
    5.9817   27.6865   20.2949 C   0  0  0  0  0  0  0  0  0  0  0  0
    6.2131   28.7956   21.1044 C   0  0  0  0  0  0  0  0  0  0  0  0
    7.3084   28.8370   21.9745 C   0  0  0  0  0  0  0  0  0  0  0  0
    8.1880   27.7563   22.0475 C   0  0  0  0  0  0  0  0  0  0  0  0
    7.9436   26.6445   21.2383 C   0  0  0  0  0  0  0  0  0  0  0  0
    2.3357   23.5536   17.3037 N   0  0  0  0  0  0  0  0  0  0  0  0
    2.5839   23.8515   16.3988 H   0  0  0  0  0  0  0  0  0  0  0  0
    1.1385   22.7368   17.4805 C   0  0  0  0  0  0  0  0  0  0  0  0
    1.1063   21.6735   16.3905 C   0  0  0  0  0  0  0  0  0  0  0  0
   -0.1634   20.8287   16.4730 C   0  0  0  0  0  0  0  0  0  0  0  0
   -1.4695   21.6435   16.4364 C   0  0  0  0  0  0  0  0  0  0  0  0
   -1.4355   22.8881   17.3307 C   0  0  0  0  0  0  0  0  0  0  0  0
   -0.0964   23.6163   17.3237 C   0  0  0  0  0  0  0  0  0  0  0  0
   -2.5372   20.7998   16.8917 O   0  0  0  0  0  0  0  0  0  0  0  0
   -2.3656   20.5263   17.8064 H   0  0  0  0  0  0  0  0  0  0  0  0
    2.5381   23.9373   21.8372 N   0  0  0  0  0  0  0  0  0  0  0  0
    3.0235   24.0798   22.6818 H   0  0  0  0  0  0  0  0  0  0  0  0
    1.2275   23.6075   21.8774 C   0  0  0  0  0  0  0  0  0  0  0  0
    0.1344   23.6002   21.0396 C   0  0  0  0  0  0  0  0  0  0  0  0
   -0.8481   23.0440   21.8518 C   0  0  0  0  0  0  0  0  0  0  0  0
   -0.4355   22.7193   23.0525 N   0  0  0  0  0  0  0  0  0  0  0  0
    0.8965   23.1001   23.0471 N   0  0  0  0  0  0  0  0  0  0  0  0
   -0.9489   22.3045   23.7830 H   0  0  0  0  0  0  0  0  0  0  0  0
   -2.2569   22.7014   21.7170 C   0  0  0  0  0  0  0  0  0  0  0  0
   -3.0454   23.5746   20.9896 C   0  0  0  0  0  0  0  0  0  0  0  0
   -4.3915   23.2586   20.8921 C   0  0  0  0  0  0  0  0  0  0  0  0
   -4.9298   22.0813   21.4618 C   0  0  0  0  0  0  0  0  0  0  0  0
   -4.0987   21.2155   22.1581 C   0  0  0  0  0  0  0  0  0  0  0  0
   -2.7314   21.5299   22.3016 C   0  0  0  0  0  0  0  0  0  0  0  0
 32 31  1  0  0  0
 32 28  2  0  0  0
 31 30  1  0  0  0
 35 36  2  0  0  0
 35 34  1  0  0  0
 12 13  2  0  0  0
 12 11  1  0  0  0
 13 14  1  0  0  0
 36 37  1  0  0  0
 28 26  1  0  0  0
 28 29  1  0  0  0
 26  6  1  0  0  0
 30 34  1  0  0  0
 30 29  2  0  0  0
 34 39  2  0  0  0
 11 10  2  0  0  0
 14 15  2  0  0  0
 37 38  2  0  0  0
  6  1  2  0  0  0
  6  5  1  0  0  0
  1  2  1  0  0  0
 10 15  1  0  0  0
 10  7  1  0  0  0
 39 38  1  0  0  0
  5  4  2  0  0  0
  2  7  1  0  0  0
  2  3  2  0  0  0
  9  7  2  0  0  0
  7  8  2  0  0  0
  4  3  1  0  0  0
  4 16  1  0  0  0
 18 16  1  0  0  0
 18 19  1  0  0  0
 18 23  1  0  0  0
 20 19  1  0  0  0
 20 21  1  0  0  0
 23 22  1  0  0  0
 22 21  1  0  0  0
 24 21  1  0  0  0
 16 17  1  0  0  0
 26 27  1  0  0  0
 31 33  1  0  0  0
 24 25  1  0  0  0
M  END
> <minimizedAffinity>
-8.12792

$$$$
4QD6_30T_A_701


 39 43  0  0  0  0  0  0  0  0999 V2000
    4.3907   24.2800   20.4792 C   0  0  0  0  0  0  0  0  0  0  0  0
    4.9356   25.2225   19.6247 C   0  0  0  0  0  0  0  0  0  0  0  0
    4.2539   26.4221   19.3972 C   0  0  0  0  0  0  0  0  0  0  0  0
    3.0226   26.6423   20.0614 C   0  0  0  0  0  0  0  0  0  0  0  0
    2.5126   25.7139   20.8831 N   0  0  0  0  0  0  0  0  0  0  0  0
    3.1653   24.5537   21.0835 C   0  0  0  0  0  0  0  0  0  0  0  0
    6.3478   24.8761   18.9452 S   0  0  0  0  0  0  0  0  0  0  0  0
    7.1835   24.2674   19.9408 O   0  0  0  0  0  0  0  0  0  0  0  0
    6.9797   26.0505   18.3796 O   0  0  0  0  0  0  0  0  0  0  0  0
    6.2451   23.8688   17.6768 C   0  0  0  0  0  0  0  0  0  0  0  0
    5.0686   23.7294   16.9312 C   0  0  0  0  0  0  0  0  0  0  0  0
    5.0348   22.8464   15.8550 C   0  0  0  0  0  0  0  0  0  0  0  0
    6.1565   22.0822   15.5140 C   0  0  0  0  0  0  0  0  0  0  0  0
    7.3358   22.1995   16.2505 C   0  0  0  0  0  0  0  0  0  0  0  0
    7.3637   23.0937   17.3230 C   0  0  0  0  0  0  0  0  0  0  0  0
    2.2550   27.7511   19.9318 N   0  0  0  0  0  0  0  0  0  0  0  0
    2.6914   28.6261   19.8180 H   0  0  0  0  0  0  0  0  0  0  0  0
    0.7968   27.6811   19.9567 C   0  0  0  0  0  0  0  0  0  0  0  0
    0.3376   26.6716   18.9129 C   0  0  0  0  0  0  0  0  0  0  0  0
   -1.1863   26.6045   18.8348 C   0  0  0  0  0  0  0  0  0  0  0  0
   -1.8672   27.9607   18.5741 C   0  0  0  0  0  0  0  0  0  0  0  0
   -1.2910   29.1031   19.4183 C   0  0  0  0  0  0  0  0  0  0  0  0
    0.2229   29.0435   19.5856 C   0  0  0  0  0  0  0  0  0  0  0  0
   -3.2601   27.8320   18.8945 O   0  0  0  0  0  0  0  0  0  0  0  0
   -3.3566   27.6099   19.8337 H   0  0  0  0  0  0  0  0  0  0  0  0
    2.6146   23.6762   21.9335 N   0  0  0  0  0  0  0  0  0  0  0  0
    3.1913   23.2037   22.5764 H   0  0  0  0  0  0  0  0  0  0  0  0
    1.2863   23.4238   21.9299 C   0  0  0  0  0  0  0  0  0  0  0  0
    0.2481   23.3478   21.0280 C   0  0  0  0  0  0  0  0  0  0  0  0
   -0.8143   22.9700   21.8420 C   0  0  0  0  0  0  0  0  0  0  0  0
   -0.4967   22.8070   23.1029 N   0  0  0  0  0  0  0  0  0  0  0  0
    0.8539   23.1139   23.1349 N   0  0  0  0  0  0  0  0  0  0  0  0
   -1.0782   22.5325   23.8484 H   0  0  0  0  0  0  0  0  0  0  0  0
   -2.2305   22.6839   21.6607 C   0  0  0  0  0  0  0  0  0  0  0  0
   -2.9541   23.5747   20.8885 C   0  0  0  0  0  0  0  0  0  0  0  0
   -4.3079   23.3133   20.7463 C   0  0  0  0  0  0  0  0  0  0  0  0
   -4.9162   22.1709   21.3167 C   0  0  0  0  0  0  0  0  0  0  0  0
   -4.1487   21.2850   22.0592 C   0  0  0  0  0  0  0  0  0  0  0  0
   -2.7754   21.5449   22.2481 C   0  0  0  0  0  0  0  0  0  0  0  0
 32 31  1  0  0  0
 32 28  2  0  0  0
 31 30  1  0  0  0
 35 36  2  0  0  0
 35 34  1  0  0  0
 12 13  2  0  0  0
 12 11  1  0  0  0
 13 14  1  0  0  0
 36 37  1  0  0  0
 28 26  1  0  0  0
 28 29  1  0  0  0
 26  6  1  0  0  0
 30 34  1  0  0  0
 30 29  2  0  0  0
 34 39  2  0  0  0
 11 10  2  0  0  0
 14 15  2  0  0  0
 37 38  2  0  0  0
  6  1  2  0  0  0
  6  5  1  0  0  0
  1  2  1  0  0  0
 10 15  1  0  0  0
 10  7  1  0  0  0
 39 38  1  0  0  0
  5  4  2  0  0  0
  2  7  1  0  0  0
  2  3  2  0  0  0
  9  7  2  0  0  0
  7  8  2  0  0  0
  4  3  1  0  0  0
  4 16  1  0  0  0
 18 16  1  0  0  0
 18 19  1  0  0  0
 18 23  1  0  0  0
 20 19  1  0  0  0
 20 21  1  0  0  0
 23 22  1  0  0  0
 22 21  1  0  0  0
 24 21  1  0  0  0
 16 17  1  0  0  0
 26 27  1  0  0  0
 31 33  1  0  0  0
 24 25  1  0  0  0
M  END
> <minimizedAffinity>
-8.10071

$$$$
4QD6_30T_A_701


 39 43  0  0  0  0  0  0  0  0999 V2000
    2.7943   25.6169   20.4174 C   0  0  0  0  0  0  0  0  0  0  0  0
    3.3952   26.7179   19.8325 C   0  0  0  0  0  0  0  0  0  0  0  0
    4.7887   26.7684   19.7287 C   0  0  0  0  0  0  0  0  0  0  0  0
    5.5482   25.6782   20.2193 C   0  0  0  0  0  0  0  0  0  0  0  0
    4.9446   24.6229   20.7842 N   0  0  0  0  0  0  0  0  0  0  0  0
    3.6036   24.5891   20.8972 C   0  0  0  0  0  0  0  0  0  0  0  0
    2.4345   27.8838   19.2903 S   0  0  0  0  0  0  0  0  0  0  0  0
    2.8270   28.1946   17.9452 O   0  0  0  0  0  0  0  0  0  0  0  0
    2.4816   29.0609   20.1334 O   0  0  0  0  0  0  0  0  0  0  0  0
    0.8581   27.4980   19.2879 C   0  0  0  0  0  0  0  0  0  0  0  0
    0.2811   26.7336   18.2670 C   0  0  0  0  0  0  0  0  0  0  0  0
   -1.0784   26.4359   18.3127 C   0  0  0  0  0  0  0  0  0  0  0  0
   -1.8836   26.9020   19.3581 C   0  0  0  0  0  0  0  0  0  0  0  0
   -1.3297   27.6734   20.3803 C   0  0  0  0  0  0  0  0  0  0  0  0
    0.0363   27.9602   20.3311 C   0  0  0  0  0  0  0  0  0  0  0  0
    6.9000   25.5946   20.1896 N   0  0  0  0  0  0  0  0  0  0  0  0
    7.4348   26.3433   20.5397 H   0  0  0  0  0  0  0  0  0  0  0  0
    7.5839   24.4221   19.6517 C   0  0  0  0  0  0  0  0  0  0  0  0
    9.0864   24.6656   19.7033 C   0  0  0  0  0  0  0  0  0  0  0  0
    9.8610   23.5039   19.0843 C   0  0  0  0  0  0  0  0  0  0  0  0
    9.4439   23.1618   17.6421 C   0  0  0  0  0  0  0  0  0  0  0  0
    7.9249   23.1364   17.4378 C   0  0  0  0  0  0  0  0  0  0  0  0
    7.1824   24.2323   18.1936 C   0  0  0  0  0  0  0  0  0  0  0  0
    9.9555   21.8593   17.3243 O   0  0  0  0  0  0  0  0  0  0  0  0
    9.5674   21.2041   17.9251 H   0  0  0  0  0  0  0  0  0  0  0  0
    3.0597   23.4967   21.4510 N   0  0  0  0  0  0  0  0  0  0  0  0
    3.6503   22.7917   21.8024 H   0  0  0  0  0  0  0  0  0  0  0  0
    1.7198   23.3388   21.5390 C   0  0  0  0  0  0  0  0  0  0  0  0
    0.6281   23.2608   20.7029 C   0  0  0  0  0  0  0  0  0  0  0  0
   -0.4076   23.0280   21.6013 C   0  0  0  0  0  0  0  0  0  0  0  0
   -0.0285   22.9493   22.8533 N   0  0  0  0  0  0  0  0  0  0  0  0
    1.3389   23.1620   22.7876 N   0  0  0  0  0  0  0  0  0  0  0  0
   -0.5824   22.7797   23.6493 H   0  0  0  0  0  0  0  0  0  0  0  0
   -1.8477   22.8280   21.5201 C   0  0  0  0  0  0  0  0  0  0  0  0
   -2.5437   23.6449   20.6474 C   0  0  0  0  0  0  0  0  0  0  0  0
   -3.9179   23.4703   20.5987 C   0  0  0  0  0  0  0  0  0  0  0  0
   -4.5765   22.4778   21.3614 C   0  0  0  0  0  0  0  0  0  0  0  0
   -3.8377   21.6580   22.2024 C   0  0  0  0  0  0  0  0  0  0  0  0
   -2.4420   21.8366   22.2968 C   0  0  0  0  0  0  0  0  0  0  0  0
 32 31  1  0  0  0
 32 28  2  0  0  0
 31 30  1  0  0  0
 35 36  2  0  0  0
 35 34  1  0  0  0
 12 13  2  0  0  0
 12 11  1  0  0  0
 13 14  1  0  0  0
 36 37  1  0  0  0
 28 26  1  0  0  0
 28 29  1  0  0  0
 26  6  1  0  0  0
 30 34  1  0  0  0
 30 29  2  0  0  0
 34 39  2  0  0  0
 11 10  2  0  0  0
 14 15  2  0  0  0
 37 38  2  0  0  0
  6  1  2  0  0  0
  6  5  1  0  0  0
  1  2  1  0  0  0
 10 15  1  0  0  0
 10  7  1  0  0  0
 39 38  1  0  0  0
  5  4  2  0  0  0
  2  7  1  0  0  0
  2  3  2  0  0  0
  9  7  2  0  0  0
  7  8  2  0  0  0
  4  3  1  0  0  0
  4 16  1  0  0  0
 18 16  1  0  0  0
 18 19  1  0  0  0
 18 23  1  0  0  0
 20 19  1  0  0  0
 20 21  1  0  0  0
 23 22  1  0  0  0
 22 21  1  0  0  0
 24 21  1  0  0  0
 16 17  1  0  0  0
 26 27  1  0  0  0
 31 33  1  0  0  0
 24 25  1  0  0  0
M  END
> <minimizedAffinity>
-8.06921

$$$$
4QD6_30T_A_701


 39 43  0  0  0  0  0  0  0  0999 V2000
    4.0508   24.0614   19.5872 C   0  0  0  0  0  0  0  0  0  0  0  0
    4.5746   24.9128   18.6299 C   0  0  0  0  0  0  0  0  0  0  0  0
    4.3352   26.2872   18.7251 C   0  0  0  0  0  0  0  0  0  0  0  0
    3.5671   26.7711   19.8122 C   0  0  0  0  0  0  0  0  0  0  0  0
    3.0678   25.9274   20.7265 N   0  0  0  0  0  0  0  0  0  0  0  0
    3.2870   24.6035   20.6188 C   0  0  0  0  0  0  0  0  0  0  0  0
    5.4495   24.2562   17.4553 S   0  0  0  0  0  0  0  0  0  0  0  0
    5.4362   25.1537   16.3354 O   0  0  0  0  0  0  0  0  0  0  0  0
    4.9578   22.9461   17.0807 O   0  0  0  0  0  0  0  0  0  0  0  0
    6.9939   23.9656   17.8608 C   0  0  0  0  0  0  0  0  0  0  0  0
    7.5565   24.4554   19.0453 C   0  0  0  0  0  0  0  0  0  0  0  0
    8.8889   24.1796   19.3413 C   0  0  0  0  0  0  0  0  0  0  0  0
    9.6821   23.4309   18.4645 C   0  0  0  0  0  0  0  0  0  0  0  0
    9.1428   22.9418   17.2742 C   0  0  0  0  0  0  0  0  0  0  0  0
    7.8034   23.2158   16.9892 C   0  0  0  0  0  0  0  0  0  0  0  0
    3.2533   28.0714   20.0266 N   0  0  0  0  0  0  0  0  0  0  0  0
    3.6876   28.7661   19.4806 H   0  0  0  0  0  0  0  0  0  0  0  0
    2.2875   28.4688   21.0469 C   0  0  0  0  0  0  0  0  0  0  0  0
    1.0210   28.9586   20.3573 C   0  0  0  0  0  0  0  0  0  0  0  0
   -0.0063   29.4614   21.3696 C   0  0  0  0  0  0  0  0  0  0  0  0
    0.5208   30.5554   22.3163 C   0  0  0  0  0  0  0  0  0  0  0  0
    1.9174   30.2570   22.8733 C   0  0  0  0  0  0  0  0  0  0  0  0
    2.8629   29.6224   21.8601 C   0  0  0  0  0  0  0  0  0  0  0  0
   -0.3844   30.6636   23.4245 O   0  0  0  0  0  0  0  0  0  0  0  0
   -0.4098   29.8212   23.9047 H   0  0  0  0  0  0  0  0  0  0  0  0
    2.7801   23.8154   21.5768 N   0  0  0  0  0  0  0  0  0  0  0  0
    3.3864   23.4205   22.2444 H   0  0  0  0  0  0  0  0  0  0  0  0
    1.4565   23.5494   21.6491 C   0  0  0  0  0  0  0  0  0  0  0  0
    0.3608   23.5064   20.8156 C   0  0  0  0  0  0  0  0  0  0  0  0
   -0.6419   23.0781   21.6788 C   0  0  0  0  0  0  0  0  0  0  0  0
   -0.2394   22.8572   22.9063 N   0  0  0  0  0  0  0  0  0  0  0  0
    1.1080   23.1765   22.8635 N   0  0  0  0  0  0  0  0  0  0  0  0
   -0.7677   22.5405   23.6743 H   0  0  0  0  0  0  0  0  0  0  0  0
   -2.0650   22.7861   21.5782 C   0  0  0  0  0  0  0  0  0  0  0  0
   -2.8232   23.6358   20.7930 C   0  0  0  0  0  0  0  0  0  0  0  0
   -4.1820   23.3705   20.7273 C   0  0  0  0  0  0  0  0  0  0  0  0
   -4.7636   22.2619   21.3856 C   0  0  0  0  0  0  0  0  0  0  0  0
   -3.9628   21.4154   22.1390 C   0  0  0  0  0  0  0  0  0  0  0  0
   -2.5824   21.6817   22.2506 C   0  0  0  0  0  0  0  0  0  0  0  0
 32 31  1  0  0  0
 32 28  2  0  0  0
 31 30  1  0  0  0
 35 36  2  0  0  0
 35 34  1  0  0  0
 12 13  2  0  0  0
 12 11  1  0  0  0
 13 14  1  0  0  0
 36 37  1  0  0  0
 28 26  1  0  0  0
 28 29  1  0  0  0
 26  6  1  0  0  0
 30 34  1  0  0  0
 30 29  2  0  0  0
 34 39  2  0  0  0
 11 10  2  0  0  0
 14 15  2  0  0  0
 37 38  2  0  0  0
  6  1  2  0  0  0
  6  5  1  0  0  0
  1  2  1  0  0  0
 10 15  1  0  0  0
 10  7  1  0  0  0
 39 38  1  0  0  0
  5  4  2  0  0  0
  2  7  1  0  0  0
  2  3  2  0  0  0
  9  7  2  0  0  0
  7  8  2  0  0  0
  4  3  1  0  0  0
  4 16  1  0  0  0
 18 16  1  0  0  0
 18 19  1  0  0  0
 18 23  1  0  0  0
 20 19  1  0  0  0
 20 21  1  0  0  0
 23 22  1  0  0  0
 22 21  1  0  0  0
 24 21  1  0  0  0
 16 17  1  0  0  0
 26 27  1  0  0  0
 31 33  1  0  0  0
 24 25  1  0  0  0
M  END
> <minimizedAffinity>
-8.01733

$$$$
4QD6_30T_A_701


 39 43  0  0  0  0  0  0  0  0999 V2000
    3.2333   23.5720   17.5820 C   0  0  0  0  0  0  0  0  0  0  0  0
    4.5071   24.0274   17.8743 C   0  0  0  0  0  0  0  0  0  0  0  0
    5.5827   23.6248   17.0765 C   0  0  0  0  0  0  0  0  0  0  0  0
    5.3324   22.7652   15.9791 C   0  0  0  0  0  0  0  0  0  0  0  0
    4.0903   22.3348   15.7163 N   0  0  0  0  0  0  0  0  0  0  0  0
    3.0622   22.7119   16.4992 C   0  0  0  0  0  0  0  0  0  0  0  0
    4.6695   25.0166   19.1278 S   0  0  0  0  0  0  0  0  0  0  0  0
    4.7933   26.3553   18.6254 O   0  0  0  0  0  0  0  0  0  0  0  0
    5.8048   24.6618   19.9547 O   0  0  0  0  0  0  0  0  0  0  0  0
    3.4281   24.9740   20.1724 C   0  0  0  0  0  0  0  0  0  0  0  0
    2.5202   26.0328   20.2920 C   0  0  0  0  0  0  0  0  0  0  0  0
    1.4756   25.9452   21.2085 C   0  0  0  0  0  0  0  0  0  0  0  0
    1.3261   24.8189   22.0257 C   0  0  0  0  0  0  0  0  0  0  0  0
    2.2260   23.7571   21.9287 C   0  0  0  0  0  0  0  0  0  0  0  0
    3.2658   23.8495   21.0008 C   0  0  0  0  0  0  0  0  0  0  0  0
    6.2753   22.2931   15.1286 N   0  0  0  0  0  0  0  0  0  0  0  0
    6.0149   22.0498   14.2108 H   0  0  0  0  0  0  0  0  0  0  0  0
    7.6678   22.1358   15.5384 C   0  0  0  0  0  0  0  0  0  0  0  0
    8.5621   22.3467   14.3238 C   0  0  0  0  0  0  0  0  0  0  0  0
   10.0329   22.1219   14.6687 C   0  0  0  0  0  0  0  0  0  0  0  0
   10.3331   20.7486   15.2972 C   0  0  0  0  0  0  0  0  0  0  0  0
    9.3237   20.3393   16.3757 C   0  0  0  0  0  0  0  0  0  0  0  0
    7.8835   20.7153   16.0472 C   0  0  0  0  0  0  0  0  0  0  0  0
   11.6316   20.8080   15.9052 O   0  0  0  0  0  0  0  0  0  0  0  0
   11.6299   21.4784   16.6063 H   0  0  0  0  0  0  0  0  0  0  0  0
    1.8420   22.2657   16.1706 N   0  0  0  0  0  0  0  0  0  0  0  0
    1.6658   21.9891   15.2424 H   0  0  0  0  0  0  0  0  0  0  0  0
    0.8471   22.1860   17.0826 C   0  0  0  0  0  0  0  0  0  0  0  0
    0.4521   22.8136   18.2432 C   0  0  0  0  0  0  0  0  0  0  0  0
   -0.7387   22.1572   18.5355 C   0  0  0  0  0  0  0  0  0  0  0  0
   -1.0753   21.2370   17.6652 N   0  0  0  0  0  0  0  0  0  0  0  0
   -0.0369   21.2682   16.7487 N   0  0  0  0  0  0  0  0  0  0  0  0
   -1.8743   20.6618   17.6632 H   0  0  0  0  0  0  0  0  0  0  0  0
   -1.7534   22.2297   19.5773 C   0  0  0  0  0  0  0  0  0  0  0  0
   -1.6105   23.2320   20.5199 C   0  0  0  0  0  0  0  0  0  0  0  0
   -2.5624   23.2754   21.5266 C   0  0  0  0  0  0  0  0  0  0  0  0
   -3.6537   22.3766   21.5677 C   0  0  0  0  0  0  0  0  0  0  0  0
   -3.7776   21.4044   20.5854 C   0  0  0  0  0  0  0  0  0  0  0  0
   -2.8045   21.3162   19.5685 C   0  0  0  0  0  0  0  0  0  0  0  0
 32 31  1  0  0  0
 32 28  2  0  0  0
 31 30  1  0  0  0
 35 36  2  0  0  0
 35 34  1  0  0  0
 12 13  2  0  0  0
 12 11  1  0  0  0
 13 14  1  0  0  0
 36 37  1  0  0  0
 28 26  1  0  0  0
 28 29  1  0  0  0
 26  6  1  0  0  0
 30 34  1  0  0  0
 30 29  2  0  0  0
 34 39  2  0  0  0
 11 10  2  0  0  0
 14 15  2  0  0  0
 37 38  2  0  0  0
  6  1  2  0  0  0
  6  5  1  0  0  0
  1  2  1  0  0  0
 10 15  1  0  0  0
 10  7  1  0  0  0
 39 38  1  0  0  0
  5  4  2  0  0  0
  2  7  1  0  0  0
  2  3  2  0  0  0
  9  7  2  0  0  0
  7  8  2  0  0  0
  4  3  1  0  0  0
  4 16  1  0  0  0
 18 16  1  0  0  0
 18 19  1  0  0  0
 18 23  1  0  0  0
 20 19  1  0  0  0
 20 21  1  0  0  0
 23 22  1  0  0  0
 22 21  1  0  0  0
 24 21  1  0  0  0
 16 17  1  0  0  0
 26 27  1  0  0  0
 31 33  1  0  0  0
 24 25  1  0  0  0
M  END
> <minimizedAffinity>
-7.86569

$$$$
4QD6_30T_A_701


 39 43  0  0  0  0  0  0  0  0999 V2000
    3.4042   26.2803   20.5312 C   0  0  0  0  0  0  0  0  0  0  0  0
    3.8548   27.2814   19.6885 C   0  0  0  0  0  0  0  0  0  0  0  0
    4.6721   26.9520   18.6026 C   0  0  0  0  0  0  0  0  0  0  0  0
    5.0077   25.5925   18.3905 C   0  0  0  0  0  0  0  0  0  0  0  0
    4.5614   24.6398   19.2214 N   0  0  0  0  0  0  0  0  0  0  0  0
    3.7899   24.9661   20.2752 C   0  0  0  0  0  0  0  0  0  0  0  0
    3.3923   28.7841   20.0114 S   0  0  0  0  0  0  0  0  0  0  0  0
    1.9588   28.8304   19.9555 O   0  0  0  0  0  0  0  0  0  0  0  0
    3.9819   29.7409   19.0975 O   0  0  0  0  0  0  0  0  0  0  0  0
    3.8662   29.3267   21.4657 C   0  0  0  0  0  0  0  0  0  0  0  0
    5.2175   29.4700   21.8017 C   0  0  0  0  0  0  0  0  0  0  0  0
    5.5679   29.9358   23.0663 C   0  0  0  0  0  0  0  0  0  0  0  0
    4.5888   30.2502   24.0156 C   0  0  0  0  0  0  0  0  0  0  0  0
    3.2366   30.1052   23.7035 C   0  0  0  0  0  0  0  0  0  0  0  0
    2.8938   29.6455   22.4300 C   0  0  0  0  0  0  0  0  0  0  0  0
    5.7915   25.1311   17.3865 N   0  0  0  0  0  0  0  0  0  0  0  0
    5.7620   25.5790   16.5103 H   0  0  0  0  0  0  0  0  0  0  0  0
    6.6789   23.9864   17.5709 C   0  0  0  0  0  0  0  0  0  0  0  0
    8.1211   24.4741   17.5312 C   0  0  0  0  0  0  0  0  0  0  0  0
    9.1059   23.3120   17.6439 C   0  0  0  0  0  0  0  0  0  0  0  0
    8.9061   22.2083   16.5889 C   0  0  0  0  0  0  0  0  0  0  0  0
    7.4371   21.8219   16.3833 C   0  0  0  0  0  0  0  0  0  0  0  0
    6.4767   23.0050   16.4224 C   0  0  0  0  0  0  0  0  0  0  0  0
    9.6153   21.0390   17.0236 O   0  0  0  0  0  0  0  0  0  0  0  0
    9.2483   20.7336   17.8680 H   0  0  0  0  0  0  0  0  0  0  0  0
    3.3576   23.9657   21.0551 N   0  0  0  0  0  0  0  0  0  0  0  0
    4.0163   23.3921   21.5094 H   0  0  0  0  0  0  0  0  0  0  0  0
    2.0392   23.7248   21.2334 C   0  0  0  0  0  0  0  0  0  0  0  0
    0.8871   23.6563   20.4818 C   0  0  0  0  0  0  0  0  0  0  0  0
   -0.0575   23.2891   21.4342 C   0  0  0  0  0  0  0  0  0  0  0  0
    0.4278   23.1255   22.6405 N   0  0  0  0  0  0  0  0  0  0  0  0
    1.7727   23.4207   22.4871 N   0  0  0  0  0  0  0  0  0  0  0  0
   -0.0488   22.8573   23.4591 H   0  0  0  0  0  0  0  0  0  0  0  0
   -1.4875   23.0149   21.4486 C   0  0  0  0  0  0  0  0  0  0  0  0
   -1.9751   22.2961   22.5252 C   0  0  0  0  0  0  0  0  0  0  0  0
   -3.3316   22.0116   22.5163 C   0  0  0  0  0  0  0  0  0  0  0  0
   -4.1887   22.4707   21.4892 C   0  0  0  0  0  0  0  0  0  0  0  0
   -3.6650   23.2153   20.4420 C   0  0  0  0  0  0  0  0  0  0  0  0
   -2.2822   23.4903   20.4085 C   0  0  0  0  0  0  0  0  0  0  0  0
 32 31  1  0  0  0
 32 28  2  0  0  0
 31 30  1  0  0  0
 35 36  2  0  0  0
 35 34  1  0  0  0
 12 13  2  0  0  0
 12 11  1  0  0  0
 13 14  1  0  0  0
 36 37  1  0  0  0
 28 26  1  0  0  0
 28 29  1  0  0  0
 26  6  1  0  0  0
 30 34  1  0  0  0
 30 29  2  0  0  0
 34 39  2  0  0  0
 11 10  2  0  0  0
 14 15  2  0  0  0
 37 38  2  0  0  0
  6  1  2  0  0  0
  6  5  1  0  0  0
  1  2  1  0  0  0
 10 15  1  0  0  0
 10  7  1  0  0  0
 39 38  1  0  0  0
  5  4  2  0  0  0
  2  7  1  0  0  0
  2  3  2  0  0  0
  9  7  2  0  0  0
  7  8  2  0  0  0
  4  3  1  0  0  0
  4 16  1  0  0  0
 18 16  1  0  0  0
 18 19  1  0  0  0
 18 23  1  0  0  0
 20 19  1  0  0  0
 20 21  1  0  0  0
 23 22  1  0  0  0
 22 21  1  0  0  0
 24 21  1  0  0  0
 16 17  1  0  0  0
 26 27  1  0  0  0
 31 33  1  0  0  0
 24 25  1  0  0  0
M  END
> <minimizedAffinity>
-7.85916

$$$$
4QD6_30T_A_701


 39 43  0  0  0  0  0  0  0  0999 V2000
   -0.9606   26.7491   20.2763 C   0  0  0  0  0  0  0  0  0  0  0  0
   -1.1260   25.6913   19.3993 C   0  0  0  0  0  0  0  0  0  0  0  0
   -1.6126   25.9340   18.1110 C   0  0  0  0  0  0  0  0  0  0  0  0
   -1.9137   27.2662   17.7364 C   0  0  0  0  0  0  0  0  0  0  0  0
   -1.7478   28.2750   18.6035 N   0  0  0  0  0  0  0  0  0  0  0  0
   -1.2961   28.0320   19.8481 C   0  0  0  0  0  0  0  0  0  0  0  0
   -0.7303   24.2269   19.9238 S   0  0  0  0  0  0  0  0  0  0  0  0
    0.3331   24.3678   20.8774 O   0  0  0  0  0  0  0  0  0  0  0  0
   -0.3457   23.3480   18.8385 O   0  0  0  0  0  0  0  0  0  0  0  0
   -1.9498   23.4230   20.6313 C   0  0  0  0  0  0  0  0  0  0  0  0
   -3.2072   23.2989   20.0288 C   0  0  0  0  0  0  0  0  0  0  0  0
   -4.2196   22.6018   20.6831 C   0  0  0  0  0  0  0  0  0  0  0  0
   -4.0051   22.0339   21.9441 C   0  0  0  0  0  0  0  0  0  0  0  0
   -2.7618   22.1546   22.5658 C   0  0  0  0  0  0  0  0  0  0  0  0
   -1.7495   22.8480   21.8988 C   0  0  0  0  0  0  0  0  0  0  0  0
   -2.3951   27.6459   16.5283 N   0  0  0  0  0  0  0  0  0  0  0  0
   -1.9250   27.3581   15.7126 H   0  0  0  0  0  0  0  0  0  0  0  0
   -3.5933   28.4710   16.4054 C   0  0  0  0  0  0  0  0  0  0  0  0
   -4.8107   27.6184   16.7382 C   0  0  0  0  0  0  0  0  0  0  0  0
   -6.1080   28.4036   16.5559 C   0  0  0  0  0  0  0  0  0  0  0  0
   -6.2809   29.0247   15.1576 C   0  0  0  0  0  0  0  0  0  0  0  0
   -5.0103   29.7017   14.6312 C   0  0  0  0  0  0  0  0  0  0  0  0
   -3.7272   28.9495   14.9645 C   0  0  0  0  0  0  0  0  0  0  0  0
   -7.3136   30.0182   15.2329 O   0  0  0  0  0  0  0  0  0  0  0  0
   -7.0474   30.7150   15.8530 H   0  0  0  0  0  0  0  0  0  0  0  0
   -1.1306   29.0854   20.6598 N   0  0  0  0  0  0  0  0  0  0  0  0
   -1.8712   29.7238   20.7749 H   0  0  0  0  0  0  0  0  0  0  0  0
    0.0283   29.2930   21.3245 C   0  0  0  0  0  0  0  0  0  0  0  0
    1.3606   28.9622   21.2132 C   0  0  0  0  0  0  0  0  0  0  0  0
    1.9166   29.6356   22.2956 C   0  0  0  0  0  0  0  0  0  0  0  0
    1.0551   30.3251   23.0026 N   0  0  0  0  0  0  0  0  0  0  0  0
   -0.1504   30.0807   22.3651 N   0  0  0  0  0  0  0  0  0  0  0  0
    1.2240   30.8828   23.7961 H   0  0  0  0  0  0  0  0  0  0  0  0
    3.2468   29.7967   22.8657 C   0  0  0  0  0  0  0  0  0  0  0  0
    4.3154   29.7171   21.9909 C   0  0  0  0  0  0  0  0  0  0  0  0
    5.5799   29.8398   22.5453 C   0  0  0  0  0  0  0  0  0  0  0  0
    5.7747   30.0830   23.9249 C   0  0  0  0  0  0  0  0  0  0  0  0
    4.6746   30.1867   24.7642 C   0  0  0  0  0  0  0  0  0  0  0  0
    3.3778   30.0321   24.2320 C   0  0  0  0  0  0  0  0  0  0  0  0
 32 31  1  0  0  0
 32 28  2  0  0  0
 31 30  1  0  0  0
 35 36  2  0  0  0
 35 34  1  0  0  0
 12 13  2  0  0  0
 12 11  1  0  0  0
 13 14  1  0  0  0
 36 37  1  0  0  0
 28 26  1  0  0  0
 28 29  1  0  0  0
 26  6  1  0  0  0
 30 34  1  0  0  0
 30 29  2  0  0  0
 34 39  2  0  0  0
 11 10  2  0  0  0
 14 15  2  0  0  0
 37 38  2  0  0  0
  6  1  2  0  0  0
  6  5  1  0  0  0
  1  2  1  0  0  0
 10 15  1  0  0  0
 10  7  1  0  0  0
 39 38  1  0  0  0
  5  4  2  0  0  0
  2  7  1  0  0  0
  2  3  2  0  0  0
  9  7  2  0  0  0
  7  8  2  0  0  0
  4  3  1  0  0  0
  4 16  1  0  0  0
 18 16  1  0  0  0
 18 19  1  0  0  0
 18 23  1  0  0  0
 20 19  1  0  0  0
 20 21  1  0  0  0
 23 22  1  0  0  0
 22 21  1  0  0  0
 24 21  1  0  0  0
 16 17  1  0  0  0
 26 27  1  0  0  0
 31 33  1  0  0  0
 24 25  1  0  0  0
M  END
> <minimizedAffinity>
-7.54397

$$$$
4QD6_30T_A_701


 39 43  0  0  0  0  0  0  0  0999 V2000
    2.3114   25.9579   21.2077 C   0  0  0  0  0  0  0  0  0  0  0  0
    2.8462   26.8247   20.2707 C   0  0  0  0  0  0  0  0  0  0  0  0
    3.6775   26.3238   19.2641 C   0  0  0  0  0  0  0  0  0  0  0  0
    3.9405   24.9326   19.2274 C   0  0  0  0  0  0  0  0  0  0  0  0
    3.4133   24.1120   20.1470 N   0  0  0  0  0  0  0  0  0  0  0  0
    2.6283   24.6036   21.1240 C   0  0  0  0  0  0  0  0  0  0  0  0
    2.4613   28.3780   20.3955 S   0  0  0  0  0  0  0  0  0  0  0  0
    1.0643   28.4663   20.7127 O   0  0  0  0  0  0  0  0  0  0  0  0
    2.7696   29.1117   19.1851 O   0  0  0  0  0  0  0  0  0  0  0  0
    3.2967   29.1798   21.5327 C   0  0  0  0  0  0  0  0  0  0  0  0
    4.6771   29.3892   21.4322 C   0  0  0  0  0  0  0  0  0  0  0  0
    5.3449   30.0801   22.4400 C   0  0  0  0  0  0  0  0  0  0  0  0
    4.6594   30.5577   23.5628 C   0  0  0  0  0  0  0  0  0  0  0  0
    3.2851   30.3510   23.6864 C   0  0  0  0  0  0  0  0  0  0  0  0
    2.6217   29.6644   22.6670 C   0  0  0  0  0  0  0  0  0  0  0  0
    4.7282   24.3125   18.3161 N   0  0  0  0  0  0  0  0  0  0  0  0
    4.3092   23.7645   17.6137 H   0  0  0  0  0  0  0  0  0  0  0  0
    6.1826   24.4361   18.3495 C   0  0  0  0  0  0  0  0  0  0  0  0
    6.6051   24.8660   19.7481 C   0  0  0  0  0  0  0  0  0  0  0  0
    8.1141   25.0869   19.8314 C   0  0  0  0  0  0  0  0  0  0  0  0
    8.6660   26.0851   18.7970 C   0  0  0  0  0  0  0  0  0  0  0  0
    8.0976   25.8783   17.3885 C   0  0  0  0  0  0  0  0  0  0  0  0
    6.6166   25.5182   17.3677 C   0  0  0  0  0  0  0  0  0  0  0  0
   10.0897   25.9191   18.7291 O   0  0  0  0  0  0  0  0  0  0  0  0
   10.2966   25.0184   18.4346 H   0  0  0  0  0  0  0  0  0  0  0  0
    2.1140   23.7289   21.9994 N   0  0  0  0  0  0  0  0  0  0  0  0
    2.7048   23.3185   22.6715 H   0  0  0  0  0  0  0  0  0  0  0  0
    0.8037   23.3961   21.9821 C   0  0  0  0  0  0  0  0  0  0  0  0
   -0.2243   23.2796   21.0729 C   0  0  0  0  0  0  0  0  0  0  0  0
   -1.2650   22.8175   21.8714 C   0  0  0  0  0  0  0  0  0  0  0  0
   -0.9431   22.6427   23.1297 N   0  0  0  0  0  0  0  0  0  0  0  0
    0.3862   23.0304   23.1767 N   0  0  0  0  0  0  0  0  0  0  0  0
   -1.5097   22.3146   23.8649 H   0  0  0  0  0  0  0  0  0  0  0  0
   -2.6603   22.4501   21.6752 C   0  0  0  0  0  0  0  0  0  0  0  0
   -3.0741   21.2508   22.2264 C   0  0  0  0  0  0  0  0  0  0  0  0
   -4.3953   20.8926   22.0088 C   0  0  0  0  0  0  0  0  0  0  0  0
   -5.2933   21.7269   21.3032 C   0  0  0  0  0  0  0  0  0  0  0  0
   -4.8462   22.9369   20.7921 C   0  0  0  0  0  0  0  0  0  0  0  0
   -3.4979   23.3105   20.9698 C   0  0  0  0  0  0  0  0  0  0  0  0
 32 31  1  0  0  0
 32 28  2  0  0  0
 31 30  1  0  0  0
 35 36  2  0  0  0
 35 34  1  0  0  0
 12 13  2  0  0  0
 12 11  1  0  0  0
 13 14  1  0  0  0
 36 37  1  0  0  0
 28 26  1  0  0  0
 28 29  1  0  0  0
 26  6  1  0  0  0
 30 34  1  0  0  0
 30 29  2  0  0  0
 34 39  2  0  0  0
 11 10  2  0  0  0
 14 15  2  0  0  0
 37 38  2  0  0  0
  6  1  2  0  0  0
  6  5  1  0  0  0
  1  2  1  0  0  0
 10 15  1  0  0  0
 10  7  1  0  0  0
 39 38  1  0  0  0
  5  4  2  0  0  0
  2  7  1  0  0  0
  2  3  2  0  0  0
  9  7  2  0  0  0
  7  8  2  0  0  0
  4  3  1  0  0  0
  4 16  1  0  0  0
 18 16  1  0  0  0
 18 19  1  0  0  0
 18 23  1  0  0  0
 20 19  1  0  0  0
 20 21  1  0  0  0
 23 22  1  0  0  0
 22 21  1  0  0  0
 24 21  1  0  0  0
 16 17  1  0  0  0
 26 27  1  0  0  0
 31 33  1  0  0  0
 24 25  1  0  0  0
M  END
> <minimizedAffinity>
-7.32877

$$$$
