2D3U_CCT_A_1001


 29 31  0  0  0  0  0  0  0  0999 V2000
    7.1455   32.0409   75.3012 C   0  0  0  0  0  0  0  0  0  0  0  0
    8.0694   32.5443   76.2057 C   0  0  0  0  0  0  0  0  0  0  0  0
    9.4058   32.1240   75.8774 C   0  0  0  0  0  0  0  0  0  0  0  0
    9.4730   31.3219   74.7494 C   0  0  0  0  0  0  0  0  0  0  0  0
    7.9063   31.0936   74.1128 S   0  0  0  0  0  0  0  0  0  0  0  0
   11.6883   29.0568   72.5863 C   0  0  0  0  0  0  0  0  0  0  0  0
   12.9921   29.5361   72.9196 C   0  0  0  0  0  0  0  0  0  0  0  0
   13.1070   30.6089   73.8488 C   0  0  0  0  0  0  0  0  0  0  0  0
   11.9560   31.1858   74.4323 C   0  0  0  0  0  0  0  0  0  0  0  0
   10.6509   30.7105   74.1086 C   0  0  0  0  0  0  0  0  0  0  0  0
   10.5351   29.6367   73.1745 C   0  0  0  0  0  0  0  0  0  0  0  0
   14.1664   28.9540   72.3402 C   0  0  0  0  0  0  0  0  0  0  0  0
   15.1258   28.4580   71.8682 N   0  0  0  0  0  0  0  0  0  0  0  0
    5.6791   32.2939   75.3598 C   0  0  0  0  0  0  0  0  0  0  0  0
    4.9567   31.5853   74.6400 O   0  0  0  0  0  0  0  0  0  0  0  0
    5.2451   33.2136   76.0984 O   0  0  0  0  0  0  0  0  0  0  0  0
    5.3386   30.9136   74.1098 H   0  0  0  0  0  0  0  0  0  0  0  0
    7.7415   33.3831   77.3496 N   0  0  0  0  0  0  0  0  0  0  0  0
    6.9515   33.1728   77.8982 H   0  0  0  0  0  0  0  0  0  0  0  0
    8.7067   34.7170   77.7449 S   0  0  0  0  0  0  0  0  0  0  0  0
    9.9717   34.1951   78.2430 O   0  0  0  0  0  0  0  0  0  0  0  0
    7.9598   35.4268   78.7620 O   0  0  0  0  0  0  0  0  0  0  0  0
    7.9665   36.5773   75.7394 C   0  0  0  0  0  0  0  0  0  0  0  0
    9.0048   35.8332   76.3834 C   0  0  0  0  0  0  0  0  0  0  0  0
   10.3559   35.9721   75.9432 C   0  0  0  0  0  0  0  0  0  0  0  0
   10.6896   36.8329   74.8750 C   0  0  0  0  0  0  0  0  0  0  0  0
    9.6662   37.5771   74.2293 C   0  0  0  0  0  0  0  0  0  0  0  0
    8.3167   37.4477   74.6577 C   0  0  0  0  0  0  0  0  0  0  0  0
    6.5141   36.4840   76.1482 C   0  0  0  0  0  0  0  0  0  0  0  0
  6  7  1  0  0  0
  6 11  2  0  0  0
  7  8  2  0  0  0
  7 12  1  0  0  0
  8  9  1  0  0  0
  9 10  2  0  0  0
 10 11  1  0  0  0
 10  4  1  0  0  0
  1  2  2  0  0  0
  1  5  1  0  0  0
  1 14  1  0  0  0
  2  3  1  0  0  0
  2 18  1  0  0  0
  3  4  2  0  0  0
  4  5  1  0  0  0
 12 13  3  0  0  0
 14 15  1  0  0  0
 14 16  2  0  0  0
 18 20  1  0  0  0
 20 24  1  0  0  0
 20 21  2  0  0  0
 20 22  2  0  0  0
 23 24  1  0  0  0
 23 28  2  0  0  0
 23 29  1  0  0  0
 24 25  2  0  0  0
 25 26  1  0  0  0
 26 27  2  0  0  0
 27 28  1  0  0  0
 15 17  1  0  0  0
 18 19  1  0  0  0
M  END
> <minimizedAffinity>
-8.69369

$$$$
2D3U_CCT_A_1001


 29 31  0  0  0  0  0  0  0  0999 V2000
    6.8963   31.5127   76.1523 C   0  0  0  0  0  0  0  0  0  0  0  0
    7.7427   32.5785   76.4217 C   0  0  0  0  0  0  0  0  0  0  0  0
    9.0023   32.4312   75.7419 C   0  0  0  0  0  0  0  0  0  0  0  0
    9.0900   31.2759   74.9817 C   0  0  0  0  0  0  0  0  0  0  0  0
    7.6370   30.3908   75.1124 S   0  0  0  0  0  0  0  0  0  0  0  0
   11.1518   29.2380   72.4692 C   0  0  0  0  0  0  0  0  0  0  0  0
   12.4323   29.8609   72.5842 C   0  0  0  0  0  0  0  0  0  0  0  0
   12.5810   30.9518   73.4873 C   0  0  0  0  0  0  0  0  0  0  0  0
   11.4861   31.4073   74.2566 C   0  0  0  0  0  0  0  0  0  0  0  0
   10.2055   30.7883   74.1512 C   0  0  0  0  0  0  0  0  0  0  0  0
   10.0552   29.6963   73.2435 C   0  0  0  0  0  0  0  0  0  0  0  0
   13.5512   29.4028   71.8151 C   0  0  0  0  0  0  0  0  0  0  0  0
   14.4671   29.0082   71.1869 N   0  0  0  0  0  0  0  0  0  0  0  0
    5.5192   31.3660   76.7000 C   0  0  0  0  0  0  0  0  0  0  0  0
    4.7292   32.3019   76.4942 O   0  0  0  0  0  0  0  0  0  0  0  0
    5.2283   30.3357   77.3582 O   0  0  0  0  0  0  0  0  0  0  0  0
    5.0040   33.0457   75.9950 H   0  0  0  0  0  0  0  0  0  0  0  0
    7.4150   33.7028   77.2865 N   0  0  0  0  0  0  0  0  0  0  0  0
    7.5119   33.6124   78.2621 H   0  0  0  0  0  0  0  0  0  0  0  0
    6.8687   35.1647   76.6296 S   0  0  0  0  0  0  0  0  0  0  0  0
    6.3712   35.9698   77.7363 O   0  0  0  0  0  0  0  0  0  0  0  0
    5.8221   34.7869   75.7033 O   0  0  0  0  0  0  0  0  0  0  0  0
    9.4950   36.0928   76.1077 C   0  0  0  0  0  0  0  0  0  0  0  0
    8.1152   36.0736   75.7303 C   0  0  0  0  0  0  0  0  0  0  0  0
    7.6831   36.8017   74.5806 C   0  0  0  0  0  0  0  0  0  0  0  0
    8.5967   37.5485   73.8051 C   0  0  0  0  0  0  0  0  0  0  0  0
    9.9692   37.5733   74.1707 C   0  0  0  0  0  0  0  0  0  0  0  0
   10.4124   36.8529   75.3134 C   0  0  0  0  0  0  0  0  0  0  0  0
   10.0282   35.3479   77.3103 C   0  0  0  0  0  0  0  0  0  0  0  0
  6  7  1  0  0  0
  6 11  2  0  0  0
  7  8  2  0  0  0
  7 12  1  0  0  0
  8  9  1  0  0  0
  9 10  2  0  0  0
 10 11  1  0  0  0
 10  4  1  0  0  0
  1  2  2  0  0  0
  1  5  1  0  0  0
  1 14  1  0  0  0
  2  3  1  0  0  0
  2 18  1  0  0  0
  3  4  2  0  0  0
  4  5  1  0  0  0
 12 13  3  0  0  0
 14 15  1  0  0  0
 14 16  2  0  0  0
 18 20  1  0  0  0
 20 24  1  0  0  0
 20 21  2  0  0  0
 20 22  2  0  0  0
 23 24  1  0  0  0
 23 28  2  0  0  0
 23 29  1  0  0  0
 24 25  2  0  0  0
 25 26  1  0  0  0
 26 27  2  0  0  0
 27 28  1  0  0  0
 15 17  1  0  0  0
 18 19  1  0  0  0
M  END
> <minimizedAffinity>
-8.50599

$$$$
2D3U_CCT_A_1001


 29 31  0  0  0  0  0  0  0  0999 V2000
    7.0862   31.6750   75.3877 C   0  0  0  0  0  0  0  0  0  0  0  0
    7.6486   31.9200   76.6321 C   0  0  0  0  0  0  0  0  0  0  0  0
    9.0498   31.5933   76.6467 C   0  0  0  0  0  0  0  0  0  0  0  0
    9.5195   31.1132   75.4346 C   0  0  0  0  0  0  0  0  0  0  0  0
    8.2438   31.0669   74.3020 S   0  0  0  0  0  0  0  0  0  0  0  0
   12.9455   30.9142   73.7200 C   0  0  0  0  0  0  0  0  0  0  0  0
   13.5178   29.7750   74.3649 C   0  0  0  0  0  0  0  0  0  0  0  0
   12.7567   29.1030   75.3632 C   0  0  0  0  0  0  0  0  0  0  0  0
   11.4608   29.5507   75.7072 C   0  0  0  0  0  0  0  0  0  0  0  0
   10.8802   30.6843   75.0654 C   0  0  0  0  0  0  0  0  0  0  0  0
   11.6443   31.3604   74.0664 C   0  0  0  0  0  0  0  0  0  0  0  0
   14.8274   29.3075   74.0190 C   0  0  0  0  0  0  0  0  0  0  0  0
   15.8969   28.9076   73.7265 N   0  0  0  0  0  0  0  0  0  0  0  0
    5.6566   31.9113   75.0435 C   0  0  0  0  0  0  0  0  0  0  0  0
    5.0529   30.9839   74.4800 O   0  0  0  0  0  0  0  0  0  0  0  0
    5.1395   33.0262   75.3065 O   0  0  0  0  0  0  0  0  0  0  0  0
    5.4922   30.1738   74.3102 H   0  0  0  0  0  0  0  0  0  0  0  0
    6.9239   32.4327   77.7860 N   0  0  0  0  0  0  0  0  0  0  0  0
    6.4243   31.8115   78.3637 H   0  0  0  0  0  0  0  0  0  0  0  0
    6.9326   34.0879   78.1433 S   0  0  0  0  0  0  0  0  0  0  0  0
    7.4476   34.2287   79.4981 O   0  0  0  0  0  0  0  0  0  0  0  0
    5.5490   34.4991   78.0296 O   0  0  0  0  0  0  0  0  0  0  0  0
    9.3221   35.2409   77.1476 C   0  0  0  0  0  0  0  0  0  0  0  0
    7.9072   35.0740   77.0181 C   0  0  0  0  0  0  0  0  0  0  0  0
    7.2124   35.7090   75.9445 C   0  0  0  0  0  0  0  0  0  0  0  0
    7.8985   36.5071   75.0032 C   0  0  0  0  0  0  0  0  0  0  0  0
    9.3037   36.6785   75.1223 C   0  0  0  0  0  0  0  0  0  0  0  0
   10.0074   36.0518   76.1868 C   0  0  0  0  0  0  0  0  0  0  0  0
   10.1268   34.6011   78.2559 C   0  0  0  0  0  0  0  0  0  0  0  0
  6  7  1  0  0  0
  6 11  2  0  0  0
  7  8  2  0  0  0
  7 12  1  0  0  0
  8  9  1  0  0  0
  9 10  2  0  0  0
 10 11  1  0  0  0
 10  4  1  0  0  0
  1  2  2  0  0  0
  1  5  1  0  0  0
  1 14  1  0  0  0
  2  3  1  0  0  0
  2 18  1  0  0  0
  3  4  2  0  0  0
  4  5  1  0  0  0
 12 13  3  0  0  0
 14 15  1  0  0  0
 14 16  2  0  0  0
 18 20  1  0  0  0
 20 24  1  0  0  0
 20 21  2  0  0  0
 20 22  2  0  0  0
 23 24  1  0  0  0
 23 28  2  0  0  0
 23 29  1  0  0  0
 24 25  2  0  0  0
 25 26  1  0  0  0
 26 27  2  0  0  0
 27 28  1  0  0  0
 15 17  1  0  0  0
 18 19  1  0  0  0
M  END
> <minimizedAffinity>
-7.52013

$$$$
2D3U_CCT_A_1001


 29 31  0  0  0  0  0  0  0  0999 V2000
    7.7848   34.0553   80.1031 C   0  0  0  0  0  0  0  0  0  0  0  0
    7.2312   33.6620   78.8932 C   0  0  0  0  0  0  0  0  0  0  0  0
    6.0803   34.4590   78.5605 C   0  0  0  0  0  0  0  0  0  0  0  0
    5.7840   35.4267   79.5072 C   0  0  0  0  0  0  0  0  0  0  0  0
    6.9119   35.3444   80.7851 S   0  0  0  0  0  0  0  0  0  0  0  0
    2.4492   37.1875   80.2113 C   0  0  0  0  0  0  0  0  0  0  0  0
    2.6016   38.3916   79.4577 C   0  0  0  0  0  0  0  0  0  0  0  0
    3.8137   38.5975   78.7395 C   0  0  0  0  0  0  0  0  0  0  0  0
    4.8437   37.6298   78.7680 C   0  0  0  0  0  0  0  0  0  0  0  0
    4.6982   36.4230   79.5141 C   0  0  0  0  0  0  0  0  0  0  0  0
    3.4840   36.2176   80.2370 C   0  0  0  0  0  0  0  0  0  0  0  0
    1.5612   39.3761   79.4153 C   0  0  0  0  0  0  0  0  0  0  0  0
    0.7180   40.1992   79.3853 N   0  0  0  0  0  0  0  0  0  0  0  0
    8.9854   33.4329   80.7268 C   0  0  0  0  0  0  0  0  0  0  0  0
    9.7125   34.1731   81.4091 O   0  0  0  0  0  0  0  0  0  0  0  0
    9.2231   32.2166   80.5179 O   0  0  0  0  0  0  0  0  0  0  0  0
    9.4829   35.0735   81.5297 H   0  0  0  0  0  0  0  0  0  0  0  0
    7.7341   32.5779   78.0618 N   0  0  0  0  0  0  0  0  0  0  0  0
    7.9173   31.6986   78.4649 H   0  0  0  0  0  0  0  0  0  0  0  0
    8.0068   32.8158   76.4076 S   0  0  0  0  0  0  0  0  0  0  0  0
    6.7170   32.6987   75.7419 O   0  0  0  0  0  0  0  0  0  0  0  0
    8.9254   31.7631   76.0280 O   0  0  0  0  0  0  0  0  0  0  0  0
    7.9973   35.5497   75.6616 C   0  0  0  0  0  0  0  0  0  0  0  0
    8.7553   34.3871   76.0083 C   0  0  0  0  0  0  0  0  0  0  0  0
   10.1808   34.4553   76.0515 C   0  0  0  0  0  0  0  0  0  0  0  0
   10.8624   35.6555   75.7533 C   0  0  0  0  0  0  0  0  0  0  0  0
   10.1190   36.8160   75.4088 C   0  0  0  0  0  0  0  0  0  0  0  0
    8.6991   36.7613   75.3619 C   0  0  0  0  0  0  0  0  0  0  0  0
    6.4871   35.5561   75.5948 C   0  0  0  0  0  0  0  0  0  0  0  0
  6  7  1  0  0  0
  6 11  2  0  0  0
  7  8  2  0  0  0
  7 12  1  0  0  0
  8  9  1  0  0  0
  9 10  2  0  0  0
 10 11  1  0  0  0
 10  4  1  0  0  0
  1  2  2  0  0  0
  1  5  1  0  0  0
  1 14  1  0  0  0
  2  3  1  0  0  0
  2 18  1  0  0  0
  3  4  2  0  0  0
  4  5  1  0  0  0
 12 13  3  0  0  0
 14 15  1  0  0  0
 14 16  2  0  0  0
 18 20  1  0  0  0
 20 24  1  0  0  0
 20 21  2  0  0  0
 20 22  2  0  0  0
 23 24  1  0  0  0
 23 28  2  0  0  0
 23 29  1  0  0  0
 24 25  2  0  0  0
 25 26  1  0  0  0
 26 27  2  0  0  0
 27 28  1  0  0  0
 15 17  1  0  0  0
 18 19  1  0  0  0
M  END
> <minimizedAffinity>
-7.06208

$$$$
2D3U_CCT_A_1001


 29 31  0  0  0  0  0  0  0  0999 V2000
    7.6849   31.8168   78.4057 C   0  0  0  0  0  0  0  0  0  0  0  0
    7.6637   32.9780   77.6467 C   0  0  0  0  0  0  0  0  0  0  0  0
    8.4111   32.8199   76.4274 C   0  0  0  0  0  0  0  0  0  0  0  0
    8.9780   31.5636   76.2838 C   0  0  0  0  0  0  0  0  0  0  0  0
    8.5914   30.6008   77.6386 S   0  0  0  0  0  0  0  0  0  0  0  0
   11.8796   30.9860   73.8416 C   0  0  0  0  0  0  0  0  0  0  0  0
   11.3353   29.9754   72.9911 C   0  0  0  0  0  0  0  0  0  0  0  0
   10.0190   29.5001   73.2533 C   0  0  0  0  0  0  0  0  0  0  0  0
    9.2645   30.0190   74.3302 C   0  0  0  0  0  0  0  0  0  0  0  0
    9.7985   31.0311   75.1815 C   0  0  0  0  0  0  0  0  0  0  0  0
   11.1197   31.5059   74.9207 C   0  0  0  0  0  0  0  0  0  0  0  0
   12.0879   29.4474   71.8919 C   0  0  0  0  0  0  0  0  0  0  0  0
   12.7091   29.0307   70.9810 N   0  0  0  0  0  0  0  0  0  0  0  0
    7.0049   31.6523   79.7205 C   0  0  0  0  0  0  0  0  0  0  0  0
    6.3174   30.6297   79.8742 O   0  0  0  0  0  0  0  0  0  0  0  0
    7.1296   32.5501   80.5911 O   0  0  0  0  0  0  0  0  0  0  0  0
    6.2627   29.9943   79.1877 H   0  0  0  0  0  0  0  0  0  0  0  0
    6.9847   34.2082   78.0275 N   0  0  0  0  0  0  0  0  0  0  0  0
    6.0122   34.2013   78.1807 H   0  0  0  0  0  0  0  0  0  0  0  0
    7.8526   35.6507   78.2095 S   0  0  0  0  0  0  0  0  0  0  0  0
    8.8887   35.4024   79.2022 O   0  0  0  0  0  0  0  0  0  0  0  0
    6.8738   36.6184   78.6585 O   0  0  0  0  0  0  0  0  0  0  0  0
    7.8544   36.9599   75.6961 C   0  0  0  0  0  0  0  0  0  0  0  0
    8.5908   36.2555   76.7002 C   0  0  0  0  0  0  0  0  0  0  0  0
    9.9861   36.0133   76.5190 C   0  0  0  0  0  0  0  0  0  0  0  0
   10.6579   36.4556   75.3585 C   0  0  0  0  0  0  0  0  0  0  0  0
    9.9361   37.1568   74.3558 C   0  0  0  0  0  0  0  0  0  0  0  0
    8.5462   37.4042   74.5239 C   0  0  0  0  0  0  0  0  0  0  0  0
    6.3765   37.2544   75.8160 C   0  0  0  0  0  0  0  0  0  0  0  0
  6  7  1  0  0  0
  6 11  2  0  0  0
  7  8  2  0  0  0
  7 12  1  0  0  0
  8  9  1  0  0  0
  9 10  2  0  0  0
 10 11  1  0  0  0
 10  4  1  0  0  0
  1  2  2  0  0  0
  1  5  1  0  0  0
  1 14  1  0  0  0
  2  3  1  0  0  0
  2 18  1  0  0  0
  3  4  2  0  0  0
  4  5  1  0  0  0
 12 13  3  0  0  0
 14 15  1  0  0  0
 14 16  2  0  0  0
 18 20  1  0  0  0
 20 24  1  0  0  0
 20 21  2  0  0  0
 20 22  2  0  0  0
 23 24  1  0  0  0
 23 28  2  0  0  0
 23 29  1  0  0  0
 24 25  2  0  0  0
 25 26  1  0  0  0
 26 27  2  0  0  0
 27 28  1  0  0  0
 15 17  1  0  0  0
 18 19  1  0  0  0
M  END
> <minimizedAffinity>
-7.04026

$$$$
2D3U_CCT_A_1001


 29 31  0  0  0  0  0  0  0  0999 V2000
    5.4075   32.3408   77.6253 C   0  0  0  0  0  0  0  0  0  0  0  0
    6.5077   32.9326   78.2289 C   0  0  0  0  0  0  0  0  0  0  0  0
    7.7249   32.6033   77.5358 C   0  0  0  0  0  0  0  0  0  0  0  0
    7.5321   31.7808   76.4374 C   0  0  0  0  0  0  0  0  0  0  0  0
    5.8718   31.4228   76.2724 S   0  0  0  0  0  0  0  0  0  0  0  0
    9.1752   29.7150   73.6535 C   0  0  0  0  0  0  0  0  0  0  0  0
   10.5164   30.2057   73.6926 C   0  0  0  0  0  0  0  0  0  0  0  0
   10.8440   31.2200   74.6367 C   0  0  0  0  0  0  0  0  0  0  0  0
    9.8643   31.7289   75.5195 C   0  0  0  0  0  0  0  0  0  0  0  0
    8.5242   31.2418   75.4903 C   0  0  0  0  0  0  0  0  0  0  0  0
    8.1946   30.2267   74.5416 C   0  0  0  0  0  0  0  0  0  0  0  0
   11.5196   29.6918   72.8078 C   0  0  0  0  0  0  0  0  0  0  0  0
   12.3553   29.2848   72.0829 N   0  0  0  0  0  0  0  0  0  0  0  0
    4.0025   32.4871   78.0970 C   0  0  0  0  0  0  0  0  0  0  0  0
    3.1428   31.7956   77.5270 O   0  0  0  0  0  0  0  0  0  0  0  0
    3.7465   33.3077   79.0138 O   0  0  0  0  0  0  0  0  0  0  0  0
    3.3947   31.1999   76.8490 H   0  0  0  0  0  0  0  0  0  0  0  0
    6.4530   33.7729   79.4164 N   0  0  0  0  0  0  0  0  0  0  0  0
    5.8318   33.5467   80.1459 H   0  0  0  0  0  0  0  0  0  0  0  0
    7.4482   35.1359   79.5542 S   0  0  0  0  0  0  0  0  0  0  0  0
    8.4913   34.8066   80.5155 O   0  0  0  0  0  0  0  0  0  0  0  0
    6.5724   36.1887   80.0239 O   0  0  0  0  0  0  0  0  0  0  0  0
    7.4547   36.3383   76.9880 C   0  0  0  0  0  0  0  0  0  0  0  0
    8.1854   35.6618   78.0152 C   0  0  0  0  0  0  0  0  0  0  0  0
    9.5741   35.3840   77.8336 C   0  0  0  0  0  0  0  0  0  0  0  0
   10.2447   35.7635   76.6504 C   0  0  0  0  0  0  0  0  0  0  0  0
    9.5285   36.4366   75.6247 C   0  0  0  0  0  0  0  0  0  0  0  0
    8.1453   36.7190   75.7928 C   0  0  0  0  0  0  0  0  0  0  0  0
    5.9841   36.6675   77.1067 C   0  0  0  0  0  0  0  0  0  0  0  0
  6  7  1  0  0  0
  6 11  2  0  0  0
  7  8  2  0  0  0
  7 12  1  0  0  0
  8  9  1  0  0  0
  9 10  2  0  0  0
 10 11  1  0  0  0
 10  4  1  0  0  0
  1  2  2  0  0  0
  1  5  1  0  0  0
  1 14  1  0  0  0
  2  3  1  0  0  0
  2 18  1  0  0  0
  3  4  2  0  0  0
  4  5  1  0  0  0
 12 13  3  0  0  0
 14 15  1  0  0  0
 14 16  2  0  0  0
 18 20  1  0  0  0
 20 24  1  0  0  0
 20 21  2  0  0  0
 20 22  2  0  0  0
 23 24  1  0  0  0
 23 28  2  0  0  0
 23 29  1  0  0  0
 24 25  2  0  0  0
 25 26  1  0  0  0
 26 27  2  0  0  0
 27 28  1  0  0  0
 15 17  1  0  0  0
 18 19  1  0  0  0
M  END
> <minimizedAffinity>
-6.98144

$$$$
2D3U_CCT_A_1001


 29 31  0  0  0  0  0  0  0  0999 V2000
    6.6680   31.7266   77.3442 C   0  0  0  0  0  0  0  0  0  0  0  0
    6.6731   32.8365   76.5117 C   0  0  0  0  0  0  0  0  0  0  0  0
    7.6927   32.7288   75.5021 C   0  0  0  0  0  0  0  0  0  0  0  0
    8.4323   31.5598   75.5840 C   0  0  0  0  0  0  0  0  0  0  0  0
    7.8725   30.6164   76.8911 S   0  0  0  0  0  0  0  0  0  0  0  0
   10.4902   29.5768   73.0247 C   0  0  0  0  0  0  0  0  0  0  0  0
   11.7619   30.2199   73.1264 C   0  0  0  0  0  0  0  0  0  0  0  0
   11.9058   31.3057   74.0362 C   0  0  0  0  0  0  0  0  0  0  0  0
   10.8150   31.7367   74.8252 C   0  0  0  0  0  0  0  0  0  0  0  0
    9.5433   31.0975   74.7333 C   0  0  0  0  0  0  0  0  0  0  0  0
    9.3978   30.0106   73.8188 C   0  0  0  0  0  0  0  0  0  0  0  0
   12.8767   29.7867   72.3372 C   0  0  0  0  0  0  0  0  0  0  0  0
   13.8038   29.4279   71.7039 N   0  0  0  0  0  0  0  0  0  0  0  0
    5.7327   31.5294   78.4862 C   0  0  0  0  0  0  0  0  0  0  0  0
    5.1368   30.4414   78.5439 O   0  0  0  0  0  0  0  0  0  0  0  0
    5.5675   32.4632   79.3109 O   0  0  0  0  0  0  0  0  0  0  0  0
    5.3020   29.7820   77.8990 H   0  0  0  0  0  0  0  0  0  0  0  0
    5.7745   33.9750   76.6379 N   0  0  0  0  0  0  0  0  0  0  0  0
    4.8679   33.9254   76.2575 H   0  0  0  0  0  0  0  0  0  0  0  0
    6.2749   35.3837   77.4332 S   0  0  0  0  0  0  0  0  0  0  0  0
    5.2812   35.6701   78.4585 O   0  0  0  0  0  0  0  0  0  0  0  0
    6.3157   36.3979   76.4008 O   0  0  0  0  0  0  0  0  0  0  0  0
    9.1051   35.5251   77.4544 C   0  0  0  0  0  0  0  0  0  0  0  0
    7.8955   35.2690   78.1741 C   0  0  0  0  0  0  0  0  0  0  0  0
    7.9530   34.9075   79.5541 C   0  0  0  0  0  0  0  0  0  0  0  0
    9.1892   34.7937   80.2269 C   0  0  0  0  0  0  0  0  0  0  0  0
   10.3961   35.0469   79.5217 C   0  0  0  0  0  0  0  0  0  0  0  0
   10.3528   35.4074   78.1471 C   0  0  0  0  0  0  0  0  0  0  0  0
    9.1256   35.9125   75.9934 C   0  0  0  0  0  0  0  0  0  0  0  0
  6  7  1  0  0  0
  6 11  2  0  0  0
  7  8  2  0  0  0
  7 12  1  0  0  0
  8  9  1  0  0  0
  9 10  2  0  0  0
 10 11  1  0  0  0
 10  4  1  0  0  0
  1  2  2  0  0  0
  1  5  1  0  0  0
  1 14  1  0  0  0
  2  3  1  0  0  0
  2 18  1  0  0  0
  3  4  2  0  0  0
  4  5  1  0  0  0
 12 13  3  0  0  0
 14 15  1  0  0  0
 14 16  2  0  0  0
 18 20  1  0  0  0
 20 24  1  0  0  0
 20 21  2  0  0  0
 20 22  2  0  0  0
 23 24  1  0  0  0
 23 28  2  0  0  0
 23 29  1  0  0  0
 24 25  2  0  0  0
 25 26  1  0  0  0
 26 27  2  0  0  0
 27 28  1  0  0  0
 15 17  1  0  0  0
 18 19  1  0  0  0
M  END
> <minimizedAffinity>
-6.85921

$$$$
2D3U_CCT_A_1001


 29 31  0  0  0  0  0  0  0  0999 V2000
   11.5324   27.6027   73.9192 C   0  0  0  0  0  0  0  0  0  0  0  0
   12.3654   28.6333   73.5083 C   0  0  0  0  0  0  0  0  0  0  0  0
   11.7596   29.9184   73.7363 C   0  0  0  0  0  0  0  0  0  0  0  0
   10.4984   29.8433   74.3057 C   0  0  0  0  0  0  0  0  0  0  0  0
   10.0748   28.2083   74.5495 S   0  0  0  0  0  0  0  0  0  0  0  0
    9.0447   32.9788   75.9709 C   0  0  0  0  0  0  0  0  0  0  0  0
    7.7291   33.0090   75.4148 C   0  0  0  0  0  0  0  0  0  0  0  0
    7.3562   31.9922   74.4904 C   0  0  0  0  0  0  0  0  0  0  0  0
    8.2667   30.9720   74.1324 C   0  0  0  0  0  0  0  0  0  0  0  0
    9.5805   30.9316   74.6860 C   0  0  0  0  0  0  0  0  0  0  0  0
    9.9558   31.9529   75.6108 C   0  0  0  0  0  0  0  0  0  0  0  0
    6.7951   34.0340   75.7761 C   0  0  0  0  0  0  0  0  0  0  0  0
    6.0302   34.8858   76.0567 N   0  0  0  0  0  0  0  0  0  0  0  0
   11.8664   26.1546   73.8224 C   0  0  0  0  0  0  0  0  0  0  0  0
   12.7212   25.7204   74.6117 O   0  0  0  0  0  0  0  0  0  0  0  0
   11.3021   25.4531   72.9455 O   0  0  0  0  0  0  0  0  0  0  0  0
   13.1076   26.2926   75.2452 H   0  0  0  0  0  0  0  0  0  0  0  0
   13.6814   28.4519   72.9128 N   0  0  0  0  0  0  0  0  0  0  0  0
   13.7610   28.2920   71.9447 H   0  0  0  0  0  0  0  0  0  0  0  0
   15.0765   28.5133   73.8706 S   0  0  0  0  0  0  0  0  0  0  0  0
   14.8013   27.7417   75.0745 O   0  0  0  0  0  0  0  0  0  0  0  0
   15.2754   29.9207   74.1463 O   0  0  0  0  0  0  0  0  0  0  0  0
   16.6181   26.5791   72.4874 C   0  0  0  0  0  0  0  0  0  0  0  0
   16.5426   27.8842   73.0685 C   0  0  0  0  0  0  0  0  0  0  0  0
   17.6754   28.7516   73.0162 C   0  0  0  0  0  0  0  0  0  0  0  0
   18.8787   28.3427   72.4008 C   0  0  0  0  0  0  0  0  0  0  0  0
   18.9638   27.0491   71.8198 C   0  0  0  0  0  0  0  0  0  0  0  0
   17.8430   26.1756   71.8654 C   0  0  0  0  0  0  0  0  0  0  0  0
   15.4623   25.6048   72.5028 C   0  0  0  0  0  0  0  0  0  0  0  0
  6  7  1  0  0  0
  6 11  2  0  0  0
  7  8  2  0  0  0
  7 12  1  0  0  0
  8  9  1  0  0  0
  9 10  2  0  0  0
 10 11  1  0  0  0
 10  4  1  0  0  0
  1  2  2  0  0  0
  1  5  1  0  0  0
  1 14  1  0  0  0
  2  3  1  0  0  0
  2 18  1  0  0  0
  3  4  2  0  0  0
  4  5  1  0  0  0
 12 13  3  0  0  0
 14 15  1  0  0  0
 14 16  2  0  0  0
 18 20  1  0  0  0
 20 24  1  0  0  0
 20 21  2  0  0  0
 20 22  2  0  0  0
 23 24  1  0  0  0
 23 28  2  0  0  0
 23 29  1  0  0  0
 24 25  2  0  0  0
 25 26  1  0  0  0
 26 27  2  0  0  0
 27 28  1  0  0  0
 15 17  1  0  0  0
 18 19  1  0  0  0
M  END
> <minimizedAffinity>
-6.71963

$$$$
2D3U_CCT_A_1001


 29 31  0  0  0  0  0  0  0  0999 V2000
    9.0370   31.0237   76.5812 C   0  0  0  0  0  0  0  0  0  0  0  0
    9.3426   32.1717   75.8645 C   0  0  0  0  0  0  0  0  0  0  0  0
   10.4923   31.9725   75.0225 C   0  0  0  0  0  0  0  0  0  0  0  0
   11.0315   30.6992   75.1129 C   0  0  0  0  0  0  0  0  0  0  0  0
   10.1285   29.7707   76.2241 S   0  0  0  0  0  0  0  0  0  0  0  0
   13.7212   30.0110   72.4655 C   0  0  0  0  0  0  0  0  0  0  0  0
   14.4460   28.9395   73.0719 C   0  0  0  0  0  0  0  0  0  0  0  0
   14.0315   28.4750   74.3524 C   0  0  0  0  0  0  0  0  0  0  0  0
   12.9242   29.0587   75.0092 C   0  0  0  0  0  0  0  0  0  0  0  0
   12.1924   30.1258   74.4093 C   0  0  0  0  0  0  0  0  0  0  0  0
   12.6096   30.5940   73.1264 C   0  0  0  0  0  0  0  0  0  0  0  0
   15.5652   28.3350   72.4122 C   0  0  0  0  0  0  0  0  0  0  0  0
   16.4800   27.8452   71.8530 N   0  0  0  0  0  0  0  0  0  0  0  0
    7.9033   30.9003   77.5390 C   0  0  0  0  0  0  0  0  0  0  0  0
    7.9277   31.6381   78.5376 O   0  0  0  0  0  0  0  0  0  0  0  0
    7.0025   30.0527   77.3160 O   0  0  0  0  0  0  0  0  0  0  0  0
    8.6267   32.2519   78.6496 H   0  0  0  0  0  0  0  0  0  0  0  0
    8.6087   33.4261   75.9509 N   0  0  0  0  0  0  0  0  0  0  0  0
    7.8355   33.5805   75.3614 H   0  0  0  0  0  0  0  0  0  0  0  0
    9.0732   34.6218   77.0563 S   0  0  0  0  0  0  0  0  0  0  0  0
    9.9954   35.5092   76.3616 O   0  0  0  0  0  0  0  0  0  0  0  0
    9.7069   33.8996   78.1393 O   0  0  0  0  0  0  0  0  0  0  0  0
    6.8629   36.3907   76.9277 C   0  0  0  0  0  0  0  0  0  0  0  0
    7.7137   35.5646   77.7280 C   0  0  0  0  0  0  0  0  0  0  0  0
    7.4874   35.4638   79.1341 C   0  0  0  0  0  0  0  0  0  0  0  0
    6.4350   36.1709   79.7555 C   0  0  0  0  0  0  0  0  0  0  0  0
    5.5838   36.9931   78.9697 C   0  0  0  0  0  0  0  0  0  0  0  0
    5.7985   37.1025   77.5686 C   0  0  0  0  0  0  0  0  0  0  0  0
    7.0388   36.5481   75.4345 C   0  0  0  0  0  0  0  0  0  0  0  0
  6  7  1  0  0  0
  6 11  2  0  0  0
  7  8  2  0  0  0
  7 12  1  0  0  0
  8  9  1  0  0  0
  9 10  2  0  0  0
 10 11  1  0  0  0
 10  4  1  0  0  0
  1  2  2  0  0  0
  1  5  1  0  0  0
  1 14  1  0  0  0
  2  3  1  0  0  0
  2 18  1  0  0  0
  3  4  2  0  0  0
  4  5  1  0  0  0
 12 13  3  0  0  0
 14 15  1  0  0  0
 14 16  2  0  0  0
 18 20  1  0  0  0
 20 24  1  0  0  0
 20 21  2  0  0  0
 20 22  2  0  0  0
 23 24  1  0  0  0
 23 28  2  0  0  0
 23 29  1  0  0  0
 24 25  2  0  0  0
 25 26  1  0  0  0
 26 27  2  0  0  0
 27 28  1  0  0  0
 15 17  1  0  0  0
 18 19  1  0  0  0
M  END
> <minimizedAffinity>
-6.66802

$$$$
2D3U_CCT_A_1001


 29 31  0  0  0  0  0  0  0  0999 V2000
    9.3820   29.2049   74.8320 C   0  0  0  0  0  0  0  0  0  0  0  0
    9.7321   30.5292   74.6122 C   0  0  0  0  0  0  0  0  0  0  0  0
   11.1047   30.6456   74.1963 C   0  0  0  0  0  0  0  0  0  0  0  0
   11.7625   29.4290   74.1095 C   0  0  0  0  0  0  0  0  0  0  0  0
   10.6963   28.1678   74.5391 S   0  0  0  0  0  0  0  0  0  0  0  0
   14.8744   28.6246   72.0154 C   0  0  0  0  0  0  0  0  0  0  0  0
   15.8854   28.5676   73.0232 C   0  0  0  0  0  0  0  0  0  0  0  0
   15.5132   28.8076   74.3764 C   0  0  0  0  0  0  0  0  0  0  0  0
   14.1713   29.0929   74.7170 C   0  0  0  0  0  0  0  0  0  0  0  0
   13.1550   29.1475   73.7178 C   0  0  0  0  0  0  0  0  0  0  0  0
   13.5284   28.9098   72.3602 C   0  0  0  0  0  0  0  0  0  0  0  0
   17.2475   28.2717   72.6907 C   0  0  0  0  0  0  0  0  0  0  0  0
   18.3727   28.0307   72.4355 N   0  0  0  0  0  0  0  0  0  0  0  0
    8.0336   28.7469   75.2679 C   0  0  0  0  0  0  0  0  0  0  0  0
    7.3189   29.5777   75.8521 O   0  0  0  0  0  0  0  0  0  0  0  0
    7.6931   27.5558   75.0561 O   0  0  0  0  0  0  0  0  0  0  0  0
    7.6276   30.4530   75.9809 H   0  0  0  0  0  0  0  0  0  0  0  0
    8.8386   31.6655   74.7855 N   0  0  0  0  0  0  0  0  0  0  0  0
    8.1460   31.8489   74.1103 H   0  0  0  0  0  0  0  0  0  0  0  0
    8.9800   32.6745   76.1379 S   0  0  0  0  0  0  0  0  0  0  0  0
   10.4031   32.8685   76.3781 O   0  0  0  0  0  0  0  0  0  0  0  0
    8.3295   31.9510   77.2101 O   0  0  0  0  0  0  0  0  0  0  0  0
    6.7699   34.3986   75.7212 C   0  0  0  0  0  0  0  0  0  0  0  0
    8.1738   34.2575   75.9570 C   0  0  0  0  0  0  0  0  0  0  0  0
    8.9965   35.4196   76.0633 C   0  0  0  0  0  0  0  0  0  0  0  0
    8.4485   36.7147   75.9361 C   0  0  0  0  0  0  0  0  0  0  0  0
    7.0554   36.8658   75.7028 C   0  0  0  0  0  0  0  0  0  0  0  0
    6.2252   35.7168   75.5946 C   0  0  0  0  0  0  0  0  0  0  0  0
    5.8348   33.2173   75.5969 C   0  0  0  0  0  0  0  0  0  0  0  0
  6  7  1  0  0  0
  6 11  2  0  0  0
  7  8  2  0  0  0
  7 12  1  0  0  0
  8  9  1  0  0  0
  9 10  2  0  0  0
 10 11  1  0  0  0
 10  4  1  0  0  0
  1  2  2  0  0  0
  1  5  1  0  0  0
  1 14  1  0  0  0
  2  3  1  0  0  0
  2 18  1  0  0  0
  3  4  2  0  0  0
  4  5  1  0  0  0
 12 13  3  0  0  0
 14 15  1  0  0  0
 14 16  2  0  0  0
 18 20  1  0  0  0
 20 24  1  0  0  0
 20 21  2  0  0  0
 20 22  2  0  0  0
 23 24  1  0  0  0
 23 28  2  0  0  0
 23 29  1  0  0  0
 24 25  2  0  0  0
 25 26  1  0  0  0
 26 27  2  0  0  0
 27 28  1  0  0  0
 15 17  1  0  0  0
 18 19  1  0  0  0
M  END
> <minimizedAffinity>
-6.57820

$$$$
