2P3I_MNA_A_1000


 28 28  0  0  0  0  0  0  0  0999 V2000
   43.6470   11.3074   19.2701 C   0  0  0  0  0  0  0  0  0  0  0  0
   44.6236   12.4453   18.9595 C   0  0  0  0  0  0  0  0  0  0  0  0
   44.1415   13.3243   17.7918 C   0  0  0  0  0  0  0  0  0  0  0  0
   42.6925   13.7728   17.9766 C   0  0  0  0  0  0  0  0  0  0  0  0
   41.8293   12.5246   18.2097 C   0  0  0  0  0  0  0  0  0  0  0  0
   45.0354   14.4411   17.6627 O   0  0  0  0  0  0  0  0  0  0  0  0
   42.3181   11.8241   19.3777 O   0  0  0  0  0  0  0  0  0  0  0  0
   45.0235   14.9611   18.4814 H   0  0  0  0  0  0  0  0  0  0  0  0
   42.2583   15.8656   16.7403 C   0  0  0  0  0  0  0  0  0  0  0  0
   41.6590   16.4435   15.4920 C   0  0  0  0  0  0  0  0  0  0  0  0
   42.2645   14.5291   16.8136 N   0  0  0  0  0  0  0  0  0  0  0  0
   42.7019   16.5698   17.6351 O   0  0  0  0  0  0  0  0  0  0  0  0
   41.9581   14.0249   16.0255 H   0  0  0  0  0  0  0  0  0  0  0  0
   43.7469   10.1672   18.2659 C   0  0  0  0  0  0  0  0  0  0  0  0
   42.7698    9.3936   18.1487 O   0  0  0  0  0  0  0  0  0  0  0  0
   44.7780   10.0604   17.5550 O   0  0  0  0  0  0  0  0  0  0  0  0
   45.4906   10.6578   17.6704 H   0  0  0  0  0  0  0  0  0  0  0  0
   40.3449   12.8001   18.4227 C   0  0  0  0  0  0  0  0  0  0  0  0
   40.0769   12.9814   19.8244 O   0  0  0  0  0  0  0  0  0  0  0  0
   40.3030   12.1694   20.3045 H   0  0  0  0  0  0  0  0  0  0  0  0
   39.4803   11.6483   17.9074 C   0  0  0  0  0  0  0  0  0  0  0  0
   38.3197   12.1447   17.2279 O   0  0  0  0  0  0  0  0  0  0  0  0
   37.7811   12.6641   17.8451 H   0  0  0  0  0  0  0  0  0  0  0  0
   39.0411   10.7654   19.0634 C   0  0  0  0  0  0  0  0  0  0  0  0
   40.0861    9.8061   19.3020 O   0  0  0  0  0  0  0  0  0  0  0  0
   40.2327    9.2813   18.4996 H   0  0  0  0  0  0  0  0  0  0  0  0
   42.9353   10.7349   21.5477 C   0  0  0  0  0  0  0  0  0  0  0  0
   43.9740   10.8218   20.5667 O   0  0  0  0  0  0  0  0  0  0  0  0
 14  1  1  0  0  0
 14 15  2  0  0  0
 14 16  1  0  0  0
  1  2  1  0  0  0
  1 28  1  0  0  0
  1  7  1  0  0  0
  2  3  1  0  0  0
  3  4  1  0  0  0
  3  6  1  0  0  0
  4  5  1  0  0  0
  4 11  1  0  0  0
  5 18  1  0  0  0
  5  7  1  0  0  0
 18 21  1  0  0  0
 18 19  1  0  0  0
 21 24  1  0  0  0
 21 22  1  0  0  0
 24 25  1  0  0  0
  9 10  1  0  0  0
  9 11  1  0  0  0
  9 12  2  0  0  0
 27 28  1  0  0  0
 11 13  1  0  0  0
 16 17  1  0  0  0
  6  8  1  0  0  0
 19 20  1  0  0  0
 22 23  1  0  0  0
 25 26  1  0  0  0
M  END
> <minimizedAffinity>
-5.02040

$$$$
2P3I_MNA_A_1000


 28 28  0  0  0  0  0  0  0  0999 V2000
   39.7077   12.1830   19.4008 C   0  0  0  0  0  0  0  0  0  0  0  0
   40.6646   13.1475   18.6944 C   0  0  0  0  0  0  0  0  0  0  0  0
   42.1392   12.8406   19.0100 C   0  0  0  0  0  0  0  0  0  0  0  0
   42.4707   11.3632   18.8035 C   0  0  0  0  0  0  0  0  0  0  0  0
   41.4753   10.5288   19.6224 C   0  0  0  0  0  0  0  0  0  0  0  0
   42.9654   13.6927   18.2010 O   0  0  0  0  0  0  0  0  0  0  0  0
   40.1306   10.8343   19.1842 O   0  0  0  0  0  0  0  0  0  0  0  0
   42.7943   13.5134   17.2632 H   0  0  0  0  0  0  0  0  0  0  0  0
   44.7513   10.4990   18.4181 C   0  0  0  0  0  0  0  0  0  0  0  0
   46.0803   10.2330   19.0618 C   0  0  0  0  0  0  0  0  0  0  0  0
   43.8476   11.1142   19.1905 N   0  0  0  0  0  0  0  0  0  0  0  0
   44.5075   10.1662   17.2679 O   0  0  0  0  0  0  0  0  0  0  0  0
   44.1362   11.4183   20.0812 H   0  0  0  0  0  0  0  0  0  0  0  0
   39.5422   12.5091   20.8789 C   0  0  0  0  0  0  0  0  0  0  0  0
   39.4602   13.7123   21.2146 O   0  0  0  0  0  0  0  0  0  0  0  0
   39.4467   11.5713   21.7103 O   0  0  0  0  0  0  0  0  0  0  0  0
   39.5130   10.6819   21.4229 H   0  0  0  0  0  0  0  0  0  0  0  0
   41.6641    9.0193   19.5190 C   0  0  0  0  0  0  0  0  0  0  0  0
   42.0508    8.6650   18.1795 O   0  0  0  0  0  0  0  0  0  0  0  0
   41.3488    8.9224   17.5615 H   0  0  0  0  0  0  0  0  0  0  0  0
   40.3790    8.2673   19.8691 C   0  0  0  0  0  0  0  0  0  0  0  0
   39.8898    8.6633   21.1571 O   0  0  0  0  0  0  0  0  0  0  0  0
   40.5505    8.4484   21.8340 H   0  0  0  0  0  0  0  0  0  0  0  0
   40.6329    6.7693   19.8716 C   0  0  0  0  0  0  0  0  0  0  0  0
   40.6246    6.3224   18.5044 O   0  0  0  0  0  0  0  0  0  0  0  0
   39.7666    6.5290   18.1019 H   0  0  0  0  0  0  0  0  0  0  0  0
   37.5327   11.1995   18.8319 C   0  0  0  0  0  0  0  0  0  0  0  0
   38.4476   12.2972   18.7503 O   0  0  0  0  0  0  0  0  0  0  0  0
 14  1  1  0  0  0
 14 15  2  0  0  0
 14 16  1  0  0  0
  1  2  1  0  0  0
  1 28  1  0  0  0
  1  7  1  0  0  0
  2  3  1  0  0  0
  3  4  1  0  0  0
  3  6  1  0  0  0
  4  5  1  0  0  0
  4 11  1  0  0  0
  5 18  1  0  0  0
  5  7  1  0  0  0
 18 21  1  0  0  0
 18 19  1  0  0  0
 21 24  1  0  0  0
 21 22  1  0  0  0
 24 25  1  0  0  0
  9 10  1  0  0  0
  9 11  1  0  0  0
  9 12  2  0  0  0
 27 28  1  0  0  0
 11 13  1  0  0  0
 16 17  1  0  0  0
  6  8  1  0  0  0
 19 20  1  0  0  0
 22 23  1  0  0  0
 25 26  1  0  0  0
M  END
> <minimizedAffinity>
-4.82272

$$$$
2P3I_MNA_A_1000


 28 28  0  0  0  0  0  0  0  0999 V2000
   41.8019   11.8449   19.0324 C   0  0  0  0  0  0  0  0  0  0  0  0
   43.2569   11.6078   19.4470 C   0  0  0  0  0  0  0  0  0  0  0  0
   44.2544   12.1512   18.4087 C   0  0  0  0  0  0  0  0  0  0  0  0
   43.9401   13.5944   18.0173 C   0  0  0  0  0  0  0  0  0  0  0  0
   42.4751   13.6604   17.5623 C   0  0  0  0  0  0  0  0  0  0  0  0
   45.5825   12.0175   18.9392 O   0  0  0  0  0  0  0  0  0  0  0  0
   41.6246   13.2092   18.6425 O   0  0  0  0  0  0  0  0  0  0  0  0
   45.6576   12.5341   19.7568 H   0  0  0  0  0  0  0  0  0  0  0  0
   45.7245   15.0416   17.1128 C   0  0  0  0  0  0  0  0  0  0  0  0
   46.4922   15.4036   15.8755 C   0  0  0  0  0  0  0  0  0  0  0  0
   44.8589   14.0292   16.9808 N   0  0  0  0  0  0  0  0  0  0  0  0
   45.8729   15.6392   18.1684 O   0  0  0  0  0  0  0  0  0  0  0  0
   44.8443   13.5468   16.1227 H   0  0  0  0  0  0  0  0  0  0  0  0
   41.3386   10.8696   17.9589 C   0  0  0  0  0  0  0  0  0  0  0  0
   42.0887    9.9113   17.6654 O   0  0  0  0  0  0  0  0  0  0  0  0
   40.2071   11.0230   17.4334 O   0  0  0  0  0  0  0  0  0  0  0  0
   39.6722   11.7526   17.6774 H   0  0  0  0  0  0  0  0  0  0  0  0
   41.9942   15.0449   17.1419 C   0  0  0  0  0  0  0  0  0  0  0  0
   42.5449   15.3851   15.8572 O   0  0  0  0  0  0  0  0  0  0  0  0
   43.5128   15.4091   15.9164 H   0  0  0  0  0  0  0  0  0  0  0  0
   42.4148   16.1155   18.1501 C   0  0  0  0  0  0  0  0  0  0  0  0
   41.5304   16.1308   19.2783 O   0  0  0  0  0  0  0  0  0  0  0  0
   40.6315   16.3424   18.9816 H   0  0  0  0  0  0  0  0  0  0  0  0
   42.4075   17.4855   17.4929 C   0  0  0  0  0  0  0  0  0  0  0  0
   43.7576   17.7886   17.0997 O   0  0  0  0  0  0  0  0  0  0  0  0
   44.3315   17.7809   17.8817 H   0  0  0  0  0  0  0  0  0  0  0  0
   40.0198   12.6663   20.5058 C   0  0  0  0  0  0  0  0  0  0  0  0
   41.0047   11.6743   20.1982 O   0  0  0  0  0  0  0  0  0  0  0  0
 14  1  1  0  0  0
 14 15  2  0  0  0
 14 16  1  0  0  0
  1  2  1  0  0  0
  1 28  1  0  0  0
  1  7  1  0  0  0
  2  3  1  0  0  0
  3  4  1  0  0  0
  3  6  1  0  0  0
  4  5  1  0  0  0
  4 11  1  0  0  0
  5 18  1  0  0  0
  5  7  1  0  0  0
 18 21  1  0  0  0
 18 19  1  0  0  0
 21 24  1  0  0  0
 21 22  1  0  0  0
 24 25  1  0  0  0
  9 10  1  0  0  0
  9 11  1  0  0  0
  9 12  2  0  0  0
 27 28  1  0  0  0
 11 13  1  0  0  0
 16 17  1  0  0  0
  6  8  1  0  0  0
 19 20  1  0  0  0
 22 23  1  0  0  0
 25 26  1  0  0  0
M  END
> <minimizedAffinity>
-4.77818

$$$$
2P3I_MNA_A_1000


 28 28  0  0  0  0  0  0  0  0999 V2000
   42.0090   15.1215   17.5971 C   0  0  0  0  0  0  0  0  0  0  0  0
   43.4919   15.0252   17.2273 C   0  0  0  0  0  0  0  0  0  0  0  0
   44.2297   13.9558   18.0522 C   0  0  0  0  0  0  0  0  0  0  0  0
   43.4914   12.6180   18.0414 C   0  0  0  0  0  0  0  0  0  0  0  0
   42.0459   12.8636   18.4972 C   0  0  0  0  0  0  0  0  0  0  0  0
   45.5682   13.8327   17.5458 O   0  0  0  0  0  0  0  0  0  0  0  0
   41.4245   13.8165   17.6030 O   0  0  0  0  0  0  0  0  0  0  0  0
   45.5382   13.5564   16.6164 H   0  0  0  0  0  0  0  0  0  0  0  0
   44.6160   10.4681   18.4996 C   0  0  0  0  0  0  0  0  0  0  0  0
   45.1965    9.5999   19.5771 C   0  0  0  0  0  0  0  0  0  0  0  0
   44.1853   11.6717   18.8963 N   0  0  0  0  0  0  0  0  0  0  0  0
   44.5328   10.0958   17.3387 O   0  0  0  0  0  0  0  0  0  0  0  0
   44.3502   11.9331   19.8311 H   0  0  0  0  0  0  0  0  0  0  0  0
   41.7853   15.8637   18.9076 C   0  0  0  0  0  0  0  0  0  0  0  0
   42.1083   17.0717   18.9670 O   0  0  0  0  0  0  0  0  0  0  0  0
   41.2454   15.2641   19.8714 O   0  0  0  0  0  0  0  0  0  0  0  0
   41.0170   14.3589   19.7912 H   0  0  0  0  0  0  0  0  0  0  0  0
   41.1637   11.6205   18.5344 C   0  0  0  0  0  0  0  0  0  0  0  0
   41.3690   10.8387   17.3444 O   0  0  0  0  0  0  0  0  0  0  0  0
   41.1179   11.3614   16.5668 H   0  0  0  0  0  0  0  0  0  0  0  0
   39.6813   11.9865   18.6260 C   0  0  0  0  0  0  0  0  0  0  0  0
   39.4572   12.9572   19.6569 O   0  0  0  0  0  0  0  0  0  0  0  0
   39.7226   12.5866   20.5131 H   0  0  0  0  0  0  0  0  0  0  0  0
   38.8532   10.7470   18.9203 C   0  0  0  0  0  0  0  0  0  0  0  0
   39.7625    9.6814   19.2471 O   0  0  0  0  0  0  0  0  0  0  0  0
   40.3636    9.5291   18.5011 H   0  0  0  0  0  0  0  0  0  0  0  0
   42.1250   16.1689   15.3810 C   0  0  0  0  0  0  0  0  0  0  0  0
   41.3628   15.8245   16.5425 O   0  0  0  0  0  0  0  0  0  0  0  0
 14  1  1  0  0  0
 14 15  2  0  0  0
 14 16  1  0  0  0
  1  2  1  0  0  0
  1 28  1  0  0  0
  1  7  1  0  0  0
  2  3  1  0  0  0
  3  4  1  0  0  0
  3  6  1  0  0  0
  4  5  1  0  0  0
  4 11  1  0  0  0
  5 18  1  0  0  0
  5  7  1  0  0  0
 18 21  1  0  0  0
 18 19  1  0  0  0
 21 24  1  0  0  0
 21 22  1  0  0  0
 24 25  1  0  0  0
  9 10  1  0  0  0
  9 11  1  0  0  0
  9 12  2  0  0  0
 27 28  1  0  0  0
 11 13  1  0  0  0
 16 17  1  0  0  0
  6  8  1  0  0  0
 19 20  1  0  0  0
 22 23  1  0  0  0
 25 26  1  0  0  0
M  END
> <minimizedAffinity>
-4.70888

$$$$
2P3I_MNA_A_1000


 28 28  0  0  0  0  0  0  0  0999 V2000
   43.2798   18.4017   16.1316 C   0  0  0  0  0  0  0  0  0  0  0  0
   44.0652   19.2913   15.1637 C   0  0  0  0  0  0  0  0  0  0  0  0
   45.5803   19.2461   15.4298 C   0  0  0  0  0  0  0  0  0  0  0  0
   46.0993   17.8122   15.5269 C   0  0  0  0  0  0  0  0  0  0  0  0
   45.2633   17.0690   16.5787 C   0  0  0  0  0  0  0  0  0  0  0  0
   46.2470   19.9879   14.3962 O   0  0  0  0  0  0  0  0  0  0  0  0
   43.8715   17.1010   16.1841 O   0  0  0  0  0  0  0  0  0  0  0  0
   46.0605   19.5819   13.5352 H   0  0  0  0  0  0  0  0  0  0  0  0
   48.4553   17.1596   15.1801 C   0  0  0  0  0  0  0  0  0  0  0  0
   49.8352   17.2129   15.7669 C   0  0  0  0  0  0  0  0  0  0  0  0
   47.5130   17.8271   15.8570 N   0  0  0  0  0  0  0  0  0  0  0  0
   48.2070   16.5388   14.1572 O   0  0  0  0  0  0  0  0  0  0  0  0
   47.7979   18.3645   16.6311 H   0  0  0  0  0  0  0  0  0  0  0  0
   43.1370   19.0305   17.5109 C   0  0  0  0  0  0  0  0  0  0  0  0
   42.8447   18.2862   18.4740 O   0  0  0  0  0  0  0  0  0  0  0  0
   43.3592   20.2593   17.6543 O   0  0  0  0  0  0  0  0  0  0  0  0
   43.5755   20.7863   16.9103 H   0  0  0  0  0  0  0  0  0  0  0  0
   45.6500   15.6099   16.7935 C   0  0  0  0  0  0  0  0  0  0  0  0
   45.9519   14.9923   15.5298 O   0  0  0  0  0  0  0  0  0  0  0  0
   45.1648   15.0136   14.9633 H   0  0  0  0  0  0  0  0  0  0  0  0
   44.5219   14.8225   17.4622 C   0  0  0  0  0  0  0  0  0  0  0  0
   44.0062   15.5316   18.5964 O   0  0  0  0  0  0  0  0  0  0  0  0
   44.7115   15.6500   19.2517 H   0  0  0  0  0  0  0  0  0  0  0  0
   45.0282   13.4627   17.9130 C   0  0  0  0  0  0  0  0  0  0  0  0
   44.0532   12.4810   17.5196 O   0  0  0  0  0  0  0  0  0  0  0  0
   43.2003   12.6890   17.9323 H   0  0  0  0  0  0  0  0  0  0  0  0
   41.5278   16.8742   15.3452 C   0  0  0  0  0  0  0  0  0  0  0  0
   41.9885   18.2112   15.5658 O   0  0  0  0  0  0  0  0  0  0  0  0
 14  1  1  0  0  0
 14 15  2  0  0  0
 14 16  1  0  0  0
  1  2  1  0  0  0
  1 28  1  0  0  0
  1  7  1  0  0  0
  2  3  1  0  0  0
  3  4  1  0  0  0
  3  6  1  0  0  0
  4  5  1  0  0  0
  4 11  1  0  0  0
  5 18  1  0  0  0
  5  7  1  0  0  0
 18 21  1  0  0  0
 18 19  1  0  0  0
 21 24  1  0  0  0
 21 22  1  0  0  0
 24 25  1  0  0  0
  9 10  1  0  0  0
  9 11  1  0  0  0
  9 12  2  0  0  0
 27 28  1  0  0  0
 11 13  1  0  0  0
 16 17  1  0  0  0
  6  8  1  0  0  0
 19 20  1  0  0  0
 22 23  1  0  0  0
 25 26  1  0  0  0
M  END
> <minimizedAffinity>
-4.52756

$$$$
2P3I_MNA_A_1000


 28 28  0  0  0  0  0  0  0  0999 V2000
   44.0512   12.6005   18.6411 C   0  0  0  0  0  0  0  0  0  0  0  0
   42.5488   12.5837   18.3450 C   0  0  0  0  0  0  0  0  0  0  0  0
   41.9706   14.0009   18.1854 C   0  0  0  0  0  0  0  0  0  0  0  0
   42.7930   14.8459   17.2135 C   0  0  0  0  0  0  0  0  0  0  0  0
   44.2567   14.8226   17.6768 C   0  0  0  0  0  0  0  0  0  0  0  0
   40.5999   13.8899   17.7708 O   0  0  0  0  0  0  0  0  0  0  0  0
   44.7203   13.4523   17.7076 O   0  0  0  0  0  0  0  0  0  0  0  0
   40.5561   13.4282   16.9189 H   0  0  0  0  0  0  0  0  0  0  0  0
   41.8577   16.8065   16.0397 C   0  0  0  0  0  0  0  0  0  0  0  0
   41.4491   18.2418   16.1959 C   0  0  0  0  0  0  0  0  0  0  0  0
   42.2531   16.1925   17.1614 N   0  0  0  0  0  0  0  0  0  0  0  0
   41.8403   16.2394   14.9574 O   0  0  0  0  0  0  0  0  0  0  0  0
   42.1722   16.6876   18.0085 H   0  0  0  0  0  0  0  0  0  0  0  0
   44.3531   12.9726   20.0863 C   0  0  0  0  0  0  0  0  0  0  0  0
   43.4548   12.8037   20.9417 O   0  0  0  0  0  0  0  0  0  0  0  0
   45.4989   13.3917   20.3886 O   0  0  0  0  0  0  0  0  0  0  0  0
   46.1469   13.5062   19.7215 H   0  0  0  0  0  0  0  0  0  0  0  0
   45.2204   15.6177   16.8027 C   0  0  0  0  0  0  0  0  0  0  0  0
   44.8411   15.4964   15.4204 O   0  0  0  0  0  0  0  0  0  0  0  0
   44.8910   14.5657   15.1519 H   0  0  0  0  0  0  0  0  0  0  0  0
   46.6589   15.1214   16.9575 C   0  0  0  0  0  0  0  0  0  0  0  0
   46.9989   14.9632   18.3412 O   0  0  0  0  0  0  0  0  0  0  0  0
   46.9332   15.8205   18.7903 H   0  0  0  0  0  0  0  0  0  0  0  0
   47.6239   16.1045   16.3166 C   0  0  0  0  0  0  0  0  0  0  0  0
   48.8865   15.9826   16.9949 O   0  0  0  0  0  0  0  0  0  0  0  0
   48.7671   16.1769   17.9377 H   0  0  0  0  0  0  0  0  0  0  0  0
   43.6156   10.1978   18.3980 C   0  0  0  0  0  0  0  0  0  0  0  0
   44.5404   11.2902   18.3810 O   0  0  0  0  0  0  0  0  0  0  0  0
 14  1  1  0  0  0
 14 15  2  0  0  0
 14 16  1  0  0  0
  1  2  1  0  0  0
  1 28  1  0  0  0
  1  7  1  0  0  0
  2  3  1  0  0  0
  3  4  1  0  0  0
  3  6  1  0  0  0
  4  5  1  0  0  0
  4 11  1  0  0  0
  5 18  1  0  0  0
  5  7  1  0  0  0
 18 21  1  0  0  0
 18 19  1  0  0  0
 21 24  1  0  0  0
 21 22  1  0  0  0
 24 25  1  0  0  0
  9 10  1  0  0  0
  9 11  1  0  0  0
  9 12  2  0  0  0
 27 28  1  0  0  0
 11 13  1  0  0  0
 16 17  1  0  0  0
  6  8  1  0  0  0
 19 20  1  0  0  0
 22 23  1  0  0  0
 25 26  1  0  0  0
M  END
> <minimizedAffinity>
-4.25484

$$$$
2P3I_MNA_A_1000


 28 28  0  0  0  0  0  0  0  0999 V2000
   44.0239   11.6602   19.2753 C   0  0  0  0  0  0  0  0  0  0  0  0
   45.4353   11.6349   19.8687 C   0  0  0  0  0  0  0  0  0  0  0  0
   46.4476   12.3988   18.9968 C   0  0  0  0  0  0  0  0  0  0  0  0
   45.9452   13.7945   18.6303 C   0  0  0  0  0  0  0  0  0  0  0  0
   44.5578   13.6522   17.9880 C   0  0  0  0  0  0  0  0  0  0  0  0
   47.7032   12.4474   19.6926 O   0  0  0  0  0  0  0  0  0  0  0  0
   43.6685   13.0003   18.9250 O   0  0  0  0  0  0  0  0  0  0  0  0
   47.5884   12.9150   20.5347 H   0  0  0  0  0  0  0  0  0  0  0  0
   47.4066   15.6613   17.9405 C   0  0  0  0  0  0  0  0  0  0  0  0
   48.2787   16.1850   16.8375 C   0  0  0  0  0  0  0  0  0  0  0  0
   46.8986   14.4386   17.7449 N   0  0  0  0  0  0  0  0  0  0  0  0
   47.1681   16.3133   18.9462 O   0  0  0  0  0  0  0  0  0  0  0  0
   47.1912   13.9424   16.9465 H   0  0  0  0  0  0  0  0  0  0  0  0
   43.8682   10.6946   18.1083 C   0  0  0  0  0  0  0  0  0  0  0  0
   42.7729   10.6688   17.5027 O   0  0  0  0  0  0  0  0  0  0  0  0
   44.8472    9.9889   17.7572 O   0  0  0  0  0  0  0  0  0  0  0  0
   45.6524   10.0340   18.2344 H   0  0  0  0  0  0  0  0  0  0  0  0
   43.9060   14.9651   17.5682 C   0  0  0  0  0  0  0  0  0  0  0  0
   44.0415   15.9371   18.6200 O   0  0  0  0  0  0  0  0  0  0  0  0
   43.5877   15.6180   19.4156 H   0  0  0  0  0  0  0  0  0  0  0  0
   42.4181   14.7816   17.2646 C   0  0  0  0  0  0  0  0  0  0  0  0
   42.1622   13.4748   16.7335 O   0  0  0  0  0  0  0  0  0  0  0  0
   42.6486   13.3629   15.9018 H   0  0  0  0  0  0  0  0  0  0  0  0
   41.9554   15.8259   16.2626 C   0  0  0  0  0  0  0  0  0  0  0  0
   42.5441   15.5021   14.9907 O   0  0  0  0  0  0  0  0  0  0  0  0
   43.5107   15.5025   15.0723 H   0  0  0  0  0  0  0  0  0  0  0  0
   42.4875   12.3210   21.0709 C   0  0  0  0  0  0  0  0  0  0  0  0
   43.1288   11.2875   20.3164 O   0  0  0  0  0  0  0  0  0  0  0  0
 14  1  1  0  0  0
 14 15  2  0  0  0
 14 16  1  0  0  0
  1  2  1  0  0  0
  1 28  1  0  0  0
  1  7  1  0  0  0
  2  3  1  0  0  0
  3  4  1  0  0  0
  3  6  1  0  0  0
  4  5  1  0  0  0
  4 11  1  0  0  0
  5 18  1  0  0  0
  5  7  1  0  0  0
 18 21  1  0  0  0
 18 19  1  0  0  0
 21 24  1  0  0  0
 21 22  1  0  0  0
 24 25  1  0  0  0
  9 10  1  0  0  0
  9 11  1  0  0  0
  9 12  2  0  0  0
 27 28  1  0  0  0
 11 13  1  0  0  0
 16 17  1  0  0  0
  6  8  1  0  0  0
 19 20  1  0  0  0
 22 23  1  0  0  0
 25 26  1  0  0  0
M  END
> <minimizedAffinity>
-4.22929

$$$$
2P3I_MNA_A_1000


 28 28  0  0  0  0  0  0  0  0999 V2000
   42.8224   18.4496   17.2671 C   0  0  0  0  0  0  0  0  0  0  0  0
   42.0104   17.6095   18.2571 C   0  0  0  0  0  0  0  0  0  0  0  0
   42.1235   16.1015   17.9713 C   0  0  0  0  0  0  0  0  0  0  0  0
   43.5776   15.6584   17.8160 C   0  0  0  0  0  0  0  0  0  0  0  0
   44.2377   16.5424   16.7482 C   0  0  0  0  0  0  0  0  0  0  0  0
   41.4553   15.3869   19.0229 O   0  0  0  0  0  0  0  0  0  0  0  0
   44.1489   17.9265   17.1605 O   0  0  0  0  0  0  0  0  0  0  0  0
   41.8826   15.5854   19.8708 H   0  0  0  0  0  0  0  0  0  0  0  0
   44.1277   13.2921   18.2577 C   0  0  0  0  0  0  0  0  0  0  0  0
   44.1897   11.9204   17.6528 C   0  0  0  0  0  0  0  0  0  0  0  0
   43.6231   14.2492   17.4697 N   0  0  0  0  0  0  0  0  0  0  0  0
   44.5219   13.5215   19.3914 O   0  0  0  0  0  0  0  0  0  0  0  0
   43.2581   13.9793   16.5961 H   0  0  0  0  0  0  0  0  0  0  0  0
   42.1368   18.5737   15.9133 C   0  0  0  0  0  0  0  0  0  0  0  0
   42.7425   19.1712   14.9950 O   0  0  0  0  0  0  0  0  0  0  0  0
   41.0125   18.0390   15.7402 O   0  0  0  0  0  0  0  0  0  0  0  0
   40.5882   17.5999   16.4509 H   0  0  0  0  0  0  0  0  0  0  0  0
   45.7059   16.2338   16.4760 C   0  0  0  0  0  0  0  0  0  0  0  0
   45.8305   14.9268   15.8880 O   0  0  0  0  0  0  0  0  0  0  0  0
   45.4938   14.2603   16.5071 H   0  0  0  0  0  0  0  0  0  0  0  0
   46.5349   16.2698   17.7610 C   0  0  0  0  0  0  0  0  0  0  0  0
   47.0345   17.5902   18.0101 O   0  0  0  0  0  0  0  0  0  0  0  0
   47.6121   17.8606   17.2792 H   0  0  0  0  0  0  0  0  0  0  0  0
   47.7049   15.3060   17.6566 C   0  0  0  0  0  0  0  0  0  0  0  0
   47.4141   14.1735   18.4946 O   0  0  0  0  0  0  0  0  0  0  0  0
   47.2895   14.4716   19.4092 H   0  0  0  0  0  0  0  0  0  0  0  0
   44.2869   20.2448   18.0756 C   0  0  0  0  0  0  0  0  0  0  0  0
   42.9671   19.7432   17.8411 O   0  0  0  0  0  0  0  0  0  0  0  0
 14  1  1  0  0  0
 14 15  2  0  0  0
 14 16  1  0  0  0
  1  2  1  0  0  0
  1 28  1  0  0  0
  1  7  1  0  0  0
  2  3  1  0  0  0
  3  4  1  0  0  0
  3  6  1  0  0  0
  4  5  1  0  0  0
  4 11  1  0  0  0
  5 18  1  0  0  0
  5  7  1  0  0  0
 18 21  1  0  0  0
 18 19  1  0  0  0
 21 24  1  0  0  0
 21 22  1  0  0  0
 24 25  1  0  0  0
  9 10  1  0  0  0
  9 11  1  0  0  0
  9 12  2  0  0  0
 27 28  1  0  0  0
 11 13  1  0  0  0
 16 17  1  0  0  0
  6  8  1  0  0  0
 19 20  1  0  0  0
 22 23  1  0  0  0
 25 26  1  0  0  0
M  END
> <minimizedAffinity>
-4.12561

$$$$
2P3I_MNA_A_1000


 28 28  0  0  0  0  0  0  0  0999 V2000
   41.4629   14.0169   18.4127 C   0  0  0  0  0  0  0  0  0  0  0  0
   41.6595   15.2980   17.5970 C   0  0  0  0  0  0  0  0  0  0  0  0
   43.1047   15.8213   17.6734 C   0  0  0  0  0  0  0  0  0  0  0  0
   44.1249   14.7236   17.3747 C   0  0  0  0  0  0  0  0  0  0  0  0
   43.8445   13.5396   18.3112 C   0  0  0  0  0  0  0  0  0  0  0  0
   43.2352   16.9329   16.7732 O   0  0  0  0  0  0  0  0  0  0  0  0
   42.4912   13.0759   18.0937 O   0  0  0  0  0  0  0  0  0  0  0  0
   43.0481   16.6393   15.8678 H   0  0  0  0  0  0  0  0  0  0  0  0
   46.3641   15.3578   16.5498 C   0  0  0  0  0  0  0  0  0  0  0  0
   47.7339   15.8097   16.9631 C   0  0  0  0  0  0  0  0  0  0  0  0
   45.4682   15.2493   17.5383 N   0  0  0  0  0  0  0  0  0  0  0  0
   46.0884   15.0962   15.3883 O   0  0  0  0  0  0  0  0  0  0  0  0
   45.7385   15.5460   18.4373 H   0  0  0  0  0  0  0  0  0  0  0  0
   41.3695   14.2901   19.9077 C   0  0  0  0  0  0  0  0  0  0  0  0
   41.5044   13.3268   20.6956 O   0  0  0  0  0  0  0  0  0  0  0  0
   41.2075   15.4699   20.3099 O   0  0  0  0  0  0  0  0  0  0  0  0
   41.1098   16.1666   19.6910 H   0  0  0  0  0  0  0  0  0  0  0  0
   44.7767   12.3459   18.1351 C   0  0  0  0  0  0  0  0  0  0  0  0
   44.1789   11.3848   17.2473 O   0  0  0  0  0  0  0  0  0  0  0  0
   43.3484   11.0626   17.6313 H   0  0  0  0  0  0  0  0  0  0  0  0
   45.0678   11.6590   19.4704 C   0  0  0  0  0  0  0  0  0  0  0  0
   44.2294   12.1832   20.5084 O   0  0  0  0  0  0  0  0  0  0  0  0
   44.4065   13.1304   20.6197 H   0  0  0  0  0  0  0  0  0  0  0  0
   46.5235   11.8604   19.8565 C   0  0  0  0  0  0  0  0  0  0  0  0
   47.0442   12.9337   19.0528 O   0  0  0  0  0  0  0  0  0  0  0  0
   46.9619   12.7040   18.1140 H   0  0  0  0  0  0  0  0  0  0  0  0
   40.1939   11.9989   17.8309 C   0  0  0  0  0  0  0  0  0  0  0  0
   40.2497   13.4227   17.9667 O   0  0  0  0  0  0  0  0  0  0  0  0
 14  1  1  0  0  0
 14 15  2  0  0  0
 14 16  1  0  0  0
  1  2  1  0  0  0
  1 28  1  0  0  0
  1  7  1  0  0  0
  2  3  1  0  0  0
  3  4  1  0  0  0
  3  6  1  0  0  0
  4  5  1  0  0  0
  4 11  1  0  0  0
  5 18  1  0  0  0
  5  7  1  0  0  0
 18 21  1  0  0  0
 18 19  1  0  0  0
 21 24  1  0  0  0
 21 22  1  0  0  0
 24 25  1  0  0  0
  9 10  1  0  0  0
  9 11  1  0  0  0
  9 12  2  0  0  0
 27 28  1  0  0  0
 11 13  1  0  0  0
 16 17  1  0  0  0
  6  8  1  0  0  0
 19 20  1  0  0  0
 22 23  1  0  0  0
 25 26  1  0  0  0
M  END
> <minimizedAffinity>
-4.11930

$$$$
2P3I_MNA_A_1000


 28 28  0  0  0  0  0  0  0  0999 V2000
   39.6981   11.7372   19.9338 C   0  0  0  0  0  0  0  0  0  0  0  0
   40.3275   10.6920   20.8592 C   0  0  0  0  0  0  0  0  0  0  0  0
   41.6619   10.1564   20.3107 C   0  0  0  0  0  0  0  0  0  0  0  0
   42.6066   11.2872   19.9058 C   0  0  0  0  0  0  0  0  0  0  0  0
   41.8614   12.2094   18.9303 C   0  0  0  0  0  0  0  0  0  0  0  0
   42.2492    9.2965   21.3001 O   0  0  0  0  0  0  0  0  0  0  0  0
   40.6732   12.7209   19.5785 O   0  0  0  0  0  0  0  0  0  0  0  0
   42.4159    9.8028   22.1105 H   0  0  0  0  0  0  0  0  0  0  0  0
   44.9605   10.5462   19.9882 C   0  0  0  0  0  0  0  0  0  0  0  0
   46.1202   10.0724   19.1623 C   0  0  0  0  0  0  0  0  0  0  0  0
   43.8134   10.7287   19.3231 N   0  0  0  0  0  0  0  0  0  0  0  0
   45.0605   10.7610   21.1870 O   0  0  0  0  0  0  0  0  0  0  0  0
   43.7861   10.4666   18.3745 H   0  0  0  0  0  0  0  0  0  0  0  0
   39.0365   11.1090   18.7148 C   0  0  0  0  0  0  0  0  0  0  0  0
   38.7424    9.8930   18.7609 O   0  0  0  0  0  0  0  0  0  0  0  0
   38.7633   11.8294   17.7217 O   0  0  0  0  0  0  0  0  0  0  0  0
   38.9987   12.7363   17.7219 H   0  0  0  0  0  0  0  0  0  0  0  0
   42.6674   13.4040   18.4321 C   0  0  0  0  0  0  0  0  0  0  0  0
   43.6277   13.7965   19.4287 O   0  0  0  0  0  0  0  0  0  0  0  0
   43.1635   14.0642   20.2372 H   0  0  0  0  0  0  0  0  0  0  0  0
   41.7662   14.6016   18.1269 C   0  0  0  0  0  0  0  0  0  0  0  0
   40.6480   14.2077   17.3211 O   0  0  0  0  0  0  0  0  0  0  0  0
   40.9669   13.8559   16.4752 H   0  0  0  0  0  0  0  0  0  0  0  0
   42.5531   15.6763   17.3958 C   0  0  0  0  0  0  0  0  0  0  0  0
   43.5926   15.0229   16.6462 O   0  0  0  0  0  0  0  0  0  0  0  0
   44.1637   14.5249   17.2518 H   0  0  0  0  0  0  0  0  0  0  0  0
   38.1780   11.7931   21.8593 C   0  0  0  0  0  0  0  0  0  0  0  0
   38.7170   12.4300   20.6963 O   0  0  0  0  0  0  0  0  0  0  0  0
 14  1  1  0  0  0
 14 15  2  0  0  0
 14 16  1  0  0  0
  1  2  1  0  0  0
  1 28  1  0  0  0
  1  7  1  0  0  0
  2  3  1  0  0  0
  3  4  1  0  0  0
  3  6  1  0  0  0
  4  5  1  0  0  0
  4 11  1  0  0  0
  5 18  1  0  0  0
  5  7  1  0  0  0
 18 21  1  0  0  0
 18 19  1  0  0  0
 21 24  1  0  0  0
 21 22  1  0  0  0
 24 25  1  0  0  0
  9 10  1  0  0  0
  9 11  1  0  0  0
  9 12  2  0  0  0
 27 28  1  0  0  0
 11 13  1  0  0  0
 16 17  1  0  0  0
  6  8  1  0  0  0
 19 20  1  0  0  0
 22 23  1  0  0  0
 25 26  1  0  0  0
M  END
> <minimizedAffinity>
-4.06479

$$$$
