4IH5_12R_A_601


 20 22  0  0  0  0  0  0  0  0999 V2000
  -32.1455   -8.5557   14.2355 C   0  0  0  0  0  0  0  0  0  0  0  0
  -32.0112   -7.4837   13.2869 C   0  0  0  0  0  0  0  0  0  0  0  0
  -30.9296   -6.6116   13.5203 C   0  0  0  0  0  0  0  0  0  0  0  0
  -32.6110   -6.9934   12.1021 C   0  0  0  0  0  0  0  0  0  0  0  0
  -30.0631   -6.7409   14.5456 N   0  0  0  0  0  0  0  0  0  0  0  0
  -31.2830   -8.6888   15.2625 N   0  0  0  0  0  0  0  0  0  0  0  0
  -30.3014   -7.7830   15.3441 C   0  0  0  0  0  0  0  0  0  0  0  0
  -30.9574   -5.6844   12.4915 N   0  0  0  0  0  0  0  0  0  0  0  0
  -31.9895   -5.9317   11.6292 N   0  0  0  0  0  0  0  0  0  0  0  0
  -30.3169   -4.9432   12.3938 H   0  0  0  0  0  0  0  0  0  0  0  0
  -33.1586   -9.5047   14.1051 N   0  0  0  0  0  0  0  0  0  0  0  0
  -32.9234  -10.3506   13.6597 H   0  0  0  0  0  0  0  0  0  0  0  0
  -34.4895   -9.3653   14.5522 N   0  0  0  0  0  0  0  0  0  0  0  0
  -34.6911   -9.1691   15.4956 H   0  0  0  0  0  0  0  0  0  0  0  0
  -35.1913   -9.6764   12.2583 C   0  0  0  0  0  0  0  0  0  0  0  0
  -35.5217   -9.5164   13.6024 C   0  0  0  0  0  0  0  0  0  0  0  0
  -36.1933   -9.7147   11.2986 C   0  0  0  0  0  0  0  0  0  0  0  0
  -37.5198   -9.6018   11.6682 C   0  0  0  0  0  0  0  0  0  0  0  0
  -37.8547   -9.4753   13.0052 C   0  0  0  0  0  0  0  0  0  0  0  0
  -36.8618   -9.4341   13.9754 C   0  0  0  0  0  0  0  0  0  0  0  0
 15 17  2  0  0  0
 15 16  1  0  0  0
 17 18  1  0  0  0
 13 16  1  0  0  0
 13 11  1  0  0  0
  4  9  2  0  0  0
  4  2  1  0  0  0
  9  8  1  0  0  0
 16 20  2  0  0  0
 11  1  1  0  0  0
  2  1  2  0  0  0
  2  3  1  0  0  0
  8  3  1  0  0  0
 18 19  2  0  0  0
  1  6  1  0  0  0
  3  5  2  0  0  0
 20 19  1  0  0  0
  6  7  2  0  0  0
  5  7  1  0  0  0
  8 10  1  0  0  0
 11 12  1  0  0  0
 13 14  1  0  0  0
M  END
> <minimizedAffinity>
-6.79575

$$$$
4IH5_12R_A_601


 20 22  0  0  0  0  0  0  0  0999 V2000
  -32.6281   -8.3736   13.5642 C   0  0  0  0  0  0  0  0  0  0  0  0
  -31.4626   -7.8383   14.2139 C   0  0  0  0  0  0  0  0  0  0  0  0
  -31.0686   -6.5589   13.7747 C   0  0  0  0  0  0  0  0  0  0  0  0
  -30.5364   -8.1622   15.2343 C   0  0  0  0  0  0  0  0  0  0  0  0
  -31.7120   -5.8572   12.8195 N   0  0  0  0  0  0  0  0  0  0  0  0
  -33.2740   -7.6770   12.6082 N   0  0  0  0  0  0  0  0  0  0  0  0
  -32.7807   -6.4702   12.3070 C   0  0  0  0  0  0  0  0  0  0  0  0
  -29.9642   -6.2163   14.5375 N   0  0  0  0  0  0  0  0  0  0  0  0
  -29.6514   -7.2051   15.4287 N   0  0  0  0  0  0  0  0  0  0  0  0
  -29.4686   -5.3702   14.4494 H   0  0  0  0  0  0  0  0  0  0  0  0
  -33.1392   -9.6201   13.9233 N   0  0  0  0  0  0  0  0  0  0  0  0
  -32.8331   -9.9986   14.7790 H   0  0  0  0  0  0  0  0  0  0  0  0
  -34.0545  -10.3893   13.1742 N   0  0  0  0  0  0  0  0  0  0  0  0
  -33.7474  -11.1249   12.5965 H   0  0  0  0  0  0  0  0  0  0  0  0
  -36.2233  -10.1113   12.1397 C   0  0  0  0  0  0  0  0  0  0  0  0
  -35.4245  -10.0692   13.2804 C   0  0  0  0  0  0  0  0  0  0  0  0
  -37.5452   -9.6929   12.2040 C   0  0  0  0  0  0  0  0  0  0  0  0
  -38.0778   -9.2403   13.3958 C   0  0  0  0  0  0  0  0  0  0  0  0
  -37.2976   -9.2272   14.5389 C   0  0  0  0  0  0  0  0  0  0  0  0
  -35.9730   -9.6417   14.4880 C   0  0  0  0  0  0  0  0  0  0  0  0
 15 17  2  0  0  0
 15 16  1  0  0  0
 17 18  1  0  0  0
 13 16  1  0  0  0
 13 11  1  0  0  0
  4  9  2  0  0  0
  4  2  1  0  0  0
  9  8  1  0  0  0
 16 20  2  0  0  0
 11  1  1  0  0  0
  2  1  2  0  0  0
  2  3  1  0  0  0
  8  3  1  0  0  0
 18 19  2  0  0  0
  1  6  1  0  0  0
  3  5  2  0  0  0
 20 19  1  0  0  0
  6  7  2  0  0  0
  5  7  1  0  0  0
  8 10  1  0  0  0
 11 12  1  0  0  0
 13 14  1  0  0  0
M  END
> <minimizedAffinity>
-6.78139

$$$$
4IH5_12R_A_601


 20 22  0  0  0  0  0  0  0  0999 V2000
  -35.0364   -9.6981   13.2759 C   0  0  0  0  0  0  0  0  0  0  0  0
  -36.1612   -9.5498   12.3927 C   0  0  0  0  0  0  0  0  0  0  0  0
  -37.3933   -9.3054   13.0306 C   0  0  0  0  0  0  0  0  0  0  0  0
  -36.4684   -9.5288   11.0110 C   0  0  0  0  0  0  0  0  0  0  0  0
  -37.5458   -9.2099   14.3672 N   0  0  0  0  0  0  0  0  0  0  0  0
  -35.1835   -9.6047   14.6123 N   0  0  0  0  0  0  0  0  0  0  0  0
  -36.4187   -9.3609   15.0653 C   0  0  0  0  0  0  0  0  0  0  0  0
  -38.3267   -9.1625   12.0170 N   0  0  0  0  0  0  0  0  0  0  0  0
  -37.7465   -9.2984   10.7863 N   0  0  0  0  0  0  0  0  0  0  0  0
  -39.2840   -8.9858   12.1639 H   0  0  0  0  0  0  0  0  0  0  0  0
  -33.7548   -9.9176   12.7727 N   0  0  0  0  0  0  0  0  0  0  0  0
  -33.6616   -9.9662   11.7938 H   0  0  0  0  0  0  0  0  0  0  0  0
  -32.5790  -10.0766   13.5362 N   0  0  0  0  0  0  0  0  0  0  0  0
  -32.2815  -10.9671   13.8324 H   0  0  0  0  0  0  0  0  0  0  0  0
  -30.9810   -8.9430   14.9548 C   0  0  0  0  0  0  0  0  0  0  0  0
  -31.8438   -8.9171   13.8611 C   0  0  0  0  0  0  0  0  0  0  0  0
  -30.3354   -7.7814   15.3553 C   0  0  0  0  0  0  0  0  0  0  0  0
  -30.5374   -6.5981   14.6711 C   0  0  0  0  0  0  0  0  0  0  0  0
  -31.3681   -6.5747   13.5644 C   0  0  0  0  0  0  0  0  0  0  0  0
  -32.0215   -7.7296   13.1541 C   0  0  0  0  0  0  0  0  0  0  0  0
 15 17  2  0  0  0
 15 16  1  0  0  0
 17 18  1  0  0  0
 13 16  1  0  0  0
 13 11  1  0  0  0
  4  9  2  0  0  0
  4  2  1  0  0  0
  9  8  1  0  0  0
 16 20  2  0  0  0
 11  1  1  0  0  0
  2  1  2  0  0  0
  2  3  1  0  0  0
  8  3  1  0  0  0
 18 19  2  0  0  0
  1  6  1  0  0  0
  3  5  2  0  0  0
 20 19  1  0  0  0
  6  7  2  0  0  0
  5  7  1  0  0  0
  8 10  1  0  0  0
 11 12  1  0  0  0
 13 14  1  0  0  0
M  END
> <minimizedAffinity>
-6.67922

$$$$
4IH5_12R_A_601


 20 22  0  0  0  0  0  0  0  0999 V2000
  -35.3552  -10.2582   12.7881 C   0  0  0  0  0  0  0  0  0  0  0  0
  -36.6479   -9.8478   12.3109 C   0  0  0  0  0  0  0  0  0  0  0  0
  -37.5013   -9.3041   13.2911 C   0  0  0  0  0  0  0  0  0  0  0  0
  -37.3919   -9.7650   11.1094 C   0  0  0  0  0  0  0  0  0  0  0  0
  -37.1660   -9.1620   14.5897 N   0  0  0  0  0  0  0  0  0  0  0  0
  -35.0155  -10.1195   14.0849 N   0  0  0  0  0  0  0  0  0  0  0  0
  -35.9345   -9.5774   14.8922 C   0  0  0  0  0  0  0  0  0  0  0  0
  -38.6646   -8.9467   12.6293 N   0  0  0  0  0  0  0  0  0  0  0  0
  -38.5828   -9.2315   11.2944 N   0  0  0  0  0  0  0  0  0  0  0  0
  -39.4489   -8.5403   13.0640 H   0  0  0  0  0  0  0  0  0  0  0  0
  -34.4052  -10.7887   11.9162 N   0  0  0  0  0  0  0  0  0  0  0  0
  -34.5926  -11.6787   11.5394 H   0  0  0  0  0  0  0  0  0  0  0  0
  -33.2003  -10.1683   11.5239 N   0  0  0  0  0  0  0  0  0  0  0  0
  -32.3395  -10.4314   11.9226 H   0  0  0  0  0  0  0  0  0  0  0  0
  -34.0640   -9.3595    9.4141 C   0  0  0  0  0  0  0  0  0  0  0  0
  -33.2700   -9.1584   10.5412 C   0  0  0  0  0  0  0  0  0  0  0  0
  -34.0573   -8.4264    8.3867 C   0  0  0  0  0  0  0  0  0  0  0  0
  -33.2720   -7.2931    8.4768 C   0  0  0  0  0  0  0  0  0  0  0  0
  -32.5065   -7.0730    9.6086 C   0  0  0  0  0  0  0  0  0  0  0  0
  -32.5028   -7.9995   10.6433 C   0  0  0  0  0  0  0  0  0  0  0  0
 15 17  2  0  0  0
 15 16  1  0  0  0
 17 18  1  0  0  0
 13 16  1  0  0  0
 13 11  1  0  0  0
  4  9  2  0  0  0
  4  2  1  0  0  0
  9  8  1  0  0  0
 16 20  2  0  0  0
 11  1  1  0  0  0
  2  1  2  0  0  0
  2  3  1  0  0  0
  8  3  1  0  0  0
 18 19  2  0  0  0
  1  6  1  0  0  0
  3  5  2  0  0  0
 20 19  1  0  0  0
  6  7  2  0  0  0
  5  7  1  0  0  0
  8 10  1  0  0  0
 11 12  1  0  0  0
 13 14  1  0  0  0
M  END
> <minimizedAffinity>
-6.64554

$$$$
4IH5_12R_A_601


 20 22  0  0  0  0  0  0  0  0999 V2000
  -31.3464  -10.6275   13.3260 C   0  0  0  0  0  0  0  0  0  0  0  0
  -30.9189   -9.5756   14.2080 C   0  0  0  0  0  0  0  0  0  0  0  0
  -29.5233   -9.4120   14.3100 C   0  0  0  0  0  0  0  0  0  0  0  0
  -31.4551   -8.5596   15.0350 C   0  0  0  0  0  0  0  0  0  0  0  0
  -28.6240  -10.1655   13.6448 N   0  0  0  0  0  0  0  0  0  0  0  0
  -30.4519  -11.3842   12.6598 N   0  0  0  0  0  0  0  0  0  0  0  0
  -29.1593  -11.0996   12.8565 C   0  0  0  0  0  0  0  0  0  0  0  0
  -29.3256   -8.3429   15.1683 N   0  0  0  0  0  0  0  0  0  0  0  0
  -30.5162   -7.8288   15.6021 N   0  0  0  0  0  0  0  0  0  0  0  0
  -28.4421   -7.9978   15.4321 H   0  0  0  0  0  0  0  0  0  0  0  0
  -32.7015  -10.8785   13.1146 N   0  0  0  0  0  0  0  0  0  0  0  0
  -33.0676  -11.7071   13.5001 H   0  0  0  0  0  0  0  0  0  0  0  0
  -33.5967  -10.0552   12.3995 N   0  0  0  0  0  0  0  0  0  0  0  0
  -33.3381   -9.6480   11.5412 H   0  0  0  0  0  0  0  0  0  0  0  0
  -35.9848   -9.7971   12.1141 C   0  0  0  0  0  0  0  0  0  0  0  0
  -34.8746   -9.8348   12.9551 C   0  0  0  0  0  0  0  0  0  0  0  0
  -37.2323   -9.4715   12.6280 C   0  0  0  0  0  0  0  0  0  0  0  0
  -37.3828   -9.1903   13.9724 C   0  0  0  0  0  0  0  0  0  0  0  0
  -36.2889   -9.2582   14.8176 C   0  0  0  0  0  0  0  0  0  0  0  0
  -35.0347   -9.5813   14.3160 C   0  0  0  0  0  0  0  0  0  0  0  0
 15 17  2  0  0  0
 15 16  1  0  0  0
 17 18  1  0  0  0
 13 16  1  0  0  0
 13 11  1  0  0  0
  4  9  2  0  0  0
  4  2  1  0  0  0
  9  8  1  0  0  0
 16 20  2  0  0  0
 11  1  1  0  0  0
  2  1  2  0  0  0
  2  3  1  0  0  0
  8  3  1  0  0  0
 18 19  2  0  0  0
  1  6  1  0  0  0
  3  5  2  0  0  0
 20 19  1  0  0  0
  6  7  2  0  0  0
  5  7  1  0  0  0
  8 10  1  0  0  0
 11 12  1  0  0  0
 13 14  1  0  0  0
M  END
> <minimizedAffinity>
-6.38556

$$$$
4IH5_12R_A_601


 20 22  0  0  0  0  0  0  0  0999 V2000
  -33.3736  -10.8054   10.9917 C   0  0  0  0  0  0  0  0  0  0  0  0
  -34.1125  -10.0026   10.0555 C   0  0  0  0  0  0  0  0  0  0  0  0
  -33.6225  -10.0223    8.7347 C   0  0  0  0  0  0  0  0  0  0  0  0
  -35.2585   -9.1737    9.9948 C   0  0  0  0  0  0  0  0  0  0  0  0
  -32.5445  -10.7299    8.3397 N   0  0  0  0  0  0  0  0  0  0  0  0
  -32.2950  -11.5135   10.6025 N   0  0  0  0  0  0  0  0  0  0  0  0
  -31.9592  -11.4350    9.3096 C   0  0  0  0  0  0  0  0  0  0  0  0
  -34.4815   -9.2248    7.9965 N   0  0  0  0  0  0  0  0  0  0  0  0
  -35.4797   -8.7144    8.7794 N   0  0  0  0  0  0  0  0  0  0  0  0
  -34.3856   -9.0482    7.0327 H   0  0  0  0  0  0  0  0  0  0  0  0
  -33.7679  -10.8946   12.3261 N   0  0  0  0  0  0  0  0  0  0  0  0
  -33.1717  -10.4884   12.9960 H   0  0  0  0  0  0  0  0  0  0  0  0
  -34.9419  -11.5131   12.8054 N   0  0  0  0  0  0  0  0  0  0  0  0
  -35.0298  -12.4935   12.8221 H   0  0  0  0  0  0  0  0  0  0  0  0
  -37.1594  -10.5916   12.5144 C   0  0  0  0  0  0  0  0  0  0  0  0
  -35.9858  -10.6799   13.2601 C   0  0  0  0  0  0  0  0  0  0  0  0
  -38.1505   -9.6940   12.8866 C   0  0  0  0  0  0  0  0  0  0  0  0
  -37.9840   -8.8902   13.9980 C   0  0  0  0  0  0  0  0  0  0  0  0
  -36.8340   -8.9974   14.7604 C   0  0  0  0  0  0  0  0  0  0  0  0
  -35.8338   -9.8904   14.3982 C   0  0  0  0  0  0  0  0  0  0  0  0
 15 17  2  0  0  0
 15 16  1  0  0  0
 17 18  1  0  0  0
 13 16  1  0  0  0
 13 11  1  0  0  0
  4  9  2  0  0  0
  4  2  1  0  0  0
  9  8  1  0  0  0
 16 20  2  0  0  0
 11  1  1  0  0  0
  2  1  2  0  0  0
  2  3  1  0  0  0
  8  3  1  0  0  0
 18 19  2  0  0  0
  1  6  1  0  0  0
  3  5  2  0  0  0
 20 19  1  0  0  0
  6  7  2  0  0  0
  5  7  1  0  0  0
  8 10  1  0  0  0
 11 12  1  0  0  0
 13 14  1  0  0  0
M  END
> <minimizedAffinity>
-6.34642

$$$$
4IH5_12R_A_601


 20 22  0  0  0  0  0  0  0  0999 V2000
  -31.5200   -8.3278   14.0585 C   0  0  0  0  0  0  0  0  0  0  0  0
  -30.6467   -9.4671   14.1384 C   0  0  0  0  0  0  0  0  0  0  0  0
  -29.3461   -9.1912   14.6044 C   0  0  0  0  0  0  0  0  0  0  0  0
  -30.6574  -10.8672   13.9294 C   0  0  0  0  0  0  0  0  0  0  0  0
  -28.9158   -7.9633   14.9595 N   0  0  0  0  0  0  0  0  0  0  0  0
  -31.0947   -7.0985   14.4110 N   0  0  0  0  0  0  0  0  0  0  0  0
  -29.8319   -7.0002   14.8423 C   0  0  0  0  0  0  0  0  0  0  0  0
  -28.6859  -10.4085   14.6382 N   0  0  0  0  0  0  0  0  0  0  0  0
  -29.5011  -11.4260   14.2256 N   0  0  0  0  0  0  0  0  0  0  0  0
  -27.7507  -10.5260   14.9225 H   0  0  0  0  0  0  0  0  0  0  0  0
  -32.8419   -8.4668   13.6375 N   0  0  0  0  0  0  0  0  0  0  0  0
  -33.1260   -7.9198   12.8698 H   0  0  0  0  0  0  0  0  0  0  0  0
  -33.8102   -9.3187   14.2097 N   0  0  0  0  0  0  0  0  0  0  0  0
  -33.6039   -9.8618   15.0045 H   0  0  0  0  0  0  0  0  0  0  0  0
  -36.2210   -9.3157   14.4088 C   0  0  0  0  0  0  0  0  0  0  0  0
  -35.0840   -9.3663   13.6050 C   0  0  0  0  0  0  0  0  0  0  0  0
  -37.4779   -9.4731   13.8415 C   0  0  0  0  0  0  0  0  0  0  0  0
  -37.6105   -9.6735   12.4809 C   0  0  0  0  0  0  0  0  0  0  0  0
  -36.4862   -9.6921   11.6739 C   0  0  0  0  0  0  0  0  0  0  0  0
  -35.2225   -9.5373   12.2290 C   0  0  0  0  0  0  0  0  0  0  0  0
 15 17  2  0  0  0
 15 16  1  0  0  0
 17 18  1  0  0  0
 13 16  1  0  0  0
 13 11  1  0  0  0
  4  9  2  0  0  0
  4  2  1  0  0  0
  9  8  1  0  0  0
 16 20  2  0  0  0
 11  1  1  0  0  0
  2  1  2  0  0  0
  2  3  1  0  0  0
  8  3  1  0  0  0
 18 19  2  0  0  0
  1  6  1  0  0  0
  3  5  2  0  0  0
 20 19  1  0  0  0
  6  7  2  0  0  0
  5  7  1  0  0  0
  8 10  1  0  0  0
 11 12  1  0  0  0
 13 14  1  0  0  0
M  END
> <minimizedAffinity>
-6.32608

$$$$
4IH5_12R_A_601


 20 22  0  0  0  0  0  0  0  0999 V2000
  -34.4888   -9.8344   11.8447 C   0  0  0  0  0  0  0  0  0  0  0  0
  -35.9068   -9.6464   11.9892 C   0  0  0  0  0  0  0  0  0  0  0  0
  -36.5872   -9.3004   10.8050 C   0  0  0  0  0  0  0  0  0  0  0  0
  -36.9244   -9.7299   12.9698 C   0  0  0  0  0  0  0  0  0  0  0  0
  -35.9877   -9.1487    9.6065 N   0  0  0  0  0  0  0  0  0  0  0  0
  -33.8846   -9.6829   10.6495 N   0  0  0  0  0  0  0  0  0  0  0  0
  -34.6702   -9.3598    9.6156 C   0  0  0  0  0  0  0  0  0  0  0  0
  -37.9254   -9.2002   11.1485 N   0  0  0  0  0  0  0  0  0  0  0  0
  -38.1179   -9.4686   12.4755 N   0  0  0  0  0  0  0  0  0  0  0  0
  -38.6449   -8.9659   10.5187 H   0  0  0  0  0  0  0  0  0  0  0  0
  -33.7007  -10.2044   12.9337 N   0  0  0  0  0  0  0  0  0  0  0  0
  -33.2230  -11.0628   12.8681 H   0  0  0  0  0  0  0  0  0  0  0  0
  -33.5242   -9.4629   14.1210 N   0  0  0  0  0  0  0  0  0  0  0  0
  -34.1325   -9.5766   14.8867 H   0  0  0  0  0  0  0  0  0  0  0  0
  -31.4310   -8.7559   15.1058 C   0  0  0  0  0  0  0  0  0  0  0  0
  -32.4473   -8.5531   14.1744 C   0  0  0  0  0  0  0  0  0  0  0  0
  -30.4231   -7.8122   15.2476 C   0  0  0  0  0  0  0  0  0  0  0  0
  -30.4167   -6.6735   14.4651 C   0  0  0  0  0  0  0  0  0  0  0  0
  -31.4060   -6.4834   13.5162 C   0  0  0  0  0  0  0  0  0  0  0  0
  -32.4212   -7.4190   13.3650 C   0  0  0  0  0  0  0  0  0  0  0  0
 15 17  2  0  0  0
 15 16  1  0  0  0
 17 18  1  0  0  0
 13 16  1  0  0  0
 13 11  1  0  0  0
  4  9  2  0  0  0
  4  2  1  0  0  0
  9  8  1  0  0  0
 16 20  2  0  0  0
 11  1  1  0  0  0
  2  1  2  0  0  0
  2  3  1  0  0  0
  8  3  1  0  0  0
 18 19  2  0  0  0
  1  6  1  0  0  0
  3  5  2  0  0  0
 20 19  1  0  0  0
  6  7  2  0  0  0
  5  7  1  0  0  0
  8 10  1  0  0  0
 11 12  1  0  0  0
 13 14  1  0  0  0
M  END
> <minimizedAffinity>
-6.23944

$$$$
4IH5_12R_A_601


 20 22  0  0  0  0  0  0  0  0999 V2000
  -33.0346   -9.2561   12.3011 C   0  0  0  0  0  0  0  0  0  0  0  0
  -33.2041   -8.9222   10.9130 C   0  0  0  0  0  0  0  0  0  0  0  0
  -32.9067   -7.5861   10.5794 C   0  0  0  0  0  0  0  0  0  0  0  0
  -33.5562   -9.5239    9.6809 C   0  0  0  0  0  0  0  0  0  0  0  0
  -32.4904   -6.6607   11.4678 N   0  0  0  0  0  0  0  0  0  0  0  0
  -32.6200   -8.3349   13.1932 N   0  0  0  0  0  0  0  0  0  0  0  0
  -32.3699   -7.1089   12.7189 C   0  0  0  0  0  0  0  0  0  0  0  0
  -33.0987   -7.4818    9.2115 N   0  0  0  0  0  0  0  0  0  0  0  0
  -33.4930   -8.6757    8.6740 N   0  0  0  0  0  0  0  0  0  0  0  0
  -32.9681   -6.6550    8.6933 H   0  0  0  0  0  0  0  0  0  0  0  0
  -33.2702  -10.5514   12.7600 N   0  0  0  0  0  0  0  0  0  0  0  0
  -32.4919  -11.0578   13.0871 H   0  0  0  0  0  0  0  0  0  0  0  0
  -34.5206  -11.2038   12.7992 N   0  0  0  0  0  0  0  0  0  0  0  0
  -34.5953  -12.1708   12.6301 H   0  0  0  0  0  0  0  0  0  0  0  0
  -35.8062   -9.8798   14.3630 C   0  0  0  0  0  0  0  0  0  0  0  0
  -35.6604  -10.4244   13.0889 C   0  0  0  0  0  0  0  0  0  0  0  0
  -36.9718   -9.2051   14.6987 C   0  0  0  0  0  0  0  0  0  0  0  0
  -37.9884   -9.0635   13.7737 C   0  0  0  0  0  0  0  0  0  0  0  0
  -37.8349   -9.5746   12.4967 C   0  0  0  0  0  0  0  0  0  0  0  0
  -36.6743  -10.2532   12.1484 C   0  0  0  0  0  0  0  0  0  0  0  0
 15 17  2  0  0  0
 15 16  1  0  0  0
 17 18  1  0  0  0
 13 16  1  0  0  0
 13 11  1  0  0  0
  4  9  2  0  0  0
  4  2  1  0  0  0
  9  8  1  0  0  0
 16 20  2  0  0  0
 11  1  1  0  0  0
  2  1  2  0  0  0
  2  3  1  0  0  0
  8  3  1  0  0  0
 18 19  2  0  0  0
  1  6  1  0  0  0
  3  5  2  0  0  0
 20 19  1  0  0  0
  6  7  2  0  0  0
  5  7  1  0  0  0
  8 10  1  0  0  0
 11 12  1  0  0  0
 13 14  1  0  0  0
M  END
> <minimizedAffinity>
-6.23344

$$$$
4IH5_12R_A_601


 20 22  0  0  0  0  0  0  0  0999 V2000
  -30.7586   -8.2966   14.6268 C   0  0  0  0  0  0  0  0  0  0  0  0
  -31.0867   -9.6368   14.2229 C   0  0  0  0  0  0  0  0  0  0  0  0
  -32.1788   -9.7439   13.3394 C   0  0  0  0  0  0  0  0  0  0  0  0
  -30.6371  -10.9685   14.3919 C   0  0  0  0  0  0  0  0  0  0  0  0
  -32.8875   -8.6909   12.8836 N   0  0  0  0  0  0  0  0  0  0  0  0
  -31.4642   -7.2408   14.1752 N   0  0  0  0  0  0  0  0  0  0  0  0
  -32.4701   -7.5060   13.3335 C   0  0  0  0  0  0  0  0  0  0  0  0
  -32.3065  -11.0928   13.0513 N   0  0  0  0  0  0  0  0  0  0  0  0
  -31.3547  -11.8303   13.6996 N   0  0  0  0  0  0  0  0  0  0  0  0
  -32.9936  -11.4716   12.4567 H   0  0  0  0  0  0  0  0  0  0  0  0
  -29.6830   -8.0482   15.4785 N   0  0  0  0  0  0  0  0  0  0  0  0
  -29.8865   -7.6220   16.3423 H   0  0  0  0  0  0  0  0  0  0  0  0
  -28.3300   -8.3512   15.2174 N   0  0  0  0  0  0  0  0  0  0  0  0
  -27.8978   -9.1379   15.6217 H   0  0  0  0  0  0  0  0  0  0  0  0
  -27.5733   -6.1263   14.6439 C   0  0  0  0  0  0  0  0  0  0  0  0
  -27.6170   -7.4892   14.3576 C   0  0  0  0  0  0  0  0  0  0  0  0
  -26.9719   -5.2500   13.7512 C   0  0  0  0  0  0  0  0  0  0  0  0
  -26.4087   -5.7216   12.5809 C   0  0  0  0  0  0  0  0  0  0  0  0
  -26.4210   -7.0783   12.3077 C   0  0  0  0  0  0  0  0  0  0  0  0
  -27.0209   -7.9658   13.1917 C   0  0  0  0  0  0  0  0  0  0  0  0
 15 17  2  0  0  0
 15 16  1  0  0  0
 17 18  1  0  0  0
 13 16  1  0  0  0
 13 11  1  0  0  0
  4  9  2  0  0  0
  4  2  1  0  0  0
  9  8  1  0  0  0
 16 20  2  0  0  0
 11  1  1  0  0  0
  2  1  2  0  0  0
  2  3  1  0  0  0
  8  3  1  0  0  0
 18 19  2  0  0  0
  1  6  1  0  0  0
  3  5  2  0  0  0
 20 19  1  0  0  0
  6  7  2  0  0  0
  5  7  1  0  0  0
  8 10  1  0  0  0
 11 12  1  0  0  0
 13 14  1  0  0  0
M  END
> <minimizedAffinity>
-6.18285

$$$$
