1ADD_1DA_A_353


 24 26  0  0  0  0  0  0  0  0999 V2000
    8.1993   19.0447   37.4047 C   0  0  0  0  0  0  0  0  0  0  0  0
    7.0498   19.7195   37.9347 O   0  0  0  0  0  0  0  0  0  0  0  0
    7.6433   17.8980   36.5564 C   0  0  0  0  0  0  0  0  0  0  0  0
    8.5312   16.7794   36.4460 O   0  0  0  0  0  0  0  0  0  0  0  0
    6.3525   17.5335   37.2676 C   0  0  0  0  0  0  0  0  0  0  0  0
    6.7531   16.6169   38.2737 O   0  0  0  0  0  0  0  0  0  0  0  0
    5.9643   18.7936   38.0411 C   0  0  0  0  0  0  0  0  0  0  0  0
    8.7271   16.4335   37.3308 H   0  0  0  0  0  0  0  0  0  0  0  0
    7.4466   17.0190   38.8198 H   0  0  0  0  0  0  0  0  0  0  0  0
    4.7303   19.2871   37.5814 N   0  0  0  0  0  0  0  0  0  0  0  0
    4.2588   19.2724   36.3218 C   0  0  0  0  0  0  0  0  0  0  0  0
    3.0128   19.7651   36.2601 N   0  0  0  0  0  0  0  0  0  0  0  0
    2.6729   20.0121   37.5530 C   0  0  0  0  0  0  0  0  0  0  0  0
    1.5208   20.4780   38.1232 C   0  0  0  0  0  0  0  0  0  0  0  0
    0.4246   20.7196   37.3993 N   0  0  0  0  0  0  0  0  0  0  0  0
    1.5134   20.6919   39.4834 C   0  0  0  0  0  0  0  0  0  0  0  0
    2.6442   20.4397   40.2492 C   0  0  0  0  0  0  0  0  0  0  0  0
    3.7451   19.9880   39.6693 N   0  0  0  0  0  0  0  0  0  0  0  0
    3.7453   19.7787   38.3444 C   0  0  0  0  0  0  0  0  0  0  0  0
    0.4330   20.5657   36.4270 H   0  0  0  0  0  0  0  0  0  0  0  0
   -0.3918   21.0516   37.8381 H   0  0  0  0  0  0  0  0  0  0  0  0
   10.3228   19.4483   36.2531 O   0  0  0  0  0  0  0  0  0  0  0  0
    9.0631   20.0216   36.6143 C   0  0  0  0  0  0  0  0  0  0  0  0
   10.8421   20.0976   35.7534 H   0  0  0  0  0  0  0  0  0  0  0  0
 22 23  1  0  0  0
 23  1  1  0  0  0
  1  2  1  0  0  0
  1  3  1  0  0  0
  2  7  1  0  0  0
  3  4  1  0  0  0
  3  5  1  0  0  0
  5  6  1  0  0  0
  5  7  1  0  0  0
  7 10  1  0  0  0
 10 11  1  0  0  0
 10 19  1  0  0  0
 11 12  2  0  0  0
 12 13  1  0  0  0
 13 14  1  0  0  0
 13 19  2  0  0  0
 14 15  1  0  0  0
 14 16  2  0  0  0
 16 17  1  0  0  0
 17 18  2  0  0  0
 18 19  1  0  0  0
 22 24  1  0  0  0
  4  8  1  0  0  0
  6  9  1  0  0  0
 15 20  1  0  0  0
 15 21  1  0  0  0
M  END
> <minimizedAffinity>
-9.51780

$$$$
1ADD_1DA_A_353


 24 26  0  0  0  0  0  0  0  0999 V2000
    4.5048   19.6636   38.3476 C   0  0  0  0  0  0  0  0  0  0  0  0
    5.5031   19.0138   39.1467 O   0  0  0  0  0  0  0  0  0  0  0  0
    4.3961   18.8259   37.0709 C   0  0  0  0  0  0  0  0  0  0  0  0
    3.9586   19.5706   35.9281 O   0  0  0  0  0  0  0  0  0  0  0  0
    5.8017   18.2806   36.8921 C   0  0  0  0  0  0  0  0  0  0  0  0
    6.4866   19.3014   36.1838 O   0  0  0  0  0  0  0  0  0  0  0  0
    6.4155   18.3185   38.2917 C   0  0  0  0  0  0  0  0  0  0  0  0
    4.5773   20.2986   35.7604 H   0  0  0  0  0  0  0  0  0  0  0  0
    6.4081   20.1388   36.6671 H   0  0  0  0  0  0  0  0  0  0  0  0
    6.7377   17.0178   38.7181 N   0  0  0  0  0  0  0  0  0  0  0  0
    6.3622   16.4119   39.8588 C   0  0  0  0  0  0  0  0  0  0  0  0
    6.7948   15.1431   39.9040 N   0  0  0  0  0  0  0  0  0  0  0  0
    7.3877   14.9353   38.6984 C   0  0  0  0  0  0  0  0  0  0  0  0
    7.9733   13.8307   38.1449 C   0  0  0  0  0  0  0  0  0  0  0  0
    7.9823   12.6506   38.7704 N   0  0  0  0  0  0  0  0  0  0  0  0
    8.5593   13.9621   36.9058 C   0  0  0  0  0  0  0  0  0  0  0  0
    8.5525   15.1818   36.2416 C   0  0  0  0  0  0  0  0  0  0  0  0
    7.9769   16.2338   36.8022 N   0  0  0  0  0  0  0  0  0  0  0  0
    7.4051   16.0989   38.0079 C   0  0  0  0  0  0  0  0  0  0  0  0
    7.5625   12.5597   39.6562 H   0  0  0  0  0  0  0  0  0  0  0  0
    8.4087   11.8715   38.3456 H   0  0  0  0  0  0  0  0  0  0  0  0
    3.3639   20.4389   40.3715 O   0  0  0  0  0  0  0  0  0  0  0  0
    3.1951   19.7628   39.1223 C   0  0  0  0  0  0  0  0  0  0  0  0
    2.5121   20.4820   40.8335 H   0  0  0  0  0  0  0  0  0  0  0  0
 22 23  1  0  0  0
 23  1  1  0  0  0
  1  2  1  0  0  0
  1  3  1  0  0  0
  2  7  1  0  0  0
  3  4  1  0  0  0
  3  5  1  0  0  0
  5  6  1  0  0  0
  5  7  1  0  0  0
  7 10  1  0  0  0
 10 11  1  0  0  0
 10 19  1  0  0  0
 11 12  2  0  0  0
 12 13  1  0  0  0
 13 14  1  0  0  0
 13 19  2  0  0  0
 14 15  1  0  0  0
 14 16  2  0  0  0
 16 17  1  0  0  0
 17 18  2  0  0  0
 18 19  1  0  0  0
 22 24  1  0  0  0
  4  8  1  0  0  0
  6  9  1  0  0  0
 15 20  1  0  0  0
 15 21  1  0  0  0
M  END
> <minimizedAffinity>
-7.50369

$$$$
1ADD_1DA_A_353


 24 26  0  0  0  0  0  0  0  0999 V2000
    7.6422   16.8971   36.5725 C   0  0  0  0  0  0  0  0  0  0  0  0
    6.2327   17.1395   36.6816 O   0  0  0  0  0  0  0  0  0  0  0  0
    8.3142   18.0706   37.2902 C   0  0  0  0  0  0  0  0  0  0  0  0
    9.6287   18.3673   36.8044 O   0  0  0  0  0  0  0  0  0  0  0  0
    7.3482   19.2188   37.0589 C   0  0  0  0  0  0  0  0  0  0  0  0
    7.7291   19.7494   35.7995 O   0  0  0  0  0  0  0  0  0  0  0  0
    6.0013   18.5471   36.7912 C   0  0  0  0  0  0  0  0  0  0  0  0
    9.5841   18.5769   35.8584 H   0  0  0  0  0  0  0  0  0  0  0  0
    7.7238   19.0421   35.1357 H   0  0  0  0  0  0  0  0  0  0  0  0
    5.0705   18.9093   37.7811 N   0  0  0  0  0  0  0  0  0  0  0  0
    5.2122   18.8120   39.1152 C   0  0  0  0  0  0  0  0  0  0  0  0
    4.1493   19.3180   39.7581 N   0  0  0  0  0  0  0  0  0  0  0  0
    3.3595   19.8272   38.7758 C   0  0  0  0  0  0  0  0  0  0  0  0
    2.1705   20.5012   38.8148 C   0  0  0  0  0  0  0  0  0  0  0  0
    1.5929   20.8438   39.9694 N   0  0  0  0  0  0  0  0  0  0  0  0
    1.5735   20.8288   37.6180 C   0  0  0  0  0  0  0  0  0  0  0  0
    2.1655   20.4838   36.4100 C   0  0  0  0  0  0  0  0  0  0  0  0
    3.3178   19.8320   36.4036 N   0  0  0  0  0  0  0  0  0  0  0  0
    3.8959   19.5183   37.5725 C   0  0  0  0  0  0  0  0  0  0  0  0
    2.0222   20.6082   40.8235 H   0  0  0  0  0  0  0  0  0  0  0  0
    0.7380   21.3319   39.9664 H   0  0  0  0  0  0  0  0  0  0  0  0
    6.8189   14.7712   37.4678 O   0  0  0  0  0  0  0  0  0  0  0  0
    7.9892   15.5389   37.1727 C   0  0  0  0  0  0  0  0  0  0  0  0
    7.0795   13.9171   37.8466 H   0  0  0  0  0  0  0  0  0  0  0  0
 22 23  1  0  0  0
 23  1  1  0  0  0
  1  2  1  0  0  0
  1  3  1  0  0  0
  2  7  1  0  0  0
  3  4  1  0  0  0
  3  5  1  0  0  0
  5  6  1  0  0  0
  5  7  1  0  0  0
  7 10  1  0  0  0
 10 11  1  0  0  0
 10 19  1  0  0  0
 11 12  2  0  0  0
 12 13  1  0  0  0
 13 14  1  0  0  0
 13 19  2  0  0  0
 14 15  1  0  0  0
 14 16  2  0  0  0
 16 17  1  0  0  0
 17 18  2  0  0  0
 18 19  1  0  0  0
 22 24  1  0  0  0
  4  8  1  0  0  0
  6  9  1  0  0  0
 15 20  1  0  0  0
 15 21  1  0  0  0
M  END
> <minimizedAffinity>
-7.16550

$$$$
1ADD_1DA_A_353


 24 26  0  0  0  0  0  0  0  0999 V2000
    4.9457   19.2746   38.3167 C   0  0  0  0  0  0  0  0  0  0  0  0
    5.9658   18.4677   38.9216 O   0  0  0  0  0  0  0  0  0  0  0  0
    4.7780   18.7235   36.8983 C   0  0  0  0  0  0  0  0  0  0  0  0
    4.3063   19.6929   35.9550 O   0  0  0  0  0  0  0  0  0  0  0  0
    6.1689   18.2221   36.5533 C   0  0  0  0  0  0  0  0  0  0  0  0
    6.8387   19.3659   36.0475 O   0  0  0  0  0  0  0  0  0  0  0  0
    6.8362   17.9633   37.9042 C   0  0  0  0  0  0  0  0  0  0  0  0
    4.9270   20.4374   35.9187 H   0  0  0  0  0  0  0  0  0  0  0  0
    6.7891   20.0837   36.6980 H   0  0  0  0  0  0  0  0  0  0  0  0
    7.1584   16.6009   38.0358 N   0  0  0  0  0  0  0  0  0  0  0  0
    7.4092   15.7185   37.0521 C   0  0  0  0  0  0  0  0  0  0  0  0
    7.7524   14.5196   37.5462 N   0  0  0  0  0  0  0  0  0  0  0  0
    7.7985   14.6995   38.8929 C   0  0  0  0  0  0  0  0  0  0  0  0
    8.1281   13.8568   39.9179 C   0  0  0  0  0  0  0  0  0  0  0  0
    8.5621   12.6133   39.6951 N   0  0  0  0  0  0  0  0  0  0  0  0
    8.0054   14.3269   41.2062 C   0  0  0  0  0  0  0  0  0  0  0  0
    7.5608   15.6194   41.4523 C   0  0  0  0  0  0  0  0  0  0  0  0
    7.2498   16.4130   40.4394 N   0  0  0  0  0  0  0  0  0  0  0  0
    7.3743   15.9504   39.1866 C   0  0  0  0  0  0  0  0  0  0  0  0
    8.6488   12.2800   38.7728 H   0  0  0  0  0  0  0  0  0  0  0  0
    8.7953   12.0301   40.4533 H   0  0  0  0  0  0  0  0  0  0  0  0
    3.5085   20.3764   39.9656 O   0  0  0  0  0  0  0  0  0  0  0  0
    3.6680   19.2145   39.1467 C   0  0  0  0  0  0  0  0  0  0  0  0
    2.6875   20.3015   40.4768 H   0  0  0  0  0  0  0  0  0  0  0  0
 22 23  1  0  0  0
 23  1  1  0  0  0
  1  2  1  0  0  0
  1  3  1  0  0  0
  2  7  1  0  0  0
  3  4  1  0  0  0
  3  5  1  0  0  0
  5  6  1  0  0  0
  5  7  1  0  0  0
  7 10  1  0  0  0
 10 11  1  0  0  0
 10 19  1  0  0  0
 11 12  2  0  0  0
 12 13  1  0  0  0
 13 14  1  0  0  0
 13 19  2  0  0  0
 14 15  1  0  0  0
 14 16  2  0  0  0
 16 17  1  0  0  0
 17 18  2  0  0  0
 18 19  1  0  0  0
 22 24  1  0  0  0
  4  8  1  0  0  0
  6  9  1  0  0  0
 15 20  1  0  0  0
 15 21  1  0  0  0
M  END
> <minimizedAffinity>
-6.72113

$$$$
1ADD_1DA_A_353


 24 26  0  0  0  0  0  0  0  0999 V2000
    2.0215   20.0603   37.9666 C   0  0  0  0  0  0  0  0  0  0  0  0
    3.0597   19.3164   37.3138 O   0  0  0  0  0  0  0  0  0  0  0  0
    2.6587   20.6148   39.2434 C   0  0  0  0  0  0  0  0  0  0  0  0
    1.7223   20.8431   40.3030 O   0  0  0  0  0  0  0  0  0  0  0  0
    3.6850   19.5569   39.6076 C   0  0  0  0  0  0  0  0  0  0  0  0
    2.9545   18.6057   40.3655 O   0  0  0  0  0  0  0  0  0  0  0  0
    3.9865   18.8374   38.2929 C   0  0  0  0  0  0  0  0  0  0  0  0
    1.2756   20.0111   40.5247 H   0  0  0  0  0  0  0  0  0  0  0  0
    2.1883   18.3036   39.8531 H   0  0  0  0  0  0  0  0  0  0  0  0
    5.3390   19.0033   37.9453 N   0  0  0  0  0  0  0  0  0  0  0  0
    6.0661   20.1337   37.9954 C   0  0  0  0  0  0  0  0  0  0  0  0
    7.3444   19.9085   37.6570 N   0  0  0  0  0  0  0  0  0  0  0  0
    7.4236   18.5636   37.4757 C   0  0  0  0  0  0  0  0  0  0  0  0
    8.4714   17.7425   37.1635 C   0  0  0  0  0  0  0  0  0  0  0  0
    9.7183   18.2064   37.0446 N   0  0  0  0  0  0  0  0  0  0  0  0
    8.2099   16.4037   36.9758 C   0  0  0  0  0  0  0  0  0  0  0  0
    6.9192   15.9066   37.1018 C   0  0  0  0  0  0  0  0  0  0  0  0
    5.9247   16.7258   37.4059 N   0  0  0  0  0  0  0  0  0  0  0  0
    6.1861   18.0283   37.5906 C   0  0  0  0  0  0  0  0  0  0  0  0
    9.9021   19.1642   37.1794 H   0  0  0  0  0  0  0  0  0  0  0  0
   10.4535   17.5906   36.8221 H   0  0  0  0  0  0  0  0  0  0  0  0
    0.9446   22.2503   37.7602 O   0  0  0  0  0  0  0  0  0  0  0  0
    1.4863   21.1426   37.0353 C   0  0  0  0  0  0  0  0  0  0  0  0
    0.6155   22.9156   37.1356 H   0  0  0  0  0  0  0  0  0  0  0  0
 22 23  1  0  0  0
 23  1  1  0  0  0
  1  2  1  0  0  0
  1  3  1  0  0  0
  2  7  1  0  0  0
  3  4  1  0  0  0
  3  5  1  0  0  0
  5  6  1  0  0  0
  5  7  1  0  0  0
  7 10  1  0  0  0
 10 11  1  0  0  0
 10 19  1  0  0  0
 11 12  2  0  0  0
 12 13  1  0  0  0
 13 14  1  0  0  0
 13 19  2  0  0  0
 14 15  1  0  0  0
 14 16  2  0  0  0
 16 17  1  0  0  0
 17 18  2  0  0  0
 18 19  1  0  0  0
 22 24  1  0  0  0
  4  8  1  0  0  0
  6  9  1  0  0  0
 15 20  1  0  0  0
 15 21  1  0  0  0
M  END
> <minimizedAffinity>
-6.52655

$$$$
