4N8Q_FA0_A_601


 14 14  0  0  0  0  0  0  0  0999 V2000
  -17.1963  -31.0536   14.1287 C   0  0  0  0  0  0  0  0  0  0  0  0
  -16.8050  -32.3144   13.6483 C   0  0  0  0  0  0  0  0  0  0  0  0
  -17.2432  -33.4854   14.2807 C   0  0  0  0  0  0  0  0  0  0  0  0
  -18.0875  -33.3934   15.3929 C   0  0  0  0  0  0  0  0  0  0  0  0
  -18.5072  -34.5071   16.0324 F   0  0  0  0  0  0  0  0  0  0  0  0
  -18.4800  -32.1426   15.8691 C   0  0  0  0  0  0  0  0  0  0  0  0
  -18.0347  -30.9716   15.2485 C   0  0  0  0  0  0  0  0  0  0  0  0
  -18.4296  -29.7905   15.7343 N   0  0  0  0  0  0  0  0  0  0  0  0
  -19.0189  -29.7544   16.5221 H   0  0  0  0  0  0  0  0  0  0  0  0
  -18.1312  -28.9567   15.3042 H   0  0  0  0  0  0  0  0  0  0  0  0
  -16.2400  -28.8293   14.0627 O   0  0  0  0  0  0  0  0  0  0  0  0
  -16.6987  -29.7917   13.4024 C   0  0  0  0  0  0  0  0  0  0  0  0
  -16.7788  -29.8054   12.1578 O   0  0  0  0  0  0  0  0  0  0  0  0
  -17.1313  -30.5547   11.7193 H   0  0  0  0  0  0  0  0  0  0  0  0
  5  4  1  0  0  0
  4  3  2  0  0  0
  4  6  1  0  0  0
  3  2  1  0  0  0
  6  7  2  0  0  0
  2  1  2  0  0  0
  7  1  1  0  0  0
  7  8  1  0  0  0
  1 12  1  0  0  0
 12 11  2  0  0  0
 12 13  1  0  0  0
 13 14  1  0  0  0
  8  9  1  0  0  0
  8 10  1  0  0  0
M  END
> <minimizedAffinity>
-5.42999

$$$$
4N8Q_FA0_A_601


 14 14  0  0  0  0  0  0  0  0999 V2000
  -18.0618  -35.5109   16.4038 C   0  0  0  0  0  0  0  0  0  0  0  0
  -18.6668  -34.2541   16.5713 C   0  0  0  0  0  0  0  0  0  0  0  0
  -18.3752  -33.2004   15.6950 C   0  0  0  0  0  0  0  0  0  0  0  0
  -17.4821  -33.4100   14.6383 C   0  0  0  0  0  0  0  0  0  0  0  0
  -17.1689  -32.4043   13.7920 F   0  0  0  0  0  0  0  0  0  0  0  0
  -16.8831  -34.6580   14.4684 C   0  0  0  0  0  0  0  0  0  0  0  0
  -17.1618  -35.7083   15.3481 C   0  0  0  0  0  0  0  0  0  0  0  0
  -16.5671  -36.8899   15.1554 N   0  0  0  0  0  0  0  0  0  0  0  0
  -15.9378  -37.0081   14.4076 H   0  0  0  0  0  0  0  0  0  0  0  0
  -16.7584  -37.6419   15.7613 H   0  0  0  0  0  0  0  0  0  0  0  0
  -18.6259  -37.8018   16.9515 O   0  0  0  0  0  0  0  0  0  0  0  0
  -18.4132  -36.6440   17.3837 C   0  0  0  0  0  0  0  0  0  0  0  0
  -18.4609  -36.3328   18.5905 O   0  0  0  0  0  0  0  0  0  0  0  0
  -18.2921  -35.4495   18.8536 H   0  0  0  0  0  0  0  0  0  0  0  0
  5  4  1  0  0  0
  4  3  2  0  0  0
  4  6  1  0  0  0
  3  2  1  0  0  0
  6  7  2  0  0  0
  2  1  2  0  0  0
  7  1  1  0  0  0
  7  8  1  0  0  0
  1 12  1  0  0  0
 12 11  2  0  0  0
 12 13  1  0  0  0
 13 14  1  0  0  0
  8  9  1  0  0  0
  8 10  1  0  0  0
M  END
> <minimizedAffinity>
-5.40983

$$$$
4N8Q_FA0_A_601


 14 14  0  0  0  0  0  0  0  0999 V2000
  -17.5519  -34.9380   15.3941 C   0  0  0  0  0  0  0  0  0  0  0  0
  -17.0071  -34.1383   14.3755 C   0  0  0  0  0  0  0  0  0  0  0  0
  -17.3187  -32.7746   14.2966 C   0  0  0  0  0  0  0  0  0  0  0  0
  -18.1709  -32.2061   15.2499 C   0  0  0  0  0  0  0  0  0  0  0  0
  -18.5028  -30.8980   15.1835 F   0  0  0  0  0  0  0  0  0  0  0  0
  -18.7099  -32.9976   16.2639 C   0  0  0  0  0  0  0  0  0  0  0  0
  -18.4114  -34.3615   16.3387 C   0  0  0  0  0  0  0  0  0  0  0  0
  -18.9484  -35.0892   17.3231 N   0  0  0  0  0  0  0  0  0  0  0  0
  -19.5501  -34.6651   17.9768 H   0  0  0  0  0  0  0  0  0  0  0  0
  -18.7422  -36.0492   17.3943 H   0  0  0  0  0  0  0  0  0  0  0  0
  -18.0271  -37.2723   15.8313 O   0  0  0  0  0  0  0  0  0  0  0  0
  -17.1801  -36.4300   15.4499 C   0  0  0  0  0  0  0  0  0  0  0  0
  -16.0207  -36.7219   15.0945 O   0  0  0  0  0  0  0  0  0  0  0  0
  -15.4314  -36.0476   14.8190 H   0  0  0  0  0  0  0  0  0  0  0  0
  5  4  1  0  0  0
  4  3  2  0  0  0
  4  6  1  0  0  0
  3  2  1  0  0  0
  6  7  2  0  0  0
  2  1  2  0  0  0
  7  1  1  0  0  0
  7  8  1  0  0  0
  1 12  1  0  0  0
 12 11  2  0  0  0
 12 13  1  0  0  0
 13 14  1  0  0  0
  8  9  1  0  0  0
  8 10  1  0  0  0
M  END
> <minimizedAffinity>
-5.38869

$$$$
4N8Q_FA0_A_601


 14 14  0  0  0  0  0  0  0  0999 V2000
  -18.0165  -32.9314   15.5586 C   0  0  0  0  0  0  0  0  0  0  0  0
  -18.3722  -31.6450   15.9972 C   0  0  0  0  0  0  0  0  0  0  0  0
  -17.9873  -30.5119   15.2686 C   0  0  0  0  0  0  0  0  0  0  0  0
  -17.2524  -30.6686   14.0880 C   0  0  0  0  0  0  0  0  0  0  0  0
  -16.8518  -29.5907   13.3785 F   0  0  0  0  0  0  0  0  0  0  0  0
  -16.9014  -31.9450   13.6491 C   0  0  0  0  0  0  0  0  0  0  0  0
  -17.2728  -33.0775   14.3801 C   0  0  0  0  0  0  0  0  0  0  0  0
  -16.9165  -34.2847   13.9299 N   0  0  0  0  0  0  0  0  0  0  0  0
  -16.3939  -34.3659   13.0995 H   0  0  0  0  0  0  0  0  0  0  0  0
  -17.1767  -35.0926   14.4287 H   0  0  0  0  0  0  0  0  0  0  0  0
  -17.7188  -35.1556   16.4701 O   0  0  0  0  0  0  0  0  0  0  0  0
  -18.4639  -34.1507   16.3837 C   0  0  0  0  0  0  0  0  0  0  0  0
  -19.5762  -34.0601   16.9406 O   0  0  0  0  0  0  0  0  0  0  0  0
  -20.0890  -33.2825   16.8393 H   0  0  0  0  0  0  0  0  0  0  0  0
  5  4  1  0  0  0
  4  3  2  0  0  0
  4  6  1  0  0  0
  3  2  1  0  0  0
  6  7  2  0  0  0
  2  1  2  0  0  0
  7  1  1  0  0  0
  7  8  1  0  0  0
  1 12  1  0  0  0
 12 11  2  0  0  0
 12 13  1  0  0  0
 13 14  1  0  0  0
  8  9  1  0  0  0
  8 10  1  0  0  0
M  END
> <minimizedAffinity>
-5.21000

$$$$
4N8Q_FA0_A_601


 14 14  0  0  0  0  0  0  0  0999 V2000
  -17.8672  -29.8063   14.6749 C   0  0  0  0  0  0  0  0  0  0  0  0
  -18.3888  -30.8045   15.5146 C   0  0  0  0  0  0  0  0  0  0  0  0
  -18.0917  -32.1546   15.2864 C   0  0  0  0  0  0  0  0  0  0  0  0
  -17.2583  -32.5059   14.2186 C   0  0  0  0  0  0  0  0  0  0  0  0
  -16.9735  -33.8022   13.9654 F   0  0  0  0  0  0  0  0  0  0  0  0
  -16.7367  -31.5161   13.3859 C   0  0  0  0  0  0  0  0  0  0  0  0
  -17.0409  -30.1688   13.6028 C   0  0  0  0  0  0  0  0  0  0  0  0
  -16.5247  -29.2479   12.7827 N   0  0  0  0  0  0  0  0  0  0  0  0
  -15.9464  -29.5233   12.0351 H   0  0  0  0  0  0  0  0  0  0  0  0
  -16.7230  -28.2943   12.9263 H   0  0  0  0  0  0  0  0  0  0  0  0
  -19.4102  -27.9835   15.0786 O   0  0  0  0  0  0  0  0  0  0  0  0
  -18.2119  -28.3346   14.9628 C   0  0  0  0  0  0  0  0  0  0  0  0
  -17.2451  -27.5545   15.0734 O   0  0  0  0  0  0  0  0  0  0  0  0
  -16.3703  -27.8758   14.9764 H   0  0  0  0  0  0  0  0  0  0  0  0
  5  4  1  0  0  0
  4  3  2  0  0  0
  4  6  1  0  0  0
  3  2  1  0  0  0
  6  7  2  0  0  0
  2  1  2  0  0  0
  7  1  1  0  0  0
  7  8  1  0  0  0
  1 12  1  0  0  0
 12 11  2  0  0  0
 12 13  1  0  0  0
 13 14  1  0  0  0
  8  9  1  0  0  0
  8 10  1  0  0  0
M  END
> <minimizedAffinity>
-5.18966

$$$$
4N8Q_FA0_A_601


 14 14  0  0  0  0  0  0  0  0999 V2000
  -18.2949  -34.0803   16.0216 C   0  0  0  0  0  0  0  0  0  0  0  0
  -18.9556  -34.7692   17.0524 C   0  0  0  0  0  0  0  0  0  0  0  0
  -18.7786  -36.1495   17.2146 C   0  0  0  0  0  0  0  0  0  0  0  0
  -17.9260  -36.8416   16.3471 C   0  0  0  0  0  0  0  0  0  0  0  0
  -17.7546  -38.1762   16.4700 F   0  0  0  0  0  0  0  0  0  0  0  0
  -17.2665  -36.1588   15.3254 C   0  0  0  0  0  0  0  0  0  0  0  0
  -17.4503  -34.7836   15.1525 C   0  0  0  0  0  0  0  0  0  0  0  0
  -16.8034  -34.1632   14.1607 N   0  0  0  0  0  0  0  0  0  0  0  0
  -16.2145  -34.6755   13.5608 H   0  0  0  0  0  0  0  0  0  0  0  0
  -16.9160  -33.1939   14.0302 H   0  0  0  0  0  0  0  0  0  0  0  0
  -18.2766  -31.8050   16.8518 O   0  0  0  0  0  0  0  0  0  0  0  0
  -18.5108  -32.5633   15.8809 C   0  0  0  0  0  0  0  0  0  0  0  0
  -18.9137  -32.1656   14.7696 O   0  0  0  0  0  0  0  0  0  0  0  0
  -19.0715  -32.7809   14.0808 H   0  0  0  0  0  0  0  0  0  0  0  0
  5  4  1  0  0  0
  4  3  2  0  0  0
  4  6  1  0  0  0
  3  2  1  0  0  0
  6  7  2  0  0  0
  2  1  2  0  0  0
  7  1  1  0  0  0
  7  8  1  0  0  0
  1 12  1  0  0  0
 12 11  2  0  0  0
 12 13  1  0  0  0
 13 14  1  0  0  0
  8  9  1  0  0  0
  8 10  1  0  0  0
M  END
> <minimizedAffinity>
-5.06891

$$$$
4N8Q_FA0_A_601


 14 14  0  0  0  0  0  0  0  0999 V2000
  -18.1459  -35.9153   17.0132 C   0  0  0  0  0  0  0  0  0  0  0  0
  -17.1547  -36.1033   16.0356 C   0  0  0  0  0  0  0  0  0  0  0  0
  -16.9152  -35.1212   15.0655 C   0  0  0  0  0  0  0  0  0  0  0  0
  -17.6643  -33.9393   15.0818 C   0  0  0  0  0  0  0  0  0  0  0  0
  -17.4665  -32.9860   14.1449 F   0  0  0  0  0  0  0  0  0  0  0  0
  -18.6464  -33.7494   16.0536 C   0  0  0  0  0  0  0  0  0  0  0  0
  -18.8970  -34.7324   17.0157 C   0  0  0  0  0  0  0  0  0  0  0  0
  -19.8478  -34.5164   17.9303 N   0  0  0  0  0  0  0  0  0  0  0  0
  -20.3645  -33.6785   17.9148 H   0  0  0  0  0  0  0  0  0  0  0  0
  -20.0314  -35.1953   18.6192 H   0  0  0  0  0  0  0  0  0  0  0  0
  -18.2641  -36.7468   19.2850 O   0  0  0  0  0  0  0  0  0  0  0  0
  -18.3739  -37.0150   18.0650 C   0  0  0  0  0  0  0  0  0  0  0  0
  -18.6702  -38.1440   17.6253 O   0  0  0  0  0  0  0  0  0  0  0  0
  -18.7377  -38.2840   16.7013 H   0  0  0  0  0  0  0  0  0  0  0  0
  5  4  1  0  0  0
  4  3  2  0  0  0
  4  6  1  0  0  0
  3  2  1  0  0  0
  6  7  2  0  0  0
  2  1  2  0  0  0
  7  1  1  0  0  0
  7  8  1  0  0  0
  1 12  1  0  0  0
 12 11  2  0  0  0
 12 13  1  0  0  0
 13 14  1  0  0  0
  8  9  1  0  0  0
  8 10  1  0  0  0
M  END
> <minimizedAffinity>
-5.05347

$$$$
4N8Q_FA0_A_601


 14 14  0  0  0  0  0  0  0  0999 V2000
  -17.7836  -28.9767   13.8589 C   0  0  0  0  0  0  0  0  0  0  0  0
  -17.5705  -29.7438   15.0163 C   0  0  0  0  0  0  0  0  0  0  0  0
  -18.4981  -29.7225   16.0661 C   0  0  0  0  0  0  0  0  0  0  0  0
  -19.6512  -28.9379   15.9511 C   0  0  0  0  0  0  0  0  0  0  0  0
  -20.5506  -28.8845   16.9580 F   0  0  0  0  0  0  0  0  0  0  0  0
  -19.8661  -28.1783   14.8014 C   0  0  0  0  0  0  0  0  0  0  0  0
  -18.9367  -28.1872   13.7569 C   0  0  0  0  0  0  0  0  0  0  0  0
  -19.1752  -27.4446   12.6712 N   0  0  0  0  0  0  0  0  0  0  0  0
  -19.9914  -26.8967   12.6191 H   0  0  0  0  0  0  0  0  0  0  0  0
  -18.5345  -27.4457   11.9237 H   0  0  0  0  0  0  0  0  0  0  0  0
  -16.0180  -28.0368   12.4929 O   0  0  0  0  0  0  0  0  0  0  0  0
  -16.7441  -29.0323   12.7257 C   0  0  0  0  0  0  0  0  0  0  0  0
  -16.6806  -30.1032   12.0894 O   0  0  0  0  0  0  0  0  0  0  0  0
  -17.2504  -30.8136   12.3098 H   0  0  0  0  0  0  0  0  0  0  0  0
  5  4  1  0  0  0
  4  3  2  0  0  0
  4  6  1  0  0  0
  3  2  1  0  0  0
  6  7  2  0  0  0
  2  1  2  0  0  0
  7  1  1  0  0  0
  7  8  1  0  0  0
  1 12  1  0  0  0
 12 11  2  0  0  0
 12 13  1  0  0  0
 13 14  1  0  0  0
  8  9  1  0  0  0
  8 10  1  0  0  0
M  END
> <minimizedAffinity>
-5.05222

$$$$
4N8Q_FA0_A_601


 14 14  0  0  0  0  0  0  0  0999 V2000
  -18.3101  -36.7497   16.5269 C   0  0  0  0  0  0  0  0  0  0  0  0
  -19.1524  -35.8542   17.2067 C   0  0  0  0  0  0  0  0  0  0  0  0
  -19.0362  -34.4728   17.0038 C   0  0  0  0  0  0  0  0  0  0  0  0
  -18.0792  -33.9862   16.1062 C   0  0  0  0  0  0  0  0  0  0  0  0
  -17.9337  -32.6575   15.9086 F   0  0  0  0  0  0  0  0  0  0  0  0
  -17.2444  -34.8738   15.4277 C   0  0  0  0  0  0  0  0  0  0  0  0
  -17.3488  -36.2523   15.6369 C   0  0  0  0  0  0  0  0  0  0  0  0
  -16.5301  -37.0725   14.9707 N   0  0  0  0  0  0  0  0  0  0  0  0
  -15.8613  -36.7030   14.3499 H   0  0  0  0  0  0  0  0  0  0  0  0
  -16.5958  -38.0461   15.1009 H   0  0  0  0  0  0  0  0  0  0  0  0
  -18.3377  -38.7241   17.9294 O   0  0  0  0  0  0  0  0  0  0  0  0
  -18.4736  -38.2598   16.7725 C   0  0  0  0  0  0  0  0  0  0  0  0
  -18.7469  -38.9535   15.7727 O   0  0  0  0  0  0  0  0  0  0  0  0
  -18.8362  -38.5492   14.9321 H   0  0  0  0  0  0  0  0  0  0  0  0
  5  4  1  0  0  0
  4  3  2  0  0  0
  4  6  1  0  0  0
  3  2  1  0  0  0
  6  7  2  0  0  0
  2  1  2  0  0  0
  7  1  1  0  0  0
  7  8  1  0  0  0
  1 12  1  0  0  0
 12 11  2  0  0  0
 12 13  1  0  0  0
 13 14  1  0  0  0
  8  9  1  0  0  0
  8 10  1  0  0  0
M  END
> <minimizedAffinity>
-5.03722

$$$$
4N8Q_FA0_A_601


 14 14  0  0  0  0  0  0  0  0999 V2000
  -18.3845  -34.6434   16.2860 C   0  0  0  0  0  0  0  0  0  0  0  0
  -19.3926  -34.8249   17.2475 C   0  0  0  0  0  0  0  0  0  0  0  0
  -19.6204  -36.0870   17.8116 C   0  0  0  0  0  0  0  0  0  0  0  0
  -18.8265  -37.1706   17.4195 C   0  0  0  0  0  0  0  0  0  0  0  0
  -19.0398  -38.4018   17.9335 F   0  0  0  0  0  0  0  0  0  0  0  0
  -17.8229  -36.9916   16.4677 C   0  0  0  0  0  0  0  0  0  0  0  0
  -17.6008  -35.7365   15.8932 C   0  0  0  0  0  0  0  0  0  0  0  0
  -16.6315  -35.6033   14.9823 N   0  0  0  0  0  0  0  0  0  0  0  0
  -16.0919  -36.3839   14.7199 H   0  0  0  0  0  0  0  0  0  0  0  0
  -16.4571  -34.7246   14.5739 H   0  0  0  0  0  0  0  0  0  0  0  0
  -17.8253  -33.1131   14.4938 O   0  0  0  0  0  0  0  0  0  0  0  0
  -18.1617  -33.2403   15.6951 C   0  0  0  0  0  0  0  0  0  0  0  0
  -18.3412  -32.2811   16.4719 O   0  0  0  0  0  0  0  0  0  0  0  0
  -18.5924  -32.4388   17.3608 H   0  0  0  0  0  0  0  0  0  0  0  0
  5  4  1  0  0  0
  4  3  2  0  0  0
  4  6  1  0  0  0
  3  2  1  0  0  0
  6  7  2  0  0  0
  2  1  2  0  0  0
  7  1  1  0  0  0
  7  8  1  0  0  0
  1 12  1  0  0  0
 12 11  2  0  0  0
 12 13  1  0  0  0
 13 14  1  0  0  0
  8  9  1  0  0  0
  8 10  1  0  0  0
M  END
> <minimizedAffinity>
-5.03334

$$$$
