3SJF_JRG_A_1


 35 35  0  0  0  0  0  0  0  0999 V2000
   19.7742   45.2469   44.6298 C   0  0  0  0  0  0  0  0  0  0  0  0
   18.8456   45.7023   43.6039 N   0  0  0  0  0  0  0  0  0  0  0  0
   17.7926   43.7393   43.4050 O   0  0  0  0  0  0  0  0  0  0  0  0
   17.0776   45.4636   42.1671 N   0  0  0  0  0  0  0  0  0  0  0  0
   17.9105   44.9199   43.0668 C   0  0  0  0  0  0  0  0  0  0  0  0
   18.9122   46.6338   43.2923 H   0  0  0  0  0  0  0  0  0  0  0  0
   17.0453   46.4378   42.0288 H   0  0  0  0  0  0  0  0  0  0  0  0
   16.2167   44.5614   41.3959 C   0  0  0  0  0  0  0  0  0  0  0  0
   15.8615   44.5537   38.9990 O   0  0  0  0  0  0  0  0  0  0  0  0
   17.9332   44.8083   39.7167 O   0  0  0  0  0  0  0  0  0  0  0  0
   16.7125   44.6268   39.9152 C   0  0  0  0  0  0  0  0  0  0  0  0
   14.9586   44.4163   39.2081 H   0  0  0  0  0  0  0  0  0  0  0  0
   14.7319   44.9662   41.3893 C   0  0  0  0  0  0  0  0  0  0  0  0
   14.5509   46.3896   41.7492 C   0  0  0  0  0  0  0  0  0  0  0  0
   14.9760   48.2699   40.0133 C   0  0  0  0  0  0  0  0  0  0  0  0
   13.6418   47.1915   40.3728 S   0  0  0  0  0  0  0  0  0  0  0  0
   19.9915   46.4235   45.5845 C   0  0  0  0  0  0  0  0  0  0  0  0
   20.9543   46.3880   46.4245 O   0  0  0  0  0  0  0  0  0  0  0  0
   19.1975   47.3673   45.4044 O   0  0  0  0  0  0  0  0  0  0  0  0
   18.5215   47.2944   44.7597 H   0  0  0  0  0  0  0  0  0  0  0  0
   21.0965   44.9260   43.8643 C   0  0  0  0  0  0  0  0  0  0  0  0
   21.4917   46.0027   42.8370 C   0  0  0  0  0  0  0  0  0  0  0  0
   23.0567   46.0965   42.6863 C   0  0  0  0  0  0  0  0  0  0  0  0
   23.6498   47.5091   42.6040 C   0  0  0  0  0  0  0  0  0  0  0  0
   22.1705   49.4612   43.9001 O   0  0  0  0  0  0  0  0  0  0  0  0
   23.8675   48.0426   43.9683 N   0  0  0  0  0  0  0  0  0  0  0  0
   23.1345   49.0072   44.5256 C   0  0  0  0  0  0  0  0  0  0  0  0
   24.6027   47.6596   44.4993 H   0  0  0  0  0  0  0  0  0  0  0  0
   23.6204   50.3475   51.2984 I   0  0  0  0  0  0  0  0  0  0  0  0
   23.2212   50.9031   48.0362 C   0  0  0  0  0  0  0  0  0  0  0  0
   23.6570   48.6864   48.4647 C   0  0  0  0  0  0  0  0  0  0  0  0
   23.0995   50.6504   46.6382 C   0  0  0  0  0  0  0  0  0  0  0  0
   23.5675   48.3957   47.0573 C   0  0  0  0  0  0  0  0  0  0  0  0
   23.4875   49.9569   49.0771 C   0  0  0  0  0  0  0  0  0  0  0  0
   23.3090   49.3592   46.0662 C   0  0  0  0  0  0  0  0  0  0  0  0
  1 17  1  0  0  0
 17 18  2  0  0  0
 17 19  1  0  0  0
  5  2  1  0  0  0
  2  1  1  0  0  0
 21  1  1  0  0  0
 21 22  1  0  0  0
 15 16  1  0  0  0
 11  9  1  0  0  0
  3  5  2  0  0  0
 25 27  2  0  0  0
 10 11  2  0  0  0
 34 29  1  0  0  0
 32 30  2  0  0  0
 30 34  1  0  0  0
 33 31  1  0  0  0
 31 34  2  0  0  0
 35 32  1  0  0  0
 35 33  2  0  0  0
 23 24  1  0  0  0
 23 22  1  0  0  0
 24 26  1  0  0  0
 16 14  1  0  0  0
 14 13  1  0  0  0
 13  8  1  0  0  0
 26 27  1  0  0  0
  8  4  1  0  0  0
  4  5  1  0  0  0
 11  8  1  0  0  0
 27 35  1  0  0  0
  2  6  1  0  0  0
  9 12  1  0  0  0
 26 28  1  0  0  0
  4  7  1  0  0  0
 19 20  1  0  0  0
M  END
> <minimizedAffinity>
-10.42418

$$$$
3SJF_JRG_A_1


 35 35  0  0  0  0  0  0  0  0999 V2000
   19.7889   45.0082   44.4732 C   0  0  0  0  0  0  0  0  0  0  0  0
   18.8054   45.5311   43.5342 N   0  0  0  0  0  0  0  0  0  0  0  0
   17.7688   43.5739   43.2234 O   0  0  0  0  0  0  0  0  0  0  0  0
   16.9725   45.3822   42.1685 N   0  0  0  0  0  0  0  0  0  0  0  0
   17.8552   44.7802   42.9791 C   0  0  0  0  0  0  0  0  0  0  0  0
   18.8450   46.4861   43.2982 H   0  0  0  0  0  0  0  0  0  0  0  0
   16.9212   46.3638   42.1133 H   0  0  0  0  0  0  0  0  0  0  0  0
   16.0863   44.5324   41.3670 C   0  0  0  0  0  0  0  0  0  0  0  0
   15.7868   44.5762   38.9628 O   0  0  0  0  0  0  0  0  0  0  0  0
   17.8523   44.7051   39.7303 O   0  0  0  0  0  0  0  0  0  0  0  0
   16.6192   44.5896   39.8988 C   0  0  0  0  0  0  0  0  0  0  0  0
   14.8730   44.4868   39.1497 H   0  0  0  0  0  0  0  0  0  0  0  0
   14.6238   45.0105   41.3316 C   0  0  0  0  0  0  0  0  0  0  0  0
   14.5057   46.4388   41.6982 C   0  0  0  0  0  0  0  0  0  0  0  0
   14.8764   48.3213   39.9524 C   0  0  0  0  0  0  0  0  0  0  0  0
   13.5421   47.2662   40.3751 S   0  0  0  0  0  0  0  0  0  0  0  0
   19.6748   45.8484   45.7477 C   0  0  0  0  0  0  0  0  0  0  0  0
   19.4862   47.1096   45.6599 O   0  0  0  0  0  0  0  0  0  0  0  0
   19.7309   45.1771   46.7964 O   0  0  0  0  0  0  0  0  0  0  0  0
   19.8740   44.2521   46.7535 H   0  0  0  0  0  0  0  0  0  0  0  0
   21.1709   45.2547   43.7901 C   0  0  0  0  0  0  0  0  0  0  0  0
   22.3610   44.6802   44.5801 C   0  0  0  0  0  0  0  0  0  0  0  0
   23.6596   44.6250   43.6905 C   0  0  0  0  0  0  0  0  0  0  0  0
   24.8087   45.5538   44.1038 C   0  0  0  0  0  0  0  0  0  0  0  0
   23.8997   47.6805   42.5774 O   0  0  0  0  0  0  0  0  0  0  0  0
   24.2630   46.8410   44.5923 N   0  0  0  0  0  0  0  0  0  0  0  0
   23.8680   47.8400   43.8022 C   0  0  0  0  0  0  0  0  0  0  0  0
   24.1868   46.9677   45.5657 H   0  0  0  0  0  0  0  0  0  0  0  0
   20.4814   53.4030   46.1448 I   0  0  0  0  0  0  0  0  0  0  0  0
   22.9801   51.2458   45.6834 C   0  0  0  0  0  0  0  0  0  0  0  0
   21.0633   50.5528   44.6189 C   0  0  0  0  0  0  0  0  0  0  0  0
   23.7047   50.1170   45.1998 C   0  0  0  0  0  0  0  0  0  0  0  0
   21.7538   49.3866   44.1326 C   0  0  0  0  0  0  0  0  0  0  0  0
   21.6125   51.5832   45.4281 C   0  0  0  0  0  0  0  0  0  0  0  0
   23.0996   49.0907   44.4131 C   0  0  0  0  0  0  0  0  0  0  0  0
  1 17  1  0  0  0
 17 18  2  0  0  0
 17 19  1  0  0  0
  5  2  1  0  0  0
  2  1  1  0  0  0
 21  1  1  0  0  0
 21 22  1  0  0  0
 15 16  1  0  0  0
 11  9  1  0  0  0
  3  5  2  0  0  0
 25 27  2  0  0  0
 10 11  2  0  0  0
 34 29  1  0  0  0
 32 30  2  0  0  0
 30 34  1  0  0  0
 33 31  1  0  0  0
 31 34  2  0  0  0
 35 32  1  0  0  0
 35 33  2  0  0  0
 23 24  1  0  0  0
 23 22  1  0  0  0
 24 26  1  0  0  0
 16 14  1  0  0  0
 14 13  1  0  0  0
 13  8  1  0  0  0
 26 27  1  0  0  0
  8  4  1  0  0  0
  4  5  1  0  0  0
 11  8  1  0  0  0
 27 35  1  0  0  0
  2  6  1  0  0  0
  9 12  1  0  0  0
 26 28  1  0  0  0
  4  7  1  0  0  0
 19 20  1  0  0  0
M  END
> <minimizedAffinity>
-9.00614

$$$$
3SJF_JRG_A_1


 35 35  0  0  0  0  0  0  0  0999 V2000
   22.9123   45.9893   44.7914 C   0  0  0  0  0  0  0  0  0  0  0  0
   23.5328   47.2217   45.2590 N   0  0  0  0  0  0  0  0  0  0  0  0
   21.7675   47.8889   46.4591 O   0  0  0  0  0  0  0  0  0  0  0  0
   23.6111   49.1607   46.4761 N   0  0  0  0  0  0  0  0  0  0  0  0
   22.9216   48.0846   46.0694 C   0  0  0  0  0  0  0  0  0  0  0  0
   24.4486   47.4269   44.9616 H   0  0  0  0  0  0  0  0  0  0  0  0
   24.5809   49.2305   46.3216 H   0  0  0  0  0  0  0  0  0  0  0  0
   22.8751   50.2299   47.1580 C   0  0  0  0  0  0  0  0  0  0  0  0
   21.8435   51.6857   45.5185 O   0  0  0  0  0  0  0  0  0  0  0  0
   23.8864   52.1929   46.1828 O   0  0  0  0  0  0  0  0  0  0  0  0
   22.8747   51.4589   46.1925 C   0  0  0  0  0  0  0  0  0  0  0  0
   21.1144   51.0991   45.5659 H   0  0  0  0  0  0  0  0  0  0  0  0
   23.5226   50.6947   48.4745 C   0  0  0  0  0  0  0  0  0  0  0  0
   23.6453   49.5858   49.4458 C   0  0  0  0  0  0  0  0  0  0  0  0
   22.5651   49.1114   51.7561 C   0  0  0  0  0  0  0  0  0  0  0  0
   23.6592   50.3260   51.1238 S   0  0  0  0  0  0  0  0  0  0  0  0
   24.0335   44.9582   44.6411 C   0  0  0  0  0  0  0  0  0  0  0  0
   23.7419   43.7222   44.4962 O   0  0  0  0  0  0  0  0  0  0  0  0
   25.1749   45.4587   44.6249 O   0  0  0  0  0  0  0  0  0  0  0  0
   25.2833   46.3821   44.7411 H   0  0  0  0  0  0  0  0  0  0  0  0
   22.3170   46.3424   43.3920 C   0  0  0  0  0  0  0  0  0  0  0  0
   20.9002   45.7838   43.1652 C   0  0  0  0  0  0  0  0  0  0  0  0
   20.2660   45.2788   44.5156 C   0  0  0  0  0  0  0  0  0  0  0  0
   18.9183   44.5538   44.4062 C   0  0  0  0  0  0  0  0  0  0  0  0
   17.6626   43.6635   42.1020 O   0  0  0  0  0  0  0  0  0  0  0  0
   18.0052   45.3207   43.5278 N   0  0  0  0  0  0  0  0  0  0  0  0
   17.4542   44.8412   42.4122 C   0  0  0  0  0  0  0  0  0  0  0  0
   17.7907   46.2465   43.7848 H   0  0  0  0  0  0  0  0  0  0  0  0
   12.4673   48.1522   38.9376 I   0  0  0  0  0  0  0  0  0  0  0  0
   15.5149   47.4373   40.0828 C   0  0  0  0  0  0  0  0  0  0  0  0
   13.9350   46.0067   40.9460 C   0  0  0  0  0  0  0  0  0  0  0  0
   16.5627   46.7621   40.7750 C   0  0  0  0  0  0  0  0  0  0  0  0
   14.9618   45.3149   41.6812 C   0  0  0  0  0  0  0  0  0  0  0  0
   14.1190   47.1193   40.0821 C   0  0  0  0  0  0  0  0  0  0  0  0
   16.3234   45.6653   41.6573 C   0  0  0  0  0  0  0  0  0  0  0  0
  1 17  1  0  0  0
 17 18  2  0  0  0
 17 19  1  0  0  0
  5  2  1  0  0  0
  2  1  1  0  0  0
 21  1  1  0  0  0
 21 22  1  0  0  0
 15 16  1  0  0  0
 11  9  1  0  0  0
  3  5  2  0  0  0
 25 27  2  0  0  0
 10 11  2  0  0  0
 34 29  1  0  0  0
 32 30  2  0  0  0
 30 34  1  0  0  0
 33 31  1  0  0  0
 31 34  2  0  0  0
 35 32  1  0  0  0
 35 33  2  0  0  0
 23 24  1  0  0  0
 23 22  1  0  0  0
 24 26  1  0  0  0
 16 14  1  0  0  0
 14 13  1  0  0  0
 13  8  1  0  0  0
 26 27  1  0  0  0
  8  4  1  0  0  0
  4  5  1  0  0  0
 11  8  1  0  0  0
 27 35  1  0  0  0
  2  6  1  0  0  0
  9 12  1  0  0  0
 26 28  1  0  0  0
  4  7  1  0  0  0
 19 20  1  0  0  0
M  END
> <minimizedAffinity>
-8.59530

$$$$
3SJF_JRG_A_1


 35 35  0  0  0  0  0  0  0  0999 V2000
   25.1425   46.1053   44.6430 C   0  0  0  0  0  0  0  0  0  0  0  0
   24.8659   47.5343   44.7053 N   0  0  0  0  0  0  0  0  0  0  0  0
   23.4605   47.3882   46.4389 O   0  0  0  0  0  0  0  0  0  0  0  0
   23.9122   49.4151   45.5997 N   0  0  0  0  0  0  0  0  0  0  0  0
   24.0501   48.0811   45.6056 C   0  0  0  0  0  0  0  0  0  0  0  0
   25.3032   48.1248   44.0501 H   0  0  0  0  0  0  0  0  0  0  0  0
   24.5120   49.9852   45.0663 H   0  0  0  0  0  0  0  0  0  0  0  0
   22.8400   49.9978   46.4127 C   0  0  0  0  0  0  0  0  0  0  0  0
   22.7162   52.2459   45.5171 O   0  0  0  0  0  0  0  0  0  0  0  0
   21.1701   50.8097   44.8701 O   0  0  0  0  0  0  0  0  0  0  0  0
   22.1772   51.1155   45.5443 C   0  0  0  0  0  0  0  0  0  0  0  0
   23.4708   52.4179   46.0452 H   0  0  0  0  0  0  0  0  0  0  0  0
   23.3305   50.6687   47.7080 C   0  0  0  0  0  0  0  0  0  0  0  0
   23.2638   49.7454   48.8620 C   0  0  0  0  0  0  0  0  0  0  0  0
   23.0105   49.4589   51.4277 C   0  0  0  0  0  0  0  0  0  0  0  0
   23.5923   50.7320   50.3728 S   0  0  0  0  0  0  0  0  0  0  0  0
   26.6100   45.9556   44.2344 C   0  0  0  0  0  0  0  0  0  0  0  0
   27.3476   45.0956   44.8262 O   0  0  0  0  0  0  0  0  0  0  0  0
   26.9423   46.6901   43.2838 O   0  0  0  0  0  0  0  0  0  0  0  0
   26.3237   47.2912   42.9177 H   0  0  0  0  0  0  0  0  0  0  0  0
   24.2127   45.5626   43.5123 C   0  0  0  0  0  0  0  0  0  0  0  0
   23.6707   44.1475   43.7851 C   0  0  0  0  0  0  0  0  0  0  0  0
   23.8004   43.7738   45.3096 C   0  0  0  0  0  0  0  0  0  0  0  0
   22.5657   43.1394   45.9631 C   0  0  0  0  0  0  0  0  0  0  0  0
   20.6441   45.1034   46.3223 O   0  0  0  0  0  0  0  0  0  0  0  0
   21.3700   43.3893   45.1257 N   0  0  0  0  0  0  0  0  0  0  0  0
   20.4640   44.3368   45.3702 C   0  0  0  0  0  0  0  0  0  0  0  0
   21.2350   42.8177   44.3356 H   0  0  0  0  0  0  0  0  0  0  0  0
   15.6124   45.4601   40.5635 I   0  0  0  0  0  0  0  0  0  0  0  0
   18.4255   45.8739   42.3028 C   0  0  0  0  0  0  0  0  0  0  0  0
   17.1527   44.1599   43.1573 C   0  0  0  0  0  0  0  0  0  0  0  0
   19.4473   45.6519   43.2722 C   0  0  0  0  0  0  0  0  0  0  0  0
   18.1502   43.9218   44.1681 C   0  0  0  0  0  0  0  0  0  0  0  0
   17.2031   45.1473   42.1372 C   0  0  0  0  0  0  0  0  0  0  0  0
   19.3368   44.6651   44.2981 C   0  0  0  0  0  0  0  0  0  0  0  0
  1 17  1  0  0  0
 17 18  2  0  0  0
 17 19  1  0  0  0
  5  2  1  0  0  0
  2  1  1  0  0  0
 21  1  1  0  0  0
 21 22  1  0  0  0
 15 16  1  0  0  0
 11  9  1  0  0  0
  3  5  2  0  0  0
 25 27  2  0  0  0
 10 11  2  0  0  0
 34 29  1  0  0  0
 32 30  2  0  0  0
 30 34  1  0  0  0
 33 31  1  0  0  0
 31 34  2  0  0  0
 35 32  1  0  0  0
 35 33  2  0  0  0
 23 24  1  0  0  0
 23 22  1  0  0  0
 24 26  1  0  0  0
 16 14  1  0  0  0
 14 13  1  0  0  0
 13  8  1  0  0  0
 26 27  1  0  0  0
  8  4  1  0  0  0
  4  5  1  0  0  0
 11  8  1  0  0  0
 27 35  1  0  0  0
  2  6  1  0  0  0
  9 12  1  0  0  0
 26 28  1  0  0  0
  4  7  1  0  0  0
 19 20  1  0  0  0
M  END
> <minimizedAffinity>
-8.27621

$$$$
