4JYB_GNP_A_401


 42 44  0  0  0  0  0  0  0  0999 V2000
   62.4820    2.1946   47.5276 C   0  0  0  0  0  0  0  0  0  0  0  0
   63.4932    3.1359   47.1711 O   0  0  0  0  0  0  0  0  0  0  0  0
   62.8889    1.6028   48.8734 C   0  0  0  0  0  0  0  0  0  0  0  0
   63.6367    0.3964   48.6753 O   0  0  0  0  0  0  0  0  0  0  0  0
   63.7869    2.6414   49.4878 C   0  0  0  0  0  0  0  0  0  0  0  0
   64.8057    2.1374   50.3624 O   0  0  0  0  0  0  0  0  0  0  0  0
   64.4348    3.2230   48.2483 C   0  0  0  0  0  0  0  0  0  0  0  0
   64.4128    0.5839   48.1245 H   0  0  0  0  0  0  0  0  0  0  0  0
   65.3667    1.5115   49.8784 H   0  0  0  0  0  0  0  0  0  0  0  0
   64.8789    4.6020   48.5287 N   0  0  0  0  0  0  0  0  0  0  0  0
   64.2026    5.7703   48.4013 C   0  0  0  0  0  0  0  0  0  0  0  0
   64.9907    6.8190   48.7785 N   0  0  0  0  0  0  0  0  0  0  0  0
   66.1831    6.3097   49.1728 C   0  0  0  0  0  0  0  0  0  0  0  0
   67.4531    6.8323   49.7042 C   0  0  0  0  0  0  0  0  0  0  0  0
   67.6243    8.0659   49.8631 O   0  0  0  0  0  0  0  0  0  0  0  0
   68.4306    5.9372   49.9876 N   0  0  0  0  0  0  0  0  0  0  0  0
   68.2542    4.6078   49.8074 C   0  0  0  0  0  0  0  0  0  0  0  0
   69.2298    3.7379   50.0885 N   0  0  0  0  0  0  0  0  0  0  0  0
   67.1078    4.0628   49.3345 N   0  0  0  0  0  0  0  0  0  0  0  0
   66.0801    4.8578   49.0061 C   0  0  0  0  0  0  0  0  0  0  0  0
   69.2926    6.2632   50.3341 H   0  0  0  0  0  0  0  0  0  0  0  0
   70.0923    4.0611   50.4364 H   0  0  0  0  0  0  0  0  0  0  0  0
   69.0858    2.7743   49.9477 H   0  0  0  0  0  0  0  0  0  0  0  0
   61.1482    2.9009   47.6009 C   0  0  0  0  0  0  0  0  0  0  0  0
   60.8157    3.3848   46.2934 O   0  0  0  0  0  0  0  0  0  0  0  0
   59.7473    4.5663   46.1534 P   0  0  0  0  0  0  0  0  0  0  0  0
   59.8310    5.4296   47.4064 O   0  0  0  0  0  0  0  0  0  0  0  0
   58.4359    4.0024   45.7132 O   0  0  0  0  0  0  0  0  0  0  0  0
   57.7879    4.7191   45.6282 H   0  0  0  0  0  0  0  0  0  0  0  0
   60.4428    5.3189   44.8998 O   0  0  0  0  0  0  0  0  0  0  0  0
   59.8504    5.3986   43.4027 P   0  0  0  0  0  0  0  0  0  0  0  0
   59.5267    4.0130   42.9737 O   0  0  0  0  0  0  0  0  0  0  0  0
   60.9789    6.0066   42.4717 O   0  0  0  0  0  0  0  0  0  0  0  0
   60.6495    6.0666   41.5614 H   0  0  0  0  0  0  0  0  0  0  0  0
   58.3730    6.3183   43.3983 N   0  0  0  0  0  0  0  0  0  0  0  0
   58.1223    6.4619   44.3765 H   0  0  0  0  0  0  0  0  0  0  0  0
   56.9060    5.7299   42.5890 P   0  0  0  0  0  0  0  0  0  0  0  0
   55.9220    6.8368   42.5939 O   0  0  0  0  0  0  0  0  0  0  0  0
   56.2481    4.4694   43.3521 O   0  0  0  0  0  0  0  0  0  0  0  0
   57.2738    5.2548   41.0862 O   0  0  0  0  0  0  0  0  0  0  0  0
   55.4526    4.1828   42.8767 H   0  0  0  0  0  0  0  0  0  0  0  0
   56.4728    4.9333   40.6435 H   0  0  0  0  0  0  0  0  0  0  0  0
 37 38  2  0  0  0
 37 39  1  0  0  0
 37 40  1  0  0  0
 37 35  1  0  0  0
 35 31  1  0  0  0
 31 32  2  0  0  0
 31 33  1  0  0  0
 31 30  1  0  0  0
 30 26  1  0  0  0
 26 27  2  0  0  0
 26 28  1  0  0  0
 26 25  1  0  0  0
 25 24  1  0  0  0
 24  1  1  0  0  0
  1  2  1  0  0  0
  1  3  1  0  0  0
  2  7  1  0  0  0
  3  4  1  0  0  0
  3  5  1  0  0  0
  5  6  1  0  0  0
  5  7  1  0  0  0
  7 10  1  0  0  0
 10 11  1  0  0  0
 10 20  1  0  0  0
 11 12  2  0  0  0
 12 13  1  0  0  0
 13 14  1  0  0  0
 13 20  2  0  0  0
 14 15  2  0  0  0
 14 16  1  0  0  0
 16 17  1  0  0  0
 17 18  1  0  0  0
 17 19  2  0  0  0
 19 20  1  0  0  0
 39 41  1  0  0  0
 40 42  1  0  0  0
 35 36  1  0  0  0
 33 34  1  0  0  0
 28 29  1  0  0  0
  4  8  1  0  0  0
  6  9  1  0  0  0
 16 21  1  0  0  0
 18 22  1  0  0  0
 18 23  1  0  0  0
M  END
> <minimizedAffinity>
-9.80545

$$$$
4JYB_GNP_A_401


 42 44  0  0  0  0  0  0  0  0999 V2000
   62.7715    2.6177   46.5684 C   0  0  0  0  0  0  0  0  0  0  0  0
   63.9800    3.3707   46.6588 O   0  0  0  0  0  0  0  0  0  0  0  0
   62.4366    2.1547   47.9828 C   0  0  0  0  0  0  0  0  0  0  0  0
   62.9778    0.8481   48.2146 O   0  0  0  0  0  0  0  0  0  0  0  0
   63.1342    3.1408   48.8791 C   0  0  0  0  0  0  0  0  0  0  0  0
   63.5613    2.6270   50.1482 O   0  0  0  0  0  0  0  0  0  0  0  0
   64.3503    3.4738   48.0397 C   0  0  0  0  0  0  0  0  0  0  0  0
   63.9365    0.8645   48.0676 H   0  0  0  0  0  0  0  0  0  0  0  0
   64.1625    1.8788   50.0084 H   0  0  0  0  0  0  0  0  0  0  0  0
   64.8529    4.8099   48.4136 N   0  0  0  0  0  0  0  0  0  0  0  0
   64.2365    6.0157   48.3437 C   0  0  0  0  0  0  0  0  0  0  0  0
   65.0644    6.9996   48.8014 N   0  0  0  0  0  0  0  0  0  0  0  0
   66.2212    6.4094   49.1891 C   0  0  0  0  0  0  0  0  0  0  0  0
   67.5014    6.8359   49.7787 C   0  0  0  0  0  0  0  0  0  0  0  0
   67.7274    8.0478   50.0166 O   0  0  0  0  0  0  0  0  0  0  0  0
   68.4278    5.8783   50.0276 N   0  0  0  0  0  0  0  0  0  0  0  0
   68.1924    4.5725   49.7624 C   0  0  0  0  0  0  0  0  0  0  0  0
   69.1181    3.6403   50.0105 N   0  0  0  0  0  0  0  0  0  0  0  0
   67.0331    4.1141   49.2325 N   0  0  0  0  0  0  0  0  0  0  0  0
   66.0529    4.9771   48.9315 C   0  0  0  0  0  0  0  0  0  0  0  0
   69.2956    6.1400   50.4118 H   0  0  0  0  0  0  0  0  0  0  0  0
   69.9863    3.8990   50.3959 H   0  0  0  0  0  0  0  0  0  0  0  0
   68.9317    2.6951   49.8077 H   0  0  0  0  0  0  0  0  0  0  0  0
   61.6836    3.4906   45.9871 C   0  0  0  0  0  0  0  0  0  0  0  0
   60.4348    3.1237   46.5871 O   0  0  0  0  0  0  0  0  0  0  0  0
   59.4113    4.2765   47.0122 P   0  0  0  0  0  0  0  0  0  0  0  0
   59.7077    5.5074   46.1641 O   0  0  0  0  0  0  0  0  0  0  0  0
   59.3689    4.3803   48.5019 O   0  0  0  0  0  0  0  0  0  0  0  0
   58.7481    5.0796   48.7597 H   0  0  0  0  0  0  0  0  0  0  0  0
   58.0609    3.5463   46.4979 O   0  0  0  0  0  0  0  0  0  0  0  0
   57.5919    3.4076   44.9619 P   0  0  0  0  0  0  0  0  0  0  0  0
   56.5477    4.4363   44.7167 O   0  0  0  0  0  0  0  0  0  0  0  0
   56.9814    1.9577   44.7754 O   0  0  0  0  0  0  0  0  0  0  0  0
   56.6896    1.8453   43.8572 H   0  0  0  0  0  0  0  0  0  0  0  0
   58.9305    3.7418   43.9012 N   0  0  0  0  0  0  0  0  0  0  0  0
   59.7746    3.6402   44.4647 H   0  0  0  0  0  0  0  0  0  0  0  0
   59.0848    5.2911   43.0474 P   0  0  0  0  0  0  0  0  0  0  0  0
   58.6010    5.0851   41.6628 O   0  0  0  0  0  0  0  0  0  0  0  0
   60.6139    5.8017   42.9745 O   0  0  0  0  0  0  0  0  0  0  0  0
   58.2274    6.4222   43.8251 O   0  0  0  0  0  0  0  0  0  0  0  0
   60.6500    6.6478   42.5015 H   0  0  0  0  0  0  0  0  0  0  0  0
   58.3114    7.2689   43.3592 H   0  0  0  0  0  0  0  0  0  0  0  0
 37 38  2  0  0  0
 37 39  1  0  0  0
 37 40  1  0  0  0
 37 35  1  0  0  0
 35 31  1  0  0  0
 31 32  2  0  0  0
 31 33  1  0  0  0
 31 30  1  0  0  0
 30 26  1  0  0  0
 26 27  2  0  0  0
 26 28  1  0  0  0
 26 25  1  0  0  0
 25 24  1  0  0  0
 24  1  1  0  0  0
  1  2  1  0  0  0
  1  3  1  0  0  0
  2  7  1  0  0  0
  3  4  1  0  0  0
  3  5  1  0  0  0
  5  6  1  0  0  0
  5  7  1  0  0  0
  7 10  1  0  0  0
 10 11  1  0  0  0
 10 20  1  0  0  0
 11 12  2  0  0  0
 12 13  1  0  0  0
 13 14  1  0  0  0
 13 20  2  0  0  0
 14 15  2  0  0  0
 14 16  1  0  0  0
 16 17  1  0  0  0
 17 18  1  0  0  0
 17 19  2  0  0  0
 19 20  1  0  0  0
 39 41  1  0  0  0
 40 42  1  0  0  0
 35 36  1  0  0  0
 33 34  1  0  0  0
 28 29  1  0  0  0
  4  8  1  0  0  0
  6  9  1  0  0  0
 16 21  1  0  0  0
 18 22  1  0  0  0
 18 23  1  0  0  0
M  END
> <minimizedAffinity>
-9.43967

$$$$
4JYB_GNP_A_401


 42 44  0  0  0  0  0  0  0  0999 V2000
   62.4435    2.8593   46.6275 C   0  0  0  0  0  0  0  0  0  0  0  0
   63.5987    3.6918   46.5370 O   0  0  0  0  0  0  0  0  0  0  0  0
   62.5067    2.1679   47.9858 C   0  0  0  0  0  0  0  0  0  0  0  0
   63.1485    0.8927   47.8601 O   0  0  0  0  0  0  0  0  0  0  0  0
   63.3664    3.0687   48.8296 C   0  0  0  0  0  0  0  0  0  0  0  0
   64.1297    2.4137   49.8520 O   0  0  0  0  0  0  0  0  0  0  0  0
   64.3079    3.6237   47.7808 C   0  0  0  0  0  0  0  0  0  0  0  0
   64.0350    1.0124   47.4848 H   0  0  0  0  0  0  0  0  0  0  0  0
   64.7080    1.7483   49.4475 H   0  0  0  0  0  0  0  0  0  0  0  0
   64.8284    4.9289   48.2311 N   0  0  0  0  0  0  0  0  0  0  0  0
   64.2489    6.1539   48.1819 C   0  0  0  0  0  0  0  0  0  0  0  0
   65.0808    7.0948   48.7164 N   0  0  0  0  0  0  0  0  0  0  0  0
   66.2018    6.4566   49.1324 C   0  0  0  0  0  0  0  0  0  0  0  0
   67.4640    6.8225   49.7966 C   0  0  0  0  0  0  0  0  0  0  0  0
   67.7114    8.0171   50.0934 O   0  0  0  0  0  0  0  0  0  0  0  0
   68.3515    5.8295   50.0486 N   0  0  0  0  0  0  0  0  0  0  0  0
   68.0935    4.5424   49.7203 C   0  0  0  0  0  0  0  0  0  0  0  0
   68.9810    3.5748   49.9724 N   0  0  0  0  0  0  0  0  0  0  0  0
   66.9483    4.1389   49.1198 N   0  0  0  0  0  0  0  0  0  0  0  0
   66.0070    5.0409   48.8096 C   0  0  0  0  0  0  0  0  0  0  0  0
   69.2071    6.0507   50.4824 H   0  0  0  0  0  0  0  0  0  0  0  0
   69.8369    3.7930   50.4073 H   0  0  0  0  0  0  0  0  0  0  0  0
   68.7787    2.6441   49.7233 H   0  0  0  0  0  0  0  0  0  0  0  0
   61.2037    3.7112   46.4843 C   0  0  0  0  0  0  0  0  0  0  0  0
   60.7838    3.6793   45.1143 O   0  0  0  0  0  0  0  0  0  0  0  0
   60.0763    4.9705   44.4906 P   0  0  0  0  0  0  0  0  0  0  0  0
   60.9285    5.4597   43.3259 O   0  0  0  0  0  0  0  0  0  0  0  0
   59.6925    5.9075   45.5890 O   0  0  0  0  0  0  0  0  0  0  0  0
   59.2633    6.6907   45.2106 H   0  0  0  0  0  0  0  0  0  0  0  0
   58.7454    4.2271   43.9453 O   0  0  0  0  0  0  0  0  0  0  0  0
   57.4459    4.9548   43.3287 P   0  0  0  0  0  0  0  0  0  0  0  0
   57.6029    6.4162   43.5491 O   0  0  0  0  0  0  0  0  0  0  0  0
   56.1781    4.4195   44.1138 O   0  0  0  0  0  0  0  0  0  0  0  0
   55.3785    4.8418   43.7628 H   0  0  0  0  0  0  0  0  0  0  0  0
   57.3705    4.6783   41.6122 N   0  0  0  0  0  0  0  0  0  0  0  0
   58.2153    5.0924   41.2182 H   0  0  0  0  0  0  0  0  0  0  0  0
   56.0180    5.2720   40.6265 P   0  0  0  0  0  0  0  0  0  0  0  0
   55.3185    4.0891   40.0741 O   0  0  0  0  0  0  0  0  0  0  0  0
   56.5135    6.1847   39.3913 O   0  0  0  0  0  0  0  0  0  0  0  0
   55.0403    6.1785   41.5439 O   0  0  0  0  0  0  0  0  0  0  0  0
   55.7443    6.4856   38.8827 H   0  0  0  0  0  0  0  0  0  0  0  0
   54.3013    6.5031   41.0059 H   0  0  0  0  0  0  0  0  0  0  0  0
 37 38  2  0  0  0
 37 39  1  0  0  0
 37 40  1  0  0  0
 37 35  1  0  0  0
 35 31  1  0  0  0
 31 32  2  0  0  0
 31 33  1  0  0  0
 31 30  1  0  0  0
 30 26  1  0  0  0
 26 27  2  0  0  0
 26 28  1  0  0  0
 26 25  1  0  0  0
 25 24  1  0  0  0
 24  1  1  0  0  0
  1  2  1  0  0  0
  1  3  1  0  0  0
  2  7  1  0  0  0
  3  4  1  0  0  0
  3  5  1  0  0  0
  5  6  1  0  0  0
  5  7  1  0  0  0
  7 10  1  0  0  0
 10 11  1  0  0  0
 10 20  1  0  0  0
 11 12  2  0  0  0
 12 13  1  0  0  0
 13 14  1  0  0  0
 13 20  2  0  0  0
 14 15  2  0  0  0
 14 16  1  0  0  0
 16 17  1  0  0  0
 17 18  1  0  0  0
 17 19  2  0  0  0
 19 20  1  0  0  0
 39 41  1  0  0  0
 40 42  1  0  0  0
 35 36  1  0  0  0
 33 34  1  0  0  0
 28 29  1  0  0  0
  4  8  1  0  0  0
  6  9  1  0  0  0
 16 21  1  0  0  0
 18 22  1  0  0  0
 18 23  1  0  0  0
M  END
> <minimizedAffinity>
-9.33741

$$$$
4JYB_GNP_A_401


 42 44  0  0  0  0  0  0  0  0999 V2000
   62.4424    2.9522   46.5874 C   0  0  0  0  0  0  0  0  0  0  0  0
   63.6294    3.7424   46.5375 O   0  0  0  0  0  0  0  0  0  0  0  0
   62.4183    2.2835   47.9583 C   0  0  0  0  0  0  0  0  0  0  0  0
   63.0195    0.9847   47.8835 O   0  0  0  0  0  0  0  0  0  0  0  0
   63.2695    3.1689   48.8265 C   0  0  0  0  0  0  0  0  0  0  0  0
   63.9610    2.5063   49.8941 O   0  0  0  0  0  0  0  0  0  0  0  0
   64.2776    3.6719   47.8140 C   0  0  0  0  0  0  0  0  0  0  0  0
   63.9260    1.0669   47.5482 H   0  0  0  0  0  0  0  0  0  0  0  0
   64.5334    1.8140   49.5280 H   0  0  0  0  0  0  0  0  0  0  0  0
   64.8228    4.9662   48.2668 N   0  0  0  0  0  0  0  0  0  0  0  0
   64.2673    6.2023   48.2185 C   0  0  0  0  0  0  0  0  0  0  0  0
   65.1167    7.1261   48.7554 N   0  0  0  0  0  0  0  0  0  0  0  0
   66.2244    6.4656   49.1720 C   0  0  0  0  0  0  0  0  0  0  0  0
   67.4926    6.8060   49.8385 C   0  0  0  0  0  0  0  0  0  0  0  0
   67.7629    7.9951   50.1373 O   0  0  0  0  0  0  0  0  0  0  0  0
   68.3602    5.7955   50.0903 N   0  0  0  0  0  0  0  0  0  0  0  0
   68.0776    4.5141   49.7599 C   0  0  0  0  0  0  0  0  0  0  0  0
   68.9458    3.5291   50.0119 N   0  0  0  0  0  0  0  0  0  0  0  0
   66.9256    4.1338   49.1573 N   0  0  0  0  0  0  0  0  0  0  0  0
   66.0025    5.0545   48.8470 C   0  0  0  0  0  0  0  0  0  0  0  0
   69.2194    5.9995   50.5255 H   0  0  0  0  0  0  0  0  0  0  0  0
   69.8052    3.7300   50.4483 H   0  0  0  0  0  0  0  0  0  0  0  0
   68.7258    2.6028   49.7612 H   0  0  0  0  0  0  0  0  0  0  0  0
   61.2416    3.8440   46.3725 C   0  0  0  0  0  0  0  0  0  0  0  0
   61.4106    4.5465   45.1347 O   0  0  0  0  0  0  0  0  0  0  0  0
   60.1231    4.8590   44.2393 P   0  0  0  0  0  0  0  0  0  0  0  0
   60.5710    5.6873   43.0411 O   0  0  0  0  0  0  0  0  0  0  0  0
   59.0124    5.3398   45.1148 O   0  0  0  0  0  0  0  0  0  0  0  0
   58.2314    5.5294   44.5716 H   0  0  0  0  0  0  0  0  0  0  0  0
   59.8155    3.3341   43.7902 O   0  0  0  0  0  0  0  0  0  0  0  0
   58.6255    2.8629   42.8102 P   0  0  0  0  0  0  0  0  0  0  0  0
   59.1523    1.7629   41.9611 O   0  0  0  0  0  0  0  0  0  0  0  0
   58.2269    4.1030   41.9084 O   0  0  0  0  0  0  0  0  0  0  0  0
   57.5103    3.8480   41.3065 H   0  0  0  0  0  0  0  0  0  0  0  0
   57.3029    2.2286   43.7466 N   0  0  0  0  0  0  0  0  0  0  0  0
   56.9398    1.4306   43.2252 H   0  0  0  0  0  0  0  0  0  0  0  0
   55.8970    3.2246   44.1762 P   0  0  0  0  0  0  0  0  0  0  0  0
   55.6265    4.1271   43.0334 O   0  0  0  0  0  0  0  0  0  0  0  0
   56.1654    4.1340   45.4820 O   0  0  0  0  0  0  0  0  0  0  0  0
   54.6351    2.2640   44.4995 O   0  0  0  0  0  0  0  0  0  0  0  0
   55.3738    4.6590   45.6787 H   0  0  0  0  0  0  0  0  0  0  0  0
   53.8668    2.8075   44.7342 H   0  0  0  0  0  0  0  0  0  0  0  0
 37 38  2  0  0  0
 37 39  1  0  0  0
 37 40  1  0  0  0
 37 35  1  0  0  0
 35 31  1  0  0  0
 31 32  2  0  0  0
 31 33  1  0  0  0
 31 30  1  0  0  0
 30 26  1  0  0  0
 26 27  2  0  0  0
 26 28  1  0  0  0
 26 25  1  0  0  0
 25 24  1  0  0  0
 24  1  1  0  0  0
  1  2  1  0  0  0
  1  3  1  0  0  0
  2  7  1  0  0  0
  3  4  1  0  0  0
  3  5  1  0  0  0
  5  6  1  0  0  0
  5  7  1  0  0  0
  7 10  1  0  0  0
 10 11  1  0  0  0
 10 20  1  0  0  0
 11 12  2  0  0  0
 12 13  1  0  0  0
 13 14  1  0  0  0
 13 20  2  0  0  0
 14 15  2  0  0  0
 14 16  1  0  0  0
 16 17  1  0  0  0
 17 18  1  0  0  0
 17 19  2  0  0  0
 19 20  1  0  0  0
 39 41  1  0  0  0
 40 42  1  0  0  0
 35 36  1  0  0  0
 33 34  1  0  0  0
 28 29  1  0  0  0
  4  8  1  0  0  0
  6  9  1  0  0  0
 16 21  1  0  0  0
 18 22  1  0  0  0
 18 23  1  0  0  0
M  END
> <minimizedAffinity>
-8.83175

$$$$
4JYB_GNP_A_401


 42 44  0  0  0  0  0  0  0  0999 V2000
   56.4438    3.0159   46.0552 C   0  0  0  0  0  0  0  0  0  0  0  0
   56.4522    3.9025   44.9373 O   0  0  0  0  0  0  0  0  0  0  0  0
   55.4769    1.8870   45.7121 C   0  0  0  0  0  0  0  0  0  0  0  0
   54.1697    2.1876   46.2169 O   0  0  0  0  0  0  0  0  0  0  0  0
   55.4307    1.8718   44.2088 C   0  0  0  0  0  0  0  0  0  0  0  0
   54.1923    1.4332   43.6334 O   0  0  0  0  0  0  0  0  0  0  0  0
   55.6298    3.3424   43.9054 C   0  0  0  0  0  0  0  0  0  0  0  0
   53.8677    3.0330   45.8496 H   0  0  0  0  0  0  0  0  0  0  0  0
   53.4715    2.0027   43.9449 H   0  0  0  0  0  0  0  0  0  0  0  0
   56.2031    3.4907   42.5538 N   0  0  0  0  0  0  0  0  0  0  0  0
   56.9410    2.6152   41.8274 C   0  0  0  0  0  0  0  0  0  0  0  0
   57.2626    3.1557   40.6159 N   0  0  0  0  0  0  0  0  0  0  0  0
   56.7032    4.3889   40.5600 C   0  0  0  0  0  0  0  0  0  0  0  0
   56.6210    5.4895   39.5852 C   0  0  0  0  0  0  0  0  0  0  0  0
   57.1992    5.4082   38.4736 O   0  0  0  0  0  0  0  0  0  0  0  0
   55.9237    6.5950   39.9440 N   0  0  0  0  0  0  0  0  0  0  0  0
   55.3084    6.6912   41.1453 C   0  0  0  0  0  0  0  0  0  0  0  0
   54.6273    7.7902   41.4856 N   0  0  0  0  0  0  0  0  0  0  0  0
   55.3355    5.7112   42.0800 N   0  0  0  0  0  0  0  0  0  0  0  0
   56.0106    4.5793   41.8368 C   0  0  0  0  0  0  0  0  0  0  0  0
   55.8632    7.3486   39.3133 H   0  0  0  0  0  0  0  0  0  0  0  0
   54.5641    8.5447   40.8564 H   0  0  0  0  0  0  0  0  0  0  0  0
   54.1890    7.8450   42.3654 H   0  0  0  0  0  0  0  0  0  0  0  0
   57.8455    2.5057   46.2961 C   0  0  0  0  0  0  0  0  0  0  0  0
   58.0661    2.4281   47.7101 O   0  0  0  0  0  0  0  0  0  0  0  0
   59.5602    2.5429   48.2685 P   0  0  0  0  0  0  0  0  0  0  0  0
   59.9468    1.1944   48.8636 O   0  0  0  0  0  0  0  0  0  0  0  0
   59.6943    3.7905   49.0791 O   0  0  0  0  0  0  0  0  0  0  0  0
   60.6006    3.8601   49.4178 H   0  0  0  0  0  0  0  0  0  0  0  0
   60.2921    2.7627   46.8411 O   0  0  0  0  0  0  0  0  0  0  0  0
   61.3390    3.9372   46.4906 P   0  0  0  0  0  0  0  0  0  0  0  0
   62.3026    3.3976   45.4961 O   0  0  0  0  0  0  0  0  0  0  0  0
   62.0957    4.3208   47.8286 O   0  0  0  0  0  0  0  0  0  0  0  0
   62.7345    5.0279   47.6474 H   0  0  0  0  0  0  0  0  0  0  0  0
   60.5041    5.2748   45.7542 N   0  0  0  0  0  0  0  0  0  0  0  0
   59.7285    5.5051   46.3753 H   0  0  0  0  0  0  0  0  0  0  0  0
   59.8182    5.1655   44.1199 P   0  0  0  0  0  0  0  0  0  0  0  0
   60.7842    5.7946   43.1901 O   0  0  0  0  0  0  0  0  0  0  0  0
   58.4133    5.9489   43.9906 O   0  0  0  0  0  0  0  0  0  0  0  0
   59.5486    3.6127   43.7519 O   0  0  0  0  0  0  0  0  0  0  0  0
   58.0771    5.8625   43.0849 H   0  0  0  0  0  0  0  0  0  0  0  0
   59.1739    3.5523   42.8592 H   0  0  0  0  0  0  0  0  0  0  0  0
 37 38  2  0  0  0
 37 39  1  0  0  0
 37 40  1  0  0  0
 37 35  1  0  0  0
 35 31  1  0  0  0
 31 32  2  0  0  0
 31 33  1  0  0  0
 31 30  1  0  0  0
 30 26  1  0  0  0
 26 27  2  0  0  0
 26 28  1  0  0  0
 26 25  1  0  0  0
 25 24  1  0  0  0
 24  1  1  0  0  0
  1  2  1  0  0  0
  1  3  1  0  0  0
  2  7  1  0  0  0
  3  4  1  0  0  0
  3  5  1  0  0  0
  5  6  1  0  0  0
  5  7  1  0  0  0
  7 10  1  0  0  0
 10 11  1  0  0  0
 10 20  1  0  0  0
 11 12  2  0  0  0
 12 13  1  0  0  0
 13 14  1  0  0  0
 13 20  2  0  0  0
 14 15  2  0  0  0
 14 16  1  0  0  0
 16 17  1  0  0  0
 17 18  1  0  0  0
 17 19  2  0  0  0
 19 20  1  0  0  0
 39 41  1  0  0  0
 40 42  1  0  0  0
 35 36  1  0  0  0
 33 34  1  0  0  0
 28 29  1  0  0  0
  4  8  1  0  0  0
  6  9  1  0  0  0
 16 21  1  0  0  0
 18 22  1  0  0  0
 18 23  1  0  0  0
M  END
> <minimizedAffinity>
-8.03599

$$$$
4JYB_GNP_A_401


 42 44  0  0  0  0  0  0  0  0999 V2000
   56.4223    0.8776   45.9054 C   0  0  0  0  0  0  0  0  0  0  0  0
   56.9773    0.4097   47.1338 O   0  0  0  0  0  0  0  0  0  0  0  0
   54.9392    1.1270   46.1613 C   0  0  0  0  0  0  0  0  0  0  0  0
   54.1768   -0.0351   45.8118 O   0  0  0  0  0  0  0  0  0  0  0  0
   54.8432    1.3485   47.6459 C   0  0  0  0  0  0  0  0  0  0  0  0
   53.6060    0.9486   48.2512 O   0  0  0  0  0  0  0  0  0  0  0  0
   55.9555    0.4460   48.1385 C   0  0  0  0  0  0  0  0  0  0  0  0
   54.4979   -0.7971   46.3190 H   0  0  0  0  0  0  0  0  0  0  0  0
   53.4540    0.0054   48.0833 H   0  0  0  0  0  0  0  0  0  0  0  0
   56.4367    0.9305   49.4466 N   0  0  0  0  0  0  0  0  0  0  0  0
   56.1832    0.4547   50.6908 C   0  0  0  0  0  0  0  0  0  0  0  0
   56.8395    1.2000   51.6272 N   0  0  0  0  0  0  0  0  0  0  0  0
   57.5400    2.1550   50.9683 C   0  0  0  0  0  0  0  0  0  0  0  0
   58.4553    3.2533   51.3208 C   0  0  0  0  0  0  0  0  0  0  0  0
   58.7309    3.5005   52.5205 O   0  0  0  0  0  0  0  0  0  0  0  0
   58.9634    3.9966   50.3076 N   0  0  0  0  0  0  0  0  0  0  0  0
   58.6603    3.7405   49.0139 C   0  0  0  0  0  0  0  0  0  0  0  0
   59.1670    4.4855   48.0261 N   0  0  0  0  0  0  0  0  0  0  0  0
   57.8361    2.7392   48.6230 N   0  0  0  0  0  0  0  0  0  0  0  0
   57.2643    1.9512   49.5439 C   0  0  0  0  0  0  0  0  0  0  0  0
   59.5694    4.7432   50.5187 H   0  0  0  0  0  0  0  0  0  0  0  0
   59.7743    5.2319   48.2342 H   0  0  0  0  0  0  0  0  0  0  0  0
   58.9327    4.2877   47.0905 H   0  0  0  0  0  0  0  0  0  0  0  0
   57.1422    2.1367   45.4818 C   0  0  0  0  0  0  0  0  0  0  0  0
   56.2193    2.9735   44.7731 O   0  0  0  0  0  0  0  0  0  0  0  0
   56.1852    2.9099   43.1757 P   0  0  0  0  0  0  0  0  0  0  0  0
   54.9492    2.1210   42.7608 O   0  0  0  0  0  0  0  0  0  0  0  0
   57.5338    2.5215   42.6638 O   0  0  0  0  0  0  0  0  0  0  0  0
   57.5131    2.4829   41.6948 H   0  0  0  0  0  0  0  0  0  0  0  0
   55.9605    4.4921   42.9160 O   0  0  0  0  0  0  0  0  0  0  0  0
   57.1224    5.6059   42.8254 P   0  0  0  0  0  0  0  0  0  0  0  0
   56.4674    6.9399   42.8375 O   0  0  0  0  0  0  0  0  0  0  0  0
   57.8895    5.3890   41.4563 O   0  0  0  0  0  0  0  0  0  0  0  0
   58.5969    6.0476   41.3742 H   0  0  0  0  0  0  0  0  0  0  0  0
   58.1518    5.5034   44.2248 N   0  0  0  0  0  0  0  0  0  0  0  0
   58.1445    6.4287   44.6539 H   0  0  0  0  0  0  0  0  0  0  0  0
   59.8574    5.0255   44.0998 P   0  0  0  0  0  0  0  0  0  0  0  0
   60.5038    5.3442   45.3937 O   0  0  0  0  0  0  0  0  0  0  0  0
   60.6363    5.8297   42.9375 O   0  0  0  0  0  0  0  0  0  0  0  0
   59.9504    3.4479   43.7501 O   0  0  0  0  0  0  0  0  0  0  0  0
   61.5606    5.5375   42.9058 H   0  0  0  0  0  0  0  0  0  0  0  0
   60.8819    3.1863   43.6817 H   0  0  0  0  0  0  0  0  0  0  0  0
 37 38  2  0  0  0
 37 39  1  0  0  0
 37 40  1  0  0  0
 37 35  1  0  0  0
 35 31  1  0  0  0
 31 32  2  0  0  0
 31 33  1  0  0  0
 31 30  1  0  0  0
 30 26  1  0  0  0
 26 27  2  0  0  0
 26 28  1  0  0  0
 26 25  1  0  0  0
 25 24  1  0  0  0
 24  1  1  0  0  0
  1  2  1  0  0  0
  1  3  1  0  0  0
  2  7  1  0  0  0
  3  4  1  0  0  0
  3  5  1  0  0  0
  5  6  1  0  0  0
  5  7  1  0  0  0
  7 10  1  0  0  0
 10 11  1  0  0  0
 10 20  1  0  0  0
 11 12  2  0  0  0
 12 13  1  0  0  0
 13 14  1  0  0  0
 13 20  2  0  0  0
 14 15  2  0  0  0
 14 16  1  0  0  0
 16 17  1  0  0  0
 17 18  1  0  0  0
 17 19  2  0  0  0
 19 20  1  0  0  0
 39 41  1  0  0  0
 40 42  1  0  0  0
 35 36  1  0  0  0
 33 34  1  0  0  0
 28 29  1  0  0  0
  4  8  1  0  0  0
  6  9  1  0  0  0
 16 21  1  0  0  0
 18 22  1  0  0  0
 18 23  1  0  0  0
M  END
> <minimizedAffinity>
-7.97836

$$$$
4JYB_GNP_A_401


 42 44  0  0  0  0  0  0  0  0999 V2000
   56.4301    0.9369   42.9537 C   0  0  0  0  0  0  0  0  0  0  0  0
   57.2920    1.6021   43.8758 O   0  0  0  0  0  0  0  0  0  0  0  0
   56.3092   -0.5072   43.4301 C   0  0  0  0  0  0  0  0  0  0  0  0
   57.2852   -1.3259   42.7736 O   0  0  0  0  0  0  0  0  0  0  0  0
   56.6260   -0.4490   44.8993 C   0  0  0  0  0  0  0  0  0  0  0  0
   57.2322   -1.6275   45.4476 O   0  0  0  0  0  0  0  0  0  0  0  0
   57.6272    0.6874   44.9273 C   0  0  0  0  0  0  0  0  0  0  0  0
   58.1720   -0.9722   42.9449 H   0  0  0  0  0  0  0  0  0  0  0  0
   58.0580   -1.8161   44.9750 H   0  0  0  0  0  0  0  0  0  0  0  0
   57.6271    1.3078   46.2661 N   0  0  0  0  0  0  0  0  0  0  0  0
   56.7132    1.2112   47.2632 C   0  0  0  0  0  0  0  0  0  0  0  0
   57.1096    1.9450   48.3437 N   0  0  0  0  0  0  0  0  0  0  0  0
   58.3066    2.5028   48.0388 C   0  0  0  0  0  0  0  0  0  0  0  0
   59.2932    3.3657   48.7098 C   0  0  0  0  0  0  0  0  0  0  0  0
   59.0873    3.7944   49.8718 O   0  0  0  0  0  0  0  0  0  0  0  0
   60.4108    3.6968   48.0182 N   0  0  0  0  0  0  0  0  0  0  0  0
   60.6314    3.2459   46.7616 C   0  0  0  0  0  0  0  0  0  0  0  0
   61.7375    3.5846   46.0913 N   0  0  0  0  0  0  0  0  0  0  0  0
   59.7707    2.4406   46.0941 N   0  0  0  0  0  0  0  0  0  0  0  0
   58.6246    2.0639   46.6777 C   0  0  0  0  0  0  0  0  0  0  0  0
   61.0804    4.2813   48.4416 H   0  0  0  0  0  0  0  0  0  0  0  0
   62.4094    4.1679   46.5128 H   0  0  0  0  0  0  0  0  0  0  0  0
   61.8802    3.2508   45.1761 H   0  0  0  0  0  0  0  0  0  0  0  0
   55.0916    1.6377   42.9292 C   0  0  0  0  0  0  0  0  0  0  0  0
   54.9922    2.3893   41.7128 O   0  0  0  0  0  0  0  0  0  0  0  0
   54.3907    3.8700   41.7641 P   0  0  0  0  0  0  0  0  0  0  0  0
   53.1690    3.8521   42.6748 O   0  0  0  0  0  0  0  0  0  0  0  0
   54.2883    4.4143   40.3768 O   0  0  0  0  0  0  0  0  0  0  0  0
   53.9234    5.3125   40.4079 H   0  0  0  0  0  0  0  0  0  0  0  0
   55.6442    4.5706   42.5121 O   0  0  0  0  0  0  0  0  0  0  0  0
   57.0691    4.9137   41.8411 P   0  0  0  0  0  0  0  0  0  0  0  0
   56.8071    5.7055   40.6111 O   0  0  0  0  0  0  0  0  0  0  0  0
   57.7662    3.5413   41.4664 O   0  0  0  0  0  0  0  0  0  0  0  0
   58.6288    3.7173   41.0592 H   0  0  0  0  0  0  0  0  0  0  0  0
   58.0105    5.9011   42.9217 N   0  0  0  0  0  0  0  0  0  0  0  0
   58.1925    6.7740   42.4265 H   0  0  0  0  0  0  0  0  0  0  0  0
   59.5739    5.3576   43.5648 P   0  0  0  0  0  0  0  0  0  0  0  0
   59.6846    5.8663   44.9513 O   0  0  0  0  0  0  0  0  0  0  0  0
   60.8199    5.9345   42.7170 O   0  0  0  0  0  0  0  0  0  0  0  0
   59.6479    3.7419   43.5061 O   0  0  0  0  0  0  0  0  0  0  0  0
   61.6499    5.6131   43.1026 H   0  0  0  0  0  0  0  0  0  0  0  0
   60.5018    3.4444   43.8572 H   0  0  0  0  0  0  0  0  0  0  0  0
 37 38  2  0  0  0
 37 39  1  0  0  0
 37 40  1  0  0  0
 37 35  1  0  0  0
 35 31  1  0  0  0
 31 32  2  0  0  0
 31 33  1  0  0  0
 31 30  1  0  0  0
 30 26  1  0  0  0
 26 27  2  0  0  0
 26 28  1  0  0  0
 26 25  1  0  0  0
 25 24  1  0  0  0
 24  1  1  0  0  0
  1  2  1  0  0  0
  1  3  1  0  0  0
  2  7  1  0  0  0
  3  4  1  0  0  0
  3  5  1  0  0  0
  5  6  1  0  0  0
  5  7  1  0  0  0
  7 10  1  0  0  0
 10 11  1  0  0  0
 10 20  1  0  0  0
 11 12  2  0  0  0
 12 13  1  0  0  0
 13 14  1  0  0  0
 13 20  2  0  0  0
 14 15  2  0  0  0
 14 16  1  0  0  0
 16 17  1  0  0  0
 17 18  1  0  0  0
 17 19  2  0  0  0
 19 20  1  0  0  0
 39 41  1  0  0  0
 40 42  1  0  0  0
 35 36  1  0  0  0
 33 34  1  0  0  0
 28 29  1  0  0  0
  4  8  1  0  0  0
  6  9  1  0  0  0
 16 21  1  0  0  0
 18 22  1  0  0  0
 18 23  1  0  0  0
M  END
> <minimizedAffinity>
-7.74769

$$$$
4JYB_GNP_A_401


 42 44  0  0  0  0  0  0  0  0999 V2000
   61.6089    3.6506   46.0878 C   0  0  0  0  0  0  0  0  0  0  0  0
   61.3188    3.9965   47.4413 O   0  0  0  0  0  0  0  0  0  0  0  0
   62.4342    2.3684   46.1303 C   0  0  0  0  0  0  0  0  0  0  0  0
   63.8325    2.6820   46.1217 O   0  0  0  0  0  0  0  0  0  0  0  0
   62.0816    1.7346   47.4480 C   0  0  0  0  0  0  0  0  0  0  0  0
   63.1175    0.9474   48.0514 O   0  0  0  0  0  0  0  0  0  0  0  0
   61.8312    2.9652   48.2950 C   0  0  0  0  0  0  0  0  0  0  0  0
   64.0393    3.2583   46.8741 H   0  0  0  0  0  0  0  0  0  0  0  0
   63.9033    1.4988   48.1903 H   0  0  0  0  0  0  0  0  0  0  0  0
   60.9237    2.6191   49.4059 N   0  0  0  0  0  0  0  0  0  0  0  0
   61.1805    2.5245   50.7340 C   0  0  0  0  0  0  0  0  0  0  0  0
   60.0472    2.1829   51.4137 N   0  0  0  0  0  0  0  0  0  0  0  0
   59.0456    2.0777   50.5067 C   0  0  0  0  0  0  0  0  0  0  0  0
   57.6048    1.7746   50.5258 C   0  0  0  0  0  0  0  0  0  0  0  0
   57.0206    1.4963   51.6018 O   0  0  0  0  0  0  0  0  0  0  0  0
   56.9459    1.7826   49.3413 N   0  0  0  0  0  0  0  0  0  0  0  0
   57.5741    2.0712   48.1781 C   0  0  0  0  0  0  0  0  0  0  0  0
   56.9106    2.0714   47.0173 N   0  0  0  0  0  0  0  0  0  0  0  0
   58.8926    2.3699   48.0942 N   0  0  0  0  0  0  0  0  0  0  0  0
   59.6448    2.3750   49.2033 C   0  0  0  0  0  0  0  0  0  0  0  0
   55.9842    1.5728   49.3270 H   0  0  0  0  0  0  0  0  0  0  0  0
   55.9485    1.8632   47.0002 H   0  0  0  0  0  0  0  0  0  0  0  0
   57.3841    2.2797   46.1797 H   0  0  0  0  0  0  0  0  0  0  0  0
   60.3131    3.4639   45.3333 C   0  0  0  0  0  0  0  0  0  0  0  0
   60.4977    3.9243   43.9886 O   0  0  0  0  0  0  0  0  0  0  0  0
   59.9041    5.3487   43.5691 P   0  0  0  0  0  0  0  0  0  0  0  0
   60.9195    6.0353   42.6637 O   0  0  0  0  0  0  0  0  0  0  0  0
   59.3823    6.0475   44.7820 O   0  0  0  0  0  0  0  0  0  0  0  0
   59.0223    6.9115   44.5275 H   0  0  0  0  0  0  0  0  0  0  0  0
   58.6532    4.7977   42.7014 O   0  0  0  0  0  0  0  0  0  0  0  0
   57.0984    4.9175   43.1097 P   0  0  0  0  0  0  0  0  0  0  0  0
   56.7594    6.3634   43.1666 O   0  0  0  0  0  0  0  0  0  0  0  0
   56.9261    4.2617   44.5415 O   0  0  0  0  0  0  0  0  0  0  0  0
   55.9969    4.3195   44.8139 H   0  0  0  0  0  0  0  0  0  0  0  0
   56.1054    4.1839   41.8831 N   0  0  0  0  0  0  0  0  0  0  0  0
   56.3680    3.1987   41.8537 H   0  0  0  0  0  0  0  0  0  0  0  0
   56.1201    4.7540   40.2014 P   0  0  0  0  0  0  0  0  0  0  0  0
   55.0949    5.8165   40.0839 O   0  0  0  0  0  0  0  0  0  0  0  0
   55.7525    3.5831   39.1536 O   0  0  0  0  0  0  0  0  0  0  0  0
   57.5987    5.2970   39.8298 O   0  0  0  0  0  0  0  0  0  0  0  0
   55.7726    3.9386   38.2513 H   0  0  0  0  0  0  0  0  0  0  0  0
   57.6074    5.6086   38.9113 H   0  0  0  0  0  0  0  0  0  0  0  0
 37 38  2  0  0  0
 37 39  1  0  0  0
 37 40  1  0  0  0
 37 35  1  0  0  0
 35 31  1  0  0  0
 31 32  2  0  0  0
 31 33  1  0  0  0
 31 30  1  0  0  0
 30 26  1  0  0  0
 26 27  2  0  0  0
 26 28  1  0  0  0
 26 25  1  0  0  0
 25 24  1  0  0  0
 24  1  1  0  0  0
  1  2  1  0  0  0
  1  3  1  0  0  0
  2  7  1  0  0  0
  3  4  1  0  0  0
  3  5  1  0  0  0
  5  6  1  0  0  0
  5  7  1  0  0  0
  7 10  1  0  0  0
 10 11  1  0  0  0
 10 20  1  0  0  0
 11 12  2  0  0  0
 12 13  1  0  0  0
 13 14  1  0  0  0
 13 20  2  0  0  0
 14 15  2  0  0  0
 14 16  1  0  0  0
 16 17  1  0  0  0
 17 18  1  0  0  0
 17 19  2  0  0  0
 19 20  1  0  0  0
 39 41  1  0  0  0
 40 42  1  0  0  0
 35 36  1  0  0  0
 33 34  1  0  0  0
 28 29  1  0  0  0
  4  8  1  0  0  0
  6  9  1  0  0  0
 16 21  1  0  0  0
 18 22  1  0  0  0
 18 23  1  0  0  0
M  END
> <minimizedAffinity>
-7.73478

$$$$
4JYB_GNP_A_401


 42 44  0  0  0  0  0  0  0  0999 V2000
   56.4744    3.2622   46.0736 C   0  0  0  0  0  0  0  0  0  0  0  0
   56.3871    4.0852   44.9114 O   0  0  0  0  0  0  0  0  0  0  0  0
   55.6868    1.9913   45.7709 C   0  0  0  0  0  0  0  0  0  0  0  0
   54.3371    2.1262   46.2335 O   0  0  0  0  0  0  0  0  0  0  0  0
   55.6837    1.8963   44.2698 C   0  0  0  0  0  0  0  0  0  0  0  0
   54.5360    1.2577   43.6938 O   0  0  0  0  0  0  0  0  0  0  0  0
   55.6805    3.3637   43.8941 C   0  0  0  0  0  0  0  0  0  0  0  0
   53.9284    2.9009   45.8167 H   0  0  0  0  0  0  0  0  0  0  0  0
   53.7336    1.7327   43.9609 H   0  0  0  0  0  0  0  0  0  0  0  0
   56.2631    3.5262   42.5482 N   0  0  0  0  0  0  0  0  0  0  0  0
   57.0636    2.6867   41.8459 C   0  0  0  0  0  0  0  0  0  0  0  0
   57.3689    3.2274   40.6304 N   0  0  0  0  0  0  0  0  0  0  0  0
   56.7361    4.4230   40.5471 C   0  0  0  0  0  0  0  0  0  0  0  0
   56.6010    5.5015   39.5537 C   0  0  0  0  0  0  0  0  0  0  0  0
   57.1990    5.4389   38.4515 O   0  0  0  0  0  0  0  0  0  0  0  0
   55.8324    6.5675   39.8852 N   0  0  0  0  0  0  0  0  0  0  0  0
   55.1951    6.6441   41.0764 C   0  0  0  0  0  0  0  0  0  0  0  0
   54.4433    7.7044   41.3898 N   0  0  0  0  0  0  0  0  0  0  0  0
   55.2684    5.6819   42.0271 N   0  0  0  0  0  0  0  0  0  0  0  0
   56.0148    4.5900   41.8113 C   0  0  0  0  0  0  0  0  0  0  0  0
   55.7351    7.3063   39.2418 H   0  0  0  0  0  0  0  0  0  0  0  0
   54.3432    8.4439   40.7478 H   0  0  0  0  0  0  0  0  0  0  0  0
   53.9897    7.7455   42.2627 H   0  0  0  0  0  0  0  0  0  0  0  0
   57.9273    2.9699   46.3683 C   0  0  0  0  0  0  0  0  0  0  0  0
   58.6012    4.2103   46.6162 O   0  0  0  0  0  0  0  0  0  0  0  0
   59.8546    4.6064   45.7057 P   0  0  0  0  0  0  0  0  0  0  0  0
   59.5630    5.9567   45.0624 O   0  0  0  0  0  0  0  0  0  0  0  0
   60.2455    3.4381   44.8608 O   0  0  0  0  0  0  0  0  0  0  0  0
   61.0058    3.6784   44.3086 H   0  0  0  0  0  0  0  0  0  0  0  0
   60.9302    4.7709   46.9046 O   0  0  0  0  0  0  0  0  0  0  0  0
   62.1695    3.7832   47.2000 P   0  0  0  0  0  0  0  0  0  0  0  0
   62.9743    4.3875   48.2936 O   0  0  0  0  0  0  0  0  0  0  0  0
   63.0346    3.6892   45.8761 O   0  0  0  0  0  0  0  0  0  0  0  0
   63.7901    3.0993   46.0247 H   0  0  0  0  0  0  0  0  0  0  0  0
   61.5803    2.2438   47.7582 N   0  0  0  0  0  0  0  0  0  0  0  0
   61.0614    1.8366   46.9801 H   0  0  0  0  0  0  0  0  0  0  0  0
   60.5316    2.1035   49.1842 P   0  0  0  0  0  0  0  0  0  0  0  0
   61.4012    1.8169   50.3484 O   0  0  0  0  0  0  0  0  0  0  0  0
   59.4652    0.9002   49.0455 O   0  0  0  0  0  0  0  0  0  0  0  0
   59.6975    3.4771   49.3765 O   0  0  0  0  0  0  0  0  0  0  0  0
   58.9160    0.8612   49.8441 H   0  0  0  0  0  0  0  0  0  0  0  0
   59.1244    3.4010   50.1554 H   0  0  0  0  0  0  0  0  0  0  0  0
 37 38  2  0  0  0
 37 39  1  0  0  0
 37 40  1  0  0  0
 37 35  1  0  0  0
 35 31  1  0  0  0
 31 32  2  0  0  0
 31 33  1  0  0  0
 31 30  1  0  0  0
 30 26  1  0  0  0
 26 27  2  0  0  0
 26 28  1  0  0  0
 26 25  1  0  0  0
 25 24  1  0  0  0
 24  1  1  0  0  0
  1  2  1  0  0  0
  1  3  1  0  0  0
  2  7  1  0  0  0
  3  4  1  0  0  0
  3  5  1  0  0  0
  5  6  1  0  0  0
  5  7  1  0  0  0
  7 10  1  0  0  0
 10 11  1  0  0  0
 10 20  1  0  0  0
 11 12  2  0  0  0
 12 13  1  0  0  0
 13 14  1  0  0  0
 13 20  2  0  0  0
 14 15  2  0  0  0
 14 16  1  0  0  0
 16 17  1  0  0  0
 17 18  1  0  0  0
 17 19  2  0  0  0
 19 20  1  0  0  0
 39 41  1  0  0  0
 40 42  1  0  0  0
 35 36  1  0  0  0
 33 34  1  0  0  0
 28 29  1  0  0  0
  4  8  1  0  0  0
  6  9  1  0  0  0
 16 21  1  0  0  0
 18 22  1  0  0  0
 18 23  1  0  0  0
M  END
> <minimizedAffinity>
-7.66090

$$$$
4JYB_GNP_A_401


 42 44  0  0  0  0  0  0  0  0999 V2000
   56.7390    1.6265   45.3954 C   0  0  0  0  0  0  0  0  0  0  0  0
   57.2519    0.7137   46.3648 O   0  0  0  0  0  0  0  0  0  0  0  0
   55.2595    1.8184   45.7137 C   0  0  0  0  0  0  0  0  0  0  0  0
   54.4680    0.9003   44.9493 O   0  0  0  0  0  0  0  0  0  0  0  0
   55.1383    1.4740   47.1728 C   0  0  0  0  0  0  0  0  0  0  0  0
   53.8761    0.9243   47.5748 O   0  0  0  0  0  0  0  0  0  0  0  0
   56.2102    0.4114   47.3019 C   0  0  0  0  0  0  0  0  0  0  0  0
   54.7534   -0.0074   45.1379 H   0  0  0  0  0  0  0  0  0  0  0  0
   53.6976    0.1182   47.0656 H   0  0  0  0  0  0  0  0  0  0  0  0
   56.6780    0.3547   48.7002 N   0  0  0  0  0  0  0  0  0  0  0  0
   56.5859   -0.6538   49.6020 C   0  0  0  0  0  0  0  0  0  0  0  0
   57.1584   -0.2867   50.7854 N   0  0  0  0  0  0  0  0  0  0  0  0
   57.6423    0.9697   50.6300 C   0  0  0  0  0  0  0  0  0  0  0  0
   58.3734    1.9499   51.4504 C   0  0  0  0  0  0  0  0  0  0  0  0
   58.6736    1.6939   52.6424 O   0  0  0  0  0  0  0  0  0  0  0  0
   58.6834    3.1395   50.8796 N   0  0  0  0  0  0  0  0  0  0  0  0
   58.3520    3.4236   49.5988 C   0  0  0  0  0  0  0  0  0  0  0  0
   58.6619    4.6033   49.0513 N   0  0  0  0  0  0  0  0  0  0  0  0
   57.6914    2.5622   48.7885 N   0  0  0  0  0  0  0  0  0  0  0  0
   57.3210    1.3619   49.2555 C   0  0  0  0  0  0  0  0  0  0  0  0
   59.1628    3.8153   51.4113 H   0  0  0  0  0  0  0  0  0  0  0  0
   59.1424    5.2804   49.5804 H   0  0  0  0  0  0  0  0  0  0  0  0
   58.4096    4.7949   48.1192 H   0  0  0  0  0  0  0  0  0  0  0  0
   57.5080    2.9246   45.4785 C   0  0  0  0  0  0  0  0  0  0  0  0
   58.6861    2.8096   44.6704 O   0  0  0  0  0  0  0  0  0  0  0  0
   60.1165    3.0292   45.3506 P   0  0  0  0  0  0  0  0  0  0  0  0
   60.8633    1.7012   45.3190 O   0  0  0  0  0  0  0  0  0  0  0  0
   59.9477    3.7681   46.6379 O   0  0  0  0  0  0  0  0  0  0  0  0
   60.8154    3.9013   47.0505 H   0  0  0  0  0  0  0  0  0  0  0  0
   60.7150    4.0419   44.2382 O   0  0  0  0  0  0  0  0  0  0  0  0
   59.8952    5.2123   43.4921 P   0  0  0  0  0  0  0  0  0  0  0  0
   60.8796    6.0595   42.7696 O   0  0  0  0  0  0  0  0  0  0  0  0
   59.1565    6.0650   44.6043 O   0  0  0  0  0  0  0  0  0  0  0  0
   58.6533    6.7793   44.1830 H   0  0  0  0  0  0  0  0  0  0  0  0
   58.8174    4.5218   42.3130 N   0  0  0  0  0  0  0  0  0  0  0  0
   59.2591    4.6625   41.4044 H   0  0  0  0  0  0  0  0  0  0  0  0
   57.1385    5.0742   42.1419 P   0  0  0  0  0  0  0  0  0  0  0  0
   56.2601    3.9072   42.3867 O   0  0  0  0  0  0  0  0  0  0  0  0
   56.8257    5.6369   40.6621 O   0  0  0  0  0  0  0  0  0  0  0  0
   56.8567    6.2736   43.1914 O   0  0  0  0  0  0  0  0  0  0  0  0
   55.9010    5.9261   40.6150 H   0  0  0  0  0  0  0  0  0  0  0  0
   55.9396    6.5758   43.0984 H   0  0  0  0  0  0  0  0  0  0  0  0
 37 38  2  0  0  0
 37 39  1  0  0  0
 37 40  1  0  0  0
 37 35  1  0  0  0
 35 31  1  0  0  0
 31 32  2  0  0  0
 31 33  1  0  0  0
 31 30  1  0  0  0
 30 26  1  0  0  0
 26 27  2  0  0  0
 26 28  1  0  0  0
 26 25  1  0  0  0
 25 24  1  0  0  0
 24  1  1  0  0  0
  1  2  1  0  0  0
  1  3  1  0  0  0
  2  7  1  0  0  0
  3  4  1  0  0  0
  3  5  1  0  0  0
  5  6  1  0  0  0
  5  7  1  0  0  0
  7 10  1  0  0  0
 10 11  1  0  0  0
 10 20  1  0  0  0
 11 12  2  0  0  0
 12 13  1  0  0  0
 13 14  1  0  0  0
 13 20  2  0  0  0
 14 15  2  0  0  0
 14 16  1  0  0  0
 16 17  1  0  0  0
 17 18  1  0  0  0
 17 19  2  0  0  0
 19 20  1  0  0  0
 39 41  1  0  0  0
 40 42  1  0  0  0
 35 36  1  0  0  0
 33 34  1  0  0  0
 28 29  1  0  0  0
  4  8  1  0  0  0
  6  9  1  0  0  0
 16 21  1  0  0  0
 18 22  1  0  0  0
 18 23  1  0  0  0
M  END
> <minimizedAffinity>
-7.52803

$$$$
