3WHA_WHA_A_302


 32 35  0  0  0  0  0  0  0  0999 V2000
  -27.5367   22.2001  -18.6930 C   0  0  0  0  0  0  0  0  0  0  0  0
  -28.0964   20.9735  -18.6373 N   0  0  0  0  0  0  0  0  0  0  0  0
  -27.8346   23.1152  -17.7362 N   0  0  0  0  0  0  0  0  0  0  0  0
  -28.6680   22.8066  -16.7489 C   0  0  0  0  0  0  0  0  0  0  0  0
  -28.8835   23.7002  -15.8175 N   0  0  0  0  0  0  0  0  0  0  0  0
  -29.1967   21.5791  -16.6563 N   0  0  0  0  0  0  0  0  0  0  0  0
  -28.9460   20.6876  -17.6329 C   0  0  0  0  0  0  0  0  0  0  0  0
  -28.4894   24.5988  -15.8968 H   0  0  0  0  0  0  0  0  0  0  0  0
  -29.4398   23.4738  -15.0374 H   0  0  0  0  0  0  0  0  0  0  0  0
  -26.6170   23.1978  -23.4696 C   0  0  0  0  0  0  0  0  0  0  0  0
  -26.6605   22.5049  -19.7812 C   0  0  0  0  0  0  0  0  0  0  0  0
  -27.9915   23.1883  -23.7600 C   0  0  0  0  0  0  0  0  0  0  0  0
  -28.9377   22.9831  -22.7428 C   0  0  0  0  0  0  0  0  0  0  0  0
  -24.3568   22.8961  -20.5553 C   0  0  0  0  0  0  0  0  0  0  0  0
  -28.5009   22.7435  -21.4317 C   0  0  0  0  0  0  0  0  0  0  0  0
  -27.1294   22.7186  -21.1037 C   0  0  0  0  0  0  0  0  0  0  0  0
  -26.1838   22.9793  -22.1404 C   0  0  0  0  0  0  0  0  0  0  0  0
  -24.8050   23.0823  -21.8511 C   0  0  0  0  0  0  0  0  0  0  0  0
  -25.2703   22.5717  -19.5463 C   0  0  0  0  0  0  0  0  0  0  0  0
  -25.6323   23.5100  -24.4780 C   0  0  0  0  0  0  0  0  0  0  0  0
  -23.8840   23.3481  -22.9213 C   0  0  0  0  0  0  0  0  0  0  0  0
  -24.4741   24.1750  -23.9794 O   0  0  0  0  0  0  0  0  0  0  0  0
  -24.6078   22.2202  -17.9727 Cl  0  0  0  0  0  0  0  0  0  0  0  0
  -29.6575   19.1316  -17.4677 S   0  0  0  0  0  0  0  0  0  0  0  0
  -29.6541   18.5217  -19.2007 C   0  0  0  0  0  0  0  0  0  0  0  0
  -30.9766   18.7765  -19.9176 C   0  0  0  0  0  0  0  0  0  0  0  0
  -30.8869   20.0012  -20.8385 C   0  0  0  0  0  0  0  0  0  0  0  0
  -31.8113   21.1107  -20.4220 C   0  0  0  0  0  0  0  0  0  0  0  0
  -33.0076   21.0743  -20.7273 O   0  0  0  0  0  0  0  0  0  0  0  0
  -31.2422   22.0608  -19.7002 N   0  0  0  0  0  0  0  0  0  0  0  0
  -31.7756   22.8259  -19.3851 H   0  0  0  0  0  0  0  0  0  0  0  0
  -30.2849   22.0033  -19.4777 H   0  0  0  0  0  0  0  0  0  0  0  0
 20 22  1  0  0  0
 20 10  1  0  0  0
 22 21  1  0  0  0
 12 10  1  0  0  0
 12 13  2  0  0  0
 10 17  2  0  0  0
 13 15  1  0  0  0
 21 18  1  0  0  0
 29 28  2  0  0  0
 17 18  1  0  0  0
 17 16  1  0  0  0
 18 14  2  0  0  0
 15 16  2  0  0  0
 28 30  1  0  0  0
 28 27  1  0  0  0
 16 11  1  0  0  0
 26 27  1  0  0  0
 26 25  1  0  0  0
 14 19  1  0  0  0
 11 19  2  0  0  0
 11  1  1  0  0  0
 25 24  1  0  0  0
 19 23  1  0  0  0
  2  1  2  0  0  0
  2  7  1  0  0  0
  1  3  1  0  0  0
 24  7  1  0  0  0
  7  6  2  0  0  0
  3  4  2  0  0  0
  6  4  1  0  0  0
  4  5  1  0  0  0
  5  8  1  0  0  0
  5  9  1  0  0  0
 30 31  1  0  0  0
 30 32  1  0  0  0
M  END
> <minimizedAffinity>
-9.47886

$$$$
3WHA_WHA_A_302


 32 35  0  0  0  0  0  0  0  0999 V2000
  -27.5237   22.2242  -18.6765 C   0  0  0  0  0  0  0  0  0  0  0  0
  -28.0923   21.0018  -18.6187 N   0  0  0  0  0  0  0  0  0  0  0  0
  -27.8038   23.1383  -17.7134 N   0  0  0  0  0  0  0  0  0  0  0  0
  -28.6287   22.8329  -16.7180 C   0  0  0  0  0  0  0  0  0  0  0  0
  -28.8269   23.7250  -15.7813 N   0  0  0  0  0  0  0  0  0  0  0  0
  -29.1661   21.6093  -16.6237 N   0  0  0  0  0  0  0  0  0  0  0  0
  -28.9331   20.7191  -17.6059 C   0  0  0  0  0  0  0  0  0  0  0  0
  -28.4266   24.6208  -15.8621 H   0  0  0  0  0  0  0  0  0  0  0  0
  -29.3764   23.5003  -14.9959 H   0  0  0  0  0  0  0  0  0  0  0  0
  -26.6446   23.1957  -23.4661 C   0  0  0  0  0  0  0  0  0  0  0  0
  -26.6571   22.5258  -19.7732 C   0  0  0  0  0  0  0  0  0  0  0  0
  -28.0213   23.1786  -23.7459 C   0  0  0  0  0  0  0  0  0  0  0  0
  -28.9588   22.9759  -22.7202 C   0  0  0  0  0  0  0  0  0  0  0  0
  -24.3610   22.9218  -20.5674 C   0  0  0  0  0  0  0  0  0  0  0  0
  -28.5110   22.7463  -21.4111 C   0  0  0  0  0  0  0  0  0  0  0  0
  -27.1370   22.7293  -21.0934 C   0  0  0  0  0  0  0  0  0  0  0  0
  -26.2005   22.9873  -22.1389 C   0  0  0  0  0  0  0  0  0  0  0  0
  -24.8199   23.0980  -21.8609 C   0  0  0  0  0  0  0  0  0  0  0  0
  -25.2654   22.5998  -19.5494 C   0  0  0  0  0  0  0  0  0  0  0  0
  -25.6690   23.5057  -24.4840 C   0  0  0  0  0  0  0  0  0  0  0  0
  -23.9083   23.3608  -22.9397 C   0  0  0  0  0  0  0  0  0  0  0  0
  -24.5098   24.1786  -23.9984 O   0  0  0  0  0  0  0  0  0  0  0  0
  -24.5894   22.2610  -17.9787 Cl  0  0  0  0  0  0  0  0  0  0  0  0
  -29.6551   19.1683  -17.4381 S   0  0  0  0  0  0  0  0  0  0  0  0
  -30.5780   19.0012  -19.0178 C   0  0  0  0  0  0  0  0  0  0  0  0
  -29.8511   18.1269  -20.0352 C   0  0  0  0  0  0  0  0  0  0  0  0
  -30.7808   17.0519  -20.6149 C   0  0  0  0  0  0  0  0  0  0  0  0
  -30.0462   15.8048  -21.0197 C   0  0  0  0  0  0  0  0  0  0  0  0
  -29.2010   15.8424  -21.9196 O   0  0  0  0  0  0  0  0  0  0  0  0
  -30.3601   14.7282  -20.3197 N   0  0  0  0  0  0  0  0  0  0  0  0
  -29.9256   13.8675  -20.5189 H   0  0  0  0  0  0  0  0  0  0  0  0
  -31.0284   14.7871  -19.5992 H   0  0  0  0  0  0  0  0  0  0  0  0
 20 22  1  0  0  0
 20 10  1  0  0  0
 22 21  1  0  0  0
 12 10  1  0  0  0
 12 13  2  0  0  0
 10 17  2  0  0  0
 13 15  1  0  0  0
 21 18  1  0  0  0
 29 28  2  0  0  0
 17 18  1  0  0  0
 17 16  1  0  0  0
 18 14  2  0  0  0
 15 16  2  0  0  0
 28 30  1  0  0  0
 28 27  1  0  0  0
 16 11  1  0  0  0
 26 27  1  0  0  0
 26 25  1  0  0  0
 14 19  1  0  0  0
 11 19  2  0  0  0
 11  1  1  0  0  0
 25 24  1  0  0  0
 19 23  1  0  0  0
  2  1  2  0  0  0
  2  7  1  0  0  0
  1  3  1  0  0  0
 24  7  1  0  0  0
  7  6  2  0  0  0
  3  4  2  0  0  0
  6  4  1  0  0  0
  4  5  1  0  0  0
  5  8  1  0  0  0
  5  9  1  0  0  0
 30 31  1  0  0  0
 30 32  1  0  0  0
M  END
> <minimizedAffinity>
-9.26902

$$$$
3WHA_WHA_A_302


 32 35  0  0  0  0  0  0  0  0999 V2000
  -28.9048   21.8707  -18.5492 C   0  0  0  0  0  0  0  0  0  0  0  0
  -27.6751   21.9866  -19.0926 N   0  0  0  0  0  0  0  0  0  0  0  0
  -29.1800   22.4980  -17.3777 N   0  0  0  0  0  0  0  0  0  0  0  0
  -28.2483   23.2243  -16.7704 C   0  0  0  0  0  0  0  0  0  0  0  0
  -28.5736   23.8570  -15.6721 N   0  0  0  0  0  0  0  0  0  0  0  0
  -27.0370   23.3841  -17.3201 N   0  0  0  0  0  0  0  0  0  0  0  0
  -26.7442   22.7196  -18.4533 C   0  0  0  0  0  0  0  0  0  0  0  0
  -29.4669   23.7313  -15.2777 H   0  0  0  0  0  0  0  0  0  0  0  0
  -27.9250   24.4587  -15.2401 H   0  0  0  0  0  0  0  0  0  0  0  0
  -32.4752   21.1595  -21.9261 C   0  0  0  0  0  0  0  0  0  0  0  0
  -29.8770   21.0642  -19.2193 C   0  0  0  0  0  0  0  0  0  0  0  0
  -32.3011   22.4638  -22.4183 C   0  0  0  0  0  0  0  0  0  0  0  0
  -31.3127   23.3059  -21.8837 C   0  0  0  0  0  0  0  0  0  0  0  0
  -30.9801   18.8737  -19.4297 C   0  0  0  0  0  0  0  0  0  0  0  0
  -30.5209   22.8517  -20.8188 C   0  0  0  0  0  0  0  0  0  0  0  0
  -30.6818   21.5588  -20.2786 C   0  0  0  0  0  0  0  0  0  0  0  0
  -31.6567   20.6990  -20.8677 C   0  0  0  0  0  0  0  0  0  0  0  0
  -31.7841   19.3565  -20.4471 C   0  0  0  0  0  0  0  0  0  0  0  0
  -30.0701   19.7303  -18.8002 C   0  0  0  0  0  0  0  0  0  0  0  0
  -33.4123   20.2416  -22.5288 C   0  0  0  0  0  0  0  0  0  0  0  0
  -32.7758   18.5211  -21.0658 C   0  0  0  0  0  0  0  0  0  0  0  0
  -33.0132   18.8743  -22.4695 O   0  0  0  0  0  0  0  0  0  0  0  0
  -29.1945   19.0808  -17.4400 Cl  0  0  0  0  0  0  0  0  0  0  0  0
  -25.1728   22.9542  -19.1093 S   0  0  0  0  0  0  0  0  0  0  0  0
  -25.5446   23.3541  -20.8635 C   0  0  0  0  0  0  0  0  0  0  0  0
  -24.7580   22.4895  -21.8442 C   0  0  0  0  0  0  0  0  0  0  0  0
  -23.9251   23.3495  -22.8048 C   0  0  0  0  0  0  0  0  0  0  0  0
  -24.7150   23.8279  -23.9905 C   0  0  0  0  0  0  0  0  0  0  0  0
  -24.8712   25.0367  -24.1901 O   0  0  0  0  0  0  0  0  0  0  0  0
  -25.1691   22.8656  -24.7751 N   0  0  0  0  0  0  0  0  0  0  0  0
  -25.6968   23.0907  -25.5752 H   0  0  0  0  0  0  0  0  0  0  0  0
  -24.9795   21.9239  -24.5594 H   0  0  0  0  0  0  0  0  0  0  0  0
 20 22  1  0  0  0
 20 10  1  0  0  0
 22 21  1  0  0  0
 12 10  1  0  0  0
 12 13  2  0  0  0
 10 17  2  0  0  0
 13 15  1  0  0  0
 21 18  1  0  0  0
 29 28  2  0  0  0
 17 18  1  0  0  0
 17 16  1  0  0  0
 18 14  2  0  0  0
 15 16  2  0  0  0
 28 30  1  0  0  0
 28 27  1  0  0  0
 16 11  1  0  0  0
 26 27  1  0  0  0
 26 25  1  0  0  0
 14 19  1  0  0  0
 11 19  2  0  0  0
 11  1  1  0  0  0
 25 24  1  0  0  0
 19 23  1  0  0  0
  2  1  2  0  0  0
  2  7  1  0  0  0
  1  3  1  0  0  0
 24  7  1  0  0  0
  7  6  2  0  0  0
  3  4  2  0  0  0
  6  4  1  0  0  0
  4  5  1  0  0  0
  5  8  1  0  0  0
  5  9  1  0  0  0
 30 31  1  0  0  0
 30 32  1  0  0  0
M  END
> <minimizedAffinity>
-8.71892

$$$$
3WHA_WHA_A_302


 32 35  0  0  0  0  0  0  0  0999 V2000
  -28.9153   22.4468  -22.7278 C   0  0  0  0  0  0  0  0  0  0  0  0
  -28.8328   21.2764  -23.3943 N   0  0  0  0  0  0  0  0  0  0  0  0
  -29.2327   23.5802  -23.4033 N   0  0  0  0  0  0  0  0  0  0  0  0
  -29.4645   23.5395  -24.7106 C   0  0  0  0  0  0  0  0  0  0  0  0
  -29.8218   24.6457  -25.3116 N   0  0  0  0  0  0  0  0  0  0  0  0
  -29.4292   22.3780  -25.3774 N   0  0  0  0  0  0  0  0  0  0  0  0
  -29.0618   21.2620  -24.7209 C   0  0  0  0  0  0  0  0  0  0  0  0
  -29.8437   25.4930  -24.8108 H   0  0  0  0  0  0  0  0  0  0  0  0
  -30.0686   24.6305  -26.2645 H   0  0  0  0  0  0  0  0  0  0  0  0
  -25.8365   22.6974  -18.8399 C   0  0  0  0  0  0  0  0  0  0  0  0
  -28.6391   22.4575  -21.3248 C   0  0  0  0  0  0  0  0  0  0  0  0
  -24.7398   22.9061  -19.6927 C   0  0  0  0  0  0  0  0  0  0  0  0
  -24.9194   22.9973  -21.0825 C   0  0  0  0  0  0  0  0  0  0  0  0
  -29.5135   22.3276  -19.0274 C   0  0  0  0  0  0  0  0  0  0  0  0
  -26.2028   22.8356  -21.6247 C   0  0  0  0  0  0  0  0  0  0  0  0
  -27.3258   22.5984  -20.8051 C   0  0  0  0  0  0  0  0  0  0  0  0
  -27.1321   22.5592  -19.3917 C   0  0  0  0  0  0  0  0  0  0  0  0
  -28.2333   22.4410  -18.5149 C   0  0  0  0  0  0  0  0  0  0  0  0
  -29.7045   22.2954  -20.4133 C   0  0  0  0  0  0  0  0  0  0  0  0
  -25.6909   22.7048  -17.4037 C   0  0  0  0  0  0  0  0  0  0  0  0
  -27.9983   22.4074  -17.0979 C   0  0  0  0  0  0  0  0  0  0  0  0
  -26.8290   23.1998  -16.7023 O   0  0  0  0  0  0  0  0  0  0  0  0
  -31.3308   22.0137  -20.9740 Cl  0  0  0  0  0  0  0  0  0  0  0  0
  -29.0248   19.8022  -25.6276 S   0  0  0  0  0  0  0  0  0  0  0  0
  -27.7793   20.1858  -26.9226 C   0  0  0  0  0  0  0  0  0  0  0  0
  -26.4021   20.4935  -26.3427 C   0  0  0  0  0  0  0  0  0  0  0  0
  -25.6823   21.5784  -27.1556 C   0  0  0  0  0  0  0  0  0  0  0  0
  -25.2869   22.7641  -26.3211 C   0  0  0  0  0  0  0  0  0  0  0  0
  -24.2568   23.3945  -26.5804 O   0  0  0  0  0  0  0  0  0  0  0  0
  -26.1360   23.0652  -25.3536 N   0  0  0  0  0  0  0  0  0  0  0  0
  -25.9541   23.8283  -24.7588 H   0  0  0  0  0  0  0  0  0  0  0  0
  -26.9503   22.5263  -25.2279 H   0  0  0  0  0  0  0  0  0  0  0  0
 20 22  1  0  0  0
 20 10  1  0  0  0
 22 21  1  0  0  0
 12 10  1  0  0  0
 12 13  2  0  0  0
 10 17  2  0  0  0
 13 15  1  0  0  0
 21 18  1  0  0  0
 29 28  2  0  0  0
 17 18  1  0  0  0
 17 16  1  0  0  0
 18 14  2  0  0  0
 15 16  2  0  0  0
 28 30  1  0  0  0
 28 27  1  0  0  0
 16 11  1  0  0  0
 26 27  1  0  0  0
 26 25  1  0  0  0
 14 19  1  0  0  0
 11 19  2  0  0  0
 11  1  1  0  0  0
 25 24  1  0  0  0
 19 23  1  0  0  0
  2  1  2  0  0  0
  2  7  1  0  0  0
  1  3  1  0  0  0
 24  7  1  0  0  0
  7  6  2  0  0  0
  3  4  2  0  0  0
  6  4  1  0  0  0
  4  5  1  0  0  0
  5  8  1  0  0  0
  5  9  1  0  0  0
 30 31  1  0  0  0
 30 32  1  0  0  0
M  END
> <minimizedAffinity>
-8.31992

$$$$
3WHA_WHA_A_302


 32 35  0  0  0  0  0  0  0  0999 V2000
  -28.6641   22.1086  -22.4120 C   0  0  0  0  0  0  0  0  0  0  0  0
  -28.2960   21.4358  -21.3018 N   0  0  0  0  0  0  0  0  0  0  0  0
  -29.7741   22.8888  -22.3840 N   0  0  0  0  0  0  0  0  0  0  0  0
  -30.4926   22.9937  -21.2717 C   0  0  0  0  0  0  0  0  0  0  0  0
  -31.5231   23.8002  -21.2731 N   0  0  0  0  0  0  0  0  0  0  0  0
  -30.1149   22.3665  -20.1497 N   0  0  0  0  0  0  0  0  0  0  0  0
  -29.0459   21.5497  -20.1895 C   0  0  0  0  0  0  0  0  0  0  0  0
  -31.7908   24.2554  -22.1040 H   0  0  0  0  0  0  0  0  0  0  0  0
  -32.0306   23.9519  -20.4432 H   0  0  0  0  0  0  0  0  0  0  0  0
  -25.0560   23.5075  -25.5236 C   0  0  0  0  0  0  0  0  0  0  0  0
  -27.8793   21.9563  -23.5976 C   0  0  0  0  0  0  0  0  0  0  0  0
  -24.6831   24.5500  -24.6588 C   0  0  0  0  0  0  0  0  0  0  0  0
  -25.3369   24.7301  -23.4291 C   0  0  0  0  0  0  0  0  0  0  0  0
  -27.4306   20.6724  -25.6494 C   0  0  0  0  0  0  0  0  0  0  0  0
  -26.4010   23.8845  -23.0828 C   0  0  0  0  0  0  0  0  0  0  0  0
  -26.8233   22.8428  -23.9347 C   0  0  0  0  0  0  0  0  0  0  0  0
  -26.1146   22.6430  -25.1572 C   0  0  0  0  0  0  0  0  0  0  0  0
  -26.4155   21.5467  -25.9956 C   0  0  0  0  0  0  0  0  0  0  0  0
  -28.1759   20.9016  -24.4874 C   0  0  0  0  0  0  0  0  0  0  0  0
  -24.3308   23.2391  -26.7426 C   0  0  0  0  0  0  0  0  0  0  0  0
  -25.6783   21.3776  -27.2172 C   0  0  0  0  0  0  0  0  0  0  0  0
  -24.2981   21.8629  -27.1134 O   0  0  0  0  0  0  0  0  0  0  0  0
  -29.5222   19.8331  -24.1964 Cl  0  0  0  0  0  0  0  0  0  0  0  0
  -28.6120   20.7636  -18.7238 S   0  0  0  0  0  0  0  0  0  0  0  0
  -29.2732   21.9193  -17.4578 C   0  0  0  0  0  0  0  0  0  0  0  0
  -28.2123   22.8762  -16.9223 C   0  0  0  0  0  0  0  0  0  0  0  0
  -26.8263   22.5537  -17.4977 C   0  0  0  0  0  0  0  0  0  0  0  0
  -26.3129   23.6283  -18.4144 C   0  0  0  0  0  0  0  0  0  0  0  0
  -26.2662   24.8028  -18.0350 O   0  0  0  0  0  0  0  0  0  0  0  0
  -25.9040   23.1968  -19.5952 N   0  0  0  0  0  0  0  0  0  0  0  0
  -25.5523   23.8346  -20.2576 H   0  0  0  0  0  0  0  0  0  0  0  0
  -25.9512   22.2377  -19.8122 H   0  0  0  0  0  0  0  0  0  0  0  0
 20 22  1  0  0  0
 20 10  1  0  0  0
 22 21  1  0  0  0
 12 10  1  0  0  0
 12 13  2  0  0  0
 10 17  2  0  0  0
 13 15  1  0  0  0
 21 18  1  0  0  0
 29 28  2  0  0  0
 17 18  1  0  0  0
 17 16  1  0  0  0
 18 14  2  0  0  0
 15 16  2  0  0  0
 28 30  1  0  0  0
 28 27  1  0  0  0
 16 11  1  0  0  0
 26 27  1  0  0  0
 26 25  1  0  0  0
 14 19  1  0  0  0
 11 19  2  0  0  0
 11  1  1  0  0  0
 25 24  1  0  0  0
 19 23  1  0  0  0
  2  1  2  0  0  0
  2  7  1  0  0  0
  1  3  1  0  0  0
 24  7  1  0  0  0
  7  6  2  0  0  0
  3  4  2  0  0  0
  6  4  1  0  0  0
  4  5  1  0  0  0
  5  8  1  0  0  0
  5  9  1  0  0  0
 30 31  1  0  0  0
 30 32  1  0  0  0
M  END
> <minimizedAffinity>
-7.97607

$$$$
3WHA_WHA_A_302


 32 35  0  0  0  0  0  0  0  0999 V2000
  -28.0678   22.8919  -23.1617 C   0  0  0  0  0  0  0  0  0  0  0  0
  -28.0406   21.7680  -23.9079 N   0  0  0  0  0  0  0  0  0  0  0  0
  -28.7185   23.9881  -23.6271 N   0  0  0  0  0  0  0  0  0  0  0  0
  -29.3282   23.9559  -24.8069 C   0  0  0  0  0  0  0  0  0  0  0  0
  -29.9905   25.0169  -25.1915 N   0  0  0  0  0  0  0  0  0  0  0  0
  -29.3469   22.8339  -25.5387 N   0  0  0  0  0  0  0  0  0  0  0  0
  -28.6569   21.7628  -25.1048 C   0  0  0  0  0  0  0  0  0  0  0  0
  -29.9690   25.8356  -24.6451 H   0  0  0  0  0  0  0  0  0  0  0  0
  -30.5103   24.9965  -26.0274 H   0  0  0  0  0  0  0  0  0  0  0  0
  -27.9180   22.4574  -18.2175 C   0  0  0  0  0  0  0  0  0  0  0  0
  -27.3833   22.8978  -21.9062 C   0  0  0  0  0  0  0  0  0  0  0  0
  -29.2797   22.1134  -18.1836 C   0  0  0  0  0  0  0  0  0  0  0  0
  -30.0195   21.9970  -19.3715 C   0  0  0  0  0  0  0  0  0  0  0  0
  -25.2630   23.1866  -20.6897 C   0  0  0  0  0  0  0  0  0  0  0  0
  -29.4000   22.2689  -20.6000 C   0  0  0  0  0  0  0  0  0  0  0  0
  -28.0421   22.6428  -20.6751 C   0  0  0  0  0  0  0  0  0  0  0  0
  -27.2929   22.7069  -19.4621 C   0  0  0  0  0  0  0  0  0  0  0  0
  -25.9037   22.9621  -19.4840 C   0  0  0  0  0  0  0  0  0  0  0  0
  -26.0037   23.1941  -21.8768 C   0  0  0  0  0  0  0  0  0  0  0  0
  -27.1129   22.4807  -17.0194 C   0  0  0  0  0  0  0  0  0  0  0  0
  -25.1832   23.0166  -18.2421 C   0  0  0  0  0  0  0  0  0  0  0  0
  -25.7479   22.1242  -17.2242 O   0  0  0  0  0  0  0  0  0  0  0  0
  -25.1454   23.6191  -23.3334 Cl  0  0  0  0  0  0  0  0  0  0  0  0
  -28.7080   20.3537  -26.0878 S   0  0  0  0  0  0  0  0  0  0  0  0
  -26.9855   20.2639  -26.7204 C   0  0  0  0  0  0  0  0  0  0  0  0
  -26.3210   21.6339  -26.8165 C   0  0  0  0  0  0  0  0  0  0  0  0
  -24.8377   21.5114  -27.1915 C   0  0  0  0  0  0  0  0  0  0  0  0
  -24.1163   22.8291  -27.1485 C   0  0  0  0  0  0  0  0  0  0  0  0
  -24.4841   23.7172  -26.3729 O   0  0  0  0  0  0  0  0  0  0  0  0
  -23.0776   22.9159  -27.9617 N   0  0  0  0  0  0  0  0  0  0  0  0
  -22.5479   23.7450  -27.9970 H   0  0  0  0  0  0  0  0  0  0  0  0
  -22.8337   22.1513  -28.5320 H   0  0  0  0  0  0  0  0  0  0  0  0
 20 22  1  0  0  0
 20 10  1  0  0  0
 22 21  1  0  0  0
 12 10  1  0  0  0
 12 13  2  0  0  0
 10 17  2  0  0  0
 13 15  1  0  0  0
 21 18  1  0  0  0
 29 28  2  0  0  0
 17 18  1  0  0  0
 17 16  1  0  0  0
 18 14  2  0  0  0
 15 16  2  0  0  0
 28 30  1  0  0  0
 28 27  1  0  0  0
 16 11  1  0  0  0
 26 27  1  0  0  0
 26 25  1  0  0  0
 14 19  1  0  0  0
 11 19  2  0  0  0
 11  1  1  0  0  0
 25 24  1  0  0  0
 19 23  1  0  0  0
  2  1  2  0  0  0
  2  7  1  0  0  0
  1  3  1  0  0  0
 24  7  1  0  0  0
  7  6  2  0  0  0
  3  4  2  0  0  0
  6  4  1  0  0  0
  4  5  1  0  0  0
  5  8  1  0  0  0
  5  9  1  0  0  0
 30 31  1  0  0  0
 30 32  1  0  0  0
M  END
> <minimizedAffinity>
-7.67965

$$$$
3WHA_WHA_A_302


 32 35  0  0  0  0  0  0  0  0999 V2000
  -26.8534   22.8208  -22.7800 C   0  0  0  0  0  0  0  0  0  0  0  0
  -26.9724   21.8156  -23.6724 N   0  0  0  0  0  0  0  0  0  0  0  0
  -26.1239   23.9186  -23.1027 N   0  0  0  0  0  0  0  0  0  0  0  0
  -25.5333   24.0069  -24.2892 C   0  0  0  0  0  0  0  0  0  0  0  0
  -24.8864   25.1068  -24.5795 N   0  0  0  0  0  0  0  0  0  0  0  0
  -25.6788   23.0365  -25.2015 N   0  0  0  0  0  0  0  0  0  0  0  0
  -26.3562   21.9234  -24.8645 C   0  0  0  0  0  0  0  0  0  0  0  0
  -24.7861   25.8126  -23.9005 H   0  0  0  0  0  0  0  0  0  0  0  0
  -24.5000   25.2284  -25.4768 H   0  0  0  0  0  0  0  0  0  0  0  0
  -26.7576   22.3797  -17.8350 C   0  0  0  0  0  0  0  0  0  0  0  0
  -27.4850   22.6833  -21.5045 C   0  0  0  0  0  0  0  0  0  0  0  0
  -25.3602   22.5238  -17.8263 C   0  0  0  0  0  0  0  0  0  0  0  0
  -24.6553   22.7493  -19.0198 C   0  0  0  0  0  0  0  0  0  0  0  0
  -29.5789   22.4723  -20.2276 C   0  0  0  0  0  0  0  0  0  0  0  0
  -25.3522   22.7884  -20.2363 C   0  0  0  0  0  0  0  0  0  0  0  0
  -26.7517   22.6219  -20.2908 C   0  0  0  0  0  0  0  0  0  0  0  0
  -27.4574   22.4443  -19.0632 C   0  0  0  0  0  0  0  0  0  0  0  0
  -28.8687   22.3883  -19.0430 C   0  0  0  0  0  0  0  0  0  0  0  0
  -28.8910   22.5768  -21.4416 C   0  0  0  0  0  0  0  0  0  0  0  0
  -27.5132   22.2520  -16.6115 C   0  0  0  0  0  0  0  0  0  0  0  0
  -29.5435   22.2108  -17.7871 C   0  0  0  0  0  0  0  0  0  0  0  0
  -28.8189   22.8215  -16.6675 O   0  0  0  0  0  0  0  0  0  0  0  0
  -29.8545   22.5400  -22.8940 Cl  0  0  0  0  0  0  0  0  0  0  0  0
  -26.5040   20.7073  -26.0703 S   0  0  0  0  0  0  0  0  0  0  0  0
  -28.2550   20.1859  -25.8775 C   0  0  0  0  0  0  0  0  0  0  0  0
  -29.1700   20.7906  -26.9382 C   0  0  0  0  0  0  0  0  0  0  0  0
  -30.0799   21.8730  -26.3412 C   0  0  0  0  0  0  0  0  0  0  0  0
  -29.5613   23.2637  -26.5772 C   0  0  0  0  0  0  0  0  0  0  0  0
  -29.9191   24.1953  -25.8494 O   0  0  0  0  0  0  0  0  0  0  0  0
  -28.6978   23.3686  -27.5727 N   0  0  0  0  0  0  0  0  0  0  0  0
  -28.3082   24.2447  -27.7961 H   0  0  0  0  0  0  0  0  0  0  0  0
  -28.4445   22.5707  -28.0907 H   0  0  0  0  0  0  0  0  0  0  0  0
 20 22  1  0  0  0
 20 10  1  0  0  0
 22 21  1  0  0  0
 12 10  1  0  0  0
 12 13  2  0  0  0
 10 17  2  0  0  0
 13 15  1  0  0  0
 21 18  1  0  0  0
 29 28  2  0  0  0
 17 18  1  0  0  0
 17 16  1  0  0  0
 18 14  2  0  0  0
 15 16  2  0  0  0
 28 30  1  0  0  0
 28 27  1  0  0  0
 16 11  1  0  0  0
 26 27  1  0  0  0
 26 25  1  0  0  0
 14 19  1  0  0  0
 11 19  2  0  0  0
 11  1  1  0  0  0
 25 24  1  0  0  0
 19 23  1  0  0  0
  2  1  2  0  0  0
  2  7  1  0  0  0
  1  3  1  0  0  0
 24  7  1  0  0  0
  7  6  2  0  0  0
  3  4  2  0  0  0
  6  4  1  0  0  0
  4  5  1  0  0  0
  5  8  1  0  0  0
  5  9  1  0  0  0
 30 31  1  0  0  0
 30 32  1  0  0  0
M  END
> <minimizedAffinity>
-7.64186

$$$$
3WHA_WHA_A_302


 32 35  0  0  0  0  0  0  0  0999 V2000
  -29.5989   20.8560  -22.8781 C   0  0  0  0  0  0  0  0  0  0  0  0
  -30.1905   21.6667  -23.7802 N   0  0  0  0  0  0  0  0  0  0  0  0
  -29.5470   19.5203  -23.1123 N   0  0  0  0  0  0  0  0  0  0  0  0
  -30.0708   19.0128  -24.2225 C   0  0  0  0  0  0  0  0  0  0  0  0
  -29.9491   17.7271  -24.4340 N   0  0  0  0  0  0  0  0  0  0  0  0
  -30.6222   19.8101  -25.1472 N   0  0  0  0  0  0  0  0  0  0  0  0
  -30.7234   21.1279  -24.8929 C   0  0  0  0  0  0  0  0  0  0  0  0
  -29.5422   17.1516  -23.7467 H   0  0  0  0  0  0  0  0  0  0  0  0
  -30.2644   17.3355  -25.2804 H   0  0  0  0  0  0  0  0  0  0  0  0
  -25.9310   22.8979  -20.2259 C   0  0  0  0  0  0  0  0  0  0  0  0
  -29.0640   21.4336  -21.6844 C   0  0  0  0  0  0  0  0  0  0  0  0
  -25.0794   22.8745  -21.3430 C   0  0  0  0  0  0  0  0  0  0  0  0
  -25.5382   22.4054  -22.5846 C   0  0  0  0  0  0  0  0  0  0  0  0
  -29.4374   22.1076  -19.3465 C   0  0  0  0  0  0  0  0  0  0  0  0
  -26.8479   21.9163  -22.6966 C   0  0  0  0  0  0  0  0  0  0  0  0
  -27.7258   21.8980  -21.5929 C   0  0  0  0  0  0  0  0  0  0  0  0
  -27.2589   22.4255  -20.3518 C   0  0  0  0  0  0  0  0  0  0  0  0
  -28.1272   22.5406  -19.2436 C   0  0  0  0  0  0  0  0  0  0  0  0
  -29.8829   21.5255  -20.5385 C   0  0  0  0  0  0  0  0  0  0  0  0
  -25.5147   23.4718  -18.9684 C   0  0  0  0  0  0  0  0  0  0  0  0
  -27.6208   23.0787  -18.0114 C   0  0  0  0  0  0  0  0  0  0  0  0
  -26.5686   24.0782  -18.2241 O   0  0  0  0  0  0  0  0  0  0  0  0
  -31.5037   20.8840  -20.5395 Cl  0  0  0  0  0  0  0  0  0  0  0  0
  -31.4477   22.1020  -26.1099 S   0  0  0  0  0  0  0  0  0  0  0  0
  -30.0805   23.2482  -26.5486 C   0  0  0  0  0  0  0  0  0  0  0  0
  -28.9258   22.5446  -27.2554 C   0  0  0  0  0  0  0  0  0  0  0  0
  -27.7086   22.4007  -26.3315 C   0  0  0  0  0  0  0  0  0  0  0  0
  -26.5964   21.6049  -26.9547 C   0  0  0  0  0  0  0  0  0  0  0  0
  -26.7353   21.1121  -28.0787 O   0  0  0  0  0  0  0  0  0  0  0  0
  -25.4982   21.5254  -26.2230 N   0  0  0  0  0  0  0  0  0  0  0  0
  -24.7201   21.0226  -26.5562 H   0  0  0  0  0  0  0  0  0  0  0  0
  -25.4585   21.9690  -25.3450 H   0  0  0  0  0  0  0  0  0  0  0  0
 20 22  1  0  0  0
 20 10  1  0  0  0
 22 21  1  0  0  0
 12 10  1  0  0  0
 12 13  2  0  0  0
 10 17  2  0  0  0
 13 15  1  0  0  0
 21 18  1  0  0  0
 29 28  2  0  0  0
 17 18  1  0  0  0
 17 16  1  0  0  0
 18 14  2  0  0  0
 15 16  2  0  0  0
 28 30  1  0  0  0
 28 27  1  0  0  0
 16 11  1  0  0  0
 26 27  1  0  0  0
 26 25  1  0  0  0
 14 19  1  0  0  0
 11 19  2  0  0  0
 11  1  1  0  0  0
 25 24  1  0  0  0
 19 23  1  0  0  0
  2  1  2  0  0  0
  2  7  1  0  0  0
  1  3  1  0  0  0
 24  7  1  0  0  0
  7  6  2  0  0  0
  3  4  2  0  0  0
  6  4  1  0  0  0
  4  5  1  0  0  0
  5  8  1  0  0  0
  5  9  1  0  0  0
 30 31  1  0  0  0
 30 32  1  0  0  0
M  END
> <minimizedAffinity>
-7.59662

$$$$
3WHA_WHA_A_302


 32 35  0  0  0  0  0  0  0  0999 V2000
  -29.7479   20.3258  -22.4515 C   0  0  0  0  0  0  0  0  0  0  0  0
  -29.2064   19.6314  -21.4291 N   0  0  0  0  0  0  0  0  0  0  0  0
  -31.0088   20.8139  -22.3347 N   0  0  0  0  0  0  0  0  0  0  0  0
  -31.7054   20.6137  -21.2215 C   0  0  0  0  0  0  0  0  0  0  0  0
  -32.8958   21.1494  -21.1303 N   0  0  0  0  0  0  0  0  0  0  0  0
  -31.1648   19.9641  -20.1819 N   0  0  0  0  0  0  0  0  0  0  0  0
  -29.9355   19.4326  -20.3150 C   0  0  0  0  0  0  0  0  0  0  0  0
  -33.2823   21.6243  -21.9013 H   0  0  0  0  0  0  0  0  0  0  0  0
  -33.4049   21.0776  -20.2907 H   0  0  0  0  0  0  0  0  0  0  0  0
  -26.1831   22.5360  -25.1094 C   0  0  0  0  0  0  0  0  0  0  0  0
  -28.9776   20.5044  -23.6429 C   0  0  0  0  0  0  0  0  0  0  0  0
  -25.8024   23.3081  -23.9992 C   0  0  0  0  0  0  0  0  0  0  0  0
  -26.4413   23.1450  -22.7594 C   0  0  0  0  0  0  0  0  0  0  0  0
  -28.5510   19.8258  -25.9703 C   0  0  0  0  0  0  0  0  0  0  0  0
  -27.4986   22.2308  -22.6426 C   0  0  0  0  0  0  0  0  0  0  0  0
  -27.9285   21.4556  -23.7396 C   0  0  0  0  0  0  0  0  0  0  0  0
  -27.2345   21.5981  -24.9785 C   0  0  0  0  0  0  0  0  0  0  0  0
  -27.5428   20.7674  -26.0786 C   0  0  0  0  0  0  0  0  0  0  0  0
  -29.2823   19.7278  -24.7814 C   0  0  0  0  0  0  0  0  0  0  0  0
  -25.4725   22.6115  -26.3637 C   0  0  0  0  0  0  0  0  0  0  0  0
  -26.8205   20.9394  -27.3087 C   0  0  0  0  0  0  0  0  0  0  0  0
  -25.4405   21.3871  -27.0932 O   0  0  0  0  0  0  0  0  0  0  0  0
  -30.6218   18.6122  -24.7749 Cl  0  0  0  0  0  0  0  0  0  0  0  0
  -29.2950   18.6021  -18.9531 S   0  0  0  0  0  0  0  0  0  0  0  0
  -29.6747   19.7637  -17.5813 C   0  0  0  0  0  0  0  0  0  0  0  0
  -28.6437   20.8810  -17.4531 C   0  0  0  0  0  0  0  0  0  0  0  0
  -29.2473   22.1257  -16.7879 C   0  0  0  0  0  0  0  0  0  0  0  0
  -28.2445   23.2296  -16.6020 C   0  0  0  0  0  0  0  0  0  0  0  0
  -27.2399   23.2877  -17.3183 O   0  0  0  0  0  0  0  0  0  0  0  0
  -28.5569   24.1059  -15.6627 N   0  0  0  0  0  0  0  0  0  0  0  0
  -27.9549   24.8618  -15.4749 H   0  0  0  0  0  0  0  0  0  0  0  0
  -29.3917   24.0025  -15.1511 H   0  0  0  0  0  0  0  0  0  0  0  0
 20 22  1  0  0  0
 20 10  1  0  0  0
 22 21  1  0  0  0
 12 10  1  0  0  0
 12 13  2  0  0  0
 10 17  2  0  0  0
 13 15  1  0  0  0
 21 18  1  0  0  0
 29 28  2  0  0  0
 17 18  1  0  0  0
 17 16  1  0  0  0
 18 14  2  0  0  0
 15 16  2  0  0  0
 28 30  1  0  0  0
 28 27  1  0  0  0
 16 11  1  0  0  0
 26 27  1  0  0  0
 26 25  1  0  0  0
 14 19  1  0  0  0
 11 19  2  0  0  0
 11  1  1  0  0  0
 25 24  1  0  0  0
 19 23  1  0  0  0
  2  1  2  0  0  0
  2  7  1  0  0  0
  1  3  1  0  0  0
 24  7  1  0  0  0
  7  6  2  0  0  0
  3  4  2  0  0  0
  6  4  1  0  0  0
  4  5  1  0  0  0
  5  8  1  0  0  0
  5  9  1  0  0  0
 30 31  1  0  0  0
 30 32  1  0  0  0
M  END
> <minimizedAffinity>
-7.59072

$$$$
3WHA_WHA_A_302


 32 35  0  0  0  0  0  0  0  0999 V2000
  -26.3398   22.3517  -23.5680 C   0  0  0  0  0  0  0  0  0  0  0  0
  -27.0770   21.3669  -24.1226 N   0  0  0  0  0  0  0  0  0  0  0  0
  -25.5847   23.1508  -24.3635 N   0  0  0  0  0  0  0  0  0  0  0  0
  -25.5725   22.9689  -25.6793 C   0  0  0  0  0  0  0  0  0  0  0  0
  -24.8742   23.7972  -26.4132 N   0  0  0  0  0  0  0  0  0  0  0  0
  -26.3329   22.0237  -26.2479 N   0  0  0  0  0  0  0  0  0  0  0  0
  -27.0404   21.1954  -25.4574 C   0  0  0  0  0  0  0  0  0  0  0  0
  -24.3191   24.4875  -25.9836 H   0  0  0  0  0  0  0  0  0  0  0  0
  -24.9038   23.7300  -27.3950 H   0  0  0  0  0  0  0  0  0  0  0  0
  -28.6556   22.4702  -19.1770 C   0  0  0  0  0  0  0  0  0  0  0  0
  -26.3604   22.5058  -22.1465 C   0  0  0  0  0  0  0  0  0  0  0  0
  -29.8720   22.1144  -19.7832 C   0  0  0  0  0  0  0  0  0  0  0  0
  -29.9376   21.8573  -21.1622 C   0  0  0  0  0  0  0  0  0  0  0  0
  -25.1001   22.9554  -20.0804 C   0  0  0  0  0  0  0  0  0  0  0  0
  -28.7836   21.9994  -21.9466 C   0  0  0  0  0  0  0  0  0  0  0  0
  -27.5491   22.3804  -21.3810 C   0  0  0  0  0  0  0  0  0  0  0  0
  -27.4898   22.5883  -19.9703 C   0  0  0  0  0  0  0  0  0  0  0  0
  -26.2593   22.8576  -19.3311 C   0  0  0  0  0  0  0  0  0  0  0  0
  -25.1615   22.8215  -21.4719 C   0  0  0  0  0  0  0  0  0  0  0  0
  -28.5422   22.6368  -17.7476 C   0  0  0  0  0  0  0  0  0  0  0  0
  -26.2396   23.0589  -17.9086 C   0  0  0  0  0  0  0  0  0  0  0  0
  -27.2694   22.2777  -17.2153 O   0  0  0  0  0  0  0  0  0  0  0  0
  -23.6812   23.0935  -22.3515 Cl  0  0  0  0  0  0  0  0  0  0  0  0
  -27.9908   19.9958  -26.2398 S   0  0  0  0  0  0  0  0  0  0  0  0
  -29.6216   20.2020  -25.4191 C   0  0  0  0  0  0  0  0  0  0  0  0
  -30.4613   21.3102  -26.0473 C   0  0  0  0  0  0  0  0  0  0  0  0
  -30.5731   22.5244  -25.1150 C   0  0  0  0  0  0  0  0  0  0  0  0
  -29.5809   23.6040  -25.4448 C   0  0  0  0  0  0  0  0  0  0  0  0
  -29.1573   24.3542  -24.5597 O   0  0  0  0  0  0  0  0  0  0  0  0
  -29.2031   23.6376  -26.7112 N   0  0  0  0  0  0  0  0  0  0  0  0
  -28.5550   24.3140  -27.0138 H   0  0  0  0  0  0  0  0  0  0  0  0
  -29.5700   22.9861  -27.3518 H   0  0  0  0  0  0  0  0  0  0  0  0
 20 22  1  0  0  0
 20 10  1  0  0  0
 22 21  1  0  0  0
 12 10  1  0  0  0
 12 13  2  0  0  0
 10 17  2  0  0  0
 13 15  1  0  0  0
 21 18  1  0  0  0
 29 28  2  0  0  0
 17 18  1  0  0  0
 17 16  1  0  0  0
 18 14  2  0  0  0
 15 16  2  0  0  0
 28 30  1  0  0  0
 28 27  1  0  0  0
 16 11  1  0  0  0
 26 27  1  0  0  0
 26 25  1  0  0  0
 14 19  1  0  0  0
 11 19  2  0  0  0
 11  1  1  0  0  0
 25 24  1  0  0  0
 19 23  1  0  0  0
  2  1  2  0  0  0
  2  7  1  0  0  0
  1  3  1  0  0  0
 24  7  1  0  0  0
  7  6  2  0  0  0
  3  4  2  0  0  0
  6  4  1  0  0  0
  4  5  1  0  0  0
  5  8  1  0  0  0
  5  9  1  0  0  0
 30 31  1  0  0  0
 30 32  1  0  0  0
M  END
> <minimizedAffinity>
-7.58115

$$$$
