3TZA_TZG_A_261


 25 25  0  0  0  0  0  0  0  0999 V2000
   -3.7635   27.4865   56.8757 C   0  0  0  0  0  0  0  0  0  0  0  0
   -5.0879   27.9038   56.9037 C   0  0  0  0  0  0  0  0  0  0  0  0
   -6.0226   27.2856   56.0761 C   0  0  0  0  0  0  0  0  0  0  0  0
   -3.3641   26.4604   56.0195 C   0  0  0  0  0  0  0  0  0  0  0  0
   -5.5410   29.1731   57.9935 Cl  0  0  0  0  0  0  0  0  0  0  0  0
   -5.6215   26.2713   55.2178 C   0  0  0  0  0  0  0  0  0  0  0  0
   -4.2993   25.8486   55.1843 C   0  0  0  0  0  0  0  0  0  0  0  0
   -7.2982   27.6634   56.0564 N   0  0  0  0  0  0  0  0  0  0  0  0
   -8.3341   26.7283   56.3387 O   0  0  0  0  0  0  0  0  0  0  0  0
   -7.6252   28.9686   55.6299 O   0  0  0  0  0  0  0  0  0  0  0  0
   -1.8902   26.0686   56.0518 C   0  0  0  0  0  0  0  0  0  0  0  0
   -1.7256   24.8014   56.8706 C   0  0  0  0  0  0  0  0  0  0  0  0
   -2.0636   25.1011   58.2628 N   0  0  0  0  0  0  0  0  0  0  0  0
   -1.4510   25.8390   58.6102 H   0  0  0  0  0  0  0  0  0  0  0  0
   -1.9413   24.2625   58.8305 H   0  0  0  0  0  0  0  0  0  0  0  0
    0.5619   24.9437   57.4445 O   0  0  0  0  0  0  0  0  0  0  0  0
   -0.2810   24.3256   56.7538 C   0  0  0  0  0  0  0  0  0  0  0  0
   -0.0543   23.3591   55.9886 O   0  0  0  0  0  0  0  0  0  0  0  0
   -0.7577   22.9631   55.5128 H   0  0  0  0  0  0  0  0  0  0  0  0
   -3.9615   24.7207   54.2090 C   0  0  0  0  0  0  0  0  0  0  0  0
   -4.1131   25.1824   52.7626 C   0  0  0  0  0  0  0  0  0  0  0  0
   -5.1232   24.3067   52.0109 C   0  0  0  0  0  0  0  0  0  0  0  0
   -6.3143   24.3997   52.3590 O   0  0  0  0  0  0  0  0  0  0  0  0
   -4.6876   23.5530   51.1164 O   0  0  0  0  0  0  0  0  0  0  0  0
   -3.7723   23.5442   50.9158 H   0  0  0  0  0  0  0  0  0  0  0  0
  8  3  1  0  0  0
  8  9  1  0  0  0
  8 10  2  0  0  0
  1  2  2  0  0  0
  1  4  1  0  0  0
  2  3  1  0  0  0
  2  5  1  0  0  0
  3  6  2  0  0  0
 11 12  1  0  0  0
 11  4  1  0  0  0
 12 17  1  0  0  0
 12 13  1  0  0  0
 21 20  1  0  0  0
 21 22  1  0  0  0
 16 17  2  0  0  0
 17 18  1  0  0  0
  4  7  2  0  0  0
  6  7  1  0  0  0
  7 20  1  0  0  0
 22 23  2  0  0  0
 22 24  1  0  0  0
 18 19  1  0  0  0
 13 14  1  0  0  0
 13 15  1  0  0  0
 24 25  1  0  0  0
M  CHG 1   8   1
M  CHG 1   9  -1
M  END
> <minimizedAffinity>
-9.38604

$$$$
3TZA_TZG_A_261


 25 25  0  0  0  0  0  0  0  0999 V2000
   -3.4801   25.3104   54.0897 C   0  0  0  0  0  0  0  0  0  0  0  0
   -4.6548   25.1693   53.3622 C   0  0  0  0  0  0  0  0  0  0  0  0
   -5.8111   25.8191   53.7880 C   0  0  0  0  0  0  0  0  0  0  0  0
   -3.4547   26.0901   55.2460 C   0  0  0  0  0  0  0  0  0  0  0  0
   -4.6357   24.2017   51.9243 Cl  0  0  0  0  0  0  0  0  0  0  0  0
   -5.7863   26.5867   54.9441 C   0  0  0  0  0  0  0  0  0  0  0  0
   -4.6157   26.7326   55.6767 C   0  0  0  0  0  0  0  0  0  0  0  0
   -6.9630   25.6993   53.1330 N   0  0  0  0  0  0  0  0  0  0  0  0
   -7.7521   24.5217   53.2665 O   0  0  0  0  0  0  0  0  0  0  0  0
   -7.3368   26.6957   52.2057 O   0  0  0  0  0  0  0  0  0  0  0  0
   -2.1233   26.1869   55.9843 C   0  0  0  0  0  0  0  0  0  0  0  0
   -1.8377   24.8682   56.6791 C   0  0  0  0  0  0  0  0  0  0  0  0
   -2.0924   25.0332   58.1110 N   0  0  0  0  0  0  0  0  0  0  0  0
   -1.4953   25.7736   58.4794 H   0  0  0  0  0  0  0  0  0  0  0  0
   -1.8884   24.1592   58.5955 H   0  0  0  0  0  0  0  0  0  0  0  0
   -0.1491   23.8712   55.3614 O   0  0  0  0  0  0  0  0  0  0  0  0
   -0.3826   24.4858   56.4278 C   0  0  0  0  0  0  0  0  0  0  0  0
    0.4576   24.8191   57.2963 O   0  0  0  0  0  0  0  0  0  0  0  0
    0.1804   25.2793   58.0640 H   0  0  0  0  0  0  0  0  0  0  0  0
   -4.6923   27.6039   56.9306 C   0  0  0  0  0  0  0  0  0  0  0  0
   -6.1081   27.6240   57.4991 C   0  0  0  0  0  0  0  0  0  0  0  0
   -6.1988   28.5603   58.7105 C   0  0  0  0  0  0  0  0  0  0  0  0
   -6.9485   28.2058   59.6383 O   0  0  0  0  0  0  0  0  0  0  0  0
   -5.5323   29.6152   58.6818 O   0  0  0  0  0  0  0  0  0  0  0  0
   -4.9904   29.8070   57.9419 H   0  0  0  0  0  0  0  0  0  0  0  0
  8  3  1  0  0  0
  8  9  1  0  0  0
  8 10  2  0  0  0
  1  2  2  0  0  0
  1  4  1  0  0  0
  2  3  1  0  0  0
  2  5  1  0  0  0
  3  6  2  0  0  0
 11 12  1  0  0  0
 11  4  1  0  0  0
 12 17  1  0  0  0
 12 13  1  0  0  0
 21 20  1  0  0  0
 21 22  1  0  0  0
 16 17  2  0  0  0
 17 18  1  0  0  0
  4  7  2  0  0  0
  6  7  1  0  0  0
  7 20  1  0  0  0
 22 23  2  0  0  0
 22 24  1  0  0  0
 18 19  1  0  0  0
 13 14  1  0  0  0
 13 15  1  0  0  0
 24 25  1  0  0  0
M  CHG 1   8   1
M  CHG 1   9  -1
M  END
> <minimizedAffinity>
-9.30216

$$$$
3TZA_TZG_A_261


 25 25  0  0  0  0  0  0  0  0999 V2000
   -5.4396   26.7460   55.2454 C   0  0  0  0  0  0  0  0  0  0  0  0
   -6.0421   27.4498   56.2802 C   0  0  0  0  0  0  0  0  0  0  0  0
   -5.2988   27.7846   57.4098 C   0  0  0  0  0  0  0  0  0  0  0  0
   -4.1004   26.3665   55.3351 C   0  0  0  0  0  0  0  0  0  0  0  0
   -7.7046   27.9123   56.1189 Cl  0  0  0  0  0  0  0  0  0  0  0  0
   -3.9690   27.3978   57.5015 C   0  0  0  0  0  0  0  0  0  0  0  0
   -3.3598   26.6942   56.4711 C   0  0  0  0  0  0  0  0  0  0  0  0
   -5.8380   28.4427   58.4328 N   0  0  0  0  0  0  0  0  0  0  0  0
   -6.7070   27.7776   59.3436 O   0  0  0  0  0  0  0  0  0  0  0  0
   -5.6426   29.8368   58.5369 O   0  0  0  0  0  0  0  0  0  0  0  0
   -3.5212   25.5937   54.1543 C   0  0  0  0  0  0  0  0  0  0  0  0
   -4.6099   24.7396   53.5309 C   0  0  0  0  0  0  0  0  0  0  0  0
   -4.7071   23.4885   54.2842 N   0  0  0  0  0  0  0  0  0  0  0  0
   -3.8089   23.0058   54.2589 H   0  0  0  0  0  0  0  0  0  0  0  0
   -5.4239   22.8950   53.8667 H   0  0  0  0  0  0  0  0  0  0  0  0
   -3.1514   24.9313   51.6822 O   0  0  0  0  0  0  0  0  0  0  0  0
   -4.2476   24.4686   52.0742 C   0  0  0  0  0  0  0  0  0  0  0  0
   -5.0641   23.8053   51.3926 O   0  0  0  0  0  0  0  0  0  0  0  0
   -5.8613   23.5025   51.7807 H   0  0  0  0  0  0  0  0  0  0  0  0
   -1.8902   26.3209   56.6671 C   0  0  0  0  0  0  0  0  0  0  0  0
   -1.7435   24.8498   57.0450 C   0  0  0  0  0  0  0  0  0  0  0  0
   -0.2918   24.3837   56.8794 C   0  0  0  0  0  0  0  0  0  0  0  0
   -0.1068   23.3543   56.2051 O   0  0  0  0  0  0  0  0  0  0  0  0
    0.6015   25.0525   57.4386 O   0  0  0  0  0  0  0  0  0  0  0  0
    0.3757   25.8180   57.9295 H   0  0  0  0  0  0  0  0  0  0  0  0
  8  3  1  0  0  0
  8  9  1  0  0  0
  8 10  2  0  0  0
  1  2  2  0  0  0
  1  4  1  0  0  0
  2  3  1  0  0  0
  2  5  1  0  0  0
  3  6  2  0  0  0
 11 12  1  0  0  0
 11  4  1  0  0  0
 12 17  1  0  0  0
 12 13  1  0  0  0
 21 20  1  0  0  0
 21 22  1  0  0  0
 16 17  2  0  0  0
 17 18  1  0  0  0
  4  7  2  0  0  0
  6  7  1  0  0  0
  7 20  1  0  0  0
 22 23  2  0  0  0
 22 24  1  0  0  0
 18 19  1  0  0  0
 13 14  1  0  0  0
 13 15  1  0  0  0
 24 25  1  0  0  0
M  CHG 1   8   1
M  CHG 1   9  -1
M  END
> <minimizedAffinity>
-8.95649

$$$$
3TZA_TZG_A_261


 25 25  0  0  0  0  0  0  0  0999 V2000
   -2.0323   26.7961   51.9995 C   0  0  0  0  0  0  0  0  0  0  0  0
   -0.7749   26.5102   51.4837 C   0  0  0  0  0  0  0  0  0  0  0  0
    0.1099   25.7259   52.2204 C   0  0  0  0  0  0  0  0  0  0  0  0
   -2.4094   26.3106   53.2515 C   0  0  0  0  0  0  0  0  0  0  0  0
   -0.3550   27.1234   49.9179 Cl  0  0  0  0  0  0  0  0  0  0  0  0
   -0.2635   25.2517   53.4703 C   0  0  0  0  0  0  0  0  0  0  0  0
   -1.5189   25.5333   53.9925 C   0  0  0  0  0  0  0  0  0  0  0  0
    1.3305   25.4405   51.7745 N   0  0  0  0  0  0  0  0  0  0  0  0
    1.6791   24.1051   51.4249 O   0  0  0  0  0  0  0  0  0  0  0  0
    2.3172   26.4500   51.7693 O   0  0  0  0  0  0  0  0  0  0  0  0
   -3.8071   26.6761   53.7414 C   0  0  0  0  0  0  0  0  0  0  0  0
   -4.8401   25.9578   52.8928 C   0  0  0  0  0  0  0  0  0  0  0  0
   -6.0602   26.7658   52.8638 N   0  0  0  0  0  0  0  0  0  0  0  0
   -6.4023   26.8992   53.8154 H   0  0  0  0  0  0  0  0  0  0  0  0
   -6.7715   26.2878   52.3106 H   0  0  0  0  0  0  0  0  0  0  0  0
   -6.0275   24.5355   54.3589 O   0  0  0  0  0  0  0  0  0  0  0  0
   -5.1119   24.5875   53.5054 C   0  0  0  0  0  0  0  0  0  0  0  0
   -4.4090   23.6296   53.1059 O   0  0  0  0  0  0  0  0  0  0  0  0
   -3.7453   23.7729   52.4601 H   0  0  0  0  0  0  0  0  0  0  0  0
   -1.8348   24.9589   55.3737 C   0  0  0  0  0  0  0  0  0  0  0  0
   -0.6100   24.2785   55.9781 C   0  0  0  0  0  0  0  0  0  0  0  0
   -0.2680   24.8811   57.3464 C   0  0  0  0  0  0  0  0  0  0  0  0
    0.9208   25.1938   57.5401 O   0  0  0  0  0  0  0  0  0  0  0  0
   -1.1928   25.0043   58.1755 O   0  0  0  0  0  0  0  0  0  0  0  0
   -2.0636   24.7433   57.9483 H   0  0  0  0  0  0  0  0  0  0  0  0
  8  3  1  0  0  0
  8  9  1  0  0  0
  8 10  2  0  0  0
  1  2  2  0  0  0
  1  4  1  0  0  0
  2  3  1  0  0  0
  2  5  1  0  0  0
  3  6  2  0  0  0
 11 12  1  0  0  0
 11  4  1  0  0  0
 12 17  1  0  0  0
 12 13  1  0  0  0
 21 20  1  0  0  0
 21 22  1  0  0  0
 16 17  2  0  0  0
 17 18  1  0  0  0
  4  7  2  0  0  0
  6  7  1  0  0  0
  7 20  1  0  0  0
 22 23  2  0  0  0
 22 24  1  0  0  0
 18 19  1  0  0  0
 13 14  1  0  0  0
 13 15  1  0  0  0
 24 25  1  0  0  0
M  CHG 1   8   1
M  CHG 1   9  -1
M  END
> <minimizedAffinity>
-8.53517

$$$$
3TZA_TZG_A_261


 25 25  0  0  0  0  0  0  0  0999 V2000
   -0.2087   25.5597   52.9672 C   0  0  0  0  0  0  0  0  0  0  0  0
    0.0450   26.3268   51.8375 C   0  0  0  0  0  0  0  0  0  0  0  0
   -0.9694   27.1144   51.2976 C   0  0  0  0  0  0  0  0  0  0  0  0
   -1.4726   25.5674   53.5570 C   0  0  0  0  0  0  0  0  0  0  0  0
    1.6343   26.2966   51.1468 Cl  0  0  0  0  0  0  0  0  0  0  0  0
   -2.2291   27.1133   51.8802 C   0  0  0  0  0  0  0  0  0  0  0  0
   -2.4903   26.3491   53.0097 C   0  0  0  0  0  0  0  0  0  0  0  0
   -0.7776   27.8519   50.2069 N   0  0  0  0  0  0  0  0  0  0  0  0
   -0.6738   29.2688   50.3006 O   0  0  0  0  0  0  0  0  0  0  0  0
   -0.8037   27.2303   48.9398 O   0  0  0  0  0  0  0  0  0  0  0  0
   -1.6633   24.6928   54.7922 C   0  0  0  0  0  0  0  0  0  0  0  0
   -0.3616   24.6322   55.5702 C   0  0  0  0  0  0  0  0  0  0  0  0
    0.0514   23.2321   55.6758 N   0  0  0  0  0  0  0  0  0  0  0  0
   -0.6778   22.6971   56.1475 H   0  0  0  0  0  0  0  0  0  0  0  0
    0.9173   23.1725   56.2116 H   0  0  0  0  0  0  0  0  0  0  0  0
    0.1782   24.8388   57.8610 O   0  0  0  0  0  0  0  0  0  0  0  0
   -0.5871   25.2367   56.9524 C   0  0  0  0  0  0  0  0  0  0  0  0
   -1.5070   26.0803   57.0678 O   0  0  0  0  0  0  0  0  0  0  0  0
   -2.0266   26.3117   56.3232 H   0  0  0  0  0  0  0  0  0  0  0  0
   -3.9077   26.4225   53.5781 C   0  0  0  0  0  0  0  0  0  0  0  0
   -4.9141   25.7818   52.6268 C   0  0  0  0  0  0  0  0  0  0  0  0
   -4.6925   24.2670   52.5339 C   0  0  0  0  0  0  0  0  0  0  0  0
   -4.6858   23.6344   53.6055 O   0  0  0  0  0  0  0  0  0  0  0  0
   -4.5200   23.7726   51.4008 O   0  0  0  0  0  0  0  0  0  0  0  0
   -4.5403   24.3219   50.6420 H   0  0  0  0  0  0  0  0  0  0  0  0
  8  3  1  0  0  0
  8  9  1  0  0  0
  8 10  2  0  0  0
  1  2  2  0  0  0
  1  4  1  0  0  0
  2  3  1  0  0  0
  2  5  1  0  0  0
  3  6  2  0  0  0
 11 12  1  0  0  0
 11  4  1  0  0  0
 12 17  1  0  0  0
 12 13  1  0  0  0
 21 20  1  0  0  0
 21 22  1  0  0  0
 16 17  2  0  0  0
 17 18  1  0  0  0
  4  7  2  0  0  0
  6  7  1  0  0  0
  7 20  1  0  0  0
 22 23  2  0  0  0
 22 24  1  0  0  0
 18 19  1  0  0  0
 13 14  1  0  0  0
 13 15  1  0  0  0
 24 25  1  0  0  0
M  CHG 1   8   1
M  CHG 1   9  -1
M  END
> <minimizedAffinity>
-8.40251

$$$$
3TZA_TZG_A_261


 25 25  0  0  0  0  0  0  0  0999 V2000
   -2.3865   26.6192   53.2284 C   0  0  0  0  0  0  0  0  0  0  0  0
   -2.7386   27.7568   52.5136 C   0  0  0  0  0  0  0  0  0  0  0  0
   -3.7015   28.6226   53.0273 C   0  0  0  0  0  0  0  0  0  0  0  0
   -2.9966   26.3356   54.4502 C   0  0  0  0  0  0  0  0  0  0  0  0
   -1.9439   28.0758   51.0067 Cl  0  0  0  0  0  0  0  0  0  0  0  0
   -4.3145   28.3337   54.2386 C   0  0  0  0  0  0  0  0  0  0  0  0
   -3.9677   27.1984   54.9589 C   0  0  0  0  0  0  0  0  0  0  0  0
   -4.0829   29.7147   52.3700 N   0  0  0  0  0  0  0  0  0  0  0  0
   -3.4831   30.9749   52.6515 O   0  0  0  0  0  0  0  0  0  0  0  0
   -5.1755   29.6384   51.4796 O   0  0  0  0  0  0  0  0  0  0  0  0
   -2.5517   25.0638   55.1653 C   0  0  0  0  0  0  0  0  0  0  0  0
   -1.1185   25.2281   55.6366 C   0  0  0  0  0  0  0  0  0  0  0  0
   -0.2749   24.2915   54.8927 N   0  0  0  0  0  0  0  0  0  0  0  0
   -0.6018   23.3387   55.0527 H   0  0  0  0  0  0  0  0  0  0  0  0
    0.6906   24.3776   55.2104 H   0  0  0  0  0  0  0  0  0  0  0  0
    0.0571   24.5901   57.5841 O   0  0  0  0  0  0  0  0  0  0  0  0
   -1.0579   24.9410   57.1335 C   0  0  0  0  0  0  0  0  0  0  0  0
   -2.1164   25.0837   57.7895 O   0  0  0  0  0  0  0  0  0  0  0  0
   -2.9032   25.3515   57.3569 H   0  0  0  0  0  0  0  0  0  0  0  0
   -4.6967   26.9744   56.2840 C   0  0  0  0  0  0  0  0  0  0  0  0
   -4.3221   28.0454   57.3042 C   0  0  0  0  0  0  0  0  0  0  0  0
   -5.4788   28.3031   58.2778 C   0  0  0  0  0  0  0  0  0  0  0  0
   -5.5737   29.4529   58.7440 O   0  0  0  0  0  0  0  0  0  0  0  0
   -6.2350   27.3478   58.5489 O   0  0  0  0  0  0  0  0  0  0  0  0
   -6.0932   26.5108   58.1522 H   0  0  0  0  0  0  0  0  0  0  0  0
  8  3  1  0  0  0
  8  9  1  0  0  0
  8 10  2  0  0  0
  1  2  2  0  0  0
  1  4  1  0  0  0
  2  3  1  0  0  0
  2  5  1  0  0  0
  3  6  2  0  0  0
 11 12  1  0  0  0
 11  4  1  0  0  0
 12 17  1  0  0  0
 12 13  1  0  0  0
 21 20  1  0  0  0
 21 22  1  0  0  0
 16 17  2  0  0  0
 17 18  1  0  0  0
  4  7  2  0  0  0
  6  7  1  0  0  0
  7 20  1  0  0  0
 22 23  2  0  0  0
 22 24  1  0  0  0
 18 19  1  0  0  0
 13 14  1  0  0  0
 13 15  1  0  0  0
 24 25  1  0  0  0
M  CHG 1   8   1
M  CHG 1   9  -1
M  END
> <minimizedAffinity>
-8.29362

$$$$
3TZA_TZG_A_261


 25 25  0  0  0  0  0  0  0  0999 V2000
   -2.0218   25.4280   53.5426 C   0  0  0  0  0  0  0  0  0  0  0  0
   -1.0284   24.8400   54.3148 C   0  0  0  0  0  0  0  0  0  0  0  0
   -1.1204   24.8822   55.7042 C   0  0  0  0  0  0  0  0  0  0  0  0
   -3.1035   26.0660   54.1495 C   0  0  0  0  0  0  0  0  0  0  0  0
    0.2899   24.0463   53.5171 Cl  0  0  0  0  0  0  0  0  0  0  0  0
   -2.1925   25.5260   56.3064 C   0  0  0  0  0  0  0  0  0  0  0  0
   -3.1896   26.1160   55.5410 C   0  0  0  0  0  0  0  0  0  0  0  0
   -0.1842   24.3480   56.4843 N   0  0  0  0  0  0  0  0  0  0  0  0
   -0.0545   22.9344   56.5944 O   0  0  0  0  0  0  0  0  0  0  0  0
    0.5988   25.1924   57.3005 O   0  0  0  0  0  0  0  0  0  0  0  0
   -4.1460   26.6872   53.2251 C   0  0  0  0  0  0  0  0  0  0  0  0
   -5.3902   25.8182   53.2160 C   0  0  0  0  0  0  0  0  0  0  0  0
   -5.3005   24.8908   52.0873 N   0  0  0  0  0  0  0  0  0  0  0  0
   -5.2213   25.4192   51.2184 H   0  0  0  0  0  0  0  0  0  0  0  0
   -6.1385   24.3101   52.0569 H   0  0  0  0  0  0  0  0  0  0  0  0
   -6.8957   27.4202   54.0814 O   0  0  0  0  0  0  0  0  0  0  0  0
   -6.6157   26.7168   53.0833 C   0  0  0  0  0  0  0  0  0  0  0  0
   -7.2360   26.6857   51.9946 O   0  0  0  0  0  0  0  0  0  0  0  0
   -6.9446   26.1220   51.3052 H   0  0  0  0  0  0  0  0  0  0  0  0
   -4.3302   26.7939   56.3004 C   0  0  0  0  0  0  0  0  0  0  0  0
   -3.7996   27.5995   57.4827 C   0  0  0  0  0  0  0  0  0  0  0  0
   -4.9446   28.2937   58.2306 C   0  0  0  0  0  0  0  0  0  0  0  0
   -4.9201   29.5374   58.2636 O   0  0  0  0  0  0  0  0  0  0  0  0
   -5.8116   27.5727   58.7658 O   0  0  0  0  0  0  0  0  0  0  0  0
   -5.7557   26.6402   58.6927 H   0  0  0  0  0  0  0  0  0  0  0  0
  8  3  1  0  0  0
  8  9  1  0  0  0
  8 10  2  0  0  0
  1  2  2  0  0  0
  1  4  1  0  0  0
  2  3  1  0  0  0
  2  5  1  0  0  0
  3  6  2  0  0  0
 11 12  1  0  0  0
 11  4  1  0  0  0
 12 17  1  0  0  0
 12 13  1  0  0  0
 21 20  1  0  0  0
 21 22  1  0  0  0
 16 17  2  0  0  0
 17 18  1  0  0  0
  4  7  2  0  0  0
  6  7  1  0  0  0
  7 20  1  0  0  0
 22 23  2  0  0  0
 22 24  1  0  0  0
 18 19  1  0  0  0
 13 14  1  0  0  0
 13 15  1  0  0  0
 24 25  1  0  0  0
M  CHG 1   8   1
M  CHG 1   9  -1
M  END
> <minimizedAffinity>
-8.27614

$$$$
3TZA_TZG_A_261


 25 25  0  0  0  0  0  0  0  0999 V2000
   -1.8917   25.8462   53.6190 C   0  0  0  0  0  0  0  0  0  0  0  0
   -0.9649   25.1643   54.3968 C   0  0  0  0  0  0  0  0  0  0  0  0
   -1.1833   25.0256   55.7656 C   0  0  0  0  0  0  0  0  0  0  0  0
   -3.0323   26.3988   54.2014 C   0  0  0  0  0  0  0  0  0  0  0  0
    0.4307   24.4825   53.6277 Cl  0  0  0  0  0  0  0  0  0  0  0  0
   -2.3140   25.5844   56.3449 C   0  0  0  0  0  0  0  0  0  0  0  0
   -3.2451   26.2675   55.5739 C   0  0  0  0  0  0  0  0  0  0  0  0
   -0.3150   24.3958   56.5528 N   0  0  0  0  0  0  0  0  0  0  0  0
    0.6217   25.1325   57.3319 O   0  0  0  0  0  0  0  0  0  0  0  0
   -0.2448   22.9865   56.5147 O   0  0  0  0  0  0  0  0  0  0  0  0
   -3.9945   27.1334   53.2732 C   0  0  0  0  0  0  0  0  0  0  0  0
   -3.7496   28.6276   53.3769 C   0  0  0  0  0  0  0  0  0  0  0  0
   -5.0030   29.2779   53.7621 N   0  0  0  0  0  0  0  0  0  0  0  0
   -5.7192   29.0757   53.0646 H   0  0  0  0  0  0  0  0  0  0  0  0
   -4.8593   30.2861   53.8196 H   0  0  0  0  0  0  0  0  0  0  0  0
   -4.0612   29.8774   51.3963 O   0  0  0  0  0  0  0  0  0  0  0  0
   -3.2659   29.1409   52.0244 C   0  0  0  0  0  0  0  0  0  0  0  0
   -2.1195   28.7942   51.6545 O   0  0  0  0  0  0  0  0  0  0  0  0
   -1.5997   28.2371   52.1999 H   0  0  0  0  0  0  0  0  0  0  0  0
   -4.4589   26.8397   56.3065 C   0  0  0  0  0  0  0  0  0  0  0  0
   -4.0320   27.8362   57.3804 C   0  0  0  0  0  0  0  0  0  0  0  0
   -5.2273   28.2554   58.2450 C   0  0  0  0  0  0  0  0  0  0  0  0
   -5.2730   29.4477   58.5984 O   0  0  0  0  0  0  0  0  0  0  0  0
   -6.0621   27.3785   58.5482 O   0  0  0  0  0  0  0  0  0  0  0  0
   -5.9528   26.5007   58.2391 H   0  0  0  0  0  0  0  0  0  0  0  0
  8  3  1  0  0  0
  8  9  1  0  0  0
  8 10  2  0  0  0
  1  2  2  0  0  0
  1  4  1  0  0  0
  2  3  1  0  0  0
  2  5  1  0  0  0
  3  6  2  0  0  0
 11 12  1  0  0  0
 11  4  1  0  0  0
 12 17  1  0  0  0
 12 13  1  0  0  0
 21 20  1  0  0  0
 21 22  1  0  0  0
 16 17  2  0  0  0
 17 18  1  0  0  0
  4  7  2  0  0  0
  6  7  1  0  0  0
  7 20  1  0  0  0
 22 23  2  0  0  0
 22 24  1  0  0  0
 18 19  1  0  0  0
 13 14  1  0  0  0
 13 15  1  0  0  0
 24 25  1  0  0  0
M  CHG 1   8   1
M  CHG 1   9  -1
M  END
> <minimizedAffinity>
-8.22477

$$$$
3TZA_TZG_A_261


 25 25  0  0  0  0  0  0  0  0999 V2000
   -2.5616   26.5570   56.5547 C   0  0  0  0  0  0  0  0  0  0  0  0
   -1.4863   25.6995   56.3613 C   0  0  0  0  0  0  0  0  0  0  0  0
   -1.2471   25.1693   55.0955 C   0  0  0  0  0  0  0  0  0  0  0  0
   -3.4057   26.8822   55.4930 C   0  0  0  0  0  0  0  0  0  0  0  0
   -0.4562   25.3347   57.7066 Cl  0  0  0  0  0  0  0  0  0  0  0  0
   -2.0937   25.4863   54.0423 C   0  0  0  0  0  0  0  0  0  0  0  0
   -3.1707   26.3429   54.2280 C   0  0  0  0  0  0  0  0  0  0  0  0
   -0.2398   24.3305   54.8667 N   0  0  0  0  0  0  0  0  0  0  0  0
    0.0559   23.2866   55.7886 O   0  0  0  0  0  0  0  0  0  0  0  0
    0.6134   24.5602   53.7659 O   0  0  0  0  0  0  0  0  0  0  0  0
   -4.5634   27.8281   55.7961 C   0  0  0  0  0  0  0  0  0  0  0  0
   -5.5814   27.1131   56.6654 C   0  0  0  0  0  0  0  0  0  0  0  0
   -6.8197   26.9606   55.9003 N   0  0  0  0  0  0  0  0  0  0  0  0
   -7.1629   27.8800   55.6221 H   0  0  0  0  0  0  0  0  0  0  0  0
   -7.5210   26.4962   56.4773 H   0  0  0  0  0  0  0  0  0  0  0  0
   -5.3766   29.1126   57.9071 O   0  0  0  0  0  0  0  0  0  0  0  0
   -5.8202   27.9411   57.9240 C   0  0  0  0  0  0  0  0  0  0  0  0
   -6.4410   27.3918   58.8642 O   0  0  0  0  0  0  0  0  0  0  0  0
   -6.7329   26.5056   58.7783 H   0  0  0  0  0  0  0  0  0  0  0  0
   -4.0385   26.6333   53.0033 C   0  0  0  0  0  0  0  0  0  0  0  0
   -5.2297   25.6820   52.9369 C   0  0  0  0  0  0  0  0  0  0  0  0
   -4.7702   24.2484   52.6440 C   0  0  0  0  0  0  0  0  0  0  0  0
   -4.7275   23.4648   53.6099 O   0  0  0  0  0  0  0  0  0  0  0  0
   -4.4575   23.9661   51.4691 O   0  0  0  0  0  0  0  0  0  0  0  0
   -4.5189   24.6177   50.7986 H   0  0  0  0  0  0  0  0  0  0  0  0
  8  3  1  0  0  0
  8  9  1  0  0  0
  8 10  2  0  0  0
  1  2  2  0  0  0
  1  4  1  0  0  0
  2  3  1  0  0  0
  2  5  1  0  0  0
  3  6  2  0  0  0
 11 12  1  0  0  0
 11  4  1  0  0  0
 12 17  1  0  0  0
 12 13  1  0  0  0
 21 20  1  0  0  0
 21 22  1  0  0  0
 16 17  2  0  0  0
 17 18  1  0  0  0
  4  7  2  0  0  0
  6  7  1  0  0  0
  7 20  1  0  0  0
 22 23  2  0  0  0
 22 24  1  0  0  0
 18 19  1  0  0  0
 13 14  1  0  0  0
 13 15  1  0  0  0
 24 25  1  0  0  0
M  CHG 1   8   1
M  CHG 1   9  -1
M  END
> <minimizedAffinity>
-8.20003

$$$$
3TZA_TZG_A_261


 25 25  0  0  0  0  0  0  0  0999 V2000
   -3.7038   27.9802   53.4121 C   0  0  0  0  0  0  0  0  0  0  0  0
   -2.9918   28.3196   52.2689 C   0  0  0  0  0  0  0  0  0  0  0  0
   -1.9552   27.4972   51.8334 C   0  0  0  0  0  0  0  0  0  0  0  0
   -3.3813   26.8280   54.1290 C   0  0  0  0  0  0  0  0  0  0  0  0
   -3.4368   29.7533   51.4026 Cl  0  0  0  0  0  0  0  0  0  0  0  0
   -1.6295   26.3562   52.5534 C   0  0  0  0  0  0  0  0  0  0  0  0
   -2.3367   26.0103   53.6972 C   0  0  0  0  0  0  0  0  0  0  0  0
   -1.2347   27.7911   50.7541 N   0  0  0  0  0  0  0  0  0  0  0  0
   -1.3837   27.0351   49.5569 O   0  0  0  0  0  0  0  0  0  0  0  0
   -0.2297   28.7784   50.8427 O   0  0  0  0  0  0  0  0  0  0  0  0
   -4.2129   26.5339   55.3736 C   0  0  0  0  0  0  0  0  0  0  0  0
   -3.7176   27.3929   56.5226 C   0  0  0  0  0  0  0  0  0  0  0  0
   -2.9622   26.5439   57.4449 N   0  0  0  0  0  0  0  0  0  0  0  0
   -3.5632   25.7938   57.7863 H   0  0  0  0  0  0  0  0  0  0  0  0
   -2.6363   27.1037   58.2329 H   0  0  0  0  0  0  0  0  0  0  0  0
   -5.4051   29.0387   56.6822 O   0  0  0  0  0  0  0  0  0  0  0  0
   -4.9204   28.0177   57.2225 C   0  0  0  0  0  0  0  0  0  0  0  0
   -5.3290   27.4621   58.2692 O   0  0  0  0  0  0  0  0  0  0  0  0
   -4.8949   26.6978   58.5939 H   0  0  0  0  0  0  0  0  0  0  0  0
   -1.9036   24.7313   54.4141 C   0  0  0  0  0  0  0  0  0  0  0  0
   -0.5559   24.9190   55.1046 C   0  0  0  0  0  0  0  0  0  0  0  0
   -0.5986   24.3882   56.5429 C   0  0  0  0  0  0  0  0  0  0  0  0
    0.3904   24.6284   57.2589 O   0  0  0  0  0  0  0  0  0  0  0  0
   -1.6071   23.7426   56.8952 O   0  0  0  0  0  0  0  0  0  0  0  0
   -2.3107   23.6066   56.2915 H   0  0  0  0  0  0  0  0  0  0  0  0
  8  3  1  0  0  0
  8  9  1  0  0  0
  8 10  2  0  0  0
  1  2  2  0  0  0
  1  4  1  0  0  0
  2  3  1  0  0  0
  2  5  1  0  0  0
  3  6  2  0  0  0
 11 12  1  0  0  0
 11  4  1  0  0  0
 12 17  1  0  0  0
 12 13  1  0  0  0
 21 20  1  0  0  0
 21 22  1  0  0  0
 16 17  2  0  0  0
 17 18  1  0  0  0
  4  7  2  0  0  0
  6  7  1  0  0  0
  7 20  1  0  0  0
 22 23  2  0  0  0
 22 24  1  0  0  0
 18 19  1  0  0  0
 13 14  1  0  0  0
 13 15  1  0  0  0
 24 25  1  0  0  0
M  CHG 1   8   1
M  CHG 1   9  -1
M  END
> <minimizedAffinity>
-8.10559

$$$$
