3S54_017_B_201


 42 45  0  0  0  0  0  0  0  0999 V2000
   16.8559   24.4673   17.8936 C   0  0  0  0  0  0  0  0  0  0  0  0
   16.1784   25.6917   18.1599 O   0  0  0  0  0  0  0  0  0  0  0  0
   16.6701   26.4266   17.7613 H   0  0  0  0  0  0  0  0  0  0  0  0
   18.2576   24.4716   18.5790 C   0  0  0  0  0  0  0  0  0  0  0  0
   18.2456   23.4714   19.7232 N   0  0  0  0  0  0  0  0  0  0  0  0
   18.3067   21.7779   19.1466 S   0  0  0  0  0  0  0  0  0  0  0  0
   19.2119   20.9114   20.1097 O   0  0  0  0  0  0  0  0  0  0  0  0
   18.8821   21.7947   17.6592 O   0  0  0  0  0  0  0  0  0  0  0  0
   13.1202   18.9654   19.4679 N   0  0  0  0  0  0  0  0  0  0  0  0
   14.3149   19.6167   19.3585 C   0  0  0  0  0  0  0  0  0  0  0  0
   15.1964   19.2947   18.3213 C   0  0  0  0  0  0  0  0  0  0  0  0
   16.4314   19.9589   18.2041 C   0  0  0  0  0  0  0  0  0  0  0  0
   16.6592   20.9966   19.1213 C   0  0  0  0  0  0  0  0  0  0  0  0
   15.8173   21.2779   20.2034 C   0  0  0  0  0  0  0  0  0  0  0  0
   14.5884   20.5982   20.3285 C   0  0  0  0  0  0  0  0  0  0  0  0
   12.8776   18.2689   18.8156 H   0  0  0  0  0  0  0  0  0  0  0  0
   12.5011   19.1921   20.1990 H   0  0  0  0  0  0  0  0  0  0  0  0
   19.1206   23.8310   20.8922 C   0  0  0  0  0  0  0  0  0  0  0  0
   20.4833   24.4457   20.4348 C   0  0  0  0  0  0  0  0  0  0  0  0
   20.7611   25.6854   21.2792 C   0  0  0  0  0  0  0  0  0  0  0  0
   21.5312   23.3670   20.7388 C   0  0  0  0  0  0  0  0  0  0  0  0
   16.8750   24.1688   16.3574 C   0  0  0  0  0  0  0  0  0  0  0  0
   15.6187   23.5409   16.0172 N   0  0  0  0  0  0  0  0  0  0  0  0
   15.5209   22.2572   15.5895 C   0  0  0  0  0  0  0  0  0  0  0  0
   16.5195   21.5230   15.2880 O   0  0  0  0  0  0  0  0  0  0  0  0
   14.7931   24.0708   16.0999 H   0  0  0  0  0  0  0  0  0  0  0  0
   14.1584   21.8335   15.5364 O   0  0  0  0  0  0  0  0  0  0  0  0
   13.5284   21.9432   14.2082 C   0  0  0  0  0  0  0  0  0  0  0  0
   14.3523   20.9571   13.3488 C   0  0  0  0  0  0  0  0  0  0  0  0
   13.8833   19.6249   13.7134 O   0  0  0  0  0  0  0  0  0  0  0  0
   12.5128   19.7969   14.0734 C   0  0  0  0  0  0  0  0  0  0  0  0
   12.1219   19.0544   15.2468 O   0  0  0  0  0  0  0  0  0  0  0  0
   11.6958   20.0665   16.1628 C   0  0  0  0  0  0  0  0  0  0  0  0
   11.1836   21.2630   15.3216 C   0  0  0  0  0  0  0  0  0  0  0  0
   12.1782   21.2142   14.1756 C   0  0  0  0  0  0  0  0  0  0  0  0
   16.9616   25.4434   15.4352 C   0  0  0  0  0  0  0  0  0  0  0  0
   18.5872   26.6339   13.8672 C   0  0  0  0  0  0  0  0  0  0  0  0
   19.8200   26.7560   13.1824 C   0  0  0  0  0  0  0  0  0  0  0  0
   20.7699   25.7169   13.3466 C   0  0  0  0  0  0  0  0  0  0  0  0
   20.5122   24.6522   14.2214 C   0  0  0  0  0  0  0  0  0  0  0  0
   19.2608   24.5255   14.8658 C   0  0  0  0  0  0  0  0  0  0  0  0
   18.3375   25.5852   14.7562 C   0  0  0  0  0  0  0  0  0  0  0  0
  9 10  1  0  0  0
 10 11  2  0  0  0
 10 15  1  0  0  0
 11 12  1  0  0  0
 12 13  2  0  0  0
 13 14  1  0  0  0
 13  6  1  0  0  0
 14 15  2  0  0  0
  6  7  2  0  0  0
  6  8  2  0  0  0
  6  5  1  0  0  0
  5 18  1  0  0  0
  5  4  1  0  0  0
 18 19  1  0  0  0
 19 20  1  0  0  0
 19 21  1  0  0  0
  4  1  1  0  0  0
  1  2  1  0  0  0
  1 22  1  0  0  0
 22 23  1  0  0  0
 22 36  1  0  0  0
 23 24  1  0  0  0
 24 25  2  0  0  0
 24 27  1  0  0  0
 27 28  1  0  0  0
 28 29  1  0  0  0
 28 35  1  0  0  0
 29 30  1  0  0  0
 30 31  1  0  0  0
 31 32  1  0  0  0
 31 35  1  0  0  0
 32 33  1  0  0  0
 33 34  1  0  0  0
 34 35  1  0  0  0
 36 42  1  0  0  0
 37 38  2  0  0  0
 37 42  1  0  0  0
 38 39  1  0  0  0
 39 40  2  0  0  0
 40 41  1  0  0  0
 41 42  2  0  0  0
  9 16  1  0  0  0
  9 17  1  0  0  0
  2  3  1  0  0  0
 23 26  1  0  0  0
M  END
> <minimizedAffinity>
-9.97794

$$$$
3S54_017_B_201


 42 45  0  0  0  0  0  0  0  0999 V2000
   18.1590   23.7293   17.4027 C   0  0  0  0  0  0  0  0  0  0  0  0
   18.8016   22.4992   17.7238 O   0  0  0  0  0  0  0  0  0  0  0  0
   19.0630   22.0478   16.9060 H   0  0  0  0  0  0  0  0  0  0  0  0
   16.8377   23.4539   16.6196 C   0  0  0  0  0  0  0  0  0  0  0  0
   16.2443   22.1427   17.1076 N   0  0  0  0  0  0  0  0  0  0  0  0
   15.4079   22.3183   18.6803 S   0  0  0  0  0  0  0  0  0  0  0  0
   14.3716   23.5096   18.6114 O   0  0  0  0  0  0  0  0  0  0  0  0
   16.5212   22.5738   19.7935 O   0  0  0  0  0  0  0  0  0  0  0  0
   11.9834   17.7852   20.3044 N   0  0  0  0  0  0  0  0  0  0  0  0
   12.8031   18.8139   19.9388 C   0  0  0  0  0  0  0  0  0  0  0  0
   13.9084   19.1444   20.7295 C   0  0  0  0  0  0  0  0  0  0  0  0
   14.7558   20.2058   20.3613 C   0  0  0  0  0  0  0  0  0  0  0  0
   14.4680   20.8230   19.1341 C   0  0  0  0  0  0  0  0  0  0  0  0
   13.3261   20.5475   18.3731 C   0  0  0  0  0  0  0  0  0  0  0  0
   12.4689   19.4950   18.7540 C   0  0  0  0  0  0  0  0  0  0  0  0
   12.1707   17.2743   21.1249 H   0  0  0  0  0  0  0  0  0  0  0  0
   11.2050   17.5543   19.7476 H   0  0  0  0  0  0  0  0  0  0  0  0
   15.5556   21.3235   16.0510 C   0  0  0  0  0  0  0  0  0  0  0  0
   15.0359   22.2085   14.8718 C   0  0  0  0  0  0  0  0  0  0  0  0
   15.1629   21.4111   13.5777 C   0  0  0  0  0  0  0  0  0  0  0  0
   13.5543   22.4590   15.1822 C   0  0  0  0  0  0  0  0  0  0  0  0
   19.1552   24.7042   16.6910 C   0  0  0  0  0  0  0  0  0  0  0  0
   20.4288   24.5990   17.3658 N   0  0  0  0  0  0  0  0  0  0  0  0
   20.9655   25.6043   18.1017 C   0  0  0  0  0  0  0  0  0  0  0  0
   20.4965   26.7897   18.1476 O   0  0  0  0  0  0  0  0  0  0  0  0
   20.9316   23.7562   17.2877 H   0  0  0  0  0  0  0  0  0  0  0  0
   22.1115   25.1577   18.8270 O   0  0  0  0  0  0  0  0  0  0  0  0
   21.9795   23.8176   19.4267 C   0  0  0  0  0  0  0  0  0  0  0  0
   23.4401   23.4425   19.7673 C   0  0  0  0  0  0  0  0  0  0  0  0
   23.7740   24.1977   20.9698 O   0  0  0  0  0  0  0  0  0  0  0  0
   22.5427   24.3346   21.6788 C   0  0  0  0  0  0  0  0  0  0  0  0
   22.3388   25.6469   22.2422 O   0  0  0  0  0  0  0  0  0  0  0  0
   21.1416   26.1061   21.6089 C   0  0  0  0  0  0  0  0  0  0  0  0
   20.3027   24.8543   21.2471 C   0  0  0  0  0  0  0  0  0  0  0  0
   21.4188   23.9036   20.8528 C   0  0  0  0  0  0  0  0  0  0  0  0
   19.4579   24.3591   15.1837 C   0  0  0  0  0  0  0  0  0  0  0  0
   19.6427   26.8851   14.8615 C   0  0  0  0  0  0  0  0  0  0  0  0
   19.9621   28.0420   14.1110 C   0  0  0  0  0  0  0  0  0  0  0  0
   20.4392   27.8581   12.7890 C   0  0  0  0  0  0  0  0  0  0  0  0
   20.6551   26.5675   12.2862 C   0  0  0  0  0  0  0  0  0  0  0  0
   20.2933   25.4243   13.0342 C   0  0  0  0  0  0  0  0  0  0  0  0
   19.8780   25.5984   14.3701 C   0  0  0  0  0  0  0  0  0  0  0  0
  9 10  1  0  0  0
 10 11  2  0  0  0
 10 15  1  0  0  0
 11 12  1  0  0  0
 12 13  2  0  0  0
 13 14  1  0  0  0
 13  6  1  0  0  0
 14 15  2  0  0  0
  6  7  2  0  0  0
  6  8  2  0  0  0
  6  5  1  0  0  0
  5 18  1  0  0  0
  5  4  1  0  0  0
 18 19  1  0  0  0
 19 20  1  0  0  0
 19 21  1  0  0  0
  4  1  1  0  0  0
  1  2  1  0  0  0
  1 22  1  0  0  0
 22 23  1  0  0  0
 22 36  1  0  0  0
 23 24  1  0  0  0
 24 25  2  0  0  0
 24 27  1  0  0  0
 27 28  1  0  0  0
 28 29  1  0  0  0
 28 35  1  0  0  0
 29 30  1  0  0  0
 30 31  1  0  0  0
 31 32  1  0  0  0
 31 35  1  0  0  0
 32 33  1  0  0  0
 33 34  1  0  0  0
 34 35  1  0  0  0
 36 42  1  0  0  0
 37 38  2  0  0  0
 37 42  1  0  0  0
 38 39  1  0  0  0
 39 40  2  0  0  0
 40 41  1  0  0  0
 41 42  2  0  0  0
  9 16  1  0  0  0
  9 17  1  0  0  0
  2  3  1  0  0  0
 23 26  1  0  0  0
M  END
> <minimizedAffinity>
-9.91341

$$$$
3S54_017_B_201


 42 45  0  0  0  0  0  0  0  0999 V2000
   16.4415   24.1715   18.0968 C   0  0  0  0  0  0  0  0  0  0  0  0
   15.4779   25.0144   18.7215 O   0  0  0  0  0  0  0  0  0  0  0  0
   15.6992   25.9427   18.5475 H   0  0  0  0  0  0  0  0  0  0  0  0
   17.8481   24.4066   18.7298 C   0  0  0  0  0  0  0  0  0  0  0  0
   18.0551   23.3996   19.8491 N   0  0  0  0  0  0  0  0  0  0  0  0
   18.2333   21.7277   19.2354 S   0  0  0  0  0  0  0  0  0  0  0  0
   19.0890   20.8682   20.2488 O   0  0  0  0  0  0  0  0  0  0  0  0
   18.9303   21.8106   17.8032 O   0  0  0  0  0  0  0  0  0  0  0  0
   13.1739   18.6834   19.0142 N   0  0  0  0  0  0  0  0  0  0  0  0
   14.3409   19.3916   19.0303 C   0  0  0  0  0  0  0  0  0  0  0  0
   15.2839   19.2119   18.0131 C   0  0  0  0  0  0  0  0  0  0  0  0
   16.4908   19.9354   18.0248 C   0  0  0  0  0  0  0  0  0  0  0  0
   16.6269   20.8848   19.0495 C   0  0  0  0  0  0  0  0  0  0  0  0
   15.7231   21.0211   20.1095 C   0  0  0  0  0  0  0  0  0  0  0  0
   14.5227   20.2818   20.1045 C   0  0  0  0  0  0  0  0  0  0  0  0
   12.9948   18.0462   18.2855 H   0  0  0  0  0  0  0  0  0  0  0  0
   12.5114   18.8099   19.7314 H   0  0  0  0  0  0  0  0  0  0  0  0
   19.0012   23.8381   20.9328 C   0  0  0  0  0  0  0  0  0  0  0  0
   20.3285   24.4220   20.3486 C   0  0  0  0  0  0  0  0  0  0  0  0
   20.6833   25.6854   21.1264 C   0  0  0  0  0  0  0  0  0  0  0  0
   21.3878   23.3420   20.6047 C   0  0  0  0  0  0  0  0  0  0  0  0
   16.3855   24.3267   16.5405 C   0  0  0  0  0  0  0  0  0  0  0  0
   17.3485   25.3370   16.1658 N   0  0  0  0  0  0  0  0  0  0  0  0
   17.9793   25.3538   14.9650 C   0  0  0  0  0  0  0  0  0  0  0  0
   17.9197   24.4095   14.1095 O   0  0  0  0  0  0  0  0  0  0  0  0
   17.5570   26.0480   16.8140 H   0  0  0  0  0  0  0  0  0  0  0  0
   18.7036   26.5704   14.7797 O   0  0  0  0  0  0  0  0  0  0  0  0
   20.0227   26.4131   14.1408 C   0  0  0  0  0  0  0  0  0  0  0  0
   20.2862   27.8110   13.5357 C   0  0  0  0  0  0  0  0  0  0  0  0
   20.6758   28.6613   14.6550 O   0  0  0  0  0  0  0  0  0  0  0  0
   21.3255   27.7883   15.5788 C   0  0  0  0  0  0  0  0  0  0  0  0
   20.9637   28.0244   16.9551 O   0  0  0  0  0  0  0  0  0  0  0  0
   20.3825   26.7856   17.3708 C   0  0  0  0  0  0  0  0  0  0  0  0
   21.0254   25.6651   16.5147 C   0  0  0  0  0  0  0  0  0  0  0  0
   21.1446   26.3934   15.1879 C   0  0  0  0  0  0  0  0  0  0  0  0
   16.8013   23.0408   15.7304 C   0  0  0  0  0  0  0  0  0  0  0  0
   15.5490   21.7257   13.9357 C   0  0  0  0  0  0  0  0  0  0  0  0
   14.4191   21.0375   13.4325 C   0  0  0  0  0  0  0  0  0  0  0  0
   13.2684   20.9698   14.2573 C   0  0  0  0  0  0  0  0  0  0  0  0
   13.2925   21.5035   15.5533 C   0  0  0  0  0  0  0  0  0  0  0  0
   14.4146   22.2218   16.0245 C   0  0  0  0  0  0  0  0  0  0  0  0
   15.5825   22.2387   15.2350 C   0  0  0  0  0  0  0  0  0  0  0  0
  9 10  1  0  0  0
 10 11  2  0  0  0
 10 15  1  0  0  0
 11 12  1  0  0  0
 12 13  2  0  0  0
 13 14  1  0  0  0
 13  6  1  0  0  0
 14 15  2  0  0  0
  6  7  2  0  0  0
  6  8  2  0  0  0
  6  5  1  0  0  0
  5 18  1  0  0  0
  5  4  1  0  0  0
 18 19  1  0  0  0
 19 20  1  0  0  0
 19 21  1  0  0  0
  4  1  1  0  0  0
  1  2  1  0  0  0
  1 22  1  0  0  0
 22 23  1  0  0  0
 22 36  1  0  0  0
 23 24  1  0  0  0
 24 25  2  0  0  0
 24 27  1  0  0  0
 27 28  1  0  0  0
 28 29  1  0  0  0
 28 35  1  0  0  0
 29 30  1  0  0  0
 30 31  1  0  0  0
 31 32  1  0  0  0
 31 35  1  0  0  0
 32 33  1  0  0  0
 33 34  1  0  0  0
 34 35  1  0  0  0
 36 42  1  0  0  0
 37 38  2  0  0  0
 37 42  1  0  0  0
 38 39  1  0  0  0
 39 40  2  0  0  0
 40 41  1  0  0  0
 41 42  2  0  0  0
  9 16  1  0  0  0
  9 17  1  0  0  0
  2  3  1  0  0  0
 23 26  1  0  0  0
M  END
> <minimizedAffinity>
-9.58902

$$$$
3S54_017_B_201


 42 45  0  0  0  0  0  0  0  0999 V2000
   16.5071   24.1191   16.3712 C   0  0  0  0  0  0  0  0  0  0  0  0
   16.0627   24.6620   17.6109 O   0  0  0  0  0  0  0  0  0  0  0  0
   16.7118   24.4612   18.3031 H   0  0  0  0  0  0  0  0  0  0  0  0
   16.5744   22.5629   16.4624 C   0  0  0  0  0  0  0  0  0  0  0  0
   15.1806   22.0291   16.7489 N   0  0  0  0  0  0  0  0  0  0  0  0
   14.9280   21.6857   18.4873 S   0  0  0  0  0  0  0  0  0  0  0  0
   14.2641   22.9338   19.1940 O   0  0  0  0  0  0  0  0  0  0  0  0
   16.3494   21.3400   19.1228 O   0  0  0  0  0  0  0  0  0  0  0  0
   10.9629   17.4294   19.5243 N   0  0  0  0  0  0  0  0  0  0  0  0
   11.9048   18.3903   19.2939 C   0  0  0  0  0  0  0  0  0  0  0  0
   12.9914   18.5296   20.1635 C   0  0  0  0  0  0  0  0  0  0  0  0
   13.9643   19.5202   19.9349 C   0  0  0  0  0  0  0  0  0  0  0  0
   13.8131   20.2681   18.7569 C   0  0  0  0  0  0  0  0  0  0  0  0
   12.6943   20.1848   17.9202 C   0  0  0  0  0  0  0  0  0  0  0  0
   11.7118   19.2030   18.1618 C   0  0  0  0  0  0  0  0  0  0  0  0
   11.0486   16.8326   20.3026 H   0  0  0  0  0  0  0  0  0  0  0  0
   10.1979   17.3331   18.9121 H   0  0  0  0  0  0  0  0  0  0  0  0
   14.0682   22.7294   16.0183 C   0  0  0  0  0  0  0  0  0  0  0  0
   13.7072   22.0117   14.6772 C   0  0  0  0  0  0  0  0  0  0  0  0
   14.2973   20.6053   14.7086 C   0  0  0  0  0  0  0  0  0  0  0  0
   12.1751   21.9300   14.6667 C   0  0  0  0  0  0  0  0  0  0  0  0
   17.8335   24.8095   15.9090 C   0  0  0  0  0  0  0  0  0  0  0  0
   18.8883   24.3681   16.7927 N   0  0  0  0  0  0  0  0  0  0  0  0
   19.7103   25.2213   17.4535 C   0  0  0  0  0  0  0  0  0  0  0  0
   19.7529   26.4797   17.2494 O   0  0  0  0  0  0  0  0  0  0  0  0
   19.0168   23.4005   16.9214 H   0  0  0  0  0  0  0  0  0  0  0  0
   20.5074   24.5290   18.4148 O   0  0  0  0  0  0  0  0  0  0  0  0
   19.8390   24.2749   19.7040 C   0  0  0  0  0  0  0  0  0  0  0  0
   19.7798   22.7314   19.7680 C   0  0  0  0  0  0  0  0  0  0  0  0
   21.1267   22.2966   20.1208 O   0  0  0  0  0  0  0  0  0  0  0  0
   21.6624   23.3511   20.9199 C   0  0  0  0  0  0  0  0  0  0  0  0
   23.0348   23.6733   20.6137 O   0  0  0  0  0  0  0  0  0  0  0  0
   22.9791   25.0427   20.2052 C   0  0  0  0  0  0  0  0  0  0  0  0
   21.7669   25.6885   20.9228 C   0  0  0  0  0  0  0  0  0  0  0  0
   20.7938   24.5238   20.8795 C   0  0  0  0  0  0  0  0  0  0  0  0
   18.3166   24.4160   14.4619 C   0  0  0  0  0  0  0  0  0  0  0  0
   20.1836   25.3886   13.0173 C   0  0  0  0  0  0  0  0  0  0  0  0
   20.8657   26.4567   12.3867 C   0  0  0  0  0  0  0  0  0  0  0  0
   20.3639   27.7672   12.5862 C   0  0  0  0  0  0  0  0  0  0  0  0
   19.1876   27.9720   13.3207 C   0  0  0  0  0  0  0  0  0  0  0  0
   18.5422   26.8992   13.9764 C   0  0  0  0  0  0  0  0  0  0  0  0
   18.9991   25.5883   13.7311 C   0  0  0  0  0  0  0  0  0  0  0  0
  9 10  1  0  0  0
 10 11  2  0  0  0
 10 15  1  0  0  0
 11 12  1  0  0  0
 12 13  2  0  0  0
 13 14  1  0  0  0
 13  6  1  0  0  0
 14 15  2  0  0  0
  6  7  2  0  0  0
  6  8  2  0  0  0
  6  5  1  0  0  0
  5 18  1  0  0  0
  5  4  1  0  0  0
 18 19  1  0  0  0
 19 20  1  0  0  0
 19 21  1  0  0  0
  4  1  1  0  0  0
  1  2  1  0  0  0
  1 22  1  0  0  0
 22 23  1  0  0  0
 22 36  1  0  0  0
 23 24  1  0  0  0
 24 25  2  0  0  0
 24 27  1  0  0  0
 27 28  1  0  0  0
 28 29  1  0  0  0
 28 35  1  0  0  0
 29 30  1  0  0  0
 30 31  1  0  0  0
 31 32  1  0  0  0
 31 35  1  0  0  0
 32 33  1  0  0  0
 33 34  1  0  0  0
 34 35  1  0  0  0
 36 42  1  0  0  0
 37 38  2  0  0  0
 37 42  1  0  0  0
 38 39  1  0  0  0
 39 40  2  0  0  0
 40 41  1  0  0  0
 41 42  2  0  0  0
  9 16  1  0  0  0
  9 17  1  0  0  0
  2  3  1  0  0  0
 23 26  1  0  0  0
M  END
> <minimizedAffinity>
-9.54839

$$$$
3S54_017_B_201


 42 45  0  0  0  0  0  0  0  0999 V2000
   17.9423   24.8544   17.4904 C   0  0  0  0  0  0  0  0  0  0  0  0
   16.7941   25.6284   17.8249 O   0  0  0  0  0  0  0  0  0  0  0  0
   16.7464   26.4037   17.2440 H   0  0  0  0  0  0  0  0  0  0  0  0
   19.2397   25.6779   17.7612 C   0  0  0  0  0  0  0  0  0  0  0  0
   20.3292   24.7312   18.2372 N   0  0  0  0  0  0  0  0  0  0  0  0
   21.6874   25.5959   19.0193 S   0  0  0  0  0  0  0  0  0  0  0  0
   22.6485   24.5621   19.7302 O   0  0  0  0  0  0  0  0  0  0  0  0
   21.0651   26.6301   20.0618 O   0  0  0  0  0  0  0  0  0  0  0  0
   25.0596   28.1501   14.8940 N   0  0  0  0  0  0  0  0  0  0  0  0
   24.2920   27.5838   15.8706 C   0  0  0  0  0  0  0  0  0  0  0  0
   24.7984   27.4428   17.1668 C   0  0  0  0  0  0  0  0  0  0  0  0
   24.0147   26.8566   18.1779 C   0  0  0  0  0  0  0  0  0  0  0  0
   22.6997   26.5226   17.8185 C   0  0  0  0  0  0  0  0  0  0  0  0
   22.2083   26.5939   16.5100 C   0  0  0  0  0  0  0  0  0  0  0  0
   23.0024   27.1654   15.4949 C   0  0  0  0  0  0  0  0  0  0  0  0
   25.9704   28.4608   15.1020 H   0  0  0  0  0  0  0  0  0  0  0  0
   24.7025   28.2478   13.9818 H   0  0  0  0  0  0  0  0  0  0  0  0
   19.8359   23.4783   18.9069 C   0  0  0  0  0  0  0  0  0  0  0  0
   19.8337   23.6104   20.4647 C   0  0  0  0  0  0  0  0  0  0  0  0
   18.4392   24.0385   20.9107 C   0  0  0  0  0  0  0  0  0  0  0  0
   20.1336   22.1991   20.9865 C   0  0  0  0  0  0  0  0  0  0  0  0
   17.8181   24.2793   16.0402 C   0  0  0  0  0  0  0  0  0  0  0  0
   16.7951   23.2588   16.0595 N   0  0  0  0  0  0  0  0  0  0  0  0
   17.0569   21.9480   16.2914 C   0  0  0  0  0  0  0  0  0  0  0  0
   18.2298   21.4507   16.3553 O   0  0  0  0  0  0  0  0  0  0  0  0
   15.8623   23.5280   15.8963 H   0  0  0  0  0  0  0  0  0  0  0  0
   15.8508   21.2047   16.4689 O   0  0  0  0  0  0  0  0  0  0  0  0
   14.6670   22.0178   16.8012 C   0  0  0  0  0  0  0  0  0  0  0  0
   13.5063   21.2218   16.1617 C   0  0  0  0  0  0  0  0  0  0  0  0
   13.2625   20.0915   17.0509 O   0  0  0  0  0  0  0  0  0  0  0  0
   13.6087   20.5600   18.3540 C   0  0  0  0  0  0  0  0  0  0  0  0
   14.3485   19.6021   19.1390 O   0  0  0  0  0  0  0  0  0  0  0  0
   15.5867   20.2659   19.4062 C   0  0  0  0  0  0  0  0  0  0  0  0
   15.3036   21.7895   19.3980 C   0  0  0  0  0  0  0  0  0  0  0  0
   14.2810   21.8536   18.2775 C   0  0  0  0  0  0  0  0  0  0  0  0
   17.3442   25.3171   14.9535 C   0  0  0  0  0  0  0  0  0  0  0  0
   19.5796   25.0074   13.7597 C   0  0  0  0  0  0  0  0  0  0  0  0
   20.6935   25.4775   13.0235 C   0  0  0  0  0  0  0  0  0  0  0  0
   20.7443   26.8607   12.7181 C   0  0  0  0  0  0  0  0  0  0  0  0
   19.6825   27.7046   13.0725 C   0  0  0  0  0  0  0  0  0  0  0  0
   18.5976   27.2266   13.8417 C   0  0  0  0  0  0  0  0  0  0  0  0
   18.5105   25.8424   14.0944 C   0  0  0  0  0  0  0  0  0  0  0  0
  9 10  1  0  0  0
 10 11  2  0  0  0
 10 15  1  0  0  0
 11 12  1  0  0  0
 12 13  2  0  0  0
 13 14  1  0  0  0
 13  6  1  0  0  0
 14 15  2  0  0  0
  6  7  2  0  0  0
  6  8  2  0  0  0
  6  5  1  0  0  0
  5 18  1  0  0  0
  5  4  1  0  0  0
 18 19  1  0  0  0
 19 20  1  0  0  0
 19 21  1  0  0  0
  4  1  1  0  0  0
  1  2  1  0  0  0
  1 22  1  0  0  0
 22 23  1  0  0  0
 22 36  1  0  0  0
 23 24  1  0  0  0
 24 25  2  0  0  0
 24 27  1  0  0  0
 27 28  1  0  0  0
 28 29  1  0  0  0
 28 35  1  0  0  0
 29 30  1  0  0  0
 30 31  1  0  0  0
 31 32  1  0  0  0
 31 35  1  0  0  0
 32 33  1  0  0  0
 33 34  1  0  0  0
 34 35  1  0  0  0
 36 42  1  0  0  0
 37 38  2  0  0  0
 37 42  1  0  0  0
 38 39  1  0  0  0
 39 40  2  0  0  0
 40 41  1  0  0  0
 41 42  2  0  0  0
  9 16  1  0  0  0
  9 17  1  0  0  0
  2  3  1  0  0  0
 23 26  1  0  0  0
M  END
> <minimizedAffinity>
-9.47807

$$$$
3S54_017_B_201


 42 45  0  0  0  0  0  0  0  0999 V2000
   16.7553   22.8844   18.5678 C   0  0  0  0  0  0  0  0  0  0  0  0
   16.0731   22.6181   19.7896 O   0  0  0  0  0  0  0  0  0  0  0  0
   16.5269   21.9043   20.2643 H   0  0  0  0  0  0  0  0  0  0  0  0
   16.6896   21.6352   17.6352 C   0  0  0  0  0  0  0  0  0  0  0  0
   15.2446   21.4086   17.2224 N   0  0  0  0  0  0  0  0  0  0  0  0
   14.9273   21.9341   15.5410 S   0  0  0  0  0  0  0  0  0  0  0  0
   16.2086   21.6916   14.6480 O   0  0  0  0  0  0  0  0  0  0  0  0
   14.5272   23.4775   15.5848 O   0  0  0  0  0  0  0  0  0  0  0  0
   10.6462   19.1179   12.5993 N   0  0  0  0  0  0  0  0  0  0  0  0
   11.6136   19.7715   13.3067 C   0  0  0  0  0  0  0  0  0  0  0  0
   11.2758   20.8641   14.1119 C   0  0  0  0  0  0  0  0  0  0  0  0
   12.2679   21.5453   14.8412 C   0  0  0  0  0  0  0  0  0  0  0  0
   13.5607   21.0033   14.7722 C   0  0  0  0  0  0  0  0  0  0  0  0
   13.9213   19.9566   13.9159 C   0  0  0  0  0  0  0  0  0  0  0  0
   12.9277   19.2872   13.1726 C   0  0  0  0  0  0  0  0  0  0  0  0
    9.7093   19.4148   12.6563 H   0  0  0  0  0  0  0  0  0  0  0  0
   10.8854   18.3496   12.0320 H   0  0  0  0  0  0  0  0  0  0  0  0
   14.6586   20.0922   17.6529 C   0  0  0  0  0  0  0  0  0  0  0  0
   13.5076   20.2777   18.6945 C   0  0  0  0  0  0  0  0  0  0  0  0
   12.2418   19.6370   18.1341 C   0  0  0  0  0  0  0  0  0  0  0  0
   13.9681   19.5101   19.9407 C   0  0  0  0  0  0  0  0  0  0  0  0
   18.1982   23.4230   18.8462 C   0  0  0  0  0  0  0  0  0  0  0  0
   18.4451   24.5106   17.9271 N   0  0  0  0  0  0  0  0  0  0  0  0
   19.1380   24.3634   16.7702 C   0  0  0  0  0  0  0  0  0  0  0  0
   19.7782   23.3088   16.4460 O   0  0  0  0  0  0  0  0  0  0  0  0
   18.0930   25.4021   18.1516 H   0  0  0  0  0  0  0  0  0  0  0  0
   19.0435   25.5352   15.9597 O   0  0  0  0  0  0  0  0  0  0  0  0
   19.5391   25.3743   14.5807 C   0  0  0  0  0  0  0  0  0  0  0  0
   18.4410   26.0572   13.7334 C   0  0  0  0  0  0  0  0  0  0  0  0
   18.6560   27.4918   13.8863 O   0  0  0  0  0  0  0  0  0  0  0  0
   20.0622   27.6401   14.0814 C   0  0  0  0  0  0  0  0  0  0  0  0
   20.4100   28.5943   15.1058 O   0  0  0  0  0  0  0  0  0  0  0  0
   21.1327   27.8162   16.0635 C   0  0  0  0  0  0  0  0  0  0  0  0
   21.7930   26.6413   15.2984 C   0  0  0  0  0  0  0  0  0  0  0  0
   20.6953   26.3418   14.2932 C   0  0  0  0  0  0  0  0  0  0  0  0
   18.4107   24.0395   20.2805 C   0  0  0  0  0  0  0  0  0  0  0  0
   20.3911   25.3686   21.1916 C   0  0  0  0  0  0  0  0  0  0  0  0
   21.7651   25.5485   21.4803 C   0  0  0  0  0  0  0  0  0  0  0  0
   22.6580   24.5150   21.1015 C   0  0  0  0  0  0  0  0  0  0  0  0
   22.1708   23.3299   20.5327 C   0  0  0  0  0  0  0  0  0  0  0  0
   20.8016   23.1838   20.2150 C   0  0  0  0  0  0  0  0  0  0  0  0
   19.9012   24.1796   20.6451 C   0  0  0  0  0  0  0  0  0  0  0  0
  9 10  1  0  0  0
 10 11  2  0  0  0
 10 15  1  0  0  0
 11 12  1  0  0  0
 12 13  2  0  0  0
 13 14  1  0  0  0
 13  6  1  0  0  0
 14 15  2  0  0  0
  6  7  2  0  0  0
  6  8  2  0  0  0
  6  5  1  0  0  0
  5 18  1  0  0  0
  5  4  1  0  0  0
 18 19  1  0  0  0
 19 20  1  0  0  0
 19 21  1  0  0  0
  4  1  1  0  0  0
  1  2  1  0  0  0
  1 22  1  0  0  0
 22 23  1  0  0  0
 22 36  1  0  0  0
 23 24  1  0  0  0
 24 25  2  0  0  0
 24 27  1  0  0  0
 27 28  1  0  0  0
 28 29  1  0  0  0
 28 35  1  0  0  0
 29 30  1  0  0  0
 30 31  1  0  0  0
 31 32  1  0  0  0
 31 35  1  0  0  0
 32 33  1  0  0  0
 33 34  1  0  0  0
 34 35  1  0  0  0
 36 42  1  0  0  0
 37 38  2  0  0  0
 37 42  1  0  0  0
 38 39  1  0  0  0
 39 40  2  0  0  0
 40 41  1  0  0  0
 41 42  2  0  0  0
  9 16  1  0  0  0
  9 17  1  0  0  0
  2  3  1  0  0  0
 23 26  1  0  0  0
M  END
> <minimizedAffinity>
-9.42624

$$$$
3S54_017_B_201


 42 45  0  0  0  0  0  0  0  0999 V2000
   17.0144   24.7884   16.6553 C   0  0  0  0  0  0  0  0  0  0  0  0
   16.6505   25.3770   17.9004 O   0  0  0  0  0  0  0  0  0  0  0  0
   17.3047   25.1367   18.5751 H   0  0  0  0  0  0  0  0  0  0  0  0
   16.9699   23.2327   16.7658 C   0  0  0  0  0  0  0  0  0  0  0  0
   16.8267   22.8504   18.2298 N   0  0  0  0  0  0  0  0  0  0  0  0
   15.1225   22.5588   18.6929 S   0  0  0  0  0  0  0  0  0  0  0  0
   14.3081   23.9121   18.6368 O   0  0  0  0  0  0  0  0  0  0  0  0
   15.1210   21.9344   20.1605 O   0  0  0  0  0  0  0  0  0  0  0  0
   12.0047   19.0692   15.0852 N   0  0  0  0  0  0  0  0  0  0  0  0
   12.7424   19.8470   15.9305 C   0  0  0  0  0  0  0  0  0  0  0  0
   13.0263   19.4007   17.2253 C   0  0  0  0  0  0  0  0  0  0  0  0
   13.7829   20.1983   18.1038 C   0  0  0  0  0  0  0  0  0  0  0  0
   14.2901   21.3914   17.5661 C   0  0  0  0  0  0  0  0  0  0  0  0
   13.9532   21.8790   16.2982 C   0  0  0  0  0  0  0  0  0  0  0  0
   13.1799   21.0854   15.4265 C   0  0  0  0  0  0  0  0  0  0  0  0
   11.6728   18.1926   15.3864 H   0  0  0  0  0  0  0  0  0  0  0  0
   11.8045   19.3849   14.1744 H   0  0  0  0  0  0  0  0  0  0  0  0
   17.8528   21.8744   18.7360 C   0  0  0  0  0  0  0  0  0  0  0  0
   18.9863   22.5852   19.5447 C   0  0  0  0  0  0  0  0  0  0  0  0
   18.3522   23.6612   20.4205 C   0  0  0  0  0  0  0  0  0  0  0  0
   19.5941   21.4892   20.4299 C   0  0  0  0  0  0  0  0  0  0  0  0
   18.3727   25.3735   16.1432 C   0  0  0  0  0  0  0  0  0  0  0  0
   19.3905   25.0290   17.1095 N   0  0  0  0  0  0  0  0  0  0  0  0
   20.2161   25.9432   17.6777 C   0  0  0  0  0  0  0  0  0  0  0  0
   20.2977   27.1623   17.3114 O   0  0  0  0  0  0  0  0  0  0  0  0
   19.4896   24.0843   17.3682 H   0  0  0  0  0  0  0  0  0  0  0  0
   20.9675   25.3662   18.7460 O   0  0  0  0  0  0  0  0  0  0  0  0
   21.8113   26.3172   19.4922 C   0  0  0  0  0  0  0  0  0  0  0  0
   20.9420   26.6637   20.7227 C   0  0  0  0  0  0  0  0  0  0  0  0
   21.0459   25.5168   21.6180 O   0  0  0  0  0  0  0  0  0  0  0  0
   22.3450   24.9747   21.3815 C   0  0  0  0  0  0  0  0  0  0  0  0
   22.3717   23.5337   21.3199 O   0  0  0  0  0  0  0  0  0  0  0  0
   22.8544   23.2589   20.0021 C   0  0  0  0  0  0  0  0  0  0  0  0
   23.7424   24.4560   19.5780 C   0  0  0  0  0  0  0  0  0  0  0  0
   22.9583   25.5925   20.2095 C   0  0  0  0  0  0  0  0  0  0  0  0
   18.8808   24.7731   14.7779 C   0  0  0  0  0  0  0  0  0  0  0  0
   20.2967   25.4947   12.7797 C   0  0  0  0  0  0  0  0  0  0  0  0
   20.8937   26.4657   11.9403 C   0  0  0  0  0  0  0  0  0  0  0  0
   20.7015   27.8302   12.2721 C   0  0  0  0  0  0  0  0  0  0  0  0
   19.8818   28.1890   13.3512 C   0  0  0  0  0  0  0  0  0  0  0  0
   19.3265   27.2069   14.2021 C   0  0  0  0  0  0  0  0  0  0  0  0
   19.4617   25.8506   13.8421 C   0  0  0  0  0  0  0  0  0  0  0  0
  9 10  1  0  0  0
 10 11  2  0  0  0
 10 15  1  0  0  0
 11 12  1  0  0  0
 12 13  2  0  0  0
 13 14  1  0  0  0
 13  6  1  0  0  0
 14 15  2  0  0  0
  6  7  2  0  0  0
  6  8  2  0  0  0
  6  5  1  0  0  0
  5 18  1  0  0  0
  5  4  1  0  0  0
 18 19  1  0  0  0
 19 20  1  0  0  0
 19 21  1  0  0  0
  4  1  1  0  0  0
  1  2  1  0  0  0
  1 22  1  0  0  0
 22 23  1  0  0  0
 22 36  1  0  0  0
 23 24  1  0  0  0
 24 25  2  0  0  0
 24 27  1  0  0  0
 27 28  1  0  0  0
 28 29  1  0  0  0
 28 35  1  0  0  0
 29 30  1  0  0  0
 30 31  1  0  0  0
 31 32  1  0  0  0
 31 35  1  0  0  0
 32 33  1  0  0  0
 33 34  1  0  0  0
 34 35  1  0  0  0
 36 42  1  0  0  0
 37 38  2  0  0  0
 37 42  1  0  0  0
 38 39  1  0  0  0
 39 40  2  0  0  0
 40 41  1  0  0  0
 41 42  2  0  0  0
  9 16  1  0  0  0
  9 17  1  0  0  0
  2  3  1  0  0  0
 23 26  1  0  0  0
M  END
> <minimizedAffinity>
-9.38594

$$$$
3S54_017_B_201


 42 45  0  0  0  0  0  0  0  0999 V2000
   16.9670   24.2767   17.5728 C   0  0  0  0  0  0  0  0  0  0  0  0
   16.5925   25.6337   17.7901 O   0  0  0  0  0  0  0  0  0  0  0  0
   17.1897   26.2171   17.2962 H   0  0  0  0  0  0  0  0  0  0  0  0
   18.3953   24.0178   18.1452 C   0  0  0  0  0  0  0  0  0  0  0  0
   18.3048   22.9467   19.2196 N   0  0  0  0  0  0  0  0  0  0  0  0
   19.4387   23.2432   20.5725 S   0  0  0  0  0  0  0  0  0  0  0  0
   19.8401   21.8735   21.2513 O   0  0  0  0  0  0  0  0  0  0  0  0
   18.7137   24.2187   21.6053 O   0  0  0  0  0  0  0  0  0  0  0  0
   24.6159   25.7704   19.2598 N   0  0  0  0  0  0  0  0  0  0  0  0
   23.4042   25.2068   19.5387 C   0  0  0  0  0  0  0  0  0  0  0  0
   22.2553   26.0031   19.5871 C   0  0  0  0  0  0  0  0  0  0  0  0
   21.0033   25.4302   19.8777 C   0  0  0  0  0  0  0  0  0  0  0  0
   20.9854   24.0337   20.0174 C   0  0  0  0  0  0  0  0  0  0  0  0
   22.1371   23.2389   20.0413 C   0  0  0  0  0  0  0  0  0  0  0  0
   23.3927   23.8187   19.7675 C   0  0  0  0  0  0  0  0  0  0  0  0
   24.6816   26.7381   19.0914 H   0  0  0  0  0  0  0  0  0  0  0  0
   25.4240   25.2090   19.2271 H   0  0  0  0  0  0  0  0  0  0  0  0
   16.9078   22.5185   19.5754 C   0  0  0  0  0  0  0  0  0  0  0  0
   16.7536   20.9628   19.5673 C   0  0  0  0  0  0  0  0  0  0  0  0
   15.3358   20.6162   20.0109 C   0  0  0  0  0  0  0  0  0  0  0  0
   16.9539   20.5483   18.1037 C   0  0  0  0  0  0  0  0  0  0  0  0
   16.7794   23.8854   16.0691 C   0  0  0  0  0  0  0  0  0  0  0  0
   15.4752   23.2778   15.9337 N   0  0  0  0  0  0  0  0  0  0  0  0
   15.2435   22.1753   15.1780 C   0  0  0  0  0  0  0  0  0  0  0  0
   16.0978   21.6550   14.3865 O   0  0  0  0  0  0  0  0  0  0  0  0
   14.7176   23.6841   16.4135 H   0  0  0  0  0  0  0  0  0  0  0  0
   13.9270   21.6674   15.3967 O   0  0  0  0  0  0  0  0  0  0  0  0
   13.8214   20.1972   15.3813 C   0  0  0  0  0  0  0  0  0  0  0  0
   13.5829   19.8490   16.8685 C   0  0  0  0  0  0  0  0  0  0  0  0
   12.1859   20.1744   17.1335 O   0  0  0  0  0  0  0  0  0  0  0  0
   11.5110   19.9609   15.8939 C   0  0  0  0  0  0  0  0  0  0  0  0
   10.5428   20.9818   15.5754 O   0  0  0  0  0  0  0  0  0  0  0  0
   11.0199   21.5299   14.3437 C   0  0  0  0  0  0  0  0  0  0  0  0
   11.8104   20.4120   13.6177 C   0  0  0  0  0  0  0  0  0  0  0  0
   12.4688   19.7467   14.8131 C   0  0  0  0  0  0  0  0  0  0  0  0
   16.7751   25.0985   15.0637 C   0  0  0  0  0  0  0  0  0  0  0  0
   19.1965   24.4262   14.6126 C   0  0  0  0  0  0  0  0  0  0  0  0
   20.4960   24.6559   14.1007 C   0  0  0  0  0  0  0  0  0  0  0  0
   20.7493   25.9071   13.4849 C   0  0  0  0  0  0  0  0  0  0  0  0
   19.7165   26.8419   13.3274 C   0  0  0  0  0  0  0  0  0  0  0  0
   18.4361   26.6127   13.8798 C   0  0  0  0  0  0  0  0  0  0  0  0
   18.1606   25.3474   14.4371 C   0  0  0  0  0  0  0  0  0  0  0  0
  9 10  1  0  0  0
 10 11  2  0  0  0
 10 15  1  0  0  0
 11 12  1  0  0  0
 12 13  2  0  0  0
 13 14  1  0  0  0
 13  6  1  0  0  0
 14 15  2  0  0  0
  6  7  2  0  0  0
  6  8  2  0  0  0
  6  5  1  0  0  0
  5 18  1  0  0  0
  5  4  1  0  0  0
 18 19  1  0  0  0
 19 20  1  0  0  0
 19 21  1  0  0  0
  4  1  1  0  0  0
  1  2  1  0  0  0
  1 22  1  0  0  0
 22 23  1  0  0  0
 22 36  1  0  0  0
 23 24  1  0  0  0
 24 25  2  0  0  0
 24 27  1  0  0  0
 27 28  1  0  0  0
 28 29  1  0  0  0
 28 35  1  0  0  0
 29 30  1  0  0  0
 30 31  1  0  0  0
 31 32  1  0  0  0
 31 35  1  0  0  0
 32 33  1  0  0  0
 33 34  1  0  0  0
 34 35  1  0  0  0
 36 42  1  0  0  0
 37 38  2  0  0  0
 37 42  1  0  0  0
 38 39  1  0  0  0
 39 40  2  0  0  0
 40 41  1  0  0  0
 41 42  2  0  0  0
  9 16  1  0  0  0
  9 17  1  0  0  0
  2  3  1  0  0  0
 23 26  1  0  0  0
M  END
> <minimizedAffinity>
-9.37249

$$$$
3S54_017_B_201


 42 45  0  0  0  0  0  0  0  0999 V2000
   15.7295   22.7379   15.9788 C   0  0  0  0  0  0  0  0  0  0  0  0
   14.6080   23.5996   16.1488 O   0  0  0  0  0  0  0  0  0  0  0  0
   14.2943   23.5451   17.0650 H   0  0  0  0  0  0  0  0  0  0  0  0
   15.3024   21.2539   16.2019 C   0  0  0  0  0  0  0  0  0  0  0  0
   13.8843   21.2300   16.7480 N   0  0  0  0  0  0  0  0  0  0  0  0
   12.7205   20.5212   15.5875 S   0  0  0  0  0  0  0  0  0  0  0  0
   13.4972   19.8243   14.4005 O   0  0  0  0  0  0  0  0  0  0  0  0
   11.7834   21.7002   15.0622 O   0  0  0  0  0  0  0  0  0  0  0  0
    9.7264   16.2393   18.3468 N   0  0  0  0  0  0  0  0  0  0  0  0
   10.3984   17.2231   17.6804 C   0  0  0  0  0  0  0  0  0  0  0  0
   10.7467   17.0479   16.3372 C   0  0  0  0  0  0  0  0  0  0  0  0
   11.4428   18.0558   15.6445 C   0  0  0  0  0  0  0  0  0  0  0  0
   11.6690   19.2445   16.3556 C   0  0  0  0  0  0  0  0  0  0  0  0
   11.3885   19.4023   17.7177 C   0  0  0  0  0  0  0  0  0  0  0  0
   10.7067   18.3834   18.4138 C   0  0  0  0  0  0  0  0  0  0  0  0
    9.4853   15.4058   17.8816 H   0  0  0  0  0  0  0  0  0  0  0  0
    9.4828   16.3633   19.2926 H   0  0  0  0  0  0  0  0  0  0  0  0
   13.7632   20.8083   18.1865 C   0  0  0  0  0  0  0  0  0  0  0  0
   15.0641   20.1116   18.7026 C   0  0  0  0  0  0  0  0  0  0  0  0
   15.1948   20.3810   20.1983 C   0  0  0  0  0  0  0  0  0  0  0  0
   14.8369   18.6129   18.4646 C   0  0  0  0  0  0  0  0  0  0  0  0
   16.9325   23.2162   16.8584 C   0  0  0  0  0  0  0  0  0  0  0  0
   17.4253   24.4513   16.2927 N   0  0  0  0  0  0  0  0  0  0  0  0
   18.7407   24.7815   16.2604 C   0  0  0  0  0  0  0  0  0  0  0  0
   19.6593   24.1297   16.8591 O   0  0  0  0  0  0  0  0  0  0  0  0
   16.7744   25.0843   15.9120 H   0  0  0  0  0  0  0  0  0  0  0  0
   18.9617   25.9418   15.4582 O   0  0  0  0  0  0  0  0  0  0  0  0
   18.7488   25.7437   14.0130 C   0  0  0  0  0  0  0  0  0  0  0  0
   18.3556   27.1556   13.5215 C   0  0  0  0  0  0  0  0  0  0  0  0
   19.5984   27.9172   13.4658 O   0  0  0  0  0  0  0  0  0  0  0  0
   20.6119   26.9570   13.1685 C   0  0  0  0  0  0  0  0  0  0  0  0
   21.8240   27.1360   13.9298 O   0  0  0  0  0  0  0  0  0  0  0  0
   21.9514   25.9120   14.6583 C   0  0  0  0  0  0  0  0  0  0  0  0
   21.2559   24.8057   13.8252 C   0  0  0  0  0  0  0  0  0  0  0  0
   20.0855   25.5994   13.2727 C   0  0  0  0  0  0  0  0  0  0  0  0
   16.5658   23.5640   18.3507 C   0  0  0  0  0  0  0  0  0  0  0  0
   18.2119   24.1069   20.2254 C   0  0  0  0  0  0  0  0  0  0  0  0
   19.2775   23.7890   21.1012 C   0  0  0  0  0  0  0  0  0  0  0  0
   19.8674   22.5058   20.9813 C   0  0  0  0  0  0  0  0  0  0  0  0
   19.3502   21.5693   20.0754 C   0  0  0  0  0  0  0  0  0  0  0  0
   18.3125   21.9170   19.1814 C   0  0  0  0  0  0  0  0  0  0  0  0
   17.6809   23.1677   19.3375 C   0  0  0  0  0  0  0  0  0  0  0  0
  9 10  1  0  0  0
 10 11  2  0  0  0
 10 15  1  0  0  0
 11 12  1  0  0  0
 12 13  2  0  0  0
 13 14  1  0  0  0
 13  6  1  0  0  0
 14 15  2  0  0  0
  6  7  2  0  0  0
  6  8  2  0  0  0
  6  5  1  0  0  0
  5 18  1  0  0  0
  5  4  1  0  0  0
 18 19  1  0  0  0
 19 20  1  0  0  0
 19 21  1  0  0  0
  4  1  1  0  0  0
  1  2  1  0  0  0
  1 22  1  0  0  0
 22 23  1  0  0  0
 22 36  1  0  0  0
 23 24  1  0  0  0
 24 25  2  0  0  0
 24 27  1  0  0  0
 27 28  1  0  0  0
 28 29  1  0  0  0
 28 35  1  0  0  0
 29 30  1  0  0  0
 30 31  1  0  0  0
 31 32  1  0  0  0
 31 35  1  0  0  0
 32 33  1  0  0  0
 33 34  1  0  0  0
 34 35  1  0  0  0
 36 42  1  0  0  0
 37 38  2  0  0  0
 37 42  1  0  0  0
 38 39  1  0  0  0
 39 40  2  0  0  0
 40 41  1  0  0  0
 41 42  2  0  0  0
  9 16  1  0  0  0
  9 17  1  0  0  0
  2  3  1  0  0  0
 23 26  1  0  0  0
M  END
> <minimizedAffinity>
-9.17171

$$$$
3S54_017_B_201


 42 45  0  0  0  0  0  0  0  0999 V2000
   16.2057   22.7230   15.3501 C   0  0  0  0  0  0  0  0  0  0  0  0
   16.2093   22.1094   14.0645 O   0  0  0  0  0  0  0  0  0  0  0  0
   15.8110   22.7123   13.4174 H   0  0  0  0  0  0  0  0  0  0  0  0
   14.7385   22.9597   15.8256 C   0  0  0  0  0  0  0  0  0  0  0  0
   14.2472   21.7095   16.5364 N   0  0  0  0  0  0  0  0  0  0  0  0
   13.0683   20.7878   15.5543 S   0  0  0  0  0  0  0  0  0  0  0  0
   13.8064   20.0743   14.3527 O   0  0  0  0  0  0  0  0  0  0  0  0
   11.9634   21.8149   15.0364 O   0  0  0  0  0  0  0  0  0  0  0  0
    9.9299   16.7489   18.5127 N   0  0  0  0  0  0  0  0  0  0  0  0
   10.6792   17.6815   17.8550 C   0  0  0  0  0  0  0  0  0  0  0  0
   11.3005   18.7116   18.5686 C   0  0  0  0  0  0  0  0  0  0  0  0
   12.0713   19.6788   17.8974 C   0  0  0  0  0  0  0  0  0  0  0  0
   12.2377   19.4812   16.5178 C   0  0  0  0  0  0  0  0  0  0  0  0
   11.5637   18.4972   15.7855 C   0  0  0  0  0  0  0  0  0  0  0  0
   10.7776   17.5399   16.4588 C   0  0  0  0  0  0  0  0  0  0  0  0
    9.8274   16.8002   19.4905 H   0  0  0  0  0  0  0  0  0  0  0  0
    9.4921   16.0250   18.0091 H   0  0  0  0  0  0  0  0  0  0  0  0
   15.3122   20.9222   17.2488 C   0  0  0  0  0  0  0  0  0  0  0  0
   15.4473   21.3452   18.7478 C   0  0  0  0  0  0  0  0  0  0  0  0
   14.3170   22.3144   19.0793 C   0  0  0  0  0  0  0  0  0  0  0  0
   15.2680   20.0480   19.5474 C   0  0  0  0  0  0  0  0  0  0  0  0
   17.1137   23.9977   15.3569 C   0  0  0  0  0  0  0  0  0  0  0  0
   18.0913   23.8338   16.4085 N   0  0  0  0  0  0  0  0  0  0  0  0
   17.8439   24.1371   17.7074 C   0  0  0  0  0  0  0  0  0  0  0  0
   16.7983   24.7425   18.1165 O   0  0  0  0  0  0  0  0  0  0  0  0
   18.9806   23.4849   16.1706 H   0  0  0  0  0  0  0  0  0  0  0  0
   18.8974   23.6771   18.5543 O   0  0  0  0  0  0  0  0  0  0  0  0
   18.4637   23.2180   19.8863 C   0  0  0  0  0  0  0  0  0  0  0  0
   18.7094   21.6929   19.8268 C   0  0  0  0  0  0  0  0  0  0  0  0
   20.1489   21.5162   19.9830 O   0  0  0  0  0  0  0  0  0  0  0  0
   20.5727   22.6070   20.8003 C   0  0  0  0  0  0  0  0  0  0  0  0
   21.8064   23.2150   20.3651 O   0  0  0  0  0  0  0  0  0  0  0  0
   21.4373   24.5674   20.0824 C   0  0  0  0  0  0  0  0  0  0  0  0
   20.2280   24.9136   20.9876 C   0  0  0  0  0  0  0  0  0  0  0  0
   19.4983   23.5825   20.9597 C   0  0  0  0  0  0  0  0  0  0  0  0
   17.9551   24.2196   14.0433 C   0  0  0  0  0  0  0  0  0  0  0  0
   18.7647   26.6346   14.2185 C   0  0  0  0  0  0  0  0  0  0  0  0
   19.7713   27.6240   14.3251 C   0  0  0  0  0  0  0  0  0  0  0  0
   21.1209   27.1911   14.3396 C   0  0  0  0  0  0  0  0  0  0  0  0
   21.4270   25.8231   14.3268 C   0  0  0  0  0  0  0  0  0  0  0  0
   20.4119   24.8509   14.1799 C   0  0  0  0  0  0  0  0  0  0  0  0
   19.0668   25.2704   14.2279 C   0  0  0  0  0  0  0  0  0  0  0  0
  9 10  1  0  0  0
 10 11  2  0  0  0
 10 15  1  0  0  0
 11 12  1  0  0  0
 12 13  2  0  0  0
 13 14  1  0  0  0
 13  6  1  0  0  0
 14 15  2  0  0  0
  6  7  2  0  0  0
  6  8  2  0  0  0
  6  5  1  0  0  0
  5 18  1  0  0  0
  5  4  1  0  0  0
 18 19  1  0  0  0
 19 20  1  0  0  0
 19 21  1  0  0  0
  4  1  1  0  0  0
  1  2  1  0  0  0
  1 22  1  0  0  0
 22 23  1  0  0  0
 22 36  1  0  0  0
 23 24  1  0  0  0
 24 25  2  0  0  0
 24 27  1  0  0  0
 27 28  1  0  0  0
 28 29  1  0  0  0
 28 35  1  0  0  0
 29 30  1  0  0  0
 30 31  1  0  0  0
 31 32  1  0  0  0
 31 35  1  0  0  0
 32 33  1  0  0  0
 33 34  1  0  0  0
 34 35  1  0  0  0
 36 42  1  0  0  0
 37 38  2  0  0  0
 37 42  1  0  0  0
 38 39  1  0  0  0
 39 40  2  0  0  0
 40 41  1  0  0  0
 41 42  2  0  0  0
  9 16  1  0  0  0
  9 17  1  0  0  0
  2  3  1  0  0  0
 23 26  1  0  0  0
M  END
> <minimizedAffinity>
-9.13627

$$$$
