4DO4_DJN_A_510


 19 19  0  0  0  0  0  0  0  0999 V2000
   58.2880   -4.5557   18.5346 C   0  0  0  0  0  0  0  0  0  0  0  0
   57.6198   -5.3003   17.4112 C   0  0  0  0  0  0  0  0  0  0  0  0
   56.8308   -4.4433   16.5763 O   0  0  0  0  0  0  0  0  0  0  0  0
   58.7248   -5.9799   16.6021 C   0  0  0  0  0  0  0  0  0  0  0  0
   59.5724   -4.9793   16.0294 O   0  0  0  0  0  0  0  0  0  0  0  0
   59.5415   -6.8901   17.5125 C   0  0  0  0  0  0  0  0  0  0  0  0
   60.0287   -6.3018   18.7648 N   0  0  0  0  0  0  0  0  0  0  0  0
   58.9545   -5.5796   19.4598 C   0  0  0  0  0  0  0  0  0  0  0  0
   57.3999   -3.7659   16.1787 H   0  0  0  0  0  0  0  0  0  0  0  0
   59.9675   -4.4465   16.7372 H   0  0  0  0  0  0  0  0  0  0  0  0
   60.7865   -5.6520   18.5555 H   0  0  0  0  0  0  0  0  0  0  0  0
   57.5765   -1.9421   18.0061 O   0  0  0  0  0  0  0  0  0  0  0  0
   57.1747   -2.4369   19.0609 C   0  0  0  0  0  0  0  0  0  0  0  0
   56.3905   -1.6520   20.0985 C   0  0  0  0  0  0  0  0  0  0  0  0
   57.4100   -3.7215   19.3431 N   0  0  0  0  0  0  0  0  0  0  0  0
   56.9719   -4.1202   20.1295 H   0  0  0  0  0  0  0  0  0  0  0  0
   60.7378   -7.4816   16.7395 C   0  0  0  0  0  0  0  0  0  0  0  0
   61.9189   -6.7034   17.0076 O   0  0  0  0  0  0  0  0  0  0  0  0
   61.7740   -5.7874   16.7233 H   0  0  0  0  0  0  0  0  0  0  0  0
  5  4  1  0  0  0
  3  2  1  0  0  0
  4  2  1  0  0  0
  4  6  1  0  0  0
 17  6  1  0  0  0
 17 18  1  0  0  0
  2  1  1  0  0  0
  6  7  1  0  0  0
 12 13  2  0  0  0
  1 15  1  0  0  0
  1  8  1  0  0  0
  7  8  1  0  0  0
 13 15  1  0  0  0
 13 14  1  0  0  0
 15 16  1  0  0  0
  3  9  1  0  0  0
  5 10  1  0  0  0
 18 19  1  0  0  0
  7 11  1  0  0  0
M  END
> <minimizedAffinity>
-7.91193

$$$$
4DO4_DJN_A_510


 19 19  0  0  0  0  0  0  0  0999 V2000
   58.8164   -6.7279   18.5023 C   0  0  0  0  0  0  0  0  0  0  0  0
   59.0473   -5.8258   17.3208 C   0  0  0  0  0  0  0  0  0  0  0  0
   58.8888   -6.5069   16.0698 O   0  0  0  0  0  0  0  0  0  0  0  0
   58.0560   -4.6678   17.4384 C   0  0  0  0  0  0  0  0  0  0  0  0
   56.7223   -5.1790   17.3528 O   0  0  0  0  0  0  0  0  0  0  0  0
   58.2528   -3.9576   18.7731 C   0  0  0  0  0  0  0  0  0  0  0  0
   58.2875   -4.8048   19.9700 N   0  0  0  0  0  0  0  0  0  0  0  0
   59.1803   -5.9552   19.7748 C   0  0  0  0  0  0  0  0  0  0  0  0
   57.9843   -6.8507   16.0012 H   0  0  0  0  0  0  0  0  0  0  0  0
   56.5716   -5.8114   18.0727 H   0  0  0  0  0  0  0  0  0  0  0  0
   57.3455   -5.1432   20.1667 H   0  0  0  0  0  0  0  0  0  0  0  0
   58.5348   -8.8161   20.2846 O   0  0  0  0  0  0  0  0  0  0  0  0
   59.4316   -8.9051   19.4439 C   0  0  0  0  0  0  0  0  0  0  0  0
   60.4209  -10.0573   19.4066 C   0  0  0  0  0  0  0  0  0  0  0  0
   59.5729   -7.9721   18.4981 N   0  0  0  0  0  0  0  0  0  0  0  0
   60.2145   -8.1323   17.7687 H   0  0  0  0  0  0  0  0  0  0  0  0
   57.1755   -2.8702   18.9615 C   0  0  0  0  0  0  0  0  0  0  0  0
   57.1370   -2.0215   17.7993 O   0  0  0  0  0  0  0  0  0  0  0  0
   58.0019   -1.5993   17.6785 H   0  0  0  0  0  0  0  0  0  0  0  0
  5  4  1  0  0  0
  3  2  1  0  0  0
  4  2  1  0  0  0
  4  6  1  0  0  0
 17  6  1  0  0  0
 17 18  1  0  0  0
  2  1  1  0  0  0
  6  7  1  0  0  0
 12 13  2  0  0  0
  1 15  1  0  0  0
  1  8  1  0  0  0
  7  8  1  0  0  0
 13 15  1  0  0  0
 13 14  1  0  0  0
 15 16  1  0  0  0
  3  9  1  0  0  0
  5 10  1  0  0  0
 18 19  1  0  0  0
  7 11  1  0  0  0
M  END
> <minimizedAffinity>
-5.56329

$$$$
4DO4_DJN_A_510


 19 19  0  0  0  0  0  0  0  0999 V2000
   58.0017   -4.8878   18.3444 C   0  0  0  0  0  0  0  0  0  0  0  0
   59.0529   -5.4486   19.2628 C   0  0  0  0  0  0  0  0  0  0  0  0
   58.5166   -5.8579   20.5272 O   0  0  0  0  0  0  0  0  0  0  0  0
   59.6991   -6.6299   18.5386 C   0  0  0  0  0  0  0  0  0  0  0  0
   58.7137   -7.6442   18.3197 O   0  0  0  0  0  0  0  0  0  0  0  0
   60.2672   -6.1642   17.2026 C   0  0  0  0  0  0  0  0  0  0  0  0
   59.3697   -5.3868   16.3415 N   0  0  0  0  0  0  0  0  0  0  0  0
   58.7005   -4.3232   17.1028 C   0  0  0  0  0  0  0  0  0  0  0  0
   57.8523   -6.5508   20.3877 H   0  0  0  0  0  0  0  0  0  0  0  0
   57.9939   -7.2842   17.7782 H   0  0  0  0  0  0  0  0  0  0  0  0
   58.6644   -6.0089   15.9467 H   0  0  0  0  0  0  0  0  0  0  0  0
   58.5118   -2.1770   18.2546 O   0  0  0  0  0  0  0  0  0  0  0  0
   57.5257   -2.5476   18.8943 C   0  0  0  0  0  0  0  0  0  0  0  0
   56.6478   -1.5958   19.6887 C   0  0  0  0  0  0  0  0  0  0  0  0
   57.1705   -3.8354   18.9120 N   0  0  0  0  0  0  0  0  0  0  0  0
   56.3120   -4.0829   19.3255 H   0  0  0  0  0  0  0  0  0  0  0  0
   60.8066   -7.3686   16.4046 C   0  0  0  0  0  0  0  0  0  0  0  0
   61.6360   -8.1805   17.2563 O   0  0  0  0  0  0  0  0  0  0  0  0
   62.3808   -7.6513   17.5820 H   0  0  0  0  0  0  0  0  0  0  0  0
  5  4  1  0  0  0
  3  2  1  0  0  0
  4  2  1  0  0  0
  4  6  1  0  0  0
 17  6  1  0  0  0
 17 18  1  0  0  0
  2  1  1  0  0  0
  6  7  1  0  0  0
 12 13  2  0  0  0
  1 15  1  0  0  0
  1  8  1  0  0  0
  7  8  1  0  0  0
 13 15  1  0  0  0
 13 14  1  0  0  0
 15 16  1  0  0  0
  3  9  1  0  0  0
  5 10  1  0  0  0
 18 19  1  0  0  0
  7 11  1  0  0  0
M  END
> <minimizedAffinity>
-5.33308

$$$$
4DO4_DJN_A_510


 19 19  0  0  0  0  0  0  0  0999 V2000
   57.0408   -6.8954   22.7795 C   0  0  0  0  0  0  0  0  0  0  0  0
   57.7599   -5.8298   23.5607 C   0  0  0  0  0  0  0  0  0  0  0  0
   59.1556   -5.7621   23.2424 O   0  0  0  0  0  0  0  0  0  0  0  0
   57.0675   -4.5019   23.2531 C   0  0  0  0  0  0  0  0  0  0  0  0
   57.2132   -4.2063   21.8606 O   0  0  0  0  0  0  0  0  0  0  0  0
   55.5881   -4.6002   23.6086 C   0  0  0  0  0  0  0  0  0  0  0  0
   54.8609   -5.7602   23.0820 N   0  0  0  0  0  0  0  0  0  0  0  0
   55.6098   -7.0021   23.3175 C   0  0  0  0  0  0  0  0  0  0  0  0
   59.2629   -5.5551   22.3008 H   0  0  0  0  0  0  0  0  0  0  0  0
   56.8083   -4.9143   21.3357 H   0  0  0  0  0  0  0  0  0  0  0  0
   54.7221   -5.6395   22.0787 H   0  0  0  0  0  0  0  0  0  0  0  0
   58.9233   -7.9009   21.0298 O   0  0  0  0  0  0  0  0  0  0  0  0
   58.4910   -8.6627   21.8968 C   0  0  0  0  0  0  0  0  0  0  0  0
   58.8842  -10.1275   21.9837 C   0  0  0  0  0  0  0  0  0  0  0  0
   57.6413   -8.2212   22.8284 N   0  0  0  0  0  0  0  0  0  0  0  0
   57.4117   -8.8162   23.5784 H   0  0  0  0  0  0  0  0  0  0  0  0
   54.8517   -3.3136   23.1836 C   0  0  0  0  0  0  0  0  0  0  0  0
   54.5481   -3.3725   21.7776 O   0  0  0  0  0  0  0  0  0  0  0  0
   55.3719   -3.4530   21.2720 H   0  0  0  0  0  0  0  0  0  0  0  0
  5  4  1  0  0  0
  3  2  1  0  0  0
  4  2  1  0  0  0
  4  6  1  0  0  0
 17  6  1  0  0  0
 17 18  1  0  0  0
  2  1  1  0  0  0
  6  7  1  0  0  0
 12 13  2  0  0  0
  1 15  1  0  0  0
  1  8  1  0  0  0
  7  8  1  0  0  0
 13 15  1  0  0  0
 13 14  1  0  0  0
 15 16  1  0  0  0
  3  9  1  0  0  0
  5 10  1  0  0  0
 18 19  1  0  0  0
  7 11  1  0  0  0
M  END
> <minimizedAffinity>
-5.01981

$$$$
4DO4_DJN_A_510


 19 19  0  0  0  0  0  0  0  0999 V2000
   59.2219   -7.4714   19.9514 C   0  0  0  0  0  0  0  0  0  0  0  0
   59.9743   -7.0754   18.7104 C   0  0  0  0  0  0  0  0  0  0  0  0
   60.3743   -8.2060   17.9257 O   0  0  0  0  0  0  0  0  0  0  0  0
   59.0599   -6.1516   17.9055 C   0  0  0  0  0  0  0  0  0  0  0  0
   57.8928   -6.8763   17.5050 O   0  0  0  0  0  0  0  0  0  0  0  0
   58.6574   -4.9555   18.7609 C   0  0  0  0  0  0  0  0  0  0  0  0
   58.1371   -5.2503   20.1004 N   0  0  0  0  0  0  0  0  0  0  0  0
   58.9982   -6.2143   20.7989 C   0  0  0  0  0  0  0  0  0  0  0  0
   59.5877   -8.6990   17.6445 H   0  0  0  0  0  0  0  0  0  0  0  0
   57.4237   -7.1942   18.2922 H   0  0  0  0  0  0  0  0  0  0  0  0
   57.1990   -5.6414   20.0152 H   0  0  0  0  0  0  0  0  0  0  0  0
   58.8567  -10.2036   19.8190 O   0  0  0  0  0  0  0  0  0  0  0  0
   59.5853   -9.7717   20.7142 C   0  0  0  0  0  0  0  0  0  0  0  0
   60.2085  -10.6608   21.7767 C   0  0  0  0  0  0  0  0  0  0  0  0
   59.8739   -8.4693   20.7879 N   0  0  0  0  0  0  0  0  0  0  0  0
   60.5548   -8.1722   21.4338 H   0  0  0  0  0  0  0  0  0  0  0  0
   57.6329   -4.0828   18.0077 C   0  0  0  0  0  0  0  0  0  0  0  0
   56.7999   -3.3890   18.9550 O   0  0  0  0  0  0  0  0  0  0  0  0
   56.3292   -4.0345   19.5052 H   0  0  0  0  0  0  0  0  0  0  0  0
  5  4  1  0  0  0
  3  2  1  0  0  0
  4  2  1  0  0  0
  4  6  1  0  0  0
 17  6  1  0  0  0
 17 18  1  0  0  0
  2  1  1  0  0  0
  6  7  1  0  0  0
 12 13  2  0  0  0
  1 15  1  0  0  0
  1  8  1  0  0  0
  7  8  1  0  0  0
 13 15  1  0  0  0
 13 14  1  0  0  0
 15 16  1  0  0  0
  3  9  1  0  0  0
  5 10  1  0  0  0
 18 19  1  0  0  0
  7 11  1  0  0  0
M  END
> <minimizedAffinity>
-4.92810

$$$$
