4UMC_PEQ_A_1352


 13 12  0  0  0  0  0  0  0  0999 V2000
  -24.9697  -17.4012  -38.1143 O   0  0  0  0  0  0  0  0  0  0  0  0
  -23.4166  -17.5877  -38.7242 P   0  0  0  0  0  0  0  0  0  0  0  0
  -23.0556  -19.1368  -38.5931 O   0  0  0  0  0  0  0  0  0  0  0  0
  -23.5919  -17.3091  -40.3256 O   0  0  0  0  0  0  0  0  0  0  0  0
  -22.3880  -16.8127  -38.0017 O   0  0  0  0  0  0  0  0  0  0  0  0
  -24.2945  -17.8777  -40.6777 H   0  0  0  0  0  0  0  0  0  0  0  0
  -22.3861  -17.0707  -37.0667 H   0  0  0  0  0  0  0  0  0  0  0  0
  -25.4882  -16.2259  -37.4061 C   0  0  0  0  0  0  0  0  0  0  0  0
  -25.3685  -14.9582  -38.2879 C   0  0  0  0  0  0  0  0  0  0  0  0
  -26.9483  -16.5390  -36.9120 C   0  0  0  0  0  0  0  0  0  0  0  0
  -27.0485  -17.5331  -36.1538 O   0  0  0  0  0  0  0  0  0  0  0  0
  -27.9214  -15.8314  -37.3236 O   0  0  0  0  0  0  0  0  0  0  0  0
  -27.7635  -15.1020  -37.8903 H   0  0  0  0  0  0  0  0  0  0  0  0
 10 11  2  0  0  0
 10 12  1  0  0  0
 10  8  1  0  0  0
  8  9  1  0  0  0
  8  1  1  0  0  0
  1  2  1  0  0  0
  2  3  2  0  0  0
  2  4  1  0  0  0
  2  5  1  0  0  0
 12 13  1  0  0  0
  4  6  1  0  0  0
  5  7  1  0  0  0
M  END
> <minimizedAffinity>
-6.23411

$$$$
4UMC_PEQ_A_1352


 13 12  0  0  0  0  0  0  0  0999 V2000
  -25.0126  -17.4459  -38.1830 O   0  0  0  0  0  0  0  0  0  0  0  0
  -23.4419  -17.7495  -38.6924 P   0  0  0  0  0  0  0  0  0  0  0  0
  -23.3826  -17.3759  -40.2429 O   0  0  0  0  0  0  0  0  0  0  0  0
  -22.5577  -16.6061  -37.9285 O   0  0  0  0  0  0  0  0  0  0  0  0
  -23.0205  -19.1568  -38.5417 O   0  0  0  0  0  0  0  0  0  0  0  0
  -22.9369  -15.7313  -38.1069 H   0  0  0  0  0  0  0  0  0  0  0  0
  -23.6236  -19.7301  -39.0402 H   0  0  0  0  0  0  0  0  0  0  0  0
  -25.4800  -16.2460  -37.4804 C   0  0  0  0  0  0  0  0  0  0  0  0
  -25.3900  -15.0029  -38.4000 C   0  0  0  0  0  0  0  0  0  0  0  0
  -26.9167  -16.5267  -36.9049 C   0  0  0  0  0  0  0  0  0  0  0  0
  -26.9935  -17.5104  -36.1306 O   0  0  0  0  0  0  0  0  0  0  0  0
  -27.8978  -15.8060  -37.2722 O   0  0  0  0  0  0  0  0  0  0  0  0
  -27.7578  -15.0859  -37.8552 H   0  0  0  0  0  0  0  0  0  0  0  0
 10 11  2  0  0  0
 10 12  1  0  0  0
 10  8  1  0  0  0
  8  9  1  0  0  0
  8  1  1  0  0  0
  1  2  1  0  0  0
  2  3  2  0  0  0
  2  4  1  0  0  0
  2  5  1  0  0  0
 12 13  1  0  0  0
  4  6  1  0  0  0
  5  7  1  0  0  0
M  END
> <minimizedAffinity>
-6.05000

$$$$
4UMC_PEQ_A_1352


 13 12  0  0  0  0  0  0  0  0999 V2000
  -25.0944  -15.0093  -38.3956 O   0  0  0  0  0  0  0  0  0  0  0  0
  -25.4686  -14.5539  -39.9677 P   0  0  0  0  0  0  0  0  0  0  0  0
  -24.8382  -15.6617  -40.9282 O   0  0  0  0  0  0  0  0  0  0  0  0
  -27.0878  -14.7614  -40.0574 O   0  0  0  0  0  0  0  0  0  0  0  0
  -24.9227  -13.2393  -40.3608 O   0  0  0  0  0  0  0  0  0  0  0  0
  -27.3147  -15.6608  -39.7739 H   0  0  0  0  0  0  0  0  0  0  0  0
  -23.9577  -13.2474  -40.2625 H   0  0  0  0  0  0  0  0  0  0  0  0
  -25.1286  -16.3729  -37.8561 C   0  0  0  0  0  0  0  0  0  0  0  0
  -23.7972  -16.7127  -37.1412 C   0  0  0  0  0  0  0  0  0  0  0  0
  -26.4084  -16.5262  -36.9546 C   0  0  0  0  0  0  0  0  0  0  0  0
  -26.2912  -17.3342  -36.0025 O   0  0  0  0  0  0  0  0  0  0  0  0
  -27.4694  -15.8895  -37.2478 O   0  0  0  0  0  0  0  0  0  0  0  0
  -27.4764  -15.3016  -37.9774 H   0  0  0  0  0  0  0  0  0  0  0  0
 10 11  2  0  0  0
 10 12  1  0  0  0
 10  8  1  0  0  0
  8  9  1  0  0  0
  8  1  1  0  0  0
  1  2  1  0  0  0
  2  3  2  0  0  0
  2  4  1  0  0  0
  2  5  1  0  0  0
 12 13  1  0  0  0
  4  6  1  0  0  0
  5  7  1  0  0  0
M  END
> <minimizedAffinity>
-5.67295

$$$$
4UMC_PEQ_A_1352


 13 12  0  0  0  0  0  0  0  0999 V2000
  -24.4429  -16.5180  -39.6999 O   0  0  0  0  0  0  0  0  0  0  0  0
  -23.6446  -17.4037  -38.5179 P   0  0  0  0  0  0  0  0  0  0  0  0
  -24.5203  -17.2881  -37.1887 O   0  0  0  0  0  0  0  0  0  0  0  0
  -23.8037  -18.9519  -39.0185 O   0  0  0  0  0  0  0  0  0  0  0  0
  -22.2834  -16.9170  -38.2161 O   0  0  0  0  0  0  0  0  0  0  0  0
  -24.7404  -19.1442  -39.1817 H   0  0  0  0  0  0  0  0  0  0  0  0
  -22.3269  -15.9906  -37.9318 H   0  0  0  0  0  0  0  0  0  0  0  0
  -24.7531  -15.0853  -39.6489 C   0  0  0  0  0  0  0  0  0  0  0  0
  -24.9388  -14.5139  -41.0766 C   0  0  0  0  0  0  0  0  0  0  0  0
  -25.9866  -14.8703  -38.6968 C   0  0  0  0  0  0  0  0  0  0  0  0
  -27.1071  -14.9949  -39.2464 O   0  0  0  0  0  0  0  0  0  0  0  0
  -25.7994  -14.5477  -37.4811 O   0  0  0  0  0  0  0  0  0  0  0  0
  -24.9279  -14.4753  -37.1445 H   0  0  0  0  0  0  0  0  0  0  0  0
 10 11  2  0  0  0
 10 12  1  0  0  0
 10  8  1  0  0  0
  8  9  1  0  0  0
  8  1  1  0  0  0
  1  2  1  0  0  0
  2  3  2  0  0  0
  2  4  1  0  0  0
  2  5  1  0  0  0
 12 13  1  0  0  0
  4  6  1  0  0  0
  5  7  1  0  0  0
M  END
> <minimizedAffinity>
-5.66448

$$$$
4UMC_PEQ_A_1352


 13 12  0  0  0  0  0  0  0  0999 V2000
  -25.5435  -17.2955  -37.7501 O   0  0  0  0  0  0  0  0  0  0  0  0
  -26.5696  -16.5028  -36.6836 P   0  0  0  0  0  0  0  0  0  0  0  0
  -27.9446  -16.2683  -37.4593 O   0  0  0  0  0  0  0  0  0  0  0  0
  -26.8921  -17.6301  -35.5443 O   0  0  0  0  0  0  0  0  0  0  0  0
  -26.0687  -15.1906  -36.2277 O   0  0  0  0  0  0  0  0  0  0  0  0
  -27.2115  -18.4400  -35.9720 H   0  0  0  0  0  0  0  0  0  0  0  0
  -25.9180  -14.6174  -36.9956 H   0  0  0  0  0  0  0  0  0  0  0  0
  -24.4218  -16.6967  -38.4815 C   0  0  0  0  0  0  0  0  0  0  0  0
  -23.2658  -16.3393  -37.5146 C   0  0  0  0  0  0  0  0  0  0  0  0
  -24.0134  -17.6610  -39.6552 C   0  0  0  0  0  0  0  0  0  0  0  0
  -23.9768  -18.8774  -39.3520 O   0  0  0  0  0  0  0  0  0  0  0  0
  -23.7065  -17.1804  -40.7918 O   0  0  0  0  0  0  0  0  0  0  0  0
  -23.7602  -16.2567  -40.9399 H   0  0  0  0  0  0  0  0  0  0  0  0
 10 11  2  0  0  0
 10 12  1  0  0  0
 10  8  1  0  0  0
  8  9  1  0  0  0
  8  1  1  0  0  0
  1  2  1  0  0  0
  2  3  2  0  0  0
  2  4  1  0  0  0
  2  5  1  0  0  0
 12 13  1  0  0  0
  4  6  1  0  0  0
  5  7  1  0  0  0
M  END
> <minimizedAffinity>
-5.54551

$$$$
4UMC_PEQ_A_1352


 13 12  0  0  0  0  0  0  0  0999 V2000
  -24.2334  -16.5611  -40.1879 O   0  0  0  0  0  0  0  0  0  0  0  0
  -24.0462  -17.4581  -38.7812 P   0  0  0  0  0  0  0  0  0  0  0  0
  -23.9546  -18.9891  -39.2225 O   0  0  0  0  0  0  0  0  0  0  0  0
  -22.5486  -17.0580  -38.2616 O   0  0  0  0  0  0  0  0  0  0  0  0
  -25.1633  -17.3208  -37.8252 O   0  0  0  0  0  0  0  0  0  0  0  0
  -21.9105  -17.1923  -38.9798 H   0  0  0  0  0  0  0  0  0  0  0  0
  -25.9910  -17.5880  -38.2545 H   0  0  0  0  0  0  0  0  0  0  0  0
  -25.2738  -15.5597  -40.4461 C   0  0  0  0  0  0  0  0  0  0  0  0
  -25.2265  -14.4341  -39.3832 C   0  0  0  0  0  0  0  0  0  0  0  0
  -25.1337  -15.0589  -41.9306 C   0  0  0  0  0  0  0  0  0  0  0  0
  -24.2237  -14.2170  -42.1212 O   0  0  0  0  0  0  0  0  0  0  0  0
  -25.9433  -15.4751  -42.8184 O   0  0  0  0  0  0  0  0  0  0  0  0
  -26.5979  -16.1076  -42.5959 H   0  0  0  0  0  0  0  0  0  0  0  0
 10 11  2  0  0  0
 10 12  1  0  0  0
 10  8  1  0  0  0
  8  9  1  0  0  0
  8  1  1  0  0  0
  1  2  1  0  0  0
  2  3  2  0  0  0
  2  4  1  0  0  0
  2  5  1  0  0  0
 12 13  1  0  0  0
  4  6  1  0  0  0
  5  7  1  0  0  0
M  END
> <minimizedAffinity>
-5.46070

$$$$
4UMC_PEQ_A_1352


 13 12  0  0  0  0  0  0  0  0999 V2000
  -25.1412  -15.0470  -38.3930 O   0  0  0  0  0  0  0  0  0  0  0  0
  -25.7371  -14.5863  -39.8934 P   0  0  0  0  0  0  0  0  0  0  0  0
  -25.4438  -13.0246  -40.0433 O   0  0  0  0  0  0  0  0  0  0  0  0
  -24.7366  -15.3272  -40.9531 O   0  0  0  0  0  0  0  0  0  0  0  0
  -27.1891  -14.7996  -40.0570 O   0  0  0  0  0  0  0  0  0  0  0  0
  -23.8168  -15.1071  -40.7374 H   0  0  0  0  0  0  0  0  0  0  0  0
  -27.6674  -14.3091  -39.3704 H   0  0  0  0  0  0  0  0  0  0  0  0
  -25.1462  -16.4045  -37.8373 C   0  0  0  0  0  0  0  0  0  0  0  0
  -23.7980  -16.7166  -37.1416 C   0  0  0  0  0  0  0  0  0  0  0  0
  -26.4081  -16.5656  -36.9121 C   0  0  0  0  0  0  0  0  0  0  0  0
  -26.2573  -17.3476  -35.9432 O   0  0  0  0  0  0  0  0  0  0  0  0
  -27.4880  -15.9606  -37.2033 O   0  0  0  0  0  0  0  0  0  0  0  0
  -27.5200  -15.3907  -37.9464 H   0  0  0  0  0  0  0  0  0  0  0  0
 10 11  2  0  0  0
 10 12  1  0  0  0
 10  8  1  0  0  0
  8  9  1  0  0  0
  8  1  1  0  0  0
  1  2  1  0  0  0
  2  3  2  0  0  0
  2  4  1  0  0  0
  2  5  1  0  0  0
 12 13  1  0  0  0
  4  6  1  0  0  0
  5  7  1  0  0  0
M  END
> <minimizedAffinity>
-5.44644

$$$$
4UMC_PEQ_A_1352


 13 12  0  0  0  0  0  0  0  0999 V2000
  -24.4278  -15.8814  -39.6469 O   0  0  0  0  0  0  0  0  0  0  0  0
  -25.5315  -14.6197  -39.7401 P   0  0  0  0  0  0  0  0  0  0  0  0
  -25.7677  -14.1061  -38.2476 O   0  0  0  0  0  0  0  0  0  0  0  0
  -24.6986  -13.4294  -40.4900 O   0  0  0  0  0  0  0  0  0  0  0  0
  -26.8398  -15.0037  -40.3072 O   0  0  0  0  0  0  0  0  0  0  0  0
  -23.8634  -13.2747  -40.0218 H   0  0  0  0  0  0  0  0  0  0  0  0
  -27.2274  -15.7149  -39.7735 H   0  0  0  0  0  0  0  0  0  0  0  0
  -24.4106  -16.9461  -38.6379 C   0  0  0  0  0  0  0  0  0  0  0  0
  -24.0338  -18.3039  -39.2809 C   0  0  0  0  0  0  0  0  0  0  0  0
  -23.4727  -16.5041  -37.4550 C   0  0  0  0  0  0  0  0  0  0  0  0
  -22.3019  -16.2058  -37.7914 O   0  0  0  0  0  0  0  0  0  0  0  0
  -23.9110  -16.5155  -36.2614 O   0  0  0  0  0  0  0  0  0  0  0  0
  -24.8020  -16.7506  -36.0917 H   0  0  0  0  0  0  0  0  0  0  0  0
 10 11  2  0  0  0
 10 12  1  0  0  0
 10  8  1  0  0  0
  8  9  1  0  0  0
  8  1  1  0  0  0
  1  2  1  0  0  0
  2  3  2  0  0  0
  2  4  1  0  0  0
  2  5  1  0  0  0
 12 13  1  0  0  0
  4  6  1  0  0  0
  5  7  1  0  0  0
M  END
> <minimizedAffinity>
-5.32977

$$$$
4UMC_PEQ_A_1352


 13 12  0  0  0  0  0  0  0  0999 V2000
  -25.0036  -16.2601  -39.9908 O   0  0  0  0  0  0  0  0  0  0  0  0
  -25.4191  -14.8010  -40.7101 P   0  0  0  0  0  0  0  0  0  0  0  0
  -25.5793  -15.0891  -42.2717 O   0  0  0  0  0  0  0  0  0  0  0  0
  -26.9301  -14.5115  -40.1572 O   0  0  0  0  0  0  0  0  0  0  0  0
  -24.4105  -13.7359  -40.5397 O   0  0  0  0  0  0  0  0  0  0  0  0
  -27.4909  -15.2840  -40.3292 H   0  0  0  0  0  0  0  0  0  0  0  0
  -23.5628  -14.0315  -40.9070 H   0  0  0  0  0  0  0  0  0  0  0  0
  -24.4662  -16.4380  -38.6376 C   0  0  0  0  0  0  0  0  0  0  0  0
  -25.6134  -16.6012  -37.6097 C   0  0  0  0  0  0  0  0  0  0  0  0
  -23.4362  -17.6266  -38.6568 C   0  0  0  0  0  0  0  0  0  0  0  0
  -23.8991  -18.7214  -39.0572 O   0  0  0  0  0  0  0  0  0  0  0  0
  -22.2493  -17.4427  -38.2391 O   0  0  0  0  0  0  0  0  0  0  0  0
  -21.9789  -16.5914  -37.9561 H   0  0  0  0  0  0  0  0  0  0  0  0
 10 11  2  0  0  0
 10 12  1  0  0  0
 10  8  1  0  0  0
  8  9  1  0  0  0
  8  1  1  0  0  0
  1  2  1  0  0  0
  2  3  2  0  0  0
  2  4  1  0  0  0
  2  5  1  0  0  0
 12 13  1  0  0  0
  4  6  1  0  0  0
  5  7  1  0  0  0
M  END
> <minimizedAffinity>
-5.30973

$$$$
4UMC_PEQ_A_1352


 13 12  0  0  0  0  0  0  0  0999 V2000
  -25.6070  -17.5000  -38.0008 O   0  0  0  0  0  0  0  0  0  0  0  0
  -26.3341  -16.7873  -36.6658 P   0  0  0  0  0  0  0  0  0  0  0  0
  -27.1276  -17.9438  -35.9042 O   0  0  0  0  0  0  0  0  0  0  0  0
  -25.0750  -16.4033  -35.6963 O   0  0  0  0  0  0  0  0  0  0  0  0
  -27.2929  -15.7156  -37.0018 O   0  0  0  0  0  0  0  0  0  0  0  0
  -24.5249  -17.1894  -35.5541 H   0  0  0  0  0  0  0  0  0  0  0  0
  -27.9867  -16.0716  -37.5786 H   0  0  0  0  0  0  0  0  0  0  0  0
  -24.5286  -16.9244  -38.8116 C   0  0  0  0  0  0  0  0  0  0  0  0
  -24.6099  -15.3776  -38.8127 C   0  0  0  0  0  0  0  0  0  0  0  0
  -23.1555  -17.5032  -38.3077 C   0  0  0  0  0  0  0  0  0  0  0  0
  -22.8686  -18.6425  -38.7468 O   0  0  0  0  0  0  0  0  0  0  0  0
  -22.4550  -16.8404  -37.4789 O   0  0  0  0  0  0  0  0  0  0  0  0
  -22.7386  -15.9925  -37.1985 H   0  0  0  0  0  0  0  0  0  0  0  0
 10 11  2  0  0  0
 10 12  1  0  0  0
 10  8  1  0  0  0
  8  9  1  0  0  0
  8  1  1  0  0  0
  1  2  1  0  0  0
  2  3  2  0  0  0
  2  4  1  0  0  0
  2  5  1  0  0  0
 12 13  1  0  0  0
  4  6  1  0  0  0
  5  7  1  0  0  0
M  END
> <minimizedAffinity>
-5.28921

$$$$
