3HEK_BD0_A_901


 33 36  0  0  0  0  0  0  0  0999 V2000
   17.0683   -3.1281   50.9813 N   0  0  0  0  0  0  0  0  0  0  0  0
   17.7349   -4.4268   51.0434 C   0  0  0  0  0  0  0  0  0  0  0  0
   18.0538   -3.3132   53.1494 C   0  0  0  0  0  0  0  0  0  0  0  0
   18.0541   -4.6926   52.5001 C   0  0  0  0  0  0  0  0  0  0  0  0
   17.1466   -2.3992   52.2826 C   0  0  0  0  0  0  0  0  0  0  0  0
   17.6037   -2.3072   50.8890 H   0  0  0  0  0  0  0  0  0  0  0  0
   15.8519   -2.2875   53.1063 C   0  0  0  0  0  0  0  0  0  0  0  0
   13.4995   -1.9999   54.7276 C   0  0  0  0  0  0  0  0  0  0  0  0
   14.9254   -3.3727   53.2598 C   0  0  0  0  0  0  0  0  0  0  0  0
   13.7687   -3.2304   54.0588 C   0  0  0  0  0  0  0  0  0  0  0  0
   14.4044   -0.9101   54.5758 C   0  0  0  0  0  0  0  0  0  0  0  0
   15.5686   -1.0486   53.7748 C   0  0  0  0  0  0  0  0  0  0  0  0
   12.2784   -1.8678   55.6077 C   0  0  0  0  0  0  0  0  0  0  0  0
    8.6296   -1.5905   55.0981 C   0  0  0  0  0  0  0  0  0  0  0  0
   10.6921   -0.4460   54.5438 C   0  0  0  0  0  0  0  0  0  0  0  0
   10.9660   -1.8118   54.9619 N   0  0  0  0  0  0  0  0  0  0  0  0
    9.8219   -2.2115   55.8027 C   0  0  0  0  0  0  0  0  0  0  0  0
    9.2231   -0.4578   54.2847 C   0  0  0  0  0  0  0  0  0  0  0  0
    8.6704    0.7334   54.6046 F   0  0  0  0  0  0  0  0  0  0  0  0
    9.0029   -0.6682   52.9744 F   0  0  0  0  0  0  0  0  0  0  0  0
   16.6534   -2.6728   49.7073 C   0  0  0  0  0  0  0  0  0  0  0  0
   16.9573   -3.2176   48.6481 O   0  0  0  0  0  0  0  0  0  0  0  0
   16.4092   -0.2506   49.0735 C   0  0  0  0  0  0  0  0  0  0  0  0
   15.8307   -1.4413   49.6092 C   0  0  0  0  0  0  0  0  0  0  0  0
   14.4765   -1.4577   50.0533 C   0  0  0  0  0  0  0  0  0  0  0  0
   13.7005   -0.2783   49.9697 C   0  0  0  0  0  0  0  0  0  0  0  0
   13.5642    2.0697   49.3503 O   0  0  0  0  0  0  0  0  0  0  0  0
   14.2741    0.9095   49.4434 C   0  0  0  0  0  0  0  0  0  0  0  0
   15.6254    0.9324   48.9904 C   0  0  0  0  0  0  0  0  0  0  0  0
   17.7197   -0.2464   48.6429 O   0  0  0  0  0  0  0  0  0  0  0  0
   12.0726   -0.3253   50.5200 Cl  0  0  0  0  0  0  0  0  0  0  0  0
   12.6726    2.0977   49.6370 H   0  0  0  0  0  0  0  0  0  0  0  0
   18.2338   -1.0278   48.6990 H   0  0  0  0  0  0  0  0  0  0  0  0
 23 24  2  0  0  0
 23 29  1  0  0  0
 23 30  1  0  0  0
 24 25  1  0  0  0
 24 21  1  0  0  0
 25 26  2  0  0  0
 26 28  1  0  0  0
 26 31  1  0  0  0
 21  1  1  0  0  0
 21 22  2  0  0  0
  1  2  1  0  0  0
  1  5  1  0  0  0
  2  4  1  0  0  0
  3  4  1  0  0  0
  3  5  1  0  0  0
  7  5  1  0  0  0
  7  9  2  0  0  0
  7 12  1  0  0  0
  8 13  1  0  0  0
  8 10  2  0  0  0
  8 11  1  0  0  0
 13 16  1  0  0  0
 14 17  1  0  0  0
 14 18  1  0  0  0
 15 16  1  0  0  0
 15 18  1  0  0  0
 27 28  1  0  0  0
 28 29  2  0  0  0
  9 10  1  0  0  0
 16 17  1  0  0  0
 18 19  1  0  0  0
 18 20  1  0  0  0
 11 12  2  0  0  0
  1  6  1  0  0  0
 27 32  1  0  0  0
 30 33  1  0  0  0
M  CHG 1   1   1
M  END
> <minimizedAffinity>
-10.05776

$$$$
3HEK_BD0_A_901


 33 36  0  0  0  0  0  0  0  0999 V2000
   14.6644   -0.9314   49.6334 N   0  0  0  0  0  0  0  0  0  0  0  0
   14.7363    0.4387   49.1310 C   0  0  0  0  0  0  0  0  0  0  0  0
   12.4300   -0.2377   49.1515 C   0  0  0  0  0  0  0  0  0  0  0  0
   13.3275    0.9946   49.1551 C   0  0  0  0  0  0  0  0  0  0  0  0
   13.2536   -1.4058   49.7573 C   0  0  0  0  0  0  0  0  0  0  0  0
   14.4902   -1.6728   49.0096 H   0  0  0  0  0  0  0  0  0  0  0  0
   12.6825   -1.5533   51.1782 C   0  0  0  0  0  0  0  0  0  0  0  0
   11.5930   -1.9559   53.8044 C   0  0  0  0  0  0  0  0  0  0  0  0
   11.9449   -0.5136   51.8375 C   0  0  0  0  0  0  0  0  0  0  0  0
   11.4082   -0.7133   53.1294 C   0  0  0  0  0  0  0  0  0  0  0  0
   12.3324   -2.9936   53.1671 C   0  0  0  0  0  0  0  0  0  0  0  0
   12.8727   -2.7980   51.8685 C   0  0  0  0  0  0  0  0  0  0  0  0
   10.9862   -2.1728   55.1710 C   0  0  0  0  0  0  0  0  0  0  0  0
    7.8916   -3.7511   56.4295 C   0  0  0  0  0  0  0  0  0  0  0  0
    8.7296   -1.6055   55.6774 C   0  0  0  0  0  0  0  0  0  0  0  0
    9.6135   -2.6761   55.2438 N   0  0  0  0  0  0  0  0  0  0  0  0
    9.3893   -3.7884   56.1861 C   0  0  0  0  0  0  0  0  0  0  0  0
    7.4911   -2.3308   56.0840 C   0  0  0  0  0  0  0  0  0  0  0  0
    6.8924   -1.7106   57.1250 F   0  0  0  0  0  0  0  0  0  0  0  0
    6.6200   -2.3352   55.0589 F   0  0  0  0  0  0  0  0  0  0  0  0
   15.8780   -1.6538   49.7216 C   0  0  0  0  0  0  0  0  0  0  0  0
   16.5344   -2.0199   48.7489 O   0  0  0  0  0  0  0  0  0  0  0  0
   17.1068   -3.2715   51.2055 C   0  0  0  0  0  0  0  0  0  0  0  0
   16.3965   -2.0415   51.0573 C   0  0  0  0  0  0  0  0  0  0  0  0
   16.1774   -1.1870   52.1767 C   0  0  0  0  0  0  0  0  0  0  0  0
   16.6621   -1.5669   53.4498 C   0  0  0  0  0  0  0  0  0  0  0  0
   17.8424   -3.1998   54.8121 O   0  0  0  0  0  0  0  0  0  0  0  0
   17.3633   -2.7923   53.6025 C   0  0  0  0  0  0  0  0  0  0  0  0
   17.5931   -3.6491   52.4867 C   0  0  0  0  0  0  0  0  0  0  0  0
   17.3168   -4.0896   50.1148 O   0  0  0  0  0  0  0  0  0  0  0  0
   16.3764   -0.5204   54.7834 Cl  0  0  0  0  0  0  0  0  0  0  0  0
   17.7128   -2.6661   55.5712 H   0  0  0  0  0  0  0  0  0  0  0  0
   16.9950   -3.8380   49.2715 H   0  0  0  0  0  0  0  0  0  0  0  0
 23 24  2  0  0  0
 23 29  1  0  0  0
 23 30  1  0  0  0
 24 25  1  0  0  0
 24 21  1  0  0  0
 25 26  2  0  0  0
 26 28  1  0  0  0
 26 31  1  0  0  0
 21  1  1  0  0  0
 21 22  2  0  0  0
  1  2  1  0  0  0
  1  5  1  0  0  0
  2  4  1  0  0  0
  3  4  1  0  0  0
  3  5  1  0  0  0
  7  5  1  0  0  0
  7  9  2  0  0  0
  7 12  1  0  0  0
  8 13  1  0  0  0
  8 10  2  0  0  0
  8 11  1  0  0  0
 13 16  1  0  0  0
 14 17  1  0  0  0
 14 18  1  0  0  0
 15 16  1  0  0  0
 15 18  1  0  0  0
 27 28  1  0  0  0
 28 29  2  0  0  0
  9 10  1  0  0  0
 16 17  1  0  0  0
 18 19  1  0  0  0
 18 20  1  0  0  0
 11 12  2  0  0  0
  1  6  1  0  0  0
 27 32  1  0  0  0
 30 33  1  0  0  0
M  CHG 1   1   1
M  END
> <minimizedAffinity>
-10.03088

$$$$
3HEK_BD0_A_901


 33 36  0  0  0  0  0  0  0  0999 V2000
   15.1449   -0.0831   49.2911 N   0  0  0  0  0  0  0  0  0  0  0  0
   15.0602    1.3545   49.0440 C   0  0  0  0  0  0  0  0  0  0  0  0
   12.8878    0.3955   48.6725 C   0  0  0  0  0  0  0  0  0  0  0  0
   13.5887    1.7104   48.9951 C   0  0  0  0  0  0  0  0  0  0  0  0
   13.8145   -0.7496   49.1622 C   0  0  0  0  0  0  0  0  0  0  0  0
   15.1418   -0.7109   48.5327 H   0  0  0  0  0  0  0  0  0  0  0  0
   13.1402   -1.2324   50.4582 C   0  0  0  0  0  0  0  0  0  0  0  0
   11.8784   -2.0082   52.9181 C   0  0  0  0  0  0  0  0  0  0  0  0
   13.4550   -2.4844   51.0851 C   0  0  0  0  0  0  0  0  0  0  0  0
   12.8343   -2.8646   52.2963 C   0  0  0  0  0  0  0  0  0  0  0  0
   11.5475   -0.7671   52.3018 C   0  0  0  0  0  0  0  0  0  0  0  0
   12.1694   -0.3802   51.0853 C   0  0  0  0  0  0  0  0  0  0  0  0
   11.2454   -2.4071   54.2308 C   0  0  0  0  0  0  0  0  0  0  0  0
   13.9635   -2.2705   56.7296 C   0  0  0  0  0  0  0  0  0  0  0  0
   12.5678   -0.8059   55.3962 C   0  0  0  0  0  0  0  0  0  0  0  0
   11.9871   -2.1378   55.4638 N   0  0  0  0  0  0  0  0  0  0  0  0
   13.1098   -3.0514   55.7473 C   0  0  0  0  0  0  0  0  0  0  0  0
   13.5856   -0.8231   56.4865 C   0  0  0  0  0  0  0  0  0  0  0  0
   14.6592   -0.0733   56.1518 F   0  0  0  0  0  0  0  0  0  0  0  0
   13.0529   -0.2933   57.6024 F   0  0  0  0  0  0  0  0  0  0  0  0
   16.4383   -0.6473   49.3979 C   0  0  0  0  0  0  0  0  0  0  0  0
   17.3800   -0.3560   48.6635 O   0  0  0  0  0  0  0  0  0  0  0  0
   16.9824   -3.0239   50.0179 C   0  0  0  0  0  0  0  0  0  0  0  0
   16.6943   -1.6862   50.4266 C   0  0  0  0  0  0  0  0  0  0  0  0
   16.6459   -1.3408   51.8084 C   0  0  0  0  0  0  0  0  0  0  0  0
   16.8778   -2.3370   52.7852 C   0  0  0  0  0  0  0  0  0  0  0  0
   17.3821   -4.6619   53.2906 O   0  0  0  0  0  0  0  0  0  0  0  0
   17.1584   -3.6697   52.3828 C   0  0  0  0  0  0  0  0  0  0  0  0
   17.2158   -4.0219   51.0029 C   0  0  0  0  0  0  0  0  0  0  0  0
   17.0306   -3.3469   48.6776 O   0  0  0  0  0  0  0  0  0  0  0  0
   16.8053   -1.8933   54.4444 Cl  0  0  0  0  0  0  0  0  0  0  0  0
   17.3535   -4.4729   54.2079 H   0  0  0  0  0  0  0  0  0  0  0  0
   16.8764   -2.6868   48.0307 H   0  0  0  0  0  0  0  0  0  0  0  0
 23 24  2  0  0  0
 23 29  1  0  0  0
 23 30  1  0  0  0
 24 25  1  0  0  0
 24 21  1  0  0  0
 25 26  2  0  0  0
 26 28  1  0  0  0
 26 31  1  0  0  0
 21  1  1  0  0  0
 21 22  2  0  0  0
  1  2  1  0  0  0
  1  5  1  0  0  0
  2  4  1  0  0  0
  3  4  1  0  0  0
  3  5  1  0  0  0
  7  5  1  0  0  0
  7  9  2  0  0  0
  7 12  1  0  0  0
  8 13  1  0  0  0
  8 10  2  0  0  0
  8 11  1  0  0  0
 13 16  1  0  0  0
 14 17  1  0  0  0
 14 18  1  0  0  0
 15 16  1  0  0  0
 15 18  1  0  0  0
 27 28  1  0  0  0
 28 29  2  0  0  0
  9 10  1  0  0  0
 16 17  1  0  0  0
 18 19  1  0  0  0
 18 20  1  0  0  0
 11 12  2  0  0  0
  1  6  1  0  0  0
 27 32  1  0  0  0
 30 33  1  0  0  0
M  CHG 1   1   1
M  END
> <minimizedAffinity>
-9.26310

$$$$
3HEK_BD0_A_901


 33 36  0  0  0  0  0  0  0  0999 V2000
   16.7990   -3.1338   50.7922 N   0  0  0  0  0  0  0  0  0  0  0  0
   17.2306   -4.5294   50.8200 C   0  0  0  0  0  0  0  0  0  0  0  0
   16.9630   -3.7768   53.0869 C   0  0  0  0  0  0  0  0  0  0  0  0
   17.0025   -5.0365   52.2290 C   0  0  0  0  0  0  0  0  0  0  0  0
   16.5283   -2.6073   52.1635 C   0  0  0  0  0  0  0  0  0  0  0  0
   17.4363   -2.4199   51.0233 H   0  0  0  0  0  0  0  0  0  0  0  0
   15.0580   -2.3685   52.5485 C   0  0  0  0  0  0  0  0  0  0  0  0
   12.2780   -1.9793   53.1535 C   0  0  0  0  0  0  0  0  0  0  0  0
   14.6166   -1.2118   53.2745 C   0  0  0  0  0  0  0  0  0  0  0  0
   13.2481   -1.0208   53.5706 C   0  0  0  0  0  0  0  0  0  0  0  0
   12.7024   -3.1381   52.4417 C   0  0  0  0  0  0  0  0  0  0  0  0
   14.0763   -3.3339   52.1408 C   0  0  0  0  0  0  0  0  0  0  0  0
   10.8132   -1.7497   53.4442 C   0  0  0  0  0  0  0  0  0  0  0  0
    8.5861   -2.2721   56.3456 C   0  0  0  0  0  0  0  0  0  0  0  0
   10.3626   -3.3771   55.1232 C   0  0  0  0  0  0  0  0  0  0  0  0
   10.3418   -1.9559   54.8147 N   0  0  0  0  0  0  0  0  0  0  0  0
    8.9651   -1.5049   55.0921 C   0  0  0  0  0  0  0  0  0  0  0  0
    9.5115   -3.4724   56.3446 C   0  0  0  0  0  0  0  0  0  0  0  0
    8.8245   -4.6362   56.3604 F   0  0  0  0  0  0  0  0  0  0  0  0
   10.2956   -3.4493   57.4375 F   0  0  0  0  0  0  0  0  0  0  0  0
   16.9009   -2.4483   49.5584 C   0  0  0  0  0  0  0  0  0  0  0  0
   17.6623   -2.7738   48.6500 O   0  0  0  0  0  0  0  0  0  0  0  0
   16.7156    0.0389   49.2299 C   0  0  0  0  0  0  0  0  0  0  0  0
   16.0772   -1.2344   49.3323 C   0  0  0  0  0  0  0  0  0  0  0  0
   14.6608   -1.3503   49.2244 C   0  0  0  0  0  0  0  0  0  0  0  0
   13.8792   -0.1893   49.0219 C   0  0  0  0  0  0  0  0  0  0  0  0
   13.7944    2.2247   48.7369 O   0  0  0  0  0  0  0  0  0  0  0  0
   14.5098    1.0796   48.9259 C   0  0  0  0  0  0  0  0  0  0  0  0
   15.9263    1.2033   49.0255 C   0  0  0  0  0  0  0  0  0  0  0  0
   18.0876    0.1397   49.3321 O   0  0  0  0  0  0  0  0  0  0  0  0
   12.1725   -0.3582   48.9033 Cl  0  0  0  0  0  0  0  0  0  0  0  0
   12.8608    2.1875   48.6662 H   0  0  0  0  0  0  0  0  0  0  0  0
   18.6052   -0.6296   49.4668 H   0  0  0  0  0  0  0  0  0  0  0  0
 23 24  2  0  0  0
 23 29  1  0  0  0
 23 30  1  0  0  0
 24 25  1  0  0  0
 24 21  1  0  0  0
 25 26  2  0  0  0
 26 28  1  0  0  0
 26 31  1  0  0  0
 21  1  1  0  0  0
 21 22  2  0  0  0
  1  2  1  0  0  0
  1  5  1  0  0  0
  2  4  1  0  0  0
  3  4  1  0  0  0
  3  5  1  0  0  0
  7  5  1  0  0  0
  7  9  2  0  0  0
  7 12  1  0  0  0
  8 13  1  0  0  0
  8 10  2  0  0  0
  8 11  1  0  0  0
 13 16  1  0  0  0
 14 17  1  0  0  0
 14 18  1  0  0  0
 15 16  1  0  0  0
 15 18  1  0  0  0
 27 28  1  0  0  0
 28 29  2  0  0  0
  9 10  1  0  0  0
 16 17  1  0  0  0
 18 19  1  0  0  0
 18 20  1  0  0  0
 11 12  2  0  0  0
  1  6  1  0  0  0
 27 32  1  0  0  0
 30 33  1  0  0  0
M  CHG 1   1   1
M  END
> <minimizedAffinity>
-9.16438

$$$$
3HEK_BD0_A_901


 33 36  0  0  0  0  0  0  0  0999 V2000
   14.8425   -0.9816   49.6885 N   0  0  0  0  0  0  0  0  0  0  0  0
   14.9880    0.4212   49.3068 C   0  0  0  0  0  0  0  0  0  0  0  0
   12.6505   -0.1364   49.2561 C   0  0  0  0  0  0  0  0  0  0  0  0
   13.6086    1.0439   49.3712 C   0  0  0  0  0  0  0  0  0  0  0  0
   13.4084   -1.3926   49.7632 C   0  0  0  0  0  0  0  0  0  0  0  0
   14.6374   -1.6568   49.0020 H   0  0  0  0  0  0  0  0  0  0  0  0
   12.8166   -1.6326   51.1629 C   0  0  0  0  0  0  0  0  0  0  0  0
   11.6857   -2.2048   53.7396 C   0  0  0  0  0  0  0  0  0  0  0  0
   12.0984   -0.6268   51.8924 C   0  0  0  0  0  0  0  0  0  0  0  0
   11.5413   -0.9098   53.1598 C   0  0  0  0  0  0  0  0  0  0  0  0
   12.4055   -3.2103   53.0322 C   0  0  0  0  0  0  0  0  0  0  0  0
   12.9662   -2.9309   51.7579 C   0  0  0  0  0  0  0  0  0  0  0  0
   11.0571   -2.5088   55.0795 C   0  0  0  0  0  0  0  0  0  0  0  0
   10.2482   -5.8609   56.4062 C   0  0  0  0  0  0  0  0  0  0  0  0
    9.2573   -3.6680   56.1224 C   0  0  0  0  0  0  0  0  0  0  0  0
   10.4211   -3.8145   55.2622 N   0  0  0  0  0  0  0  0  0  0  0  0
   11.2589   -4.8514   55.8934 C   0  0  0  0  0  0  0  0  0  0  0  0
    8.9617   -5.0703   56.5362 C   0  0  0  0  0  0  0  0  0  0  0  0
    8.4759   -5.1056   57.7969 F   0  0  0  0  0  0  0  0  0  0  0  0
    8.0211   -5.5861   55.7245 F   0  0  0  0  0  0  0  0  0  0  0  0
   16.0173   -1.7698   49.7206 C   0  0  0  0  0  0  0  0  0  0  0  0
   16.8352   -1.8253   48.8045 O   0  0  0  0  0  0  0  0  0  0  0  0
   16.3647   -2.0243   52.1991 C   0  0  0  0  0  0  0  0  0  0  0  0
   16.2870   -2.6229   50.9049 C   0  0  0  0  0  0  0  0  0  0  0  0
   16.4697   -4.0266   50.7390 C   0  0  0  0  0  0  0  0  0  0  0  0
   16.7393   -4.8334   51.8688 C   0  0  0  0  0  0  0  0  0  0  0  0
   17.0873   -4.9801   54.2715 O   0  0  0  0  0  0  0  0  0  0  0  0
   16.8236   -4.2409   53.1567 C   0  0  0  0  0  0  0  0  0  0  0  0
   16.6349   -2.8390   53.3322 C   0  0  0  0  0  0  0  0  0  0  0  0
   16.1825   -0.6651   52.3493 O   0  0  0  0  0  0  0  0  0  0  0  0
   16.9631   -6.5221   51.6378 Cl  0  0  0  0  0  0  0  0  0  0  0  0
   17.2179   -5.9052   54.2001 H   0  0  0  0  0  0  0  0  0  0  0  0
   16.0045   -0.1307   51.6005 H   0  0  0  0  0  0  0  0  0  0  0  0
 23 24  2  0  0  0
 23 29  1  0  0  0
 23 30  1  0  0  0
 24 25  1  0  0  0
 24 21  1  0  0  0
 25 26  2  0  0  0
 26 28  1  0  0  0
 26 31  1  0  0  0
 21  1  1  0  0  0
 21 22  2  0  0  0
  1  2  1  0  0  0
  1  5  1  0  0  0
  2  4  1  0  0  0
  3  4  1  0  0  0
  3  5  1  0  0  0
  7  5  1  0  0  0
  7  9  2  0  0  0
  7 12  1  0  0  0
  8 13  1  0  0  0
  8 10  2  0  0  0
  8 11  1  0  0  0
 13 16  1  0  0  0
 14 17  1  0  0  0
 14 18  1  0  0  0
 15 16  1  0  0  0
 15 18  1  0  0  0
 27 28  1  0  0  0
 28 29  2  0  0  0
  9 10  1  0  0  0
 16 17  1  0  0  0
 18 19  1  0  0  0
 18 20  1  0  0  0
 11 12  2  0  0  0
  1  6  1  0  0  0
 27 32  1  0  0  0
 30 33  1  0  0  0
M  CHG 1   1   1
M  END
> <minimizedAffinity>
-8.84725

$$$$
3HEK_BD0_A_901


 33 36  0  0  0  0  0  0  0  0999 V2000
   15.4494   -0.4757   49.5629 N   0  0  0  0  0  0  0  0  0  0  0  0
   15.1952    0.8286   48.9554 C   0  0  0  0  0  0  0  0  0  0  0  0
   13.1646   -0.4543   48.8661 C   0  0  0  0  0  0  0  0  0  0  0  0
   13.6927    0.9755   48.8324 C   0  0  0  0  0  0  0  0  0  0  0  0
   14.2134   -1.3120   49.6239 C   0  0  0  0  0  0  0  0  0  0  0  0
   15.5393   -1.2724   48.9915 H   0  0  0  0  0  0  0  0  0  0  0  0
   13.5754   -1.5258   51.0075 C   0  0  0  0  0  0  0  0  0  0  0  0
   12.5016   -1.8977   53.6446 C   0  0  0  0  0  0  0  0  0  0  0  0
   12.5562   -2.5049   51.2570 C   0  0  0  0  0  0  0  0  0  0  0  0
   12.0294   -2.6879   52.5553 C   0  0  0  0  0  0  0  0  0  0  0  0
   13.5052   -0.9141   53.4102 C   0  0  0  0  0  0  0  0  0  0  0  0
   14.0384   -0.7273   52.1075 C   0  0  0  0  0  0  0  0  0  0  0  0
   11.9575   -2.1239   55.0359 C   0  0  0  0  0  0  0  0  0  0  0  0
    8.8999   -0.0555   54.8823 C   0  0  0  0  0  0  0  0  0  0  0  0
    9.6191   -2.2985   55.4503 C   0  0  0  0  0  0  0  0  0  0  0  0
   10.7549   -1.3902   55.4336 N   0  0  0  0  0  0  0  0  0  0  0  0
   10.3645   -0.2753   54.5503 C   0  0  0  0  0  0  0  0  0  0  0  0
    8.4466   -1.3765   55.4707 C   0  0  0  0  0  0  0  0  0  0  0  0
    7.4102   -1.9038   54.7817 F   0  0  0  0  0  0  0  0  0  0  0  0
    8.0408   -1.1990   56.7409 F   0  0  0  0  0  0  0  0  0  0  0  0
   16.7994   -0.8294   49.7973 C   0  0  0  0  0  0  0  0  0  0  0  0
   17.7621   -0.1876   49.3823 O   0  0  0  0  0  0  0  0  0  0  0  0
   17.1417   -3.3206   49.8709 C   0  0  0  0  0  0  0  0  0  0  0  0
   17.1039   -2.0683   50.5561 C   0  0  0  0  0  0  0  0  0  0  0  0
   17.3505   -1.9968   51.9580 C   0  0  0  0  0  0  0  0  0  0  0  0
   17.6274   -3.1815   52.6790 C   0  0  0  0  0  0  0  0  0  0  0  0
   17.9167   -5.5963   52.6592 O   0  0  0  0  0  0  0  0  0  0  0  0
   17.6597   -4.4297   52.0022 C   0  0  0  0  0  0  0  0  0  0  0  0
   17.4214   -4.5089   50.5992 C   0  0  0  0  0  0  0  0  0  0  0  0
   16.9053   -3.3784   48.5130 O   0  0  0  0  0  0  0  0  0  0  0  0
   17.9132   -3.0662   54.3702 Cl  0  0  0  0  0  0  0  0  0  0  0  0
   18.0788   -5.5885   53.5820 H   0  0  0  0  0  0  0  0  0  0  0  0
   16.7212   -2.5933   48.0357 H   0  0  0  0  0  0  0  0  0  0  0  0
 23 24  2  0  0  0
 23 29  1  0  0  0
 23 30  1  0  0  0
 24 25  1  0  0  0
 24 21  1  0  0  0
 25 26  2  0  0  0
 26 28  1  0  0  0
 26 31  1  0  0  0
 21  1  1  0  0  0
 21 22  2  0  0  0
  1  2  1  0  0  0
  1  5  1  0  0  0
  2  4  1  0  0  0
  3  4  1  0  0  0
  3  5  1  0  0  0
  7  5  1  0  0  0
  7  9  2  0  0  0
  7 12  1  0  0  0
  8 13  1  0  0  0
  8 10  2  0  0  0
  8 11  1  0  0  0
 13 16  1  0  0  0
 14 17  1  0  0  0
 14 18  1  0  0  0
 15 16  1  0  0  0
 15 18  1  0  0  0
 27 28  1  0  0  0
 28 29  2  0  0  0
  9 10  1  0  0  0
 16 17  1  0  0  0
 18 19  1  0  0  0
 18 20  1  0  0  0
 11 12  2  0  0  0
  1  6  1  0  0  0
 27 32  1  0  0  0
 30 33  1  0  0  0
M  CHG 1   1   1
M  END
> <minimizedAffinity>
-8.78463

$$$$
3HEK_BD0_A_901


 33 36  0  0  0  0  0  0  0  0999 V2000
   17.2927   -3.8610   50.7276 N   0  0  0  0  0  0  0  0  0  0  0  0
   17.1388   -5.3106   50.6290 C   0  0  0  0  0  0  0  0  0  0  0  0
   18.0670   -4.7949   52.7853 C   0  0  0  0  0  0  0  0  0  0  0  0
   17.2947   -5.8695   52.0282 C   0  0  0  0  0  0  0  0  0  0  0  0
   17.7895   -3.4439   52.0730 C   0  0  0  0  0  0  0  0  0  0  0  0
   18.1885   -3.4582   50.6587 H   0  0  0  0  0  0  0  0  0  0  0  0
   16.7887   -2.7408   53.0063 C   0  0  0  0  0  0  0  0  0  0  0  0
   14.8395   -1.5313   54.7334 C   0  0  0  0  0  0  0  0  0  0  0  0
   16.6094   -1.3171   53.0323 C   0  0  0  0  0  0  0  0  0  0  0  0
   15.6491   -0.7231   53.8818 C   0  0  0  0  0  0  0  0  0  0  0  0
   15.0136   -2.9452   54.7267 C   0  0  0  0  0  0  0  0  0  0  0  0
   15.9766   -3.5468   53.8740 C   0  0  0  0  0  0  0  0  0  0  0  0
   13.7912   -0.8904   55.6130 C   0  0  0  0  0  0  0  0  0  0  0  0
   10.7573   -1.6984   53.6654 C   0  0  0  0  0  0  0  0  0  0  0  0
   11.8167   -2.2104   55.7836 C   0  0  0  0  0  0  0  0  0  0  0  0
   12.3890   -1.0033   55.2083 N   0  0  0  0  0  0  0  0  0  0  0  0
   12.1479   -1.0972   53.7562 C   0  0  0  0  0  0  0  0  0  0  0  0
   10.5666   -2.4042   54.9930 C   0  0  0  0  0  0  0  0  0  0  0  0
   10.3023   -3.7195   54.8290 F   0  0  0  0  0  0  0  0  0  0  0  0
    9.5301   -1.8620   55.6573 F   0  0  0  0  0  0  0  0  0  0  0  0
   17.1652   -3.1130   49.5331 C   0  0  0  0  0  0  0  0  0  0  0  0
   17.7526   -3.3797   48.4868 O   0  0  0  0  0  0  0  0  0  0  0  0
   16.8635   -0.6475   49.1343 C   0  0  0  0  0  0  0  0  0  0  0  0
   16.3052   -1.9032   49.5226 C   0  0  0  0  0  0  0  0  0  0  0  0
   14.9355   -2.0054   49.9033 C   0  0  0  0  0  0  0  0  0  0  0  0
   14.1233   -0.8476   49.9041 C   0  0  0  0  0  0  0  0  0  0  0  0
   13.9314    1.5458   49.5170 O   0  0  0  0  0  0  0  0  0  0  0  0
   14.6765    0.4041   49.5247 C   0  0  0  0  0  0  0  0  0  0  0  0
   16.0433    0.5136   49.1357 C   0  0  0  0  0  0  0  0  0  0  0  0
   18.1894   -0.5601   48.7640 O   0  0  0  0  0  0  0  0  0  0  0  0
   12.4771   -0.9993   50.3753 Cl  0  0  0  0  0  0  0  0  0  0  0  0
   13.0285    1.5177   49.7659 H   0  0  0  0  0  0  0  0  0  0  0  0
   18.7274   -1.3273   48.7641 H   0  0  0  0  0  0  0  0  0  0  0  0
 23 24  2  0  0  0
 23 29  1  0  0  0
 23 30  1  0  0  0
 24 25  1  0  0  0
 24 21  1  0  0  0
 25 26  2  0  0  0
 26 28  1  0  0  0
 26 31  1  0  0  0
 21  1  1  0  0  0
 21 22  2  0  0  0
  1  2  1  0  0  0
  1  5  1  0  0  0
  2  4  1  0  0  0
  3  4  1  0  0  0
  3  5  1  0  0  0
  7  5  1  0  0  0
  7  9  2  0  0  0
  7 12  1  0  0  0
  8 13  1  0  0  0
  8 10  2  0  0  0
  8 11  1  0  0  0
 13 16  1  0  0  0
 14 17  1  0  0  0
 14 18  1  0  0  0
 15 16  1  0  0  0
 15 18  1  0  0  0
 27 28  1  0  0  0
 28 29  2  0  0  0
  9 10  1  0  0  0
 16 17  1  0  0  0
 18 19  1  0  0  0
 18 20  1  0  0  0
 11 12  2  0  0  0
  1  6  1  0  0  0
 27 32  1  0  0  0
 30 33  1  0  0  0
M  CHG 1   1   1
M  END
> <minimizedAffinity>
-8.77315

$$$$
3HEK_BD0_A_901


 33 36  0  0  0  0  0  0  0  0999 V2000
   15.1110   -1.9334   53.2062 N   0  0  0  0  0  0  0  0  0  0  0  0
   16.3903   -2.1938   53.8623 C   0  0  0  0  0  0  0  0  0  0  0  0
   15.0832   -0.7728   55.2939 C   0  0  0  0  0  0  0  0  0  0  0  0
   16.2447   -1.7602   55.3063 C   0  0  0  0  0  0  0  0  0  0  0  0
   14.1992   -1.1211   54.0663 C   0  0  0  0  0  0  0  0  0  0  0  0
   14.9400   -1.0536   52.7989 H   0  0  0  0  0  0  0  0  0  0  0  0
   12.9877   -1.8404   54.6843 C   0  0  0  0  0  0  0  0  0  0  0  0
   10.8027   -3.2167   55.9401 C   0  0  0  0  0  0  0  0  0  0  0  0
   12.0010   -2.5270   53.9003 C   0  0  0  0  0  0  0  0  0  0  0  0
   10.9268   -3.2049   54.5194 C   0  0  0  0  0  0  0  0  0  0  0  0
   11.7684   -2.5303   56.7312 C   0  0  0  0  0  0  0  0  0  0  0  0
   12.8502   -1.8486   56.1137 C   0  0  0  0  0  0  0  0  0  0  0  0
    9.6705   -3.9732   56.5949 C   0  0  0  0  0  0  0  0  0  0  0  0
    6.8174   -1.6821   56.0835 C   0  0  0  0  0  0  0  0  0  0  0  0
    7.3322   -4.0489   56.1507 C   0  0  0  0  0  0  0  0  0  0  0  0
    8.3945   -3.2801   56.7801 N   0  0  0  0  0  0  0  0  0  0  0  0
    8.3108   -1.9277   56.1975 C   0  0  0  0  0  0  0  0  0  0  0  0
    6.2096   -3.0703   56.0645 C   0  0  0  0  0  0  0  0  0  0  0  0
    5.4744   -3.2814   54.9502 F   0  0  0  0  0  0  0  0  0  0  0  0
    5.3959   -3.2305   57.1237 F   0  0  0  0  0  0  0  0  0  0  0  0
   15.0010   -2.2817   51.8391 C   0  0  0  0  0  0  0  0  0  0  0  0
   14.5690   -3.3592   51.4349 O   0  0  0  0  0  0  0  0  0  0  0  0
   16.7258   -1.5272   50.1704 C   0  0  0  0  0  0  0  0  0  0  0  0
   15.4637   -1.3216   50.8060 C   0  0  0  0  0  0  0  0  0  0  0  0
   14.6481   -0.2043   50.4624 C   0  0  0  0  0  0  0  0  0  0  0  0
   15.0990    0.7149   49.4868 C   0  0  0  0  0  0  0  0  0  0  0  0
   16.8321    1.3815   47.9161 O   0  0  0  0  0  0  0  0  0  0  0  0
   16.3565    0.5172   48.8571 C   0  0  0  0  0  0  0  0  0  0  0  0
   17.1748   -0.6014   49.1896 C   0  0  0  0  0  0  0  0  0  0  0  0
   17.5058   -2.6140   50.5075 O   0  0  0  0  0  0  0  0  0  0  0  0
   14.0980    2.0573   49.0981 Cl  0  0  0  0  0  0  0  0  0  0  0  0
   16.3254    2.1298   47.6684 H   0  0  0  0  0  0  0  0  0  0  0  0
   17.2071   -3.2225   51.1543 H   0  0  0  0  0  0  0  0  0  0  0  0
 23 24  2  0  0  0
 23 29  1  0  0  0
 23 30  1  0  0  0
 24 25  1  0  0  0
 24 21  1  0  0  0
 25 26  2  0  0  0
 26 28  1  0  0  0
 26 31  1  0  0  0
 21  1  1  0  0  0
 21 22  2  0  0  0
  1  2  1  0  0  0
  1  5  1  0  0  0
  2  4  1  0  0  0
  3  4  1  0  0  0
  3  5  1  0  0  0
  7  5  1  0  0  0
  7  9  2  0  0  0
  7 12  1  0  0  0
  8 13  1  0  0  0
  8 10  2  0  0  0
  8 11  1  0  0  0
 13 16  1  0  0  0
 14 17  1  0  0  0
 14 18  1  0  0  0
 15 16  1  0  0  0
 15 18  1  0  0  0
 27 28  1  0  0  0
 28 29  2  0  0  0
  9 10  1  0  0  0
 16 17  1  0  0  0
 18 19  1  0  0  0
 18 20  1  0  0  0
 11 12  2  0  0  0
  1  6  1  0  0  0
 27 32  1  0  0  0
 30 33  1  0  0  0
M  CHG 1   1   1
M  END
> <minimizedAffinity>
-8.57430

$$$$
3HEK_BD0_A_901


 33 36  0  0  0  0  0  0  0  0999 V2000
   15.1765   -0.4043   49.6064 N   0  0  0  0  0  0  0  0  0  0  0  0
   14.8466    0.8001   48.8478 C   0  0  0  0  0  0  0  0  0  0  0  0
   12.8646   -0.5483   49.0229 C   0  0  0  0  0  0  0  0  0  0  0  0
   13.3356    0.8810   48.7788 C   0  0  0  0  0  0  0  0  0  0  0  0
   13.9771   -1.2647   49.8344 C   0  0  0  0  0  0  0  0  0  0  0  0
   15.2720   -1.2658   49.1395 H   0  0  0  0  0  0  0  0  0  0  0  0
   13.4082   -1.3155   51.2630 C   0  0  0  0  0  0  0  0  0  0  0  0
   12.2997   -1.2881   53.9118 C   0  0  0  0  0  0  0  0  0  0  0  0
   14.0672   -1.9902   52.3448 C   0  0  0  0  0  0  0  0  0  0  0  0
   13.5214   -1.9751   53.6481 C   0  0  0  0  0  0  0  0  0  0  0  0
   11.6284   -0.6230   52.8457 C   0  0  0  0  0  0  0  0  0  0  0  0
   12.1735   -0.6345   51.5346 C   0  0  0  0  0  0  0  0  0  0  0  0
   11.7414   -1.2479   55.3152 C   0  0  0  0  0  0  0  0  0  0  0  0
   10.4401   -4.6901   55.6445 C   0  0  0  0  0  0  0  0  0  0  0  0
   11.7066   -3.0382   56.8849 C   0  0  0  0  0  0  0  0  0  0  0  0
   10.9856   -2.4081   55.7900 N   0  0  0  0  0  0  0  0  0  0  0  0
   10.7560   -3.4726   54.7952 C   0  0  0  0  0  0  0  0  0  0  0  0
   11.0587   -4.3776   56.9924 C   0  0  0  0  0  0  0  0  0  0  0  0
   11.9578   -5.3166   57.3620 F   0  0  0  0  0  0  0  0  0  0  0  0
   10.1032   -4.3363   57.9384 F   0  0  0  0  0  0  0  0  0  0  0  0
   16.5479   -0.6805   49.8199 C   0  0  0  0  0  0  0  0  0  0  0  0
   17.4656    0.0232   49.4031 O   0  0  0  0  0  0  0  0  0  0  0  0
   16.9735   -3.1594   49.8671 C   0  0  0  0  0  0  0  0  0  0  0  0
   16.9347   -1.9096   50.5567 C   0  0  0  0  0  0  0  0  0  0  0  0
   17.2584   -1.8314   51.9425 C   0  0  0  0  0  0  0  0  0  0  0  0
   17.6138   -3.0073   52.6433 C   0  0  0  0  0  0  0  0  0  0  0  0
   17.9787   -5.4115   52.6005 O   0  0  0  0  0  0  0  0  0  0  0  0
   17.6474   -4.2531   51.9625 C   0  0  0  0  0  0  0  0  0  0  0  0
   17.3322   -4.3388   50.5751 C   0  0  0  0  0  0  0  0  0  0  0  0
   16.6620   -3.2236   48.5247 O   0  0  0  0  0  0  0  0  0  0  0  0
   17.9916   -2.8843   54.3158 Cl  0  0  0  0  0  0  0  0  0  0  0  0
   18.1928   -5.3992   53.5127 H   0  0  0  0  0  0  0  0  0  0  0  0
   16.4260   -2.4444   48.0608 H   0  0  0  0  0  0  0  0  0  0  0  0
 23 24  2  0  0  0
 23 29  1  0  0  0
 23 30  1  0  0  0
 24 25  1  0  0  0
 24 21  1  0  0  0
 25 26  2  0  0  0
 26 28  1  0  0  0
 26 31  1  0  0  0
 21  1  1  0  0  0
 21 22  2  0  0  0
  1  2  1  0  0  0
  1  5  1  0  0  0
  2  4  1  0  0  0
  3  4  1  0  0  0
  3  5  1  0  0  0
  7  5  1  0  0  0
  7  9  2  0  0  0
  7 12  1  0  0  0
  8 13  1  0  0  0
  8 10  2  0  0  0
  8 11  1  0  0  0
 13 16  1  0  0  0
 14 17  1  0  0  0
 14 18  1  0  0  0
 15 16  1  0  0  0
 15 18  1  0  0  0
 27 28  1  0  0  0
 28 29  2  0  0  0
  9 10  1  0  0  0
 16 17  1  0  0  0
 18 19  1  0  0  0
 18 20  1  0  0  0
 11 12  2  0  0  0
  1  6  1  0  0  0
 27 32  1  0  0  0
 30 33  1  0  0  0
M  CHG 1   1   1
M  END
> <minimizedAffinity>
-8.49120

$$$$
3HEK_BD0_A_901


 33 36  0  0  0  0  0  0  0  0999 V2000
   11.3612   -0.7388   54.9846 N   0  0  0  0  0  0  0  0  0  0  0  0
   11.0682    0.6850   55.1314 C   0  0  0  0  0  0  0  0  0  0  0  0
   12.9158    0.1424   56.5698 C   0  0  0  0  0  0  0  0  0  0  0  0
   12.2459    1.3084   55.8516 C   0  0  0  0  0  0  0  0  0  0  0  0
   12.5541   -1.1473   55.7852 C   0  0  0  0  0  0  0  0  0  0  0  0
   11.1038   -1.3674   55.6972 H   0  0  0  0  0  0  0  0  0  0  0  0
   13.8430   -1.4745   55.0115 C   0  0  0  0  0  0  0  0  0  0  0  0
   16.2233   -2.2134   53.5854 C   0  0  0  0  0  0  0  0  0  0  0  0
   15.0283   -0.6689   55.0884 C   0  0  0  0  0  0  0  0  0  0  0  0
   16.1995   -1.0341   54.3871 C   0  0  0  0  0  0  0  0  0  0  0  0
   15.0509   -3.0172   53.4906 C   0  0  0  0  0  0  0  0  0  0  0  0
   13.8720   -2.6549   54.1943 C   0  0  0  0  0  0  0  0  0  0  0  0
   17.4904   -2.6148   52.8668 C   0  0  0  0  0  0  0  0  0  0  0  0
   16.7369   -3.1916   49.2960 C   0  0  0  0  0  0  0  0  0  0  0  0
   16.6130   -1.4550   50.9812 C   0  0  0  0  0  0  0  0  0  0  0  0
   17.5170   -2.5119   51.4068 N   0  0  0  0  0  0  0  0  0  0  0  0
   17.0964   -3.7200   50.6727 C   0  0  0  0  0  0  0  0  0  0  0  0
   16.4379   -1.7235   49.5244 C   0  0  0  0  0  0  0  0  0  0  0  0
   15.1891   -1.3971   49.1235 F   0  0  0  0  0  0  0  0  0  0  0  0
   17.3000   -0.9644   48.8242 F   0  0  0  0  0  0  0  0  0  0  0  0
   10.3999   -1.5326   54.3150 C   0  0  0  0  0  0  0  0  0  0  0  0
   10.3297   -1.6454   53.0929 O   0  0  0  0  0  0  0  0  0  0  0  0
    9.6699   -3.5579   55.6166 C   0  0  0  0  0  0  0  0  0  0  0  0
    9.3755   -2.2559   55.1090 C   0  0  0  0  0  0  0  0  0  0  0  0
    8.1099   -1.6477   55.3529 C   0  0  0  0  0  0  0  0  0  0  0  0
    7.1323   -2.3460   56.0991 C   0  0  0  0  0  0  0  0  0  0  0  0
    6.5041   -4.3543   57.3187 O   0  0  0  0  0  0  0  0  0  0  0  0
    7.4191   -3.6436   56.6001 C   0  0  0  0  0  0  0  0  0  0  0  0
    8.6848   -4.2560   56.3669 C   0  0  0  0  0  0  0  0  0  0  0  0
   10.8995   -4.1361   55.3781 O   0  0  0  0  0  0  0  0  0  0  0  0
    5.6120   -1.5911   56.3710 Cl  0  0  0  0  0  0  0  0  0  0  0  0
    5.6597   -3.9882   57.4945 H   0  0  0  0  0  0  0  0  0  0  0  0
   11.5467   -3.6734   54.8831 H   0  0  0  0  0  0  0  0  0  0  0  0
 23 24  2  0  0  0
 23 29  1  0  0  0
 23 30  1  0  0  0
 24 25  1  0  0  0
 24 21  1  0  0  0
 25 26  2  0  0  0
 26 28  1  0  0  0
 26 31  1  0  0  0
 21  1  1  0  0  0
 21 22  2  0  0  0
  1  2  1  0  0  0
  1  5  1  0  0  0
  2  4  1  0  0  0
  3  4  1  0  0  0
  3  5  1  0  0  0
  7  5  1  0  0  0
  7  9  2  0  0  0
  7 12  1  0  0  0
  8 13  1  0  0  0
  8 10  2  0  0  0
  8 11  1  0  0  0
 13 16  1  0  0  0
 14 17  1  0  0  0
 14 18  1  0  0  0
 15 16  1  0  0  0
 15 18  1  0  0  0
 27 28  1  0  0  0
 28 29  2  0  0  0
  9 10  1  0  0  0
 16 17  1  0  0  0
 18 19  1  0  0  0
 18 20  1  0  0  0
 11 12  2  0  0  0
  1  6  1  0  0  0
 27 32  1  0  0  0
 30 33  1  0  0  0
M  CHG 1   1   1
M  END
> <minimizedAffinity>
-8.46153

$$$$
