1F74_NAY_A_950


 26 25  0  0  0  0  0  0  0  0999 V2000
   -0.1596   13.3108    9.8381 C   0  0  0  0  0  0  0  0  0  0  0  0
   -0.9278   12.0367    9.8831 N   0  0  0  0  0  0  0  0  0  0  0  0
   -2.1741   11.9591    9.4018 C   0  0  0  0  0  0  0  0  0  0  0  0
   -2.6785   10.5190    9.3544 C   0  0  0  0  0  0  0  0  0  0  0  0
   -2.9205   12.8964    9.0361 O   0  0  0  0  0  0  0  0  0  0  0  0
   -0.5109   11.2354   10.2746 H   0  0  0  0  0  0  0  0  0  0  0  0
    1.2741   14.4041   11.4421 O   0  0  0  0  0  0  0  0  0  0  0  0
   -0.0589   13.8632   11.3077 C   0  0  0  0  0  0  0  0  0  0  0  0
    1.9251   13.7012   11.2903 H   0  0  0  0  0  0  0  0  0  0  0  0
   -1.0813   15.0160   11.5572 C   0  0  0  0  0  0  0  0  0  0  0  0
   -1.7137   15.3252   10.3194 O   0  0  0  0  0  0  0  0  0  0  0  0
   -1.0452   15.6108    9.6772 H   0  0  0  0  0  0  0  0  0  0  0  0
   -0.3808   16.2734   12.1250 C   0  0  0  0  0  0  0  0  0  0  0  0
   -0.1095   16.0156   13.5252 O   0  0  0  0  0  0  0  0  0  0  0  0
   -0.9441   15.8514   13.9914 H   0  0  0  0  0  0  0  0  0  0  0  0
   -1.1918   17.5311   11.9051 C   0  0  0  0  0  0  0  0  0  0  0  0
   -0.8027   18.2208   10.7110 O   0  0  0  0  0  0  0  0  0  0  0  0
    0.1271   18.4884   10.7806 H   0  0  0  0  0  0  0  0  0  0  0  0
    1.2437   13.1110    9.1729 C   0  0  0  0  0  0  0  0  0  0  0  0
    1.2940   13.9522    7.8277 C   0  0  0  0  0  0  0  0  0  0  0  0
    2.0391   15.2923    7.9539 C   0  0  0  0  0  0  0  0  0  0  0  0
    3.1804   15.5782    7.5427 O   0  0  0  0  0  0  0  0  0  0  0  0
    1.2730   16.4132    8.7027 C   0  0  0  0  0  0  0  0  0  0  0  0
    1.8924   16.8866    9.6691 O   0  0  0  0  0  0  0  0  0  0  0  0
    0.1391   16.7369    8.3113 O   0  0  0  0  0  0  0  0  0  0  0  0
    2.7483   16.5680    9.8786 H   0  0  0  0  0  0  0  0  0  0  0  0
 23 24  1  0  0  0
 23 25  2  0  0  0
 23 21  1  0  0  0
 21 22  2  0  0  0
 21 20  1  0  0  0
 20 19  1  0  0  0
 19  1  1  0  0  0
  1  2  1  0  0  0
  1  8  1  0  0  0
  2  3  1  0  0  0
  3  4  1  0  0  0
  3  5  2  0  0  0
  7  8  1  0  0  0
  8 10  1  0  0  0
 10 11  1  0  0  0
 10 13  1  0  0  0
 13 14  1  0  0  0
 13 16  1  0  0  0
 16 17  1  0  0  0
 24 26  1  0  0  0
  2  6  1  0  0  0
  7  9  1  0  0  0
 11 12  1  0  0  0
 14 15  1  0  0  0
 17 18  1  0  0  0
M  END
> <minimizedAffinity>
-6.20612

$$$$
1F74_NAY_A_950


 26 25  0  0  0  0  0  0  0  0999 V2000
   -0.0363   16.1066    9.8139 C   0  0  0  0  0  0  0  0  0  0  0  0
   -0.3345   14.6872   10.1481 N   0  0  0  0  0  0  0  0  0  0  0  0
   -1.1761   13.9598    9.4039 C   0  0  0  0  0  0  0  0  0  0  0  0
   -1.1599   12.4858    9.8007 C   0  0  0  0  0  0  0  0  0  0  0  0
   -1.9399   14.3549    8.4929 O   0  0  0  0  0  0  0  0  0  0  0  0
    0.0958   14.2753   10.9319 H   0  0  0  0  0  0  0  0  0  0  0  0
   -0.5374   18.3308   10.6049 O   0  0  0  0  0  0  0  0  0  0  0  0
   -0.3653   16.9779   11.0819 C   0  0  0  0  0  0  0  0  0  0  0  0
    0.2818   18.6308   10.1807 H   0  0  0  0  0  0  0  0  0  0  0  0
   -1.6975   16.5251   11.7577 C   0  0  0  0  0  0  0  0  0  0  0  0
   -2.7030   16.4496   10.7522 O   0  0  0  0  0  0  0  0  0  0  0  0
   -2.8198   17.3225   10.3455 H   0  0  0  0  0  0  0  0  0  0  0  0
   -2.1279   17.5143   12.8668 C   0  0  0  0  0  0  0  0  0  0  0  0
   -0.9257   17.9214   13.5664 O   0  0  0  0  0  0  0  0  0  0  0  0
   -0.4971   17.1419   13.9533 H   0  0  0  0  0  0  0  0  0  0  0  0
   -3.1732   16.9250   13.7878 C   0  0  0  0  0  0  0  0  0  0  0  0
   -4.0354   17.9292   14.3363 O   0  0  0  0  0  0  0  0  0  0  0  0
   -3.5110   18.5540   14.8614 H   0  0  0  0  0  0  0  0  0  0  0  0
    1.4421   16.2833    9.3295 C   0  0  0  0  0  0  0  0  0  0  0  0
    1.5311   15.8616    7.8018 C   0  0  0  0  0  0  0  0  0  0  0  0
    1.8471   14.3722    7.5800 C   0  0  0  0  0  0  0  0  0  0  0  0
    2.0516   13.4940    8.4404 O   0  0  0  0  0  0  0  0  0  0  0  0
    1.9373   13.9233    6.0986 C   0  0  0  0  0  0  0  0  0  0  0  0
    1.2411   14.5999    5.3247 O   0  0  0  0  0  0  0  0  0  0  0  0
    2.6561   12.9539    5.8027 O   0  0  0  0  0  0  0  0  0  0  0  0
    0.7333   15.3148    5.6549 H   0  0  0  0  0  0  0  0  0  0  0  0
 23 24  1  0  0  0
 23 25  2  0  0  0
 23 21  1  0  0  0
 21 22  2  0  0  0
 21 20  1  0  0  0
 20 19  1  0  0  0
 19  1  1  0  0  0
  1  2  1  0  0  0
  1  8  1  0  0  0
  2  3  1  0  0  0
  3  4  1  0  0  0
  3  5  2  0  0  0
  7  8  1  0  0  0
  8 10  1  0  0  0
 10 11  1  0  0  0
 10 13  1  0  0  0
 13 14  1  0  0  0
 13 16  1  0  0  0
 16 17  1  0  0  0
 24 26  1  0  0  0
  2  6  1  0  0  0
  7  9  1  0  0  0
 11 12  1  0  0  0
 14 15  1  0  0  0
 17 18  1  0  0  0
M  END
> <minimizedAffinity>
-6.17430

$$$$
1F74_NAY_A_950


 26 25  0  0  0  0  0  0  0  0999 V2000
    0.6858   15.3842   10.5319 C   0  0  0  0  0  0  0  0  0  0  0  0
    0.2419   16.1242   11.7447 N   0  0  0  0  0  0  0  0  0  0  0  0
   -0.4984   17.2350   11.6491 C   0  0  0  0  0  0  0  0  0  0  0  0
   -1.0150   17.6949   13.0101 C   0  0  0  0  0  0  0  0  0  0  0  0
   -0.7662   17.8985   10.6207 O   0  0  0  0  0  0  0  0  0  0  0  0
    0.4979   15.7900   12.6346 H   0  0  0  0  0  0  0  0  0  0  0  0
    3.0783   15.3314   10.2212 O   0  0  0  0  0  0  0  0  0  0  0  0
    1.9223   16.1475    9.9292 C   0  0  0  0  0  0  0  0  0  0  0  0
    3.1678   15.2294   11.1816 H   0  0  0  0  0  0  0  0  0  0  0  0
    1.8057   16.2926    8.3794 C   0  0  0  0  0  0  0  0  0  0  0  0
    0.4383   16.5236    8.0560 O   0  0  0  0  0  0  0  0  0  0  0  0
   -0.0967   15.7728    8.3579 H   0  0  0  0  0  0  0  0  0  0  0  0
    2.3156   15.0226    7.6575 C   0  0  0  0  0  0  0  0  0  0  0  0
    3.2953   15.4514    6.6793 O   0  0  0  0  0  0  0  0  0  0  0  0
    2.8775   16.0574    6.0475 H   0  0  0  0  0  0  0  0  0  0  0  0
    1.1895   14.2174    7.0479 C   0  0  0  0  0  0  0  0  0  0  0  0
    1.0496   14.4647    5.6436 O   0  0  0  0  0  0  0  0  0  0  0  0
    0.8422   15.4012    5.4993 H   0  0  0  0  0  0  0  0  0  0  0  0
    1.0040   13.8864   10.8587 C   0  0  0  0  0  0  0  0  0  0  0  0
   -0.1776   12.9823   10.3053 C   0  0  0  0  0  0  0  0  0  0  0  0
   -1.5804   13.5635   10.5531 C   0  0  0  0  0  0  0  0  0  0  0  0
   -2.1044   13.8677   11.6423 O   0  0  0  0  0  0  0  0  0  0  0  0
   -2.4474   13.7763    9.2854 C   0  0  0  0  0  0  0  0  0  0  0  0
   -2.0290   14.6722    8.5345 O   0  0  0  0  0  0  0  0  0  0  0  0
   -3.4617   13.0777    9.1216 O   0  0  0  0  0  0  0  0  0  0  0  0
   -1.2479   15.1408    8.7541 H   0  0  0  0  0  0  0  0  0  0  0  0
 23 24  1  0  0  0
 23 25  2  0  0  0
 23 21  1  0  0  0
 21 22  2  0  0  0
 21 20  1  0  0  0
 20 19  1  0  0  0
 19  1  1  0  0  0
  1  2  1  0  0  0
  1  8  1  0  0  0
  2  3  1  0  0  0
  3  4  1  0  0  0
  3  5  2  0  0  0
  7  8  1  0  0  0
  8 10  1  0  0  0
 10 11  1  0  0  0
 10 13  1  0  0  0
 13 14  1  0  0  0
 13 16  1  0  0  0
 16 17  1  0  0  0
 24 26  1  0  0  0
  2  6  1  0  0  0
  7  9  1  0  0  0
 11 12  1  0  0  0
 14 15  1  0  0  0
 17 18  1  0  0  0
M  END
> <minimizedAffinity>
-5.93390

$$$$
1F74_NAY_A_950


 26 25  0  0  0  0  0  0  0  0999 V2000
    0.7665   15.3290   10.6104 C   0  0  0  0  0  0  0  0  0  0  0  0
    0.2883   16.1219   11.7757 N   0  0  0  0  0  0  0  0  0  0  0  0
   -0.5569   17.1476   11.6189 C   0  0  0  0  0  0  0  0  0  0  0  0
   -1.0765   17.6681   12.9566 C   0  0  0  0  0  0  0  0  0  0  0  0
   -0.9155   17.6965   10.5514 O   0  0  0  0  0  0  0  0  0  0  0  0
    0.6000   15.8873   12.6796 H   0  0  0  0  0  0  0  0  0  0  0  0
    3.1349   15.3290   10.1478 O   0  0  0  0  0  0  0  0  0  0  0  0
    1.9467   16.1243    9.9399 C   0  0  0  0  0  0  0  0  0  0  0  0
    3.2875   15.2183   11.0993 H   0  0  0  0  0  0  0  0  0  0  0  0
    1.7287   16.2842    8.4026 C   0  0  0  0  0  0  0  0  0  0  0  0
    0.3470   16.5416    8.1737 O   0  0  0  0  0  0  0  0  0  0  0  0
   -0.1798   15.7978    8.5057 H   0  0  0  0  0  0  0  0  0  0  0  0
    2.1661   15.0115    7.6390 C   0  0  0  0  0  0  0  0  0  0  0  0
    3.2838   15.3829    6.7945 O   0  0  0  0  0  0  0  0  0  0  0  0
    3.0042   16.0733    6.1731 H   0  0  0  0  0  0  0  0  0  0  0  0
    1.0267   14.3862    6.8652 C   0  0  0  0  0  0  0  0  0  0  0  0
    1.2186   14.4867    5.4488 O   0  0  0  0  0  0  0  0  0  0  0  0
    1.2585   15.4217    5.1936 H   0  0  0  0  0  0  0  0  0  0  0  0
    1.1816   13.8800   11.0343 C   0  0  0  0  0  0  0  0  0  0  0  0
    0.3764   12.8393   10.1466 C   0  0  0  0  0  0  0  0  0  0  0  0
    1.2268   11.6658    9.6300 C   0  0  0  0  0  0  0  0  0  0  0  0
    2.2397   11.7119    8.9053 O   0  0  0  0  0  0  0  0  0  0  0  0
    0.7444   10.2549   10.0553 C   0  0  0  0  0  0  0  0  0  0  0  0
    0.9533    9.3746    9.2050 O   0  0  0  0  0  0  0  0  0  0  0  0
    0.1952   10.1107   11.1604 O   0  0  0  0  0  0  0  0  0  0  0  0
    1.3782    9.5930    8.3990 H   0  0  0  0  0  0  0  0  0  0  0  0
 23 24  1  0  0  0
 23 25  2  0  0  0
 23 21  1  0  0  0
 21 22  2  0  0  0
 21 20  1  0  0  0
 20 19  1  0  0  0
 19  1  1  0  0  0
  1  2  1  0  0  0
  1  8  1  0  0  0
  2  3  1  0  0  0
  3  4  1  0  0  0
  3  5  2  0  0  0
  7  8  1  0  0  0
  8 10  1  0  0  0
 10 11  1  0  0  0
 10 13  1  0  0  0
 13 14  1  0  0  0
 13 16  1  0  0  0
 16 17  1  0  0  0
 24 26  1  0  0  0
  2  6  1  0  0  0
  7  9  1  0  0  0
 11 12  1  0  0  0
 14 15  1  0  0  0
 17 18  1  0  0  0
M  END
> <minimizedAffinity>
-5.86033

$$$$
1F74_NAY_A_950


 26 25  0  0  0  0  0  0  0  0999 V2000
   -0.4054   14.9465   10.4874 C   0  0  0  0  0  0  0  0  0  0  0  0
   -1.2193   13.7030   10.4049 N   0  0  0  0  0  0  0  0  0  0  0  0
   -1.7442   13.2914    9.2447 C   0  0  0  0  0  0  0  0  0  0  0  0
   -2.3473   11.8934    9.3556 C   0  0  0  0  0  0  0  0  0  0  0  0
   -1.8036   13.9149    8.1597 O   0  0  0  0  0  0  0  0  0  0  0  0
   -1.3745   13.1728   11.2198 H   0  0  0  0  0  0  0  0  0  0  0  0
    0.2329   16.0191   12.5527 O   0  0  0  0  0  0  0  0  0  0  0  0
   -0.9222   15.7779   11.7189 C   0  0  0  0  0  0  0  0  0  0  0  0
    0.6077   15.1714   12.8390 H   0  0  0  0  0  0  0  0  0  0  0  0
   -1.5012   17.1580   11.2755 C   0  0  0  0  0  0  0  0  0  0  0  0
   -0.4413   17.9250   10.7133 O   0  0  0  0  0  0  0  0  0  0  0  0
    0.2511   18.0569   11.3796 H   0  0  0  0  0  0  0  0  0  0  0  0
   -2.1278   17.9135   12.4716 C   0  0  0  0  0  0  0  0  0  0  0  0
   -1.0479   18.2494   13.3779 O   0  0  0  0  0  0  0  0  0  0  0  0
   -0.6137   17.4360   13.6790 H   0  0  0  0  0  0  0  0  0  0  0  0
   -3.2297   17.1201   13.1383 C   0  0  0  0  0  0  0  0  0  0  0  0
   -3.7724   17.8025   14.2752 O   0  0  0  0  0  0  0  0  0  0  0  0
   -3.0750   17.9348   14.9362 H   0  0  0  0  0  0  0  0  0  0  0  0
    1.1244   14.6255   10.5773 C   0  0  0  0  0  0  0  0  0  0  0  0
    1.9169   15.6676    9.6797 C   0  0  0  0  0  0  0  0  0  0  0  0
    1.2612   15.9466    8.3161 C   0  0  0  0  0  0  0  0  0  0  0  0
    0.3718   16.7773    8.0471 O   0  0  0  0  0  0  0  0  0  0  0  0
    1.7641   15.0673    7.1421 C   0  0  0  0  0  0  0  0  0  0  0  0
    2.9868   15.1473    6.9418 O   0  0  0  0  0  0  0  0  0  0  0  0
    0.9456   14.3849    6.5032 O   0  0  0  0  0  0  0  0  0  0  0  0
    3.5160   15.6958    7.4868 H   0  0  0  0  0  0  0  0  0  0  0  0
 23 24  1  0  0  0
 23 25  2  0  0  0
 23 21  1  0  0  0
 21 22  2  0  0  0
 21 20  1  0  0  0
 20 19  1  0  0  0
 19  1  1  0  0  0
  1  2  1  0  0  0
  1  8  1  0  0  0
  2  3  1  0  0  0
  3  4  1  0  0  0
  3  5  2  0  0  0
  7  8  1  0  0  0
  8 10  1  0  0  0
 10 11  1  0  0  0
 10 13  1  0  0  0
 13 14  1  0  0  0
 13 16  1  0  0  0
 16 17  1  0  0  0
 24 26  1  0  0  0
  2  6  1  0  0  0
  7  9  1  0  0  0
 11 12  1  0  0  0
 14 15  1  0  0  0
 17 18  1  0  0  0
M  END
> <minimizedAffinity>
-5.84422

$$$$
1F74_NAY_A_950


 26 25  0  0  0  0  0  0  0  0999 V2000
    0.0259   13.0458    9.7004 C   0  0  0  0  0  0  0  0  0  0  0  0
   -0.9429   13.8797    8.9380 N   0  0  0  0  0  0  0  0  0  0  0  0
   -2.2229   13.5124    8.8056 C   0  0  0  0  0  0  0  0  0  0  0  0
   -3.0711   14.6160    8.1787 C   0  0  0  0  0  0  0  0  0  0  0  0
   -2.7460   12.4141    9.1049 O   0  0  0  0  0  0  0  0  0  0  0  0
   -0.6360   14.7181    8.5230 H   0  0  0  0  0  0  0  0  0  0  0  0
    1.9407   12.0094    8.6597 O   0  0  0  0  0  0  0  0  0  0  0  0
    1.4565   13.2986    9.0968 C   0  0  0  0  0  0  0  0  0  0  0  0
    1.9857   11.4067    9.4185 H   0  0  0  0  0  0  0  0  0  0  0  0
    1.3955   14.2437    7.8560 C   0  0  0  0  0  0  0  0  0  0  0  0
    1.8140   13.5046    6.7130 O   0  0  0  0  0  0  0  0  0  0  0  0
    2.7228   13.1922    6.8449 H   0  0  0  0  0  0  0  0  0  0  0  0
    2.3024   15.4823    8.0495 C   0  0  0  0  0  0  0  0  0  0  0  0
    3.1549   15.2136    9.1904 O   0  0  0  0  0  0  0  0  0  0  0  0
    2.6062   15.0675    9.9768 H   0  0  0  0  0  0  0  0  0  0  0  0
    1.5059   16.7595    8.1985 C   0  0  0  0  0  0  0  0  0  0  0  0
    0.0957   16.5117    8.2512 O   0  0  0  0  0  0  0  0  0  0  0  0
   -0.1898   16.0913    7.4249 H   0  0  0  0  0  0  0  0  0  0  0  0
   -0.0415   13.3474   11.2354 C   0  0  0  0  0  0  0  0  0  0  0  0
    0.3309   14.8723   11.4715 C   0  0  0  0  0  0  0  0  0  0  0  0
   -0.8875   15.8048   11.5850 C   0  0  0  0  0  0  0  0  0  0  0  0
   -2.0951   15.4973   11.5597 O   0  0  0  0  0  0  0  0  0  0  0  0
   -0.5611   17.3135   11.7308 C   0  0  0  0  0  0  0  0  0  0  0  0
   -0.7345   17.9684   10.6903 O   0  0  0  0  0  0  0  0  0  0  0  0
   -0.1545   17.7420   12.8239 O   0  0  0  0  0  0  0  0  0  0  0  0
   -1.0470   17.5435    9.9158 H   0  0  0  0  0  0  0  0  0  0  0  0
 23 24  1  0  0  0
 23 25  2  0  0  0
 23 21  1  0  0  0
 21 22  2  0  0  0
 21 20  1  0  0  0
 20 19  1  0  0  0
 19  1  1  0  0  0
  1  2  1  0  0  0
  1  8  1  0  0  0
  2  3  1  0  0  0
  3  4  1  0  0  0
  3  5  2  0  0  0
  7  8  1  0  0  0
  8 10  1  0  0  0
 10 11  1  0  0  0
 10 13  1  0  0  0
 13 14  1  0  0  0
 13 16  1  0  0  0
 16 17  1  0  0  0
 24 26  1  0  0  0
  2  6  1  0  0  0
  7  9  1  0  0  0
 11 12  1  0  0  0
 14 15  1  0  0  0
 17 18  1  0  0  0
M  END
> <minimizedAffinity>
-5.83669

$$$$
1F74_NAY_A_950


 26 25  0  0  0  0  0  0  0  0999 V2000
   -0.1251   15.9293   10.4488 C   0  0  0  0  0  0  0  0  0  0  0  0
    0.7551   14.8906   11.0501 N   0  0  0  0  0  0  0  0  0  0  0  0
    0.3143   13.6454   11.2652 C   0  0  0  0  0  0  0  0  0  0  0  0
    1.4426   12.7048   11.6807 C   0  0  0  0  0  0  0  0  0  0  0  0
   -0.8606   13.2178   11.1864 O   0  0  0  0  0  0  0  0  0  0  0  0
    1.6798   15.1241   11.2945 H   0  0  0  0  0  0  0  0  0  0  0  0
   -0.6689   18.2734   10.6313 O   0  0  0  0  0  0  0  0  0  0  0  0
   -0.1000   17.1863   11.3944 C   0  0  0  0  0  0  0  0  0  0  0  0
   -0.1333   18.4258    9.8371 H   0  0  0  0  0  0  0  0  0  0  0  0
   -0.9824   16.9660   12.6631 C   0  0  0  0  0  0  0  0  0  0  0  0
   -0.2391   16.1823   13.5911 O   0  0  0  0  0  0  0  0  0  0  0  0
   -0.0200   15.3269   13.1894 H   0  0  0  0  0  0  0  0  0  0  0  0
   -2.3084   16.2527   12.3068 C   0  0  0  0  0  0  0  0  0  0  0  0
   -3.2239   17.2681   11.8260 O   0  0  0  0  0  0  0  0  0  0  0  0
   -3.3690   17.9283   12.5217 H   0  0  0  0  0  0  0  0  0  0  0  0
   -2.8654   15.4618   13.4697 C   0  0  0  0  0  0  0  0  0  0  0  0
   -3.1176   16.2891   14.6120 O   0  0  0  0  0  0  0  0  0  0  0  0
   -2.2864   16.6900   14.9107 H   0  0  0  0  0  0  0  0  0  0  0  0
    0.3085   16.2700    8.9833 C   0  0  0  0  0  0  0  0  0  0  0  0
    1.8881   16.1533    8.8796 C   0  0  0  0  0  0  0  0  0  0  0  0
    2.3791   15.3626    7.6545 C   0  0  0  0  0  0  0  0  0  0  0  0
    3.3780   15.5887    6.9443 O   0  0  0  0  0  0  0  0  0  0  0  0
    1.5055   14.1464    7.2521 C   0  0  0  0  0  0  0  0  0  0  0  0
    1.6223   13.1703    8.0106 O   0  0  0  0  0  0  0  0  0  0  0  0
    0.7918   14.2229    6.2380 O   0  0  0  0  0  0  0  0  0  0  0  0
    2.1922   13.2193    8.7528 H   0  0  0  0  0  0  0  0  0  0  0  0
 23 24  1  0  0  0
 23 25  2  0  0  0
 23 21  1  0  0  0
 21 22  2  0  0  0
 21 20  1  0  0  0
 20 19  1  0  0  0
 19  1  1  0  0  0
  1  2  1  0  0  0
  1  8  1  0  0  0
  2  3  1  0  0  0
  3  4  1  0  0  0
  3  5  2  0  0  0
  7  8  1  0  0  0
  8 10  1  0  0  0
 10 11  1  0  0  0
 10 13  1  0  0  0
 13 14  1  0  0  0
 13 16  1  0  0  0
 16 17  1  0  0  0
 24 26  1  0  0  0
  2  6  1  0  0  0
  7  9  1  0  0  0
 11 12  1  0  0  0
 14 15  1  0  0  0
 17 18  1  0  0  0
M  END
> <minimizedAffinity>
-5.67043

$$$$
1F74_NAY_A_950


 26 25  0  0  0  0  0  0  0  0999 V2000
   -0.0578   14.3026   11.2145 C   0  0  0  0  0  0  0  0  0  0  0  0
   -0.0640   15.3964   12.2240 N   0  0  0  0  0  0  0  0  0  0  0  0
   -0.5614   16.6050   11.9363 C   0  0  0  0  0  0  0  0  0  0  0  0
   -0.6626   17.4899   13.1761 C   0  0  0  0  0  0  0  0  0  0  0  0
   -0.9037   17.0529   10.8175 O   0  0  0  0  0  0  0  0  0  0  0  0
    0.3050   15.2274   13.1209 H   0  0  0  0  0  0  0  0  0  0  0  0
    1.3345   12.3822   10.7703 O   0  0  0  0  0  0  0  0  0  0  0  0
    1.4234   13.7934   11.0671 C   0  0  0  0  0  0  0  0  0  0  0  0
    0.8817   11.9268   11.4973 H   0  0  0  0  0  0  0  0  0  0  0  0
    2.1552   14.4968    9.8813 C   0  0  0  0  0  0  0  0  0  0  0  0
    2.3949   15.8518   10.2474 O   0  0  0  0  0  0  0  0  0  0  0  0
    1.5493   16.2941   10.4217 H   0  0  0  0  0  0  0  0  0  0  0  0
    1.3101   14.4374    8.5866 C   0  0  0  0  0  0  0  0  0  0  0  0
    1.8038   13.3213    7.8049 O   0  0  0  0  0  0  0  0  0  0  0  0
    2.7399   13.4632    7.5939 H   0  0  0  0  0  0  0  0  0  0  0  0
    1.3331   15.7443    7.8253 C   0  0  0  0  0  0  0  0  0  0  0  0
    0.2895   16.6311    8.2463 O   0  0  0  0  0  0  0  0  0  0  0  0
   -0.5723   16.2183    8.0798 H   0  0  0  0  0  0  0  0  0  0  0  0
   -1.0519   13.1573   11.6039 C   0  0  0  0  0  0  0  0  0  0  0  0
   -2.5225   13.6022   11.2055 C   0  0  0  0  0  0  0  0  0  0  0  0
   -2.9531   13.1547    9.7978 C   0  0  0  0  0  0  0  0  0  0  0  0
   -3.5977   12.1367    9.4791 O   0  0  0  0  0  0  0  0  0  0  0  0
   -2.5094   14.0834    8.6382 C   0  0  0  0  0  0  0  0  0  0  0  0
   -2.2024   13.4781    7.5985 O   0  0  0  0  0  0  0  0  0  0  0  0
   -2.4797   15.3115    8.8238 O   0  0  0  0  0  0  0  0  0  0  0  0
   -2.2616   12.5436    7.5655 H   0  0  0  0  0  0  0  0  0  0  0  0
 23 24  1  0  0  0
 23 25  2  0  0  0
 23 21  1  0  0  0
 21 22  2  0  0  0
 21 20  1  0  0  0
 20 19  1  0  0  0
 19  1  1  0  0  0
  1  2  1  0  0  0
  1  8  1  0  0  0
  2  3  1  0  0  0
  3  4  1  0  0  0
  3  5  2  0  0  0
  7  8  1  0  0  0
  8 10  1  0  0  0
 10 11  1  0  0  0
 10 13  1  0  0  0
 13 14  1  0  0  0
 13 16  1  0  0  0
 16 17  1  0  0  0
 24 26  1  0  0  0
  2  6  1  0  0  0
  7  9  1  0  0  0
 11 12  1  0  0  0
 14 15  1  0  0  0
 17 18  1  0  0  0
M  END
> <minimizedAffinity>
-5.51073

$$$$
1F74_NAY_A_950


 26 25  0  0  0  0  0  0  0  0999 V2000
    0.9961   15.3437    9.7051 C   0  0  0  0  0  0  0  0  0  0  0  0
    0.9406   15.0211    8.2531 N   0  0  0  0  0  0  0  0  0  0  0  0
    2.0346   15.0837    7.4848 C   0  0  0  0  0  0  0  0  0  0  0  0
    1.7884   14.5050    6.0938 C   0  0  0  0  0  0  0  0  0  0  0  0
    3.1554   15.5627    7.7745 O   0  0  0  0  0  0  0  0  0  0  0  0
    0.0823   14.7566    7.8500 H   0  0  0  0  0  0  0  0  0  0  0  0
   -0.7787   16.6767    8.7583 O   0  0  0  0  0  0  0  0  0  0  0  0
   -0.0178   16.5157    9.9759 C   0  0  0  0  0  0  0  0  0  0  0  0
   -0.1788   16.8984    8.0290 H   0  0  0  0  0  0  0  0  0  0  0  0
   -1.0091   16.1603   11.1280 C   0  0  0  0  0  0  0  0  0  0  0  0
   -2.3232   16.1037   10.5823 O   0  0  0  0  0  0  0  0  0  0  0  0
   -2.5535   16.9666   10.2038 H   0  0  0  0  0  0  0  0  0  0  0  0
   -0.9494   17.2103   12.2629 C   0  0  0  0  0  0  0  0  0  0  0  0
    0.4078   17.7170   12.3052 O   0  0  0  0  0  0  0  0  0  0  0  0
    1.0201   16.9865   12.4850 H   0  0  0  0  0  0  0  0  0  0  0  0
   -1.4090   16.6483   13.5899 C   0  0  0  0  0  0  0  0  0  0  0  0
   -2.6566   17.2132   14.0108 O   0  0  0  0  0  0  0  0  0  0  0  0
   -2.5556   18.1710   14.1254 H   0  0  0  0  0  0  0  0  0  0  0  0
    0.7054   14.0812   10.5844 C   0  0  0  0  0  0  0  0  0  0  0  0
    0.2057   12.9071    9.6402 C   0  0  0  0  0  0  0  0  0  0  0  0
   -1.2373   12.4511    9.9172 C   0  0  0  0  0  0  0  0  0  0  0  0
   -1.6261   11.5720   10.7105 O   0  0  0  0  0  0  0  0  0  0  0  0
   -2.3339   13.1683    9.0882 C   0  0  0  0  0  0  0  0  0  0  0  0
   -1.8885   13.9770    8.2580 O   0  0  0  0  0  0  0  0  0  0  0  0
   -3.5281   12.9071    9.3099 O   0  0  0  0  0  0  0  0  0  0  0  0
   -0.9633   14.0981    8.1716 H   0  0  0  0  0  0  0  0  0  0  0  0
 23 24  1  0  0  0
 23 25  2  0  0  0
 23 21  1  0  0  0
 21 22  2  0  0  0
 21 20  1  0  0  0
 20 19  1  0  0  0
 19  1  1  0  0  0
  1  2  1  0  0  0
  1  8  1  0  0  0
  2  3  1  0  0  0
  3  4  1  0  0  0
  3  5  2  0  0  0
  7  8  1  0  0  0
  8 10  1  0  0  0
 10 11  1  0  0  0
 10 13  1  0  0  0
 13 14  1  0  0  0
 13 16  1  0  0  0
 16 17  1  0  0  0
 24 26  1  0  0  0
  2  6  1  0  0  0
  7  9  1  0  0  0
 11 12  1  0  0  0
 14 15  1  0  0  0
 17 18  1  0  0  0
M  END
> <minimizedAffinity>
-5.42608

$$$$
1F74_NAY_A_950


 26 25  0  0  0  0  0  0  0  0999 V2000
   -0.7459   13.8373   11.2186 C   0  0  0  0  0  0  0  0  0  0  0  0
   -0.6747   12.6207   10.3641 N   0  0  0  0  0  0  0  0  0  0  0  0
   -0.2656   11.4465   10.8590 C   0  0  0  0  0  0  0  0  0  0  0  0
   -0.4805   10.3044    9.8692 C   0  0  0  0  0  0  0  0  0  0  0  0
    0.2632   11.2197   11.9719 O   0  0  0  0  0  0  0  0  0  0  0  0
   -0.9338   12.6809    9.4162 H   0  0  0  0  0  0  0  0  0  0  0  0
    1.6268   13.9946   11.6299 O   0  0  0  0  0  0  0  0  0  0  0  0
    0.5523   14.6859   10.9552 C   0  0  0  0  0  0  0  0  0  0  0  0
    1.4325   13.9430   12.5788 H   0  0  0  0  0  0  0  0  0  0  0  0
    0.8938   14.7525    9.4336 C   0  0  0  0  0  0  0  0  0  0  0  0
    1.9684   13.8534    9.1792 O   0  0  0  0  0  0  0  0  0  0  0  0
    2.7415   14.1173    9.7023 H   0  0  0  0  0  0  0  0  0  0  0  0
    1.2892   16.1871    9.0100 C   0  0  0  0  0  0  0  0  0  0  0  0
    0.1641   16.7443    8.2860 O   0  0  0  0  0  0  0  0  0  0  0  0
   -0.0210   16.1981    7.5061 H   0  0  0  0  0  0  0  0  0  0  0  0
    2.5744   16.2168    8.2127 C   0  0  0  0  0  0  0  0  0  0  0  0
    3.7317   16.2341    9.0572 O   0  0  0  0  0  0  0  0  0  0  0  0
    3.7182   17.0325    9.6078 H   0  0  0  0  0  0  0  0  0  0  0  0
   -2.0589   14.6481   10.9536 C   0  0  0  0  0  0  0  0  0  0  0  0
   -2.4512   15.4293   12.2786 C   0  0  0  0  0  0  0  0  0  0  0  0
   -2.5615   16.9532   12.0984 C   0  0  0  0  0  0  0  0  0  0  0  0
   -3.5956   17.6446   12.0202 O   0  0  0  0  0  0  0  0  0  0  0  0
   -1.2133   17.7103   11.9833 C   0  0  0  0  0  0  0  0  0  0  0  0
   -0.9698   18.1330   10.8415 O   0  0  0  0  0  0  0  0  0  0  0  0
   -0.4958   17.8254   12.9910 O   0  0  0  0  0  0  0  0  0  0  0  0
   -1.5840   17.9907   10.1483 H   0  0  0  0  0  0  0  0  0  0  0  0
 23 24  1  0  0  0
 23 25  2  0  0  0
 23 21  1  0  0  0
 21 22  2  0  0  0
 21 20  1  0  0  0
 20 19  1  0  0  0
 19  1  1  0  0  0
  1  2  1  0  0  0
  1  8  1  0  0  0
  2  3  1  0  0  0
  3  4  1  0  0  0
  3  5  2  0  0  0
  7  8  1  0  0  0
  8 10  1  0  0  0
 10 11  1  0  0  0
 10 13  1  0  0  0
 13 14  1  0  0  0
 13 16  1  0  0  0
 16 17  1  0  0  0
 24 26  1  0  0  0
  2  6  1  0  0  0
  7  9  1  0  0  0
 11 12  1  0  0  0
 14 15  1  0  0  0
 17 18  1  0  0  0
M  END
> <minimizedAffinity>
-5.33066

$$$$
