3K4D_EVA_A_604


 18 18  0  0  0  0  0  0  0  0999 V2000
  -22.8943  -28.9739   -0.9377 N   0  0  0  0  0  0  0  0  0  0  0  0
  -23.2719  -27.7069   -0.3212 C   0  0  0  0  0  0  0  0  0  0  0  0
  -24.6845  -27.3525   -0.7260 C   0  0  0  0  0  0  0  0  0  0  0  0
  -24.8098  -27.4078   -2.2485 C   0  0  0  0  0  0  0  0  0  0  0  0
  -24.9682  -26.0247   -0.3074 O   0  0  0  0  0  0  0  0  0  0  0  0
  -23.4400  -29.4882   -2.0589 C   0  0  0  0  0  0  0  0  0  0  0  0
  -24.4156  -28.7783   -4.1483 O   0  0  0  0  0  0  0  0  0  0  0  0
  -22.9488  -30.5001   -2.5192 O   0  0  0  0  0  0  0  0  0  0  0  0
  -24.6318  -28.8258   -2.7449 C   0  0  0  0  0  0  0  0  0  0  0  0
  -26.1440  -27.0456   -2.5631 O   0  0  0  0  0  0  0  0  0  0  0  0
  -22.1835  -29.4958   -0.5000 H   0  0  0  0  0  0  0  0  0  0  0  0
  -24.3426  -25.4130   -0.7262 H   0  0  0  0  0  0  0  0  0  0  0  0
  -25.1758  -28.3566   -4.5784 H   0  0  0  0  0  0  0  0  0  0  0  0
  -26.7565  -27.6628   -2.1332 H   0  0  0  0  0  0  0  0  0  0  0  0
  -23.0973  -27.8227    1.1863 C   0  0  0  0  0  0  0  0  0  0  0  0
  -22.3219  -28.6487    1.5967 O   0  0  0  0  0  0  0  0  0  0  0  0
  -23.7490  -27.1052    1.9254 O   0  0  0  0  0  0  0  0  0  0  0  0
  -24.3413  -26.4753    1.5643 H   0  0  0  0  0  0  0  0  0  0  0  0
 16 15  2  0  0  0
 17 15  1  0  0  0
 15  2  1  0  0  0
  1  6  1  0  0  0
  1  2  1  0  0  0
  2  3  1  0  0  0
  3  5  1  0  0  0
  3  4  1  0  0  0
  9  4  1  0  0  0
  4 10  1  0  0  0
  8  6  2  0  0  0
  6  9  1  0  0  0
  9  7  1  0  0  0
  1 11  1  0  0  0
  5 12  1  0  0  0
  7 13  1  0  0  0
 10 14  1  0  0  0
 17 18  1  0  0  0
M  END
> <minimizedAffinity>
-7.69681

$$$$
3K4D_EVA_A_604


 18 18  0  0  0  0  0  0  0  0999 V2000
  -22.7898  -29.3886   -1.9933 N   0  0  0  0  0  0  0  0  0  0  0  0
  -24.2300  -29.3576   -2.2223 C   0  0  0  0  0  0  0  0  0  0  0  0
  -24.7154  -27.9268   -2.1767 C   0  0  0  0  0  0  0  0  0  0  0  0
  -24.2394  -27.2658   -0.8832 C   0  0  0  0  0  0  0  0  0  0  0  0
  -26.1362  -27.9181   -2.1804 O   0  0  0  0  0  0  0  0  0  0  0  0
  -22.0836  -28.4413   -1.3428 C   0  0  0  0  0  0  0  0  0  0  0  0
  -22.3210  -26.8488    0.4542 O   0  0  0  0  0  0  0  0  0  0  0  0
  -20.9060  -28.6539   -1.1299 O   0  0  0  0  0  0  0  0  0  0  0  0
  -22.7317  -27.1412   -0.8741 C   0  0  0  0  0  0  0  0  0  0  0  0
  -24.7434  -25.9406   -0.8909 O   0  0  0  0  0  0  0  0  0  0  0  0
  -22.2929  -30.1638   -2.3417 H   0  0  0  0  0  0  0  0  0  0  0  0
  -26.4645  -28.4017   -1.4063 H   0  0  0  0  0  0  0  0  0  0  0  0
  -22.7359  -26.0221    0.7464 H   0  0  0  0  0  0  0  0  0  0  0  0
  -24.4108  -25.4727   -1.6727 H   0  0  0  0  0  0  0  0  0  0  0  0
  -24.5319  -30.0454   -3.5460 C   0  0  0  0  0  0  0  0  0  0  0  0
  -23.5962  -30.4107   -4.2116 O   0  0  0  0  0  0  0  0  0  0  0  0
  -25.6892  -30.1874   -3.9013 O   0  0  0  0  0  0  0  0  0  0  0  0
  -26.3877  -29.8887   -3.3528 H   0  0  0  0  0  0  0  0  0  0  0  0
 16 15  2  0  0  0
 17 15  1  0  0  0
 15  2  1  0  0  0
  1  6  1  0  0  0
  1  2  1  0  0  0
  2  3  1  0  0  0
  3  5  1  0  0  0
  3  4  1  0  0  0
  9  4  1  0  0  0
  4 10  1  0  0  0
  8  6  2  0  0  0
  6  9  1  0  0  0
  9  7  1  0  0  0
  1 11  1  0  0  0
  5 12  1  0  0  0
  7 13  1  0  0  0
 10 14  1  0  0  0
 17 18  1  0  0  0
M  END
> <minimizedAffinity>
-7.51770

$$$$
3K4D_EVA_A_604


 18 18  0  0  0  0  0  0  0  0999 V2000
  -25.4057  -29.2501   -0.4375 N   0  0  0  0  0  0  0  0  0  0  0  0
  -24.6944  -28.4354    0.5413 C   0  0  0  0  0  0  0  0  0  0  0  0
  -23.6553  -27.5948   -0.1647 C   0  0  0  0  0  0  0  0  0  0  0  0
  -22.7779  -28.4920   -1.0376 C   0  0  0  0  0  0  0  0  0  0  0  0
  -22.8239  -26.9728    0.8052 O   0  0  0  0  0  0  0  0  0  0  0  0
  -24.9245  -29.6173   -1.6429 C   0  0  0  0  0  0  0  0  0  0  0  0
  -22.8386  -30.1612   -2.7267 O   0  0  0  0  0  0  0  0  0  0  0  0
  -25.5850  -30.3904   -2.3087 O   0  0  0  0  0  0  0  0  0  0  0  0
  -23.5888  -29.0938   -2.1641 C   0  0  0  0  0  0  0  0  0  0  0  0
  -21.8153  -27.6514   -1.6515 O   0  0  0  0  0  0  0  0  0  0  0  0
  -26.3103  -29.5569   -0.1990 H   0  0  0  0  0  0  0  0  0  0  0  0
  -22.3876  -27.6534    1.3413 H   0  0  0  0  0  0  0  0  0  0  0  0
  -21.9914  -29.8225   -3.0560 H   0  0  0  0  0  0  0  0  0  0  0  0
  -22.2668  -26.9741   -2.1789 H   0  0  0  0  0  0  0  0  0  0  0  0
  -25.7061  -27.6026    1.3155 C   0  0  0  0  0  0  0  0  0  0  0  0
  -26.6206  -28.1835    1.8430 O   0  0  0  0  0  0  0  0  0  0  0  0
  -25.5790  -26.3913    1.3635 O   0  0  0  0  0  0  0  0  0  0  0  0
  -24.8523  -25.9793    0.9391 H   0  0  0  0  0  0  0  0  0  0  0  0
 16 15  2  0  0  0
 17 15  1  0  0  0
 15  2  1  0  0  0
  1  6  1  0  0  0
  1  2  1  0  0  0
  2  3  1  0  0  0
  3  5  1  0  0  0
  3  4  1  0  0  0
  9  4  1  0  0  0
  4 10  1  0  0  0
  8  6  2  0  0  0
  6  9  1  0  0  0
  9  7  1  0  0  0
  1 11  1  0  0  0
  5 12  1  0  0  0
  7 13  1  0  0  0
 10 14  1  0  0  0
 17 18  1  0  0  0
M  END
> <minimizedAffinity>
-7.28375

$$$$
3K4D_EVA_A_604


 18 18  0  0  0  0  0  0  0  0999 V2000
  -25.7795  -28.4872   -0.6069 N   0  0  0  0  0  0  0  0  0  0  0  0
  -25.1875  -28.9380    0.6477 C   0  0  0  0  0  0  0  0  0  0  0  0
  -24.1238  -27.9561    1.0828 C   0  0  0  0  0  0  0  0  0  0  0  0
  -23.1404  -27.7250   -0.0644 C   0  0  0  0  0  0  0  0  0  0  0  0
  -23.4042  -28.5059    2.1776 O   0  0  0  0  0  0  0  0  0  0  0  0
  -25.1819  -27.6758   -1.5034 C   0  0  0  0  0  0  0  0  0  0  0  0
  -22.9905  -27.1473   -2.3637 O   0  0  0  0  0  0  0  0  0  0  0  0
  -25.7520  -27.4732   -2.5575 O   0  0  0  0  0  0  0  0  0  0  0  0
  -23.8268  -27.0323   -1.2210 C   0  0  0  0  0  0  0  0  0  0  0  0
  -22.1609  -26.8176    0.4121 O   0  0  0  0  0  0  0  0  0  0  0  0
  -26.6890  -28.8006   -0.8163 H   0  0  0  0  0  0  0  0  0  0  0  0
  -22.9904  -29.3402    1.9062 H   0  0  0  0  0  0  0  0  0  0  0  0
  -22.1314  -26.7368   -2.1782 H   0  0  0  0  0  0  0  0  0  0  0  0
  -22.5905  -25.9915    0.6840 H   0  0  0  0  0  0  0  0  0  0  0  0
  -26.2936  -29.1110    1.6788 C   0  0  0  0  0  0  0  0  0  0  0  0
  -27.2861  -28.4397    1.5508 O   0  0  0  0  0  0  0  0  0  0  0  0
  -26.1412  -29.8936    2.6008 O   0  0  0  0  0  0  0  0  0  0  0  0
  -25.3531  -30.3967    2.6628 H   0  0  0  0  0  0  0  0  0  0  0  0
 16 15  2  0  0  0
 17 15  1  0  0  0
 15  2  1  0  0  0
  1  6  1  0  0  0
  1  2  1  0  0  0
  2  3  1  0  0  0
  3  5  1  0  0  0
  3  4  1  0  0  0
  9  4  1  0  0  0
  4 10  1  0  0  0
  8  6  2  0  0  0
  6  9  1  0  0  0
  9  7  1  0  0  0
  1 11  1  0  0  0
  5 12  1  0  0  0
  7 13  1  0  0  0
 10 14  1  0  0  0
 17 18  1  0  0  0
M  END
> <minimizedAffinity>
-7.22520

$$$$
3K4D_EVA_A_604


 18 18  0  0  0  0  0  0  0  0999 V2000
  -24.7312  -29.3618   -0.8817 N   0  0  0  0  0  0  0  0  0  0  0  0
  -23.6154  -28.4268   -0.9744 C   0  0  0  0  0  0  0  0  0  0  0  0
  -23.2520  -27.9395    0.4096 C   0  0  0  0  0  0  0  0  0  0  0  0
  -24.5022  -27.4064    1.1093 C   0  0  0  0  0  0  0  0  0  0  0  0
  -22.3203  -26.8728    0.2964 O   0  0  0  0  0  0  0  0  0  0  0  0
  -25.6303  -29.4052    0.1228 C   0  0  0  0  0  0  0  0  0  0  0  0
  -26.7418  -27.9451    1.6894 O   0  0  0  0  0  0  0  0  0  0  0  0
  -26.5725  -30.1649    0.0120 O   0  0  0  0  0  0  0  0  0  0  0  0
  -25.4873  -28.5263    1.3626 C   0  0  0  0  0  0  0  0  0  0  0  0
  -24.0923  -26.9467    2.3863 O   0  0  0  0  0  0  0  0  0  0  0  0
  -24.8366  -30.0142   -1.6115 H   0  0  0  0  0  0  0  0  0  0  0  0
  -22.7174  -26.1493   -0.2134 H   0  0  0  0  0  0  0  0  0  0  0  0
  -26.6447  -27.3880    2.4775 H   0  0  0  0  0  0  0  0  0  0  0  0
  -23.6932  -27.6795    2.8809 H   0  0  0  0  0  0  0  0  0  0  0  0
  -22.4577  -29.1124   -1.6858 C   0  0  0  0  0  0  0  0  0  0  0  0
  -22.7179  -30.0393   -2.4105 O   0  0  0  0  0  0  0  0  0  0  0  0
  -21.3178  -28.7269   -1.4916 O   0  0  0  0  0  0  0  0  0  0  0  0
  -21.1594  -28.0017   -0.9198 H   0  0  0  0  0  0  0  0  0  0  0  0
 16 15  2  0  0  0
 17 15  1  0  0  0
 15  2  1  0  0  0
  1  6  1  0  0  0
  1  2  1  0  0  0
  2  3  1  0  0  0
  3  5  1  0  0  0
  3  4  1  0  0  0
  9  4  1  0  0  0
  4 10  1  0  0  0
  8  6  2  0  0  0
  6  9  1  0  0  0
  9  7  1  0  0  0
  1 11  1  0  0  0
  5 12  1  0  0  0
  7 13  1  0  0  0
 10 14  1  0  0  0
 17 18  1  0  0  0
M  END
> <minimizedAffinity>
-7.10315

$$$$
3K4D_EVA_A_604


 18 18  0  0  0  0  0  0  0  0999 V2000
  -22.8694  -29.1691   -2.1600 N   0  0  0  0  0  0  0  0  0  0  0  0
  -23.2563  -27.8857   -1.5848 C   0  0  0  0  0  0  0  0  0  0  0  0
  -24.4376  -28.0839   -0.6628 C   0  0  0  0  0  0  0  0  0  0  0  0
  -25.5444  -28.8348   -1.4030 C   0  0  0  0  0  0  0  0  0  0  0  0
  -24.9457  -26.8136   -0.2794 O   0  0  0  0  0  0  0  0  0  0  0  0
  -23.6814  -30.2371   -2.2994 C   0  0  0  0  0  0  0  0  0  0  0  0
  -25.9997  -30.7723   -2.6997 O   0  0  0  0  0  0  0  0  0  0  0  0
  -23.2531  -31.2043   -2.8980 O   0  0  0  0  0  0  0  0  0  0  0  0
  -25.1002  -30.2420   -1.7364 C   0  0  0  0  0  0  0  0  0  0  0  0
  -26.6260  -28.9682   -0.4963 O   0  0  0  0  0  0  0  0  0  0  0  0
  -21.9404  -29.2635   -2.4717 H   0  0  0  0  0  0  0  0  0  0  0  0
  -25.2236  -26.3246   -1.0697 H   0  0  0  0  0  0  0  0  0  0  0  0
  -26.8991  -30.7728   -2.3364 H   0  0  0  0  0  0  0  0  0  0  0  0
  -26.3310  -29.4541    0.2897 H   0  0  0  0  0  0  0  0  0  0  0  0
  -22.0502  -27.2783   -0.8828 C   0  0  0  0  0  0  0  0  0  0  0  0
  -20.9795  -27.3763   -1.4270 O   0  0  0  0  0  0  0  0  0  0  0  0
  -22.1924  -26.7374    0.2002 O   0  0  0  0  0  0  0  0  0  0  0  0
  -23.0434  -26.6827    0.5884 H   0  0  0  0  0  0  0  0  0  0  0  0
 16 15  2  0  0  0
 17 15  1  0  0  0
 15  2  1  0  0  0
  1  6  1  0  0  0
  1  2  1  0  0  0
  2  3  1  0  0  0
  3  5  1  0  0  0
  3  4  1  0  0  0
  9  4  1  0  0  0
  4 10  1  0  0  0
  8  6  2  0  0  0
  6  9  1  0  0  0
  9  7  1  0  0  0
  1 11  1  0  0  0
  5 12  1  0  0  0
  7 13  1  0  0  0
 10 14  1  0  0  0
 17 18  1  0  0  0
M  END
> <minimizedAffinity>
-7.01267

$$$$
3K4D_EVA_A_604


 18 18  0  0  0  0  0  0  0  0999 V2000
  -25.2387  -26.9381   -0.3671 N   0  0  0  0  0  0  0  0  0  0  0  0
  -24.2297  -26.6223   -1.3720 C   0  0  0  0  0  0  0  0  0  0  0  0
  -23.0779  -27.5935   -1.2500 C   0  0  0  0  0  0  0  0  0  0  0  0
  -22.5822  -27.6208    0.1958 C   0  0  0  0  0  0  0  0  0  0  0  0
  -22.0088  -27.1521   -2.0753 O   0  0  0  0  0  0  0  0  0  0  0  0
  -25.0087  -27.5931    0.7893 C   0  0  0  0  0  0  0  0  0  0  0  0
  -23.2830  -27.8870    2.4498 O   0  0  0  0  0  0  0  0  0  0  0  0
  -25.9246  -27.6880    1.5825 O   0  0  0  0  0  0  0  0  0  0  0  0
  -23.6426  -28.1939    1.1100 C   0  0  0  0  0  0  0  0  0  0  0  0
  -21.4937  -28.5282    0.2386 O   0  0  0  0  0  0  0  0  0  0  0  0
  -26.1626  -26.6497   -0.5475 H   0  0  0  0  0  0  0  0  0  0  0  0
  -21.7255  -26.2686   -1.7923 H   0  0  0  0  0  0  0  0  0  0  0  0
  -22.4146  -28.2712    2.6476 H   0  0  0  0  0  0  0  0  0  0  0  0
  -21.7917  -29.4045   -0.0517 H   0  0  0  0  0  0  0  0  0  0  0  0
  -24.8819  -26.6440   -2.7470 C   0  0  0  0  0  0  0  0  0  0  0  0
  -24.5913  -27.5483   -3.4885 O   0  0  0  0  0  0  0  0  0  0  0  0
  -25.6502  -25.7524   -3.0638 O   0  0  0  0  0  0  0  0  0  0  0  0
  -25.8492  -25.0674   -2.4562 H   0  0  0  0  0  0  0  0  0  0  0  0
 16 15  2  0  0  0
 17 15  1  0  0  0
 15  2  1  0  0  0
  1  6  1  0  0  0
  1  2  1  0  0  0
  2  3  1  0  0  0
  3  5  1  0  0  0
  3  4  1  0  0  0
  9  4  1  0  0  0
  4 10  1  0  0  0
  8  6  2  0  0  0
  6  9  1  0  0  0
  9  7  1  0  0  0
  1 11  1  0  0  0
  5 12  1  0  0  0
  7 13  1  0  0  0
 10 14  1  0  0  0
 17 18  1  0  0  0
M  END
> <minimizedAffinity>
-7.00725

$$$$
3K4D_EVA_A_604


 18 18  0  0  0  0  0  0  0  0999 V2000
  -22.9953  -28.5054   -1.8624 N   0  0  0  0  0  0  0  0  0  0  0  0
  -24.3793  -28.2225   -1.4986 C   0  0  0  0  0  0  0  0  0  0  0  0
  -24.4057  -27.3212   -0.2855 C   0  0  0  0  0  0  0  0  0  0  0  0
  -23.5441  -27.9279    0.8219 C   0  0  0  0  0  0  0  0  0  0  0  0
  -25.7398  -27.2273    0.1942 O   0  0  0  0  0  0  0  0  0  0  0  0
  -21.9415  -28.4488   -1.0223 C   0  0  0  0  0  0  0  0  0  0  0  0
  -21.3908  -28.8102    1.2988 O   0  0  0  0  0  0  0  0  0  0  0  0
  -20.8610  -28.8187   -1.4378 O   0  0  0  0  0  0  0  0  0  0  0  0
  -22.0881  -27.9468    0.4117 C   0  0  0  0  0  0  0  0  0  0  0  0
  -23.6283  -27.0515    1.9331 O   0  0  0  0  0  0  0  0  0  0  0  0
  -22.8158  -28.7582   -2.7968 H   0  0  0  0  0  0  0  0  0  0  0  0
  -26.0602  -28.1109    0.4338 H   0  0  0  0  0  0  0  0  0  0  0  0
  -21.4875  -28.4863    2.2079 H   0  0  0  0  0  0  0  0  0  0  0  0
  -23.3097  -26.1721    1.6762 H   0  0  0  0  0  0  0  0  0  0  0  0
  -25.0902  -27.6198   -2.7019 C   0  0  0  0  0  0  0  0  0  0  0  0
  -24.7629  -28.0066   -3.7953 O   0  0  0  0  0  0  0  0  0  0  0  0
  -25.9409  -26.7634   -2.5328 O   0  0  0  0  0  0  0  0  0  0  0  0
  -26.1656  -26.4913   -1.6648 H   0  0  0  0  0  0  0  0  0  0  0  0
 16 15  2  0  0  0
 17 15  1  0  0  0
 15  2  1  0  0  0
  1  6  1  0  0  0
  1  2  1  0  0  0
  2  3  1  0  0  0
  3  5  1  0  0  0
  3  4  1  0  0  0
  9  4  1  0  0  0
  4 10  1  0  0  0
  8  6  2  0  0  0
  6  9  1  0  0  0
  9  7  1  0  0  0
  1 11  1  0  0  0
  5 12  1  0  0  0
  7 13  1  0  0  0
 10 14  1  0  0  0
 17 18  1  0  0  0
M  END
> <minimizedAffinity>
-6.98849

$$$$
3K4D_EVA_A_604


 18 18  0  0  0  0  0  0  0  0999 V2000
  -22.4602  -28.6011    0.3596 N   0  0  0  0  0  0  0  0  0  0  0  0
  -23.4675  -27.9043    1.1518 C   0  0  0  0  0  0  0  0  0  0  0  0
  -24.6013  -27.4685    0.2521 C   0  0  0  0  0  0  0  0  0  0  0  0
  -24.0405  -26.6868   -0.9359 C   0  0  0  0  0  0  0  0  0  0  0  0
  -25.4661  -26.6070    0.9792 O   0  0  0  0  0  0  0  0  0  0  0  0
  -22.2679  -28.4469   -0.9665 C   0  0  0  0  0  0  0  0  0  0  0  0
  -22.4387  -26.7652   -2.6882 O   0  0  0  0  0  0  0  0  0  0  0  0
  -21.3179  -29.0100   -1.4739 O   0  0  0  0  0  0  0  0  0  0  0  0
  -23.2009  -27.5870   -1.8152 C   0  0  0  0  0  0  0  0  0  0  0  0
  -25.1493  -26.2894   -1.7249 O   0  0  0  0  0  0  0  0  0  0  0  0
  -21.8732  -29.2355    0.8310 H   0  0  0  0  0  0  0  0  0  0  0  0
  -24.9695  -25.8307    1.2820 H   0  0  0  0  0  0  0  0  0  0  0  0
  -23.0366  -26.2215   -3.2246 H   0  0  0  0  0  0  0  0  0  0  0  0
  -25.6379  -27.0755   -2.0152 H   0  0  0  0  0  0  0  0  0  0  0  0
  -23.9228  -28.8177    2.2810 C   0  0  0  0  0  0  0  0  0  0  0  0
  -25.0916  -29.1070    2.3283 O   0  0  0  0  0  0  0  0  0  0  0  0
  -23.1129  -29.2084    3.1039 O   0  0  0  0  0  0  0  0  0  0  0  0
  -22.2126  -28.9596    3.0299 H   0  0  0  0  0  0  0  0  0  0  0  0
 16 15  2  0  0  0
 17 15  1  0  0  0
 15  2  1  0  0  0
  1  6  1  0  0  0
  1  2  1  0  0  0
  2  3  1  0  0  0
  3  5  1  0  0  0
  3  4  1  0  0  0
  9  4  1  0  0  0
  4 10  1  0  0  0
  8  6  2  0  0  0
  6  9  1  0  0  0
  9  7  1  0  0  0
  1 11  1  0  0  0
  5 12  1  0  0  0
  7 13  1  0  0  0
 10 14  1  0  0  0
 17 18  1  0  0  0
M  END
> <minimizedAffinity>
-6.85547

$$$$
3K4D_EVA_A_604


 18 18  0  0  0  0  0  0  0  0999 V2000
  -23.4919  -27.6748    0.6485 N   0  0  0  0  0  0  0  0  0  0  0  0
  -22.7604  -28.6068   -0.2024 C   0  0  0  0  0  0  0  0  0  0  0  0
  -23.6089  -28.9648   -1.4011 C   0  0  0  0  0  0  0  0  0  0  0  0
  -24.9834  -29.4410   -0.9314 C   0  0  0  0  0  0  0  0  0  0  0  0
  -22.9893  -30.0311   -2.1067 O   0  0  0  0  0  0  0  0  0  0  0  0
  -24.8339  -27.5470    0.6907 C   0  0  0  0  0  0  0  0  0  0  0  0
  -26.8376  -28.8672    0.4381 O   0  0  0  0  0  0  0  0  0  0  0  0
  -25.3098  -26.8068    1.5290 O   0  0  0  0  0  0  0  0  0  0  0  0
  -25.7406  -28.3094   -0.2719 C   0  0  0  0  0  0  0  0  0  0  0  0
  -25.7188  -29.7807   -2.0949 O   0  0  0  0  0  0  0  0  0  0  0  0
  -22.9631  -27.0917    1.2398 H   0  0  0  0  0  0  0  0  0  0  0  0
  -22.9052  -30.8002   -1.5217 H   0  0  0  0  0  0  0  0  0  0  0  0
  -27.4098  -29.3502   -0.1785 H   0  0  0  0  0  0  0  0  0  0  0  0
  -25.7895  -29.0037   -2.6711 H   0  0  0  0  0  0  0  0  0  0  0  0
  -21.4268  -27.9805   -0.5844 C   0  0  0  0  0  0  0  0  0  0  0  0
  -21.3125  -26.7879   -0.4545 O   0  0  0  0  0  0  0  0  0  0  0  0
  -20.5337  -28.6847   -1.0227 O   0  0  0  0  0  0  0  0  0  0  0  0
  -20.6645  -29.6087   -1.1075 H   0  0  0  0  0  0  0  0  0  0  0  0
 16 15  2  0  0  0
 17 15  1  0  0  0
 15  2  1  0  0  0
  1  6  1  0  0  0
  1  2  1  0  0  0
  2  3  1  0  0  0
  3  5  1  0  0  0
  3  4  1  0  0  0
  9  4  1  0  0  0
  4 10  1  0  0  0
  8  6  2  0  0  0
  6  9  1  0  0  0
  9  7  1  0  0  0
  1 11  1  0  0  0
  5 12  1  0  0  0
  7 13  1  0  0  0
 10 14  1  0  0  0
 17 18  1  0  0  0
M  END
> <minimizedAffinity>
-6.84082

$$$$
