4Q1Y_017_A_106


 42 45  0  0  0  0  0  0  0  0999 V2000
   19.9456   29.7750   15.3988 C   0  0  0  0  0  0  0  0  0  0  0  0
   20.1239   28.6580   16.3076 O   0  0  0  0  0  0  0  0  0  0  0  0
   19.2993   28.1499   16.3611 H   0  0  0  0  0  0  0  0  0  0  0  0
   18.8604   30.7203   15.9312 C   0  0  0  0  0  0  0  0  0  0  0  0
   19.1289   32.0983   15.4376 N   0  0  0  0  0  0  0  0  0  0  0  0
   17.9255   32.7318   14.5381 S   0  0  0  0  0  0  0  0  0  0  0  0
   17.3149   31.6828   13.8034 O   0  0  0  0  0  0  0  0  0  0  0  0
   18.5998   33.7573   13.7921 O   0  0  0  0  0  0  0  0  0  0  0  0
   13.8530   35.2660   17.8075 N   0  0  0  0  0  0  0  0  0  0  0  0
   14.7910   34.6367   17.0437 C   0  0  0  0  0  0  0  0  0  0  0  0
   15.8717   35.3772   16.5941 C   0  0  0  0  0  0  0  0  0  0  0  0
   16.8396   34.7427   15.8108 C   0  0  0  0  0  0  0  0  0  0  0  0
   16.7594   33.3835   15.4806 C   0  0  0  0  0  0  0  0  0  0  0  0
   15.6734   32.6435   15.9509 C   0  0  0  0  0  0  0  0  0  0  0  0
   14.6849   33.2785   16.7504 C   0  0  0  0  0  0  0  0  0  0  0  0
   13.9428   36.2262   18.0054 H   0  0  0  0  0  0  0  0  0  0  0  0
   13.0860   34.7601   18.1610 H   0  0  0  0  0  0  0  0  0  0  0  0
   19.7562   32.9999   16.4427 C   0  0  0  0  0  0  0  0  0  0  0  0
   21.1726   33.4048   16.0386 C   0  0  0  0  0  0  0  0  0  0  0  0
   22.1494   32.6156   16.9111 C   0  0  0  0  0  0  0  0  0  0  0  0
   21.3833   34.9057   16.2154 C   0  0  0  0  0  0  0  0  0  0  0  0
   19.6054   29.2137   14.0204 C   0  0  0  0  0  0  0  0  0  0  0  0
   20.7176   28.3733   13.6054 N   0  0  0  0  0  0  0  0  0  0  0  0
   21.7913   28.7909   12.9692 C   0  0  0  0  0  0  0  0  0  0  0  0
   22.0752   29.8995   12.5992 O   0  0  0  0  0  0  0  0  0  0  0  0
   20.6628   27.4136   13.8178 H   0  0  0  0  0  0  0  0  0  0  0  0
   22.7038   27.7314   12.7537 O   0  0  0  0  0  0  0  0  0  0  0  0
   23.5540   27.8609   11.6114 C   0  0  0  0  0  0  0  0  0  0  0  0
   24.8640   27.2243   12.0136 C   0  0  0  0  0  0  0  0  0  0  0  0
   24.5941   25.8346   11.9307 O   0  0  0  0  0  0  0  0  0  0  0  0
   23.7114   25.6056   10.8439 C   0  0  0  0  0  0  0  0  0  0  0  0
   22.6793   24.7386   11.2624 O   0  0  0  0  0  0  0  0  0  0  0  0
   21.4165   25.4205   11.3239 C   0  0  0  0  0  0  0  0  0  0  0  0
   21.5692   26.6554   10.4403 C   0  0  0  0  0  0  0  0  0  0  0  0
   23.0624   26.9438   10.5117 C   0  0  0  0  0  0  0  0  0  0  0  0
   18.3293   28.3879   13.9254 C   0  0  0  0  0  0  0  0  0  0  0  0
   18.0205   28.7580   11.4266 C   0  0  0  0  0  0  0  0  0  0  0  0
   17.8112   28.2840   10.1376 C   0  0  0  0  0  0  0  0  0  0  0  0
   17.6355   26.9302    9.9138 C   0  0  0  0  0  0  0  0  0  0  0  0
   17.6925   26.0607   10.9923 C   0  0  0  0  0  0  0  0  0  0  0  0
   17.8891   26.5459   12.2886 C   0  0  0  0  0  0  0  0  0  0  0  0
   18.0851   27.8900   12.5033 C   0  0  0  0  0  0  0  0  0  0  0  0
  9 10  1  0  0  0
 10 11  2  0  0  0
 10 15  1  0  0  0
 11 12  1  0  0  0
 12 13  2  0  0  0
 13 14  1  0  0  0
 13  6  1  0  0  0
 14 15  2  0  0  0
  6  7  2  0  0  0
  6  8  2  0  0  0
  6  5  1  0  0  0
  5 18  1  0  0  0
  5  4  1  0  0  0
 18 19  1  0  0  0
 19 20  1  0  0  0
 19 21  1  0  0  0
  4  1  1  0  0  0
  1  2  1  0  0  0
  1 22  1  0  0  0
 22 23  1  0  0  0
 22 36  1  0  0  0
 23 24  1  0  0  0
 24 25  2  0  0  0
 24 27  1  0  0  0
 27 28  1  0  0  0
 28 29  1  0  0  0
 28 35  1  0  0  0
 29 30  1  0  0  0
 30 31  1  0  0  0
 31 32  1  0  0  0
 31 35  1  0  0  0
 32 33  1  0  0  0
 33 34  1  0  0  0
 34 35  1  0  0  0
 36 42  1  0  0  0
 37 38  2  0  0  0
 37 42  1  0  0  0
 38 39  1  0  0  0
 39 40  2  0  0  0
 40 41  1  0  0  0
 41 42  2  0  0  0
  9 16  1  0  0  0
  9 17  1  0  0  0
  2  3  1  0  0  0
 23 26  1  0  0  0
M  END
> <minimizedAffinity>
-10.02818

$$$$
4Q1Y_017_A_106


 42 45  0  0  0  0  0  0  0  0999 V2000
   19.7325   30.8538   15.9828 C   0  0  0  0  0  0  0  0  0  0  0  0
   19.8765   29.9152   17.0800 O   0  0  0  0  0  0  0  0  0  0  0  0
   19.3301   30.2051   17.8273 H   0  0  0  0  0  0  0  0  0  0  0  0
   20.2355   32.2406   16.4054 C   0  0  0  0  0  0  0  0  0  0  0  0
   21.6115   32.4424   15.8761 N   0  0  0  0  0  0  0  0  0  0  0  0
   21.6867   32.6032   14.2552 S   0  0  0  0  0  0  0  0  0  0  0  0
   22.9034   33.2542   13.9252 O   0  0  0  0  0  0  0  0  0  0  0  0
   20.4636   33.2927   13.9528 O   0  0  0  0  0  0  0  0  0  0  0  0
   21.8519   27.3269   11.8407 N   0  0  0  0  0  0  0  0  0  0  0  0
   21.7948   28.5796   12.3762 C   0  0  0  0  0  0  0  0  0  0  0  0
   22.3996   28.7939   13.6036 C   0  0  0  0  0  0  0  0  0  0  0  0
   22.3479   30.0740   14.1620 C   0  0  0  0  0  0  0  0  0  0  0  0
   21.7197   31.1461   13.5148 C   0  0  0  0  0  0  0  0  0  0  0  0
   21.1257   30.9221   12.2717 C   0  0  0  0  0  0  0  0  0  0  0  0
   21.1750   29.6247   11.6937 C   0  0  0  0  0  0  0  0  0  0  0  0
   22.2935   26.5996   12.3359 H   0  0  0  0  0  0  0  0  0  0  0  0
   21.4514   27.1498   10.9590 H   0  0  0  0  0  0  0  0  0  0  0  0
   22.4480   33.3767   16.6787 C   0  0  0  0  0  0  0  0  0  0  0  0
   21.6038   34.4469   17.3684 C   0  0  0  0  0  0  0  0  0  0  0  0
   21.6191   35.6940   16.4837 C   0  0  0  0  0  0  0  0  0  0  0  0
   22.1516   34.7640   18.7568 C   0  0  0  0  0  0  0  0  0  0  0  0
   18.2649   30.8685   15.5624 C   0  0  0  0  0  0  0  0  0  0  0  0
   17.6007   31.9070   16.3344 N   0  0  0  0  0  0  0  0  0  0  0  0
   16.3785   32.3476   16.1245 C   0  0  0  0  0  0  0  0  0  0  0  0
   15.5820   32.0157   15.2868 O   0  0  0  0  0  0  0  0  0  0  0  0
   18.1069   32.3136   17.0744 H   0  0  0  0  0  0  0  0  0  0  0  0
   16.0159   33.3270   17.0789 O   0  0  0  0  0  0  0  0  0  0  0  0
   15.4222   34.5186   16.5575 C   0  0  0  0  0  0  0  0  0  0  0  0
   14.2816   34.8404   17.4948 C   0  0  0  0  0  0  0  0  0  0  0  0
   14.9317   35.3954   18.6264 O   0  0  0  0  0  0  0  0  0  0  0  0
   16.0511   36.1475   18.1860 C   0  0  0  0  0  0  0  0  0  0  0  0
   17.1688   35.8218   18.9838 O   0  0  0  0  0  0  0  0  0  0  0  0
   18.1554   35.0981   18.2312 C   0  0  0  0  0  0  0  0  0  0  0  0
   17.8605   35.3996   16.7644 C   0  0  0  0  0  0  0  0  0  0  0  0
   16.3650   35.6844   16.7684 C   0  0  0  0  0  0  0  0  0  0  0  0
   17.9892   31.1282   14.0873 C   0  0  0  0  0  0  0  0  0  0  0  0
   18.2509   28.6127   13.8044 C   0  0  0  0  0  0  0  0  0  0  0  0
   18.0611   27.4369   13.0891 C   0  0  0  0  0  0  0  0  0  0  0  0
   17.4431   27.4671   11.8519 C   0  0  0  0  0  0  0  0  0  0  0  0
   17.0023   28.6835   11.3535 C   0  0  0  0  0  0  0  0  0  0  0  0
   17.2094   29.8647   12.0720 C   0  0  0  0  0  0  0  0  0  0  0  0
   17.8045   29.8269   13.3111 C   0  0  0  0  0  0  0  0  0  0  0  0
  9 10  1  0  0  0
 10 11  2  0  0  0
 10 15  1  0  0  0
 11 12  1  0  0  0
 12 13  2  0  0  0
 13 14  1  0  0  0
 13  6  1  0  0  0
 14 15  2  0  0  0
  6  7  2  0  0  0
  6  8  2  0  0  0
  6  5  1  0  0  0
  5 18  1  0  0  0
  5  4  1  0  0  0
 18 19  1  0  0  0
 19 20  1  0  0  0
 19 21  1  0  0  0
  4  1  1  0  0  0
  1  2  1  0  0  0
  1 22  1  0  0  0
 22 23  1  0  0  0
 22 36  1  0  0  0
 23 24  1  0  0  0
 24 25  2  0  0  0
 24 27  1  0  0  0
 27 28  1  0  0  0
 28 29  1  0  0  0
 28 35  1  0  0  0
 29 30  1  0  0  0
 30 31  1  0  0  0
 31 32  1  0  0  0
 31 35  1  0  0  0
 32 33  1  0  0  0
 33 34  1  0  0  0
 34 35  1  0  0  0
 36 42  1  0  0  0
 37 38  2  0  0  0
 37 42  1  0  0  0
 38 39  1  0  0  0
 39 40  2  0  0  0
 40 41  1  0  0  0
 41 42  2  0  0  0
  9 16  1  0  0  0
  9 17  1  0  0  0
  2  3  1  0  0  0
 23 26  1  0  0  0
M  END
> <minimizedAffinity>
-9.39886

$$$$
4Q1Y_017_A_106


 42 45  0  0  0  0  0  0  0  0999 V2000
   20.1799   31.3431   12.7606 C   0  0  0  0  0  0  0  0  0  0  0  0
   20.6874   32.1668   11.6791 O   0  0  0  0  0  0  0  0  0  0  0  0
   21.0149   33.0062   12.0383 H   0  0  0  0  0  0  0  0  0  0  0  0
   18.9961   32.0404   13.4440 C   0  0  0  0  0  0  0  0  0  0  0  0
   18.1497   31.0177   14.1164 N   0  0  0  0  0  0  0  0  0  0  0  0
   17.8311   31.3393   15.6828 S   0  0  0  0  0  0  0  0  0  0  0  0
   18.9411   30.9210   16.4612 O   0  0  0  0  0  0  0  0  0  0  0  0
   16.5821   30.6620   15.8929 O   0  0  0  0  0  0  0  0  0  0  0  0
   16.9988   37.0265   16.4947 N   0  0  0  0  0  0  0  0  0  0  0  0
   17.2249   35.6923   16.3281 C   0  0  0  0  0  0  0  0  0  0  0  0
   16.4200   34.9990   15.4394 C   0  0  0  0  0  0  0  0  0  0  0  0
   16.6428   33.6310   15.2600 C   0  0  0  0  0  0  0  0  0  0  0  0
   17.6602   32.9453   15.9364 C   0  0  0  0  0  0  0  0  0  0  0  0
   18.4745   33.6568   16.8190 C   0  0  0  0  0  0  0  0  0  0  0  0
   18.2582   35.0488   17.0066 C   0  0  0  0  0  0  0  0  0  0  0  0
   16.2646   37.4660   16.0078 H   0  0  0  0  0  0  0  0  0  0  0  0
   17.5698   37.5505   17.1019 H   0  0  0  0  0  0  0  0  0  0  0  0
   17.0127   30.5225   13.2924 C   0  0  0  0  0  0  0  0  0  0  0  0
   17.4748   29.5434   12.2147 C   0  0  0  0  0  0  0  0  0  0  0  0
   16.2813   29.2575   11.3026 C   0  0  0  0  0  0  0  0  0  0  0  0
   17.9989   28.2528   12.8375 C   0  0  0  0  0  0  0  0  0  0  0  0
   21.3307   31.0674   13.7252 C   0  0  0  0  0  0  0  0  0  0  0  0
   21.9647   29.8279   13.3044 N   0  0  0  0  0  0  0  0  0  0  0  0
   21.7546   28.6449   13.8413 C   0  0  0  0  0  0  0  0  0  0  0  0
   21.0373   28.3400   14.7572 O   0  0  0  0  0  0  0  0  0  0  0  0
   22.6034   29.8780   12.5568 H   0  0  0  0  0  0  0  0  0  0  0  0
   22.4910   27.6399   13.1710 O   0  0  0  0  0  0  0  0  0  0  0  0
   23.2480   28.0705   12.0370 C   0  0  0  0  0  0  0  0  0  0  0  0
   24.6510   27.5632   12.2766 C   0  0  0  0  0  0  0  0  0  0  0  0
   24.5590   26.1821   11.9683 O   0  0  0  0  0  0  0  0  0  0  0  0
   23.6506   26.0147   10.8915 C   0  0  0  0  0  0  0  0  0  0  0  0
   22.7661   24.9572   11.1939 O   0  0  0  0  0  0  0  0  0  0  0  0
   21.4315   25.4393   11.4170 C   0  0  0  0  0  0  0  0  0  0  0  0
   21.3702   26.8113   10.7514 C   0  0  0  0  0  0  0  0  0  0  0  0
   22.8150   27.2869   10.8161 C   0  0  0  0  0  0  0  0  0  0  0  0
   22.4071   32.1412   13.8143 C   0  0  0  0  0  0  0  0  0  0  0  0
   22.6968   32.3254   16.3359 C   0  0  0  0  0  0  0  0  0  0  0  0
   22.6346   33.0426   17.5241 C   0  0  0  0  0  0  0  0  0  0  0  0
   22.1777   34.3483   17.5257 C   0  0  0  0  0  0  0  0  0  0  0  0
   21.8051   34.9285   16.3228 C   0  0  0  0  0  0  0  0  0  0  0  0
   21.8566   34.1964   15.1329 C   0  0  0  0  0  0  0  0  0  0  0  0
   22.3321   32.9060   15.1331 C   0  0  0  0  0  0  0  0  0  0  0  0
  9 10  1  0  0  0
 10 11  2  0  0  0
 10 15  1  0  0  0
 11 12  1  0  0  0
 12 13  2  0  0  0
 13 14  1  0  0  0
 13  6  1  0  0  0
 14 15  2  0  0  0
  6  7  2  0  0  0
  6  8  2  0  0  0
  6  5  1  0  0  0
  5 18  1  0  0  0
  5  4  1  0  0  0
 18 19  1  0  0  0
 19 20  1  0  0  0
 19 21  1  0  0  0
  4  1  1  0  0  0
  1  2  1  0  0  0
  1 22  1  0  0  0
 22 23  1  0  0  0
 22 36  1  0  0  0
 23 24  1  0  0  0
 24 25  2  0  0  0
 24 27  1  0  0  0
 27 28  1  0  0  0
 28 29  1  0  0  0
 28 35  1  0  0  0
 29 30  1  0  0  0
 30 31  1  0  0  0
 31 32  1  0  0  0
 31 35  1  0  0  0
 32 33  1  0  0  0
 33 34  1  0  0  0
 34 35  1  0  0  0
 36 42  1  0  0  0
 37 38  2  0  0  0
 37 42  1  0  0  0
 38 39  1  0  0  0
 39 40  2  0  0  0
 40 41  1  0  0  0
 41 42  2  0  0  0
  9 16  1  0  0  0
  9 17  1  0  0  0
  2  3  1  0  0  0
 23 26  1  0  0  0
M  END
> <minimizedAffinity>
-9.14458

$$$$
4Q1Y_017_A_106


 42 45  0  0  0  0  0  0  0  0999 V2000
   20.8980   30.7009   15.0588 C   0  0  0  0  0  0  0  0  0  0  0  0
   20.4092   30.3590   16.3816 O   0  0  0  0  0  0  0  0  0  0  0  0
   19.4508   30.5035   16.4194 H   0  0  0  0  0  0  0  0  0  0  0  0
   20.6486   32.1876   14.7722 C   0  0  0  0  0  0  0  0  0  0  0  0
   20.4045   32.8977   16.0570 N   0  0  0  0  0  0  0  0  0  0  0  0
   21.7098   33.6750   16.6490 S   0  0  0  0  0  0  0  0  0  0  0  0
   22.4823   34.1496   15.5576 O   0  0  0  0  0  0  0  0  0  0  0  0
   22.3052   32.6825   17.4995 O   0  0  0  0  0  0  0  0  0  0  0  0
   20.2335   38.2200   19.9443 N   0  0  0  0  0  0  0  0  0  0  0  0
   20.5796   37.1756   19.1390 C   0  0  0  0  0  0  0  0  0  0  0  0
   20.7039   35.9212   19.7127 C   0  0  0  0  0  0  0  0  0  0  0  0
   21.0578   34.8430   18.8969 C   0  0  0  0  0  0  0  0  0  0  0  0
   21.2747   34.9880   17.5204 C   0  0  0  0  0  0  0  0  0  0  0  0
   21.1328   36.2541   16.9502 C   0  0  0  0  0  0  0  0  0  0  0  0
   20.7706   37.3567   17.7705 C   0  0  0  0  0  0  0  0  0  0  0  0
   20.1024   38.0752   20.9092 H   0  0  0  0  0  0  0  0  0  0  0  0
   20.1148   39.1190   19.5609 H   0  0  0  0  0  0  0  0  0  0  0  0
   19.1083   33.6277   16.1192 C   0  0  0  0  0  0  0  0  0  0  0  0
   18.0974   33.0794   15.1136 C   0  0  0  0  0  0  0  0  0  0  0  0
   17.3260   34.2659   14.5347 C   0  0  0  0  0  0  0  0  0  0  0  0
   17.1454   32.0905   15.7799 C   0  0  0  0  0  0  0  0  0  0  0  0
   20.2072   29.7880   14.0487 C   0  0  0  0  0  0  0  0  0  0  0  0
   21.1768   28.7876   13.6309 N   0  0  0  0  0  0  0  0  0  0  0  0
   21.9991   28.9041   12.6100 C   0  0  0  0  0  0  0  0  0  0  0  0
   22.1210   29.8105   11.8291 O   0  0  0  0  0  0  0  0  0  0  0  0
   21.2217   27.9552   14.1547 H   0  0  0  0  0  0  0  0  0  0  0  0
   22.8448   27.7751   12.5018 O   0  0  0  0  0  0  0  0  0  0  0  0
   23.8000   27.8088   11.4385 C   0  0  0  0  0  0  0  0  0  0  0  0
   25.0464   27.1649   11.9998 C   0  0  0  0  0  0  0  0  0  0  0  0
   24.7405   25.7803   11.9770 O   0  0  0  0  0  0  0  0  0  0  0  0
   23.9545   25.5057   10.8284 C   0  0  0  0  0  0  0  0  0  0  0  0
   22.8609   24.6948   11.2005 O   0  0  0  0  0  0  0  0  0  0  0  0
   21.6204   25.4123   11.1017 C   0  0  0  0  0  0  0  0  0  0  0  0
   21.8933   26.5838   10.1624 C   0  0  0  0  0  0  0  0  0  0  0  0
   23.3822   26.8366   10.3557 C   0  0  0  0  0  0  0  0  0  0  0  0
   18.9615   29.0617   14.5388 C   0  0  0  0  0  0  0  0  0  0  0  0
   17.6526   27.3919   13.1336 C   0  0  0  0  0  0  0  0  0  0  0  0
   16.7924   27.0844   12.0868 C   0  0  0  0  0  0  0  0  0  0  0  0
   16.3190   28.0857   11.2580 C   0  0  0  0  0  0  0  0  0  0  0  0
   16.7020   29.3953   11.5044 C   0  0  0  0  0  0  0  0  0  0  0  0
   17.5793   29.6959   12.5506 C   0  0  0  0  0  0  0  0  0  0  0  0
   18.0298   28.7000   13.3851 C   0  0  0  0  0  0  0  0  0  0  0  0
  9 10  1  0  0  0
 10 11  2  0  0  0
 10 15  1  0  0  0
 11 12  1  0  0  0
 12 13  2  0  0  0
 13 14  1  0  0  0
 13  6  1  0  0  0
 14 15  2  0  0  0
  6  7  2  0  0  0
  6  8  2  0  0  0
  6  5  1  0  0  0
  5 18  1  0  0  0
  5  4  1  0  0  0
 18 19  1  0  0  0
 19 20  1  0  0  0
 19 21  1  0  0  0
  4  1  1  0  0  0
  1  2  1  0  0  0
  1 22  1  0  0  0
 22 23  1  0  0  0
 22 36  1  0  0  0
 23 24  1  0  0  0
 24 25  2  0  0  0
 24 27  1  0  0  0
 27 28  1  0  0  0
 28 29  1  0  0  0
 28 35  1  0  0  0
 29 30  1  0  0  0
 30 31  1  0  0  0
 31 32  1  0  0  0
 31 35  1  0  0  0
 32 33  1  0  0  0
 33 34  1  0  0  0
 34 35  1  0  0  0
 36 42  1  0  0  0
 37 38  2  0  0  0
 37 42  1  0  0  0
 38 39  1  0  0  0
 39 40  2  0  0  0
 40 41  1  0  0  0
 41 42  2  0  0  0
  9 16  1  0  0  0
  9 17  1  0  0  0
  2  3  1  0  0  0
 23 26  1  0  0  0
M  END
> <minimizedAffinity>
-9.08736

$$$$
4Q1Y_017_A_106


 42 45  0  0  0  0  0  0  0  0999 V2000
   18.1215   30.3786   14.5618 C   0  0  0  0  0  0  0  0  0  0  0  0
   18.5201   29.0678   15.0399 O   0  0  0  0  0  0  0  0  0  0  0  0
   19.3899   28.8413   14.6751 H   0  0  0  0  0  0  0  0  0  0  0  0
   17.9858   30.3638   13.0334 C   0  0  0  0  0  0  0  0  0  0  0  0
   18.7517   29.2109   12.4869 N   0  0  0  0  0  0  0  0  0  0  0  0
   17.8200   28.0008   11.9156 S   0  0  0  0  0  0  0  0  0  0  0  0
   16.6044   28.5570   11.4404 O   0  0  0  0  0  0  0  0  0  0  0  0
   17.7454   27.1076   13.0379 O   0  0  0  0  0  0  0  0  0  0  0  0
   20.2546   25.5533    7.2489 N   0  0  0  0  0  0  0  0  0  0  0  0
   19.7036   26.1044    8.3677 C   0  0  0  0  0  0  0  0  0  0  0  0
   18.7276   27.0737    8.2062 C   0  0  0  0  0  0  0  0  0  0  0  0
   18.1554   27.6453    9.3458 C   0  0  0  0  0  0  0  0  0  0  0  0
   18.5254   27.2593   10.6408 C   0  0  0  0  0  0  0  0  0  0  0  0
   19.4999   26.2714   10.7919 C   0  0  0  0  0  0  0  0  0  0  0  0
   20.0862   25.6817    9.6394 C   0  0  0  0  0  0  0  0  0  0  0  0
   19.9733   25.8632    6.3578 H   0  0  0  0  0  0  0  0  0  0  0  0
   20.9338   24.8454    7.3321 H   0  0  0  0  0  0  0  0  0  0  0  0
   19.9306   29.5919   11.6613 C   0  0  0  0  0  0  0  0  0  0  0  0
   21.2434   29.3884   12.4155 C   0  0  0  0  0  0  0  0  0  0  0  0
   22.3292   29.0774   11.3847 C   0  0  0  0  0  0  0  0  0  0  0  0
   21.1211   28.2542   13.4288 C   0  0  0  0  0  0  0  0  0  0  0  0
   19.1545   31.3930   15.0462 C   0  0  0  0  0  0  0  0  0  0  0  0
   18.4546   32.3712   15.8640 N   0  0  0  0  0  0  0  0  0  0  0  0
   18.0067   33.5348   15.4428 C   0  0  0  0  0  0  0  0  0  0  0  0
   18.0796   34.0289   14.3487 O   0  0  0  0  0  0  0  0  0  0  0  0
   18.3036   32.1443   16.8100 H   0  0  0  0  0  0  0  0  0  0  0  0
   17.3317   34.2281   16.4749 O   0  0  0  0  0  0  0  0  0  0  0  0
   15.9703   34.5747   16.2089 C   0  0  0  0  0  0  0  0  0  0  0  0
   15.1459   33.6551   17.0794 C   0  0  0  0  0  0  0  0  0  0  0  0
   15.2699   34.2259   18.3716 O   0  0  0  0  0  0  0  0  0  0  0  0
   15.3156   35.6381   18.2438 C   0  0  0  0  0  0  0  0  0  0  0  0
   16.3655   36.1401   19.0424 O   0  0  0  0  0  0  0  0  0  0  0  0
   17.4320   36.6639   18.2352 C   0  0  0  0  0  0  0  0  0  0  0  0
   16.8165   36.9443   16.8671 C   0  0  0  0  0  0  0  0  0  0  0  0
   15.6750   35.9396   16.7939 C   0  0  0  0  0  0  0  0  0  0  0  0
   20.3128   30.8370   15.8639 C   0  0  0  0  0  0  0  0  0  0  0  0
   22.3177   31.8465   14.6648 C   0  0  0  0  0  0  0  0  0  0  0  0
   23.4181   32.6935   14.6239 C   0  0  0  0  0  0  0  0  0  0  0  0
   23.7658   33.4370   15.7375 C   0  0  0  0  0  0  0  0  0  0  0  0
   22.9869   33.3353   16.8800 C   0  0  0  0  0  0  0  0  0  0  0  0
   21.8894   32.4701   16.9190 C   0  0  0  0  0  0  0  0  0  0  0  0
   21.5348   31.7497   15.8026 C   0  0  0  0  0  0  0  0  0  0  0  0
  9 10  1  0  0  0
 10 11  2  0  0  0
 10 15  1  0  0  0
 11 12  1  0  0  0
 12 13  2  0  0  0
 13 14  1  0  0  0
 13  6  1  0  0  0
 14 15  2  0  0  0
  6  7  2  0  0  0
  6  8  2  0  0  0
  6  5  1  0  0  0
  5 18  1  0  0  0
  5  4  1  0  0  0
 18 19  1  0  0  0
 19 20  1  0  0  0
 19 21  1  0  0  0
  4  1  1  0  0  0
  1  2  1  0  0  0
  1 22  1  0  0  0
 22 23  1  0  0  0
 22 36  1  0  0  0
 23 24  1  0  0  0
 24 25  2  0  0  0
 24 27  1  0  0  0
 27 28  1  0  0  0
 28 29  1  0  0  0
 28 35  1  0  0  0
 29 30  1  0  0  0
 30 31  1  0  0  0
 31 32  1  0  0  0
 31 35  1  0  0  0
 32 33  1  0  0  0
 33 34  1  0  0  0
 34 35  1  0  0  0
 36 42  1  0  0  0
 37 38  2  0  0  0
 37 42  1  0  0  0
 38 39  1  0  0  0
 39 40  2  0  0  0
 40 41  1  0  0  0
 41 42  2  0  0  0
  9 16  1  0  0  0
  9 17  1  0  0  0
  2  3  1  0  0  0
 23 26  1  0  0  0
M  END
> <minimizedAffinity>
-8.96162

$$$$
4Q1Y_017_A_106


 42 45  0  0  0  0  0  0  0  0999 V2000
   18.5015   32.5379   15.7808 C   0  0  0  0  0  0  0  0  0  0  0  0
   18.8386   31.4978   16.7347 O   0  0  0  0  0  0  0  0  0  0  0  0
   19.5354   31.8175   17.3290 H   0  0  0  0  0  0  0  0  0  0  0  0
   19.7221   32.8745   14.9139 C   0  0  0  0  0  0  0  0  0  0  0  0
   20.4880   31.6272   14.6448 N   0  0  0  0  0  0  0  0  0  0  0  0
   20.4577   31.1480   13.0865 S   0  0  0  0  0  0  0  0  0  0  0  0
   21.7628   30.7282   12.7212 O   0  0  0  0  0  0  0  0  0  0  0  0
   19.9205   32.2992   12.4162 O   0  0  0  0  0  0  0  0  0  0  0  0
   17.0840   26.5187   12.1468 N   0  0  0  0  0  0  0  0  0  0  0  0
   17.8658   27.6055   12.4050 C   0  0  0  0  0  0  0  0  0  0  0  0
   18.5313   28.1986   11.3450 C   0  0  0  0  0  0  0  0  0  0  0  0
   19.3351   29.3136   11.5975 C   0  0  0  0  0  0  0  0  0  0  0  0
   19.4760   29.8570   12.8812 C   0  0  0  0  0  0  0  0  0  0  0  0
   18.7896   29.2599   13.9397 C   0  0  0  0  0  0  0  0  0  0  0  0
   17.9673   28.1273   13.6932 C   0  0  0  0  0  0  0  0  0  0  0  0
   17.0232   26.1624   11.2310 H   0  0  0  0  0  0  0  0  0  0  0  0
   16.5803   26.0902   12.8761 H   0  0  0  0  0  0  0  0  0  0  0  0
   21.8018   31.5503   15.3410 C   0  0  0  0  0  0  0  0  0  0  0  0
   22.4024   32.9348   15.5778 C   0  0  0  0  0  0  0  0  0  0  0  0
   23.6750   33.0404   14.7367 C   0  0  0  0  0  0  0  0  0  0  0  0
   22.7136   33.1498   17.0560 C   0  0  0  0  0  0  0  0  0  0  0  0
   17.9883   33.7462   16.5602 C   0  0  0  0  0  0  0  0  0  0  0  0
   19.1481   34.4606   17.0701 N   0  0  0  0  0  0  0  0  0  0  0  0
   19.2724   34.9377   18.2903 C   0  0  0  0  0  0  0  0  0  0  0  0
   18.4938   34.9009   19.2062 O   0  0  0  0  0  0  0  0  0  0  0  0
   19.9017   34.5986   16.4519 H   0  0  0  0  0  0  0  0  0  0  0  0
   20.5398   35.5372   18.4794 O   0  0  0  0  0  0  0  0  0  0  0  0
   20.7552   36.1571   19.7498 C   0  0  0  0  0  0  0  0  0  0  0  0
   22.1941   35.8586   20.1017 C   0  0  0  0  0  0  0  0  0  0  0  0
   22.9259   36.7616   19.2893 O   0  0  0  0  0  0  0  0  0  0  0  0
   22.1970   37.9742   19.1844 C   0  0  0  0  0  0  0  0  0  0  0  0
   22.1729   38.3829   17.8337 O   0  0  0  0  0  0  0  0  0  0  0  0
   20.8524   38.2762   17.2786 C   0  0  0  0  0  0  0  0  0  0  0  0
   19.9018   38.2557   18.4724 C   0  0  0  0  0  0  0  0  0  0  0  0
   20.7592   37.6616   19.5813 C   0  0  0  0  0  0  0  0  0  0  0  0
   17.1300   34.7348   15.7821 C   0  0  0  0  0  0  0  0  0  0  0  0
   16.4646   36.7998   17.1122 C   0  0  0  0  0  0  0  0  0  0  0  0
   15.5869   37.4915   17.9378 C   0  0  0  0  0  0  0  0  0  0  0  0
   14.4280   36.8836   18.3860 C   0  0  0  0  0  0  0  0  0  0  0  0
   14.1527   35.5865   17.9808 C   0  0  0  0  0  0  0  0  0  0  0  0
   15.0473   34.8913   17.1618 C   0  0  0  0  0  0  0  0  0  0  0  0
   16.1872   35.5073   16.7010 C   0  0  0  0  0  0  0  0  0  0  0  0
  9 10  1  0  0  0
 10 11  2  0  0  0
 10 15  1  0  0  0
 11 12  1  0  0  0
 12 13  2  0  0  0
 13 14  1  0  0  0
 13  6  1  0  0  0
 14 15  2  0  0  0
  6  7  2  0  0  0
  6  8  2  0  0  0
  6  5  1  0  0  0
  5 18  1  0  0  0
  5  4  1  0  0  0
 18 19  1  0  0  0
 19 20  1  0  0  0
 19 21  1  0  0  0
  4  1  1  0  0  0
  1  2  1  0  0  0
  1 22  1  0  0  0
 22 23  1  0  0  0
 22 36  1  0  0  0
 23 24  1  0  0  0
 24 25  2  0  0  0
 24 27  1  0  0  0
 27 28  1  0  0  0
 28 29  1  0  0  0
 28 35  1  0  0  0
 29 30  1  0  0  0
 30 31  1  0  0  0
 31 32  1  0  0  0
 31 35  1  0  0  0
 32 33  1  0  0  0
 33 34  1  0  0  0
 34 35  1  0  0  0
 36 42  1  0  0  0
 37 38  2  0  0  0
 37 42  1  0  0  0
 38 39  1  0  0  0
 39 40  2  0  0  0
 40 41  1  0  0  0
 41 42  2  0  0  0
  9 16  1  0  0  0
  9 17  1  0  0  0
  2  3  1  0  0  0
 23 26  1  0  0  0
M  END
> <minimizedAffinity>
-8.69442

$$$$
4Q1Y_017_A_106


 42 45  0  0  0  0  0  0  0  0999 V2000
   18.2305   33.7586   15.3505 C   0  0  0  0  0  0  0  0  0  0  0  0
   17.1560   33.3456   14.4671 O   0  0  0  0  0  0  0  0  0  0  0  0
   16.4698   32.8931   14.9821 H   0  0  0  0  0  0  0  0  0  0  0  0
   18.8819   32.5299   15.9991 C   0  0  0  0  0  0  0  0  0  0  0  0
   20.0444   32.1019   15.1746 N   0  0  0  0  0  0  0  0  0  0  0  0
   19.6384   31.3202   13.8025 S   0  0  0  0  0  0  0  0  0  0  0  0
   19.5657   32.2693   12.7504 O   0  0  0  0  0  0  0  0  0  0  0  0
   18.4241   30.6486   14.1734 O   0  0  0  0  0  0  0  0  0  0  0  0
   23.7353   27.5870   12.0779 N   0  0  0  0  0  0  0  0  0  0  0  0
   22.7775   28.4511   12.5195 C   0  0  0  0  0  0  0  0  0  0  0  0
   22.1181   29.2301   11.5832 C   0  0  0  0  0  0  0  0  0  0  0  0
   21.1340   30.1190   12.0241 C   0  0  0  0  0  0  0  0  0  0  0  0
   20.7843   30.2352   13.3758 C   0  0  0  0  0  0  0  0  0  0  0  0
   21.4453   29.4351   14.3092 C   0  0  0  0  0  0  0  0  0  0  0  0
   22.4458   28.5258   13.8709 C   0  0  0  0  0  0  0  0  0  0  0  0
   23.9578   27.5466   11.1197 H   0  0  0  0  0  0  0  0  0  0  0  0
   24.2045   27.0036   12.7172 H   0  0  0  0  0  0  0  0  0  0  0  0
   21.1294   33.1160   15.0685 C   0  0  0  0  0  0  0  0  0  0  0  0
   22.4139   32.6486   15.7506 C   0  0  0  0  0  0  0  0  0  0  0  0
   22.5605   33.4329   17.0550 C   0  0  0  0  0  0  0  0  0  0  0  0
   23.6239   32.8719   14.8483 C   0  0  0  0  0  0  0  0  0  0  0  0
   17.6506   34.7241   16.3812 C   0  0  0  0  0  0  0  0  0  0  0  0
   18.7652   35.4341   16.9887 N   0  0  0  0  0  0  0  0  0  0  0  0
   19.0176   35.4935   18.2789 C   0  0  0  0  0  0  0  0  0  0  0  0
   18.4112   35.0084   19.1973 O   0  0  0  0  0  0  0  0  0  0  0  0
   19.3812   35.9092   16.3854 H   0  0  0  0  0  0  0  0  0  0  0  0
   20.2013   36.2242   18.5365 O   0  0  0  0  0  0  0  0  0  0  0  0
   20.2976   37.5023   17.9029 C   0  0  0  0  0  0  0  0  0  0  0  0
   19.5438   38.4531   18.8034 C   0  0  0  0  0  0  0  0  0  0  0  0
   20.4431   38.6718   19.8779 O   0  0  0  0  0  0  0  0  0  0  0  0
   21.7675   38.6808   19.3695 C   0  0  0  0  0  0  0  0  0  0  0  0
   22.5848   37.8809   20.1965 O   0  0  0  0  0  0  0  0  0  0  0  0
   23.0057   36.6868   19.5180 C   0  0  0  0  0  0  0  0  0  0  0  0
   22.8418   36.9772   18.0287 C   0  0  0  0  0  0  0  0  0  0  0  0
   21.7213   38.0076   18.0031 C   0  0  0  0  0  0  0  0  0  0  0  0
   16.6634   35.7577   15.8554 C   0  0  0  0  0  0  0  0  0  0  0  0
   14.7207   35.7772   17.4992 C   0  0  0  0  0  0  0  0  0  0  0  0
   14.0034   36.3594   18.5368 C   0  0  0  0  0  0  0  0  0  0  0  0
   14.3971   37.5798   19.0559 C   0  0  0  0  0  0  0  0  0  0  0  0
   15.5257   38.1953   18.5365 C   0  0  0  0  0  0  0  0  0  0  0  0
   16.2344   37.6108   17.4827 C   0  0  0  0  0  0  0  0  0  0  0  0
   15.8520   36.3873   16.9848 C   0  0  0  0  0  0  0  0  0  0  0  0
  9 10  1  0  0  0
 10 11  2  0  0  0
 10 15  1  0  0  0
 11 12  1  0  0  0
 12 13  2  0  0  0
 13 14  1  0  0  0
 13  6  1  0  0  0
 14 15  2  0  0  0
  6  7  2  0  0  0
  6  8  2  0  0  0
  6  5  1  0  0  0
  5 18  1  0  0  0
  5  4  1  0  0  0
 18 19  1  0  0  0
 19 20  1  0  0  0
 19 21  1  0  0  0
  4  1  1  0  0  0
  1  2  1  0  0  0
  1 22  1  0  0  0
 22 23  1  0  0  0
 22 36  1  0  0  0
 23 24  1  0  0  0
 24 25  2  0  0  0
 24 27  1  0  0  0
 27 28  1  0  0  0
 28 29  1  0  0  0
 28 35  1  0  0  0
 29 30  1  0  0  0
 30 31  1  0  0  0
 31 32  1  0  0  0
 31 35  1  0  0  0
 32 33  1  0  0  0
 33 34  1  0  0  0
 34 35  1  0  0  0
 36 42  1  0  0  0
 37 38  2  0  0  0
 37 42  1  0  0  0
 38 39  1  0  0  0
 39 40  2  0  0  0
 40 41  1  0  0  0
 41 42  2  0  0  0
  9 16  1  0  0  0
  9 17  1  0  0  0
  2  3  1  0  0  0
 23 26  1  0  0  0
M  END
> <minimizedAffinity>
-8.65436

$$$$
4Q1Y_017_A_106


 42 45  0  0  0  0  0  0  0  0999 V2000
   21.7002   32.5810   15.8560 C   0  0  0  0  0  0  0  0  0  0  0  0
   23.1394   32.3969   15.8756 O   0  0  0  0  0  0  0  0  0  0  0  0
   23.5710   33.1841   15.5081 H   0  0  0  0  0  0  0  0  0  0  0  0
   21.2081   32.7391   14.4112 C   0  0  0  0  0  0  0  0  0  0  0  0
   20.6328   31.4473   13.9478 N   0  0  0  0  0  0  0  0  0  0  0  0
   19.0425   31.2731   14.2631 S   0  0  0  0  0  0  0  0  0  0  0  0
   18.3505   32.3770   13.7012 O   0  0  0  0  0  0  0  0  0  0  0  0
   19.0207   31.1361   15.6926 O   0  0  0  0  0  0  0  0  0  0  0  0
   16.8986   26.6266   11.5228 N   0  0  0  0  0  0  0  0  0  0  0  0
   17.4124   27.6950   12.1962 C   0  0  0  0  0  0  0  0  0  0  0  0
   17.2843   28.9505   11.6254 C   0  0  0  0  0  0  0  0  0  0  0  0
   17.8067   30.0531   12.3068 C   0  0  0  0  0  0  0  0  0  0  0  0
   18.4394   29.9309   13.5508 C   0  0  0  0  0  0  0  0  0  0  0  0
   18.5504   28.6628   14.1234 C   0  0  0  0  0  0  0  0  0  0  0  0
   18.0201   27.5352   13.4401 C   0  0  0  0  0  0  0  0  0  0  0  0
   16.4725   26.7566   10.6449 H   0  0  0  0  0  0  0  0  0  0  0  0
   16.9538   25.7250   11.9144 H   0  0  0  0  0  0  0  0  0  0  0  0
   21.0970   31.0156   12.6007 C   0  0  0  0  0  0  0  0  0  0  0  0
   22.0239   29.8039   12.6793 C   0  0  0  0  0  0  0  0  0  0  0  0
   21.4818   28.7401   11.7241 C   0  0  0  0  0  0  0  0  0  0  0  0
   22.0960   29.2628   14.1041 C   0  0  0  0  0  0  0  0  0  0  0  0
   21.3666   33.7933   16.7220 C   0  0  0  0  0  0  0  0  0  0  0  0
   19.9445   33.7366   17.0220 N   0  0  0  0  0  0  0  0  0  0  0  0
   19.1319   34.7712   17.0562 C   0  0  0  0  0  0  0  0  0  0  0  0
   19.3707   35.9346   16.8669 O   0  0  0  0  0  0  0  0  0  0  0  0
   19.5582   32.8519   17.2153 H   0  0  0  0  0  0  0  0  0  0  0  0
   17.8035   34.3705   17.3325 O   0  0  0  0  0  0  0  0  0  0  0  0
   16.8895   34.4353   16.2348 C   0  0  0  0  0  0  0  0  0  0  0  0
   16.1075   33.1436   16.2885 C   0  0  0  0  0  0  0  0  0  0  0  0
   15.1918   33.3569   17.3502 O   0  0  0  0  0  0  0  0  0  0  0  0
   14.7934   34.7184   17.3422 C   0  0  0  0  0  0  0  0  0  0  0  0
   14.8549   35.2251   18.6580 O   0  0  0  0  0  0  0  0  0  0  0  0
   15.9101   36.1895   18.7981 C   0  0  0  0  0  0  0  0  0  0  0  0
   16.2216   36.6710   17.3838 C   0  0  0  0  0  0  0  0  0  0  0  0
   15.8301   35.4778   16.5231 C   0  0  0  0  0  0  0  0  0  0  0  0
   22.1222   33.9086   18.0393 C   0  0  0  0  0  0  0  0  0  0  0  0
   21.7479   35.7361   19.7704 C   0  0  0  0  0  0  0  0  0  0  0  0
   21.8409   37.0560   20.1938 C   0  0  0  0  0  0  0  0  0  0  0  0
   22.3666   38.0210   19.3536 C   0  0  0  0  0  0  0  0  0  0  0  0
   22.8140   37.6426   18.0970 C   0  0  0  0  0  0  0  0  0  0  0  0
   22.7040   36.3154   17.6718 C   0  0  0  0  0  0  0  0  0  0  0  0
   22.2010   35.3557   18.5187 C   0  0  0  0  0  0  0  0  0  0  0  0
  9 10  1  0  0  0
 10 11  2  0  0  0
 10 15  1  0  0  0
 11 12  1  0  0  0
 12 13  2  0  0  0
 13 14  1  0  0  0
 13  6  1  0  0  0
 14 15  2  0  0  0
  6  7  2  0  0  0
  6  8  2  0  0  0
  6  5  1  0  0  0
  5 18  1  0  0  0
  5  4  1  0  0  0
 18 19  1  0  0  0
 19 20  1  0  0  0
 19 21  1  0  0  0
  4  1  1  0  0  0
  1  2  1  0  0  0
  1 22  1  0  0  0
 22 23  1  0  0  0
 22 36  1  0  0  0
 23 24  1  0  0  0
 24 25  2  0  0  0
 24 27  1  0  0  0
 27 28  1  0  0  0
 28 29  1  0  0  0
 28 35  1  0  0  0
 29 30  1  0  0  0
 30 31  1  0  0  0
 31 32  1  0  0  0
 31 35  1  0  0  0
 32 33  1  0  0  0
 33 34  1  0  0  0
 34 35  1  0  0  0
 36 42  1  0  0  0
 37 38  2  0  0  0
 37 42  1  0  0  0
 38 39  1  0  0  0
 39 40  2  0  0  0
 40 41  1  0  0  0
 41 42  2  0  0  0
  9 16  1  0  0  0
  9 17  1  0  0  0
  2  3  1  0  0  0
 23 26  1  0  0  0
M  END
> <minimizedAffinity>
-8.59688

$$$$
4Q1Y_017_A_106


 42 45  0  0  0  0  0  0  0  0999 V2000
   20.7029   33.6713   16.8105 C   0  0  0  0  0  0  0  0  0  0  0  0
   21.7480   32.8773   17.4292 O   0  0  0  0  0  0  0  0  0  0  0  0
   22.6110   33.2816   17.2484 H   0  0  0  0  0  0  0  0  0  0  0  0
   20.8875   33.6916   15.2873 C   0  0  0  0  0  0  0  0  0  0  0  0
   19.9822   32.6829   14.6728 N   0  0  0  0  0  0  0  0  0  0  0  0
   20.7512   31.3876   14.0487 S   0  0  0  0  0  0  0  0  0  0  0  0
   21.5119   30.7781   15.0797 O   0  0  0  0  0  0  0  0  0  0  0  0
   21.4702   31.9546   12.9421 O   0  0  0  0  0  0  0  0  0  0  0  0
   16.9601   27.3081   12.4111 N   0  0  0  0  0  0  0  0  0  0  0  0
   17.8440   28.2852   12.7623 C   0  0  0  0  0  0  0  0  0  0  0  0
   18.5389   28.1411   13.9516 C   0  0  0  0  0  0  0  0  0  0  0  0
   19.4478   29.1361   14.3217 C   0  0  0  0  0  0  0  0  0  0  0  0
   19.6883   30.2620   13.5234 C   0  0  0  0  0  0  0  0  0  0  0  0
   18.9928   30.3900   12.3200 C   0  0  0  0  0  0  0  0  0  0  0  0
   18.0683   29.3825   11.9330 C   0  0  0  0  0  0  0  0  0  0  0  0
   16.8132   26.5394   13.0083 H   0  0  0  0  0  0  0  0  0  0  0  0
   16.4689   27.3714   11.5602 H   0  0  0  0  0  0  0  0  0  0  0  0
   18.7442   32.4113   15.4540 C   0  0  0  0  0  0  0  0  0  0  0  0
   17.4834   32.6994   14.6409 C   0  0  0  0  0  0  0  0  0  0  0  0
   17.3370   34.2175   14.5309 C   0  0  0  0  0  0  0  0  0  0  0  0
   16.2537   32.0857   15.3038 C   0  0  0  0  0  0  0  0  0  0  0  0
   20.7461   35.0694   17.4222 C   0  0  0  0  0  0  0  0  0  0  0  0
   19.3750   35.4646   17.7037 N   0  0  0  0  0  0  0  0  0  0  0  0
   18.7421   35.2615   18.8396 C   0  0  0  0  0  0  0  0  0  0  0  0
   19.1303   34.7240   19.8429 O   0  0  0  0  0  0  0  0  0  0  0  0
   18.8799   35.9215   16.9859 H   0  0  0  0  0  0  0  0  0  0  0  0
   17.4374   35.8075   18.8039 O   0  0  0  0  0  0  0  0  0  0  0  0
   16.6813   35.5440   17.6193 C   0  0  0  0  0  0  0  0  0  0  0  0
   15.7602   34.4013   17.9786 C   0  0  0  0  0  0  0  0  0  0  0  0
   14.7480   35.0248   18.7516 O   0  0  0  0  0  0  0  0  0  0  0  0
   14.5072   36.3210   18.2276 C   0  0  0  0  0  0  0  0  0  0  0  0
   14.4590   37.2473   19.2913 O   0  0  0  0  0  0  0  0  0  0  0  0
   15.5888   38.1340   19.2642 C   0  0  0  0  0  0  0  0  0  0  0  0
   16.1268   38.0757   17.8371 C   0  0  0  0  0  0  0  0  0  0  0  0
   15.7164   36.6846   17.3742 C   0  0  0  0  0  0  0  0  0  0  0  0
   21.5529   35.2187   18.7053 C   0  0  0  0  0  0  0  0  0  0  0  0
   23.0746   37.1502   18.0498 C   0  0  0  0  0  0  0  0  0  0  0  0
   23.5371   38.4504   18.2099 C   0  0  0  0  0  0  0  0  0  0  0  0
   23.0319   39.2494   19.2199 C   0  0  0  0  0  0  0  0  0  0  0  0
   22.0473   38.7360   20.0501 C   0  0  0  0  0  0  0  0  0  0  0  0
   21.5967   37.4220   19.8925 C   0  0  0  0  0  0  0  0  0  0  0  0
   22.0861   36.6390   18.8734 C   0  0  0  0  0  0  0  0  0  0  0  0
  9 10  1  0  0  0
 10 11  2  0  0  0
 10 15  1  0  0  0
 11 12  1  0  0  0
 12 13  2  0  0  0
 13 14  1  0  0  0
 13  6  1  0  0  0
 14 15  2  0  0  0
  6  7  2  0  0  0
  6  8  2  0  0  0
  6  5  1  0  0  0
  5 18  1  0  0  0
  5  4  1  0  0  0
 18 19  1  0  0  0
 19 20  1  0  0  0
 19 21  1  0  0  0
  4  1  1  0  0  0
  1  2  1  0  0  0
  1 22  1  0  0  0
 22 23  1  0  0  0
 22 36  1  0  0  0
 23 24  1  0  0  0
 24 25  2  0  0  0
 24 27  1  0  0  0
 27 28  1  0  0  0
 28 29  1  0  0  0
 28 35  1  0  0  0
 29 30  1  0  0  0
 30 31  1  0  0  0
 31 32  1  0  0  0
 31 35  1  0  0  0
 32 33  1  0  0  0
 33 34  1  0  0  0
 34 35  1  0  0  0
 36 42  1  0  0  0
 37 38  2  0  0  0
 37 42  1  0  0  0
 38 39  1  0  0  0
 39 40  2  0  0  0
 40 41  1  0  0  0
 41 42  2  0  0  0
  9 16  1  0  0  0
  9 17  1  0  0  0
  2  3  1  0  0  0
 23 26  1  0  0  0
M  END
> <minimizedAffinity>
-8.47876

$$$$
4Q1Y_017_A_106


 42 45  0  0  0  0  0  0  0  0999 V2000
   19.5899   30.9068   15.7838 C   0  0  0  0  0  0  0  0  0  0  0  0
   19.1469   30.2838   17.0172 O   0  0  0  0  0  0  0  0  0  0  0  0
   18.4467   30.8222   17.4181 H   0  0  0  0  0  0  0  0  0  0  0  0
   20.1880   32.2893   16.0764 C   0  0  0  0  0  0  0  0  0  0  0  0
   21.6728   32.1894   16.0707 N   0  0  0  0  0  0  0  0  0  0  0  0
   22.3478   32.3583   14.5961 S   0  0  0  0  0  0  0  0  0  0  0  0
   23.7498   32.5035   14.7587 O   0  0  0  0  0  0  0  0  0  0  0  0
   21.6259   33.4725   14.0479 O   0  0  0  0  0  0  0  0  0  0  0  0
   21.5756   27.4805   11.5453 N   0  0  0  0  0  0  0  0  0  0  0  0
   21.7395   28.6462   12.2334 C   0  0  0  0  0  0  0  0  0  0  0  0
   22.4281   28.6050   13.4343 C   0  0  0  0  0  0  0  0  0  0  0  0
   22.6027   29.7937   14.1481 C   0  0  0  0  0  0  0  0  0  0  0  0
   22.1185   31.0228   13.6814 C   0  0  0  0  0  0  0  0  0  0  0  0
   21.4383   31.0550   12.4631 C   0  0  0  0  0  0  0  0  0  0  0  0
   21.2577   29.8523   11.7279 C   0  0  0  0  0  0  0  0  0  0  0  0
   21.9219   26.6370   11.9164 H   0  0  0  0  0  0  0  0  0  0  0  0
   21.1108   27.4824   10.6774 H   0  0  0  0  0  0  0  0  0  0  0  0
   22.3410   32.8999   17.1956 C   0  0  0  0  0  0  0  0  0  0  0  0
   21.6945   34.2551   17.4770 C   0  0  0  0  0  0  0  0  0  0  0  0
   22.5432   35.3271   16.7925 C   0  0  0  0  0  0  0  0  0  0  0  0
   21.6037   34.5160   18.9776 C   0  0  0  0  0  0  0  0  0  0  0  0
   18.3967   30.9763   14.8339 C   0  0  0  0  0  0  0  0  0  0  0  0
   18.4331   29.7849   14.0004 N   0  0  0  0  0  0  0  0  0  0  0  0
   17.7382   29.6061   12.8972 C   0  0  0  0  0  0  0  0  0  0  0  0
   16.9520   30.3434   12.3637 O   0  0  0  0  0  0  0  0  0  0  0  0
   19.0261   29.0523   14.2848 H   0  0  0  0  0  0  0  0  0  0  0  0
   18.0369   28.3588   12.3000 O   0  0  0  0  0  0  0  0  0  0  0  0
   17.2968   28.0374   11.1196 C   0  0  0  0  0  0  0  0  0  0  0  0
   18.1618   28.4948    9.9682 C   0  0  0  0  0  0  0  0  0  0  0  0
   19.1576   27.4886    9.8844 O   0  0  0  0  0  0  0  0  0  0  0  0
   18.5697   26.2374   10.2029 C   0  0  0  0  0  0  0  0  0  0  0  0
   19.4071   25.5510   11.1082 O   0  0  0  0  0  0  0  0  0  0  0  0
   18.8032   25.4531   12.4079 C   0  0  0  0  0  0  0  0  0  0  0  0
   17.3081   25.6656   12.1868 C   0  0  0  0  0  0  0  0  0  0  0  0
   17.2679   26.5347   10.9374 C   0  0  0  0  0  0  0  0  0  0  0  0
   17.0217   31.0553   15.4840 C   0  0  0  0  0  0  0  0  0  0  0  0
   17.1176   33.5363   14.9258 C   0  0  0  0  0  0  0  0  0  0  0  0
   16.6772   34.8438   15.0894 C   0  0  0  0  0  0  0  0  0  0  0  0
   15.6905   35.1352   16.0140 C   0  0  0  0  0  0  0  0  0  0  0  0
   15.1400   34.1000   16.7541 C   0  0  0  0  0  0  0  0  0  0  0  0
   15.5979   32.7887   16.5947 C   0  0  0  0  0  0  0  0  0  0  0  0
   16.5635   32.5008   15.6589 C   0  0  0  0  0  0  0  0  0  0  0  0
  9 10  1  0  0  0
 10 11  2  0  0  0
 10 15  1  0  0  0
 11 12  1  0  0  0
 12 13  2  0  0  0
 13 14  1  0  0  0
 13  6  1  0  0  0
 14 15  2  0  0  0
  6  7  2  0  0  0
  6  8  2  0  0  0
  6  5  1  0  0  0
  5 18  1  0  0  0
  5  4  1  0  0  0
 18 19  1  0  0  0
 19 20  1  0  0  0
 19 21  1  0  0  0
  4  1  1  0  0  0
  1  2  1  0  0  0
  1 22  1  0  0  0
 22 23  1  0  0  0
 22 36  1  0  0  0
 23 24  1  0  0  0
 24 25  2  0  0  0
 24 27  1  0  0  0
 27 28  1  0  0  0
 28 29  1  0  0  0
 28 35  1  0  0  0
 29 30  1  0  0  0
 30 31  1  0  0  0
 31 32  1  0  0  0
 31 35  1  0  0  0
 32 33  1  0  0  0
 33 34  1  0  0  0
 34 35  1  0  0  0
 36 42  1  0  0  0
 37 38  2  0  0  0
 37 42  1  0  0  0
 38 39  1  0  0  0
 39 40  2  0  0  0
 40 41  1  0  0  0
 41 42  2  0  0  0
  9 16  1  0  0  0
  9 17  1  0  0  0
  2  3  1  0  0  0
 23 26  1  0  0  0
M  END
> <minimizedAffinity>
-8.13172

$$$$
