1FCZ_156_A_450


 28 30  0  0  0  0  0  0  0  0999 V2000
   39.9279   13.1353   84.7123 C   0  0  0  0  0  0  0  0  0  0  0  0
   39.6901   11.9209   84.5121 O   0  0  0  0  0  0  0  0  0  0  0  0
   41.0853   13.7678   84.0561 C   0  0  0  0  0  0  0  0  0  0  0  0
   41.5048   13.3307   82.8040 C   0  0  0  0  0  0  0  0  0  0  0  0
   42.6004   13.8869   82.1206 C   0  0  0  0  0  0  0  0  0  0  0  0
   42.9784   13.3301   80.7396 C   0  0  0  0  0  0  0  0  0  0  0  0
   44.4010   13.8125   80.3543 C   0  0  0  0  0  0  0  0  0  0  0  0
   44.5716   15.2923   80.5970 C   0  0  0  0  0  0  0  0  0  0  0  0
   44.5051   15.6304   82.1007 C   0  0  0  0  0  0  0  0  0  0  0  0
   43.3046   14.9420   82.7395 C   0  0  0  0  0  0  0  0  0  0  0  0
   42.8676   15.3607   83.9889 C   0  0  0  0  0  0  0  0  0  0  0  0
   41.8036   14.8071   84.6371 C   0  0  0  0  0  0  0  0  0  0  0  0
   41.9539   13.8524   79.7538 C   0  0  0  0  0  0  0  0  0  0  0  0
   42.9822   11.8173   80.7387 C   0  0  0  0  0  0  0  0  0  0  0  0
   44.3529   17.1538   82.1566 C   0  0  0  0  0  0  0  0  0  0  0  0
   45.8041   15.2549   82.8114 C   0  0  0  0  0  0  0  0  0  0  0  0
   38.7551   15.1803   85.5423 C   0  0  0  0  0  0  0  0  0  0  0  0
   38.9211   13.8746   85.5122 C   0  0  0  0  0  0  0  0  0  0  0  0
   35.7466   17.5352   87.4642 C   0  0  0  0  0  0  0  0  0  0  0  0
   36.8772   18.0527   86.9009 C   0  0  0  0  0  0  0  0  0  0  0  0
   37.8844   17.3670   86.2813 C   0  0  0  0  0  0  0  0  0  0  0  0
   37.8123   15.9761   86.2638 C   0  0  0  0  0  0  0  0  0  0  0  0
   36.7659   15.3872   86.9441 C   0  0  0  0  0  0  0  0  0  0  0  0
   35.7907   16.0817   87.6733 C   0  0  0  0  0  0  0  0  0  0  0  0
   34.6332   18.1672   88.1306 C   0  0  0  0  0  0  0  0  0  0  0  0
   34.6879   19.4792   87.9278 O   0  0  0  0  0  0  0  0  0  0  0  0
   33.7569   17.6656   88.7754 O   0  0  0  0  0  0  0  0  0  0  0  0
   33.7417   16.7374   88.9032 H   0  0  0  0  0  0  0  0  0  0  0  0
 25 19  1  0  0  0
 25 26  2  0  0  0
 25 27  1  0  0  0
 19 20  2  0  0  0
 19 24  1  0  0  0
 20 21  1  0  0  0
 21 22  2  0  0  0
 22 17  1  0  0  0
 22 23  1  0  0  0
 17 18  2  0  0  0
 18  1  1  0  0  0
 23 24  2  0  0  0
  1  3  1  0  0  0
  1  2  2  0  0  0
  3  4  2  0  0  0
  3 12  1  0  0  0
  4  5  1  0  0  0
  5  6  1  0  0  0
  5 10  2  0  0  0
  6  7  1  0  0  0
  6 13  1  0  0  0
  6 14  1  0  0  0
  7  8  1  0  0  0
  8  9  1  0  0  0
  9 10  1  0  0  0
  9 15  1  0  0  0
  9 16  1  0  0  0
 10 11  1  0  0  0
 11 12  2  0  0  0
 27 28  1  0  0  0
M  END
> <minimizedAffinity>
-14.88644

$$$$
1FCZ_156_A_450


 28 30  0  0  0  0  0  0  0  0999 V2000
   40.5948   13.6406   85.1707 C   0  0  0  0  0  0  0  0  0  0  0  0
   40.4415   12.4985   85.6643 O   0  0  0  0  0  0  0  0  0  0  0  0
   41.4066   13.8034   83.9521 C   0  0  0  0  0  0  0  0  0  0  0  0
   42.3060   14.8592   83.8464 C   0  0  0  0  0  0  0  0  0  0  0  0
   43.1107   15.0757   82.7141 C   0  0  0  0  0  0  0  0  0  0  0  0
   44.0734   16.2728   82.7015 C   0  0  0  0  0  0  0  0  0  0  0  0
   44.5628   16.5333   81.2532 C   0  0  0  0  0  0  0  0  0  0  0  0
   45.0028   15.2580   80.5766 C   0  0  0  0  0  0  0  0  0  0  0  0
   43.8169   14.2965   80.3556 C   0  0  0  0  0  0  0  0  0  0  0  0
   42.9977   14.1729   81.6350 C   0  0  0  0  0  0  0  0  0  0  0  0
   42.0933   13.1275   81.7635 C   0  0  0  0  0  0  0  0  0  0  0  0
   41.3195   12.9352   82.8694 C   0  0  0  0  0  0  0  0  0  0  0  0
   45.2385   15.9162   83.6011 C   0  0  0  0  0  0  0  0  0  0  0  0
   43.3942   17.5301   83.1980 C   0  0  0  0  0  0  0  0  0  0  0  0
   44.4592   12.9551   79.9883 C   0  0  0  0  0  0  0  0  0  0  0  0
   42.9493   14.7467   79.1817 C   0  0  0  0  0  0  0  0  0  0  0  0
   38.5132   14.7710   85.9676 C   0  0  0  0  0  0  0  0  0  0  0  0
   39.8189   14.7350   85.8034 C   0  0  0  0  0  0  0  0  0  0  0  0
   35.8204   17.6801   87.5725 C   0  0  0  0  0  0  0  0  0  0  0  0
   36.9013   17.9861   86.7971 C   0  0  0  0  0  0  0  0  0  0  0  0
   37.8092   17.1174   86.2589 C   0  0  0  0  0  0  0  0  0  0  0  0
   37.6844   15.7661   86.5725 C   0  0  0  0  0  0  0  0  0  0  0  0
   36.6973   15.4122   87.4697 C   0  0  0  0  0  0  0  0  0  0  0  0
   35.8334   16.3124   88.1087 C   0  0  0  0  0  0  0  0  0  0  0  0
   34.8102   18.5138   88.1789 C   0  0  0  0  0  0  0  0  0  0  0  0
   33.7945   17.7543   88.5753 O   0  0  0  0  0  0  0  0  0  0  0  0
   34.8106   19.7006   88.3428 O   0  0  0  0  0  0  0  0  0  0  0  0
   35.5398   20.2132   88.0537 H   0  0  0  0  0  0  0  0  0  0  0  0
 25 19  1  0  0  0
 25 26  2  0  0  0
 25 27  1  0  0  0
 19 20  2  0  0  0
 19 24  1  0  0  0
 20 21  1  0  0  0
 21 22  2  0  0  0
 22 17  1  0  0  0
 22 23  1  0  0  0
 17 18  2  0  0  0
 18  1  1  0  0  0
 23 24  2  0  0  0
  1  3  1  0  0  0
  1  2  2  0  0  0
  3  4  2  0  0  0
  3 12  1  0  0  0
  4  5  1  0  0  0
  5  6  1  0  0  0
  5 10  2  0  0  0
  6  7  1  0  0  0
  6 13  1  0  0  0
  6 14  1  0  0  0
  7  8  1  0  0  0
  8  9  1  0  0  0
  9 10  1  0  0  0
  9 15  1  0  0  0
  9 16  1  0  0  0
 10 11  1  0  0  0
 11 12  2  0  0  0
 27 28  1  0  0  0
M  END
> <minimizedAffinity>
-13.78688

$$$$
