1Q5K_TMU_A_901


 23 24  0  0  0  0  0  0  0  0999 V2000
   24.4299   23.9222    7.4023 N   0  0  0  0  0  0  0  0  0  0  0  0
   23.1746   23.4191    7.2779 C   0  0  0  0  0  0  0  0  0  0  0  0
   22.4303   23.8385    6.2193 N   0  0  0  0  0  0  0  0  0  0  0  0
   22.7261   22.6074    8.0909 O   0  0  0  0  0  0  0  0  0  0  0  0
   24.7421   24.5763    6.7361 H   0  0  0  0  0  0  0  0  0  0  0  0
   22.8231   24.4858    5.5902 H   0  0  0  0  0  0  0  0  0  0  0  0
   25.2902   23.5569    8.4234 C   0  0  0  0  0  0  0  0  0  0  0  0
   26.0805   22.0318    8.6997 S   0  0  0  0  0  0  0  0  0  0  0  0
   25.7223   24.2929    9.4261 N   0  0  0  0  0  0  0  0  0  0  0  0
   26.9596   22.5102   10.1651 C   0  0  0  0  0  0  0  0  0  0  0  0
   26.5541   23.7985   10.3086 C   0  0  0  0  0  0  0  0  0  0  0  0
   27.8767   21.7068   10.9810 N   0  0  0  0  0  0  0  0  0  0  0  0
   28.7156   20.9965   10.4425 O   0  0  0  0  0  0  0  0  0  0  0  0
   27.7845   21.7384   12.1938 O   0  0  0  0  0  0  0  0  0  0  0  0
   21.0582   23.3596    5.9800 C   0  0  0  0  0  0  0  0  0  0  0  0
   20.0734   24.3662    6.5157 C   0  0  0  0  0  0  0  0  0  0  0  0
   20.1344   24.7738    7.8729 C   0  0  0  0  0  0  0  0  0  0  0  0
   19.0884   24.8967    5.6584 C   0  0  0  0  0  0  0  0  0  0  0  0
   19.2083   25.7121    8.3699 C   0  0  0  0  0  0  0  0  0  0  0  0
   18.1598   25.8345    6.1471 C   0  0  0  0  0  0  0  0  0  0  0  0
   18.2138   26.2502    7.5078 C   0  0  0  0  0  0  0  0  0  0  0  0
   17.3057   27.1596    7.9882 O   0  0  0  0  0  0  0  0  0  0  0  0
   17.6546   27.4840    9.3468 C   0  0  0  0  0  0  0  0  0  0  0  0
  7  8  1  0  0  0
  7  9  2  0  0  0
  7  1  1  0  0  0
  8 10  1  0  0  0
  9 11  1  0  0  0
  1  2  1  0  0  0
 10 11  2  0  0  0
 10 12  1  0  0  0
  2  3  1  0  0  0
  2  4  2  0  0  0
 12 13  1  0  0  0
 12 14  2  0  0  0
  3 15  1  0  0  0
 15 16  1  0  0  0
 16 17  2  0  0  0
 16 18  1  0  0  0
 17 19  1  0  0  0
 18 20  2  0  0  0
 19 21  2  0  0  0
 20 21  1  0  0  0
 21 22  1  0  0  0
 22 23  1  0  0  0
  1  5  1  0  0  0
  3  6  1  0  0  0
M  CHG 1  12   1
M  CHG 1  13  -1
M  END
> <minimizedAffinity>
-7.32431

$$$$
1Q5K_TMU_A_901


 23 24  0  0  0  0  0  0  0  0999 V2000
   25.1608   25.9768   11.0890 N   0  0  0  0  0  0  0  0  0  0  0  0
   25.1759   25.0593   10.0880 C   0  0  0  0  0  0  0  0  0  0  0  0
   24.0276   24.8797    9.3810 N   0  0  0  0  0  0  0  0  0  0  0  0
   26.1941   24.4152    9.8244 O   0  0  0  0  0  0  0  0  0  0  0  0
   24.3223   26.4595   11.2714 H   0  0  0  0  0  0  0  0  0  0  0  0
   23.2356   25.4137    9.6194 H   0  0  0  0  0  0  0  0  0  0  0  0
   26.2708   26.2642   11.8646 C   0  0  0  0  0  0  0  0  0  0  0  0
   27.2089   25.2022   12.8741 S   0  0  0  0  0  0  0  0  0  0  0  0
   26.8859   27.4194   12.0089 N   0  0  0  0  0  0  0  0  0  0  0  0
   28.3886   26.4118   13.4167 C   0  0  0  0  0  0  0  0  0  0  0  0
   27.9430   27.5229   12.7752 C   0  0  0  0  0  0  0  0  0  0  0  0
   29.5330   26.2294   14.3163 N   0  0  0  0  0  0  0  0  0  0  0  0
   29.6148   26.8855   15.3463 O   0  0  0  0  0  0  0  0  0  0  0  0
   30.4068   25.4358   14.0214 O   0  0  0  0  0  0  0  0  0  0  0  0
   23.9259   23.9158    8.2722 C   0  0  0  0  0  0  0  0  0  0  0  0
   22.5755   24.0440    7.6163 C   0  0  0  0  0  0  0  0  0  0  0  0
   21.6179   24.9586    8.1245 C   0  0  0  0  0  0  0  0  0  0  0  0
   22.2699   23.2449    6.4962 C   0  0  0  0  0  0  0  0  0  0  0  0
   20.3550   25.0715    7.5101 C   0  0  0  0  0  0  0  0  0  0  0  0
   21.0107   23.3519    5.8768 C   0  0  0  0  0  0  0  0  0  0  0  0
   20.0434   24.2678    6.3792 C   0  0  0  0  0  0  0  0  0  0  0  0
   18.8129   24.3693    5.7810 O   0  0  0  0  0  0  0  0  0  0  0  0
   18.2944   25.6915    6.0172 C   0  0  0  0  0  0  0  0  0  0  0  0
  7  8  1  0  0  0
  7  9  2  0  0  0
  7  1  1  0  0  0
  8 10  1  0  0  0
  9 11  1  0  0  0
  1  2  1  0  0  0
 10 11  2  0  0  0
 10 12  1  0  0  0
  2  3  1  0  0  0
  2  4  2  0  0  0
 12 13  1  0  0  0
 12 14  2  0  0  0
  3 15  1  0  0  0
 15 16  1  0  0  0
 16 17  2  0  0  0
 16 18  1  0  0  0
 17 19  1  0  0  0
 18 20  2  0  0  0
 19 21  2  0  0  0
 20 21  1  0  0  0
 21 22  1  0  0  0
 22 23  1  0  0  0
  1  5  1  0  0  0
  3  6  1  0  0  0
M  CHG 1  12   1
M  CHG 1  13  -1
M  END
> <minimizedAffinity>
-7.22061

$$$$
1Q5K_TMU_A_901


 23 24  0  0  0  0  0  0  0  0999 V2000
   26.1880   21.0787    8.9795 N   0  0  0  0  0  0  0  0  0  0  0  0
   25.9737   22.3921    8.7090 C   0  0  0  0  0  0  0  0  0  0  0  0
   24.7815   22.7334    8.1498 N   0  0  0  0  0  0  0  0  0  0  0  0
   26.8254   23.2464    8.9654 O   0  0  0  0  0  0  0  0  0  0  0  0
   25.4845   20.4302    8.7475 H   0  0  0  0  0  0  0  0  0  0  0  0
   24.1256   22.0238    7.9614 H   0  0  0  0  0  0  0  0  0  0  0  0
   27.3508   20.6102    9.5666 C   0  0  0  0  0  0  0  0  0  0  0  0
   27.8984   20.7848   11.2088 S   0  0  0  0  0  0  0  0  0  0  0  0
   28.3159   19.9062    9.0128 N   0  0  0  0  0  0  0  0  0  0  0  0
   29.4083   19.8703   11.0277 C   0  0  0  0  0  0  0  0  0  0  0  0
   29.3526   19.5237    9.7157 C   0  0  0  0  0  0  0  0  0  0  0  0
   30.4251   19.5792   12.0445 N   0  0  0  0  0  0  0  0  0  0  0  0
   30.5131   18.4549   12.5203 O   0  0  0  0  0  0  0  0  0  0  0  0
   31.1660   20.4670   12.4228 O   0  0  0  0  0  0  0  0  0  0  0  0
   24.4361   24.1256    7.8157 C   0  0  0  0  0  0  0  0  0  0  0  0
   22.9465   24.2415    7.6206 C   0  0  0  0  0  0  0  0  0  0  0  0
   22.1535   24.9385    8.5677 C   0  0  0  0  0  0  0  0  0  0  0  0
   22.3469   23.6482    6.4914 C   0  0  0  0  0  0  0  0  0  0  0  0
   20.7605   25.0402    8.3827 C   0  0  0  0  0  0  0  0  0  0  0  0
   20.9561   23.7454    6.2993 C   0  0  0  0  0  0  0  0  0  0  0  0
   20.1520   24.4439    7.2442 C   0  0  0  0  0  0  0  0  0  0  0  0
   18.7952   24.5346    7.0625 O   0  0  0  0  0  0  0  0  0  0  0  0
   18.5391   25.3781    5.9242 C   0  0  0  0  0  0  0  0  0  0  0  0
  7  8  1  0  0  0
  7  9  2  0  0  0
  7  1  1  0  0  0
  8 10  1  0  0  0
  9 11  1  0  0  0
  1  2  1  0  0  0
 10 11  2  0  0  0
 10 12  1  0  0  0
  2  3  1  0  0  0
  2  4  2  0  0  0
 12 13  1  0  0  0
 12 14  2  0  0  0
  3 15  1  0  0  0
 15 16  1  0  0  0
 16 17  2  0  0  0
 16 18  1  0  0  0
 17 19  1  0  0  0
 18 20  2  0  0  0
 19 21  2  0  0  0
 20 21  1  0  0  0
 21 22  1  0  0  0
 22 23  1  0  0  0
  1  5  1  0  0  0
  3  6  1  0  0  0
M  CHG 1  12   1
M  CHG 1  13  -1
M  END
> <minimizedAffinity>
-6.95053

$$$$
1Q5K_TMU_A_901


 23 24  0  0  0  0  0  0  0  0999 V2000
   24.2892   28.3465   11.1166 N   0  0  0  0  0  0  0  0  0  0  0  0
   23.0273   28.0515   11.5226 C   0  0  0  0  0  0  0  0  0  0  0  0
   22.0024   28.4082   10.7023 N   0  0  0  0  0  0  0  0  0  0  0  0
   22.8165   27.4766   12.5931 O   0  0  0  0  0  0  0  0  0  0  0  0
   24.4095   28.8164   10.2599 H   0  0  0  0  0  0  0  0  0  0  0  0
   22.2100   28.8639    9.8547 H   0  0  0  0  0  0  0  0  0  0  0  0
   25.4141   28.0163   11.8527 C   0  0  0  0  0  0  0  0  0  0  0  0
   26.3623   26.5581   11.8134 S   0  0  0  0  0  0  0  0  0  0  0  0
   26.0391   28.7440   12.7547 N   0  0  0  0  0  0  0  0  0  0  0  0
   27.5589   27.0498   13.0281 C   0  0  0  0  0  0  0  0  0  0  0  0
   27.1097   28.2888   13.3563 C   0  0  0  0  0  0  0  0  0  0  0  0
   28.7172   26.2977   13.5231 N   0  0  0  0  0  0  0  0  0  0  0  0
   29.6532   26.8868   14.0474 O   0  0  0  0  0  0  0  0  0  0  0  0
   28.7475   25.0885   13.3916 O   0  0  0  0  0  0  0  0  0  0  0  0
   20.5936   28.1374   11.0356 C   0  0  0  0  0  0  0  0  0  0  0  0
   20.0212   27.1580   10.0440 C   0  0  0  0  0  0  0  0  0  0  0  0
   20.8715   26.2472    9.3664 C   0  0  0  0  0  0  0  0  0  0  0  0
   18.6344   27.1569    9.7921 C   0  0  0  0  0  0  0  0  0  0  0  0
   20.3317   25.3364    8.4368 C   0  0  0  0  0  0  0  0  0  0  0  0
   18.0874   26.2501    8.8651 C   0  0  0  0  0  0  0  0  0  0  0  0
   18.9330   25.3315    8.1808 C   0  0  0  0  0  0  0  0  0  0  0  0
   18.4029   24.4509    7.2720 O   0  0  0  0  0  0  0  0  0  0  0  0
   18.7801   24.8735    5.9484 C   0  0  0  0  0  0  0  0  0  0  0  0
  7  8  1  0  0  0
  7  9  2  0  0  0
  7  1  1  0  0  0
  8 10  1  0  0  0
  9 11  1  0  0  0
  1  2  1  0  0  0
 10 11  2  0  0  0
 10 12  1  0  0  0
  2  3  1  0  0  0
  2  4  2  0  0  0
 12 13  1  0  0  0
 12 14  2  0  0  0
  3 15  1  0  0  0
 15 16  1  0  0  0
 16 17  2  0  0  0
 16 18  1  0  0  0
 17 19  1  0  0  0
 18 20  2  0  0  0
 19 21  2  0  0  0
 20 21  1  0  0  0
 21 22  1  0  0  0
 22 23  1  0  0  0
  1  5  1  0  0  0
  3  6  1  0  0  0
M  CHG 1  12   1
M  CHG 1  13  -1
M  END
> <minimizedAffinity>
-6.90908

$$$$
1Q5K_TMU_A_901


 23 24  0  0  0  0  0  0  0  0999 V2000
   22.1412   23.9747    7.8361 N   0  0  0  0  0  0  0  0  0  0  0  0
   23.4289   24.2266    8.1865 C   0  0  0  0  0  0  0  0  0  0  0  0
   24.3821   23.3622    7.7453 N   0  0  0  0  0  0  0  0  0  0  0  0
   23.7258   25.2058    8.8749 O   0  0  0  0  0  0  0  0  0  0  0  0
   21.9494   23.1751    7.2948 H   0  0  0  0  0  0  0  0  0  0  0  0
   24.1070   22.5928    7.1961 H   0  0  0  0  0  0  0  0  0  0  0  0
   21.0863   24.7914    8.2054 C   0  0  0  0  0  0  0  0  0  0  0  0
   19.7971   25.4288    7.2263 S   0  0  0  0  0  0  0  0  0  0  0  0
   20.8067   25.2698    9.3998 N   0  0  0  0  0  0  0  0  0  0  0  0
   18.9550   26.2986    8.5238 C   0  0  0  0  0  0  0  0  0  0  0  0
   19.7520   26.0230    9.5884 C   0  0  0  0  0  0  0  0  0  0  0  0
   17.7243   27.0928    8.4393 N   0  0  0  0  0  0  0  0  0  0  0  0
   17.2619   27.6172    9.4439 O   0  0  0  0  0  0  0  0  0  0  0  0
   17.1587   27.2099    7.3684 O   0  0  0  0  0  0  0  0  0  0  0  0
   25.8106   23.5351    8.0591 C   0  0  0  0  0  0  0  0  0  0  0  0
   26.1624   22.7131    9.2718 C   0  0  0  0  0  0  0  0  0  0  0  0
   25.9700   21.3078    9.2634 C   0  0  0  0  0  0  0  0  0  0  0  0
   26.6806   23.3522   10.4162 C   0  0  0  0  0  0  0  0  0  0  0  0
   26.2965   20.5444   10.4017 C   0  0  0  0  0  0  0  0  0  0  0  0
   27.0094   22.5967   11.5571 C   0  0  0  0  0  0  0  0  0  0  0  0
   26.8204   21.1855   11.5577 C   0  0  0  0  0  0  0  0  0  0  0  0
   27.1343   20.4476   12.6710 O   0  0  0  0  0  0  0  0  0  0  0  0
   26.6292   19.1110   12.4941 C   0  0  0  0  0  0  0  0  0  0  0  0
  7  8  1  0  0  0
  7  9  2  0  0  0
  7  1  1  0  0  0
  8 10  1  0  0  0
  9 11  1  0  0  0
  1  2  1  0  0  0
 10 11  2  0  0  0
 10 12  1  0  0  0
  2  3  1  0  0  0
  2  4  2  0  0  0
 12 13  1  0  0  0
 12 14  2  0  0  0
  3 15  1  0  0  0
 15 16  1  0  0  0
 16 17  2  0  0  0
 16 18  1  0  0  0
 17 19  1  0  0  0
 18 20  2  0  0  0
 19 21  2  0  0  0
 20 21  1  0  0  0
 21 22  1  0  0  0
 22 23  1  0  0  0
  1  5  1  0  0  0
  3  6  1  0  0  0
M  CHG 1  12   1
M  CHG 1  13  -1
M  END
> <minimizedAffinity>
-6.83673

$$$$
1Q5K_TMU_A_901


 23 24  0  0  0  0  0  0  0  0999 V2000
   21.6682   26.1611   11.1474 N   0  0  0  0  0  0  0  0  0  0  0  0
   22.3764   27.3146   11.2582 C   0  0  0  0  0  0  0  0  0  0  0  0
   23.0212   27.5471   12.4332 N   0  0  0  0  0  0  0  0  0  0  0  0
   22.4382   28.1206   10.3268 O   0  0  0  0  0  0  0  0  0  0  0  0
   21.6374   25.5525   11.9206 H   0  0  0  0  0  0  0  0  0  0  0  0
   22.9502   26.8795   13.1533 H   0  0  0  0  0  0  0  0  0  0  0  0
   20.9878   25.8024    9.9965 C   0  0  0  0  0  0  0  0  0  0  0  0
   21.5600   24.9117    8.6158 S   0  0  0  0  0  0  0  0  0  0  0  0
   19.7321   26.0461    9.6839 N   0  0  0  0  0  0  0  0  0  0  0  0
   20.0352   24.9234    7.7083 C   0  0  0  0  0  0  0  0  0  0  0  0
   19.2303   25.6207    8.5514 C   0  0  0  0  0  0  0  0  0  0  0  0
   19.7490   24.3265    6.3991 N   0  0  0  0  0  0  0  0  0  0  0  0
   18.6494   24.4768    5.8830 O   0  0  0  0  0  0  0  0  0  0  0  0
   20.6057   23.6672    5.8407 O   0  0  0  0  0  0  0  0  0  0  0  0
   23.8217   28.7609   12.6677 C   0  0  0  0  0  0  0  0  0  0  0  0
   25.2586   28.3772   12.9092 C   0  0  0  0  0  0  0  0  0  0  0  0
   26.1879   28.3753   11.8377 C   0  0  0  0  0  0  0  0  0  0  0  0
   25.6710   28.0164   14.2078 C   0  0  0  0  0  0  0  0  0  0  0  0
   27.5293   28.0114   12.0682 C   0  0  0  0  0  0  0  0  0  0  0  0
   27.0092   27.6519   14.4463 C   0  0  0  0  0  0  0  0  0  0  0  0
   27.9494   27.6478   13.3771 C   0  0  0  0  0  0  0  0  0  0  0  0
   29.2531   27.2867   13.6058 O   0  0  0  0  0  0  0  0  0  0  0  0
   29.2730   25.9501   14.1405 C   0  0  0  0  0  0  0  0  0  0  0  0
  7  8  1  0  0  0
  7  9  2  0  0  0
  7  1  1  0  0  0
  8 10  1  0  0  0
  9 11  1  0  0  0
  1  2  1  0  0  0
 10 11  2  0  0  0
 10 12  1  0  0  0
  2  3  1  0  0  0
  2  4  2  0  0  0
 12 13  1  0  0  0
 12 14  2  0  0  0
  3 15  1  0  0  0
 15 16  1  0  0  0
 16 17  2  0  0  0
 16 18  1  0  0  0
 17 19  1  0  0  0
 18 20  2  0  0  0
 19 21  2  0  0  0
 20 21  1  0  0  0
 21 22  1  0  0  0
 22 23  1  0  0  0
  1  5  1  0  0  0
  3  6  1  0  0  0
M  CHG 1  12   1
M  CHG 1  13  -1
M  END
> <minimizedAffinity>
-6.40323

$$$$
1Q5K_TMU_A_901


 23 24  0  0  0  0  0  0  0  0999 V2000
   21.4869   25.0367    9.4832 N   0  0  0  0  0  0  0  0  0  0  0  0
   22.7633   25.1725    9.0399 C   0  0  0  0  0  0  0  0  0  0  0  0
   23.2918   24.1473    8.3185 N   0  0  0  0  0  0  0  0  0  0  0  0
   23.4192   26.1896    9.2769 O   0  0  0  0  0  0  0  0  0  0  0  0
   21.0051   24.2025    9.2799 H   0  0  0  0  0  0  0  0  0  0  0  0
   22.7369   23.3522    8.1478 H   0  0  0  0  0  0  0  0  0  0  0  0
   20.8326   26.0179   10.2079 C   0  0  0  0  0  0  0  0  0  0  0  0
   21.0702   26.5030   11.8617 S   0  0  0  0  0  0  0  0  0  0  0  0
   19.8759   26.8272    9.8033 N   0  0  0  0  0  0  0  0  0  0  0  0
   19.8497   27.7910   11.8829 C   0  0  0  0  0  0  0  0  0  0  0  0
   19.3675   27.7201   10.6152 C   0  0  0  0  0  0  0  0  0  0  0  0
   19.4839   28.6820   12.9897 N   0  0  0  0  0  0  0  0  0  0  0  0
   20.0780   28.6104   14.0574 O   0  0  0  0  0  0  0  0  0  0  0  0
   18.5753   29.4778   12.8434 O   0  0  0  0  0  0  0  0  0  0  0  0
   24.6635   24.1833    7.7836 C   0  0  0  0  0  0  0  0  0  0  0  0
   25.5831   23.4253    8.7055 C   0  0  0  0  0  0  0  0  0  0  0  0
   26.1994   24.0835    9.8004 C   0  0  0  0  0  0  0  0  0  0  0  0
   25.8292   22.0578    8.4689 C   0  0  0  0  0  0  0  0  0  0  0  0
   27.0620   23.3711   10.6569 C   0  0  0  0  0  0  0  0  0  0  0  0
   26.6894   21.3391    9.3200 C   0  0  0  0  0  0  0  0  0  0  0  0
   27.3119   21.9912   10.4220 C   0  0  0  0  0  0  0  0  0  0  0  0
   28.1558   21.2942   11.2493 O   0  0  0  0  0  0  0  0  0  0  0  0
   28.1115   19.9022   10.8844 C   0  0  0  0  0  0  0  0  0  0  0  0
  7  8  1  0  0  0
  7  9  2  0  0  0
  7  1  1  0  0  0
  8 10  1  0  0  0
  9 11  1  0  0  0
  1  2  1  0  0  0
 10 11  2  0  0  0
 10 12  1  0  0  0
  2  3  1  0  0  0
  2  4  2  0  0  0
 12 13  1  0  0  0
 12 14  2  0  0  0
  3 15  1  0  0  0
 15 16  1  0  0  0
 16 17  2  0  0  0
 16 18  1  0  0  0
 17 19  1  0  0  0
 18 20  2  0  0  0
 19 21  2  0  0  0
 20 21  1  0  0  0
 21 22  1  0  0  0
 22 23  1  0  0  0
  1  5  1  0  0  0
  3  6  1  0  0  0
M  CHG 1  12   1
M  CHG 1  13  -1
M  END
> <minimizedAffinity>
-6.38367

$$$$
1Q5K_TMU_A_901


 23 24  0  0  0  0  0  0  0  0999 V2000
   23.3899   25.1248    8.8225 N   0  0  0  0  0  0  0  0  0  0  0  0
   24.6035   24.8245    9.3528 C   0  0  0  0  0  0  0  0  0  0  0  0
   25.4080   23.9838    8.6481 N   0  0  0  0  0  0  0  0  0  0  0  0
   24.9670   25.3000   10.4311 O   0  0  0  0  0  0  0  0  0  0  0  0
   23.1370   24.7131    7.9647 H   0  0  0  0  0  0  0  0  0  0  0  0
   25.0841   23.6257    7.7901 H   0  0  0  0  0  0  0  0  0  0  0  0
   22.4922   25.9834    9.4334 C   0  0  0  0  0  0  0  0  0  0  0  0
   21.0348   25.6079   10.3062 S   0  0  0  0  0  0  0  0  0  0  0  0
   22.5422   27.2972    9.5047 N   0  0  0  0  0  0  0  0  0  0  0  0
   20.5988   27.2775   10.7203 C   0  0  0  0  0  0  0  0  0  0  0  0
   21.6135   27.9683   10.1390 C   0  0  0  0  0  0  0  0  0  0  0  0
   19.4447   27.7538   11.4907 N   0  0  0  0  0  0  0  0  0  0  0  0
   18.3683   27.9330   10.9364 O   0  0  0  0  0  0  0  0  0  0  0  0
   19.5713   27.9861   12.6783 O   0  0  0  0  0  0  0  0  0  0  0  0
   26.7457   23.5896    9.1217 C   0  0  0  0  0  0  0  0  0  0  0  0
   26.6385   22.3291    9.9401 C   0  0  0  0  0  0  0  0  0  0  0  0
   27.0024   22.3337   11.3110 C   0  0  0  0  0  0  0  0  0  0  0  0
   26.1774   21.1443    9.3315 C   0  0  0  0  0  0  0  0  0  0  0  0
   26.9044   21.1512   12.0707 C   0  0  0  0  0  0  0  0  0  0  0  0
   26.0765   19.9591   10.0836 C   0  0  0  0  0  0  0  0  0  0  0  0
   26.4387   19.9542   11.4605 C   0  0  0  0  0  0  0  0  0  0  0  0
   26.3472   18.7984   12.1942 O   0  0  0  0  0  0  0  0  0  0  0  0
   25.6437   17.8135   11.4146 C   0  0  0  0  0  0  0  0  0  0  0  0
  7  8  1  0  0  0
  7  9  2  0  0  0
  7  1  1  0  0  0
  8 10  1  0  0  0
  9 11  1  0  0  0
  1  2  1  0  0  0
 10 11  2  0  0  0
 10 12  1  0  0  0
  2  3  1  0  0  0
  2  4  2  0  0  0
 12 13  1  0  0  0
 12 14  2  0  0  0
  3 15  1  0  0  0
 15 16  1  0  0  0
 16 17  2  0  0  0
 16 18  1  0  0  0
 17 19  1  0  0  0
 18 20  2  0  0  0
 19 21  2  0  0  0
 20 21  1  0  0  0
 21 22  1  0  0  0
 22 23  1  0  0  0
  1  5  1  0  0  0
  3  6  1  0  0  0
M  CHG 1  12   1
M  CHG 1  13  -1
M  END
> <minimizedAffinity>
-6.08370

$$$$
1Q5K_TMU_A_901


 23 24  0  0  0  0  0  0  0  0999 V2000
   23.7747   24.8068    8.2883 N   0  0  0  0  0  0  0  0  0  0  0  0
   22.4830   24.4065    8.4124 C   0  0  0  0  0  0  0  0  0  0  0  0
   21.6149   24.7668    7.4290 N   0  0  0  0  0  0  0  0  0  0  0  0
   22.1099   23.7361    9.3780 O   0  0  0  0  0  0  0  0  0  0  0  0
   24.0252   25.3502    7.5065 H   0  0  0  0  0  0  0  0  0  0  0  0
   21.9501   25.3005    6.6727 H   0  0  0  0  0  0  0  0  0  0  0  0
   24.7551   24.4855    9.2111 C   0  0  0  0  0  0  0  0  0  0  0  0
   25.0766   25.2001   10.7645 S   0  0  0  0  0  0  0  0  0  0  0  0
   25.6738   23.5457    9.1289 N   0  0  0  0  0  0  0  0  0  0  0  0
   26.4417   24.1539   11.2014 C   0  0  0  0  0  0  0  0  0  0  0  0
   26.5269   23.3574   10.1046 C   0  0  0  0  0  0  0  0  0  0  0  0
   27.2432   24.1668   12.4302 N   0  0  0  0  0  0  0  0  0  0  0  0
   27.9565   23.2117   12.7079 O   0  0  0  0  0  0  0  0  0  0  0  0
   27.1789   25.1245   13.1778 O   0  0  0  0  0  0  0  0  0  0  0  0
   20.1919   24.3877    7.4543 C   0  0  0  0  0  0  0  0  0  0  0  0
   19.4221   25.3784    8.2887 C   0  0  0  0  0  0  0  0  0  0  0  0
   20.1040   26.4074    8.9872 C   0  0  0  0  0  0  0  0  0  0  0  0
   18.0192   25.2719    8.3729 C   0  0  0  0  0  0  0  0  0  0  0  0
   19.3798   27.3285    9.7695 C   0  0  0  0  0  0  0  0  0  0  0  0
   17.2885   26.1881    9.1521 C   0  0  0  0  0  0  0  0  0  0  0  0
   17.9643   27.2249    9.8561 C   0  0  0  0  0  0  0  0  0  0  0  0
   17.2547   28.1155   10.6215 O   0  0  0  0  0  0  0  0  0  0  0  0
   17.8464   28.1680   11.9330 C   0  0  0  0  0  0  0  0  0  0  0  0
  7  8  1  0  0  0
  7  9  2  0  0  0
  7  1  1  0  0  0
  8 10  1  0  0  0
  9 11  1  0  0  0
  1  2  1  0  0  0
 10 11  2  0  0  0
 10 12  1  0  0  0
  2  3  1  0  0  0
  2  4  2  0  0  0
 12 13  1  0  0  0
 12 14  2  0  0  0
  3 15  1  0  0  0
 15 16  1  0  0  0
 16 17  2  0  0  0
 16 18  1  0  0  0
 17 19  1  0  0  0
 18 20  2  0  0  0
 19 21  2  0  0  0
 20 21  1  0  0  0
 21 22  1  0  0  0
 22 23  1  0  0  0
  1  5  1  0  0  0
  3  6  1  0  0  0
M  CHG 1  12   1
M  CHG 1  13  -1
M  END
> <minimizedAffinity>
-5.97873

$$$$
1Q5K_TMU_A_901


 23 24  0  0  0  0  0  0  0  0999 V2000
   26.4291   23.8161   11.9283 N   0  0  0  0  0  0  0  0  0  0  0  0
   26.1672   24.3402   10.7032 C   0  0  0  0  0  0  0  0  0  0  0  0
   25.6269   23.5139    9.7672 N   0  0  0  0  0  0  0  0  0  0  0  0
   26.4047   25.5232   10.4482 O   0  0  0  0  0  0  0  0  0  0  0  0
   26.2338   22.8637   12.0835 H   0  0  0  0  0  0  0  0  0  0  0  0
   25.4494   22.5760   10.0084 H   0  0  0  0  0  0  0  0  0  0  0  0
   26.9583   24.5602   12.9687 C   0  0  0  0  0  0  0  0  0  0  0  0
   26.1360   25.5544   14.1359 S   0  0  0  0  0  0  0  0  0  0  0  0
   28.2203   24.6786   13.3251 N   0  0  0  0  0  0  0  0  0  0  0  0
   27.5775   26.0558   15.0413 C   0  0  0  0  0  0  0  0  0  0  0  0
   28.5584   25.4164   14.3530 C   0  0  0  0  0  0  0  0  0  0  0  0
   27.6569   26.9271   16.2189 N   0  0  0  0  0  0  0  0  0  0  0  0
   28.5888   27.7112   16.3407 O   0  0  0  0  0  0  0  0  0  0  0  0
   26.8006   26.8508   17.0799 O   0  0  0  0  0  0  0  0  0  0  0  0
   25.2977   23.9709    8.4064 C   0  0  0  0  0  0  0  0  0  0  0  0
   23.8012   24.0521    8.2511 C   0  0  0  0  0  0  0  0  0  0  0  0
   23.0696   25.0783    8.9018 C   0  0  0  0  0  0  0  0  0  0  0  0
   23.1337   23.0978    7.4573 C   0  0  0  0  0  0  0  0  0  0  0  0
   21.6698   25.1471    8.7569 C   0  0  0  0  0  0  0  0  0  0  0  0
   21.7357   23.1598    7.3073 C   0  0  0  0  0  0  0  0  0  0  0  0
   20.9929   24.1868    7.9560 C   0  0  0  0  0  0  0  0  0  0  0  0
   19.6293   24.2455    7.8164 O   0  0  0  0  0  0  0  0  0  0  0  0
   19.3159   25.1450    6.7368 C   0  0  0  0  0  0  0  0  0  0  0  0
  7  8  1  0  0  0
  7  9  2  0  0  0
  7  1  1  0  0  0
  8 10  1  0  0  0
  9 11  1  0  0  0
  1  2  1  0  0  0
 10 11  2  0  0  0
 10 12  1  0  0  0
  2  3  1  0  0  0
  2  4  2  0  0  0
 12 13  1  0  0  0
 12 14  2  0  0  0
  3 15  1  0  0  0
 15 16  1  0  0  0
 16 17  2  0  0  0
 16 18  1  0  0  0
 17 19  1  0  0  0
 18 20  2  0  0  0
 19 21  2  0  0  0
 20 21  1  0  0  0
 21 22  1  0  0  0
 22 23  1  0  0  0
  1  5  1  0  0  0
  3  6  1  0  0  0
M  CHG 1  12   1
M  CHG 1  13  -1
M  END
> <minimizedAffinity>
-5.94585

$$$$
