4BAQ_M4Z_B_1287


 39 41  0  0  0  0  0  0  0  0999 V2000
   18.0516  -13.3306   22.1234 C   0  0  0  0  0  0  0  0  0  0  0  0
   17.0434  -12.7229   22.4453 O   0  0  0  0  0  0  0  0  0  0  0  0
   18.8375  -12.8185   21.1448 N   0  0  0  0  0  0  0  0  0  0  0  0
   18.6314  -11.6685   20.2556 C   0  0  0  0  0  0  0  0  0  0  0  0
   19.7829  -12.1154   19.3441 C   0  0  0  0  0  0  0  0  0  0  0  0
   20.0571  -13.1940   20.4000 C   0  0  0  0  0  0  0  0  0  0  0  0
   17.2279  -11.8428   19.7007 C   0  0  0  0  0  0  0  0  0  0  0  0
   16.8813  -12.9568   19.3271 O   0  0  0  0  0  0  0  0  0  0  0  0
   16.3263  -10.8388   19.7933 N   0  0  0  0  0  0  0  0  0  0  0  0
   16.5902   -9.9637   20.1588 H   0  0  0  0  0  0  0  0  0  0  0  0
   14.9524  -11.0706   19.3428 C   0  0  0  0  0  0  0  0  0  0  0  0
   14.0180  -11.0094   20.5227 C   0  0  0  0  0  0  0  0  0  0  0  0
   13.8610   -9.7914   21.1742 C   0  0  0  0  0  0  0  0  0  0  0  0
   13.0190   -9.6897   22.2649 C   0  0  0  0  0  0  0  0  0  0  0  0
   12.3356  -10.8316   22.7164 C   0  0  0  0  0  0  0  0  0  0  0  0
   12.4826  -12.0612   22.0430 C   0  0  0  0  0  0  0  0  0  0  0  0
   13.3414  -12.1431   20.9484 C   0  0  0  0  0  0  0  0  0  0  0  0
   11.3807  -10.6799   23.8370 C   0  0  0  0  0  0  0  0  0  0  0  0
   10.7999  -11.7219   24.3958 N   0  0  0  0  0  0  0  0  0  0  0  0
   11.0318   -9.4162   24.2349 N   0  0  0  0  0  0  0  0  0  0  0  0
   11.0463  -12.6325   24.1143 H   0  0  0  0  0  0  0  0  0  0  0  0
   11.4622   -8.6334   23.8211 H   0  0  0  0  0  0  0  0  0  0  0  0
   10.3507   -9.2909   24.9346 H   0  0  0  0  0  0  0  0  0  0  0  0
   18.3606  -14.6130   22.8524 C   0  0  0  0  0  0  0  0  0  0  0  0
   18.8138  -14.2573   24.2831 C   0  0  0  0  0  0  0  0  0  0  0  0
   18.9327  -15.5307   25.1401 C   0  0  0  0  0  0  0  0  0  0  0  0
   19.4213  -15.1550   26.5447 C   0  0  0  0  0  0  0  0  0  0  0  0
   20.8129  -14.5071   26.4539 C   0  0  0  0  0  0  0  0  0  0  0  0
   20.7110  -13.1890   25.6730 C   0  0  0  0  0  0  0  0  0  0  0  0
   20.1417  -13.4623   24.2611 C   0  0  0  0  0  0  0  0  0  0  0  0
   17.1240  -15.4280   22.8915 N   0  0  0  0  0  0  0  0  0  0  0  0
   16.4178  -14.8875   23.3911 H   0  0  0  0  0  0  0  0  0  0  0  0
   16.5303  -15.8418   21.5904 C   0  0  0  0  0  0  0  0  0  0  0  0
   15.0523  -16.1698   21.7447 C   0  0  0  0  0  0  0  0  0  0  0  0
   14.6498  -16.8692   22.6662 O   0  0  0  0  0  0  0  0  0  0  0  0
   14.1848  -15.6699   20.8286 N   0  0  0  0  0  0  0  0  0  0  0  0
   14.5613  -15.1369   20.0915 H   0  0  0  0  0  0  0  0  0  0  0  0
   12.2100  -15.4893   19.4578 C   0  0  0  0  0  0  0  0  0  0  0  0
   12.7256  -15.8614   20.8497 C   0  0  0  0  0  0  0  0  0  0  0  0
 25 26  1  0  0  0
 25 30  1  0  0  0
 25 24  1  0  0  0
 26 27  1  0  0  0
 27 28  1  0  0  0
 28 29  1  0  0  0
 29 30  1  0  0  0
 31 24  1  0  0  0
 31 33  1  0  0  0
 24  1  1  0  0  0
  1  2  2  0  0  0
  1  3  1  0  0  0
  3  4  1  0  0  0
  3  6  1  0  0  0
  4  7  1  0  0  0
  4  5  1  0  0  0
  7  8  2  0  0  0
  7  9  1  0  0  0
  9 11  1  0  0  0
 11 12  1  0  0  0
 12 17  2  0  0  0
 12 13  1  0  0  0
 17 16  1  0  0  0
 16 15  2  0  0  0
 15 14  1  0  0  0
 15 18  1  0  0  0
 14 13  2  0  0  0
 18 19  2  0  0  0
 18 20  1  0  0  0
  5  6  1  0  0  0
 33 34  1  0  0  0
 38 39  1  0  0  0
 34 35  2  0  0  0
 34 36  1  0  0  0
 39 36  1  0  0  0
 31 32  1  0  0  0
  9 10  1  0  0  0
 19 21  1  0  0  0
 20 22  1  0  0  0
 20 23  1  0  0  0
 36 37  1  0  0  0
M  END
> <minimizedAffinity>
-10.20809

$$$$
4BAQ_M4Z_B_1287


 39 41  0  0  0  0  0  0  0  0999 V2000
   18.0922  -13.2611   22.1823 C   0  0  0  0  0  0  0  0  0  0  0  0
   17.0712  -12.6647   22.4837 O   0  0  0  0  0  0  0  0  0  0  0  0
   18.8589  -12.7747   21.1758 N   0  0  0  0  0  0  0  0  0  0  0  0
   18.6184  -11.6719   20.2368 C   0  0  0  0  0  0  0  0  0  0  0  0
   19.7751  -12.1310   19.3381 C   0  0  0  0  0  0  0  0  0  0  0  0
   20.0830  -13.1533   20.4398 C   0  0  0  0  0  0  0  0  0  0  0  0
   17.2164  -11.9062   19.7007 C   0  0  0  0  0  0  0  0  0  0  0  0
   16.9055  -13.0387   19.3521 O   0  0  0  0  0  0  0  0  0  0  0  0
   16.2807  -10.9330   19.7842 N   0  0  0  0  0  0  0  0  0  0  0  0
   16.5173  -10.0422   20.1301 H   0  0  0  0  0  0  0  0  0  0  0  0
   14.9114  -11.2216   19.3532 C   0  0  0  0  0  0  0  0  0  0  0  0
   13.9815  -11.1313   20.5348 C   0  0  0  0  0  0  0  0  0  0  0  0
   13.9031   -9.9234   21.2186 C   0  0  0  0  0  0  0  0  0  0  0  0
   13.0682   -9.7964   22.3120 C   0  0  0  0  0  0  0  0  0  0  0  0
   12.3116  -10.9031   22.7334 C   0  0  0  0  0  0  0  0  0  0  0  0
   12.3793  -12.1213   22.0274 C   0  0  0  0  0  0  0  0  0  0  0  0
   13.2323  -12.2296   20.9305 C   0  0  0  0  0  0  0  0  0  0  0  0
   11.3673  -10.7195   23.8581 C   0  0  0  0  0  0  0  0  0  0  0  0
   10.9957   -9.5212   24.2598 N   0  0  0  0  0  0  0  0  0  0  0  0
   10.9459  -11.8257   24.5481 N   0  0  0  0  0  0  0  0  0  0  0  0
   11.2951   -8.7225   23.7684 H   0  0  0  0  0  0  0  0  0  0  0  0
   11.2202  -12.7240   24.2529 H   0  0  0  0  0  0  0  0  0  0  0  0
   10.3689  -11.7223   25.3390 H   0  0  0  0  0  0  0  0  0  0  0  0
   18.4380  -14.5009   22.9665 C   0  0  0  0  0  0  0  0  0  0  0  0
   18.9995  -14.0649   24.3352 C   0  0  0  0  0  0  0  0  0  0  0  0
   19.2068  -15.2897   25.2446 C   0  0  0  0  0  0  0  0  0  0  0  0
   19.8012  -14.8347   26.5834 C   0  0  0  0  0  0  0  0  0  0  0  0
   21.1708  -14.1770   26.3462 C   0  0  0  0  0  0  0  0  0  0  0  0
   20.9859  -12.9032   25.5089 C   0  0  0  0  0  0  0  0  0  0  0  0
   20.3089  -13.2573   24.1640 C   0  0  0  0  0  0  0  0  0  0  0  0
   17.1976  -15.2907   23.1466 N   0  0  0  0  0  0  0  0  0  0  0  0
   16.4243  -14.6305   23.2272 H   0  0  0  0  0  0  0  0  0  0  0  0
   16.8411  -16.2662   22.0799 C   0  0  0  0  0  0  0  0  0  0  0  0
   15.5834  -17.0406   22.4468 C   0  0  0  0  0  0  0  0  0  0  0  0
   14.4696  -16.5606   22.2756 O   0  0  0  0  0  0  0  0  0  0  0  0
   15.7255  -18.2821   22.9762 N   0  0  0  0  0  0  0  0  0  0  0  0
   16.6421  -18.6114   23.1198 H   0  0  0  0  0  0  0  0  0  0  0  0
   14.9100  -19.6696   24.7709 C   0  0  0  0  0  0  0  0  0  0  0  0
   14.6178  -19.1753   23.3526 C   0  0  0  0  0  0  0  0  0  0  0  0
 25 26  1  0  0  0
 25 30  1  0  0  0
 25 24  1  0  0  0
 26 27  1  0  0  0
 27 28  1  0  0  0
 28 29  1  0  0  0
 29 30  1  0  0  0
 31 24  1  0  0  0
 31 33  1  0  0  0
 24  1  1  0  0  0
  1  2  2  0  0  0
  1  3  1  0  0  0
  3  4  1  0  0  0
  3  6  1  0  0  0
  4  7  1  0  0  0
  4  5  1  0  0  0
  7  8  2  0  0  0
  7  9  1  0  0  0
  9 11  1  0  0  0
 11 12  1  0  0  0
 12 17  2  0  0  0
 12 13  1  0  0  0
 17 16  1  0  0  0
 16 15  2  0  0  0
 15 14  1  0  0  0
 15 18  1  0  0  0
 14 13  2  0  0  0
 18 19  2  0  0  0
 18 20  1  0  0  0
  5  6  1  0  0  0
 33 34  1  0  0  0
 38 39  1  0  0  0
 34 35  2  0  0  0
 34 36  1  0  0  0
 39 36  1  0  0  0
 31 32  1  0  0  0
  9 10  1  0  0  0
 19 21  1  0  0  0
 20 22  1  0  0  0
 20 23  1  0  0  0
 36 37  1  0  0  0
M  END
> <minimizedAffinity>
-9.59870

$$$$
4BAQ_M4Z_B_1287


 39 41  0  0  0  0  0  0  0  0999 V2000
   18.1896  -13.2323   22.1800 C   0  0  0  0  0  0  0  0  0  0  0  0
   17.1601  -12.6516   22.4836 O   0  0  0  0  0  0  0  0  0  0  0  0
   18.9508  -12.7296   21.1774 N   0  0  0  0  0  0  0  0  0  0  0  0
   18.6965  -11.6246   20.2447 C   0  0  0  0  0  0  0  0  0  0  0  0
   19.8604  -12.0627   19.3447 C   0  0  0  0  0  0  0  0  0  0  0  0
   20.1808  -13.0872   20.4408 C   0  0  0  0  0  0  0  0  0  0  0  0
   17.2984  -11.8748   19.7054 C   0  0  0  0  0  0  0  0  0  0  0  0
   17.0112  -13.0039   19.3272 O   0  0  0  0  0  0  0  0  0  0  0  0
   16.3423  -10.9245   19.8166 N   0  0  0  0  0  0  0  0  0  0  0  0
   16.5605  -10.0383   20.1858 H   0  0  0  0  0  0  0  0  0  0  0  0
   14.9784  -11.2310   19.3809 C   0  0  0  0  0  0  0  0  0  0  0  0
   14.0309  -11.0725   20.5412 C   0  0  0  0  0  0  0  0  0  0  0  0
   13.4827  -12.2198   21.1034 C   0  0  0  0  0  0  0  0  0  0  0  0
   12.6042  -12.1222   22.1652 C   0  0  0  0  0  0  0  0  0  0  0  0
   12.2603  -10.8528   22.6604 C   0  0  0  0  0  0  0  0  0  0  0  0
   12.8315   -9.6921   22.1004 C   0  0  0  0  0  0  0  0  0  0  0  0
   13.7111   -9.8129   21.0261 C   0  0  0  0  0  0  0  0  0  0  0  0
   11.3791  -10.7783   23.8472 C   0  0  0  0  0  0  0  0  0  0  0  0
   10.8448  -11.8582   24.3800 N   0  0  0  0  0  0  0  0  0  0  0  0
   11.0460   -9.5443   24.3405 N   0  0  0  0  0  0  0  0  0  0  0  0
   11.0801  -12.7478   24.0300 H   0  0  0  0  0  0  0  0  0  0  0  0
   11.4418   -8.7335   23.9466 H   0  0  0  0  0  0  0  0  0  0  0  0
   10.4107   -9.4684   25.0888 H   0  0  0  0  0  0  0  0  0  0  0  0
   18.5512  -14.4719   22.9573 C   0  0  0  0  0  0  0  0  0  0  0  0
   19.0234  -14.0405   24.3608 C   0  0  0  0  0  0  0  0  0  0  0  0
   19.1403  -15.2646   25.2871 C   0  0  0  0  0  0  0  0  0  0  0  0
   19.6478  -14.8150   26.6629 C   0  0  0  0  0  0  0  0  0  0  0  0
   21.0441  -14.1868   26.5210 C   0  0  0  0  0  0  0  0  0  0  0  0
   20.9455  -12.9138   25.6680 C   0  0  0  0  0  0  0  0  0  0  0  0
   20.3582  -13.2608   24.2799 C   0  0  0  0  0  0  0  0  0  0  0  0
   17.3401  -15.3192   23.0592 N   0  0  0  0  0  0  0  0  0  0  0  0
   16.5776  -14.8179   22.6035 H   0  0  0  0  0  0  0  0  0  0  0  0
   17.3994  -16.6805   22.4596 C   0  0  0  0  0  0  0  0  0  0  0  0
   18.8267  -17.0481   22.0805 C   0  0  0  0  0  0  0  0  0  0  0  0
   19.3003  -16.7227   20.9988 O   0  0  0  0  0  0  0  0  0  0  0  0
   19.5664  -17.7540   22.9730 N   0  0  0  0  0  0  0  0  0  0  0  0
   19.1310  -18.0154   23.8163 H   0  0  0  0  0  0  0  0  0  0  0  0
   21.7936  -17.4140   23.8306 C   0  0  0  0  0  0  0  0  0  0  0  0
   20.9681  -18.1596   22.7799 C   0  0  0  0  0  0  0  0  0  0  0  0
 25 26  1  0  0  0
 25 30  1  0  0  0
 25 24  1  0  0  0
 26 27  1  0  0  0
 27 28  1  0  0  0
 28 29  1  0  0  0
 29 30  1  0  0  0
 31 24  1  0  0  0
 31 33  1  0  0  0
 24  1  1  0  0  0
  1  2  2  0  0  0
  1  3  1  0  0  0
  3  4  1  0  0  0
  3  6  1  0  0  0
  4  7  1  0  0  0
  4  5  1  0  0  0
  7  8  2  0  0  0
  7  9  1  0  0  0
  9 11  1  0  0  0
 11 12  1  0  0  0
 12 17  2  0  0  0
 12 13  1  0  0  0
 17 16  1  0  0  0
 16 15  2  0  0  0
 15 14  1  0  0  0
 15 18  1  0  0  0
 14 13  2  0  0  0
 18 19  2  0  0  0
 18 20  1  0  0  0
  5  6  1  0  0  0
 33 34  1  0  0  0
 38 39  1  0  0  0
 34 35  2  0  0  0
 34 36  1  0  0  0
 39 36  1  0  0  0
 31 32  1  0  0  0
  9 10  1  0  0  0
 19 21  1  0  0  0
 20 22  1  0  0  0
 20 23  1  0  0  0
 36 37  1  0  0  0
M  END
> <minimizedAffinity>
-9.30926

$$$$
4BAQ_M4Z_B_1287


 39 41  0  0  0  0  0  0  0  0999 V2000
   17.9039  -13.5964   22.0378 C   0  0  0  0  0  0  0  0  0  0  0  0
   16.9291  -12.9452   22.3767 O   0  0  0  0  0  0  0  0  0  0  0  0
   18.7839  -13.0475   21.1649 N   0  0  0  0  0  0  0  0  0  0  0  0
   18.7211  -11.7931   20.4045 C   0  0  0  0  0  0  0  0  0  0  0  0
   19.8860  -12.2321   19.5062 C   0  0  0  0  0  0  0  0  0  0  0  0
   20.0123  -13.4400   20.4436 C   0  0  0  0  0  0  0  0  0  0  0  0
   17.3435  -11.7862   19.7640 C   0  0  0  0  0  0  0  0  0  0  0  0
   16.9506  -12.8066   19.2116 O   0  0  0  0  0  0  0  0  0  0  0  0
   16.5018  -10.7463   19.9632 N   0  0  0  0  0  0  0  0  0  0  0  0
   16.7981   -9.9546   20.4678 H   0  0  0  0  0  0  0  0  0  0  0  0
   15.1443  -10.8134   19.4186 C   0  0  0  0  0  0  0  0  0  0  0  0
   14.1498  -10.8657   20.5488 C   0  0  0  0  0  0  0  0  0  0  0  0
   13.8468   -9.6825   21.2128 C   0  0  0  0  0  0  0  0  0  0  0  0
   12.9449   -9.6838   22.2594 C   0  0  0  0  0  0  0  0  0  0  0  0
   12.3495  -10.8940   22.6541 C   0  0  0  0  0  0  0  0  0  0  0  0
   12.6448  -12.0892   21.9676 C   0  0  0  0  0  0  0  0  0  0  0  0
   13.5617  -12.0664   20.9182 C   0  0  0  0  0  0  0  0  0  0  0  0
   11.3292  -10.8566   23.7256 C   0  0  0  0  0  0  0  0  0  0  0  0
   10.6798  -11.9401   24.0996 N   0  0  0  0  0  0  0  0  0  0  0  0
   10.9963   -9.6453   24.2725 N   0  0  0  0  0  0  0  0  0  0  0  0
   10.9143  -12.8134   23.7103 H   0  0  0  0  0  0  0  0  0  0  0  0
   11.4779   -8.8319   23.9972 H   0  0  0  0  0  0  0  0  0  0  0  0
   10.2756   -9.5883   24.9407 H   0  0  0  0  0  0  0  0  0  0  0  0
   18.0682  -14.9729   22.6292 C   0  0  0  0  0  0  0  0  0  0  0  0
   16.8988  -15.8512   22.1394 C   0  0  0  0  0  0  0  0  0  0  0  0
   17.0778  -16.2012   20.6510 C   0  0  0  0  0  0  0  0  0  0  0  0
   15.9244  -17.1056   20.1986 C   0  0  0  0  0  0  0  0  0  0  0  0
   15.9451  -18.4150   21.0044 C   0  0  0  0  0  0  0  0  0  0  0  0
   15.6861  -18.1055   22.4859 C   0  0  0  0  0  0  0  0  0  0  0  0
   16.7612  -17.1243   23.0091 C   0  0  0  0  0  0  0  0  0  0  0  0
   19.3596  -15.5243   22.1566 N   0  0  0  0  0  0  0  0  0  0  0  0
   19.8043  -14.8093   21.5809 H   0  0  0  0  0  0  0  0  0  0  0  0
   20.3478  -15.9443   23.1878 C   0  0  0  0  0  0  0  0  0  0  0  0
   21.1041  -14.7446   23.7397 C   0  0  0  0  0  0  0  0  0  0  0  0
   22.2516  -14.5005   23.3877 O   0  0  0  0  0  0  0  0  0  0  0  0
   20.4750  -13.9483   24.6408 N   0  0  0  0  0  0  0  0  0  0  0  0
   19.5635  -14.2030   24.9121 H   0  0  0  0  0  0  0  0  0  0  0  0
   21.1280  -12.9849   26.7519 C   0  0  0  0  0  0  0  0  0  0  0  0
   21.0473  -12.7341   25.2446 C   0  0  0  0  0  0  0  0  0  0  0  0
 25 26  1  0  0  0
 25 30  1  0  0  0
 25 24  1  0  0  0
 26 27  1  0  0  0
 27 28  1  0  0  0
 28 29  1  0  0  0
 29 30  1  0  0  0
 31 24  1  0  0  0
 31 33  1  0  0  0
 24  1  1  0  0  0
  1  2  2  0  0  0
  1  3  1  0  0  0
  3  4  1  0  0  0
  3  6  1  0  0  0
  4  7  1  0  0  0
  4  5  1  0  0  0
  7  8  2  0  0  0
  7  9  1  0  0  0
  9 11  1  0  0  0
 11 12  1  0  0  0
 12 17  2  0  0  0
 12 13  1  0  0  0
 17 16  1  0  0  0
 16 15  2  0  0  0
 15 14  1  0  0  0
 15 18  1  0  0  0
 14 13  2  0  0  0
 18 19  2  0  0  0
 18 20  1  0  0  0
  5  6  1  0  0  0
 33 34  1  0  0  0
 38 39  1  0  0  0
 34 35  2  0  0  0
 34 36  1  0  0  0
 39 36  1  0  0  0
 31 32  1  0  0  0
  9 10  1  0  0  0
 19 21  1  0  0  0
 20 22  1  0  0  0
 20 23  1  0  0  0
 36 37  1  0  0  0
M  END
> <minimizedAffinity>
-8.71485

$$$$
4BAQ_M4Z_B_1287


 39 41  0  0  0  0  0  0  0  0999 V2000
   13.8134  -13.3660   21.6263 C   0  0  0  0  0  0  0  0  0  0  0  0
   14.8512  -13.2268   22.2531 O   0  0  0  0  0  0  0  0  0  0  0  0
   13.3545  -14.6202   21.3944 N   0  0  0  0  0  0  0  0  0  0  0  0
   13.9680  -15.9277   21.6586 C   0  0  0  0  0  0  0  0  0  0  0  0
   12.9380  -16.6364   20.7679 C   0  0  0  0  0  0  0  0  0  0  0  0
   12.2435  -15.2719   20.6703 C   0  0  0  0  0  0  0  0  0  0  0  0
   15.3783  -15.8233   21.1034 C   0  0  0  0  0  0  0  0  0  0  0  0
   15.5217  -15.6705   19.8965 O   0  0  0  0  0  0  0  0  0  0  0  0
   16.4359  -15.7121   21.9394 N   0  0  0  0  0  0  0  0  0  0  0  0
   16.3089  -15.7663   22.9141 H   0  0  0  0  0  0  0  0  0  0  0  0
   17.7721  -15.5102   21.3757 C   0  0  0  0  0  0  0  0  0  0  0  0
   18.6987  -14.9967   22.4466 C   0  0  0  0  0  0  0  0  0  0  0  0
   20.0587  -15.2547   22.3180 C   0  0  0  0  0  0  0  0  0  0  0  0
   20.9451  -14.8083   23.2792 C   0  0  0  0  0  0  0  0  0  0  0  0
   20.4564  -14.1049   24.3932 C   0  0  0  0  0  0  0  0  0  0  0  0
   19.0792  -13.8290   24.5122 C   0  0  0  0  0  0  0  0  0  0  0  0
   18.2017  -14.2934   23.5340 C   0  0  0  0  0  0  0  0  0  0  0  0
   21.4330  -13.5702   25.3684 C   0  0  0  0  0  0  0  0  0  0  0  0
   21.1139  -13.3791   26.6321 N   0  0  0  0  0  0  0  0  0  0  0  0
   22.6673  -13.1841   24.9161 N   0  0  0  0  0  0  0  0  0  0  0  0
   20.2285  -13.6543   26.9632 H   0  0  0  0  0  0  0  0  0  0  0  0
   22.9118  -13.3242   23.9727 H   0  0  0  0  0  0  0  0  0  0  0  0
   23.3097  -12.7667   25.5343 H   0  0  0  0  0  0  0  0  0  0  0  0
   13.1024  -12.1211   21.1613 C   0  0  0  0  0  0  0  0  0  0  0  0
   12.9791  -11.1594   22.3608 C   0  0  0  0  0  0  0  0  0  0  0  0
   12.9323   -9.6993   21.8749 C   0  0  0  0  0  0  0  0  0  0  0  0
   12.7709   -8.7664   23.0817 C   0  0  0  0  0  0  0  0  0  0  0  0
   11.4477   -9.0741   23.8020 C   0  0  0  0  0  0  0  0  0  0  0  0
   11.4969  -10.4995   24.3708 C   0  0  0  0  0  0  0  0  0  0  0  0
   11.7440  -11.5094   23.2257 C   0  0  0  0  0  0  0  0  0  0  0  0
   13.9142  -11.5032   20.0870 N   0  0  0  0  0  0  0  0  0  0  0  0
   14.3013  -10.6354   20.4577 H   0  0  0  0  0  0  0  0  0  0  0  0
   15.0469  -12.2970   19.5364 C   0  0  0  0  0  0  0  0  0  0  0  0
   16.3718  -11.5805   19.7538 C   0  0  0  0  0  0  0  0  0  0  0  0
   16.6115  -10.5096   19.2096 O   0  0  0  0  0  0  0  0  0  0  0  0
   17.2902  -12.1618   20.5665 N   0  0  0  0  0  0  0  0  0  0  0  0
   17.0608  -13.0357   20.9575 H   0  0  0  0  0  0  0  0  0  0  0  0
   19.6365  -12.2936   20.0289 C   0  0  0  0  0  0  0  0  0  0  0  0
   18.6021  -11.5894   20.9095 C   0  0  0  0  0  0  0  0  0  0  0  0
 25 26  1  0  0  0
 25 30  1  0  0  0
 25 24  1  0  0  0
 26 27  1  0  0  0
 27 28  1  0  0  0
 28 29  1  0  0  0
 29 30  1  0  0  0
 31 24  1  0  0  0
 31 33  1  0  0  0
 24  1  1  0  0  0
  1  2  2  0  0  0
  1  3  1  0  0  0
  3  4  1  0  0  0
  3  6  1  0  0  0
  4  7  1  0  0  0
  4  5  1  0  0  0
  7  8  2  0  0  0
  7  9  1  0  0  0
  9 11  1  0  0  0
 11 12  1  0  0  0
 12 17  2  0  0  0
 12 13  1  0  0  0
 17 16  1  0  0  0
 16 15  2  0  0  0
 15 14  1  0  0  0
 15 18  1  0  0  0
 14 13  2  0  0  0
 18 19  2  0  0  0
 18 20  1  0  0  0
  5  6  1  0  0  0
 33 34  1  0  0  0
 38 39  1  0  0  0
 34 35  2  0  0  0
 34 36  1  0  0  0
 39 36  1  0  0  0
 31 32  1  0  0  0
  9 10  1  0  0  0
 19 21  1  0  0  0
 20 22  1  0  0  0
 20 23  1  0  0  0
 36 37  1  0  0  0
M  END
> <minimizedAffinity>
-8.42330

$$$$
4BAQ_M4Z_B_1287


 39 41  0  0  0  0  0  0  0  0999 V2000
   18.1435  -13.4324   22.1012 C   0  0  0  0  0  0  0  0  0  0  0  0
   17.1326  -12.8380   22.4386 O   0  0  0  0  0  0  0  0  0  0  0  0
   18.9382  -12.8810   21.1515 N   0  0  0  0  0  0  0  0  0  0  0  0
   18.7402  -11.6955   20.3082 C   0  0  0  0  0  0  0  0  0  0  0  0
   19.8998  -12.1052   19.3895 C   0  0  0  0  0  0  0  0  0  0  0  0
   20.1646  -13.2262   20.4030 C   0  0  0  0  0  0  0  0  0  0  0  0
   17.3418  -11.8466   19.7340 C   0  0  0  0  0  0  0  0  0  0  0  0
   17.0189  -12.9283   19.2583 O   0  0  0  0  0  0  0  0  0  0  0  0
   16.4195  -10.8738   19.9147 N   0  0  0  0  0  0  0  0  0  0  0  0
   16.6646  -10.0307   20.3601 H   0  0  0  0  0  0  0  0  0  0  0  0
   15.0517  -11.0910   19.4394 C   0  0  0  0  0  0  0  0  0  0  0  0
   14.0868  -10.9148   20.5826 C   0  0  0  0  0  0  0  0  0  0  0  0
   13.3274  -12.0108   20.9765 C   0  0  0  0  0  0  0  0  0  0  0  0
   12.4252  -11.8940   22.0163 C   0  0  0  0  0  0  0  0  0  0  0  0
   12.2733  -10.6544   22.6605 C   0  0  0  0  0  0  0  0  0  0  0  0
   13.0573   -9.5495   22.2712 C   0  0  0  0  0  0  0  0  0  0  0  0
   13.9574   -9.6876   21.2161 C   0  0  0  0  0  0  0  0  0  0  0  0
   11.3582  -10.5750   23.8211 C   0  0  0  0  0  0  0  0  0  0  0  0
   10.7966  -11.6510   24.3332 N   0  0  0  0  0  0  0  0  0  0  0  0
   11.0242   -9.3394   24.3098 N   0  0  0  0  0  0  0  0  0  0  0  0
   11.0324  -12.5417   23.9864 H   0  0  0  0  0  0  0  0  0  0  0  0
   11.4404   -8.5314   23.9313 H   0  0  0  0  0  0  0  0  0  0  0  0
   10.3681   -9.2595   25.0393 H   0  0  0  0  0  0  0  0  0  0  0  0
   18.4460  -14.7435   22.7800 C   0  0  0  0  0  0  0  0  0  0  0  0
   18.1185  -15.8838   21.7944 C   0  0  0  0  0  0  0  0  0  0  0  0
   19.2665  -16.9091   21.7599 C   0  0  0  0  0  0  0  0  0  0  0  0
   18.9004  -18.0509   20.8034 C   0  0  0  0  0  0  0  0  0  0  0  0
   17.6355  -18.7650   21.3080 C   0  0  0  0  0  0  0  0  0  0  0  0
   16.4516  -17.7876   21.2753 C   0  0  0  0  0  0  0  0  0  0  0  0
   16.7699  -16.5540   22.1522 C   0  0  0  0  0  0  0  0  0  0  0  0
   19.8865  -14.7596   23.1260 N   0  0  0  0  0  0  0  0  0  0  0  0
   20.3642  -14.1384   22.4730 H   0  0  0  0  0  0  0  0  0  0  0  0
   20.2691  -14.3391   24.5019 C   0  0  0  0  0  0  0  0  0  0  0  0
   19.7540  -15.3277   25.5378 C   0  0  0  0  0  0  0  0  0  0  0  0
   19.4442  -14.9626   26.6652 O   0  0  0  0  0  0  0  0  0  0  0  0
   19.6495  -16.6334   25.1827 N   0  0  0  0  0  0  0  0  0  0  0  0
   19.9375  -16.8805   24.2743 H   0  0  0  0  0  0  0  0  0  0  0  0
   18.8337  -18.9015   25.1389 C   0  0  0  0  0  0  0  0  0  0  0  0
   19.1398  -17.7094   26.0482 C   0  0  0  0  0  0  0  0  0  0  0  0
 25 26  1  0  0  0
 25 30  1  0  0  0
 25 24  1  0  0  0
 26 27  1  0  0  0
 27 28  1  0  0  0
 28 29  1  0  0  0
 29 30  1  0  0  0
 31 24  1  0  0  0
 31 33  1  0  0  0
 24  1  1  0  0  0
  1  2  2  0  0  0
  1  3  1  0  0  0
  3  4  1  0  0  0
  3  6  1  0  0  0
  4  7  1  0  0  0
  4  5  1  0  0  0
  7  8  2  0  0  0
  7  9  1  0  0  0
  9 11  1  0  0  0
 11 12  1  0  0  0
 12 17  2  0  0  0
 12 13  1  0  0  0
 17 16  1  0  0  0
 16 15  2  0  0  0
 15 14  1  0  0  0
 15 18  1  0  0  0
 14 13  2  0  0  0
 18 19  2  0  0  0
 18 20  1  0  0  0
  5  6  1  0  0  0
 33 34  1  0  0  0
 38 39  1  0  0  0
 34 35  2  0  0  0
 34 36  1  0  0  0
 39 36  1  0  0  0
 31 32  1  0  0  0
  9 10  1  0  0  0
 19 21  1  0  0  0
 20 22  1  0  0  0
 20 23  1  0  0  0
 36 37  1  0  0  0
M  END
> <minimizedAffinity>
-8.02209

$$$$
4BAQ_M4Z_B_1287


 39 41  0  0  0  0  0  0  0  0999 V2000
   12.8727  -13.8941   20.6414 C   0  0  0  0  0  0  0  0  0  0  0  0
   13.0088  -13.8863   19.4287 O   0  0  0  0  0  0  0  0  0  0  0  0
   12.7598  -12.7107   21.2928 N   0  0  0  0  0  0  0  0  0  0  0  0
   12.9051  -11.3330   20.8064 C   0  0  0  0  0  0  0  0  0  0  0  0
   12.9750  -10.7909   22.2409 C   0  0  0  0  0  0  0  0  0  0  0  0
   12.6491  -12.2233   22.6833 C   0  0  0  0  0  0  0  0  0  0  0  0
   14.2052  -11.3251   20.0205 C   0  0  0  0  0  0  0  0  0  0  0  0
   14.2121  -10.8142   18.9071 O   0  0  0  0  0  0  0  0  0  0  0  0
   15.3632  -11.7007   20.6101 N   0  0  0  0  0  0  0  0  0  0  0  0
   15.3640  -12.0471   21.5317 H   0  0  0  0  0  0  0  0  0  0  0  0
   16.6154  -11.5856   19.8600 C   0  0  0  0  0  0  0  0  0  0  0  0
   17.7286  -12.2422   20.6336 C   0  0  0  0  0  0  0  0  0  0  0  0
   17.4120  -12.8796   21.8278 C   0  0  0  0  0  0  0  0  0  0  0  0
   18.4018  -13.4901   22.5738 C   0  0  0  0  0  0  0  0  0  0  0  0
   19.7313  -13.4473   22.1207 C   0  0  0  0  0  0  0  0  0  0  0  0
   20.0470  -12.8160   20.9005 C   0  0  0  0  0  0  0  0  0  0  0  0
   19.0341  -12.2014   20.1664 C   0  0  0  0  0  0  0  0  0  0  0  0
   20.7603  -14.1748   22.8969 C   0  0  0  0  0  0  0  0  0  0  0  0
   21.4606  -13.5818   23.8420 N   0  0  0  0  0  0  0  0  0  0  0  0
   21.0454  -15.4706   22.5552 N   0  0  0  0  0  0  0  0  0  0  0  0
   21.2606  -12.6508   24.0921 H   0  0  0  0  0  0  0  0  0  0  0  0
   20.5257  -15.9194   21.8497 H   0  0  0  0  0  0  0  0  0  0  0  0
   21.7700  -15.9529   23.0151 H   0  0  0  0  0  0  0  0  0  0  0  0
   12.8265  -15.2320   21.3336 C   0  0  0  0  0  0  0  0  0  0  0  0
   12.7831  -16.3325   20.2538 C   0  0  0  0  0  0  0  0  0  0  0  0
   12.8933  -17.7245   20.9020 C   0  0  0  0  0  0  0  0  0  0  0  0
   12.8088  -18.8012   19.8128 C   0  0  0  0  0  0  0  0  0  0  0  0
   11.4498  -18.7115   19.0989 C   0  0  0  0  0  0  0  0  0  0  0  0
   11.3443  -17.3630   18.3721 C   0  0  0  0  0  0  0  0  0  0  0  0
   11.5052  -16.2089   19.3891 C   0  0  0  0  0  0  0  0  0  0  0  0
   14.0514  -15.3656   22.1562 N   0  0  0  0  0  0  0  0  0  0  0  0
   13.9417  -16.1991   22.7339 H   0  0  0  0  0  0  0  0  0  0  0  0
   15.3515  -15.4871   21.4412 C   0  0  0  0  0  0  0  0  0  0  0  0
   16.2184  -16.5710   22.0654 C   0  0  0  0  0  0  0  0  0  0  0  0
   16.6683  -17.4904   21.3926 O   0  0  0  0  0  0  0  0  0  0  0  0
   16.4796  -16.4976   23.3952 N   0  0  0  0  0  0  0  0  0  0  0  0
   16.0718  -15.7550   23.8968 H   0  0  0  0  0  0  0  0  0  0  0  0
   18.4168  -16.6112   24.8255 C   0  0  0  0  0  0  0  0  0  0  0  0
   17.3241  -17.4401   24.1468 C   0  0  0  0  0  0  0  0  0  0  0  0
 25 26  1  0  0  0
 25 30  1  0  0  0
 25 24  1  0  0  0
 26 27  1  0  0  0
 27 28  1  0  0  0
 28 29  1  0  0  0
 29 30  1  0  0  0
 31 24  1  0  0  0
 31 33  1  0  0  0
 24  1  1  0  0  0
  1  2  2  0  0  0
  1  3  1  0  0  0
  3  4  1  0  0  0
  3  6  1  0  0  0
  4  7  1  0  0  0
  4  5  1  0  0  0
  7  8  2  0  0  0
  7  9  1  0  0  0
  9 11  1  0  0  0
 11 12  1  0  0  0
 12 17  2  0  0  0
 12 13  1  0  0  0
 17 16  1  0  0  0
 16 15  2  0  0  0
 15 14  1  0  0  0
 15 18  1  0  0  0
 14 13  2  0  0  0
 18 19  2  0  0  0
 18 20  1  0  0  0
  5  6  1  0  0  0
 33 34  1  0  0  0
 38 39  1  0  0  0
 34 35  2  0  0  0
 34 36  1  0  0  0
 39 36  1  0  0  0
 31 32  1  0  0  0
  9 10  1  0  0  0
 19 21  1  0  0  0
 20 22  1  0  0  0
 20 23  1  0  0  0
 36 37  1  0  0  0
M  END
> <minimizedAffinity>
-7.80210

$$$$
4BAQ_M4Z_B_1287


 39 41  0  0  0  0  0  0  0  0999 V2000
   15.0751  -15.8453   21.5155 C   0  0  0  0  0  0  0  0  0  0  0  0
   14.6119  -16.2171   22.5816 O   0  0  0  0  0  0  0  0  0  0  0  0
   15.4475  -16.7781   20.6052 N   0  0  0  0  0  0  0  0  0  0  0  0
   15.5234  -18.2406   20.7100 C   0  0  0  0  0  0  0  0  0  0  0  0
   16.3449  -18.3312   19.4163 C   0  0  0  0  0  0  0  0  0  0  0  0
   16.0840  -16.8262   19.2726 C   0  0  0  0  0  0  0  0  0  0  0  0
   16.2744  -18.5070   22.0035 C   0  0  0  0  0  0  0  0  0  0  0  0
   15.8296  -19.3481   22.7751 O   0  0  0  0  0  0  0  0  0  0  0  0
   17.4981  -17.9679   22.2074 N   0  0  0  0  0  0  0  0  0  0  0  0
   17.8839  -17.3441   21.5506 H   0  0  0  0  0  0  0  0  0  0  0  0
   18.2415  -18.3241   23.4175 C   0  0  0  0  0  0  0  0  0  0  0  0
   18.9053  -17.0951   23.9814 C   0  0  0  0  0  0  0  0  0  0  0  0
   20.2196  -16.8307   23.6133 C   0  0  0  0  0  0  0  0  0  0  0  0
   20.8705  -15.7181   24.1107 C   0  0  0  0  0  0  0  0  0  0  0  0
   20.1960  -14.8666   25.0022 C   0  0  0  0  0  0  0  0  0  0  0  0
   18.8577  -15.1271   25.3597 C   0  0  0  0  0  0  0  0  0  0  0  0
   18.2216  -16.2580   24.8508 C   0  0  0  0  0  0  0  0  0  0  0  0
   20.8877  -13.6406   25.4595 C   0  0  0  0  0  0  0  0  0  0  0  0
   21.4852  -13.5808   26.6320 N   0  0  0  0  0  0  0  0  0  0  0  0
   20.8217  -12.5190   24.6754 N   0  0  0  0  0  0  0  0  0  0  0  0
   21.5359  -14.3833   27.2001 H   0  0  0  0  0  0  0  0  0  0  0  0
   20.3765  -12.5572   23.7981 H   0  0  0  0  0  0  0  0  0  0  0  0
   21.2194  -11.6749   24.9892 H   0  0  0  0  0  0  0  0  0  0  0  0
   15.1892  -14.3611   21.2797 C   0  0  0  0  0  0  0  0  0  0  0  0
   16.6099  -14.0633   20.7585 C   0  0  0  0  0  0  0  0  0  0  0  0
   16.6947  -12.6211   20.2267 C   0  0  0  0  0  0  0  0  0  0  0  0
   18.1250  -12.3375   19.7507 C   0  0  0  0  0  0  0  0  0  0  0  0
   19.1008  -12.4707   20.9315 C   0  0  0  0  0  0  0  0  0  0  0  0
   19.0998  -13.9224   21.4319 C   0  0  0  0  0  0  0  0  0  0  0  0
   17.6685  -14.3262   21.8568 C   0  0  0  0  0  0  0  0  0  0  0  0
   14.1781  -13.9783   20.2667 N   0  0  0  0  0  0  0  0  0  0  0  0
   14.0003  -14.7990   19.6877 H   0  0  0  0  0  0  0  0  0  0  0  0
   12.8619  -13.4866   20.7588 C   0  0  0  0  0  0  0  0  0  0  0  0
   12.9084  -11.9918   21.0404 C   0  0  0  0  0  0  0  0  0  0  0  0
   13.4856  -11.2207   20.2838 O   0  0  0  0  0  0  0  0  0  0  0  0
   12.2953  -11.5301   22.1597 N   0  0  0  0  0  0  0  0  0  0  0  0
   11.8695  -12.1934   22.7497 H   0  0  0  0  0  0  0  0  0  0  0  0
   11.6032  -10.0879   23.9632 C   0  0  0  0  0  0  0  0  0  0  0  0
   12.2164  -10.1163   22.5615 C   0  0  0  0  0  0  0  0  0  0  0  0
 25 26  1  0  0  0
 25 30  1  0  0  0
 25 24  1  0  0  0
 26 27  1  0  0  0
 27 28  1  0  0  0
 28 29  1  0  0  0
 29 30  1  0  0  0
 31 24  1  0  0  0
 31 33  1  0  0  0
 24  1  1  0  0  0
  1  2  2  0  0  0
  1  3  1  0  0  0
  3  4  1  0  0  0
  3  6  1  0  0  0
  4  7  1  0  0  0
  4  5  1  0  0  0
  7  8  2  0  0  0
  7  9  1  0  0  0
  9 11  1  0  0  0
 11 12  1  0  0  0
 12 17  2  0  0  0
 12 13  1  0  0  0
 17 16  1  0  0  0
 16 15  2  0  0  0
 15 14  1  0  0  0
 15 18  1  0  0  0
 14 13  2  0  0  0
 18 19  2  0  0  0
 18 20  1  0  0  0
  5  6  1  0  0  0
 33 34  1  0  0  0
 38 39  1  0  0  0
 34 35  2  0  0  0
 34 36  1  0  0  0
 39 36  1  0  0  0
 31 32  1  0  0  0
  9 10  1  0  0  0
 19 21  1  0  0  0
 20 22  1  0  0  0
 20 23  1  0  0  0
 36 37  1  0  0  0
M  END
> <minimizedAffinity>
-7.70917

$$$$
4BAQ_M4Z_B_1287


 39 41  0  0  0  0  0  0  0  0999 V2000
   17.1972  -17.0829   22.2894 C   0  0  0  0  0  0  0  0  0  0  0  0
   17.2652  -17.0120   21.0730 O   0  0  0  0  0  0  0  0  0  0  0  0
   16.3794  -18.0109   22.8441 N   0  0  0  0  0  0  0  0  0  0  0  0
   15.4044  -18.9185   22.2266 C   0  0  0  0  0  0  0  0  0  0  0  0
   14.7823  -19.2441   23.5917 C   0  0  0  0  0  0  0  0  0  0  0  0
   15.9304  -18.4214   24.1906 C   0  0  0  0  0  0  0  0  0  0  0  0
   14.5767  -18.0419   21.3022 C   0  0  0  0  0  0  0  0  0  0  0  0
   14.2196  -18.5024   20.2247 O   0  0  0  0  0  0  0  0  0  0  0  0
   14.0895  -16.8576   21.7376 N   0  0  0  0  0  0  0  0  0  0  0  0
   14.3229  -16.5212   22.6329 H   0  0  0  0  0  0  0  0  0  0  0  0
   13.2105  -16.0823   20.8599 C   0  0  0  0  0  0  0  0  0  0  0  0
   13.7280  -14.6722   20.7462 C   0  0  0  0  0  0  0  0  0  0  0  0
   15.0913  -14.4571   20.9128 C   0  0  0  0  0  0  0  0  0  0  0  0
   15.6097  -13.1795   20.8232 C   0  0  0  0  0  0  0  0  0  0  0  0
   14.7438  -12.1005   20.5768 C   0  0  0  0  0  0  0  0  0  0  0  0
   13.3645  -12.3235   20.3904 C   0  0  0  0  0  0  0  0  0  0  0  0
   12.8617  -13.6195   20.4906 C   0  0  0  0  0  0  0  0  0  0  0  0
   15.3330  -10.7533   20.4079 C   0  0  0  0  0  0  0  0  0  0  0  0
   16.5725  -10.5881   19.9936 N   0  0  0  0  0  0  0  0  0  0  0  0
   14.5924   -9.6622   20.7797 N   0  0  0  0  0  0  0  0  0  0  0  0
   17.1098  -11.3682   19.7250 H   0  0  0  0  0  0  0  0  0  0  0  0
   13.6655   -9.7790   21.0902 H   0  0  0  0  0  0  0  0  0  0  0  0
   14.9872   -8.7614   20.7363 H   0  0  0  0  0  0  0  0  0  0  0  0
   18.0449  -16.1330   23.0960 C   0  0  0  0  0  0  0  0  0  0  0  0
   18.9622  -16.9661   24.0144 C   0  0  0  0  0  0  0  0  0  0  0  0
   20.3913  -17.0142   23.4440 C   0  0  0  0  0  0  0  0  0  0  0  0
   21.2915  -17.8145   24.3936 C   0  0  0  0  0  0  0  0  0  0  0  0
   21.3462  -17.1205   25.7647 C   0  0  0  0  0  0  0  0  0  0  0  0
   19.9469  -17.1306   26.3968 C   0  0  0  0  0  0  0  0  0  0  0  0
   18.9467  -16.4133   25.4601 C   0  0  0  0  0  0  0  0  0  0  0  0
   18.8549  -15.3271   22.1529 N   0  0  0  0  0  0  0  0  0  0  0  0
   18.4913  -15.4976   21.2153 H   0  0  0  0  0  0  0  0  0  0  0  0
   18.8861  -13.8528   22.3574 C   0  0  0  0  0  0  0  0  0  0  0  0
   20.1680  -13.4260   23.0578 C   0  0  0  0  0  0  0  0  0  0  0  0
   21.2149  -13.2874   22.4372 O   0  0  0  0  0  0  0  0  0  0  0  0
   20.1254  -13.2055   24.3962 N   0  0  0  0  0  0  0  0  0  0  0  0
   19.2669  -13.3577   24.8535 H   0  0  0  0  0  0  0  0  0  0  0  0
   21.0393  -13.3192   26.6241 C   0  0  0  0  0  0  0  0  0  0  0  0
   21.2609  -12.7569   25.2183 C   0  0  0  0  0  0  0  0  0  0  0  0
 25 26  1  0  0  0
 25 30  1  0  0  0
 25 24  1  0  0  0
 26 27  1  0  0  0
 27 28  1  0  0  0
 28 29  1  0  0  0
 29 30  1  0  0  0
 31 24  1  0  0  0
 31 33  1  0  0  0
 24  1  1  0  0  0
  1  2  2  0  0  0
  1  3  1  0  0  0
  3  4  1  0  0  0
  3  6  1  0  0  0
  4  7  1  0  0  0
  4  5  1  0  0  0
  7  8  2  0  0  0
  7  9  1  0  0  0
  9 11  1  0  0  0
 11 12  1  0  0  0
 12 17  2  0  0  0
 12 13  1  0  0  0
 17 16  1  0  0  0
 16 15  2  0  0  0
 15 14  1  0  0  0
 15 18  1  0  0  0
 14 13  2  0  0  0
 18 19  2  0  0  0
 18 20  1  0  0  0
  5  6  1  0  0  0
 33 34  1  0  0  0
 38 39  1  0  0  0
 34 35  2  0  0  0
 34 36  1  0  0  0
 39 36  1  0  0  0
 31 32  1  0  0  0
  9 10  1  0  0  0
 19 21  1  0  0  0
 20 22  1  0  0  0
 20 23  1  0  0  0
 36 37  1  0  0  0
M  END
> <minimizedAffinity>
-7.64960

$$$$
4BAQ_M4Z_B_1287


 39 41  0  0  0  0  0  0  0  0999 V2000
   17.5114  -16.3094   21.7778 C   0  0  0  0  0  0  0  0  0  0  0  0
   17.3208  -16.4520   20.5809 O   0  0  0  0  0  0  0  0  0  0  0  0
   16.9233  -17.1748   22.6397 N   0  0  0  0  0  0  0  0  0  0  0  0
   15.9395  -18.2391   22.4048 C   0  0  0  0  0  0  0  0  0  0  0  0
   15.6470  -18.3560   23.9072 C   0  0  0  0  0  0  0  0  0  0  0  0
   16.8041  -17.3672   24.0999 C   0  0  0  0  0  0  0  0  0  0  0  0
   14.8552  -17.5966   21.5566 C   0  0  0  0  0  0  0  0  0  0  0  0
   14.3497  -18.2559   20.6564 O   0  0  0  0  0  0  0  0  0  0  0  0
   14.3320  -16.3995   21.9072 N   0  0  0  0  0  0  0  0  0  0  0  0
   14.6955  -15.9021   22.6752 H   0  0  0  0  0  0  0  0  0  0  0  0
   13.2182  -15.8529   21.1297 C   0  0  0  0  0  0  0  0  0  0  0  0
   13.2587  -14.3480   21.1801 C   0  0  0  0  0  0  0  0  0  0  0  0
   13.7458  -13.6661   20.0708 C   0  0  0  0  0  0  0  0  0  0  0  0
   13.8071  -12.2859   20.0748 C   0  0  0  0  0  0  0  0  0  0  0  0
   13.3864  -11.5809   21.2153 C   0  0  0  0  0  0  0  0  0  0  0  0
   12.8762  -12.2737   22.3318 C   0  0  0  0  0  0  0  0  0  0  0  0
   12.8283  -13.6665   22.3090 C   0  0  0  0  0  0  0  0  0  0  0  0
   13.3888  -10.1017   21.1656 C   0  0  0  0  0  0  0  0  0  0  0  0
   12.2851   -9.4028   21.3351 N   0  0  0  0  0  0  0  0  0  0  0  0
   14.5553   -9.4580   20.8462 N   0  0  0  0  0  0  0  0  0  0  0  0
   11.4437   -9.8594   21.5648 H   0  0  0  0  0  0  0  0  0  0  0  0
   15.3835   -9.9747   20.7182 H   0  0  0  0  0  0  0  0  0  0  0  0
   14.5653   -8.4788   20.7446 H   0  0  0  0  0  0  0  0  0  0  0  0
   18.4058  -15.1782   22.2159 C   0  0  0  0  0  0  0  0  0  0  0  0
   18.3774  -14.0899   21.1234 C   0  0  0  0  0  0  0  0  0  0  0  0
   17.4321  -12.9453   21.5311 C   0  0  0  0  0  0  0  0  0  0  0  0
   17.4511  -11.8594   20.4479 C   0  0  0  0  0  0  0  0  0  0  0  0
   18.8708  -11.2838   20.3152 C   0  0  0  0  0  0  0  0  0  0  0  0
   19.8236  -12.3854   19.8290 C   0  0  0  0  0  0  0  0  0  0  0  0
   19.8040  -13.5685   20.8250 C   0  0  0  0  0  0  0  0  0  0  0  0
   17.8758  -14.6418   23.4912 N   0  0  0  0  0  0  0  0  0  0  0  0
   17.0295  -15.1655   23.7145 H   0  0  0  0  0  0  0  0  0  0  0  0
   18.7636  -14.6999   24.6849 C   0  0  0  0  0  0  0  0  0  0  0  0
   20.0983  -14.0242   24.4056 C   0  0  0  0  0  0  0  0  0  0  0  0
   20.1643  -12.8262   24.1588 O   0  0  0  0  0  0  0  0  0  0  0  0
   21.2213  -14.7858   24.4318 N   0  0  0  0  0  0  0  0  0  0  0  0
   21.1121  -15.7484   24.6072 H   0  0  0  0  0  0  0  0  0  0  0  0
   23.4802  -15.5129   24.0071 C   0  0  0  0  0  0  0  0  0  0  0  0
   22.5895  -14.2867   24.2188 C   0  0  0  0  0  0  0  0  0  0  0  0
 25 26  1  0  0  0
 25 30  1  0  0  0
 25 24  1  0  0  0
 26 27  1  0  0  0
 27 28  1  0  0  0
 28 29  1  0  0  0
 29 30  1  0  0  0
 31 24  1  0  0  0
 31 33  1  0  0  0
 24  1  1  0  0  0
  1  2  2  0  0  0
  1  3  1  0  0  0
  3  4  1  0  0  0
  3  6  1  0  0  0
  4  7  1  0  0  0
  4  5  1  0  0  0
  7  8  2  0  0  0
  7  9  1  0  0  0
  9 11  1  0  0  0
 11 12  1  0  0  0
 12 17  2  0  0  0
 12 13  1  0  0  0
 17 16  1  0  0  0
 16 15  2  0  0  0
 15 14  1  0  0  0
 15 18  1  0  0  0
 14 13  2  0  0  0
 18 19  2  0  0  0
 18 20  1  0  0  0
  5  6  1  0  0  0
 33 34  1  0  0  0
 38 39  1  0  0  0
 34 35  2  0  0  0
 34 36  1  0  0  0
 39 36  1  0  0  0
 31 32  1  0  0  0
  9 10  1  0  0  0
 19 21  1  0  0  0
 20 22  1  0  0  0
 20 23  1  0  0  0
 36 37  1  0  0  0
M  END
> <minimizedAffinity>
-7.51467

$$$$
