1Y6Q_TDI_A_233


 24 26  0  0  0  0  0  0  0  0999 V2000
   53.8991   75.3371   20.9572 C   0  0  0  0  0  0  0  0  0  0  0  0
   55.7691   74.4204   19.8477 C   0  0  0  0  0  0  0  0  0  0  0  0
   54.9710   74.1150   18.7131 C   0  0  0  0  0  0  0  0  0  0  0  0
   53.6028   74.4530   18.7692 C   0  0  0  0  0  0  0  0  0  0  0  0
   57.1037   73.9601   19.5066 C   0  0  0  0  0  0  0  0  0  0  0  0
   57.0569   73.4334   18.2625 C   0  0  0  0  0  0  0  0  0  0  0  0
   55.7846   73.5220   17.7808 N   0  0  0  0  0  0  0  0  0  0  0  0
   52.7788   74.1700   17.6859 N   0  0  0  0  0  0  0  0  0  0  0  0
   53.1120   75.0595   19.9041 N   0  0  0  0  0  0  0  0  0  0  0  0
   55.2059   75.0273   20.9406 N   0  0  0  0  0  0  0  0  0  0  0  0
   55.4927   73.2071   16.8948 H   0  0  0  0  0  0  0  0  0  0  0  0
   53.1510   73.7359   16.8845 H   0  0  0  0  0  0  0  0  0  0  0  0
   51.8231   74.4037   17.7201 H   0  0  0  0  0  0  0  0  0  0  0  0
   58.3142   74.0538   20.3966 C   0  0  0  0  0  0  0  0  0  0  0  0
   58.1935   71.2781   22.4259 C   0  0  0  0  0  0  0  0  0  0  0  0
   58.4416   72.0111   21.1040 C   0  0  0  0  0  0  0  0  0  0  0  0
   58.9840   73.3489   21.4992 N   0  0  0  0  0  0  0  0  0  0  0  0
   58.2220   73.7101   22.7389 C   0  0  0  0  0  0  0  0  0  0  0  0
   58.1373   72.3827   23.5255 C   0  0  0  0  0  0  0  0  0  0  0  0
   59.5041   72.1948   23.9600 O   0  0  0  0  0  0  0  0  0  0  0  0
   60.0962   72.2389   23.1929 H   0  0  0  0  0  0  0  0  0  0  0  0
   56.8032   70.7932   22.7919 C   0  0  0  0  0  0  0  0  0  0  0  0
   56.5790   68.3262   22.4811 C   0  0  0  0  0  0  0  0  0  0  0  0
   55.7623   69.5524   23.5610 S   0  0  0  0  0  0  0  0  0  0  0  0
  1  9  2  0  0  0
  1 10  1  0  0  0
  2  3  1  0  0  0
  2  5  1  0  0  0
  2 10  2  0  0  0
  3  4  2  0  0  0
  3  7  1  0  0  0
  4  8  1  0  0  0
  4  9  1  0  0  0
 23 24  1  0  0  0
 24 22  1  0  0  0
 22 15  1  0  0  0
 15 16  1  0  0  0
 15 19  1  0  0  0
 16 17  1  0  0  0
 17 14  1  0  0  0
 17 18  1  0  0  0
 14  5  1  0  0  0
  5  6  2  0  0  0
  6  7  1  0  0  0
 18 19  1  0  0  0
 19 20  1  0  0  0
  7 11  1  0  0  0
  8 12  1  0  0  0
  8 13  1  0  0  0
 20 21  1  0  0  0
M  END
> <minimizedAffinity>
-9.62255

$$$$
