2W67_F34_A_1716


 19 19  0  0  0  0  0  0  0  0999 V2000
  -14.3570    3.9934   -1.9627 C   0  0  0  0  0  0  0  0  0  0  0  0
  -14.7797    2.9157   -0.9990 C   0  0  0  0  0  0  0  0  0  0  0  0
  -13.5661    2.1972   -0.6022 O   0  0  0  0  0  0  0  0  0  0  0  0
  -15.4027    3.4209    0.2758 C   0  0  0  0  0  0  0  0  0  0  0  0
  -15.5665    2.2455    1.0595 O   0  0  0  0  0  0  0  0  0  0  0  0
  -16.7161    4.2069    0.1582 C   0  0  0  0  0  0  0  0  0  0  0  0
  -17.6762    3.4189    0.8452 O   0  0  0  0  0  0  0  0  0  0  0  0
  -17.3037    4.4584   -1.2369 C   0  0  0  0  0  0  0  0  0  0  0  0
  -16.4902    5.2236   -2.1833 N   0  0  0  0  0  0  0  0  0  0  0  0
  -15.0981    5.3315   -1.7682 C   0  0  0  0  0  0  0  0  0  0  0  0
  -12.9603    2.8084   -0.1547 H   0  0  0  0  0  0  0  0  0  0  0  0
  -16.1573    1.6294    0.5987 H   0  0  0  0  0  0  0  0  0  0  0  0
  -17.7745    2.5647    0.3961 H   0  0  0  0  0  0  0  0  0  0  0  0
  -16.8804    6.1625   -2.2644 H   0  0  0  0  0  0  0  0  0  0  0  0
  -16.2195    2.2931   -3.3290 O   0  0  0  0  0  0  0  0  0  0  0  0
  -15.1486    2.5601   -3.8562 C   0  0  0  0  0  0  0  0  0  0  0  0
  -14.7881    2.0350   -5.2294 C   0  0  0  0  0  0  0  0  0  0  0  0
  -14.2529    3.3750   -3.2925 N   0  0  0  0  0  0  0  0  0  0  0  0
  -13.4461    3.5813   -3.8176 H   0  0  0  0  0  0  0  0  0  0  0  0
 15 16  2  0  0  0
 16 17  1  0  0  0
 16 18  1  0  0  0
 18  1  1  0  0  0
  1  2  1  0  0  0
  1 10  1  0  0  0
  2  3  1  0  0  0
  2  4  1  0  0  0
  4  5  1  0  0  0
  4  6  1  0  0  0
  6  7  1  0  0  0
  6  8  1  0  0  0
  8  9  1  0  0  0
  9 10  1  0  0  0
 18 19  1  0  0  0
  3 11  1  0  0  0
  5 12  1  0  0  0
  7 13  1  0  0  0
  9 14  1  0  0  0
M  END
> <minimizedAffinity>
-9.09243

$$$$
2W67_F34_A_1716


 19 19  0  0  0  0  0  0  0  0999 V2000
  -15.6951    5.5288   -1.4748 C   0  0  0  0  0  0  0  0  0  0  0  0
  -16.2087    4.9408   -0.1867 C   0  0  0  0  0  0  0  0  0  0  0  0
  -17.5456    5.4979    0.0342 O   0  0  0  0  0  0  0  0  0  0  0  0
  -16.3762    3.4440   -0.2013 C   0  0  0  0  0  0  0  0  0  0  0  0
  -17.0031    3.1632    1.0441 O   0  0  0  0  0  0  0  0  0  0  0  0
  -15.1143    2.5930   -0.4010 C   0  0  0  0  0  0  0  0  0  0  0  0
  -14.9823    1.8478    0.7997 O   0  0  0  0  0  0  0  0  0  0  0  0
  -13.7689    3.3031   -0.6017 C   0  0  0  0  0  0  0  0  0  0  0  0
  -13.6389    4.1862   -1.7620 N   0  0  0  0  0  0  0  0  0  0  0  0
  -14.9247    4.5253   -2.3565 C   0  0  0  0  0  0  0  0  0  0  0  0
  -18.1298    5.2350   -0.6941 H   0  0  0  0  0  0  0  0  0  0  0  0
  -16.4236    3.4459    1.7688 H   0  0  0  0  0  0  0  0  0  0  0  0
  -14.8430    2.4548    1.5433 H   0  0  0  0  0  0  0  0  0  0  0  0
  -13.0670    3.7188   -2.4655 H   0  0  0  0  0  0  0  0  0  0  0  0
  -16.3671    8.1053   -2.5411 O   0  0  0  0  0  0  0  0  0  0  0  0
  -15.4640    8.0091   -1.7219 C   0  0  0  0  0  0  0  0  0  0  0  0
  -14.7038    9.2236   -1.2336 C   0  0  0  0  0  0  0  0  0  0  0  0
  -15.1256    6.8466   -1.1578 N   0  0  0  0  0  0  0  0  0  0  0  0
  -14.4282    6.8750   -0.4635 H   0  0  0  0  0  0  0  0  0  0  0  0
 15 16  2  0  0  0
 16 17  1  0  0  0
 16 18  1  0  0  0
 18  1  1  0  0  0
  1  2  1  0  0  0
  1 10  1  0  0  0
  2  3  1  0  0  0
  2  4  1  0  0  0
  4  5  1  0  0  0
  4  6  1  0  0  0
  6  7  1  0  0  0
  6  8  1  0  0  0
  8  9  1  0  0  0
  9 10  1  0  0  0
 18 19  1  0  0  0
  3 11  1  0  0  0
  5 12  1  0  0  0
  7 13  1  0  0  0
  9 14  1  0  0  0
M  END
> <minimizedAffinity>
-7.78347

$$$$
2W67_F34_A_1716


 19 19  0  0  0  0  0  0  0  0999 V2000
  -16.5427    5.1665   -0.0309 C   0  0  0  0  0  0  0  0  0  0  0  0
  -16.0882    3.7305   -0.0440 C   0  0  0  0  0  0  0  0  0  0  0  0
  -16.9624    2.9973    0.8750 O   0  0  0  0  0  0  0  0  0  0  0  0
  -16.2132    3.0433   -1.3784 C   0  0  0  0  0  0  0  0  0  0  0  0
  -15.8748    1.6915   -1.0941 O   0  0  0  0  0  0  0  0  0  0  0  0
  -15.3799    3.5997   -2.5414 C   0  0  0  0  0  0  0  0  0  0  0  0
  -14.4914    2.5490   -2.8898 O   0  0  0  0  0  0  0  0  0  0  0  0
  -14.4958    4.8293   -2.2943 C   0  0  0  0  0  0  0  0  0  0  0  0
  -15.1602    6.0641   -1.8737 N   0  0  0  0  0  0  0  0  0  0  0  0
  -16.5255    5.8401   -1.4180 C   0  0  0  0  0  0  0  0  0  0  0  0
  -17.8781    3.0470    0.5591 H   0  0  0  0  0  0  0  0  0  0  0  0
  -14.9652    1.6494   -0.7599 H   0  0  0  0  0  0  0  0  0  0  0  0
  -13.9058    2.3590   -2.1402 H   0  0  0  0  0  0  0  0  0  0  0  0
  -15.1814    6.7088   -2.6638 H   0  0  0  0  0  0  0  0  0  0  0  0
  -17.1607    7.6793    1.2063 O   0  0  0  0  0  0  0  0  0  0  0  0
  -16.2315    7.0092    1.6346 C   0  0  0  0  0  0  0  0  0  0  0  0
  -15.4100    7.4608    2.8230 C   0  0  0  0  0  0  0  0  0  0  0  0
  -15.9143    5.8138    1.1299 N   0  0  0  0  0  0  0  0  0  0  0  0
  -15.1907    5.3191    1.5780 H   0  0  0  0  0  0  0  0  0  0  0  0
 15 16  2  0  0  0
 16 17  1  0  0  0
 16 18  1  0  0  0
 18  1  1  0  0  0
  1  2  1  0  0  0
  1 10  1  0  0  0
  2  3  1  0  0  0
  2  4  1  0  0  0
  4  5  1  0  0  0
  4  6  1  0  0  0
  6  7  1  0  0  0
  6  8  1  0  0  0
  8  9  1  0  0  0
  9 10  1  0  0  0
 18 19  1  0  0  0
  3 11  1  0  0  0
  5 12  1  0  0  0
  7 13  1  0  0  0
  9 14  1  0  0  0
M  END
> <minimizedAffinity>
-7.54004

$$$$
2W67_F34_A_1716


 19 19  0  0  0  0  0  0  0  0999 V2000
  -16.2386    3.8691    0.4389 C   0  0  0  0  0  0  0  0  0  0  0  0
  -14.9108    3.3609   -0.0584 C   0  0  0  0  0  0  0  0  0  0  0  0
  -14.2614    2.6877    1.0692 O   0  0  0  0  0  0  0  0  0  0  0  0
  -15.0015    2.3382   -1.1605 C   0  0  0  0  0  0  0  0  0  0  0  0
  -13.6553    1.9157   -1.3395 O   0  0  0  0  0  0  0  0  0  0  0  0
  -15.6335    2.7820   -2.4871 C   0  0  0  0  0  0  0  0  0  0  0  0
  -14.5915    2.6690   -3.4442 O   0  0  0  0  0  0  0  0  0  0  0  0
  -16.1595    4.2183   -2.6104 C   0  0  0  0  0  0  0  0  0  0  0  0
  -17.2283    4.6258   -1.6967 N   0  0  0  0  0  0  0  0  0  0  0  0
  -17.3887    3.7094   -0.5759 C   0  0  0  0  0  0  0  0  0  0  0  0
  -14.8057    1.9374    1.3549 H   0  0  0  0  0  0  0  0  0  0  0  0
  -13.1114    2.6734   -1.6058 H   0  0  0  0  0  0  0  0  0  0  0  0
  -13.8731    3.2786   -3.2136 H   0  0  0  0  0  0  0  0  0  0  0  0
  -18.1053    4.6629   -2.2162 H   0  0  0  0  0  0  0  0  0  0  0  0
  -15.0385    6.2559   -0.6048 O   0  0  0  0  0  0  0  0  0  0  0  0
  -15.3935    6.2220    0.5651 C   0  0  0  0  0  0  0  0  0  0  0  0
  -15.2390    7.4213    1.4757 C   0  0  0  0  0  0  0  0  0  0  0  0
  -15.9929    5.1570    1.1041 N   0  0  0  0  0  0  0  0  0  0  0  0
  -16.2994    5.2425    2.0358 H   0  0  0  0  0  0  0  0  0  0  0  0
 15 16  2  0  0  0
 16 17  1  0  0  0
 16 18  1  0  0  0
 18  1  1  0  0  0
  1  2  1  0  0  0
  1 10  1  0  0  0
  2  3  1  0  0  0
  2  4  1  0  0  0
  4  5  1  0  0  0
  4  6  1  0  0  0
  6  7  1  0  0  0
  6  8  1  0  0  0
  8  9  1  0  0  0
  9 10  1  0  0  0
 18 19  1  0  0  0
  3 11  1  0  0  0
  5 12  1  0  0  0
  7 13  1  0  0  0
  9 14  1  0  0  0
M  END
> <minimizedAffinity>
-7.51122

$$$$
2W67_F34_A_1716


 19 19  0  0  0  0  0  0  0  0999 V2000
  -16.2348    6.1698   -0.5592 C   0  0  0  0  0  0  0  0  0  0  0  0
  -16.5936    4.9000    0.1672 C   0  0  0  0  0  0  0  0  0  0  0  0
  -17.7096    5.2197    1.0609 O   0  0  0  0  0  0  0  0  0  0  0  0
  -17.0751    3.7822   -0.7203 C   0  0  0  0  0  0  0  0  0  0  0  0
  -17.4855    2.7764    0.1977 O   0  0  0  0  0  0  0  0  0  0  0  0
  -16.0892    3.2287   -1.7586 C   0  0  0  0  0  0  0  0  0  0  0  0
  -15.8814    1.8765   -1.3805 O   0  0  0  0  0  0  0  0  0  0  0  0
  -14.6914    3.8543   -1.8565 C   0  0  0  0  0  0  0  0  0  0  0  0
  -14.6111    5.2761   -2.1957 N   0  0  0  0  0  0  0  0  0  0  0  0
  -15.8877    5.9618   -2.0472 C   0  0  0  0  0  0  0  0  0  0  0  0
  -18.4699    5.5150    0.5359 H   0  0  0  0  0  0  0  0  0  0  0  0
  -16.7262    2.4986    0.7336 H   0  0  0  0  0  0  0  0  0  0  0  0
  -15.4703    1.8458   -0.5025 H   0  0  0  0  0  0  0  0  0  0  0  0
  -14.3043    5.3638   -3.1645 H   0  0  0  0  0  0  0  0  0  0  0  0
  -16.8753    8.2855    1.2685 O   0  0  0  0  0  0  0  0  0  0  0  0
  -15.7094    7.9439    1.1269 C   0  0  0  0  0  0  0  0  0  0  0  0
  -14.5916    8.5941    1.9137 C   0  0  0  0  0  0  0  0  0  0  0  0
  -15.3464    6.9418    0.3219 N   0  0  0  0  0  0  0  0  0  0  0  0
  -14.3929    6.6967    0.3181 H   0  0  0  0  0  0  0  0  0  0  0  0
 15 16  2  0  0  0
 16 17  1  0  0  0
 16 18  1  0  0  0
 18  1  1  0  0  0
  1  2  1  0  0  0
  1 10  1  0  0  0
  2  3  1  0  0  0
  2  4  1  0  0  0
  4  5  1  0  0  0
  4  6  1  0  0  0
  6  7  1  0  0  0
  6  8  1  0  0  0
  8  9  1  0  0  0
  9 10  1  0  0  0
 18 19  1  0  0  0
  3 11  1  0  0  0
  5 12  1  0  0  0
  7 13  1  0  0  0
  9 14  1  0  0  0
M  END
> <minimizedAffinity>
-7.39920

$$$$
2W67_F34_A_1716


 19 19  0  0  0  0  0  0  0  0999 V2000
  -15.4963    3.3931   -1.1687 C   0  0  0  0  0  0  0  0  0  0  0  0
  -16.8341    3.6584   -0.5295 C   0  0  0  0  0  0  0  0  0  0  0  0
  -17.2301    2.4276    0.1594 O   0  0  0  0  0  0  0  0  0  0  0  0
  -16.8271    4.7407    0.5181 C   0  0  0  0  0  0  0  0  0  0  0  0
  -18.1400    4.6906    1.0627 O   0  0  0  0  0  0  0  0  0  0  0  0
  -16.4589    6.1606    0.0657 C   0  0  0  0  0  0  0  0  0  0  0  0
  -17.6257    6.9335    0.3020 O   0  0  0  0  0  0  0  0  0  0  0  0
  -16.0938    6.3952   -1.4062 C   0  0  0  0  0  0  0  0  0  0  0  0
  -14.9348    5.6752   -1.9366 N   0  0  0  0  0  0  0  0  0  0  0  0
  -14.5135    4.5778   -1.0763 C   0  0  0  0  0  0  0  0  0  0  0  0
  -16.5804    2.2197    0.8490 H   0  0  0  0  0  0  0  0  0  0  0  0
  -18.7868    4.8797    0.3651 H   0  0  0  0  0  0  0  0  0  0  0  0
  -18.3509    6.6011   -0.2498 H   0  0  0  0  0  0  0  0  0  0  0  0
  -14.1593    6.3307   -2.0328 H   0  0  0  0  0  0  0  0  0  0  0  0
  -14.0883    3.6317   -3.6562 O   0  0  0  0  0  0  0  0  0  0  0  0
  -15.0716    2.9074   -3.5874 C   0  0  0  0  0  0  0  0  0  0  0  0
  -15.5533    2.1092   -4.7799 C   0  0  0  0  0  0  0  0  0  0  0  0
  -15.7499    2.7217   -2.4519 N   0  0  0  0  0  0  0  0  0  0  0  0
  -16.4904    2.0734   -2.4765 H   0  0  0  0  0  0  0  0  0  0  0  0
 15 16  2  0  0  0
 16 17  1  0  0  0
 16 18  1  0  0  0
 18  1  1  0  0  0
  1  2  1  0  0  0
  1 10  1  0  0  0
  2  3  1  0  0  0
  2  4  1  0  0  0
  4  5  1  0  0  0
  4  6  1  0  0  0
  6  7  1  0  0  0
  6  8  1  0  0  0
  8  9  1  0  0  0
  9 10  1  0  0  0
 18 19  1  0  0  0
  3 11  1  0  0  0
  5 12  1  0  0  0
  7 13  1  0  0  0
  9 14  1  0  0  0
M  END
> <minimizedAffinity>
-7.26331

$$$$
2W67_F34_A_1716


 19 19  0  0  0  0  0  0  0  0999 V2000
  -15.0812    5.8671   -0.7774 C   0  0  0  0  0  0  0  0  0  0  0  0
  -15.5620    4.6684   -1.5525 C   0  0  0  0  0  0  0  0  0  0  0  0
  -14.4888    4.3006   -2.4796 O   0  0  0  0  0  0  0  0  0  0  0  0
  -15.8302    3.4447   -0.7161 C   0  0  0  0  0  0  0  0  0  0  0  0
  -16.1148    2.4358   -1.6772 O   0  0  0  0  0  0  0  0  0  0  0  0
  -16.9365    3.5410    0.3438 C   0  0  0  0  0  0  0  0  0  0  0  0
  -17.9158    2.5979   -0.0637 O   0  0  0  0  0  0  0  0  0  0  0  0
  -17.6827    4.8710    0.5135 C   0  0  0  0  0  0  0  0  0  0  0  0
  -16.8934    6.0433    0.8953 N   0  0  0  0  0  0  0  0  0  0  0  0
  -15.4622    5.8391    0.7166 C   0  0  0  0  0  0  0  0  0  0  0  0
  -13.6951    4.0603   -1.9765 H   0  0  0  0  0  0  0  0  0  0  0  0
  -16.8974    2.6900   -2.1908 H   0  0  0  0  0  0  0  0  0  0  0  0
  -18.2766    2.8584   -0.9256 H   0  0  0  0  0  0  0  0  0  0  0  0
  -17.0732    6.2521    1.8774 H   0  0  0  0  0  0  0  0  0  0  0  0
  -15.1802    8.6284   -0.0080 O   0  0  0  0  0  0  0  0  0  0  0  0
  -15.4119    8.3175   -1.1680 C   0  0  0  0  0  0  0  0  0  0  0  0
  -15.7264    9.3590   -2.2204 C   0  0  0  0  0  0  0  0  0  0  0  0
  -15.3457    7.0557   -1.6012 N   0  0  0  0  0  0  0  0  0  0  0  0
  -15.4875    6.9075   -2.5641 H   0  0  0  0  0  0  0  0  0  0  0  0
 15 16  2  0  0  0
 16 17  1  0  0  0
 16 18  1  0  0  0
 18  1  1  0  0  0
  1  2  1  0  0  0
  1 10  1  0  0  0
  2  3  1  0  0  0
  2  4  1  0  0  0
  4  5  1  0  0  0
  4  6  1  0  0  0
  6  7  1  0  0  0
  6  8  1  0  0  0
  8  9  1  0  0  0
  9 10  1  0  0  0
 18 19  1  0  0  0
  3 11  1  0  0  0
  5 12  1  0  0  0
  7 13  1  0  0  0
  9 14  1  0  0  0
M  END
> <minimizedAffinity>
-6.10368

$$$$
