1BNQ_AL4_A_555


 25 26  0  0  0  0  0  0  0  0999 V2000
   -5.8171    2.1441   16.1746 C   0  0  0  0  0  0  0  0  0  0  0  0
   -4.3451    5.2236   12.7480 C   0  0  0  0  0  0  0  0  0  0  0  0
   -5.4569    5.1143   13.8244 C   0  0  0  0  0  0  0  0  0  0  0  0
   -6.1307    3.4071   15.7582 C   0  0  0  0  0  0  0  0  0  0  0  0
   -5.4799    3.7966   14.6200 C   0  0  0  0  0  0  0  0  0  0  0  0
   -4.6690    2.7656   14.1574 C   0  0  0  0  0  0  0  0  0  0  0  0
   -4.6813    1.3719   15.1431 S   0  0  0  0  0  0  0  0  0  0  0  0
   -3.7919    2.7811   12.6811 S   0  0  0  0  0  0  0  0  0  0  0  0
   -2.4134    2.9335   12.9791 O   0  0  0  0  0  0  0  0  0  0  0  0
   -3.9288    1.5678   11.9666 O   0  0  0  0  0  0  0  0  0  0  0  0
   -4.4043    3.9693   12.0088 N   0  0  0  0  0  0  0  0  0  0  0  0
   -6.4556    2.2234   18.6569 O   0  0  0  0  0  0  0  0  0  0  0  0
   -7.7051    0.9324   17.1769 O   0  0  0  0  0  0  0  0  0  0  0  0
   -5.4980    0.2047   17.9221 N   0  0  0  0  0  0  0  0  0  0  0  0
   -6.3993    1.3257   17.5535 S   0  0  0  0  0  0  0  0  0  0  0  0
   -4.5827    0.5747   18.1787 H   0  0  0  0  0  0  0  0  0  0  0  0
   -5.3987   -0.4272   17.1276 H   0  0  0  0  0  0  0  0  0  0  0  0
   -5.2822    6.2555   14.7191 N   0  0  0  0  0  0  0  0  0  0  0  0
   -5.7872    6.0509   15.5814 H   0  0  0  0  0  0  0  0  0  0  0  0
   -3.9062    6.6091   15.0850 C   0  0  0  0  0  0  0  0  0  0  0  0
   -3.8218    7.7387   16.1213 C   0  0  0  0  0  0  0  0  0  0  0  0
   -4.4672    4.1186   10.5778 C   0  0  0  0  0  0  0  0  0  0  0  0
   -3.0846    4.5985   10.1811 C   0  0  0  0  0  0  0  0  0  0  0  0
   -1.2125    3.2181    9.6887 C   0  0  0  0  0  0  0  0  0  0  0  0
   -2.4992    3.6811    9.2753 O   0  0  0  0  0  0  0  0  0  0  0  0
  1 15  1  0  0  0
  1  4  2  0  0  0
  1  7  1  0  0  0
  2  3  1  0  0  0
  2 11  1  0  0  0
  3  5  1  0  0  0
  3 18  1  0  0  0
 22 23  1  0  0  0
 22 11  1  0  0  0
 23 25  1  0  0  0
 24 25  1  0  0  0
 20 18  1  0  0  0
 20 21  1  0  0  0
 12 15  2  0  0  0
 13 15  2  0  0  0
 14 15  1  0  0  0
  4  5  1  0  0  0
  5  6  2  0  0  0
  6  7  1  0  0  0
  6  8  1  0  0  0
  8  9  2  0  0  0
  8 10  2  0  0  0
  8 11  1  0  0  0
 14 16  1  0  0  0
 14 17  1  0  0  0
 18 19  1  0  0  0
M  END
> <minimizedAffinity>
-6.88287

$$$$
1BNQ_AL4_A_555


 25 26  0  0  0  0  0  0  0  0999 V2000
   -5.7348    1.9038   16.3964 C   0  0  0  0  0  0  0  0  0  0  0  0
   -3.9408    4.5806   12.7898 C   0  0  0  0  0  0  0  0  0  0  0  0
   -3.5890    3.2913   13.5777 C   0  0  0  0  0  0  0  0  0  0  0  0
   -4.7072    1.8206   15.4999 C   0  0  0  0  0  0  0  0  0  0  0  0
   -4.5429    2.9421   14.7343 C   0  0  0  0  0  0  0  0  0  0  0  0
   -5.4731    3.9096   15.0995 C   0  0  0  0  0  0  0  0  0  0  0  0
   -6.5515    3.4132   16.3262 S   0  0  0  0  0  0  0  0  0  0  0  0
   -5.5231    5.5152   14.4925 S   0  0  0  0  0  0  0  0  0  0  0  0
   -6.6326    5.6298   13.6160 O   0  0  0  0  0  0  0  0  0  0  0  0
   -5.7085    6.4686   15.5210 O   0  0  0  0  0  0  0  0  0  0  0  0
   -4.1954    5.5924   13.8070 N   0  0  0  0  0  0  0  0  0  0  0  0
   -7.6803    0.6148   17.4591 O   0  0  0  0  0  0  0  0  0  0  0  0
   -5.6796   -0.4794   16.9921 O   0  0  0  0  0  0  0  0  0  0  0  0
   -5.8599    1.0540   18.8822 N   0  0  0  0  0  0  0  0  0  0  0  0
   -6.2603    0.7088   17.4946 S   0  0  0  0  0  0  0  0  0  0  0  0
   -6.3212    1.9190   19.1639 H   0  0  0  0  0  0  0  0  0  0  0  0
   -4.8485    1.1791   18.9230 H   0  0  0  0  0  0  0  0  0  0  0  0
   -3.5429    2.2070   12.6001 N   0  0  0  0  0  0  0  0  0  0  0  0
   -3.3907    1.3377   13.1115 H   0  0  0  0  0  0  0  0  0  0  0  0
   -4.7282    2.0223   11.7556 C   0  0  0  0  0  0  0  0  0  0  0  0
   -4.8011    0.6349   11.1020 C   0  0  0  0  0  0  0  0  0  0  0  0
   -3.4772    6.8264   13.6187 C   0  0  0  0  0  0  0  0  0  0  0  0
   -2.2436    6.6891   14.4896 C   0  0  0  0  0  0  0  0  0  0  0  0
   -2.5317    8.4637   16.0454 C   0  0  0  0  0  0  0  0  0  0  0  0
   -1.8114    7.9683   14.9155 O   0  0  0  0  0  0  0  0  0  0  0  0
  1 15  1  0  0  0
  1  4  2  0  0  0
  1  7  1  0  0  0
  2  3  1  0  0  0
  2 11  1  0  0  0
  3  5  1  0  0  0
  3 18  1  0  0  0
 22 23  1  0  0  0
 22 11  1  0  0  0
 23 25  1  0  0  0
 24 25  1  0  0  0
 20 18  1  0  0  0
 20 21  1  0  0  0
 12 15  2  0  0  0
 13 15  2  0  0  0
 14 15  1  0  0  0
  4  5  1  0  0  0
  5  6  2  0  0  0
  6  7  1  0  0  0
  6  8  1  0  0  0
  8  9  2  0  0  0
  8 10  2  0  0  0
  8 11  1  0  0  0
 14 16  1  0  0  0
 14 17  1  0  0  0
 18 19  1  0  0  0
M  END
> <minimizedAffinity>
-6.70586

$$$$
1BNQ_AL4_A_555


 25 26  0  0  0  0  0  0  0  0999 V2000
   -5.8279    2.0620   16.0674 C   0  0  0  0  0  0  0  0  0  0  0  0
   -4.3185    5.3027   12.8099 C   0  0  0  0  0  0  0  0  0  0  0  0
   -5.4607    5.1282   13.8452 C   0  0  0  0  0  0  0  0  0  0  0  0
   -6.1564    3.3333   15.6897 C   0  0  0  0  0  0  0  0  0  0  0  0
   -5.4792    3.7805   14.5887 C   0  0  0  0  0  0  0  0  0  0  0  0
   -4.6314    2.7855   14.1133 C   0  0  0  0  0  0  0  0  0  0  0  0
   -4.6435    1.3546   15.0441 S   0  0  0  0  0  0  0  0  0  0  0  0
   -3.7092    2.8769   12.6675 S   0  0  0  0  0  0  0  0  0  0  0  0
   -2.3444    3.0466   13.0152 O   0  0  0  0  0  0  0  0  0  0  0  0
   -3.7966    1.6896   11.9033 O   0  0  0  0  0  0  0  0  0  0  0  0
   -4.3267    4.0771   12.0218 N   0  0  0  0  0  0  0  0  0  0  0  0
   -6.3020    1.9479   18.5850 O   0  0  0  0  0  0  0  0  0  0  0  0
   -7.8019    1.0026   17.0767 O   0  0  0  0  0  0  0  0  0  0  0  0
   -5.6753   -0.0841   17.5800 N   0  0  0  0  0  0  0  0  0  0  0  0
   -6.4345    1.1785   17.3946 S   0  0  0  0  0  0  0  0  0  0  0  0
   -4.7045    0.1329   17.8051 H   0  0  0  0  0  0  0  0  0  0  0  0
   -5.7108   -0.6315   16.7200 H   0  0  0  0  0  0  0  0  0  0  0  0
   -5.3395    6.2372   14.7880 N   0  0  0  0  0  0  0  0  0  0  0  0
   -5.8862    5.9990   15.6155 H   0  0  0  0  0  0  0  0  0  0  0  0
   -3.9863    6.5843   15.2360 C   0  0  0  0  0  0  0  0  0  0  0  0
   -3.9513    7.7747   16.2049 C   0  0  0  0  0  0  0  0  0  0  0  0
   -4.3481    4.2807   10.5964 C   0  0  0  0  0  0  0  0  0  0  0  0
   -4.5431    5.7746   10.4250 C   0  0  0  0  0  0  0  0  0  0  0  0
   -5.9432    7.4098    9.4158 C   0  0  0  0  0  0  0  0  0  0  0  0
   -5.6567    6.0206    9.5860 O   0  0  0  0  0  0  0  0  0  0  0  0
  1 15  1  0  0  0
  1  4  2  0  0  0
  1  7  1  0  0  0
  2  3  1  0  0  0
  2 11  1  0  0  0
  3  5  1  0  0  0
  3 18  1  0  0  0
 22 23  1  0  0  0
 22 11  1  0  0  0
 23 25  1  0  0  0
 24 25  1  0  0  0
 20 18  1  0  0  0
 20 21  1  0  0  0
 12 15  2  0  0  0
 13 15  2  0  0  0
 14 15  1  0  0  0
  4  5  1  0  0  0
  5  6  2  0  0  0
  6  7  1  0  0  0
  6  8  1  0  0  0
  8  9  2  0  0  0
  8 10  2  0  0  0
  8 11  1  0  0  0
 14 16  1  0  0  0
 14 17  1  0  0  0
 18 19  1  0  0  0
M  END
> <minimizedAffinity>
-6.67617

$$$$
1BNQ_AL4_A_555


 25 26  0  0  0  0  0  0  0  0999 V2000
   -1.0817    4.2450   12.1294 C   0  0  0  0  0  0  0  0  0  0  0  0
   -5.1416    4.4883   14.7465 C   0  0  0  0  0  0  0  0  0  0  0  0
   -3.7233    5.1166   14.7250 C   0  0  0  0  0  0  0  0  0  0  0  0
   -1.5663    4.9962   13.1626 C   0  0  0  0  0  0  0  0  0  0  0  0
   -2.7749    4.5715   13.6419 C   0  0  0  0  0  0  0  0  0  0  0  0
   -3.1907    3.4383   12.9508 C   0  0  0  0  0  0  0  0  0  0  0  0
   -2.1281    2.9500   11.7072 S   0  0  0  0  0  0  0  0  0  0  0  0
   -4.5788    2.5007   13.3292 S   0  0  0  0  0  0  0  0  0  0  0  0
   -5.5663    2.7405   12.3394 O   0  0  0  0  0  0  0  0  0  0  0  0
   -4.3055    1.1128   13.3128 O   0  0  0  0  0  0  0  0  0  0  0  0
   -4.9230    3.0493   14.6780 N   0  0  0  0  0  0  0  0  0  0  0  0
    0.4857    3.4847   10.2476 O   0  0  0  0  0  0  0  0  0  0  0  0
    0.2011    5.7549   10.6760 O   0  0  0  0  0  0  0  0  0  0  0  0
    1.5458    4.3571   12.1573 N   0  0  0  0  0  0  0  0  0  0  0  0
    0.3681    4.4775   11.2610 S   0  0  0  0  0  0  0  0  0  0  0  0
    1.5909    3.4102   12.5340 H   0  0  0  0  0  0  0  0  0  0  0  0
    1.4592    5.0242   12.9240 H   0  0  0  0  0  0  0  0  0  0  0  0
   -3.9097    6.5572   14.5715 N   0  0  0  0  0  0  0  0  0  0  0  0
   -4.8171    6.7049   14.1298 H   0  0  0  0  0  0  0  0  0  0  0  0
   -3.8758    7.3661   15.7950 C   0  0  0  0  0  0  0  0  0  0  0  0
   -2.6873    8.3363   15.8519 C   0  0  0  0  0  0  0  0  0  0  0  0
   -5.6188    2.2882   15.6832 C   0  0  0  0  0  0  0  0  0  0  0  0
   -4.5231    1.7423   16.5779 C   0  0  0  0  0  0  0  0  0  0  0  0
   -6.3599    0.5616   17.5185 C   0  0  0  0  0  0  0  0  0  0  0  0
   -4.9653    0.5544   17.2089 O   0  0  0  0  0  0  0  0  0  0  0  0
  1 15  1  0  0  0
  1  4  2  0  0  0
  1  7  1  0  0  0
  2  3  1  0  0  0
  2 11  1  0  0  0
  3  5  1  0  0  0
  3 18  1  0  0  0
 22 23  1  0  0  0
 22 11  1  0  0  0
 23 25  1  0  0  0
 24 25  1  0  0  0
 20 18  1  0  0  0
 20 21  1  0  0  0
 12 15  2  0  0  0
 13 15  2  0  0  0
 14 15  1  0  0  0
  4  5  1  0  0  0
  5  6  2  0  0  0
  6  7  1  0  0  0
  6  8  1  0  0  0
  8  9  2  0  0  0
  8 10  2  0  0  0
  8 11  1  0  0  0
 14 16  1  0  0  0
 14 17  1  0  0  0
 18 19  1  0  0  0
M  END
> <minimizedAffinity>
-6.30412

$$$$
1BNQ_AL4_A_555


 25 26  0  0  0  0  0  0  0  0999 V2000
   -4.0410    4.6340   10.5496 C   0  0  0  0  0  0  0  0  0  0  0  0
   -4.2244    1.3404   14.0866 C   0  0  0  0  0  0  0  0  0  0  0  0
   -4.5520    1.4537   12.5745 C   0  0  0  0  0  0  0  0  0  0  0  0
   -4.3155    3.3006   10.6663 C   0  0  0  0  0  0  0  0  0  0  0  0
   -4.3508    2.8494   11.9570 C   0  0  0  0  0  0  0  0  0  0  0  0
   -4.1195    3.9016   12.8368 C   0  0  0  0  0  0  0  0  0  0  0  0
   -3.8169    5.3974   12.0718 S   0  0  0  0  0  0  0  0  0  0  0  0
   -4.2207    3.8027   14.5482 S   0  0  0  0  0  0  0  0  0  0  0  0
   -2.9063    3.8516   15.0795 O   0  0  0  0  0  0  0  0  0  0  0  0
   -4.9321    4.8918   15.1042 O   0  0  0  0  0  0  0  0  0  0  0  0
   -4.8931    2.4758   14.7086 N   0  0  0  0  0  0  0  0  0  0  0  0
   -4.7468    6.6801    9.1745 O   0  0  0  0  0  0  0  0  0  0  0  0
   -2.5346    5.9571    9.1291 O   0  0  0  0  0  0  0  0  0  0  0  0
   -4.2781    4.7386    7.9324 N   0  0  0  0  0  0  0  0  0  0  0  0
   -3.8883    5.5460    9.1161 S   0  0  0  0  0  0  0  0  0  0  0  0
   -5.2638    4.4859    8.0028 H   0  0  0  0  0  0  0  0  0  0  0  0
   -3.7115    3.8912    7.8974 H   0  0  0  0  0  0  0  0  0  0  0  0
   -3.7219    0.4629   11.8944 N   0  0  0  0  0  0  0  0  0  0  0  0
   -2.8390    0.4007   12.4014 H   0  0  0  0  0  0  0  0  0  0  0  0
   -4.2649   -0.8954   11.7824 C   0  0  0  0  0  0  0  0  0  0  0  0
   -3.2001   -1.9531   11.4588 C   0  0  0  0  0  0  0  0  0  0  0  0
   -5.7128    2.1407   15.8443 C   0  0  0  0  0  0  0  0  0  0  0  0
   -5.1953    0.7925   16.3065 C   0  0  0  0  0  0  0  0  0  0  0  0
   -6.3693    1.4062   18.2808 C   0  0  0  0  0  0  0  0  0  0  0  0
   -5.2527    0.7144   17.7191 O   0  0  0  0  0  0  0  0  0  0  0  0
  1 15  1  0  0  0
  1  4  2  0  0  0
  1  7  1  0  0  0
  2  3  1  0  0  0
  2 11  1  0  0  0
  3  5  1  0  0  0
  3 18  1  0  0  0
 22 23  1  0  0  0
 22 11  1  0  0  0
 23 25  1  0  0  0
 24 25  1  0  0  0
 20 18  1  0  0  0
 20 21  1  0  0  0
 12 15  2  0  0  0
 13 15  2  0  0  0
 14 15  1  0  0  0
  4  5  1  0  0  0
  5  6  2  0  0  0
  6  7  1  0  0  0
  6  8  1  0  0  0
  8  9  2  0  0  0
  8 10  2  0  0  0
  8 11  1  0  0  0
 14 16  1  0  0  0
 14 17  1  0  0  0
 18 19  1  0  0  0
M  END
> <minimizedAffinity>
-6.23578

$$$$
1BNQ_AL4_A_555


 25 26  0  0  0  0  0  0  0  0999 V2000
   -3.8988    1.3149   11.7180 C   0  0  0  0  0  0  0  0  0  0  0  0
   -3.4519    4.8615   14.9758 C   0  0  0  0  0  0  0  0  0  0  0  0
   -4.2767    3.5650   14.7625 C   0  0  0  0  0  0  0  0  0  0  0  0
   -4.3784    1.5981   12.9655 C   0  0  0  0  0  0  0  0  0  0  0  0
   -4.0331    2.8383   13.4275 C   0  0  0  0  0  0  0  0  0  0  0  0
   -3.2876    3.5145   12.4675 C   0  0  0  0  0  0  0  0  0  0  0  0
   -2.9851    2.6083   11.0528 S   0  0  0  0  0  0  0  0  0  0  0  0
   -2.7770    5.1502   12.5805 S   0  0  0  0  0  0  0  0  0  0  0  0
   -1.3792    5.1688   12.8220 O   0  0  0  0  0  0  0  0  0  0  0  0
   -2.9984    5.8623   11.3784 O   0  0  0  0  0  0  0  0  0  0  0  0
   -3.6011    5.6171   13.7388 N   0  0  0  0  0  0  0  0  0  0  0  0
   -3.8790   -1.2490   11.6760 O   0  0  0  0  0  0  0  0  0  0  0  0
   -5.4481   -0.0789   10.4161 O   0  0  0  0  0  0  0  0  0  0  0  0
   -3.1132   -0.1987    9.7158 N   0  0  0  0  0  0  0  0  0  0  0  0
   -4.0952   -0.1267   10.8273 S   0  0  0  0  0  0  0  0  0  0  0  0
   -2.1682   -0.2296   10.0984 H   0  0  0  0  0  0  0  0  0  0  0  0
   -3.2124    0.6237    9.1207 H   0  0  0  0  0  0  0  0  0  0  0  0
   -3.9725    2.6890   15.8910 N   0  0  0  0  0  0  0  0  0  0  0  0
   -3.5048    3.2526   16.6009 H   0  0  0  0  0  0  0  0  0  0  0  0
   -5.1062    2.0167   16.5354 C   0  0  0  0  0  0  0  0  0  0  0  0
   -6.4048    2.8345   16.4923 C   0  0  0  0  0  0  0  0  0  0  0  0
   -4.0011    6.9888   13.9182 C   0  0  0  0  0  0  0  0  0  0  0  0
   -3.2549    7.4472   15.1561 C   0  0  0  0  0  0  0  0  0  0  0  0
   -1.8484    9.2140   15.8998 C   0  0  0  0  0  0  0  0  0  0  0  0
   -2.9083    8.8142   15.0293 O   0  0  0  0  0  0  0  0  0  0  0  0
  1 15  1  0  0  0
  1  4  2  0  0  0
  1  7  1  0  0  0
  2  3  1  0  0  0
  2 11  1  0  0  0
  3  5  1  0  0  0
  3 18  1  0  0  0
 22 23  1  0  0  0
 22 11  1  0  0  0
 23 25  1  0  0  0
 24 25  1  0  0  0
 20 18  1  0  0  0
 20 21  1  0  0  0
 12 15  2  0  0  0
 13 15  2  0  0  0
 14 15  1  0  0  0
  4  5  1  0  0  0
  5  6  2  0  0  0
  6  7  1  0  0  0
  6  8  1  0  0  0
  8  9  2  0  0  0
  8 10  2  0  0  0
  8 11  1  0  0  0
 14 16  1  0  0  0
 14 17  1  0  0  0
 18 19  1  0  0  0
M  END
> <minimizedAffinity>
-6.11997

$$$$
1BNQ_AL4_A_555


 25 26  0  0  0  0  0  0  0  0999 V2000
   -3.5998    0.9375   11.8759 C   0  0  0  0  0  0  0  0  0  0  0  0
   -3.7853    4.7270   14.8753 C   0  0  0  0  0  0  0  0  0  0  0  0
   -4.4532    3.3376   14.7019 C   0  0  0  0  0  0  0  0  0  0  0  0
   -4.2062    1.2524   13.0590 C   0  0  0  0  0  0  0  0  0  0  0  0
   -4.0283    2.5514   13.4485 C   0  0  0  0  0  0  0  0  0  0  0  0
   -3.2798    3.2365   12.4971 C   0  0  0  0  0  0  0  0  0  0  0  0
   -2.7717    2.2731   11.1826 S   0  0  0  0  0  0  0  0  0  0  0  0
   -2.9499    4.9216   12.5215 S   0  0  0  0  0  0  0  0  0  0  0  0
   -1.5858    5.1074   12.8636 O   0  0  0  0  0  0  0  0  0  0  0  0
   -3.1439    5.5213   11.2550 O   0  0  0  0  0  0  0  0  0  0  0  0
   -3.9092    5.3753   13.5762 N   0  0  0  0  0  0  0  0  0  0  0  0
   -2.3077   -1.1954   11.2781 O   0  0  0  0  0  0  0  0  0  0  0  0
   -4.5841   -1.3104   11.7508 O   0  0  0  0  0  0  0  0  0  0  0  0
   -3.7873   -0.4118    9.6262 N   0  0  0  0  0  0  0  0  0  0  0  0
   -3.5745   -0.5747   11.0867 S   0  0  0  0  0  0  0  0  0  0  0  0
   -3.0181    0.1273    9.2286 H   0  0  0  0  0  0  0  0  0  0  0  0
   -4.6664    0.0792    9.4633 H   0  0  0  0  0  0  0  0  0  0  0  0
   -4.1543    2.5791   15.9139 N   0  0  0  0  0  0  0  0  0  0  0  0
   -3.7176    3.2188   16.5776 H   0  0  0  0  0  0  0  0  0  0  0  0
   -5.2861    1.9398   16.5942 C   0  0  0  0  0  0  0  0  0  0  0  0
   -6.5535    2.8060   16.6148 C   0  0  0  0  0  0  0  0  0  0  0  0
   -4.4606    6.7050   13.6194 C   0  0  0  0  0  0  0  0  0  0  0  0
   -5.8975    6.5394   13.1641 C   0  0  0  0  0  0  0  0  0  0  0  0
   -7.2055    7.7178   11.5662 C   0  0  0  0  0  0  0  0  0  0  0  0
   -6.0249    6.9530   11.8160 O   0  0  0  0  0  0  0  0  0  0  0  0
  1 15  1  0  0  0
  1  4  2  0  0  0
  1  7  1  0  0  0
  2  3  1  0  0  0
  2 11  1  0  0  0
  3  5  1  0  0  0
  3 18  1  0  0  0
 22 23  1  0  0  0
 22 11  1  0  0  0
 23 25  1  0  0  0
 24 25  1  0  0  0
 20 18  1  0  0  0
 20 21  1  0  0  0
 12 15  2  0  0  0
 13 15  2  0  0  0
 14 15  1  0  0  0
  4  5  1  0  0  0
  5  6  2  0  0  0
  6  7  1  0  0  0
  6  8  1  0  0  0
  8  9  2  0  0  0
  8 10  2  0  0  0
  8 11  1  0  0  0
 14 16  1  0  0  0
 14 17  1  0  0  0
 18 19  1  0  0  0
M  END
> <minimizedAffinity>
-5.98758

$$$$
1BNQ_AL4_A_555


 25 26  0  0  0  0  0  0  0  0999 V2000
   -3.3091    6.1324   14.2489 C   0  0  0  0  0  0  0  0  0  0  0  0
   -4.6548    1.6144   13.1678 C   0  0  0  0  0  0  0  0  0  0  0  0
   -4.2887    2.4599   14.4160 C   0  0  0  0  0  0  0  0  0  0  0  0
   -3.6551    4.9984   14.9280 C   0  0  0  0  0  0  0  0  0  0  0  0
   -3.8421    3.9047   14.1284 C   0  0  0  0  0  0  0  0  0  0  0  0
   -3.5965    4.2370   12.8002 C   0  0  0  0  0  0  0  0  0  0  0  0
   -3.1942    5.8776   12.5541 S   0  0  0  0  0  0  0  0  0  0  0  0
   -3.5746    3.1282   11.4891 S   0  0  0  0  0  0  0  0  0  0  0  0
   -4.7392    3.3355   10.7060 O   0  0  0  0  0  0  0  0  0  0  0  0
   -2.4628    3.3304   10.6381 O   0  0  0  0  0  0  0  0  0  0  0  0
   -3.5617    1.8272   12.2282 N   0  0  0  0  0  0  0  0  0  0  0  0
   -3.2124    8.6680   13.8784 O   0  0  0  0  0  0  0  0  0  0  0  0
   -4.0120    7.8181   15.8926 O   0  0  0  0  0  0  0  0  0  0  0  0
   -1.6251    7.8038   15.3836 N   0  0  0  0  0  0  0  0  0  0  0  0
   -3.0211    7.6862   14.8914 S   0  0  0  0  0  0  0  0  0  0  0  0
   -0.9788    7.6971   14.6017 H   0  0  0  0  0  0  0  0  0  0  0  0
   -1.4458    7.0753   16.0747 H   0  0  0  0  0  0  0  0  0  0  0  0
   -5.4617    2.4448   15.2863 N   0  0  0  0  0  0  0  0  0  0  0  0
   -6.2086    1.9607   14.7880 H   0  0  0  0  0  0  0  0  0  0  0  0
   -5.3107    1.7986   16.5947 C   0  0  0  0  0  0  0  0  0  0  0  0
   -6.6383    1.3074   17.1891 C   0  0  0  0  0  0  0  0  0  0  0  0
   -2.9918    0.6203   11.6874 C   0  0  0  0  0  0  0  0  0  0  0  0
   -4.1751   -0.1459   11.1289 C   0  0  0  0  0  0  0  0  0  0  0  0
   -3.0796   -2.2275   11.4742 C   0  0  0  0  0  0  0  0  0  0  0  0
   -4.2389   -1.4302   11.7215 O   0  0  0  0  0  0  0  0  0  0  0  0
  1 15  1  0  0  0
  1  4  2  0  0  0
  1  7  1  0  0  0
  2  3  1  0  0  0
  2 11  1  0  0  0
  3  5  1  0  0  0
  3 18  1  0  0  0
 22 23  1  0  0  0
 22 11  1  0  0  0
 23 25  1  0  0  0
 24 25  1  0  0  0
 20 18  1  0  0  0
 20 21  1  0  0  0
 12 15  2  0  0  0
 13 15  2  0  0  0
 14 15  1  0  0  0
  4  5  1  0  0  0
  5  6  2  0  0  0
  6  7  1  0  0  0
  6  8  1  0  0  0
  8  9  2  0  0  0
  8 10  2  0  0  0
  8 11  1  0  0  0
 14 16  1  0  0  0
 14 17  1  0  0  0
 18 19  1  0  0  0
M  END
> <minimizedAffinity>
-5.76344

$$$$
1BNQ_AL4_A_555


 25 26  0  0  0  0  0  0  0  0999 V2000
   -3.5655    1.4035   11.5148 C   0  0  0  0  0  0  0  0  0  0  0  0
   -2.2758    5.2360   14.1681 C   0  0  0  0  0  0  0  0  0  0  0  0
   -3.4061    4.1746   14.1168 C   0  0  0  0  0  0  0  0  0  0  0  0
   -3.9806    2.0138   12.6645 C   0  0  0  0  0  0  0  0  0  0  0  0
   -3.3329    3.1870   12.9382 C   0  0  0  0  0  0  0  0  0  0  0  0
   -2.4166    3.4723   11.9314 C   0  0  0  0  0  0  0  0  0  0  0  0
   -2.3318    2.2850   10.7078 S   0  0  0  0  0  0  0  0  0  0  0  0
   -1.4988    4.9184   11.8077 S   0  0  0  0  0  0  0  0  0  0  0  0
   -0.1501    4.6238   12.1343 O   0  0  0  0  0  0  0  0  0  0  0  0
   -1.5011    5.4406   10.4929 O   0  0  0  0  0  0  0  0  0  0  0  0
   -2.1964    5.7751   12.8167 N   0  0  0  0  0  0  0  0  0  0  0  0
   -5.4686    0.0564   10.4472 O   0  0  0  0  0  0  0  0  0  0  0  0
   -3.2754   -0.2696    9.7387 O   0  0  0  0  0  0  0  0  0  0  0  0
   -4.0485   -1.1563   11.8771 N   0  0  0  0  0  0  0  0  0  0  0  0
   -4.1131   -0.0744   10.8620 S   0  0  0  0  0  0  0  0  0  0  0  0
   -4.6792   -0.9371   12.6482 H   0  0  0  0  0  0  0  0  0  0  0  0
   -3.0947   -1.2350   12.2298 H   0  0  0  0  0  0  0  0  0  0  0  0
   -3.3652    3.4625   15.3914 N   0  0  0  0  0  0  0  0  0  0  0  0
   -2.9760    4.0988   16.0872 H   0  0  0  0  0  0  0  0  0  0  0  0
   -4.6410    2.9611   15.9142 C   0  0  0  0  0  0  0  0  0  0  0  0
   -4.5704    1.5077   16.4037 C   0  0  0  0  0  0  0  0  0  0  0  0
   -2.2277    7.2129   12.7416 C   0  0  0  0  0  0  0  0  0  0  0  0
   -1.5365    7.6784   14.0083 C   0  0  0  0  0  0  0  0  0  0  0  0
   -2.2358    8.7077   16.0342 C   0  0  0  0  0  0  0  0  0  0  0  0
   -2.2821    8.7229   14.6065 O   0  0  0  0  0  0  0  0  0  0  0  0
  1 15  1  0  0  0
  1  4  2  0  0  0
  1  7  1  0  0  0
  2  3  1  0  0  0
  2 11  1  0  0  0
  3  5  1  0  0  0
  3 18  1  0  0  0
 22 23  1  0  0  0
 22 11  1  0  0  0
 23 25  1  0  0  0
 24 25  1  0  0  0
 20 18  1  0  0  0
 20 21  1  0  0  0
 12 15  2  0  0  0
 13 15  2  0  0  0
 14 15  1  0  0  0
  4  5  1  0  0  0
  5  6  2  0  0  0
  6  7  1  0  0  0
  6  8  1  0  0  0
  8  9  2  0  0  0
  8 10  2  0  0  0
  8 11  1  0  0  0
 14 16  1  0  0  0
 14 17  1  0  0  0
 18 19  1  0  0  0
M  END
> <minimizedAffinity>
-5.71663

$$$$
1BNQ_AL4_A_555


 25 26  0  0  0  0  0  0  0  0999 V2000
    0.4652    4.2924   10.9561 C   0  0  0  0  0  0  0  0  0  0  0  0
   -4.0157    4.6287   12.7450 C   0  0  0  0  0  0  0  0  0  0  0  0
   -2.5519    4.8619   13.2029 C   0  0  0  0  0  0  0  0  0  0  0  0
   -0.1275    4.7487   12.0995 C   0  0  0  0  0  0  0  0  0  0  0  0
   -1.4699    4.4966   12.1706 C   0  0  0  0  0  0  0  0  0  0  0  0
   -1.8846    3.7977   11.0418 C   0  0  0  0  0  0  0  0  0  0  0  0
   -0.6447    3.5101    9.9042 S   0  0  0  0  0  0  0  0  0  0  0  0
   -3.4585    3.1563   10.7962 S   0  0  0  0  0  0  0  0  0  0  0  0
   -4.1185    3.9467    9.8203 O   0  0  0  0  0  0  0  0  0  0  0  0
   -3.4233    1.8318   10.3006 O   0  0  0  0  0  0  0  0  0  0  0  0
   -4.0283    3.2884   12.1734 N   0  0  0  0  0  0  0  0  0  0  0  0
    2.3150    5.7051    9.8799 O   0  0  0  0  0  0  0  0  0  0  0  0
    2.7958    4.3768   11.7300 O   0  0  0  0  0  0  0  0  0  0  0  0
    2.4753    3.3859    9.5227 N   0  0  0  0  0  0  0  0  0  0  0  0
    2.1019    4.4409   10.4987 S   0  0  0  0  0  0  0  0  0  0  0  0
    1.9313    3.5053    8.6682 H   0  0  0  0  0  0  0  0  0  0  0  0
    2.2819    2.4681    9.9235 H   0  0  0  0  0  0  0  0  0  0  0  0
   -2.4537    6.2700   13.5786 N   0  0  0  0  0  0  0  0  0  0  0  0
   -1.4684    6.5309   13.5401 H   0  0  0  0  0  0  0  0  0  0  0  0
   -3.1987    7.2308   12.7575 C   0  0  0  0  0  0  0  0  0  0  0  0
   -2.6058    8.6467   12.7867 C   0  0  0  0  0  0  0  0  0  0  0  0
   -5.0661    2.4292   12.6818 C   0  0  0  0  0  0  0  0  0  0  0  0
   -4.3314    1.3765   13.4889 C   0  0  0  0  0  0  0  0  0  0  0  0
   -5.2969    2.3362   15.4382 C   0  0  0  0  0  0  0  0  0  0  0  0
   -4.1127    1.8472   14.8062 O   0  0  0  0  0  0  0  0  0  0  0  0
  1 15  1  0  0  0
  1  4  2  0  0  0
  1  7  1  0  0  0
  2  3  1  0  0  0
  2 11  1  0  0  0
  3  5  1  0  0  0
  3 18  1  0  0  0
 22 23  1  0  0  0
 22 11  1  0  0  0
 23 25  1  0  0  0
 24 25  1  0  0  0
 20 18  1  0  0  0
 20 21  1  0  0  0
 12 15  2  0  0  0
 13 15  2  0  0  0
 14 15  1  0  0  0
  4  5  1  0  0  0
  5  6  2  0  0  0
  6  7  1  0  0  0
  6  8  1  0  0  0
  8  9  2  0  0  0
  8 10  2  0  0  0
  8 11  1  0  0  0
 14 16  1  0  0  0
 14 17  1  0  0  0
 18 19  1  0  0  0
M  END
> <minimizedAffinity>
-5.34677

$$$$
