2IHQ_LG7_A_90


 24 27  0  0  0  0  0  0  0  0999 V2000
   27.8259    4.2080    3.7715 C   0  0  0  0  0  0  0  0  0  0  0  0
   22.6311    4.5662    4.5259 C   0  0  0  0  0  0  0  0  0  0  0  0
   23.5846    5.4828    4.2192 C   0  0  0  0  0  0  0  0  0  0  0  0
   24.9599    4.9546    4.0841 C   0  0  0  0  0  0  0  0  0  0  0  0
   26.0700    5.9076    3.7488 C   0  0  0  0  0  0  0  0  0  0  0  0
   22.9458    3.1811    4.7214 C   0  0  0  0  0  0  0  0  0  0  0  0
   24.2864    2.6226    4.5994 C   0  0  0  0  0  0  0  0  0  0  0  0
   25.3282    3.5971    4.2649 C   0  0  0  0  0  0  0  0  0  0  0  0
   26.7481    3.2455    4.0969 C   0  0  0  0  0  0  0  0  0  0  0  0
   27.4759    5.5314    3.5811 C   0  0  0  0  0  0  0  0  0  0  0  0
   30.2689    0.8886    3.4532 O   0  0  0  0  0  0  0  0  0  0  0  0
   29.8510   -0.1594    4.2796 C   0  0  0  0  0  0  0  0  0  0  0  0
   29.5179   -1.4183    3.2923 C   0  0  0  0  0  0  0  0  0  0  0  0
   27.9158   -1.3697    3.0135 C   0  0  0  0  0  0  0  0  0  0  0  0
   27.7695   -0.0187    3.7091 N   0  0  0  0  0  0  0  0  0  0  0  0
   28.4016    0.1522    4.9247 C   0  0  0  0  0  0  0  0  0  0  0  0
   28.0810    1.5851    5.2950 C   0  0  0  0  0  0  0  0  0  0  0  0
   28.5494    2.1395    6.4325 O   0  0  0  0  0  0  0  0  0  0  0  0
   27.2923    2.0194    4.2367 N   0  0  0  0  0  0  0  0  0  0  0  0
   27.1187    1.0497    3.3016 C   0  0  0  0  0  0  0  0  0  0  0  0
   26.4896    1.1089    2.2558 O   0  0  0  0  0  0  0  0  0  0  0  0
   31.1388    0.6782    3.0791 H   0  0  0  0  0  0  0  0  0  0  0  0
   25.6976    7.3055    3.6411 C   0  0  0  0  0  0  0  0  0  0  0  0
   25.3901    8.4559    3.5542 N   0  0  0  0  0  0  0  0  0  0  0  0
  1 10  1  0  0  0
  1  9  2  0  0  0
  2  3  1  0  0  0
  2  6  2  0  0  0
  3  4  2  0  0  0
  4  5  1  0  0  0
  4  8  1  0  0  0
  5 10  2  0  0  0
  5 23  1  0  0  0
  6  7  1  0  0  0
  7  8  2  0  0  0
  8  9  1  0  0  0
 23 24  3  0  0  0
  9 19  1  0  0  0
 11 12  1  0  0  0
 12 13  1  0  0  0
 12 16  1  0  0  0
 13 14  1  0  0  0
 14 15  1  0  0  0
 15 20  1  0  0  0
 15 16  1  0  0  0
 16 17  1  0  0  0
 17 19  1  0  0  0
 17 18  2  0  0  0
 19 20  1  0  0  0
 20 21  2  0  0  0
 11 22  1  0  0  0
M  END
> <minimizedAffinity>
-9.33037

$$$$
2IHQ_LG7_A_90


 24 27  0  0  0  0  0  0  0  0999 V2000
   27.7670    4.3162    2.9520 C   0  0  0  0  0  0  0  0  0  0  0  0
   22.9328    4.1182    5.0196 C   0  0  0  0  0  0  0  0  0  0  0  0
   23.7459    5.1480    4.6705 C   0  0  0  0  0  0  0  0  0  0  0  0
   25.0560    4.7639    4.1005 C   0  0  0  0  0  0  0  0  0  0  0  0
   26.0118    5.8469    3.6927 C   0  0  0  0  0  0  0  0  0  0  0  0
   23.3307    2.7501    4.8594 C   0  0  0  0  0  0  0  0  0  0  0  0
   24.6116    2.3311    4.3047 C   0  0  0  0  0  0  0  0  0  0  0  0
   25.5010    3.4297    3.9186 C   0  0  0  0  0  0  0  0  0  0  0  0
   26.8402    3.2282    3.3406 C   0  0  0  0  0  0  0  0  0  0  0  0
   27.3383    5.6202    3.1137 C   0  0  0  0  0  0  0  0  0  0  0  0
   27.0604   -0.8832    4.5295 O   0  0  0  0  0  0  0  0  0  0  0  0
   27.7599   -1.2891    3.3884 C   0  0  0  0  0  0  0  0  0  0  0  0
   29.2734   -1.6558    3.8837 C   0  0  0  0  0  0  0  0  0  0  0  0
   30.1748   -0.3267    3.6232 C   0  0  0  0  0  0  0  0  0  0  0  0
   28.9517    0.5110    3.2587 N   0  0  0  0  0  0  0  0  0  0  0  0
   28.0261   -0.0411    2.3957 C   0  0  0  0  0  0  0  0  0  0  0  0
   26.9560    1.0252    2.2908 C   0  0  0  0  0  0  0  0  0  0  0  0
   25.8525    0.8426    1.5361 O   0  0  0  0  0  0  0  0  0  0  0  0
   27.4403    2.0443    3.1017 N   0  0  0  0  0  0  0  0  0  0  0  0
   28.6303    1.7187    3.6701 C   0  0  0  0  0  0  0  0  0  0  0  0
   29.3133    2.3850    4.4333 O   0  0  0  0  0  0  0  0  0  0  0  0
   26.9134   -1.6480    5.1077 H   0  0  0  0  0  0  0  0  0  0  0  0
   25.5804    7.2073    3.9528 C   0  0  0  0  0  0  0  0  0  0  0  0
   25.2249    8.3272    4.1649 N   0  0  0  0  0  0  0  0  0  0  0  0
  1 10  1  0  0  0
  1  9  2  0  0  0
  2  3  1  0  0  0
  2  6  2  0  0  0
  3  4  2  0  0  0
  4  5  1  0  0  0
  4  8  1  0  0  0
  5 10  2  0  0  0
  5 23  1  0  0  0
  6  7  1  0  0  0
  7  8  2  0  0  0
  8  9  1  0  0  0
 23 24  3  0  0  0
  9 19  1  0  0  0
 11 12  1  0  0  0
 12 13  1  0  0  0
 12 16  1  0  0  0
 13 14  1  0  0  0
 14 15  1  0  0  0
 15 20  1  0  0  0
 15 16  1  0  0  0
 16 17  1  0  0  0
 17 19  1  0  0  0
 17 18  2  0  0  0
 19 20  1  0  0  0
 20 21  2  0  0  0
 11 22  1  0  0  0
M  END
> <minimizedAffinity>
-6.88535

$$$$
