4RFM_3P6_A_701


 38 43  0  0  0  0  0  0  0  0999 V2000
   21.8502    0.0728    6.3455 C   0  0  0  0  0  0  0  0  0  0  0  0
   21.9890   -1.1798    5.6878 C   0  0  0  0  0  0  0  0  0  0  0  0
   23.2049   -1.7117    5.7986 N   0  0  0  0  0  0  0  0  0  0  0  0
   23.8329   -0.7910    6.5533 N   0  0  0  0  0  0  0  0  0  0  0  0
   23.0733    0.2908    6.8990 C   0  0  0  0  0  0  0  0  0  0  0  0
   19.6537    0.8487    5.6773 C   0  0  0  0  0  0  0  0  0  0  0  0
   19.4786   -0.1109    4.9408 O   0  0  0  0  0  0  0  0  0  0  0  0
   20.7783    0.9468    6.4619 N   0  0  0  0  0  0  0  0  0  0  0  0
   20.8252    1.6655    7.1330 H   0  0  0  0  0  0  0  0  0  0  0  0
   13.2038    2.9306    5.5459 C   0  0  0  0  0  0  0  0  0  0  0  0
   14.5855    2.8746    4.9894 C   0  0  0  0  0  0  0  0  0  0  0  0
   15.5706    3.8854    5.5587 C   0  0  0  0  0  0  0  0  0  0  0  0
   16.9196    3.3101    5.7848 C   0  0  0  0  0  0  0  0  0  0  0  0
   17.9686    3.9279    6.3931 N   0  0  0  0  0  0  0  0  0  0  0  0
   19.0616    3.1228    6.4279 N   0  0  0  0  0  0  0  0  0  0  0  0
   18.7171    1.9660    5.8308 C   0  0  0  0  0  0  0  0  0  0  0  0
   17.3631    2.0643    5.4376 C   0  0  0  0  0  0  0  0  0  0  0  0
   16.5123    1.0830    4.7551 C   0  0  0  0  0  0  0  0  0  0  0  0
   15.0741    1.4825    4.6371 C   0  0  0  0  0  0  0  0  0  0  0  0
   14.7374    2.4684    3.5708 C   0  0  0  0  0  0  0  0  0  0  0  0
   15.7109    3.1685    2.8553 F   0  0  0  0  0  0  0  0  0  0  0  0
   13.6032    2.3225    2.7961 F   0  0  0  0  0  0  0  0  0  0  0  0
   17.9389    4.8408    6.7606 H   0  0  0  0  0  0  0  0  0  0  0  0
   25.2333   -0.9333    6.9183 C   0  0  0  0  0  0  0  0  0  0  0  0
   25.7474   -2.3612    6.8798 C   0  0  0  0  0  0  0  0  0  0  0  0
   27.2615   -2.3841    6.6554 C   0  0  0  0  0  0  0  0  0  0  0  0
   27.7529   -3.8267    6.4396 C   0  0  0  0  0  0  0  0  0  0  0  0
   27.7344   -4.6194    7.6999 C   0  0  0  0  0  0  0  0  0  0  0  0
   26.3048   -4.7305    8.2249 C   0  0  0  0  0  0  0  0  0  0  0  0
   25.4384   -3.1585    8.4552 S   0  0  0  0  0  0  0  0  0  0  0  0
   26.1311   -2.4149    9.4959 O   0  0  0  0  0  0  0  0  0  0  0  0
   24.0248   -3.4750    8.5541 O   0  0  0  0  0  0  0  0  0  0  0  0
   26.0426   -0.0425    6.0082 C   0  0  0  0  0  0  0  0  0  0  0  0
   27.0185    0.7858    6.5332 C   0  0  0  0  0  0  0  0  0  0  0  0
   27.7719    1.5922    5.6936 C   0  0  0  0  0  0  0  0  0  0  0  0
   27.5447    1.6000    4.3308 C   0  0  0  0  0  0  0  0  0  0  0  0
   26.5674    0.7755    3.7985 C   0  0  0  0  0  0  0  0  0  0  0  0
   25.8219   -0.0416    4.6425 C   0  0  0  0  0  0  0  0  0  0  0  0
 21 20  1  0  0  0
 22 20  1  0  0  0
 37 36  2  0  0  0
 37 38  1  0  0  0
 20 19  1  0  0  0
 20 11  1  0  0  0
 36 35  1  0  0  0
 38 33  2  0  0  0
 19 18  1  0  0  0
 19 11  1  0  0  0
 18 17  1  0  0  0
 11 12  1  0  0  0
 11 10  1  0  0  0
  7  6  2  0  0  0
 35 34  2  0  0  0
 12 13  1  0  0  0
 17 13  2  0  0  0
 17 16  1  0  0  0
 13 14  1  0  0  0
  6 16  1  0  0  0
  6  8  1  0  0  0
  2  3  2  0  0  0
  2  1  1  0  0  0
 16 15  2  0  0  0
  3  4  1  0  0  0
 33 34  1  0  0  0
 33 24  1  0  0  0
 14 15  1  0  0  0
  1  8  1  0  0  0
  1  5  2  0  0  0
  4  5  1  0  0  0
  4 24  1  0  0  0
 24 25  1  0  0  0
 25 26  1  0  0  0
 25 30  1  0  0  0
 27 26  1  0  0  0
 27 28  1  0  0  0
 32 30  2  0  0  0
 30 29  1  0  0  0
 30 31  2  0  0  0
 28 29  1  0  0  0
 14 23  1  0  0  0
  8  9  1  0  0  0
M  END
> <minimizedAffinity>
-12.30840

$$$$
4RFM_3P6_A_701


 38 43  0  0  0  0  0  0  0  0999 V2000
   21.9407   -0.3051    6.3058 C   0  0  0  0  0  0  0  0  0  0  0  0
   23.3314   -0.1676    6.0454 C   0  0  0  0  0  0  0  0  0  0  0  0
   23.9896   -1.3251    6.0229 N   0  0  0  0  0  0  0  0  0  0  0  0
   22.9958   -2.2035    6.2518 N   0  0  0  0  0  0  0  0  0  0  0  0
   21.7610   -1.6473    6.4328 C   0  0  0  0  0  0  0  0  0  0  0  0
   19.7783    0.5788    5.6605 C   0  0  0  0  0  0  0  0  0  0  0  0
   19.5368   -0.3837    4.9470 O   0  0  0  0  0  0  0  0  0  0  0  0
   20.9212    0.6293    6.4231 N   0  0  0  0  0  0  0  0  0  0  0  0
   21.0203    1.3573    7.0785 H   0  0  0  0  0  0  0  0  0  0  0  0
   13.4480    3.0036    5.6569 C   0  0  0  0  0  0  0  0  0  0  0  0
   14.8067    2.8564    5.0616 C   0  0  0  0  0  0  0  0  0  0  0  0
   15.8617    3.8283    5.5703 C   0  0  0  0  0  0  0  0  0  0  0  0
   17.1844    3.1873    5.7738 C   0  0  0  0  0  0  0  0  0  0  0  0
   18.2835    3.7645    6.3317 N   0  0  0  0  0  0  0  0  0  0  0  0
   19.3324    2.9025    6.3586 N   0  0  0  0  0  0  0  0  0  0  0  0
   18.9081    1.7494    5.8076 C   0  0  0  0  0  0  0  0  0  0  0  0
   17.5497    1.9097    5.4519 C   0  0  0  0  0  0  0  0  0  0  0  0
   16.6267    0.9567    4.8251 C   0  0  0  0  0  0  0  0  0  0  0  0
   15.2090    1.4302    4.7377 C   0  0  0  0  0  0  0  0  0  0  0  0
   14.8923    2.4018    3.6522 C   0  0  0  0  0  0  0  0  0  0  0  0
   15.8789    3.0270    2.8871 F   0  0  0  0  0  0  0  0  0  0  0  0
   13.7282    2.2954    2.9164 F   0  0  0  0  0  0  0  0  0  0  0  0
   18.3141    4.6878    6.6718 H   0  0  0  0  0  0  0  0  0  0  0  0
   23.2501   -3.6322    6.3470 C   0  0  0  0  0  0  0  0  0  0  0  0
   24.6413   -4.0502    5.9062 C   0  0  0  0  0  0  0  0  0  0  0  0
   25.1138   -5.2726    6.6974 C   0  0  0  0  0  0  0  0  0  0  0  0
   26.5864   -5.5859    6.3772 C   0  0  0  0  0  0  0  0  0  0  0  0
   26.7530   -6.1637    5.0151 C   0  0  0  0  0  0  0  0  0  0  0  0
   26.2930   -5.1578    3.9624 C   0  0  0  0  0  0  0  0  0  0  0  0
   24.6119   -4.5234    4.1775 S   0  0  0  0  0  0  0  0  0  0  0  0
   23.6901   -5.6371    4.0165 O   0  0  0  0  0  0  0  0  0  0  0  0
   24.5134   -3.3257    3.3626 O   0  0  0  0  0  0  0  0  0  0  0  0
   22.9833   -4.0568    7.7702 C   0  0  0  0  0  0  0  0  0  0  0  0
   21.8761   -4.8303    8.0695 C   0  0  0  0  0  0  0  0  0  0  0  0
   21.6410   -5.2327    9.3756 C   0  0  0  0  0  0  0  0  0  0  0  0
   22.4896   -4.8493   10.3962 C   0  0  0  0  0  0  0  0  0  0  0  0
   23.5985   -4.0726   10.1044 C   0  0  0  0  0  0  0  0  0  0  0  0
   23.8381   -3.6811    8.7910 C   0  0  0  0  0  0  0  0  0  0  0  0
 21 20  1  0  0  0
 22 20  1  0  0  0
 37 36  2  0  0  0
 37 38  1  0  0  0
 20 19  1  0  0  0
 20 11  1  0  0  0
 36 35  1  0  0  0
 38 33  2  0  0  0
 19 18  1  0  0  0
 19 11  1  0  0  0
 18 17  1  0  0  0
 11 12  1  0  0  0
 11 10  1  0  0  0
  7  6  2  0  0  0
 35 34  2  0  0  0
 12 13  1  0  0  0
 17 13  2  0  0  0
 17 16  1  0  0  0
 13 14  1  0  0  0
  6 16  1  0  0  0
  6  8  1  0  0  0
  2  3  2  0  0  0
  2  1  1  0  0  0
 16 15  2  0  0  0
  3  4  1  0  0  0
 33 34  1  0  0  0
 33 24  1  0  0  0
 14 15  1  0  0  0
  1  8  1  0  0  0
  1  5  2  0  0  0
  4  5  1  0  0  0
  4 24  1  0  0  0
 24 25  1  0  0  0
 25 26  1  0  0  0
 25 30  1  0  0  0
 27 26  1  0  0  0
 27 28  1  0  0  0
 32 30  2  0  0  0
 30 29  1  0  0  0
 30 31  2  0  0  0
 28 29  1  0  0  0
 14 23  1  0  0  0
  8  9  1  0  0  0
M  END
> <minimizedAffinity>
-11.86068

$$$$
4RFM_3P6_A_701


 38 43  0  0  0  0  0  0  0  0999 V2000
   21.8942   -0.2363    6.1124 C   0  0  0  0  0  0  0  0  0  0  0  0
   21.8628   -1.5949    5.6949 C   0  0  0  0  0  0  0  0  0  0  0  0
   23.0633   -2.1693    5.6482 N   0  0  0  0  0  0  0  0  0  0  0  0
   23.8579   -1.1647    6.0616 N   0  0  0  0  0  0  0  0  0  0  0  0
   23.2124    0.0061    6.3436 C   0  0  0  0  0  0  0  0  0  0  0  0
   19.6752    0.6175    5.6432 C   0  0  0  0  0  0  0  0  0  0  0  0
   19.3638   -0.3829    5.0138 O   0  0  0  0  0  0  0  0  0  0  0  0
   20.8901    0.7069    6.2805 N   0  0  0  0  0  0  0  0  0  0  0  0
   21.0543    1.4704    6.8800 H   0  0  0  0  0  0  0  0  0  0  0  0
   13.3821    3.1371    5.6696 C   0  0  0  0  0  0  0  0  0  0  0  0
   14.7406    2.9821    5.0760 C   0  0  0  0  0  0  0  0  0  0  0  0
   15.8082    3.9270    5.6088 C   0  0  0  0  0  0  0  0  0  0  0  0
   17.1203    3.2619    5.8031 C   0  0  0  0  0  0  0  0  0  0  0  0
   18.2258    3.8104    6.3768 N   0  0  0  0  0  0  0  0  0  0  0  0
   19.2616    2.9324    6.3890 N   0  0  0  0  0  0  0  0  0  0  0  0
   18.8221    1.7977    5.8121 C   0  0  0  0  0  0  0  0  0  0  0  0
   17.4676    1.9861    5.4553 C   0  0  0  0  0  0  0  0  0  0  0  0
   16.5327    1.0606    4.8053 C   0  0  0  0  0  0  0  0  0  0  0  0
   15.1226    1.5572    4.7232 C   0  0  0  0  0  0  0  0  0  0  0  0
   14.8245    2.5563    3.6575 C   0  0  0  0  0  0  0  0  0  0  0  0
   15.8233    3.1826    2.9092 F   0  0  0  0  0  0  0  0  0  0  0  0
   13.6618    2.4831    2.9156 F   0  0  0  0  0  0  0  0  0  0  0  0
   18.2690    4.7258    6.7366 H   0  0  0  0  0  0  0  0  0  0  0  0
   25.3013   -1.3211    6.1446 C   0  0  0  0  0  0  0  0  0  0  0  0
   26.0677   -0.0136    6.2334 C   0  0  0  0  0  0  0  0  0  0  0  0
   27.2893   -0.1646    7.1434 C   0  0  0  0  0  0  0  0  0  0  0  0
   27.9621    1.2005    7.3738 C   0  0  0  0  0  0  0  0  0  0  0  0
   28.6836    1.6811    6.1633 C   0  0  0  0  0  0  0  0  0  0  0  0
   27.6982    1.8805    5.0140 C   0  0  0  0  0  0  0  0  0  0  0  0
   26.6757    0.4431    4.6102 S   0  0  0  0  0  0  0  0  0  0  0  0
   27.5562   -0.6109    4.1306 O   0  0  0  0  0  0  0  0  0  0  0  0
   25.5665    0.9343    3.8123 O   0  0  0  0  0  0  0  0  0  0  0  0
   25.6045   -2.2070    7.3277 C   0  0  0  0  0  0  0  0  0  0  0  0
   26.4290   -3.3080    7.1794 C   0  0  0  0  0  0  0  0  0  0  0  0
   26.7190   -4.1121    8.2713 C   0  0  0  0  0  0  0  0  0  0  0  0
   26.1729   -3.8429    9.5115 C   0  0  0  0  0  0  0  0  0  0  0  0
   25.3444   -2.7440    9.6668 C   0  0  0  0  0  0  0  0  0  0  0  0
   25.0656   -1.9322    8.5719 C   0  0  0  0  0  0  0  0  0  0  0  0
 21 20  1  0  0  0
 22 20  1  0  0  0
 37 36  2  0  0  0
 37 38  1  0  0  0
 20 19  1  0  0  0
 20 11  1  0  0  0
 36 35  1  0  0  0
 38 33  2  0  0  0
 19 18  1  0  0  0
 19 11  1  0  0  0
 18 17  1  0  0  0
 11 12  1  0  0  0
 11 10  1  0  0  0
  7  6  2  0  0  0
 35 34  2  0  0  0
 12 13  1  0  0  0
 17 13  2  0  0  0
 17 16  1  0  0  0
 13 14  1  0  0  0
  6 16  1  0  0  0
  6  8  1  0  0  0
  2  3  2  0  0  0
  2  1  1  0  0  0
 16 15  2  0  0  0
  3  4  1  0  0  0
 33 34  1  0  0  0
 33 24  1  0  0  0
 14 15  1  0  0  0
  1  8  1  0  0  0
  1  5  2  0  0  0
  4  5  1  0  0  0
  4 24  1  0  0  0
 24 25  1  0  0  0
 25 26  1  0  0  0
 25 30  1  0  0  0
 27 26  1  0  0  0
 27 28  1  0  0  0
 32 30  2  0  0  0
 30 29  1  0  0  0
 30 31  2  0  0  0
 28 29  1  0  0  0
 14 23  1  0  0  0
  8  9  1  0  0  0
M  END
> <minimizedAffinity>
-11.83196

$$$$
4RFM_3P6_A_701


 38 43  0  0  0  0  0  0  0  0999 V2000
   21.5185   -1.0115    6.4413 C   0  0  0  0  0  0  0  0  0  0  0  0
   21.3292   -2.3998    6.2007 C   0  0  0  0  0  0  0  0  0  0  0  0
   22.4618   -3.1000    6.1829 N   0  0  0  0  0  0  0  0  0  0  0  0
   23.3734   -2.1427    6.4360 N   0  0  0  0  0  0  0  0  0  0  0  0
   22.8643   -0.8843    6.5910 C   0  0  0  0  0  0  0  0  0  0  0  0
   19.6015    0.2260    5.6245 C   0  0  0  0  0  0  0  0  0  0  0  0
   19.3366   -0.6278    4.7910 O   0  0  0  0  0  0  0  0  0  0  0  0
   20.6244    0.0467    6.5255 N   0  0  0  0  0  0  0  0  0  0  0  0
   20.7266    0.6947    7.2596 H   0  0  0  0  0  0  0  0  0  0  0  0
   13.6034    3.3787    5.8145 C   0  0  0  0  0  0  0  0  0  0  0  0
   14.9103    3.0633    5.1707 C   0  0  0  0  0  0  0  0  0  0  0  0
   16.0915    3.9121    5.6188 C   0  0  0  0  0  0  0  0  0  0  0  0
   17.3373    3.1231    5.7843 C   0  0  0  0  0  0  0  0  0  0  0  0
   18.5180    3.5755    6.2879 N   0  0  0  0  0  0  0  0  0  0  0  0
   19.4591    2.5966    6.2920 N   0  0  0  0  0  0  0  0  0  0  0  0
   18.8808    1.4930    5.7811 C   0  0  0  0  0  0  0  0  0  0  0  0
   17.5373    1.8065    5.4745 C   0  0  0  0  0  0  0  0  0  0  0  0
   16.4845    0.9592    4.9030 C   0  0  0  0  0  0  0  0  0  0  0  0
   15.1295    1.5948    4.8605 C   0  0  0  0  0  0  0  0  0  0  0  0
   14.8850    2.5799    3.7685 C   0  0  0  0  0  0  0  0  0  0  0  0
   15.9063    3.0726    2.9537 F   0  0  0  0  0  0  0  0  0  0  0  0
   13.6878    2.5998    3.0801 F   0  0  0  0  0  0  0  0  0  0  0  0
   18.6701    4.4941    6.6079 H   0  0  0  0  0  0  0  0  0  0  0  0
   24.7960   -2.4405    6.4847 C   0  0  0  0  0  0  0  0  0  0  0  0
   25.1595   -3.6099    7.3819 C   0  0  0  0  0  0  0  0  0  0  0  0
   26.6603   -3.9020    7.3067 C   0  0  0  0  0  0  0  0  0  0  0  0
   26.9976   -5.1926    8.0746 C   0  0  0  0  0  0  0  0  0  0  0  0
   26.9128   -5.0056    9.5494 C   0  0  0  0  0  0  0  0  0  0  0  0
   25.4859   -4.6342    9.9466 C   0  0  0  0  0  0  0  0  0  0  0  0
   24.7892   -3.2019    9.0877 S   0  0  0  0  0  0  0  0  0  0  0  0
   25.5676   -2.0325    9.4651 O   0  0  0  0  0  0  0  0  0  0  0  0
   23.3518   -3.2593    9.2847 O   0  0  0  0  0  0  0  0  0  0  0  0
   25.2691   -2.6759    5.0713 C   0  0  0  0  0  0  0  0  0  0  0  0
   24.7690   -3.7370    4.3379 C   0  0  0  0  0  0  0  0  0  0  0  0
   25.1933   -3.9425    3.0338 C   0  0  0  0  0  0  0  0  0  0  0  0
   26.1347   -3.1112    2.4580 C   0  0  0  0  0  0  0  0  0  0  0  0
   26.6417   -2.0485    3.1873 C   0  0  0  0  0  0  0  0  0  0  0  0
   26.2045   -1.8378    4.4912 C   0  0  0  0  0  0  0  0  0  0  0  0
 21 20  1  0  0  0
 22 20  1  0  0  0
 37 36  2  0  0  0
 37 38  1  0  0  0
 20 19  1  0  0  0
 20 11  1  0  0  0
 36 35  1  0  0  0
 38 33  2  0  0  0
 19 18  1  0  0  0
 19 11  1  0  0  0
 18 17  1  0  0  0
 11 12  1  0  0  0
 11 10  1  0  0  0
  7  6  2  0  0  0
 35 34  2  0  0  0
 12 13  1  0  0  0
 17 13  2  0  0  0
 17 16  1  0  0  0
 13 14  1  0  0  0
  6 16  1  0  0  0
  6  8  1  0  0  0
  2  3  2  0  0  0
  2  1  1  0  0  0
 16 15  2  0  0  0
  3  4  1  0  0  0
 33 34  1  0  0  0
 33 24  1  0  0  0
 14 15  1  0  0  0
  1  8  1  0  0  0
  1  5  2  0  0  0
  4  5  1  0  0  0
  4 24  1  0  0  0
 24 25  1  0  0  0
 25 26  1  0  0  0
 25 30  1  0  0  0
 27 26  1  0  0  0
 27 28  1  0  0  0
 32 30  2  0  0  0
 30 29  1  0  0  0
 30 31  2  0  0  0
 28 29  1  0  0  0
 14 23  1  0  0  0
  8  9  1  0  0  0
M  END
> <minimizedAffinity>
-11.25586

$$$$
4RFM_3P6_A_701


 38 43  0  0  0  0  0  0  0  0999 V2000
   21.6486   -0.8271    6.1324 C   0  0  0  0  0  0  0  0  0  0  0  0
   21.4133   -2.2131    6.3434 C   0  0  0  0  0  0  0  0  0  0  0  0
   22.4797   -2.9783    6.1184 N   0  0  0  0  0  0  0  0  0  0  0  0
   23.4033   -2.0592    5.7813 N   0  0  0  0  0  0  0  0  0  0  0  0
   22.9578   -0.7676    5.7686 C   0  0  0  0  0  0  0  0  0  0  0  0
   19.4609    0.2130    6.0585 C   0  0  0  0  0  0  0  0  0  0  0  0
   18.8930   -0.8629    5.9413 O   0  0  0  0  0  0  0  0  0  0  0  0
   20.8217    0.2823    6.2413 N   0  0  0  0  0  0  0  0  0  0  0  0
   21.2258    1.1535    6.4581 H   0  0  0  0  0  0  0  0  0  0  0  0
   13.5970    3.6006    5.7564 C   0  0  0  0  0  0  0  0  0  0  0  0
   14.8955    3.1531    5.1772 C   0  0  0  0  0  0  0  0  0  0  0  0
   16.1067    4.0047    5.5296 C   0  0  0  0  0  0  0  0  0  0  0  0
   17.3172    3.1946    5.8128 C   0  0  0  0  0  0  0  0  0  0  0  0
   18.5109    3.6606    6.2710 N   0  0  0  0  0  0  0  0  0  0  0  0
   19.4107    2.6536    6.4142 N   0  0  0  0  0  0  0  0  0  0  0  0
   18.7919    1.5174    6.0408 C   0  0  0  0  0  0  0  0  0  0  0  0
   17.4653    1.8421    5.6774 C   0  0  0  0  0  0  0  0  0  0  0  0
   16.3836    0.9709    5.2043 C   0  0  0  0  0  0  0  0  0  0  0  0
   15.0566    1.6493    5.0611 C   0  0  0  0  0  0  0  0  0  0  0  0
   14.8630    2.4946    3.8484 C   0  0  0  0  0  0  0  0  0  0  0  0
   15.9112    2.8371    2.9918 F   0  0  0  0  0  0  0  0  0  0  0  0
   13.6739    2.4733    3.1460 F   0  0  0  0  0  0  0  0  0  0  0  0
   18.6981    4.6059    6.4727 H   0  0  0  0  0  0  0  0  0  0  0  0
   24.7568   -2.4410    5.4109 C   0  0  0  0  0  0  0  0  0  0  0  0
   24.8674   -3.1137    4.0544 C   0  0  0  0  0  0  0  0  0  0  0  0
   26.2195   -2.8040    3.4069 C   0  0  0  0  0  0  0  0  0  0  0  0
   26.2606   -3.3365    1.9633 C   0  0  0  0  0  0  0  0  0  0  0  0
   26.3616   -4.8212    1.9163 C   0  0  0  0  0  0  0  0  0  0  0  0
   25.1305   -5.4483    2.5666 C   0  0  0  0  0  0  0  0  0  0  0  0
   24.7754   -4.8929    4.2519 S   0  0  0  0  0  0  0  0  0  0  0  0
   25.8727   -5.3230    5.1046 O   0  0  0  0  0  0  0  0  0  0  0  0
   23.3999   -5.2658    4.5300 O   0  0  0  0  0  0  0  0  0  0  0  0
   25.6207   -1.2055    5.4738 C   0  0  0  0  0  0  0  0  0  0  0  0
   26.4116   -0.9654    6.5833 C   0  0  0  0  0  0  0  0  0  0  0  0
   27.2168    0.1625    6.6326 C   0  0  0  0  0  0  0  0  0  0  0  0
   27.2234    1.0717    5.5923 C   0  0  0  0  0  0  0  0  0  0  0  0
   26.4321    0.8392    4.4797 C   0  0  0  0  0  0  0  0  0  0  0  0
   25.6349   -0.2999    4.4281 C   0  0  0  0  0  0  0  0  0  0  0  0
 21 20  1  0  0  0
 22 20  1  0  0  0
 37 36  2  0  0  0
 37 38  1  0  0  0
 20 19  1  0  0  0
 20 11  1  0  0  0
 36 35  1  0  0  0
 38 33  2  0  0  0
 19 18  1  0  0  0
 19 11  1  0  0  0
 18 17  1  0  0  0
 11 12  1  0  0  0
 11 10  1  0  0  0
  7  6  2  0  0  0
 35 34  2  0  0  0
 12 13  1  0  0  0
 17 13  2  0  0  0
 17 16  1  0  0  0
 13 14  1  0  0  0
  6 16  1  0  0  0
  6  8  1  0  0  0
  2  3  2  0  0  0
  2  1  1  0  0  0
 16 15  2  0  0  0
  3  4  1  0  0  0
 33 34  1  0  0  0
 33 24  1  0  0  0
 14 15  1  0  0  0
  1  8  1  0  0  0
  1  5  2  0  0  0
  4  5  1  0  0  0
  4 24  1  0  0  0
 24 25  1  0  0  0
 25 26  1  0  0  0
 25 30  1  0  0  0
 27 26  1  0  0  0
 27 28  1  0  0  0
 32 30  2  0  0  0
 30 29  1  0  0  0
 30 31  2  0  0  0
 28 29  1  0  0  0
 14 23  1  0  0  0
  8  9  1  0  0  0
M  END
> <minimizedAffinity>
-11.13801

$$$$
4RFM_3P6_A_701


 38 43  0  0  0  0  0  0  0  0999 V2000
   22.5478   -0.1596    6.2848 C   0  0  0  0  0  0  0  0  0  0  0  0
   23.5691   -0.2572    5.3007 C   0  0  0  0  0  0  0  0  0  0  0  0
   24.4462   -1.2319    5.5331 N   0  0  0  0  0  0  0  0  0  0  0  0
   23.9582   -1.7674    6.6674 N   0  0  0  0  0  0  0  0  0  0  0  0
   22.8355   -1.1623    7.1576 C   0  0  0  0  0  0  0  0  0  0  0  0
   20.2707    0.5016    5.7841 C   0  0  0  0  0  0  0  0  0  0  0  0
   20.0434   -0.5374    5.1818 O   0  0  0  0  0  0  0  0  0  0  0  0
   21.4710    0.7050    6.4229 N   0  0  0  0  0  0  0  0  0  0  0  0
   21.5706    1.4954    7.0014 H   0  0  0  0  0  0  0  0  0  0  0  0
   13.7942    2.5032    5.7702 C   0  0  0  0  0  0  0  0  0  0  0  0
   15.1576    2.4369    5.1716 C   0  0  0  0  0  0  0  0  0  0  0  0
   16.1478    3.4839    5.6610 C   0  0  0  0  0  0  0  0  0  0  0  0
   17.5106    2.9348    5.8686 C   0  0  0  0  0  0  0  0  0  0  0  0
   18.5709    3.5917    6.4131 N   0  0  0  0  0  0  0  0  0  0  0  0
   19.6746    2.8014    6.4487 N   0  0  0  0  0  0  0  0  0  0  0  0
   19.3255    1.6144    5.9170 C   0  0  0  0  0  0  0  0  0  0  0  0
   17.9584    1.6793    5.5646 C   0  0  0  0  0  0  0  0  0  0  0  0
   17.0984    0.6579    4.9562 C   0  0  0  0  0  0  0  0  0  0  0  0
   15.6522    1.0355    4.8676 C   0  0  0  0  0  0  0  0  0  0  0  0
   15.2686    1.9672    3.7688 C   0  0  0  0  0  0  0  0  0  0  0  0
   16.2094    2.6443    2.9902 F   0  0  0  0  0  0  0  0  0  0  0  0
   14.1118    1.7729    3.0396 F   0  0  0  0  0  0  0  0  0  0  0  0
   18.5416    4.5202    6.7391 H   0  0  0  0  0  0  0  0  0  0  0  0
   24.6236   -2.8758    7.3332 C   0  0  0  0  0  0  0  0  0  0  0  0
   24.1018   -3.1715    8.7278 C   0  0  0  0  0  0  0  0  0  0  0  0
   23.3234   -4.4895    8.7449 C   0  0  0  0  0  0  0  0  0  0  0  0
   22.6471   -4.6988   10.1116 C   0  0  0  0  0  0  0  0  0  0  0  0
   23.6295   -5.0430   11.1762 C   0  0  0  0  0  0  0  0  0  0  0  0
   24.6199   -3.8958   11.3623 C   0  0  0  0  0  0  0  0  0  0  0  0
   25.4774   -3.3597    9.8616 S   0  0  0  0  0  0  0  0  0  0  0  0
   26.3088   -4.4623    9.4041 O   0  0  0  0  0  0  0  0  0  0  0  0
   26.0348   -2.0500   10.1480 O   0  0  0  0  0  0  0  0  0  0  0  0
   24.5064   -4.0889    6.4436 C   0  0  0  0  0  0  0  0  0  0  0  0
   23.2620   -4.5340    6.0344 C   0  0  0  0  0  0  0  0  0  0  0  0
   23.1571   -5.6397    5.2041 C   0  0  0  0  0  0  0  0  0  0  0  0
   24.2848   -6.3251    4.7948 C   0  0  0  0  0  0  0  0  0  0  0  0
   25.5336   -5.8868    5.2027 C   0  0  0  0  0  0  0  0  0  0  0  0
   25.6359   -4.7697    6.0257 C   0  0  0  0  0  0  0  0  0  0  0  0
 21 20  1  0  0  0
 22 20  1  0  0  0
 37 36  2  0  0  0
 37 38  1  0  0  0
 20 19  1  0  0  0
 20 11  1  0  0  0
 36 35  1  0  0  0
 38 33  2  0  0  0
 19 18  1  0  0  0
 19 11  1  0  0  0
 18 17  1  0  0  0
 11 12  1  0  0  0
 11 10  1  0  0  0
  7  6  2  0  0  0
 35 34  2  0  0  0
 12 13  1  0  0  0
 17 13  2  0  0  0
 17 16  1  0  0  0
 13 14  1  0  0  0
  6 16  1  0  0  0
  6  8  1  0  0  0
  2  3  2  0  0  0
  2  1  1  0  0  0
 16 15  2  0  0  0
  3  4  1  0  0  0
 33 34  1  0  0  0
 33 24  1  0  0  0
 14 15  1  0  0  0
  1  8  1  0  0  0
  1  5  2  0  0  0
  4  5  1  0  0  0
  4 24  1  0  0  0
 24 25  1  0  0  0
 25 26  1  0  0  0
 25 30  1  0  0  0
 27 26  1  0  0  0
 27 28  1  0  0  0
 32 30  2  0  0  0
 30 29  1  0  0  0
 30 31  2  0  0  0
 28 29  1  0  0  0
 14 23  1  0  0  0
  8  9  1  0  0  0
M  END
> <minimizedAffinity>
-11.01321

$$$$
4RFM_3P6_A_701


 38 43  0  0  0  0  0  0  0  0999 V2000
   21.7887   -0.4273    6.0058 C   0  0  0  0  0  0  0  0  0  0  0  0
   21.7607   -1.8474    6.0652 C   0  0  0  0  0  0  0  0  0  0  0  0
   22.9357   -2.4181    5.8061 N   0  0  0  0  0  0  0  0  0  0  0  0
   23.7176   -1.3418    5.6013 N   0  0  0  0  0  0  0  0  0  0  0  0
   23.0823   -0.1364    5.7024 C   0  0  0  0  0  0  0  0  0  0  0  0
   19.6018    0.4986    5.5228 C   0  0  0  0  0  0  0  0  0  0  0  0
   19.2854   -0.4632    4.8383 O   0  0  0  0  0  0  0  0  0  0  0  0
   20.8013    0.5296    6.1940 N   0  0  0  0  0  0  0  0  0  0  0  0
   20.9663    1.2596    6.8336 H   0  0  0  0  0  0  0  0  0  0  0  0
   13.3541    3.1259    5.6484 C   0  0  0  0  0  0  0  0  0  0  0  0
   14.7068    2.9630    5.0438 C   0  0  0  0  0  0  0  0  0  0  0  0
   15.7934    3.8747    5.5957 C   0  0  0  0  0  0  0  0  0  0  0  0
   17.0945    3.1820    5.7655 C   0  0  0  0  0  0  0  0  0  0  0  0
   18.2122    3.6959    6.3476 N   0  0  0  0  0  0  0  0  0  0  0  0
   19.2325    2.7999    6.3313 N   0  0  0  0  0  0  0  0  0  0  0  0
   18.7703    1.6887    5.7272 C   0  0  0  0  0  0  0  0  0  0  0  0
   17.4177    1.9099    5.3825 C   0  0  0  0  0  0  0  0  0  0  0  0
   16.4636    1.0183    4.7134 C   0  0  0  0  0  0  0  0  0  0  0  0
   15.0620    1.5414    4.6517 C   0  0  0  0  0  0  0  0  0  0  0  0
   14.7765    2.5732    3.6142 C   0  0  0  0  0  0  0  0  0  0  0  0
   15.7825    3.2015    2.8774 F   0  0  0  0  0  0  0  0  0  0  0  0
   13.6091    2.5398    2.8768 F   0  0  0  0  0  0  0  0  0  0  0  0
   18.2732    4.6006    6.7311 H   0  0  0  0  0  0  0  0  0  0  0  0
   25.1217   -1.4776    5.2481 C   0  0  0  0  0  0  0  0  0  0  0  0
   26.0471   -1.6865    6.4334 C   0  0  0  0  0  0  0  0  0  0  0  0
   26.7212   -3.0587    6.3567 C   0  0  0  0  0  0  0  0  0  0  0  0
   27.5179   -3.3407    7.6432 C   0  0  0  0  0  0  0  0  0  0  0  0
   28.7590   -2.5221    7.7245 C   0  0  0  0  0  0  0  0  0  0  0  0
   28.4030   -1.0377    7.7607 C   0  0  0  0  0  0  0  0  0  0  0  0
   27.3524   -0.4583    6.4060 S   0  0  0  0  0  0  0  0  0  0  0  0
   28.1006   -0.6033    5.1670 O   0  0  0  0  0  0  0  0  0  0  0  0
   26.8054    0.8203    6.8233 O   0  0  0  0  0  0  0  0  0  0  0  0
   25.2438   -2.6116    4.2603 C   0  0  0  0  0  0  0  0  0  0  0  0
   24.5472   -3.7895    4.4636 C   0  0  0  0  0  0  0  0  0  0  0  0
   24.6484   -4.8248    3.5466 C   0  0  0  0  0  0  0  0  0  0  0  0
   25.4607   -4.7070    2.4353 C   0  0  0  0  0  0  0  0  0  0  0  0
   26.1632   -3.5318    2.2267 C   0  0  0  0  0  0  0  0  0  0  0  0
   26.0496   -2.4904    3.1423 C   0  0  0  0  0  0  0  0  0  0  0  0
 21 20  1  0  0  0
 22 20  1  0  0  0
 37 36  2  0  0  0
 37 38  1  0  0  0
 20 19  1  0  0  0
 20 11  1  0  0  0
 36 35  1  0  0  0
 38 33  2  0  0  0
 19 18  1  0  0  0
 19 11  1  0  0  0
 18 17  1  0  0  0
 11 12  1  0  0  0
 11 10  1  0  0  0
  7  6  2  0  0  0
 35 34  2  0  0  0
 12 13  1  0  0  0
 17 13  2  0  0  0
 17 16  1  0  0  0
 13 14  1  0  0  0
  6 16  1  0  0  0
  6  8  1  0  0  0
  2  3  2  0  0  0
  2  1  1  0  0  0
 16 15  2  0  0  0
  3  4  1  0  0  0
 33 34  1  0  0  0
 33 24  1  0  0  0
 14 15  1  0  0  0
  1  8  1  0  0  0
  1  5  2  0  0  0
  4  5  1  0  0  0
  4 24  1  0  0  0
 24 25  1  0  0  0
 25 26  1  0  0  0
 25 30  1  0  0  0
 27 26  1  0  0  0
 27 28  1  0  0  0
 32 30  2  0  0  0
 30 29  1  0  0  0
 30 31  2  0  0  0
 28 29  1  0  0  0
 14 23  1  0  0  0
  8  9  1  0  0  0
M  END
> <minimizedAffinity>
-10.94190

$$$$
4RFM_3P6_A_701


 38 43  0  0  0  0  0  0  0  0999 V2000
   21.7630   -0.2310    6.3074 C   0  0  0  0  0  0  0  0  0  0  0  0
   22.9659   -0.2337    5.5498 C   0  0  0  0  0  0  0  0  0  0  0  0
   23.7035   -1.3295    5.7190 N   0  0  0  0  0  0  0  0  0  0  0  0
   22.9444   -2.0341    6.5786 N   0  0  0  0  0  0  0  0  0  0  0  0
   21.7848   -1.4223    6.9633 C   0  0  0  0  0  0  0  0  0  0  0  0
   19.6317    0.6926    5.6159 C   0  0  0  0  0  0  0  0  0  0  0  0
   19.4166   -0.2348    4.8493 O   0  0  0  0  0  0  0  0  0  0  0  0
   20.7424    0.7021    6.4261 N   0  0  0  0  0  0  0  0  0  0  0  0
   20.8168    1.3986    7.1179 H   0  0  0  0  0  0  0  0  0  0  0  0
   13.2977    3.1073    5.6551 C   0  0  0  0  0  0  0  0  0  0  0  0
   14.6559    2.9711    5.0563 C   0  0  0  0  0  0  0  0  0  0  0  0
   15.7100    3.9370    5.5782 C   0  0  0  0  0  0  0  0  0  0  0  0
   17.0339    3.2951    5.7707 C   0  0  0  0  0  0  0  0  0  0  0  0
   18.1327    3.8656    6.3359 N   0  0  0  0  0  0  0  0  0  0  0  0
   19.1830    3.0049    6.3489 N   0  0  0  0  0  0  0  0  0  0  0  0
   18.7598    1.8595    5.7812 C   0  0  0  0  0  0  0  0  0  0  0  0
   17.4008    2.0230    5.4294 C   0  0  0  0  0  0  0  0  0  0  0  0
   16.4786    1.0780    4.7896 C   0  0  0  0  0  0  0  0  0  0  0  0
   15.0600    1.5505    4.7108 C   0  0  0  0  0  0  0  0  0  0  0  0
   14.7406    2.5376    3.6402 C   0  0  0  0  0  0  0  0  0  0  0  0
   15.7255    3.1757    2.8834 F   0  0  0  0  0  0  0  0  0  0  0  0
   13.5760    2.4403    2.9041 F   0  0  0  0  0  0  0  0  0  0  0  0
   18.1623    4.7838    6.6897 H   0  0  0  0  0  0  0  0  0  0  0  0
   23.3722   -3.3274    7.0876 C   0  0  0  0  0  0  0  0  0  0  0  0
   23.9794   -4.2420    6.0392 C   0  0  0  0  0  0  0  0  0  0  0  0
   25.5036   -4.2823    6.1753 C   0  0  0  0  0  0  0  0  0  0  0  0
   26.1289   -5.0651    5.0068 C   0  0  0  0  0  0  0  0  0  0  0  0
   25.8879   -6.5300    5.1211 C   0  0  0  0  0  0  0  0  0  0  0  0
   24.3890   -6.8171    5.0723 C   0  0  0  0  0  0  0  0  0  0  0  0
   23.3867   -5.9165    6.2802 S   0  0  0  0  0  0  0  0  0  0  0  0
   23.7800   -6.3618    7.6080 O   0  0  0  0  0  0  0  0  0  0  0  0
   22.0113   -6.0001    5.8223 O   0  0  0  0  0  0  0  0  0  0  0  0
   24.3407   -3.0832    8.2186 C   0  0  0  0  0  0  0  0  0  0  0  0
   25.4181   -2.2337    8.0408 C   0  0  0  0  0  0  0  0  0  0  0  0
   26.2983   -1.9983    9.0861 C   0  0  0  0  0  0  0  0  0  0  0  0
   26.1290   -2.6237   10.3064 C   0  0  0  0  0  0  0  0  0  0  0  0
   25.0543   -3.4776   10.4907 C   0  0  0  0  0  0  0  0  0  0  0  0
   24.1660   -3.7017    9.4437 C   0  0  0  0  0  0  0  0  0  0  0  0
 21 20  1  0  0  0
 22 20  1  0  0  0
 37 36  2  0  0  0
 37 38  1  0  0  0
 20 19  1  0  0  0
 20 11  1  0  0  0
 36 35  1  0  0  0
 38 33  2  0  0  0
 19 18  1  0  0  0
 19 11  1  0  0  0
 18 17  1  0  0  0
 11 12  1  0  0  0
 11 10  1  0  0  0
  7  6  2  0  0  0
 35 34  2  0  0  0
 12 13  1  0  0  0
 17 13  2  0  0  0
 17 16  1  0  0  0
 13 14  1  0  0  0
  6 16  1  0  0  0
  6  8  1  0  0  0
  2  3  2  0  0  0
  2  1  1  0  0  0
 16 15  2  0  0  0
  3  4  1  0  0  0
 33 34  1  0  0  0
 33 24  1  0  0  0
 14 15  1  0  0  0
  1  8  1  0  0  0
  1  5  2  0  0  0
  4  5  1  0  0  0
  4 24  1  0  0  0
 24 25  1  0  0  0
 25 26  1  0  0  0
 25 30  1  0  0  0
 27 26  1  0  0  0
 27 28  1  0  0  0
 32 30  2  0  0  0
 30 29  1  0  0  0
 30 31  2  0  0  0
 28 29  1  0  0  0
 14 23  1  0  0  0
  8  9  1  0  0  0
M  END
> <minimizedAffinity>
-10.90226

$$$$
