1BCU_PRL_H_280


 20 22  0  0  0  0  0  0  0  0999 V2000
    9.0056   23.2956   49.5089 C   0  0  0  0  0  0  0  0  0  0  0  0
    9.8076   23.5829   48.4845 C   0  0  0  0  0  0  0  0  0  0  0  0
   10.8060   22.6516   48.0084 C   0  0  0  0  0  0  0  0  0  0  0  0
   10.9225   21.4386   48.6606 C   0  0  0  0  0  0  0  0  0  0  0  0
    9.4897   18.2050   51.8954 C   0  0  0  0  0  0  0  0  0  0  0  0
    8.6607   17.7734   52.9159 C   0  0  0  0  0  0  0  0  0  0  0  0
    7.6464   18.6856   53.4012 C   0  0  0  0  0  0  0  0  0  0  0  0
    7.4999   19.9103   52.8928 C   0  0  0  0  0  0  0  0  0  0  0  0
    8.2517   21.6390   51.2323 C   0  0  0  0  0  0  0  0  0  0  0  0
   10.1689   19.8891   50.3309 N   0  0  0  0  0  0  0  0  0  0  0  0
   10.0978   21.1208   49.7186 C   0  0  0  0  0  0  0  0  0  0  0  0
    8.3500   20.3897   51.8230 C   0  0  0  0  0  0  0  0  0  0  0  0
    9.0869   22.0312   50.1994 C   0  0  0  0  0  0  0  0  0  0  0  0
    9.3539   19.4654   51.3566 C   0  0  0  0  0  0  0  0  0  0  0  0
   11.5358   22.9414   46.9076 N   0  0  0  0  0  0  0  0  0  0  0  0
    8.7728   16.5305   53.4390 N   0  0  0  0  0  0  0  0  0  0  0  0
   11.4318   23.8139   46.4636 H   0  0  0  0  0  0  0  0  0  0  0  0
   12.1712   22.2798   46.5500 H   0  0  0  0  0  0  0  0  0  0  0  0
    9.4649   15.9159   53.1038 H   0  0  0  0  0  0  0  0  0  0  0  0
    8.1621   16.2409   54.1549 H   0  0  0  0  0  0  0  0  0  0  0  0
  1  2  2  0  0  0
  1 13  1  0  0  0
  2  3  1  0  0  0
  3  4  2  0  0  0
  3 15  1  0  0  0
  4 11  1  0  0  0
  5  6  2  0  0  0
  5 14  1  0  0  0
  6  7  1  0  0  0
  6 16  1  0  0  0
  7  8  2  0  0  0
  8 12  1  0  0  0
  9 12  2  0  0  0
  9 13  1  0  0  0
 10 11  1  0  0  0
 10 14  2  0  0  0
 11 13  2  0  0  0
 12 14  1  0  0  0
 15 17  1  0  0  0
 15 18  1  0  0  0
 16 19  1  0  0  0
 16 20  1  0  0  0
M  END
> <minimizedAffinity>
-7.68084

$$$$
1BCU_PRL_H_280


 20 22  0  0  0  0  0  0  0  0999 V2000
    7.8582   19.7542   52.6805 C   0  0  0  0  0  0  0  0  0  0  0  0
    8.1612   18.5476   53.1575 C   0  0  0  0  0  0  0  0  0  0  0  0
    9.1904   17.7248   52.5625 C   0  0  0  0  0  0  0  0  0  0  0  0
    9.8570   18.2204   51.4578 C   0  0  0  0  0  0  0  0  0  0  0  0
   10.8449   21.6890   48.3010 C   0  0  0  0  0  0  0  0  0  0  0  0
   10.6658   22.9552   47.7721 C   0  0  0  0  0  0  0  0  0  0  0  0
    9.6476   23.8008   48.3593 C   0  0  0  0  0  0  0  0  0  0  0  0
    8.8939   23.3893   49.3804 C   0  0  0  0  0  0  0  0  0  0  0  0
    8.3288   21.5767   51.0252 C   0  0  0  0  0  0  0  0  0  0  0  0
   10.2661   19.9919   49.8915 N   0  0  0  0  0  0  0  0  0  0  0  0
    9.5618   19.4690   50.9534 C   0  0  0  0  0  0  0  0  0  0  0  0
    9.0593   22.0714   49.9571 C   0  0  0  0  0  0  0  0  0  0  0  0
    8.5476   20.3103   51.5414 C   0  0  0  0  0  0  0  0  0  0  0  0
   10.0774   21.2460   49.3556 C   0  0  0  0  0  0  0  0  0  0  0  0
    9.5334   16.5474   53.1323 N   0  0  0  0  0  0  0  0  0  0  0  0
   11.4272   23.4075   46.7491 N   0  0  0  0  0  0  0  0  0  0  0  0
    9.0406   16.2191   53.9188 H   0  0  0  0  0  0  0  0  0  0  0  0
   10.2760   16.0185   52.7606 H   0  0  0  0  0  0  0  0  0  0  0  0
   12.1175   22.8266   46.3549 H   0  0  0  0  0  0  0  0  0  0  0  0
   11.2909   24.3174   46.3988 H   0  0  0  0  0  0  0  0  0  0  0  0
  1  2  2  0  0  0
  1 13  1  0  0  0
  2  3  1  0  0  0
  3  4  2  0  0  0
  3 15  1  0  0  0
  4 11  1  0  0  0
  5  6  2  0  0  0
  5 14  1  0  0  0
  6  7  1  0  0  0
  6 16  1  0  0  0
  7  8  2  0  0  0
  8 12  1  0  0  0
  9 12  2  0  0  0
  9 13  1  0  0  0
 10 11  1  0  0  0
 10 14  2  0  0  0
 11 13  2  0  0  0
 12 14  1  0  0  0
 15 17  1  0  0  0
 15 18  1  0  0  0
 16 19  1  0  0  0
 16 20  1  0  0  0
M  END
> <minimizedAffinity>
-7.57477

$$$$
1BCU_PRL_H_280


 20 22  0  0  0  0  0  0  0  0999 V2000
    9.3800   18.9783   51.7978 C   0  0  0  0  0  0  0  0  0  0  0  0
    8.5178   18.8827   52.8090 C   0  0  0  0  0  0  0  0  0  0  0  0
    7.6115   19.9572   53.1474 C   0  0  0  0  0  0  0  0  0  0  0  0
    7.6695   21.1142   52.3935 C   0  0  0  0  0  0  0  0  0  0  0  0
    9.3085   23.6967   48.7033 C   0  0  0  0  0  0  0  0  0  0  0  0
   10.1075   23.8737   47.5874 C   0  0  0  0  0  0  0  0  0  0  0  0
   11.0153   22.8060   47.2235 C   0  0  0  0  0  0  0  0  0  0  0  0
   11.0940   21.6775   47.9307 C   0  0  0  0  0  0  0  0  0  0  0  0
   10.2808   20.3144   49.8778 C   0  0  0  0  0  0  0  0  0  0  0  0
    8.5684   22.3563   50.5475 N   0  0  0  0  0  0  0  0  0  0  0  0
    8.5507   21.2297   51.3395 C   0  0  0  0  0  0  0  0  0  0  0  0
   10.2694   21.4616   49.1013 C   0  0  0  0  0  0  0  0  0  0  0  0
    9.4534   20.1636   50.9782 C   0  0  0  0  0  0  0  0  0  0  0  0
    9.3744   22.5385   49.4461 C   0  0  0  0  0  0  0  0  0  0  0  0
    6.6872   19.7862   54.1195 N   0  0  0  0  0  0  0  0  0  0  0  0
   10.0370   24.9991   46.8396 N   0  0  0  0  0  0  0  0  0  0  0  0
    6.6697   18.9512   54.6407 H   0  0  0  0  0  0  0  0  0  0  0  0
    6.0317   20.4967   54.3061 H   0  0  0  0  0  0  0  0  0  0  0  0
    9.4172   25.7208   47.0934 H   0  0  0  0  0  0  0  0  0  0  0  0
   10.6053   25.0963   46.0416 H   0  0  0  0  0  0  0  0  0  0  0  0
  1  2  2  0  0  0
  1 13  1  0  0  0
  2  3  1  0  0  0
  3  4  2  0  0  0
  3 15  1  0  0  0
  4 11  1  0  0  0
  5  6  2  0  0  0
  5 14  1  0  0  0
  6  7  1  0  0  0
  6 16  1  0  0  0
  7  8  2  0  0  0
  8 12  1  0  0  0
  9 12  2  0  0  0
  9 13  1  0  0  0
 10 11  1  0  0  0
 10 14  2  0  0  0
 11 13  2  0  0  0
 12 14  1  0  0  0
 15 17  1  0  0  0
 15 18  1  0  0  0
 16 19  1  0  0  0
 16 20  1  0  0  0
M  END
> <minimizedAffinity>
-7.57007

$$$$
1BCU_PRL_H_280


 20 22  0  0  0  0  0  0  0  0999 V2000
   11.0292   21.6706   47.7783 C   0  0  0  0  0  0  0  0  0  0  0  0
   11.0257   22.8289   47.1199 C   0  0  0  0  0  0  0  0  0  0  0  0
   10.1838   23.9346   47.5190 C   0  0  0  0  0  0  0  0  0  0  0  0
    9.3559   23.7561   48.6113 C   0  0  0  0  0  0  0  0  0  0  0  0
    7.7417   21.2172   52.3424 C   0  0  0  0  0  0  0  0  0  0  0  0
    7.7214   20.0884   53.1427 C   0  0  0  0  0  0  0  0  0  0  0  0
    8.5648   18.9727   52.7681 C   0  0  0  0  0  0  0  0  0  0  0  0
    9.3451   19.0123   51.6866 C   0  0  0  0  0  0  0  0  0  0  0  0
   10.1834   20.3046   49.7022 C   0  0  0  0  0  0  0  0  0  0  0  0
    8.5725   22.4068   50.4345 N   0  0  0  0  0  0  0  0  0  0  0  0
    9.3498   22.5670   49.3090 C   0  0  0  0  0  0  0  0  0  0  0  0
    9.3901   20.1798   50.8311 C   0  0  0  0  0  0  0  0  0  0  0  0
   10.1923   21.4571   48.9343 C   0  0  0  0  0  0  0  0  0  0  0  0
    8.5411   21.2778   51.2222 C   0  0  0  0  0  0  0  0  0  0  0  0
   10.2779   25.1245   46.8836 N   0  0  0  0  0  0  0  0  0  0  0  0
    6.9547   20.0256   54.2559 N   0  0  0  0  0  0  0  0  0  0  0  0
   10.8762   25.2224   46.1079 H   0  0  0  0  0  0  0  0  0  0  0  0
    9.7482   25.8930   47.1967 H   0  0  0  0  0  0  0  0  0  0  0  0
    6.3838   20.7883   54.5041 H   0  0  0  0  0  0  0  0  0  0  0  0
    6.9677   19.2171   54.8175 H   0  0  0  0  0  0  0  0  0  0  0  0
  1  2  2  0  0  0
  1 13  1  0  0  0
  2  3  1  0  0  0
  3  4  2  0  0  0
  3 15  1  0  0  0
  4 11  1  0  0  0
  5  6  2  0  0  0
  5 14  1  0  0  0
  6  7  1  0  0  0
  6 16  1  0  0  0
  7  8  2  0  0  0
  8 12  1  0  0  0
  9 12  2  0  0  0
  9 13  1  0  0  0
 10 11  1  0  0  0
 10 14  2  0  0  0
 11 13  2  0  0  0
 12 14  1  0  0  0
 15 17  1  0  0  0
 15 18  1  0  0  0
 16 19  1  0  0  0
 16 20  1  0  0  0
M  END
> <minimizedAffinity>
-7.27315

$$$$
1BCU_PRL_H_280


 20 22  0  0  0  0  0  0  0  0999 V2000
   10.4896   20.7166   49.4409 C   0  0  0  0  0  0  0  0  0  0  0  0
   10.7007   21.7285   48.6002 C   0  0  0  0  0  0  0  0  0  0  0  0
    9.8729   22.9139   48.6049 C   0  0  0  0  0  0  0  0  0  0  0  0
    8.8285   22.9703   49.5084 C   0  0  0  0  0  0  0  0  0  0  0  0
    6.3134   21.2341   53.2006 C   0  0  0  0  0  0  0  0  0  0  0  0
    6.0520   20.2789   54.1672 C   0  0  0  0  0  0  0  0  0  0  0  0
    6.8755   19.0881   54.1881 C   0  0  0  0  0  0  0  0  0  0  0  0
    7.8617   18.8989   53.3097 C   0  0  0  0  0  0  0  0  0  0  0  0
    9.1756   19.7659   51.3521 C   0  0  0  0  0  0  0  0  0  0  0  0
    7.5973   22.0151   51.3333 N   0  0  0  0  0  0  0  0  0  0  0  0
    8.5978   21.9360   50.3902 C   0  0  0  0  0  0  0  0  0  0  0  0
    8.1611   19.8809   52.2885 C   0  0  0  0  0  0  0  0  0  0  0  0
    9.4209   20.7510   50.4099 C   0  0  0  0  0  0  0  0  0  0  0  0
    7.3276   21.0576   52.2853 C   0  0  0  0  0  0  0  0  0  0  0  0
   10.1768   23.9584   47.8015 N   0  0  0  0  0  0  0  0  0  0  0  0
    5.0710   20.4509   55.0831 N   0  0  0  0  0  0  0  0  0  0  0  0
   10.9266   23.8896   47.1672 H   0  0  0  0  0  0  0  0  0  0  0  0
    9.6482   24.7875   47.8509 H   0  0  0  0  0  0  0  0  0  0  0  0
    4.5152   21.2632   55.0625 H   0  0  0  0  0  0  0  0  0  0  0  0
    4.9131   19.7637   55.7702 H   0  0  0  0  0  0  0  0  0  0  0  0
  1  2  2  0  0  0
  1 13  1  0  0  0
  2  3  1  0  0  0
  3  4  2  0  0  0
  3 15  1  0  0  0
  4 11  1  0  0  0
  5  6  2  0  0  0
  5 14  1  0  0  0
  6  7  1  0  0  0
  6 16  1  0  0  0
  7  8  2  0  0  0
  8 12  1  0  0  0
  9 12  2  0  0  0
  9 13  1  0  0  0
 10 11  1  0  0  0
 10 14  2  0  0  0
 11 13  2  0  0  0
 12 14  1  0  0  0
 15 17  1  0  0  0
 15 18  1  0  0  0
 16 19  1  0  0  0
 16 20  1  0  0  0
M  END
> <minimizedAffinity>
-6.83329

$$$$
1BCU_PRL_H_280


 20 22  0  0  0  0  0  0  0  0999 V2000
    7.2177   18.4823   53.9447 C   0  0  0  0  0  0  0  0  0  0  0  0
    6.4173   18.8388   54.9483 C   0  0  0  0  0  0  0  0  0  0  0  0
    6.1233   20.2243   55.2389 C   0  0  0  0  0  0  0  0  0  0  0  0
    6.7131   21.1909   54.4463 C   0  0  0  0  0  0  0  0  0  0  0  0
    9.3510   22.5681   50.6890 C   0  0  0  0  0  0  0  0  0  0  0  0
   10.1333   22.3094   49.5772 C   0  0  0  0  0  0  0  0  0  0  0  0
   10.4317   20.9282   49.2609 C   0  0  0  0  0  0  0  0  0  0  0  0
    9.9757   19.9209   50.0074 C   0  0  0  0  0  0  0  0  0  0  0  0
    8.6291   19.1696   51.9906 C   0  0  0  0  0  0  0  0  0  0  0  0
    8.0791   21.7988   52.5694 N   0  0  0  0  0  0  0  0  0  0  0  0
    7.5394   20.8416   53.3995 C   0  0  0  0  0  0  0  0  0  0  0  0
    9.1530   20.1594   51.1750 C   0  0  0  0  0  0  0  0  0  0  0  0
    7.8340   19.4643   53.0856 C   0  0  0  0  0  0  0  0  0  0  0  0
    8.8700   21.5419   51.4719 C   0  0  0  0  0  0  0  0  0  0  0  0
    5.2324   20.5420   56.2054 N   0  0  0  0  0  0  0  0  0  0  0  0
   10.5948   23.3087   48.7902 N   0  0  0  0  0  0  0  0  0  0  0  0
    4.8281   19.8321   56.7547 H   0  0  0  0  0  0  0  0  0  0  0  0
    4.9881   21.4831   56.3596 H   0  0  0  0  0  0  0  0  0  0  0  0
   10.3877   24.2453   49.0118 H   0  0  0  0  0  0  0  0  0  0  0  0
   11.1377   23.0991   47.9962 H   0  0  0  0  0  0  0  0  0  0  0  0
  1  2  2  0  0  0
  1 13  1  0  0  0
  2  3  1  0  0  0
  3  4  2  0  0  0
  3 15  1  0  0  0
  4 11  1  0  0  0
  5  6  2  0  0  0
  5 14  1  0  0  0
  6  7  1  0  0  0
  6 16  1  0  0  0
  7  8  2  0  0  0
  8 12  1  0  0  0
  9 12  2  0  0  0
  9 13  1  0  0  0
 10 11  1  0  0  0
 10 14  2  0  0  0
 11 13  2  0  0  0
 12 14  1  0  0  0
 15 17  1  0  0  0
 15 18  1  0  0  0
 16 19  1  0  0  0
 16 20  1  0  0  0
M  END
> <minimizedAffinity>
-6.66917

$$$$
1BCU_PRL_H_280


 20 22  0  0  0  0  0  0  0  0999 V2000
    9.1990   22.5197   50.8993 C   0  0  0  0  0  0  0  0  0  0  0  0
   10.0165   22.5077   49.8474 C   0  0  0  0  0  0  0  0  0  0  0  0
   10.5815   21.2814   49.3301 C   0  0  0  0  0  0  0  0  0  0  0  0
   10.2603   20.0999   49.9714 C   0  0  0  0  0  0  0  0  0  0  0  0
    7.8349   17.5698   53.2407 C   0  0  0  0  0  0  0  0  0  0  0  0
    6.9385   17.4579   54.2891 C   0  0  0  0  0  0  0  0  0  0  0  0
    6.3521   18.6723   54.8162 C   0  0  0  0  0  0  0  0  0  0  0  0
    6.6545   19.8730   54.3197 C   0  0  0  0  0  0  0  0  0  0  0  0
    7.9401   21.2296   52.6412 C   0  0  0  0  0  0  0  0  0  0  0  0
    9.0397   18.9103   51.6606 N   0  0  0  0  0  0  0  0  0  0  0  0
    9.4113   20.0914   51.0576 C   0  0  0  0  0  0  0  0  0  0  0  0
    7.5865   20.0224   53.2215 C   0  0  0  0  0  0  0  0  0  0  0  0
    8.8272   21.3029   51.5801 C   0  0  0  0  0  0  0  0  0  0  0  0
    8.1595   18.8004   52.7137 C   0  0  0  0  0  0  0  0  0  0  0  0
   11.3305   21.2999   48.2043 N   0  0  0  0  0  0  0  0  0  0  0  0
    6.5979   16.2528   54.8015 N   0  0  0  0  0  0  0  0  0  0  0  0
   11.5437   22.1568   47.7690 H   0  0  0  0  0  0  0  0  0  0  0  0
   11.6627   20.4565   47.8202 H   0  0  0  0  0  0  0  0  0  0  0  0
    7.0009   15.4315   54.4378 H   0  0  0  0  0  0  0  0  0  0  0  0
    5.9469   16.1973   55.5380 H   0  0  0  0  0  0  0  0  0  0  0  0
  1  2  2  0  0  0
  1 13  1  0  0  0
  2  3  1  0  0  0
  3  4  2  0  0  0
  3 15  1  0  0  0
  4 11  1  0  0  0
  5  6  2  0  0  0
  5 14  1  0  0  0
  6  7  1  0  0  0
  6 16  1  0  0  0
  7  8  2  0  0  0
  8 12  1  0  0  0
  9 12  2  0  0  0
  9 13  1  0  0  0
 10 11  1  0  0  0
 10 14  2  0  0  0
 11 13  2  0  0  0
 12 14  1  0  0  0
 15 17  1  0  0  0
 15 18  1  0  0  0
 16 19  1  0  0  0
 16 20  1  0  0  0
M  END
> <minimizedAffinity>
-6.62281

$$$$
1BCU_PRL_H_280


 20 22  0  0  0  0  0  0  0  0999 V2000
    6.7484   19.7815   54.2662 C   0  0  0  0  0  0  0  0  0  0  0  0
    6.4752   18.5816   54.7769 C   0  0  0  0  0  0  0  0  0  0  0  0
    6.9967   17.3647   54.1957 C   0  0  0  0  0  0  0  0  0  0  0  0
    7.7890   17.4738   53.0684 C   0  0  0  0  0  0  0  0  0  0  0  0
   10.1812   20.0291   49.7942 C   0  0  0  0  0  0  0  0  0  0  0  0
   10.5904   21.2238   49.2283 C   0  0  0  0  0  0  0  0  0  0  0  0
   10.0890   22.4556   49.8009 C   0  0  0  0  0  0  0  0  0  0  0  0
    9.2560   22.4594   50.8429 C   0  0  0  0  0  0  0  0  0  0  0  0
    7.9623   21.1465   52.5497 C   0  0  0  0  0  0  0  0  0  0  0  0
    8.9271   18.8237   51.4433 N   0  0  0  0  0  0  0  0  0  0  0  0
    8.0878   18.7068   52.5290 C   0  0  0  0  0  0  0  0  0  0  0  0
    8.8118   21.2261   51.4583 C   0  0  0  0  0  0  0  0  0  0  0  0
    7.5879   19.9330   53.1023 C   0  0  0  0  0  0  0  0  0  0  0  0
    9.3222   20.0120   50.8709 C   0  0  0  0  0  0  0  0  0  0  0  0
    6.7747   16.1744   54.7978 N   0  0  0  0  0  0  0  0  0  0  0  0
   11.4491   21.2526   48.1829 N   0  0  0  0  0  0  0  0  0  0  0  0
    6.2057   16.1270   55.5998 H   0  0  0  0  0  0  0  0  0  0  0  0
    7.1821   15.3553   54.4341 H   0  0  0  0  0  0  0  0  0  0  0  0
   11.7857   20.4108   47.7990 H   0  0  0  0  0  0  0  0  0  0  0  0
   11.7372   22.1153   47.8062 H   0  0  0  0  0  0  0  0  0  0  0  0
  1  2  2  0  0  0
  1 13  1  0  0  0
  2  3  1  0  0  0
  3  4  2  0  0  0
  3 15  1  0  0  0
  4 11  1  0  0  0
  5  6  2  0  0  0
  5 14  1  0  0  0
  6  7  1  0  0  0
  6 16  1  0  0  0
  7  8  2  0  0  0
  8 12  1  0  0  0
  9 12  2  0  0  0
  9 13  1  0  0  0
 10 11  1  0  0  0
 10 14  2  0  0  0
 11 13  2  0  0  0
 12 14  1  0  0  0
 15 17  1  0  0  0
 15 18  1  0  0  0
 16 19  1  0  0  0
 16 20  1  0  0  0
M  END
> <minimizedAffinity>
-6.52083

$$$$
1BCU_PRL_H_280


 20 22  0  0  0  0  0  0  0  0999 V2000
    8.8691   23.2791   49.7943 C   0  0  0  0  0  0  0  0  0  0  0  0
   10.0341   23.2574   49.1483 C   0  0  0  0  0  0  0  0  0  0  0  0
   10.5481   22.0528   48.5356 C   0  0  0  0  0  0  0  0  0  0  0  0
    9.7970   20.8981   48.6486 C   0  0  0  0  0  0  0  0  0  0  0  0
    5.8487   18.5151   49.9544 C   0  0  0  0  0  0  0  0  0  0  0  0
    4.5938   18.4420   50.5332 C   0  0  0  0  0  0  0  0  0  0  0  0
    4.0545   19.6392   51.1435 C   0  0  0  0  0  0  0  0  0  0  0  0
    4.7322   20.7883   51.1580 C   0  0  0  0  0  0  0  0  0  0  0  0
    6.8050   22.0552   50.5186 C   0  0  0  0  0  0  0  0  0  0  0  0
    7.8059   19.7689   49.3690 N   0  0  0  0  0  0  0  0  0  0  0  0
    8.5862   20.9021   49.3079 C   0  0  0  0  0  0  0  0  0  0  0  0
    6.0459   20.8970   50.5585 C   0  0  0  0  0  0  0  0  0  0  0  0
    8.0504   22.0969   49.9140 C   0  0  0  0  0  0  0  0  0  0  0  0
    6.5638   19.6924   49.9583 C   0  0  0  0  0  0  0  0  0  0  0  0
   11.6876   22.0930   47.8085 N   0  0  0  0  0  0  0  0  0  0  0  0
    3.8747   17.2959   50.5179 N   0  0  0  0  0  0  0  0  0  0  0  0
   12.2023   22.9298   47.7459 H   0  0  0  0  0  0  0  0  0  0  0  0
   12.0024   21.2853   47.3418 H   0  0  0  0  0  0  0  0  0  0  0  0
    4.2481   16.4860   50.1011 H   0  0  0  0  0  0  0  0  0  0  0  0
    2.9780   17.2720   50.9237 H   0  0  0  0  0  0  0  0  0  0  0  0
  1  2  2  0  0  0
  1 13  1  0  0  0
  2  3  1  0  0  0
  3  4  2  0  0  0
  3 15  1  0  0  0
  4 11  1  0  0  0
  5  6  2  0  0  0
  5 14  1  0  0  0
  6  7  1  0  0  0
  6 16  1  0  0  0
  7  8  2  0  0  0
  8 12  1  0  0  0
  9 12  2  0  0  0
  9 13  1  0  0  0
 10 11  1  0  0  0
 10 14  2  0  0  0
 11 13  2  0  0  0
 12 14  1  0  0  0
 15 17  1  0  0  0
 15 18  1  0  0  0
 16 19  1  0  0  0
 16 20  1  0  0  0
M  END
> <minimizedAffinity>
-6.18540

$$$$
1BCU_PRL_H_280


 20 22  0  0  0  0  0  0  0  0999 V2000
    7.4555   21.7598   50.5322 C   0  0  0  0  0  0  0  0  0  0  0  0
    8.0083   22.7055   49.7737 C   0  0  0  0  0  0  0  0  0  0  0  0
    9.3949   22.6489   49.3679 C   0  0  0  0  0  0  0  0  0  0  0  0
   10.1535   21.5789   49.8038 C   0  0  0  0  0  0  0  0  0  0  0  0
   10.6607   17.3615   52.0240 C   0  0  0  0  0  0  0  0  0  0  0  0
   10.1712   16.2881   52.7472 C   0  0  0  0  0  0  0  0  0  0  0  0
    8.7823   16.3184   53.1551 C   0  0  0  0  0  0  0  0  0  0  0  0
    7.9821   17.3422   52.8528 C   0  0  0  0  0  0  0  0  0  0  0  0
    7.6944   19.5704   51.7288 C   0  0  0  0  0  0  0  0  0  0  0  0
   10.3336   19.4886   50.9685 N   0  0  0  0  0  0  0  0  0  0  0  0
    9.5978   20.5875   50.5841 C   0  0  0  0  0  0  0  0  0  0  0  0
    8.4642   18.4784   52.0953 C   0  0  0  0  0  0  0  0  0  0  0  0
    8.2130   20.6195   50.9881 C   0  0  0  0  0  0  0  0  0  0  0  0
    9.8504   18.4277   51.7012 C   0  0  0  0  0  0  0  0  0  0  0  0
    9.8937   23.5775   48.5209 N   0  0  0  0  0  0  0  0  0  0  0  0
   10.9532   15.2270   53.0529 N   0  0  0  0  0  0  0  0  0  0  0  0
    9.3299   24.3292   48.2271 H   0  0  0  0  0  0  0  0  0  0  0  0
   10.8206   23.5019   48.1979 H   0  0  0  0  0  0  0  0  0  0  0  0
   11.8967   15.2136   52.7721 H   0  0  0  0  0  0  0  0  0  0  0  0
   10.5786   14.4683   53.5562 H   0  0  0  0  0  0  0  0  0  0  0  0
  1  2  2  0  0  0
  1 13  1  0  0  0
  2  3  1  0  0  0
  3  4  2  0  0  0
  3 15  1  0  0  0
  4 11  1  0  0  0
  5  6  2  0  0  0
  5 14  1  0  0  0
  6  7  1  0  0  0
  6 16  1  0  0  0
  7  8  2  0  0  0
  8 12  1  0  0  0
  9 12  2  0  0  0
  9 13  1  0  0  0
 10 11  1  0  0  0
 10 14  2  0  0  0
 11 13  2  0  0  0
 12 14  1  0  0  0
 15 17  1  0  0  0
 15 18  1  0  0  0
 16 19  1  0  0  0
 16 20  1  0  0  0
M  END
> <minimizedAffinity>
-5.83056

$$$$
