1ELD_0Z0_E_256


 36 37  0  0  0  0  0  0  0  0999 V2000
   39.2003   21.5758   36.9746 C   0  0  0  0  0  0  0  0  0  0  0  0
   38.5894   21.6709   38.0530 O   0  0  0  0  0  0  0  0  0  0  0  0
   38.7117   20.9341   35.8920 N   0  0  0  0  0  0  0  0  0  0  0  0
   39.2817   20.8597   35.0928 H   0  0  0  0  0  0  0  0  0  0  0  0
   37.3655   20.3408   35.8528 C   0  0  0  0  0  0  0  0  0  0  0  0
   37.0333   19.8962   34.4171 C   0  0  0  0  0  0  0  0  0  0  0  0
   37.1396   19.1672   36.8021 C   0  0  0  0  0  0  0  0  0  0  0  0
   37.6578   18.0554   36.6363 O   0  0  0  0  0  0  0  0  0  0  0  0
   36.3439   19.5249   37.8243 N   0  0  0  0  0  0  0  0  0  0  0  0
   35.9699   20.4346   37.8666 H   0  0  0  0  0  0  0  0  0  0  0  0
   36.0625   18.6331   38.7873 C   0  0  0  0  0  0  0  0  0  0  0  0
   34.8885   17.8829   38.7237 C   0  0  0  0  0  0  0  0  0  0  0  0
   34.5378   17.0394   39.7632 C   0  0  0  0  0  0  0  0  0  0  0  0
   35.3617   16.9178   40.8988 C   0  0  0  0  0  0  0  0  0  0  0  0
   36.5462   17.6653   40.9454 C   0  0  0  0  0  0  0  0  0  0  0  0
   36.8932   18.5176   39.9052 C   0  0  0  0  0  0  0  0  0  0  0  0
   34.9156   16.0292   42.1317 C   0  0  0  0  0  0  0  0  0  0  0  0
   35.2799   14.7053   42.1900 F   0  0  0  0  0  0  0  0  0  0  0  0
   33.5948   16.0386   42.4151 F   0  0  0  0  0  0  0  0  0  0  0  0
   35.5207   16.6213   43.1780 F   0  0  0  0  0  0  0  0  0  0  0  0
   40.6005   22.2093   36.8036 C   0  0  0  0  0  0  0  0  0  0  0  0
   40.3162   24.3130   37.4656 C   0  0  0  0  0  0  0  0  0  0  0  0
   39.5849   24.8455   36.6312 O   0  0  0  0  0  0  0  0  0  0  0  0
   40.8105   23.4220   37.5595 N   0  0  0  0  0  0  0  0  0  0  0  0
   41.5137   23.3872   38.2477 H   0  0  0  0  0  0  0  0  0  0  0  0
   40.7130   24.9716   38.8311 C   0  0  0  0  0  0  0  0  0  0  0  0
   41.4390   26.1058   38.6780 F   0  0  0  0  0  0  0  0  0  0  0  0
   41.4661   24.1902   39.6327 F   0  0  0  0  0  0  0  0  0  0  0  0
   39.6424   25.3410   39.5444 F   0  0  0  0  0  0  0  0  0  0  0  0
   41.7838   21.4536   37.3120 C   0  0  0  0  0  0  0  0  0  0  0  0
   41.7776   19.9542   37.3787 C   0  0  0  0  0  0  0  0  0  0  0  0
   42.1529   19.1284   36.2938 C   0  0  0  0  0  0  0  0  0  0  0  0
   41.4385   19.3912   38.6051 C   0  0  0  0  0  0  0  0  0  0  0  0
   42.1844   17.7274   36.4457 C   0  0  0  0  0  0  0  0  0  0  0  0
   41.4837   18.0035   38.7436 C   0  0  0  0  0  0  0  0  0  0  0  0
   41.8492   17.1709   37.6829 C   0  0  0  0  0  0  0  0  0  0  0  0
 22 26  1  0  0  0
 22 23  2  0  0  0
 26 27  1  0  0  0
 26 28  1  0  0  0
 26 29  1  0  0  0
 24 21  1  0  0  0
 21  1  1  0  0  0
 21 30  1  0  0  0
  1  2  2  0  0  0
 30 31  1  0  0  0
 31 32  2  0  0  0
 31 33  1  0  0  0
 32 34  1  0  0  0
 33 35  2  0  0  0
 34 36  2  0  0  0
 35 36  1  0  0  0
  3  5  1  0  0  0
  5  7  1  0  0  0
  5  6  1  0  0  0
  7  8  2  0  0  0
  9 11  1  0  0  0
 11 12  2  0  0  0
 11 16  1  0  0  0
 12 13  1  0  0  0
 13 14  2  0  0  0
 14 15  1  0  0  0
 14 17  1  0  0  0
 15 16  2  0  0  0
 17 18  1  0  0  0
 17 19  1  0  0  0
 17 20  1  0  0  0
 22 24  1  0  0  0
  1  3  1  0  0  0
  7  9  1  0  0  0
 24 25  1  0  0  0
  3  4  1  0  0  0
  9 10  1  0  0  0
M  END
> <minimizedAffinity>
-7.55205

$$$$
1ELD_0Z0_E_256


 36 37  0  0  0  0  0  0  0  0999 V2000
   39.1573   21.6746   37.0325 C   0  0  0  0  0  0  0  0  0  0  0  0
   38.6772   21.7599   38.1759 O   0  0  0  0  0  0  0  0  0  0  0  0
   38.5838   20.9745   36.0306 N   0  0  0  0  0  0  0  0  0  0  0  0
   39.0559   20.9147   35.1688 H   0  0  0  0  0  0  0  0  0  0  0  0
   37.2848   20.2968   36.1688 C   0  0  0  0  0  0  0  0  0  0  0  0
   36.7826   19.8451   34.7856 C   0  0  0  0  0  0  0  0  0  0  0  0
   37.2675   19.1025   37.1190 C   0  0  0  0  0  0  0  0  0  0  0  0
   38.1714   18.2579   37.1581 O   0  0  0  0  0  0  0  0  0  0  0  0
   36.1728   19.1268   37.8982 N   0  0  0  0  0  0  0  0  0  0  0  0
   35.5011   19.8380   37.7874 H   0  0  0  0  0  0  0  0  0  0  0  0
   36.0017   18.1746   38.8287 C   0  0  0  0  0  0  0  0  0  0  0  0
   35.6260   16.8862   38.4495 C   0  0  0  0  0  0  0  0  0  0  0  0
   35.3442   15.9272   39.4066 C   0  0  0  0  0  0  0  0  0  0  0  0
   35.4384   16.2319   40.7783 C   0  0  0  0  0  0  0  0  0  0  0  0
   35.8310   17.5255   41.1477 C   0  0  0  0  0  0  0  0  0  0  0  0
   36.1058   18.4895   40.1864 C   0  0  0  0  0  0  0  0  0  0  0  0
   35.0228   15.1674   41.8748 C   0  0  0  0  0  0  0  0  0  0  0  0
   35.9856   14.5826   42.6622 F   0  0  0  0  0  0  0  0  0  0  0  0
   34.2613   14.1407   41.4378 F   0  0  0  0  0  0  0  0  0  0  0  0
   34.2426   15.8728   42.7145 F   0  0  0  0  0  0  0  0  0  0  0  0
   40.4815   22.3901   36.6783 C   0  0  0  0  0  0  0  0  0  0  0  0
   40.2722   24.4576   37.4696 C   0  0  0  0  0  0  0  0  0  0  0  0
   39.4750   25.0349   36.7308 O   0  0  0  0  0  0  0  0  0  0  0  0
   40.7660   23.5614   37.4741 N   0  0  0  0  0  0  0  0  0  0  0  0
   41.5263   23.4888   38.0954 H   0  0  0  0  0  0  0  0  0  0  0  0
   40.7917   25.0434   38.8270 C   0  0  0  0  0  0  0  0  0  0  0  0
   41.4046   24.1153   39.6016 F   0  0  0  0  0  0  0  0  0  0  0  0
   39.8306   25.5659   39.6168 F   0  0  0  0  0  0  0  0  0  0  0  0
   41.7085   26.0018   38.6465 F   0  0  0  0  0  0  0  0  0  0  0  0
   41.7634   21.6664   36.9287 C   0  0  0  0  0  0  0  0  0  0  0  0
   42.7938   21.5151   35.8480 C   0  0  0  0  0  0  0  0  0  0  0  0
   43.4852   22.6088   35.2775 C   0  0  0  0  0  0  0  0  0  0  0  0
   43.0974   20.2135   35.4608 C   0  0  0  0  0  0  0  0  0  0  0  0
   44.4866   22.3891   34.3100 C   0  0  0  0  0  0  0  0  0  0  0  0
   44.0977   20.0108   34.5095 C   0  0  0  0  0  0  0  0  0  0  0  0
   44.7899   21.0784   33.9323 C   0  0  0  0  0  0  0  0  0  0  0  0
 22 26  1  0  0  0
 22 23  2  0  0  0
 26 27  1  0  0  0
 26 28  1  0  0  0
 26 29  1  0  0  0
 24 21  1  0  0  0
 21  1  1  0  0  0
 21 30  1  0  0  0
  1  2  2  0  0  0
 30 31  1  0  0  0
 31 32  2  0  0  0
 31 33  1  0  0  0
 32 34  1  0  0  0
 33 35  2  0  0  0
 34 36  2  0  0  0
 35 36  1  0  0  0
  3  5  1  0  0  0
  5  7  1  0  0  0
  5  6  1  0  0  0
  7  8  2  0  0  0
  9 11  1  0  0  0
 11 12  2  0  0  0
 11 16  1  0  0  0
 12 13  1  0  0  0
 13 14  2  0  0  0
 14 15  1  0  0  0
 14 17  1  0  0  0
 15 16  2  0  0  0
 17 18  1  0  0  0
 17 19  1  0  0  0
 17 20  1  0  0  0
 22 24  1  0  0  0
  1  3  1  0  0  0
  7  9  1  0  0  0
 24 25  1  0  0  0
  3  4  1  0  0  0
  9 10  1  0  0  0
M  END
> <minimizedAffinity>
-7.46319

$$$$
1ELD_0Z0_E_256


 36 37  0  0  0  0  0  0  0  0999 V2000
   41.7519   19.2738   37.4209 C   0  0  0  0  0  0  0  0  0  0  0  0
   41.6580   19.2862   38.6604 O   0  0  0  0  0  0  0  0  0  0  0  0
   41.7289   18.1454   36.6802 N   0  0  0  0  0  0  0  0  0  0  0  0
   41.8616   18.2188   35.7075 H   0  0  0  0  0  0  0  0  0  0  0  0
   41.5145   16.8104   37.2613 C   0  0  0  0  0  0  0  0  0  0  0  0
   42.7030   16.4383   38.1658 C   0  0  0  0  0  0  0  0  0  0  0  0
   40.2177   16.6396   38.0480 C   0  0  0  0  0  0  0  0  0  0  0  0
   40.0771   15.7959   38.9425 O   0  0  0  0  0  0  0  0  0  0  0  0
   39.2968   17.5350   37.6528 N   0  0  0  0  0  0  0  0  0  0  0  0
   39.4984   18.1643   36.9229 H   0  0  0  0  0  0  0  0  0  0  0  0
   38.1002   17.5655   38.2601 C   0  0  0  0  0  0  0  0  0  0  0  0
   37.0117   16.9024   37.6936 C   0  0  0  0  0  0  0  0  0  0  0  0
   35.7518   17.0156   38.2547 C   0  0  0  0  0  0  0  0  0  0  0  0
   35.5471   17.7950   39.4097 C   0  0  0  0  0  0  0  0  0  0  0  0
   36.6507   18.4450   39.9787 C   0  0  0  0  0  0  0  0  0  0  0  0
   37.9132   18.3371   39.4103 C   0  0  0  0  0  0  0  0  0  0  0  0
   34.0915   18.0056   39.9971 C   0  0  0  0  0  0  0  0  0  0  0  0
   33.1522   17.0098   39.8751 F   0  0  0  0  0  0  0  0  0  0  0  0
   33.4567   19.1315   39.6040 F   0  0  0  0  0  0  0  0  0  0  0  0
   34.3057   18.1462   41.3184 F   0  0  0  0  0  0  0  0  0  0  0  0
   41.9036   20.5931   36.6288 C   0  0  0  0  0  0  0  0  0  0  0  0
   43.6957   21.4672   35.6445 C   0  0  0  0  0  0  0  0  0  0  0  0
   43.6438   22.6812   35.8399 O   0  0  0  0  0  0  0  0  0  0  0  0
   43.0800   20.6637   35.7938 N   0  0  0  0  0  0  0  0  0  0  0  0
   43.3181   19.8398   35.3102 H   0  0  0  0  0  0  0  0  0  0  0  0
   44.9398   20.7287   35.0424 C   0  0  0  0  0  0  0  0  0  0  0  0
   46.1042   21.0872   35.6363 F   0  0  0  0  0  0  0  0  0  0  0  0
   45.1440   20.9544   33.7279 F   0  0  0  0  0  0  0  0  0  0  0  0
   44.8659   19.4017   35.2010 F   0  0  0  0  0  0  0  0  0  0  0  0
   40.8943   20.9020   35.5726 C   0  0  0  0  0  0  0  0  0  0  0  0
   39.4331   20.6405   35.7945 C   0  0  0  0  0  0  0  0  0  0  0  0
   38.6924   21.2245   36.8480 C   0  0  0  0  0  0  0  0  0  0  0  0
   38.8015   19.8267   34.8592 C   0  0  0  0  0  0  0  0  0  0  0  0
   37.3079   20.9849   36.9603 C   0  0  0  0  0  0  0  0  0  0  0  0
   37.4288   19.6064   34.9773 C   0  0  0  0  0  0  0  0  0  0  0  0
   36.6804   20.1720   36.0126 C   0  0  0  0  0  0  0  0  0  0  0  0
 22 26  1  0  0  0
 22 23  2  0  0  0
 26 27  1  0  0  0
 26 28  1  0  0  0
 26 29  1  0  0  0
 24 21  1  0  0  0
 21  1  1  0  0  0
 21 30  1  0  0  0
  1  2  2  0  0  0
 30 31  1  0  0  0
 31 32  2  0  0  0
 31 33  1  0  0  0
 32 34  1  0  0  0
 33 35  2  0  0  0
 34 36  2  0  0  0
 35 36  1  0  0  0
  3  5  1  0  0  0
  5  7  1  0  0  0
  5  6  1  0  0  0
  7  8  2  0  0  0
  9 11  1  0  0  0
 11 12  2  0  0  0
 11 16  1  0  0  0
 12 13  1  0  0  0
 13 14  2  0  0  0
 14 15  1  0  0  0
 14 17  1  0  0  0
 15 16  2  0  0  0
 17 18  1  0  0  0
 17 19  1  0  0  0
 17 20  1  0  0  0
 22 24  1  0  0  0
  1  3  1  0  0  0
  7  9  1  0  0  0
 24 25  1  0  0  0
  3  4  1  0  0  0
  9 10  1  0  0  0
M  END
> <minimizedAffinity>
-7.15876

$$$$
1ELD_0Z0_E_256


 36 37  0  0  0  0  0  0  0  0999 V2000
   40.7233   20.2304   36.1260 C   0  0  0  0  0  0  0  0  0  0  0  0
   39.6179   19.8970   35.6654 O   0  0  0  0  0  0  0  0  0  0  0  0
   41.4746   19.4355   36.9174 N   0  0  0  0  0  0  0  0  0  0  0  0
   42.3149   19.7954   37.2829 H   0  0  0  0  0  0  0  0  0  0  0  0
   41.0940   18.0554   37.2583 C   0  0  0  0  0  0  0  0  0  0  0  0
   42.3510   17.2400   37.6114 C   0  0  0  0  0  0  0  0  0  0  0  0
   40.0774   17.9169   38.3883 C   0  0  0  0  0  0  0  0  0  0  0  0
   40.3602   18.1085   39.5780 O   0  0  0  0  0  0  0  0  0  0  0  0
   38.8653   17.5957   37.9048 N   0  0  0  0  0  0  0  0  0  0  0  0
   38.7385   17.4543   36.9388 H   0  0  0  0  0  0  0  0  0  0  0  0
   37.8288   17.4692   38.7482 C   0  0  0  0  0  0  0  0  0  0  0  0
   37.2199   18.6045   39.2826 C   0  0  0  0  0  0  0  0  0  0  0  0
   36.2216   18.4834   40.2332 C   0  0  0  0  0  0  0  0  0  0  0  0
   35.7980   17.2142   40.6725 C   0  0  0  0  0  0  0  0  0  0  0  0
   36.4067   16.0802   40.1180 C   0  0  0  0  0  0  0  0  0  0  0  0
   37.4140   16.2030   39.1699 C   0  0  0  0  0  0  0  0  0  0  0  0
   34.7259   17.0739   41.8298 C   0  0  0  0  0  0  0  0  0  0  0  0
   34.1116   15.8649   42.0524 F   0  0  0  0  0  0  0  0  0  0  0  0
   33.7203   17.9759   41.8114 F   0  0  0  0  0  0  0  0  0  0  0  0
   35.4339   17.3350   42.9442 F   0  0  0  0  0  0  0  0  0  0  0  0
   41.3233   21.6195   35.8075 C   0  0  0  0  0  0  0  0  0  0  0  0
   40.5074   22.7349   37.5495 C   0  0  0  0  0  0  0  0  0  0  0  0
   40.3546   21.9110   38.4508 O   0  0  0  0  0  0  0  0  0  0  0  0
   40.7451   22.7121   36.5545 N   0  0  0  0  0  0  0  0  0  0  0  0
   40.5572   23.5335   36.0453 H   0  0  0  0  0  0  0  0  0  0  0  0
   40.3800   24.2843   37.7473 C   0  0  0  0  0  0  0  0  0  0  0  0
   41.5598   24.9339   37.5951 F   0  0  0  0  0  0  0  0  0  0  0  0
   39.9387   24.6597   38.9658 F   0  0  0  0  0  0  0  0  0  0  0  0
   39.5602   24.8431   36.8489 F   0  0  0  0  0  0  0  0  0  0  0  0
   42.7510   21.8704   36.1658 C   0  0  0  0  0  0  0  0  0  0  0  0
   43.8351   21.8028   35.1300 C   0  0  0  0  0  0  0  0  0  0  0  0
   45.2100   21.9236   35.4379 C   0  0  0  0  0  0  0  0  0  0  0  0
   43.4278   21.5466   33.8244 C   0  0  0  0  0  0  0  0  0  0  0  0
   46.1793   21.7873   34.4235 C   0  0  0  0  0  0  0  0  0  0  0  0
   44.3989   21.4044   32.8327 C   0  0  0  0  0  0  0  0  0  0  0  0
   45.7617   21.5231   33.1165 C   0  0  0  0  0  0  0  0  0  0  0  0
 22 26  1  0  0  0
 22 23  2  0  0  0
 26 27  1  0  0  0
 26 28  1  0  0  0
 26 29  1  0  0  0
 24 21  1  0  0  0
 21  1  1  0  0  0
 21 30  1  0  0  0
  1  2  2  0  0  0
 30 31  1  0  0  0
 31 32  2  0  0  0
 31 33  1  0  0  0
 32 34  1  0  0  0
 33 35  2  0  0  0
 34 36  2  0  0  0
 35 36  1  0  0  0
  3  5  1  0  0  0
  5  7  1  0  0  0
  5  6  1  0  0  0
  7  8  2  0  0  0
  9 11  1  0  0  0
 11 12  2  0  0  0
 11 16  1  0  0  0
 12 13  1  0  0  0
 13 14  2  0  0  0
 14 15  1  0  0  0
 14 17  1  0  0  0
 15 16  2  0  0  0
 17 18  1  0  0  0
 17 19  1  0  0  0
 17 20  1  0  0  0
 22 24  1  0  0  0
  1  3  1  0  0  0
  7  9  1  0  0  0
 24 25  1  0  0  0
  3  4  1  0  0  0
  9 10  1  0  0  0
M  END
> <minimizedAffinity>
-7.12521

$$$$
1ELD_0Z0_E_256


 36 37  0  0  0  0  0  0  0  0999 V2000
   39.7438   21.3426   37.2749 C   0  0  0  0  0  0  0  0  0  0  0  0
   39.3582   22.2957   37.9735 O   0  0  0  0  0  0  0  0  0  0  0  0
   38.9084   20.5148   36.6121 N   0  0  0  0  0  0  0  0  0  0  0  0
   39.2929   19.7520   36.1226 H   0  0  0  0  0  0  0  0  0  0  0  0
   37.4488   20.7012   36.5881 C   0  0  0  0  0  0  0  0  0  0  0  0
   36.9572   20.7815   35.1316 C   0  0  0  0  0  0  0  0  0  0  0  0
   36.6409   19.6385   37.3281 C   0  0  0  0  0  0  0  0  0  0  0  0
   35.5546   19.2096   36.9184 O   0  0  0  0  0  0  0  0  0  0  0  0
   37.2838   19.2348   38.4371 N   0  0  0  0  0  0  0  0  0  0  0  0
   38.1441   19.6427   38.6876 H   0  0  0  0  0  0  0  0  0  0  0  0
   36.7447   18.2715   39.2007 C   0  0  0  0  0  0  0  0  0  0  0  0
   35.9460   18.6102   40.2927 C   0  0  0  0  0  0  0  0  0  0  0  0
   35.4735   17.6297   41.1473 C   0  0  0  0  0  0  0  0  0  0  0  0
   35.7839   16.2739   40.9265 C   0  0  0  0  0  0  0  0  0  0  0  0
   36.5752   15.9438   39.8180 C   0  0  0  0  0  0  0  0  0  0  0  0
   37.0554   16.9293   38.9655 C   0  0  0  0  0  0  0  0  0  0  0  0
   35.3270   15.1604   41.9560 C   0  0  0  0  0  0  0  0  0  0  0  0
   34.6274   15.5155   43.0844 F   0  0  0  0  0  0  0  0  0  0  0  0
   36.3000   14.3333   42.3969 F   0  0  0  0  0  0  0  0  0  0  0  0
   34.4905   14.3923   41.2338 F   0  0  0  0  0  0  0  0  0  0  0  0
   41.2521   21.0405   37.1173 C   0  0  0  0  0  0  0  0  0  0  0  0
   41.2073   19.2240   38.3991 C   0  0  0  0  0  0  0  0  0  0  0  0
   40.3216   19.4077   39.2337 O   0  0  0  0  0  0  0  0  0  0  0  0
   41.6769   19.7797   37.6795 N   0  0  0  0  0  0  0  0  0  0  0  0
   42.5194   19.4107   37.3284 H   0  0  0  0  0  0  0  0  0  0  0  0
   41.9354   17.8536   38.1807 C   0  0  0  0  0  0  0  0  0  0  0  0
   42.5969   17.4265   39.2839 F   0  0  0  0  0  0  0  0  0  0  0  0
   42.8683   17.8633   37.2061 F   0  0  0  0  0  0  0  0  0  0  0  0
   41.0794   16.8671   37.8882 F   0  0  0  0  0  0  0  0  0  0  0  0
   41.7898   20.8323   35.7398 C   0  0  0  0  0  0  0  0  0  0  0  0
   43.2052   21.1938   35.3958 C   0  0  0  0  0  0  0  0  0  0  0  0
   43.6878   22.5230   35.3959 C   0  0  0  0  0  0  0  0  0  0  0  0
   44.0668   20.1341   35.1297 C   0  0  0  0  0  0  0  0  0  0  0  0
   45.0458   22.7853   35.1242 C   0  0  0  0  0  0  0  0  0  0  0  0
   45.4105   20.4081   34.8722 C   0  0  0  0  0  0  0  0  0  0  0  0
   45.9055   21.7146   34.8649 C   0  0  0  0  0  0  0  0  0  0  0  0
 22 26  1  0  0  0
 22 23  2  0  0  0
 26 27  1  0  0  0
 26 28  1  0  0  0
 26 29  1  0  0  0
 24 21  1  0  0  0
 21  1  1  0  0  0
 21 30  1  0  0  0
  1  2  2  0  0  0
 30 31  1  0  0  0
 31 32  2  0  0  0
 31 33  1  0  0  0
 32 34  1  0  0  0
 33 35  2  0  0  0
 34 36  2  0  0  0
 35 36  1  0  0  0
  3  5  1  0  0  0
  5  7  1  0  0  0
  5  6  1  0  0  0
  7  8  2  0  0  0
  9 11  1  0  0  0
 11 12  2  0  0  0
 11 16  1  0  0  0
 12 13  1  0  0  0
 13 14  2  0  0  0
 14 15  1  0  0  0
 14 17  1  0  0  0
 15 16  2  0  0  0
 17 18  1  0  0  0
 17 19  1  0  0  0
 17 20  1  0  0  0
 22 24  1  0  0  0
  1  3  1  0  0  0
  7  9  1  0  0  0
 24 25  1  0  0  0
  3  4  1  0  0  0
  9 10  1  0  0  0
M  END
> <minimizedAffinity>
-6.94252

$$$$
1ELD_0Z0_E_256


 36 37  0  0  0  0  0  0  0  0999 V2000
   40.0325   20.3575   36.1519 C   0  0  0  0  0  0  0  0  0  0  0  0
   39.8358   21.5703   36.3409 O   0  0  0  0  0  0  0  0  0  0  0  0
   39.0444   19.4652   35.9286 N   0  0  0  0  0  0  0  0  0  0  0  0
   39.2813   18.5138   35.8400 H   0  0  0  0  0  0  0  0  0  0  0  0
   37.6289   19.8506   35.8116 C   0  0  0  0  0  0  0  0  0  0  0  0
   37.0934   19.4539   34.4241 C   0  0  0  0  0  0  0  0  0  0  0  0
   36.7044   19.2800   36.8837 C   0  0  0  0  0  0  0  0  0  0  0  0
   35.4791   19.4545   36.8809 O   0  0  0  0  0  0  0  0  0  0  0  0
   37.3993   18.5603   37.7811 N   0  0  0  0  0  0  0  0  0  0  0  0
   38.3780   18.4853   37.7054 H   0  0  0  0  0  0  0  0  0  0  0  0
   36.7495   17.9445   38.7812 C   0  0  0  0  0  0  0  0  0  0  0  0
   36.4186   18.6494   39.9383 C   0  0  0  0  0  0  0  0  0  0  0  0
   35.8445   17.9986   41.0162 C   0  0  0  0  0  0  0  0  0  0  0  0
   35.5778   16.6168   40.9622 C   0  0  0  0  0  0  0  0  0  0  0  0
   35.9011   15.9215   39.7891 C   0  0  0  0  0  0  0  0  0  0  0  0
   36.4845   16.5741   38.7109 C   0  0  0  0  0  0  0  0  0  0  0  0
   35.0119   15.8511   42.2278 C   0  0  0  0  0  0  0  0  0  0  0  0
   35.3301   14.5293   42.4283 F   0  0  0  0  0  0  0  0  0  0  0  0
   33.6741   15.9167   42.4043 F   0  0  0  0  0  0  0  0  0  0  0  0
   35.5529   16.5185   43.2638 F   0  0  0  0  0  0  0  0  0  0  0  0
   41.4674   19.7813   36.1595 C   0  0  0  0  0  0  0  0  0  0  0  0
   43.2286   20.7224   35.1812 C   0  0  0  0  0  0  0  0  0  0  0  0
   43.6999   19.8759   34.4224 O   0  0  0  0  0  0  0  0  0  0  0  0
   42.5082   20.7505   35.9074 N   0  0  0  0  0  0  0  0  0  0  0  0
   42.5267   21.5319   36.5060 H   0  0  0  0  0  0  0  0  0  0  0  0
   43.6747   22.2245   35.2043 C   0  0  0  0  0  0  0  0  0  0  0  0
   42.7775   23.0314   35.8215 F   0  0  0  0  0  0  0  0  0  0  0  0
   43.8481   22.7768   33.9855 F   0  0  0  0  0  0  0  0  0  0  0  0
   44.8182   22.4023   35.8768 F   0  0  0  0  0  0  0  0  0  0  0  0
   42.0056   19.2451   37.4451 C   0  0  0  0  0  0  0  0  0  0  0  0
   41.7673   17.8205   37.8528 C   0  0  0  0  0  0  0  0  0  0  0  0
   40.5342   17.3575   38.3675 C   0  0  0  0  0  0  0  0  0  0  0  0
   42.8172   16.9325   37.6402 C   0  0  0  0  0  0  0  0  0  0  0  0
   40.3596   15.9921   38.6714 C   0  0  0  0  0  0  0  0  0  0  0  0
   42.6266   15.5824   37.9363 C   0  0  0  0  0  0  0  0  0  0  0  0
   41.4169   15.1063   38.4482 C   0  0  0  0  0  0  0  0  0  0  0  0
 22 26  1  0  0  0
 22 23  2  0  0  0
 26 27  1  0  0  0
 26 28  1  0  0  0
 26 29  1  0  0  0
 24 21  1  0  0  0
 21  1  1  0  0  0
 21 30  1  0  0  0
  1  2  2  0  0  0
 30 31  1  0  0  0
 31 32  2  0  0  0
 31 33  1  0  0  0
 32 34  1  0  0  0
 33 35  2  0  0  0
 34 36  2  0  0  0
 35 36  1  0  0  0
  3  5  1  0  0  0
  5  7  1  0  0  0
  5  6  1  0  0  0
  7  8  2  0  0  0
  9 11  1  0  0  0
 11 12  2  0  0  0
 11 16  1  0  0  0
 12 13  1  0  0  0
 13 14  2  0  0  0
 14 15  1  0  0  0
 14 17  1  0  0  0
 15 16  2  0  0  0
 17 18  1  0  0  0
 17 19  1  0  0  0
 17 20  1  0  0  0
 22 24  1  0  0  0
  1  3  1  0  0  0
  7  9  1  0  0  0
 24 25  1  0  0  0
  3  4  1  0  0  0
  9 10  1  0  0  0
M  END
> <minimizedAffinity>
-6.91070

$$$$
1ELD_0Z0_E_256


 36 37  0  0  0  0  0  0  0  0999 V2000
   39.8008   20.8354   37.6391 C   0  0  0  0  0  0  0  0  0  0  0  0
   39.3626   21.9055   38.0952 O   0  0  0  0  0  0  0  0  0  0  0  0
   39.0330   19.7481   37.4136 N   0  0  0  0  0  0  0  0  0  0  0  0
   39.4679   18.9225   37.0996 H   0  0  0  0  0  0  0  0  0  0  0  0
   37.5753   19.7412   37.6161 C   0  0  0  0  0  0  0  0  0  0  0  0
   36.8643   19.4723   36.2776 C   0  0  0  0  0  0  0  0  0  0  0  0
   37.0640   18.7511   38.6590 C   0  0  0  0  0  0  0  0  0  0  0  0
   37.8147   18.1032   39.3997 O   0  0  0  0  0  0  0  0  0  0  0  0
   35.7206   18.7162   38.6676 N   0  0  0  0  0  0  0  0  0  0  0  0
   35.2064   19.2640   38.0314 H   0  0  0  0  0  0  0  0  0  0  0  0
   35.0848   17.9293   39.5498 C   0  0  0  0  0  0  0  0  0  0  0  0
   34.6991   16.6396   39.1848 C   0  0  0  0  0  0  0  0  0  0  0  0
   33.9509   15.8600   40.0494 C   0  0  0  0  0  0  0  0  0  0  0  0
   33.5719   16.3508   41.3138 C   0  0  0  0  0  0  0  0  0  0  0  0
   33.9773   17.6426   41.6756 C   0  0  0  0  0  0  0  0  0  0  0  0
   34.7214   18.4271   40.8041 C   0  0  0  0  0  0  0  0  0  0  0  0
   32.6343   15.4998   42.2651 C   0  0  0  0  0  0  0  0  0  0  0  0
   31.4898   16.0602   42.7797 F   0  0  0  0  0  0  0  0  0  0  0  0
   33.2422   14.9191   43.3226 F   0  0  0  0  0  0  0  0  0  0  0  0
   32.2239   14.4896   41.4762 F   0  0  0  0  0  0  0  0  0  0  0  0
   41.2994   20.6824   37.2901 C   0  0  0  0  0  0  0  0  0  0  0  0
   41.7570   18.8488   38.4619 C   0  0  0  0  0  0  0  0  0  0  0  0
   41.3873   19.0702   39.6147 O   0  0  0  0  0  0  0  0  0  0  0  0
   41.8617   19.3883   37.5987 N   0  0  0  0  0  0  0  0  0  0  0  0
   42.4117   18.9757   36.8940 H   0  0  0  0  0  0  0  0  0  0  0  0
   42.2080   17.4413   37.9410 C   0  0  0  0  0  0  0  0  0  0  0  0
   41.2353   16.7986   37.2497 F   0  0  0  0  0  0  0  0  0  0  0  0
   42.5680   16.5738   38.9096 F   0  0  0  0  0  0  0  0  0  0  0  0
   43.2387   17.5230   37.0910 F   0  0  0  0  0  0  0  0  0  0  0  0
   41.6974   20.7315   35.8517 C   0  0  0  0  0  0  0  0  0  0  0  0
   43.0936   21.1019   35.4444 C   0  0  0  0  0  0  0  0  0  0  0  0
   43.5880   22.4261   35.4870 C   0  0  0  0  0  0  0  0  0  0  0  0
   43.9280   20.0527   35.0716 C   0  0  0  0  0  0  0  0  0  0  0  0
   44.9302   22.6940   35.1499 C   0  0  0  0  0  0  0  0  0  0  0  0
   45.2567   20.3316   34.7502 C   0  0  0  0  0  0  0  0  0  0  0  0
   45.7629   21.6334   34.7835 C   0  0  0  0  0  0  0  0  0  0  0  0
 22 26  1  0  0  0
 22 23  2  0  0  0
 26 27  1  0  0  0
 26 28  1  0  0  0
 26 29  1  0  0  0
 24 21  1  0  0  0
 21  1  1  0  0  0
 21 30  1  0  0  0
  1  2  2  0  0  0
 30 31  1  0  0  0
 31 32  2  0  0  0
 31 33  1  0  0  0
 32 34  1  0  0  0
 33 35  2  0  0  0
 34 36  2  0  0  0
 35 36  1  0  0  0
  3  5  1  0  0  0
  5  7  1  0  0  0
  5  6  1  0  0  0
  7  8  2  0  0  0
  9 11  1  0  0  0
 11 12  2  0  0  0
 11 16  1  0  0  0
 12 13  1  0  0  0
 13 14  2  0  0  0
 14 15  1  0  0  0
 14 17  1  0  0  0
 15 16  2  0  0  0
 17 18  1  0  0  0
 17 19  1  0  0  0
 17 20  1  0  0  0
 22 24  1  0  0  0
  1  3  1  0  0  0
  7  9  1  0  0  0
 24 25  1  0  0  0
  3  4  1  0  0  0
  9 10  1  0  0  0
M  END
> <minimizedAffinity>
-6.84020

$$$$
1ELD_0Z0_E_256


 36 37  0  0  0  0  0  0  0  0999 V2000
   38.0462   20.6853   35.5056 C   0  0  0  0  0  0  0  0  0  0  0  0
   38.7523   20.2859   34.5638 O   0  0  0  0  0  0  0  0  0  0  0  0
   38.5109   21.4486   36.5176 N   0  0  0  0  0  0  0  0  0  0  0  0
   37.8975   21.6792   37.2524 H   0  0  0  0  0  0  0  0  0  0  0  0
   39.8929   21.9514   36.5720 C   0  0  0  0  0  0  0  0  0  0  0  0
   40.0152   23.0226   37.6706 C   0  0  0  0  0  0  0  0  0  0  0  0
   40.9675   20.8897   36.7901 C   0  0  0  0  0  0  0  0  0  0  0  0
   42.1795   21.1350   36.7359 O   0  0  0  0  0  0  0  0  0  0  0  0
   40.4130   19.6979   37.0695 N   0  0  0  0  0  0  0  0  0  0  0  0
   39.4337   19.5974   37.0816 H   0  0  0  0  0  0  0  0  0  0  0  0
   41.2037   18.6454   37.3319 C   0  0  0  0  0  0  0  0  0  0  0  0
   41.5120   17.7339   36.3224 C   0  0  0  0  0  0  0  0  0  0  0  0
   42.2376   16.5905   36.6072 C   0  0  0  0  0  0  0  0  0  0  0  0
   42.6835   16.3303   37.9175 C   0  0  0  0  0  0  0  0  0  0  0  0
   42.3804   17.2604   38.9210 C   0  0  0  0  0  0  0  0  0  0  0  0
   41.6453   18.4036   38.6357 C   0  0  0  0  0  0  0  0  0  0  0  0
   43.4288   14.9769   38.2656 C   0  0  0  0  0  0  0  0  0  0  0  0
   43.8029   14.7141   39.5617 F   0  0  0  0  0  0  0  0  0  0  0  0
   44.5253   14.7030   37.5255 F   0  0  0  0  0  0  0  0  0  0  0  0
   42.5246   14.0321   37.9473 F   0  0  0  0  0  0  0  0  0  0  0  0
   36.5449   20.3214   35.5747 C   0  0  0  0  0  0  0  0  0  0  0  0
   35.5061   21.0092   33.7329 C   0  0  0  0  0  0  0  0  0  0  0  0
   35.2111   22.1894   33.9188 O   0  0  0  0  0  0  0  0  0  0  0  0
   35.8841   20.2407   34.2929 N   0  0  0  0  0  0  0  0  0  0  0  0
   35.7854   19.3381   33.9125 H   0  0  0  0  0  0  0  0  0  0  0  0
   35.3780   20.2807   32.3513 C   0  0  0  0  0  0  0  0  0  0  0  0
   34.3403   19.4099   32.3087 F   0  0  0  0  0  0  0  0  0  0  0  0
   36.4545   19.5457   32.0030 F   0  0  0  0  0  0  0  0  0  0  0  0
   35.1516   21.1365   31.3474 F   0  0  0  0  0  0  0  0  0  0  0  0
   36.1699   18.9653   36.0747 C   0  0  0  0  0  0  0  0  0  0  0  0
   37.0226   18.2440   37.0773 C   0  0  0  0  0  0  0  0  0  0  0  0
   37.1807   18.6764   38.4144 C   0  0  0  0  0  0  0  0  0  0  0  0
   37.6198   17.0635   36.6459 C   0  0  0  0  0  0  0  0  0  0  0  0
   37.9467   17.9156   39.3207 C   0  0  0  0  0  0  0  0  0  0  0  0
   38.3668   16.3158   37.5567 C   0  0  0  0  0  0  0  0  0  0  0  0
   38.5369   16.7278   38.8808 C   0  0  0  0  0  0  0  0  0  0  0  0
 22 26  1  0  0  0
 22 23  2  0  0  0
 26 27  1  0  0  0
 26 28  1  0  0  0
 26 29  1  0  0  0
 24 21  1  0  0  0
 21  1  1  0  0  0
 21 30  1  0  0  0
  1  2  2  0  0  0
 30 31  1  0  0  0
 31 32  2  0  0  0
 31 33  1  0  0  0
 32 34  1  0  0  0
 33 35  2  0  0  0
 34 36  2  0  0  0
 35 36  1  0  0  0
  3  5  1  0  0  0
  5  7  1  0  0  0
  5  6  1  0  0  0
  7  8  2  0  0  0
  9 11  1  0  0  0
 11 12  2  0  0  0
 11 16  1  0  0  0
 12 13  1  0  0  0
 13 14  2  0  0  0
 14 15  1  0  0  0
 14 17  1  0  0  0
 15 16  2  0  0  0
 17 18  1  0  0  0
 17 19  1  0  0  0
 17 20  1  0  0  0
 22 24  1  0  0  0
  1  3  1  0  0  0
  7  9  1  0  0  0
 24 25  1  0  0  0
  3  4  1  0  0  0
  9 10  1  0  0  0
M  END
> <minimizedAffinity>
-6.83998

$$$$
1ELD_0Z0_E_256


 36 37  0  0  0  0  0  0  0  0999 V2000
   40.4921   19.0438   38.6709 C   0  0  0  0  0  0  0  0  0  0  0  0
   40.3061   19.1319   39.8967 O   0  0  0  0  0  0  0  0  0  0  0  0
   39.5446   19.3169   37.7489 N   0  0  0  0  0  0  0  0  0  0  0  0
   39.7576   19.1718   36.7987 H   0  0  0  0  0  0  0  0  0  0  0  0
   38.2076   19.8217   38.1001 C   0  0  0  0  0  0  0  0  0  0  0  0
   37.6286   20.6273   36.9231 C   0  0  0  0  0  0  0  0  0  0  0  0
   37.1963   18.7588   38.5209 C   0  0  0  0  0  0  0  0  0  0  0  0
   37.1491   17.6323   38.0101 O   0  0  0  0  0  0  0  0  0  0  0  0
   36.4140   19.2099   39.5161 N   0  0  0  0  0  0  0  0  0  0  0  0
   36.5208   20.1288   39.8528 H   0  0  0  0  0  0  0  0  0  0  0  0
   35.4861   18.3987   40.0478 C   0  0  0  0  0  0  0  0  0  0  0  0
   34.2097   18.3361   39.4892 C   0  0  0  0  0  0  0  0  0  0  0  0
   33.2161   17.5850   40.0922 C   0  0  0  0  0  0  0  0  0  0  0  0
   33.4768   16.8658   41.2746 C   0  0  0  0  0  0  0  0  0  0  0  0
   34.7668   16.9245   41.8190 C   0  0  0  0  0  0  0  0  0  0  0  0
   35.7610   17.6849   41.2174 C   0  0  0  0  0  0  0  0  0  0  0  0
   32.3177   16.0852   42.0199 C   0  0  0  0  0  0  0  0  0  0  0  0
   32.6056   15.3248   43.1279 F   0  0  0  0  0  0  0  0  0  0  0  0
   31.5511   15.2894   41.2425 F   0  0  0  0  0  0  0  0  0  0  0  0
   31.5069   17.0687   42.4520 F   0  0  0  0  0  0  0  0  0  0  0  0
   41.8650   18.6038   38.1117 C   0  0  0  0  0  0  0  0  0  0  0  0
   41.6144   16.4008   38.2812 C   0  0  0  0  0  0  0  0  0  0  0  0
   40.4094   16.1771   38.1690 O   0  0  0  0  0  0  0  0  0  0  0  0
   42.2110   17.2267   38.3763 N   0  0  0  0  0  0  0  0  0  0  0  0
   43.1314   17.0629   38.6853 H   0  0  0  0  0  0  0  0  0  0  0  0
   42.7168   15.2871   38.2776 C   0  0  0  0  0  0  0  0  0  0  0  0
   43.2117   15.0311   39.5131 F   0  0  0  0  0  0  0  0  0  0  0  0
   43.8017   15.5742   37.5285 F   0  0  0  0  0  0  0  0  0  0  0  0
   42.2465   14.1113   37.8440 F   0  0  0  0  0  0  0  0  0  0  0  0
   42.0454   18.5703   36.6298 C   0  0  0  0  0  0  0  0  0  0  0  0
   42.7657   19.6728   35.9100 C   0  0  0  0  0  0  0  0  0  0  0  0
   43.7348   19.4400   34.9068 C   0  0  0  0  0  0  0  0  0  0  0  0
   42.3872   20.9724   36.2324 C   0  0  0  0  0  0  0  0  0  0  0  0
   44.3270   20.5234   34.2267 C   0  0  0  0  0  0  0  0  0  0  0  0
   42.9746   22.0344   35.5440 C   0  0  0  0  0  0  0  0  0  0  0  0
   43.9359   21.8248   34.5520 C   0  0  0  0  0  0  0  0  0  0  0  0
 22 26  1  0  0  0
 22 23  2  0  0  0
 26 27  1  0  0  0
 26 28  1  0  0  0
 26 29  1  0  0  0
 24 21  1  0  0  0
 21  1  1  0  0  0
 21 30  1  0  0  0
  1  2  2  0  0  0
 30 31  1  0  0  0
 31 32  2  0  0  0
 31 33  1  0  0  0
 32 34  1  0  0  0
 33 35  2  0  0  0
 34 36  2  0  0  0
 35 36  1  0  0  0
  3  5  1  0  0  0
  5  7  1  0  0  0
  5  6  1  0  0  0
  7  8  2  0  0  0
  9 11  1  0  0  0
 11 12  2  0  0  0
 11 16  1  0  0  0
 12 13  1  0  0  0
 13 14  2  0  0  0
 14 15  1  0  0  0
 14 17  1  0  0  0
 15 16  2  0  0  0
 17 18  1  0  0  0
 17 19  1  0  0  0
 17 20  1  0  0  0
 22 24  1  0  0  0
  1  3  1  0  0  0
  7  9  1  0  0  0
 24 25  1  0  0  0
  3  4  1  0  0  0
  9 10  1  0  0  0
M  END
> <minimizedAffinity>
-6.77362

$$$$
1ELD_0Z0_E_256


 36 37  0  0  0  0  0  0  0  0999 V2000
   39.2694   17.6144   37.9671 C   0  0  0  0  0  0  0  0  0  0  0  0
   38.5561   18.1322   38.8436 O   0  0  0  0  0  0  0  0  0  0  0  0
   39.1157   16.3464   37.5301 N   0  0  0  0  0  0  0  0  0  0  0  0
   39.7562   15.9959   36.8697 H   0  0  0  0  0  0  0  0  0  0  0  0
   38.0337   15.4644   37.9963 C   0  0  0  0  0  0  0  0  0  0  0  0
   38.3806   14.9041   39.3873 C   0  0  0  0  0  0  0  0  0  0  0  0
   36.6471   16.1004   38.0475 C   0  0  0  0  0  0  0  0  0  0  0  0
   35.9919   16.3734   37.0335 O   0  0  0  0  0  0  0  0  0  0  0  0
   36.2512   16.2831   39.3187 N   0  0  0  0  0  0  0  0  0  0  0  0
   36.8482   16.0419   40.0634 H   0  0  0  0  0  0  0  0  0  0  0  0
   35.0360   16.7969   39.5658 C   0  0  0  0  0  0  0  0  0  0  0  0
   33.9450   15.9497   39.7586 C   0  0  0  0  0  0  0  0  0  0  0  0
   32.6711   16.4693   39.9081 C   0  0  0  0  0  0  0  0  0  0  0  0
   32.4543   17.8604   39.8755 C   0  0  0  0  0  0  0  0  0  0  0  0
   33.5598   18.7027   39.6957 C   0  0  0  0  0  0  0  0  0  0  0  0
   34.8367   18.1799   39.5378 C   0  0  0  0  0  0  0  0  0  0  0  0
   30.9875   18.4534   39.9482 C   0  0  0  0  0  0  0  0  0  0  0  0
   30.2469   18.3118   41.0972 F   0  0  0  0  0  0  0  0  0  0  0  0
   30.1545   18.0842   38.9507 F   0  0  0  0  0  0  0  0  0  0  0  0
   31.1784   19.7771   39.7971 F   0  0  0  0  0  0  0  0  0  0  0  0
   40.4105   18.4191   37.3027 C   0  0  0  0  0  0  0  0  0  0  0  0
   40.0067   20.4978   36.6239 C   0  0  0  0  0  0  0  0  0  0  0  0
   39.9591   20.4603   35.3947 O   0  0  0  0  0  0  0  0  0  0  0  0
   40.2601   19.8537   37.3776 N   0  0  0  0  0  0  0  0  0  0  0  0
   40.4207   20.2606   38.2595 H   0  0  0  0  0  0  0  0  0  0  0  0
   39.5947   21.7443   37.4795 C   0  0  0  0  0  0  0  0  0  0  0  0
   39.5294   22.8854   36.7512 F   0  0  0  0  0  0  0  0  0  0  0  0
   40.4387   22.0336   38.4917 F   0  0  0  0  0  0  0  0  0  0  0  0
   38.3766   21.6083   38.0174 F   0  0  0  0  0  0  0  0  0  0  0  0
   41.7758   18.3333   37.9015 C   0  0  0  0  0  0  0  0  0  0  0  0
   42.6603   17.1469   37.6513 C   0  0  0  0  0  0  0  0  0  0  0  0
   43.5479   17.0594   36.5539 C   0  0  0  0  0  0  0  0  0  0  0  0
   42.6186   16.1328   38.6031 C   0  0  0  0  0  0  0  0  0  0  0  0
   44.3963   15.9424   36.4143 C   0  0  0  0  0  0  0  0  0  0  0  0
   43.4712   15.0380   38.4572 C   0  0  0  0  0  0  0  0  0  0  0  0
   44.3529   14.9321   37.3786 C   0  0  0  0  0  0  0  0  0  0  0  0
 22 26  1  0  0  0
 22 23  2  0  0  0
 26 27  1  0  0  0
 26 28  1  0  0  0
 26 29  1  0  0  0
 24 21  1  0  0  0
 21  1  1  0  0  0
 21 30  1  0  0  0
  1  2  2  0  0  0
 30 31  1  0  0  0
 31 32  2  0  0  0
 31 33  1  0  0  0
 32 34  1  0  0  0
 33 35  2  0  0  0
 34 36  2  0  0  0
 35 36  1  0  0  0
  3  5  1  0  0  0
  5  7  1  0  0  0
  5  6  1  0  0  0
  7  8  2  0  0  0
  9 11  1  0  0  0
 11 12  2  0  0  0
 11 16  1  0  0  0
 12 13  1  0  0  0
 13 14  2  0  0  0
 14 15  1  0  0  0
 14 17  1  0  0  0
 15 16  2  0  0  0
 17 18  1  0  0  0
 17 19  1  0  0  0
 17 20  1  0  0  0
 22 24  1  0  0  0
  1  3  1  0  0  0
  7  9  1  0  0  0
 24 25  1  0  0  0
  3  4  1  0  0  0
  9 10  1  0  0  0
M  END
> <minimizedAffinity>
-6.67247

$$$$
