1M0O_MPM_A_434


 29 29  0  0  0  0  0  0  0  0999 V2000
   17.0133   52.2124   16.6998 C   0  0  0  0  0  0  0  0  0  0  0  0
   16.0982   53.1122   16.0774 C   0  0  0  0  0  0  0  0  0  0  0  0
   18.1270   51.7231   15.9136 C   0  0  0  0  0  0  0  0  0  0  0  0
   16.3304   53.4948   14.7257 C   0  0  0  0  0  0  0  0  0  0  0  0
   18.3139   52.1493   14.6063 C   0  0  0  0  0  0  0  0  0  0  0  0
   15.0091   53.6146   16.7558 O   0  0  0  0  0  0  0  0  0  0  0  0
   17.4151   53.0210   14.0578 N   0  0  0  0  0  0  0  0  0  0  0  0
   15.3946   54.4667   14.0242 C   0  0  0  0  0  0  0  0  0  0  0  0
   14.8548   53.3638   17.6454 H   0  0  0  0  0  0  0  0  0  0  0  0
   16.8851   51.7553   18.1699 C   0  0  0  0  0  0  0  0  0  0  0  0
   16.4143   52.6595   18.9728 N   0  0  0  0  0  0  0  0  0  0  0  0
   16.2094   52.5179   20.4382 C   0  0  0  0  0  0  0  0  0  0  0  0
   17.4607   51.9642   21.2723 C   0  0  0  0  0  0  0  0  0  0  0  0
   14.8024   51.6351   20.7058 P   0  0  0  0  0  0  0  0  0  0  0  0
   14.4843   51.6959   22.1495 O   0  0  0  0  0  0  0  0  0  0  0  0
   13.6639   52.2144   19.9713 O   0  0  0  0  0  0  0  0  0  0  0  0
   14.9682   50.2045   20.3044 O   0  0  0  0  0  0  0  0  0  0  0  0
   14.3751   52.6217   22.4178 H   0  0  0  0  0  0  0  0  0  0  0  0
   13.5521   53.1430   20.2283 H   0  0  0  0  0  0  0  0  0  0  0  0
   16.0589   53.9783   20.9573 C   0  0  0  0  0  0  0  0  0  0  0  0
   16.6829   54.1612   22.3444 C   0  0  0  0  0  0  0  0  0  0  0  0
   19.0050   50.7993   16.5462 C   0  0  0  0  0  0  0  0  0  0  0  0
   19.8145   49.9153   15.8981 O   0  0  0  0  0  0  0  0  0  0  0  0
   20.2584   48.5910   16.4968 P   0  0  0  0  0  0  0  0  0  0  0  0
   19.8651   48.5717   17.8923 O   0  0  0  0  0  0  0  0  0  0  0  0
   21.6957   48.5008   16.3472 O   0  0  0  0  0  0  0  0  0  0  0  0
   19.5496   47.5011   15.9012 O   0  0  0  0  0  0  0  0  0  0  0  0
   22.1136   49.2667   16.7711 H   0  0  0  0  0  0  0  0  0  0  0  0
   18.5968   47.6225   16.0367 H   0  0  0  0  0  0  0  0  0  0  0  0
  1  2  2  0  0  0
  1  3  1  0  0  0
  1 10  1  0  0  0
  2  4  1  0  0  0
  2  6  1  0  0  0
  3  5  2  0  0  0
  3 22  1  0  0  0
 10 11  2  0  0  0
  4  7  2  0  0  0
  4  8  1  0  0  0
  5  7  1  0  0  0
 22 23  1  0  0  0
 11 12  1  0  0  0
 23 24  1  0  0  0
 12 20  1  0  0  0
 12 13  1  0  0  0
 12 14  1  0  0  0
 24 25  2  0  0  0
 24 26  1  0  0  0
 24 27  1  0  0  0
 20 21  1  0  0  0
 14 15  1  0  0  0
 14 16  1  0  0  0
 14 17  2  0  0  0
  6  9  1  0  0  0
 26 28  1  0  0  0
 27 29  1  0  0  0
 15 18  1  0  0  0
 16 19  1  0  0  0
M  END
> <minimizedAffinity>
-10.28994

$$$$
1M0O_MPM_A_434


 29 29  0  0  0  0  0  0  0  0999 V2000
   17.4776   51.4164   17.2821 C   0  0  0  0  0  0  0  0  0  0  0  0
   18.4396   50.3866   17.5027 C   0  0  0  0  0  0  0  0  0  0  0  0
   17.4076   52.0106   15.9631 C   0  0  0  0  0  0  0  0  0  0  0  0
   19.2699   49.9851   16.4180 C   0  0  0  0  0  0  0  0  0  0  0  0
   18.2288   51.5618   14.9385 C   0  0  0  0  0  0  0  0  0  0  0  0
   18.5737   49.7784   18.7319 O   0  0  0  0  0  0  0  0  0  0  0  0
   19.1275   50.5648   15.1970 N   0  0  0  0  0  0  0  0  0  0  0  0
   20.2972   48.8782   16.5974 C   0  0  0  0  0  0  0  0  0  0  0  0
   18.0280   50.0415   19.4468 H   0  0  0  0  0  0  0  0  0  0  0  0
   16.4988   51.9092   18.3710 C   0  0  0  0  0  0  0  0  0  0  0  0
   17.0447   52.1091   19.5312 N   0  0  0  0  0  0  0  0  0  0  0  0
   16.3504   52.5524   20.7684 C   0  0  0  0  0  0  0  0  0  0  0  0
   17.2421   52.5895   22.0995 C   0  0  0  0  0  0  0  0  0  0  0  0
   14.9403   51.6530   20.9503 P   0  0  0  0  0  0  0  0  0  0  0  0
   14.5411   51.6994   22.3743 O   0  0  0  0  0  0  0  0  0  0  0  0
   13.8385   52.2260   20.1572 O   0  0  0  0  0  0  0  0  0  0  0  0
   15.1438   50.2273   20.5487 O   0  0  0  0  0  0  0  0  0  0  0  0
   14.4070   52.6219   22.6427 H   0  0  0  0  0  0  0  0  0  0  0  0
   13.7024   53.1514   20.4141 H   0  0  0  0  0  0  0  0  0  0  0  0
   16.0255   54.0550   20.5204 C   0  0  0  0  0  0  0  0  0  0  0  0
   16.0752   54.8737   21.8142 C   0  0  0  0  0  0  0  0  0  0  0  0
   16.4645   53.0599   15.7788 C   0  0  0  0  0  0  0  0  0  0  0  0
   15.3832   53.0075   14.9514 O   0  0  0  0  0  0  0  0  0  0  0  0
   14.8056   54.2249   14.2487 P   0  0  0  0  0  0  0  0  0  0  0  0
   13.8669   54.8637   15.1505 O   0  0  0  0  0  0  0  0  0  0  0  0
   14.1547   53.7667   13.0393 O   0  0  0  0  0  0  0  0  0  0  0  0
   15.8191   55.2071   14.0187 O   0  0  0  0  0  0  0  0  0  0  0  0
   13.4819   53.1054   13.2649 H   0  0  0  0  0  0  0  0  0  0  0  0
   16.2130   55.4697   14.8653 H   0  0  0  0  0  0  0  0  0  0  0  0
  1  2  2  0  0  0
  1  3  1  0  0  0
  1 10  1  0  0  0
  2  4  1  0  0  0
  2  6  1  0  0  0
  3  5  2  0  0  0
  3 22  1  0  0  0
 10 11  2  0  0  0
  4  7  2  0  0  0
  4  8  1  0  0  0
  5  7  1  0  0  0
 22 23  1  0  0  0
 11 12  1  0  0  0
 23 24  1  0  0  0
 12 20  1  0  0  0
 12 13  1  0  0  0
 12 14  1  0  0  0
 24 25  2  0  0  0
 24 26  1  0  0  0
 24 27  1  0  0  0
 20 21  1  0  0  0
 14 15  1  0  0  0
 14 16  1  0  0  0
 14 17  2  0  0  0
  6  9  1  0  0  0
 26 28  1  0  0  0
 27 29  1  0  0  0
 15 18  1  0  0  0
 16 19  1  0  0  0
M  END
> <minimizedAffinity>
-9.85387

$$$$
1M0O_MPM_A_434


 29 29  0  0  0  0  0  0  0  0999 V2000
   17.2590   52.1429   16.4656 C   0  0  0  0  0  0  0  0  0  0  0  0
   16.2478   52.9566   15.8741 C   0  0  0  0  0  0  0  0  0  0  0  0
   18.4279   51.8258   15.6712 C   0  0  0  0  0  0  0  0  0  0  0  0
   16.4418   53.4267   14.5442 C   0  0  0  0  0  0  0  0  0  0  0  0
   18.5714   52.3319   14.3871 C   0  0  0  0  0  0  0  0  0  0  0  0
   15.1025   53.2946   16.5618 O   0  0  0  0  0  0  0  0  0  0  0  0
   17.5792   53.1161   13.8684 N   0  0  0  0  0  0  0  0  0  0  0  0
   15.4019   54.3132   13.8768 C   0  0  0  0  0  0  0  0  0  0  0  0
   14.9733   52.9860   17.4371 H   0  0  0  0  0  0  0  0  0  0  0  0
   17.1764   51.6055   17.9116 C   0  0  0  0  0  0  0  0  0  0  0  0
   16.4219   52.3065   18.7012 N   0  0  0  0  0  0  0  0  0  0  0  0
   16.1771   52.0503   20.1448 C   0  0  0  0  0  0  0  0  0  0  0  0
   15.1273   50.8879   20.4838 C   0  0  0  0  0  0  0  0  0  0  0  0
   15.8056   53.5079   20.8983 P   0  0  0  0  0  0  0  0  0  0  0  0
   15.7002   54.5543   19.8576 O   0  0  0  0  0  0  0  0  0  0  0  0
   14.5072   53.4322   21.5909 O   0  0  0  0  0  0  0  0  0  0  0  0
   16.8624   53.9027   21.8794 O   0  0  0  0  0  0  0  0  0  0  0  0
   15.0159   54.3053   19.2168 H   0  0  0  0  0  0  0  0  0  0  0  0
   13.8178   53.1763   20.9584 H   0  0  0  0  0  0  0  0  0  0  0  0
   17.5230   51.4749   20.6760 C   0  0  0  0  0  0  0  0  0  0  0  0
   17.4117   49.9885   21.0295 C   0  0  0  0  0  0  0  0  0  0  0  0
   19.4051   50.9835   16.2713 C   0  0  0  0  0  0  0  0  0  0  0  0
   19.8081   49.7769   15.7833 O   0  0  0  0  0  0  0  0  0  0  0  0
   20.1726   48.5950   16.6662 P   0  0  0  0  0  0  0  0  0  0  0  0
   21.6048   48.6240   16.8911 O   0  0  0  0  0  0  0  0  0  0  0  0
   19.7661   47.3889   15.9761 O   0  0  0  0  0  0  0  0  0  0  0  0
   19.5947   48.7351   17.9668 O   0  0  0  0  0  0  0  0  0  0  0  0
   20.1915   47.3558   15.1050 H   0  0  0  0  0  0  0  0  0  0  0  0
   19.9064   49.5593   18.3721 H   0  0  0  0  0  0  0  0  0  0  0  0
  1  2  2  0  0  0
  1  3  1  0  0  0
  1 10  1  0  0  0
  2  4  1  0  0  0
  2  6  1  0  0  0
  3  5  2  0  0  0
  3 22  1  0  0  0
 10 11  2  0  0  0
  4  7  2  0  0  0
  4  8  1  0  0  0
  5  7  1  0  0  0
 22 23  1  0  0  0
 11 12  1  0  0  0
 23 24  1  0  0  0
 12 20  1  0  0  0
 12 13  1  0  0  0
 12 14  1  0  0  0
 24 25  2  0  0  0
 24 26  1  0  0  0
 24 27  1  0  0  0
 20 21  1  0  0  0
 14 15  1  0  0  0
 14 16  1  0  0  0
 14 17  2  0  0  0
  6  9  1  0  0  0
 26 28  1  0  0  0
 27 29  1  0  0  0
 15 18  1  0  0  0
 16 19  1  0  0  0
M  END
> <minimizedAffinity>
-8.86632

$$$$
1M0O_MPM_A_434


 29 29  0  0  0  0  0  0  0  0999 V2000
   16.8345   51.9297   19.2520 C   0  0  0  0  0  0  0  0  0  0  0  0
   17.2219   51.9599   20.6244 C   0  0  0  0  0  0  0  0  0  0  0  0
   15.9392   52.9635   18.7750 C   0  0  0  0  0  0  0  0  0  0  0  0
   16.7240   53.0070   21.4508 C   0  0  0  0  0  0  0  0  0  0  0  0
   15.5042   53.9719   19.6232 C   0  0  0  0  0  0  0  0  0  0  0  0
   18.0633   51.0068   21.1557 O   0  0  0  0  0  0  0  0  0  0  0  0
   15.9120   53.9632   20.9279 N   0  0  0  0  0  0  0  0  0  0  0  0
   17.1234   53.0940   22.9155 C   0  0  0  0  0  0  0  0  0  0  0  0
   18.3918   50.3171   20.6133 H   0  0  0  0  0  0  0  0  0  0  0  0
   17.3389   50.8655   18.2521 C   0  0  0  0  0  0  0  0  0  0  0  0
   18.3697   51.2322   17.5544 N   0  0  0  0  0  0  0  0  0  0  0  0
   19.0509   50.4350   16.5008 C   0  0  0  0  0  0  0  0  0  0  0  0
   18.1012   49.5293   15.5810 C   0  0  0  0  0  0  0  0  0  0  0  0
   20.3039   49.5622   17.2068 P   0  0  0  0  0  0  0  0  0  0  0  0
   19.7710   48.2502   17.6357 O   0  0  0  0  0  0  0  0  0  0  0  0
   21.3873   49.3114   16.2401 O   0  0  0  0  0  0  0  0  0  0  0  0
   20.8637   50.2723   18.3974 O   0  0  0  0  0  0  0  0  0  0  0  0
   19.4057   47.7830   16.8681 H   0  0  0  0  0  0  0  0  0  0  0  0
   21.0291   48.8506   15.4653 H   0  0  0  0  0  0  0  0  0  0  0  0
   19.6027   51.4940   15.5014 C   0  0  0  0  0  0  0  0  0  0  0  0
   18.5629   51.8833   14.4459 C   0  0  0  0  0  0  0  0  0  0  0  0
   15.5397   52.8905   17.4113 C   0  0  0  0  0  0  0  0  0  0  0  0
   16.0715   53.6283   16.3967 O   0  0  0  0  0  0  0  0  0  0  0  0
   15.3262   53.9449   15.1107 P   0  0  0  0  0  0  0  0  0  0  0  0
   14.2120   54.8136   15.4367 O   0  0  0  0  0  0  0  0  0  0  0  0
   14.8759   52.6911   14.5436 O   0  0  0  0  0  0  0  0  0  0  0  0
   16.1443   54.7146   14.2257 O   0  0  0  0  0  0  0  0  0  0  0  0
   14.3288   52.2209   15.1921 H   0  0  0  0  0  0  0  0  0  0  0  0
   16.4104   55.5375   14.6649 H   0  0  0  0  0  0  0  0  0  0  0  0
  1  2  2  0  0  0
  1  3  1  0  0  0
  1 10  1  0  0  0
  2  4  1  0  0  0
  2  6  1  0  0  0
  3  5  2  0  0  0
  3 22  1  0  0  0
 10 11  2  0  0  0
  4  7  2  0  0  0
  4  8  1  0  0  0
  5  7  1  0  0  0
 22 23  1  0  0  0
 11 12  1  0  0  0
 23 24  1  0  0  0
 12 20  1  0  0  0
 12 13  1  0  0  0
 12 14  1  0  0  0
 24 25  2  0  0  0
 24 26  1  0  0  0
 24 27  1  0  0  0
 20 21  1  0  0  0
 14 15  1  0  0  0
 14 16  1  0  0  0
 14 17  2  0  0  0
  6  9  1  0  0  0
 26 28  1  0  0  0
 27 29  1  0  0  0
 15 18  1  0  0  0
 16 19  1  0  0  0
M  END
> <minimizedAffinity>
-8.43694

$$$$
1M0O_MPM_A_434


 29 29  0  0  0  0  0  0  0  0999 V2000
   18.1927   51.1463   17.6849 C   0  0  0  0  0  0  0  0  0  0  0  0
   19.4441   50.5653   18.0466 C   0  0  0  0  0  0  0  0  0  0  0  0
   18.0437   51.6561   16.3373 C   0  0  0  0  0  0  0  0  0  0  0  0
   20.4755   50.5021   17.0670 C   0  0  0  0  0  0  0  0  0  0  0  0
   19.0782   51.5464   15.4190 C   0  0  0  0  0  0  0  0  0  0  0  0
   19.6669   50.0662   19.3116 O   0  0  0  0  0  0  0  0  0  0  0  0
   20.2550   50.9717   15.8109 N   0  0  0  0  0  0  0  0  0  0  0  0
   21.8205   49.8745   17.3980 C   0  0  0  0  0  0  0  0  0  0  0  0
   18.9893   50.1070   19.9574 H   0  0  0  0  0  0  0  0  0  0  0  0
   16.9898   51.2371   18.6499 C   0  0  0  0  0  0  0  0  0  0  0  0
   17.1656   52.0445   19.6504 N   0  0  0  0  0  0  0  0  0  0  0  0
   16.2006   52.3113   20.7491 C   0  0  0  0  0  0  0  0  0  0  0  0
   15.7903   51.0481   21.6459 C   0  0  0  0  0  0  0  0  0  0  0  0
   14.8705   53.1244   20.1165 P   0  0  0  0  0  0  0  0  0  0  0  0
   14.5185   54.2261   21.0393 O   0  0  0  0  0  0  0  0  0  0  0  0
   15.1858   53.7206   18.8065 O   0  0  0  0  0  0  0  0  0  0  0  0
   13.6914   52.2166   19.9712 O   0  0  0  0  0  0  0  0  0  0  0  0
   15.2790   54.8199   21.1389 H   0  0  0  0  0  0  0  0  0  0  0  0
   15.9505   54.3107   18.8954 H   0  0  0  0  0  0  0  0  0  0  0  0
   16.9823   53.2137   21.7488 C   0  0  0  0  0  0  0  0  0  0  0  0
   16.3475   53.2090   23.1430 C   0  0  0  0  0  0  0  0  0  0  0  0
   16.7983   52.2627   16.0125 C   0  0  0  0  0  0  0  0  0  0  0  0
   16.6151   53.5868   15.7480 O   0  0  0  0  0  0  0  0  0  0  0  0
   15.3748   54.1418   15.0675 P   0  0  0  0  0  0  0  0  0  0  0  0
   14.5493   53.0244   14.6523 O   0  0  0  0  0  0  0  0  0  0  0  0
   15.8110   54.9315   13.9351 O   0  0  0  0  0  0  0  0  0  0  0  0
   14.5672   54.8684   15.9974 O   0  0  0  0  0  0  0  0  0  0  0  0
   16.3516   54.3817   13.3465 H   0  0  0  0  0  0  0  0  0  0  0  0
   14.3102   54.2843   16.7279 H   0  0  0  0  0  0  0  0  0  0  0  0
  1  2  2  0  0  0
  1  3  1  0  0  0
  1 10  1  0  0  0
  2  4  1  0  0  0
  2  6  1  0  0  0
  3  5  2  0  0  0
  3 22  1  0  0  0
 10 11  2  0  0  0
  4  7  2  0  0  0
  4  8  1  0  0  0
  5  7  1  0  0  0
 22 23  1  0  0  0
 11 12  1  0  0  0
 23 24  1  0  0  0
 12 20  1  0  0  0
 12 13  1  0  0  0
 12 14  1  0  0  0
 24 25  2  0  0  0
 24 26  1  0  0  0
 24 27  1  0  0  0
 20 21  1  0  0  0
 14 15  1  0  0  0
 14 16  1  0  0  0
 14 17  2  0  0  0
  6  9  1  0  0  0
 26 28  1  0  0  0
 27 29  1  0  0  0
 15 18  1  0  0  0
 16 19  1  0  0  0
M  END
> <minimizedAffinity>
-8.37859

$$$$
1M0O_MPM_A_434


 29 29  0  0  0  0  0  0  0  0999 V2000
   16.4110   52.2634   19.1594 C   0  0  0  0  0  0  0  0  0  0  0  0
   15.6445   53.2120   19.8989 C   0  0  0  0  0  0  0  0  0  0  0  0
   17.4617   51.5483   19.8540 C   0  0  0  0  0  0  0  0  0  0  0  0
   15.9382   53.3988   21.2795 C   0  0  0  0  0  0  0  0  0  0  0  0
   17.6869   51.7569   21.2073 C   0  0  0  0  0  0  0  0  0  0  0  0
   14.6339   53.9385   19.3075 O   0  0  0  0  0  0  0  0  0  0  0  0
   16.9183   52.6693   21.8747 N   0  0  0  0  0  0  0  0  0  0  0  0
   15.1365   54.3841   22.1156 C   0  0  0  0  0  0  0  0  0  0  0  0
   14.4393   53.8168   18.3990 H   0  0  0  0  0  0  0  0  0  0  0  0
   16.1604   51.9493   17.6677 C   0  0  0  0  0  0  0  0  0  0  0  0
   16.6246   52.8412   16.8473 N   0  0  0  0  0  0  0  0  0  0  0  0
   16.5077   52.8230   15.3656 C   0  0  0  0  0  0  0  0  0  0  0  0
   15.2042   52.1035   14.7726 C   0  0  0  0  0  0  0  0  0  0  0  0
   17.9389   52.2226   14.7165 P   0  0  0  0  0  0  0  0  0  0  0  0
   18.0855   52.7562   13.3442 O   0  0  0  0  0  0  0  0  0  0  0  0
   19.1054   52.6695   15.4980 O   0  0  0  0  0  0  0  0  0  0  0  0
   17.9304   50.7287   14.6588 O   0  0  0  0  0  0  0  0  0  0  0  0
   18.0918   53.7258   13.3732 H   0  0  0  0  0  0  0  0  0  0  0  0
   19.1155   53.6386   15.5384 H   0  0  0  0  0  0  0  0  0  0  0  0
   16.2977   54.3142   14.9692 C   0  0  0  0  0  0  0  0  0  0  0  0
   15.0809   54.4993   14.0570 C   0  0  0  0  0  0  0  0  0  0  0  0
   18.2349   50.6338   19.0855 C   0  0  0  0  0  0  0  0  0  0  0  0
   19.1663   50.9823   18.1541 O   0  0  0  0  0  0  0  0  0  0  0  0
   20.2623   50.0457   17.6735 P   0  0  0  0  0  0  0  0  0  0  0  0
   19.7603   48.6874   17.7477 O   0  0  0  0  0  0  0  0  0  0  0  0
   21.4116   50.2364   18.5331 O   0  0  0  0  0  0  0  0  0  0  0  0
   20.5406   50.2583   16.2870 O   0  0  0  0  0  0  0  0  0  0  0  0
   21.1556   50.0777   19.4552 H   0  0  0  0  0  0  0  0  0  0  0  0
   19.7328   50.1153   15.7695 H   0  0  0  0  0  0  0  0  0  0  0  0
  1  2  2  0  0  0
  1  3  1  0  0  0
  1 10  1  0  0  0
  2  4  1  0  0  0
  2  6  1  0  0  0
  3  5  2  0  0  0
  3 22  1  0  0  0
 10 11  2  0  0  0
  4  7  2  0  0  0
  4  8  1  0  0  0
  5  7  1  0  0  0
 22 23  1  0  0  0
 11 12  1  0  0  0
 23 24  1  0  0  0
 12 20  1  0  0  0
 12 13  1  0  0  0
 12 14  1  0  0  0
 24 25  2  0  0  0
 24 26  1  0  0  0
 24 27  1  0  0  0
 20 21  1  0  0  0
 14 15  1  0  0  0
 14 16  1  0  0  0
 14 17  2  0  0  0
  6  9  1  0  0  0
 26 28  1  0  0  0
 27 29  1  0  0  0
 15 18  1  0  0  0
 16 19  1  0  0  0
M  END
> <minimizedAffinity>
-8.07111

$$$$
1M0O_MPM_A_434


 29 29  0  0  0  0  0  0  0  0999 V2000
   16.4162   52.2483   19.0429 C   0  0  0  0  0  0  0  0  0  0  0  0
   15.8285   53.3240   19.7723 C   0  0  0  0  0  0  0  0  0  0  0  0
   17.2623   51.3198   19.7639 C   0  0  0  0  0  0  0  0  0  0  0  0
   16.0891   53.4242   21.1685 C   0  0  0  0  0  0  0  0  0  0  0  0
   17.4616   51.4561   21.1304 C   0  0  0  0  0  0  0  0  0  0  0  0
   15.0192   54.2537   19.1563 O   0  0  0  0  0  0  0  0  0  0  0  0
   16.8678   52.4978   21.7868 N   0  0  0  0  0  0  0  0  0  0  0  0
   15.4701   54.5416   21.9936 C   0  0  0  0  0  0  0  0  0  0  0  0
   14.8467   54.1892   18.2375 H   0  0  0  0  0  0  0  0  0  0  0  0
   16.1767   52.0164   17.5344 C   0  0  0  0  0  0  0  0  0  0  0  0
   16.7506   52.8862   16.7611 N   0  0  0  0  0  0  0  0  0  0  0  0
   16.6735   52.9344   15.2775 C   0  0  0  0  0  0  0  0  0  0  0  0
   18.0477   53.2409   14.5122 C   0  0  0  0  0  0  0  0  0  0  0  0
   15.4303   53.9772   14.8330 P   0  0  0  0  0  0  0  0  0  0  0  0
   15.9940   55.0197   13.9471 O   0  0  0  0  0  0  0  0  0  0  0  0
   14.3840   53.2655   14.0783 O   0  0  0  0  0  0  0  0  0  0  0  0
   14.8134   54.6345   16.0258 O   0  0  0  0  0  0  0  0  0  0  0  0
   16.3964   54.6009   13.1702 H   0  0  0  0  0  0  0  0  0  0  0  0
   14.7793   52.8371   13.3030 H   0  0  0  0  0  0  0  0  0  0  0  0
   16.3527   51.4711   14.8525 C   0  0  0  0  0  0  0  0  0  0  0  0
   17.6208   50.6225   14.7156 C   0  0  0  0  0  0  0  0  0  0  0  0
   17.8649   50.2766   19.0068 C   0  0  0  0  0  0  0  0  0  0  0  0
   19.1907   49.9625   19.0191 O   0  0  0  0  0  0  0  0  0  0  0  0
   20.2445   50.7446   18.2528 P   0  0  0  0  0  0  0  0  0  0  0  0
   21.0636   49.7995   17.5191 O   0  0  0  0  0  0  0  0  0  0  0  0
   21.0259   51.4905   19.2169 O   0  0  0  0  0  0  0  0  0  0  0  0
   19.6395   51.5625   17.2479 O   0  0  0  0  0  0  0  0  0  0  0  0
   21.4064   50.8793   19.8669 H   0  0  0  0  0  0  0  0  0  0  0  0
   19.1334   51.0036   16.6376 H   0  0  0  0  0  0  0  0  0  0  0  0
  1  2  2  0  0  0
  1  3  1  0  0  0
  1 10  1  0  0  0
  2  4  1  0  0  0
  2  6  1  0  0  0
  3  5  2  0  0  0
  3 22  1  0  0  0
 10 11  2  0  0  0
  4  7  2  0  0  0
  4  8  1  0  0  0
  5  7  1  0  0  0
 22 23  1  0  0  0
 11 12  1  0  0  0
 23 24  1  0  0  0
 12 20  1  0  0  0
 12 13  1  0  0  0
 12 14  1  0  0  0
 24 25  2  0  0  0
 24 26  1  0  0  0
 24 27  1  0  0  0
 20 21  1  0  0  0
 14 15  1  0  0  0
 14 16  1  0  0  0
 14 17  2  0  0  0
  6  9  1  0  0  0
 26 28  1  0  0  0
 27 29  1  0  0  0
 15 18  1  0  0  0
 16 19  1  0  0  0
M  END
> <minimizedAffinity>
-7.89055

$$$$
1M0O_MPM_A_434


 29 29  0  0  0  0  0  0  0  0999 V2000
   15.9527   53.0840   17.1938 C   0  0  0  0  0  0  0  0  0  0  0  0
   15.7913   53.1296   15.7774 C   0  0  0  0  0  0  0  0  0  0  0  0
   15.3726   54.1539   17.9793 C   0  0  0  0  0  0  0  0  0  0  0  0
   15.0599   54.2107   15.2086 C   0  0  0  0  0  0  0  0  0  0  0  0
   14.6508   55.1702   17.3697 C   0  0  0  0  0  0  0  0  0  0  0  0
   16.3213   52.1542   14.9610 O   0  0  0  0  0  0  0  0  0  0  0  0
   14.5151   55.1639   16.0096 N   0  0  0  0  0  0  0  0  0  0  0  0
   14.8436   54.2936   13.7056 C   0  0  0  0  0  0  0  0  0  0  0  0
   16.8029   51.4420   15.3337 H   0  0  0  0  0  0  0  0  0  0  0  0
   16.6937   51.9434   17.9263 C   0  0  0  0  0  0  0  0  0  0  0  0
   17.8967   51.7215   17.4933 N   0  0  0  0  0  0  0  0  0  0  0  0
   18.8314   50.6744   17.9825 C   0  0  0  0  0  0  0  0  0  0  0  0
   20.1160   51.1986   18.7845 C   0  0  0  0  0  0  0  0  0  0  0  0
   19.2293   49.6611   16.6999 P   0  0  0  0  0  0  0  0  0  0  0  0
   19.6034   48.3400   17.2514 O   0  0  0  0  0  0  0  0  0  0  0  0
   18.0776   49.4622   15.8026 O   0  0  0  0  0  0  0  0  0  0  0  0
   20.3784   50.2014   15.9105 O   0  0  0  0  0  0  0  0  0  0  0  0
   18.8624   47.9825   17.7653 H   0  0  0  0  0  0  0  0  0  0  0  0
   17.3290   49.1116   16.3102 H   0  0  0  0  0  0  0  0  0  0  0  0
   18.0261   49.9059   19.0715 C   0  0  0  0  0  0  0  0  0  0  0  0
   18.0001   50.6601   20.4047 C   0  0  0  0  0  0  0  0  0  0  0  0
   15.5781   54.1040   19.3863 C   0  0  0  0  0  0  0  0  0  0  0  0
   14.7582   53.4799   20.2780 O   0  0  0  0  0  0  0  0  0  0  0  0
   15.1383   53.2197   21.7261 P   0  0  0  0  0  0  0  0  0  0  0  0
   16.5741   53.3785   21.8517 O   0  0  0  0  0  0  0  0  0  0  0  0
   14.7207   51.8729   22.0550 O   0  0  0  0  0  0  0  0  0  0  0  0
   14.5826   54.2190   22.5848 O   0  0  0  0  0  0  0  0  0  0  0  0
   15.1311   51.2473   21.4377 H   0  0  0  0  0  0  0  0  0  0  0  0
   14.9008   55.0936   22.3114 H   0  0  0  0  0  0  0  0  0  0  0  0
  1  2  2  0  0  0
  1  3  1  0  0  0
  1 10  1  0  0  0
  2  4  1  0  0  0
  2  6  1  0  0  0
  3  5  2  0  0  0
  3 22  1  0  0  0
 10 11  2  0  0  0
  4  7  2  0  0  0
  4  8  1  0  0  0
  5  7  1  0  0  0
 22 23  1  0  0  0
 11 12  1  0  0  0
 23 24  1  0  0  0
 12 20  1  0  0  0
 12 13  1  0  0  0
 12 14  1  0  0  0
 24 25  2  0  0  0
 24 26  1  0  0  0
 24 27  1  0  0  0
 20 21  1  0  0  0
 14 15  1  0  0  0
 14 16  1  0  0  0
 14 17  2  0  0  0
  6  9  1  0  0  0
 26 28  1  0  0  0
 27 29  1  0  0  0
 15 18  1  0  0  0
 16 19  1  0  0  0
M  END
> <minimizedAffinity>
-7.87609

$$$$
1M0O_MPM_A_434


 29 29  0  0  0  0  0  0  0  0999 V2000
   18.2095   50.9487   17.6790 C   0  0  0  0  0  0  0  0  0  0  0  0
   19.4289   50.8468   18.4117 C   0  0  0  0  0  0  0  0  0  0  0  0
   18.2455   50.6759   16.2569 C   0  0  0  0  0  0  0  0  0  0  0  0
   20.6130   50.4702   17.7165 C   0  0  0  0  0  0  0  0  0  0  0  0
   19.4266   50.2912   15.6383 C   0  0  0  0  0  0  0  0  0  0  0  0
   19.4783   51.0994   19.7654 O   0  0  0  0  0  0  0  0  0  0  0  0
   20.5671   50.1975   16.3859 N   0  0  0  0  0  0  0  0  0  0  0  0
   21.9339   50.3288   18.4567 C   0  0  0  0  0  0  0  0  0  0  0  0
   18.7000   51.3474   20.2244 H   0  0  0  0  0  0  0  0  0  0  0  0
   16.8569   51.3129   18.3306 C   0  0  0  0  0  0  0  0  0  0  0  0
   16.9476   52.1409   19.3257 N   0  0  0  0  0  0  0  0  0  0  0  0
   15.8249   52.6448   20.1594 C   0  0  0  0  0  0  0  0  0  0  0  0
   16.1485   53.9167   21.0790 C   0  0  0  0  0  0  0  0  0  0  0  0
   15.1742   51.3586   21.0269 P   0  0  0  0  0  0  0  0  0  0  0  0
   14.6918   51.8734   22.3275 O   0  0  0  0  0  0  0  0  0  0  0  0
   14.0213   50.7713   20.3219 O   0  0  0  0  0  0  0  0  0  0  0  0
   16.1932   50.2927   21.2737 O   0  0  0  0  0  0  0  0  0  0  0  0
   14.0298   52.5659   22.1757 H   0  0  0  0  0  0  0  0  0  0  0  0
   13.3570   51.4591   20.1593 H   0  0  0  0  0  0  0  0  0  0  0  0
   14.7945   53.2045   19.1346 C   0  0  0  0  0  0  0  0  0  0  0  0
   15.3315   54.4334   18.3942 C   0  0  0  0  0  0  0  0  0  0  0  0
   17.0233   50.8191   15.5426 C   0  0  0  0  0  0  0  0  0  0  0  0
   16.4642   52.0054   15.1730 O   0  0  0  0  0  0  0  0  0  0  0  0
   17.2273   53.1021   14.4490 P   0  0  0  0  0  0  0  0  0  0  0  0
   18.2813   53.5736   15.3261 O   0  0  0  0  0  0  0  0  0  0  0  0
   16.2869   54.1563   14.1320 O   0  0  0  0  0  0  0  0  0  0  0  0
   17.9087   52.5777   13.3063 O   0  0  0  0  0  0  0  0  0  0  0  0
   15.8615   54.4659   14.9469 H   0  0  0  0  0  0  0  0  0  0  0  0
   18.5204   51.8791   13.5870 H   0  0  0  0  0  0  0  0  0  0  0  0
  1  2  2  0  0  0
  1  3  1  0  0  0
  1 10  1  0  0  0
  2  4  1  0  0  0
  2  6  1  0  0  0
  3  5  2  0  0  0
  3 22  1  0  0  0
 10 11  2  0  0  0
  4  7  2  0  0  0
  4  8  1  0  0  0
  5  7  1  0  0  0
 22 23  1  0  0  0
 11 12  1  0  0  0
 23 24  1  0  0  0
 12 20  1  0  0  0
 12 13  1  0  0  0
 12 14  1  0  0  0
 24 25  2  0  0  0
 24 26  1  0  0  0
 24 27  1  0  0  0
 20 21  1  0  0  0
 14 15  1  0  0  0
 14 16  1  0  0  0
 14 17  2  0  0  0
  6  9  1  0  0  0
 26 28  1  0  0  0
 27 29  1  0  0  0
 15 18  1  0  0  0
 16 19  1  0  0  0
M  END
> <minimizedAffinity>
-7.68340

$$$$
1M0O_MPM_A_434


 29 29  0  0  0  0  0  0  0  0999 V2000
   15.9897   53.0935   16.9974 C   0  0  0  0  0  0  0  0  0  0  0  0
   15.8395   53.2841   15.5918 C   0  0  0  0  0  0  0  0  0  0  0  0
   15.2897   53.9988   17.8852 C   0  0  0  0  0  0  0  0  0  0  0  0
   15.0023   54.3400   15.1323 C   0  0  0  0  0  0  0  0  0  0  0  0
   14.4694   54.9966   17.3781 C   0  0  0  0  0  0  0  0  0  0  0  0
   16.4800   52.4703   14.6828 O   0  0  0  0  0  0  0  0  0  0  0  0
   14.3496   55.1321   16.0232 N   0  0  0  0  0  0  0  0  0  0  0  0
   14.7944   54.5717   13.6437 C   0  0  0  0  0  0  0  0  0  0  0  0
   17.0313   51.7749   14.9836 H   0  0  0  0  0  0  0  0  0  0  0  0
   16.8412   51.9609   17.6130 C   0  0  0  0  0  0  0  0  0  0  0  0
   17.7778   51.5118   16.8352 N   0  0  0  0  0  0  0  0  0  0  0  0
   18.7284   50.4114   17.1433 C   0  0  0  0  0  0  0  0  0  0  0  0
   18.7370   49.8945   18.6602 C   0  0  0  0  0  0  0  0  0  0  0  0
   20.2572   50.8455   16.5912 P   0  0  0  0  0  0  0  0  0  0  0  0
   20.0969   51.6060   15.3322 O   0  0  0  0  0  0  0  0  0  0  0  0
   20.9431   51.7199   17.5588 O   0  0  0  0  0  0  0  0  0  0  0  0
   21.1068   49.6436   16.3283 O   0  0  0  0  0  0  0  0  0  0  0  0
   19.5465   52.3880   15.4947 H   0  0  0  0  0  0  0  0  0  0  0  0
   20.3957   52.5015   17.7328 H   0  0  0  0  0  0  0  0  0  0  0  0
   18.1788   49.1850   16.3566 C   0  0  0  0  0  0  0  0  0  0  0  0
   17.6812   49.5748   14.9611 C   0  0  0  0  0  0  0  0  0  0  0  0
   15.4843   53.8097   19.2819 C   0  0  0  0  0  0  0  0  0  0  0  0
   14.6466   53.1187   20.1050 O   0  0  0  0  0  0  0  0  0  0  0  0
   15.0932   51.9468   20.9632 P   0  0  0  0  0  0  0  0  0  0  0  0
   14.6457   50.7238   20.3258 O   0  0  0  0  0  0  0  0  0  0  0  0
   14.5014   52.1114   22.2743 O   0  0  0  0  0  0  0  0  0  0  0  0
   16.5196   51.8477   20.9854 O   0  0  0  0  0  0  0  0  0  0  0  0
   13.5371   52.1718   22.1885 H   0  0  0  0  0  0  0  0  0  0  0  0
   16.8503   51.7396   20.0799 H   0  0  0  0  0  0  0  0  0  0  0  0
  1  2  2  0  0  0
  1  3  1  0  0  0
  1 10  1  0  0  0
  2  4  1  0  0  0
  2  6  1  0  0  0
  3  5  2  0  0  0
  3 22  1  0  0  0
 10 11  2  0  0  0
  4  7  2  0  0  0
  4  8  1  0  0  0
  5  7  1  0  0  0
 22 23  1  0  0  0
 11 12  1  0  0  0
 23 24  1  0  0  0
 12 20  1  0  0  0
 12 13  1  0  0  0
 12 14  1  0  0  0
 24 25  2  0  0  0
 24 26  1  0  0  0
 24 27  1  0  0  0
 20 21  1  0  0  0
 14 15  1  0  0  0
 14 16  1  0  0  0
 14 17  2  0  0  0
  6  9  1  0  0  0
 26 28  1  0  0  0
 27 29  1  0  0  0
 15 18  1  0  0  0
 16 19  1  0  0  0
M  END
> <minimizedAffinity>
-7.56399

$$$$
