5FNG_YIE_A_1263


 13 14  0  0  0  0  0  0  0  0999 V2000
   -7.6238    6.6984   12.7910 Cl  0  0  0  0  0  0  0  0  0  0  0  0
   -6.5550    5.6096   13.5762 C   0  0  0  0  0  0  0  0  0  0  0  0
   -6.1040    5.8538   14.8531 C   0  0  0  0  0  0  0  0  0  0  0  0
   -5.2601    4.9655   15.4530 C   0  0  0  0  0  0  0  0  0  0  0  0
   -4.8317    3.8297   14.7646 C   0  0  0  0  0  0  0  0  0  0  0  0
   -5.2806    3.6081   13.4808 C   0  0  0  0  0  0  0  0  0  0  0  0
   -6.1497    4.4938   12.8828 C   0  0  0  0  0  0  0  0  0  0  0  0
   -3.8601    2.8147   15.3531 C   0  0  0  0  0  0  0  0  0  0  0  0
   -4.6107    1.8205   16.1356 C   0  0  0  0  0  0  0  0  0  0  0  0
   -4.8177    2.0616   17.4190 N   0  0  0  0  0  0  0  0  0  0  0  0
   -5.4983    0.9740   17.8656 N   0  0  0  0  0  0  0  0  0  0  0  0
   -5.6419    0.1146   16.8356 N   0  0  0  0  0  0  0  0  0  0  0  0
   -5.0773    0.6410   15.7233 N   0  0  0  0  0  0  0  0  0  0  0  0
  6  7  2  0  0  0
  6  5  1  0  0  0
  4  3  1  0  0  0
  4  5  2  0  0  0
  7  2  1  0  0  0
  3  2  2  0  0  0
  5  8  1  0  0  0
  2  1  1  0  0  0
  9  8  1  0  0  0
  9 13  2  0  0  0
  9 10  1  0  0  0
 13 12  1  0  0  0
 10 11  1  0  0  0
 12 11  2  0  0  0
M  CHG 1  10  -1
M  END
> <minimizedAffinity>
-6.47223

$$$$
5FNG_YIE_A_1263


 13 14  0  0  0  0  0  0  0  0999 V2000
   -4.5686    0.7673    9.8169 Cl  0  0  0  0  0  0  0  0  0  0  0  0
   -4.5731    1.4637   11.3851 C   0  0  0  0  0  0  0  0  0  0  0  0
   -4.9888    2.7601   11.5853 C   0  0  0  0  0  0  0  0  0  0  0  0
   -4.9872    3.2831   12.8453 C   0  0  0  0  0  0  0  0  0  0  0  0
   -4.5375    2.5180   13.9223 C   0  0  0  0  0  0  0  0  0  0  0  0
   -4.1099    1.2267   13.7021 C   0  0  0  0  0  0  0  0  0  0  0  0
   -4.1318    0.6912   12.4332 C   0  0  0  0  0  0  0  0  0  0  0  0
   -4.4689    3.0460   15.3496 C   0  0  0  0  0  0  0  0  0  0  0  0
   -5.2010    2.1333   16.2411 C   0  0  0  0  0  0  0  0  0  0  0  0
   -4.5045    1.3906   17.0847 N   0  0  0  0  0  0  0  0  0  0  0  0
   -5.4370    0.6492   17.7377 N   0  0  0  0  0  0  0  0  0  0  0  0
   -6.6497    0.9588   17.2340 N   0  0  0  0  0  0  0  0  0  0  0  0
   -6.5146    1.9045   16.2745 N   0  0  0  0  0  0  0  0  0  0  0  0
  6  7  2  0  0  0
  6  5  1  0  0  0
  4  3  1  0  0  0
  4  5  2  0  0  0
  7  2  1  0  0  0
  3  2  2  0  0  0
  5  8  1  0  0  0
  2  1  1  0  0  0
  9  8  1  0  0  0
  9 13  2  0  0  0
  9 10  1  0  0  0
 13 12  1  0  0  0
 10 11  1  0  0  0
 12 11  2  0  0  0
M  CHG 1  10  -1
M  END
> <minimizedAffinity>
-6.31694

$$$$
5FNG_YIE_A_1263


 13 14  0  0  0  0  0  0  0  0999 V2000
   -4.5427    7.4227   11.6474 Cl  0  0  0  0  0  0  0  0  0  0  0  0
   -5.0077    6.3308   12.8866 C   0  0  0  0  0  0  0  0  0  0  0  0
   -6.1599    5.5857   12.7812 C   0  0  0  0  0  0  0  0  0  0  0  0
   -6.4991    4.7211   13.7805 C   0  0  0  0  0  0  0  0  0  0  0  0
   -5.6981    4.6144   14.9183 C   0  0  0  0  0  0  0  0  0  0  0  0
   -4.5560    5.3792   15.0149 C   0  0  0  0  0  0  0  0  0  0  0  0
   -4.2018    6.2364   13.9964 C   0  0  0  0  0  0  0  0  0  0  0  0
   -6.0326    3.7018   16.0912 C   0  0  0  0  0  0  0  0  0  0  0  0
   -5.1830    2.5024   16.0315 C   0  0  0  0  0  0  0  0  0  0  0  0
   -5.7716    1.3243   15.9133 N   0  0  0  0  0  0  0  0  0  0  0  0
   -4.7490    0.4299   15.9129 N   0  0  0  0  0  0  0  0  0  0  0  0
   -3.5938    1.1106   16.0621 N   0  0  0  0  0  0  0  0  0  0  0  0
   -3.8554    2.4366   16.1417 N   0  0  0  0  0  0  0  0  0  0  0  0
  6  7  2  0  0  0
  6  5  1  0  0  0
  4  3  1  0  0  0
  4  5  2  0  0  0
  7  2  1  0  0  0
  3  2  2  0  0  0
  5  8  1  0  0  0
  2  1  1  0  0  0
  9  8  1  0  0  0
  9 13  2  0  0  0
  9 10  1  0  0  0
 13 12  1  0  0  0
 10 11  1  0  0  0
 12 11  2  0  0  0
M  CHG 1  10  -1
M  END
> <minimizedAffinity>
-6.30885

$$$$
5FNG_YIE_A_1263


 13 14  0  0  0  0  0  0  0  0999 V2000
   -2.2156    6.8107   13.8640 Cl  0  0  0  0  0  0  0  0  0  0  0  0
   -3.4479    5.7723   14.4537 C   0  0  0  0  0  0  0  0  0  0  0  0
   -3.2164    4.4284   14.6377 C   0  0  0  0  0  0  0  0  0  0  0  0
   -4.2146    3.6300   15.1145 C   0  0  0  0  0  0  0  0  0  0  0  0
   -5.4738    4.1670   15.3858 C   0  0  0  0  0  0  0  0  0  0  0  0
   -5.6934    5.5118   15.1813 C   0  0  0  0  0  0  0  0  0  0  0  0
   -4.6794    6.3223   14.7204 C   0  0  0  0  0  0  0  0  0  0  0  0
   -6.6474    3.3320   15.8817 C   0  0  0  0  0  0  0  0  0  0  0  0
   -6.1433    2.2395   16.7281 C   0  0  0  0  0  0  0  0  0  0  0  0
   -6.1848    1.0076   16.2498 N   0  0  0  0  0  0  0  0  0  0  0  0
   -5.6875    0.2353   17.2507 N   0  0  0  0  0  0  0  0  0  0  0  0
   -5.3985    1.0365   18.2970 N   0  0  0  0  0  0  0  0  0  0  0  0
   -5.6868    2.3205   17.9788 N   0  0  0  0  0  0  0  0  0  0  0  0
  6  7  2  0  0  0
  6  5  1  0  0  0
  4  3  1  0  0  0
  4  5  2  0  0  0
  7  2  1  0  0  0
  3  2  2  0  0  0
  5  8  1  0  0  0
  2  1  1  0  0  0
  9  8  1  0  0  0
  9 13  2  0  0  0
  9 10  1  0  0  0
 13 12  1  0  0  0
 10 11  1  0  0  0
 12 11  2  0  0  0
M  CHG 1  10  -1
M  END
> <minimizedAffinity>
-6.26460

$$$$
5FNG_YIE_A_1263


 13 14  0  0  0  0  0  0  0  0999 V2000
   -5.8573    1.9727   17.7820 Cl  0  0  0  0  0  0  0  0  0  0  0  0
   -5.5617    2.5036   16.1772 C   0  0  0  0  0  0  0  0  0  0  0  0
   -4.6594    1.8517   15.3683 C   0  0  0  0  0  0  0  0  0  0  0  0
   -4.4513    2.2940   14.0946 C   0  0  0  0  0  0  0  0  0  0  0  0
   -5.1272    3.4204   13.6236 C   0  0  0  0  0  0  0  0  0  0  0  0
   -6.0158    4.0709   14.4519 C   0  0  0  0  0  0  0  0  0  0  0  0
   -6.2421    3.6116   15.7307 C   0  0  0  0  0  0  0  0  0  0  0  0
   -4.9176    3.9964   12.2291 C   0  0  0  0  0  0  0  0  0  0  0  0
   -4.6284    2.9020   11.2896 C   0  0  0  0  0  0  0  0  0  0  0  0
   -3.3643    2.6420   11.0023 N   0  0  0  0  0  0  0  0  0  0  0  0
   -3.4201    1.6213   10.1074 N   0  0  0  0  0  0  0  0  0  0  0  0
   -4.7179    1.3355    9.8747 N   0  0  0  0  0  0  0  0  0  0  0  0
   -5.5025    2.1477   10.6217 N   0  0  0  0  0  0  0  0  0  0  0  0
  6  7  2  0  0  0
  6  5  1  0  0  0
  4  3  1  0  0  0
  4  5  2  0  0  0
  7  2  1  0  0  0
  3  2  2  0  0  0
  5  8  1  0  0  0
  2  1  1  0  0  0
  9  8  1  0  0  0
  9 13  2  0  0  0
  9 10  1  0  0  0
 13 12  1  0  0  0
 10 11  1  0  0  0
 12 11  2  0  0  0
M  CHG 1  10  -1
M  END
> <minimizedAffinity>
-6.14685

$$$$
5FNG_YIE_A_1263


 13 14  0  0  0  0  0  0  0  0999 V2000
   -6.1596    2.5708   18.7891 Cl  0  0  0  0  0  0  0  0  0  0  0  0
   -5.7366    2.6556   17.1283 C   0  0  0  0  0  0  0  0  0  0  0  0
   -6.3522    3.5505   16.2834 C   0  0  0  0  0  0  0  0  0  0  0  0
   -5.9891    3.5984   14.9693 C   0  0  0  0  0  0  0  0  0  0  0  0
   -5.0197    2.7237   14.4766 C   0  0  0  0  0  0  0  0  0  0  0  0
   -4.4242    1.8232   15.3328 C   0  0  0  0  0  0  0  0  0  0  0  0
   -4.7752    1.7893   16.6644 C   0  0  0  0  0  0  0  0  0  0  0  0
   -4.5913    2.6909   13.0151 C   0  0  0  0  0  0  0  0  0  0  0  0
   -3.2398    3.2586   12.8920 C   0  0  0  0  0  0  0  0  0  0  0  0
   -2.3876    2.6718   12.0687 N   0  0  0  0  0  0  0  0  0  0  0  0
   -1.2427    3.3928   12.1911 N   0  0  0  0  0  0  0  0  0  0  0  0
   -1.4508    4.3619   13.1064 N   0  0  0  0  0  0  0  0  0  0  0  0
   -2.7224    4.2873   13.5652 N   0  0  0  0  0  0  0  0  0  0  0  0
  6  7  2  0  0  0
  6  5  1  0  0  0
  4  3  1  0  0  0
  4  5  2  0  0  0
  7  2  1  0  0  0
  3  2  2  0  0  0
  5  8  1  0  0  0
  2  1  1  0  0  0
  9  8  1  0  0  0
  9 13  2  0  0  0
  9 10  1  0  0  0
 13 12  1  0  0  0
 10 11  1  0  0  0
 12 11  2  0  0  0
M  CHG 1  10  -1
M  END
> <minimizedAffinity>
-6.04132

$$$$
5FNG_YIE_A_1263


 13 14  0  0  0  0  0  0  0  0999 V2000
   -7.1048    7.0068   12.0682 Cl  0  0  0  0  0  0  0  0  0  0  0  0
   -6.0072    6.0845   13.0112 C   0  0  0  0  0  0  0  0  0  0  0  0
   -4.7047    5.9002   12.6073 C   0  0  0  0  0  0  0  0  0  0  0  0
   -3.8543    5.1673   13.3824 C   0  0  0  0  0  0  0  0  0  0  0  0
   -4.3103    4.5815   14.5641 C   0  0  0  0  0  0  0  0  0  0  0  0
   -5.6217    4.7629   14.9461 C   0  0  0  0  0  0  0  0  0  0  0  0
   -6.4749    5.5209   14.1746 C   0  0  0  0  0  0  0  0  0  0  0  0
   -3.4317    3.7178   15.4599 C   0  0  0  0  0  0  0  0  0  0  0  0
   -4.0248    2.3765   15.5750 C   0  0  0  0  0  0  0  0  0  0  0  0
   -4.4581    1.9839   16.7608 N   0  0  0  0  0  0  0  0  0  0  0  0
   -4.9154    0.7210   16.5567 N   0  0  0  0  0  0  0  0  0  0  0  0
   -4.7070    0.4015   15.2626 N   0  0  0  0  0  0  0  0  0  0  0  0
   -4.1360    1.4492   14.6227 N   0  0  0  0  0  0  0  0  0  0  0  0
  6  7  2  0  0  0
  6  5  1  0  0  0
  4  3  1  0  0  0
  4  5  2  0  0  0
  7  2  1  0  0  0
  3  2  2  0  0  0
  5  8  1  0  0  0
  2  1  1  0  0  0
  9  8  1  0  0  0
  9 13  2  0  0  0
  9 10  1  0  0  0
 13 12  1  0  0  0
 10 11  1  0  0  0
 12 11  2  0  0  0
M  CHG 1  10  -1
M  END
> <minimizedAffinity>
-5.89600

$$$$
5FNG_YIE_A_1263


 13 14  0  0  0  0  0  0  0  0999 V2000
   -1.5833    8.1705   14.2782 Cl  0  0  0  0  0  0  0  0  0  0  0  0
   -2.6591    6.8337   14.2656 C   0  0  0  0  0  0  0  0  0  0  0  0
   -3.8005    6.8333   15.0343 C   0  0  0  0  0  0  0  0  0  0  0  0
   -4.6395    5.7582   14.9974 C   0  0  0  0  0  0  0  0  0  0  0  0
   -4.3270    4.6509   14.2076 C   0  0  0  0  0  0  0  0  0  0  0  0
   -3.1723    4.6611   13.4559 C   0  0  0  0  0  0  0  0  0  0  0  0
   -2.3359    5.7555   13.4763 C   0  0  0  0  0  0  0  0  0  0  0  0
   -5.1933    3.3993   14.1459 C   0  0  0  0  0  0  0  0  0  0  0  0
   -4.8152    2.4921   15.2404 C   0  0  0  0  0  0  0  0  0  0  0  0
   -3.5287    2.2880   15.4673 N   0  0  0  0  0  0  0  0  0  0  0  0
   -3.4997    1.4026   16.4974 N   0  0  0  0  0  0  0  0  0  0  0  0
   -4.7718    1.0917   16.8217 N   0  0  0  0  0  0  0  0  0  0  0  0
   -5.6241    1.7787   16.0251 N   0  0  0  0  0  0  0  0  0  0  0  0
  6  7  2  0  0  0
  6  5  1  0  0  0
  4  3  1  0  0  0
  4  5  2  0  0  0
  7  2  1  0  0  0
  3  2  2  0  0  0
  5  8  1  0  0  0
  2  1  1  0  0  0
  9  8  1  0  0  0
  9 13  2  0  0  0
  9 10  1  0  0  0
 13 12  1  0  0  0
 10 11  1  0  0  0
 12 11  2  0  0  0
M  CHG 1  10  -1
M  END
> <minimizedAffinity>
-5.75852

$$$$
5FNG_YIE_A_1263


 13 14  0  0  0  0  0  0  0  0999 V2000
   -6.1171    0.7668   17.4508 Cl  0  0  0  0  0  0  0  0  0  0  0  0
   -5.6571    2.1633   16.5662 C   0  0  0  0  0  0  0  0  0  0  0  0
   -4.3620    2.3358   16.1342 C   0  0  0  0  0  0  0  0  0  0  0  0
   -4.0289    3.4539   15.4271 C   0  0  0  0  0  0  0  0  0  0  0  0
   -4.9892    4.4332   15.1691 C   0  0  0  0  0  0  0  0  0  0  0  0
   -6.2778    4.2522   15.6223 C   0  0  0  0  0  0  0  0  0  0  0  0
   -6.6195    3.1131   16.3175 C   0  0  0  0  0  0  0  0  0  0  0  0
   -4.6833    5.7249   14.4218 C   0  0  0  0  0  0  0  0  0  0  0  0
   -5.1319    5.5972   13.0267 C   0  0  0  0  0  0  0  0  0  0  0  0
   -4.8247    4.4917   12.3697 N   0  0  0  0  0  0  0  0  0  0  0  0
   -5.3406    4.6783   11.1268 N   0  0  0  0  0  0  0  0  0  0  0  0
   -5.9078    5.9017   11.0853 N   0  0  0  0  0  0  0  0  0  0  0  0
   -5.7801    6.5023   12.2920 N   0  0  0  0  0  0  0  0  0  0  0  0
  6  7  2  0  0  0
  6  5  1  0  0  0
  4  3  1  0  0  0
  4  5  2  0  0  0
  7  2  1  0  0  0
  3  2  2  0  0  0
  5  8  1  0  0  0
  2  1  1  0  0  0
  9  8  1  0  0  0
  9 13  2  0  0  0
  9 10  1  0  0  0
 13 12  1  0  0  0
 10 11  1  0  0  0
 12 11  2  0  0  0
M  CHG 1  10  -1
M  END
> <minimizedAffinity>
-5.56847

$$$$
5FNG_YIE_A_1263


 13 14  0  0  0  0  0  0  0  0999 V2000
   -1.8252    4.4535   11.4518 Cl  0  0  0  0  0  0  0  0  0  0  0  0
   -2.9999    4.2552   12.6868 C   0  0  0  0  0  0  0  0  0  0  0  0
   -2.7484    4.6599   13.9777 C   0  0  0  0  0  0  0  0  0  0  0  0
   -3.7053    4.4948   14.9360 C   0  0  0  0  0  0  0  0  0  0  0  0
   -4.9220    3.8907   14.6162 C   0  0  0  0  0  0  0  0  0  0  0  0
   -5.1517    3.4770   13.3221 C   0  0  0  0  0  0  0  0  0  0  0  0
   -4.1940    3.6633   12.3496 C   0  0  0  0  0  0  0  0  0  0  0  0
   -6.0215    3.6366   15.6395 C   0  0  0  0  0  0  0  0  0  0  0  0
   -5.7448    2.3772   16.3475 C   0  0  0  0  0  0  0  0  0  0  0  0
   -5.6750    2.4041   17.6675 N   0  0  0  0  0  0  0  0  0  0  0  0
   -5.3864    1.1243   18.0207 N   0  0  0  0  0  0  0  0  0  0  0  0
   -5.2655    0.3932   16.8933 N   0  0  0  0  0  0  0  0  0  0  0  0
   -5.4896    1.1810   15.8153 N   0  0  0  0  0  0  0  0  0  0  0  0
  6  7  2  0  0  0
  6  5  1  0  0  0
  4  3  1  0  0  0
  4  5  2  0  0  0
  7  2  1  0  0  0
  3  2  2  0  0  0
  5  8  1  0  0  0
  2  1  1  0  0  0
  9  8  1  0  0  0
  9 13  2  0  0  0
  9 10  1  0  0  0
 13 12  1  0  0  0
 10 11  1  0  0  0
 12 11  2  0  0  0
M  CHG 1  10  -1
M  END
> <minimizedAffinity>
-5.53908

$$$$
