2BQ7_IID_A_1001


 31 34  0  0  0  0  0  0  0  0999 V2000
    9.2791    2.8368   18.1912 C   0  0  0  0  0  0  0  0  0  0  0  0
    8.5111    4.0539   18.5246 C   0  0  0  0  0  0  0  0  0  0  0  0
    7.3327    3.9636   19.4183 C   0  0  0  0  0  0  0  0  0  0  0  0
    6.8988    2.6443   19.9621 C   0  0  0  0  0  0  0  0  0  0  0  0
    7.6916    1.4439   19.6411 C   0  0  0  0  0  0  0  0  0  0  0  0
    8.8807    1.5335   18.7652 C   0  0  0  0  0  0  0  0  0  0  0  0
    6.4292    4.9061   19.8953 N   0  0  0  0  0  0  0  0  0  0  0  0
    5.4963    4.2585   20.6322 C   0  0  0  0  0  0  0  0  0  0  0  0
    5.7282    2.8707   20.7094 C   0  0  0  0  0  0  0  0  0  0  0  0
    4.3947    4.8780   21.2028 C   0  0  0  0  0  0  0  0  0  0  0  0
    4.4299    5.0450   22.5381 N   0  0  0  0  0  0  0  0  0  0  0  0
    3.4446    5.2339   20.5050 O   0  0  0  0  0  0  0  0  0  0  0  0
    5.2212    4.8946   23.1042 H   0  0  0  0  0  0  0  0  0  0  0  0
    3.1386    5.4768   23.0201 C   0  0  0  0  0  0  0  0  0  0  0  0
    3.2986    6.4192   24.2127 C   0  0  0  0  0  0  0  0  0  0  0  0
    1.9636    6.9652   24.7262 C   0  0  0  0  0  0  0  0  0  0  0  0
    2.2526    4.3221   23.4811 C   0  0  0  0  0  0  0  0  0  0  0  0
    0.8818    4.7939   23.9919 C   0  0  0  0  0  0  0  0  0  0  0  0
    1.0389    5.8409   25.0637 N   0  0  0  0  0  0  0  0  0  0  0  0
   -0.3210    6.2757   25.4937 C   0  0  0  0  0  0  0  0  0  0  0  0
   -1.4765    5.6393   24.7364 C   0  0  0  0  0  0  0  0  0  0  0  0
   -0.4072    7.7865   25.3997 C   0  0  0  0  0  0  0  0  0  0  0  0
    6.4426    6.3664   19.5789 C   0  0  0  0  0  0  0  0  0  0  0  0
    7.2011    7.3385   20.5012 C   0  0  0  0  0  0  0  0  0  0  0  0
    7.8065    8.6286   20.0624 C   0  0  0  0  0  0  0  0  0  0  0  0
    8.4995    9.4676   21.0435 C   0  0  0  0  0  0  0  0  0  0  0  0
    8.5973    9.0407   22.4424 C   0  0  0  0  0  0  0  0  0  0  0  0
    7.9982    7.7859   22.8978 C   0  0  0  0  0  0  0  0  0  0  0  0
    7.3116    6.9310   21.9148 C   0  0  0  0  0  0  0  0  0  0  0  0
    8.0961    7.5566   24.2684 O   0  0  0  0  0  0  0  0  0  0  0  0
    8.9266    8.3369   25.1502 C   0  0  0  0  0  0  0  0  0  0  0  0
  1  2  2  0  0  0
  1  6  1  0  0  0
  2  3  1  0  0  0
  3  4  2  0  0  0
  3  7  1  0  0  0
  4  5  1  0  0  0
  4  9  1  0  0  0
  5  6  2  0  0  0
  7  8  1  0  0  0
  7 23  1  0  0  0
  8  9  2  0  0  0
  8 10  1  0  0  0
 10 11  1  0  0  0
 10 12  2  0  0  0
 11 14  1  0  0  0
 14 15  1  0  0  0
 14 17  1  0  0  0
 15 16  1  0  0  0
 23 24  1  0  0  0
 24 25  2  0  0  0
 24 29  1  0  0  0
 25 26  1  0  0  0
 26 27  2  0  0  0
 27 28  1  0  0  0
 28 29  2  0  0  0
 28 30  1  0  0  0
 16 19  1  0  0  0
 30 31  1  0  0  0
 17 18  1  0  0  0
 18 19  1  0  0  0
 19 20  1  0  0  0
 20 21  1  0  0  0
 20 22  1  0  0  0
 11 13  1  0  0  0
M  END
> <minimizedAffinity>
-8.33825

$$$$
2BQ7_IID_A_1001


 31 34  0  0  0  0  0  0  0  0999 V2000
    2.7882   10.0452   25.3641 C   0  0  0  0  0  0  0  0  0  0  0  0
    4.0153    9.2238   25.3170 C   0  0  0  0  0  0  0  0  0  0  0  0
    4.4362    8.5950   24.0430 C   0  0  0  0  0  0  0  0  0  0  0  0
    3.6119    8.7628   22.8115 C   0  0  0  0  0  0  0  0  0  0  0  0
    2.4051    9.6070   22.8693 C   0  0  0  0  0  0  0  0  0  0  0  0
    1.9927   10.2529   24.1351 C   0  0  0  0  0  0  0  0  0  0  0  0
    5.5087    7.7821   23.6952 N   0  0  0  0  0  0  0  0  0  0  0  0
    5.3681    7.4349   22.3943 C   0  0  0  0  0  0  0  0  0  0  0  0
    4.2246    8.0029   21.7980 C   0  0  0  0  0  0  0  0  0  0  0  0
    6.2200    6.5660   21.7293 C   0  0  0  0  0  0  0  0  0  0  0  0
    5.6818    5.8631   20.7151 N   0  0  0  0  0  0  0  0  0  0  0  0
    7.3960    6.4532   22.0764 O   0  0  0  0  0  0  0  0  0  0  0  0
    4.7904    6.0233   20.3291 H   0  0  0  0  0  0  0  0  0  0  0  0
    6.6014    4.8399   20.2752 C   0  0  0  0  0  0  0  0  0  0  0  0
    6.7558    4.8746   18.7550 C   0  0  0  0  0  0  0  0  0  0  0  0
    7.7723    3.8550   18.2342 C   0  0  0  0  0  0  0  0  0  0  0  0
    6.1514    3.4286   20.6448 C   0  0  0  0  0  0  0  0  0  0  0  0
    7.1376    2.3488   20.1713 C   0  0  0  0  0  0  0  0  0  0  0  0
    7.4110    2.4804   18.6957 N   0  0  0  0  0  0  0  0  0  0  0  0
    8.3928    1.4273   18.3076 C   0  0  0  0  0  0  0  0  0  0  0  0
    9.8325    1.8991   18.1730 C   0  0  0  0  0  0  0  0  0  0  0  0
    7.9348    0.7799   17.0153 C   0  0  0  0  0  0  0  0  0  0  0  0
    6.5822    7.3096   24.6210 C   0  0  0  0  0  0  0  0  0  0  0  0
    7.8912    8.1114   24.7415 C   0  0  0  0  0  0  0  0  0  0  0  0
    8.2466    9.2897   23.8997 C   0  0  0  0  0  0  0  0  0  0  0  0
    9.5255    9.9701   24.1191 C   0  0  0  0  0  0  0  0  0  0  0  0
   10.4465    9.4948   25.1558 C   0  0  0  0  0  0  0  0  0  0  0  0
   10.1119    8.3497   26.0029 C   0  0  0  0  0  0  0  0  0  0  0  0
    8.8342    7.6526   25.7793 C   0  0  0  0  0  0  0  0  0  0  0  0
   11.0438    8.0698   26.9998 O   0  0  0  0  0  0  0  0  0  0  0  0
   12.3893    7.6287   26.7327 C   0  0  0  0  0  0  0  0  0  0  0  0
  1  2  2  0  0  0
  1  6  1  0  0  0
  2  3  1  0  0  0
  3  4  2  0  0  0
  3  7  1  0  0  0
  4  5  1  0  0  0
  4  9  1  0  0  0
  5  6  2  0  0  0
  7  8  1  0  0  0
  7 23  1  0  0  0
  8  9  2  0  0  0
  8 10  1  0  0  0
 10 11  1  0  0  0
 10 12  2  0  0  0
 11 14  1  0  0  0
 14 15  1  0  0  0
 14 17  1  0  0  0
 15 16  1  0  0  0
 23 24  1  0  0  0
 24 25  2  0  0  0
 24 29  1  0  0  0
 25 26  1  0  0  0
 26 27  2  0  0  0
 27 28  1  0  0  0
 28 29  2  0  0  0
 28 30  1  0  0  0
 16 19  1  0  0  0
 30 31  1  0  0  0
 17 18  1  0  0  0
 18 19  1  0  0  0
 19 20  1  0  0  0
 20 21  1  0  0  0
 20 22  1  0  0  0
 11 13  1  0  0  0
M  END
> <minimizedAffinity>
-8.26626

$$$$
2BQ7_IID_A_1001


 31 34  0  0  0  0  0  0  0  0999 V2000
    7.8841    1.0334   17.4557 C   0  0  0  0  0  0  0  0  0  0  0  0
    6.6552    1.6370   18.0106 C   0  0  0  0  0  0  0  0  0  0  0  0
    6.7213    2.9442   18.7052 C   0  0  0  0  0  0  0  0  0  0  0  0
    8.0282    3.6428   18.8733 C   0  0  0  0  0  0  0  0  0  0  0  0
    9.2405    3.0398   18.2908 C   0  0  0  0  0  0  0  0  0  0  0  0
    9.1749    1.7444   17.5789 C   0  0  0  0  0  0  0  0  0  0  0  0
    5.7635    3.7397   19.3233 N   0  0  0  0  0  0  0  0  0  0  0  0
    6.3915    4.8112   19.8619 C   0  0  0  0  0  0  0  0  0  0  0  0
    7.7800    4.8083   19.6217 C   0  0  0  0  0  0  0  0  0  0  0  0
    5.7534    5.7805   20.6211 C   0  0  0  0  0  0  0  0  0  0  0  0
    5.8771    5.6684   21.9570 N   0  0  0  0  0  0  0  0  0  0  0  0
    5.1051    6.6756   20.0782 O   0  0  0  0  0  0  0  0  0  0  0  0
    6.4902    5.0500   22.4162 H   0  0  0  0  0  0  0  0  0  0  0  0
    4.9802    6.5868   22.6189 C   0  0  0  0  0  0  0  0  0  0  0  0
    5.7411    7.4472   23.6273 C   0  0  0  0  0  0  0  0  0  0  0  0
    4.8538    8.4891   24.3136 C   0  0  0  0  0  0  0  0  0  0  0  0
    3.8616    5.8862   23.3861 C   0  0  0  0  0  0  0  0  0  0  0  0
    2.9142    6.8735   24.0863 C   0  0  0  0  0  0  0  0  0  0  0  0
    3.6834    7.8258   24.9642 N   0  0  0  0  0  0  0  0  0  0  0  0
    2.7139    8.7713   25.5884 C   0  0  0  0  0  0  0  0  0  0  0  0
    1.2830    8.2647   25.6854 C   0  0  0  0  0  0  0  0  0  0  0  0
    2.7503   10.0845   24.8314 C   0  0  0  0  0  0  0  0  0  0  0  0
    4.3083    3.4214   19.4411 C   0  0  0  0  0  0  0  0  0  0  0  0
    3.8240    2.4724   20.5527 C   0  0  0  0  0  0  0  0  0  0  0  0
    4.4158    2.3918   21.9189 C   0  0  0  0  0  0  0  0  0  0  0  0
    3.8573    1.4468   22.8894 C   0  0  0  0  0  0  0  0  0  0  0  0
    2.7283    0.5884   22.5187 C   0  0  0  0  0  0  0  0  0  0  0  0
    2.1229    0.6610   21.1887 C   0  0  0  0  0  0  0  0  0  0  0  0
    2.6874    1.5989   20.2037 C   0  0  0  0  0  0  0  0  0  0  0  0
    1.0047   -0.1509   21.0119 O   0  0  0  0  0  0  0  0  0  0  0  0
    1.0795   -1.5430   20.6475 C   0  0  0  0  0  0  0  0  0  0  0  0
  1  2  2  0  0  0
  1  6  1  0  0  0
  2  3  1  0  0  0
  3  4  2  0  0  0
  3  7  1  0  0  0
  4  5  1  0  0  0
  4  9  1  0  0  0
  5  6  2  0  0  0
  7  8  1  0  0  0
  7 23  1  0  0  0
  8  9  2  0  0  0
  8 10  1  0  0  0
 10 11  1  0  0  0
 10 12  2  0  0  0
 11 14  1  0  0  0
 14 15  1  0  0  0
 14 17  1  0  0  0
 15 16  1  0  0  0
 23 24  1  0  0  0
 24 25  2  0  0  0
 24 29  1  0  0  0
 25 26  1  0  0  0
 26 27  2  0  0  0
 27 28  1  0  0  0
 28 29  2  0  0  0
 28 30  1  0  0  0
 16 19  1  0  0  0
 30 31  1  0  0  0
 17 18  1  0  0  0
 18 19  1  0  0  0
 19 20  1  0  0  0
 20 21  1  0  0  0
 20 22  1  0  0  0
 11 13  1  0  0  0
M  END
> <minimizedAffinity>
-8.10323

$$$$
2BQ7_IID_A_1001


 31 34  0  0  0  0  0  0  0  0999 V2000
    3.2810    7.7036   16.3866 C   0  0  0  0  0  0  0  0  0  0  0  0
    4.5168    7.1896   17.0120 C   0  0  0  0  0  0  0  0  0  0  0  0
    4.7225    7.3344   18.4723 C   0  0  0  0  0  0  0  0  0  0  0  0
    3.7005    8.0228   19.3125 C   0  0  0  0  0  0  0  0  0  0  0  0
    2.4615    8.5062   18.6772 C   0  0  0  0  0  0  0  0  0  0  0  0
    2.2437    8.3453   17.2226 C   0  0  0  0  0  0  0  0  0  0  0  0
    5.7575    6.9695   19.3254 N   0  0  0  0  0  0  0  0  0  0  0  0
    5.4516    7.4088   20.5688 C   0  0  0  0  0  0  0  0  0  0  0  0
    4.2050    8.0633   20.6255 C   0  0  0  0  0  0  0  0  0  0  0  0
    6.2957    7.2852   21.6621 C   0  0  0  0  0  0  0  0  0  0  0  0
    6.7483    8.4340   22.1986 N   0  0  0  0  0  0  0  0  0  0  0  0
    6.6084    6.1738   22.0899 O   0  0  0  0  0  0  0  0  0  0  0  0
    6.4176    9.3322   21.9682 H   0  0  0  0  0  0  0  0  0  0  0  0
    7.7891    8.1579   23.1611 C   0  0  0  0  0  0  0  0  0  0  0  0
    7.2151    8.1232   24.5773 C   0  0  0  0  0  0  0  0  0  0  0  0
    8.2608    7.7671   25.6373 C   0  0  0  0  0  0  0  0  0  0  0  0
    8.9028    9.2022   23.1578 C   0  0  0  0  0  0  0  0  0  0  0  0
   10.0041    8.8979   24.1861 C   0  0  0  0  0  0  0  0  0  0  0  0
    9.4182    8.7092   25.5610 N   0  0  0  0  0  0  0  0  0  0  0  0
   10.5301    8.3893   26.5018 C   0  0  0  0  0  0  0  0  0  0  0  0
   11.9158    8.3389   25.8768 C   0  0  0  0  0  0  0  0  0  0  0  0
   10.2248    7.0764   27.1961 C   0  0  0  0  0  0  0  0  0  0  0  0
    7.0224    6.2849   18.9203 C   0  0  0  0  0  0  0  0  0  0  0  0
    7.1036    4.7478   18.9624 C   0  0  0  0  0  0  0  0  0  0  0  0
    5.9642    3.8455   19.2953 C   0  0  0  0  0  0  0  0  0  0  0  0
    6.1724    2.3952   19.2953 C   0  0  0  0  0  0  0  0  0  0  0  0
    7.4893    1.8382   18.9723 C   0  0  0  0  0  0  0  0  0  0  0  0
    8.6174    2.7043   18.6286 C   0  0  0  0  0  0  0  0  0  0  0  0
    8.4192    4.1634   18.6395 C   0  0  0  0  0  0  0  0  0  0  0  0
    9.7793    2.0298   18.2602 O   0  0  0  0  0  0  0  0  0  0  0  0
    9.8991    0.5939   18.2512 C   0  0  0  0  0  0  0  0  0  0  0  0
  1  2  2  0  0  0
  1  6  1  0  0  0
  2  3  1  0  0  0
  3  4  2  0  0  0
  3  7  1  0  0  0
  4  5  1  0  0  0
  4  9  1  0  0  0
  5  6  2  0  0  0
  7  8  1  0  0  0
  7 23  1  0  0  0
  8  9  2  0  0  0
  8 10  1  0  0  0
 10 11  1  0  0  0
 10 12  2  0  0  0
 11 14  1  0  0  0
 14 15  1  0  0  0
 14 17  1  0  0  0
 15 16  1  0  0  0
 23 24  1  0  0  0
 24 25  2  0  0  0
 24 29  1  0  0  0
 25 26  1  0  0  0
 26 27  2  0  0  0
 27 28  1  0  0  0
 28 29  2  0  0  0
 28 30  1  0  0  0
 16 19  1  0  0  0
 30 31  1  0  0  0
 17 18  1  0  0  0
 18 19  1  0  0  0
 19 20  1  0  0  0
 20 21  1  0  0  0
 20 22  1  0  0  0
 11 13  1  0  0  0
M  END
> <minimizedAffinity>
-7.88914

$$$$
2BQ7_IID_A_1001


 31 34  0  0  0  0  0  0  0  0999 V2000
    2.5876    8.4498   17.8051 C   0  0  0  0  0  0  0  0  0  0  0  0
    2.8551    7.9851   19.1817 C   0  0  0  0  0  0  0  0  0  0  0  0
    4.2250    8.0740   19.7395 C   0  0  0  0  0  0  0  0  0  0  0  0
    5.3440    8.6046   18.9084 C   0  0  0  0  0  0  0  0  0  0  0  0
    5.0550    9.0885   17.5465 C   0  0  0  0  0  0  0  0  0  0  0  0
    3.6843    9.0199   16.9934 C   0  0  0  0  0  0  0  0  0  0  0  0
    4.7749    7.7192   20.9658 N   0  0  0  0  0  0  0  0  0  0  0  0
    6.1062    7.9594   20.9145 C   0  0  0  0  0  0  0  0  0  0  0  0
    6.5163    8.5007   19.6798 C   0  0  0  0  0  0  0  0  0  0  0  0
    6.9875    7.6526   21.9403 C   0  0  0  0  0  0  0  0  0  0  0  0
    7.2239    8.6300   22.8354 N   0  0  0  0  0  0  0  0  0  0  0  0
    7.5205    6.5441   21.9980 O   0  0  0  0  0  0  0  0  0  0  0  0
    6.7199    9.4736   22.8949 H   0  0  0  0  0  0  0  0  0  0  0  0
    8.3241    8.2618   23.6957 C   0  0  0  0  0  0  0  0  0  0  0  0
    7.8489    8.1126   25.1406 C   0  0  0  0  0  0  0  0  0  0  0  0
    8.9593    7.6563   26.0908 C   0  0  0  0  0  0  0  0  0  0  0  0
    9.4520    9.2907   23.7021 C   0  0  0  0  0  0  0  0  0  0  0  0
   10.6165    8.8882   24.6211 C   0  0  0  0  0  0  0  0  0  0  0  0
   10.1240    8.5892   26.0131 N   0  0  0  0  0  0  0  0  0  0  0  0
   11.2928    8.1785   26.8430 C   0  0  0  0  0  0  0  0  0  0  0  0
   12.5966    7.9922   26.0822 C   0  0  0  0  0  0  0  0  0  0  0  0
   10.9420    6.9080   27.5924 C   0  0  0  0  0  0  0  0  0  0  0  0
    4.0352    7.1035   22.1088 C   0  0  0  0  0  0  0  0  0  0  0  0
    3.5902    7.9843   23.2909 C   0  0  0  0  0  0  0  0  0  0  0  0
    4.1133    7.8670   24.6822 C   0  0  0  0  0  0  0  0  0  0  0  0
    3.6096    8.7724   25.7181 C   0  0  0  0  0  0  0  0  0  0  0  0
    2.5998    9.7827   25.3884 C   0  0  0  0  0  0  0  0  0  0  0  0
    2.0832    9.9250   24.0270 C   0  0  0  0  0  0  0  0  0  0  0  0
    2.5750    9.0097   22.9834 C   0  0  0  0  0  0  0  0  0  0  0  0
    1.1954   10.9835   23.8478 O   0  0  0  0  0  0  0  0  0  0  0  0
   -0.2012   10.8095   23.5389 C   0  0  0  0  0  0  0  0  0  0  0  0
  1  2  2  0  0  0
  1  6  1  0  0  0
  2  3  1  0  0  0
  3  4  2  0  0  0
  3  7  1  0  0  0
  4  5  1  0  0  0
  4  9  1  0  0  0
  5  6  2  0  0  0
  7  8  1  0  0  0
  7 23  1  0  0  0
  8  9  2  0  0  0
  8 10  1  0  0  0
 10 11  1  0  0  0
 10 12  2  0  0  0
 11 14  1  0  0  0
 14 15  1  0  0  0
 14 17  1  0  0  0
 15 16  1  0  0  0
 23 24  1  0  0  0
 24 25  2  0  0  0
 24 29  1  0  0  0
 25 26  1  0  0  0
 26 27  2  0  0  0
 27 28  1  0  0  0
 28 29  2  0  0  0
 28 30  1  0  0  0
 16 19  1  0  0  0
 30 31  1  0  0  0
 17 18  1  0  0  0
 18 19  1  0  0  0
 19 20  1  0  0  0
 20 21  1  0  0  0
 20 22  1  0  0  0
 11 13  1  0  0  0
M  END
> <minimizedAffinity>
-7.64572

$$$$
2BQ7_IID_A_1001


 31 34  0  0  0  0  0  0  0  0999 V2000
    8.9619    2.0405   18.6255 C   0  0  0  0  0  0  0  0  0  0  0  0
    8.1547    3.0635   19.3215 C   0  0  0  0  0  0  0  0  0  0  0  0
    7.2532    3.9480   18.5465 C   0  0  0  0  0  0  0  0  0  0  0  0
    7.1764    3.8310   17.0617 C   0  0  0  0  0  0  0  0  0  0  0  0
    7.9682    2.7877   16.3856 C   0  0  0  0  0  0  0  0  0  0  0  0
    8.8543    1.8894   17.1584 C   0  0  0  0  0  0  0  0  0  0  0  0
    6.3979    4.9824   18.9080 N   0  0  0  0  0  0  0  0  0  0  0  0
    5.8607    5.4978   17.7773 C   0  0  0  0  0  0  0  0  0  0  0  0
    6.2998    4.8362   16.6132 C   0  0  0  0  0  0  0  0  0  0  0  0
    5.0155    6.5969   17.7540 C   0  0  0  0  0  0  0  0  0  0  0  0
    5.5932    7.7880   17.5092 N   0  0  0  0  0  0  0  0  0  0  0  0
    3.8091    6.4643   17.9621 O   0  0  0  0  0  0  0  0  0  0  0  0
    6.5230    7.9126   17.2105 H   0  0  0  0  0  0  0  0  0  0  0  0
    4.6514    8.8567   17.7482 C   0  0  0  0  0  0  0  0  0  0  0  0
    4.8684    9.9959   16.7526 C   0  0  0  0  0  0  0  0  0  0  0  0
    3.8535   11.1310   16.9129 C   0  0  0  0  0  0  0  0  0  0  0  0
    4.7684    9.4590   19.1462 C   0  0  0  0  0  0  0  0  0  0  0  0
    3.7617   10.5951   19.3884 C   0  0  0  0  0  0  0  0  0  0  0  0
    3.8697   11.6468   18.3153 N   0  0  0  0  0  0  0  0  0  0  0  0
    2.8513   12.7006   18.5909 C   0  0  0  0  0  0  0  0  0  0  0  0
    2.9309   13.3360   19.9706 C   0  0  0  0  0  0  0  0  0  0  0  0
    1.4690   12.1201   18.3647 C   0  0  0  0  0  0  0  0  0  0  0  0
    6.1769    5.4874   20.2969 C   0  0  0  0  0  0  0  0  0  0  0  0
    7.0134    6.6698   20.8193 C   0  0  0  0  0  0  0  0  0  0  0  0
    7.9053    7.5176   19.9772 C   0  0  0  0  0  0  0  0  0  0  0  0
    8.6455    8.6192   20.5978 C   0  0  0  0  0  0  0  0  0  0  0  0
    8.5107    8.8833   22.0334 C   0  0  0  0  0  0  0  0  0  0  0  0
    7.6303    8.0733   22.8758 C   0  0  0  0  0  0  0  0  0  0  0  0
    6.8934    6.9560   22.2617 C   0  0  0  0  0  0  0  0  0  0  0  0
    7.5378    8.4972   24.1996 O   0  0  0  0  0  0  0  0  0  0  0  0
    8.3706    7.9888   25.2598 C   0  0  0  0  0  0  0  0  0  0  0  0
  1  2  2  0  0  0
  1  6  1  0  0  0
  2  3  1  0  0  0
  3  4  2  0  0  0
  3  7  1  0  0  0
  4  5  1  0  0  0
  4  9  1  0  0  0
  5  6  2  0  0  0
  7  8  1  0  0  0
  7 23  1  0  0  0
  8  9  2  0  0  0
  8 10  1  0  0  0
 10 11  1  0  0  0
 10 12  2  0  0  0
 11 14  1  0  0  0
 14 15  1  0  0  0
 14 17  1  0  0  0
 15 16  1  0  0  0
 23 24  1  0  0  0
 24 25  2  0  0  0
 24 29  1  0  0  0
 25 26  1  0  0  0
 26 27  2  0  0  0
 27 28  1  0  0  0
 28 29  2  0  0  0
 28 30  1  0  0  0
 16 19  1  0  0  0
 30 31  1  0  0  0
 17 18  1  0  0  0
 18 19  1  0  0  0
 19 20  1  0  0  0
 20 21  1  0  0  0
 20 22  1  0  0  0
 11 13  1  0  0  0
M  END
> <minimizedAffinity>
-7.49994

$$$$
2BQ7_IID_A_1001


 31 34  0  0  0  0  0  0  0  0999 V2000
    2.4457   10.3646   24.6692 C   0  0  0  0  0  0  0  0  0  0  0  0
    2.6065    9.8032   23.3122 C   0  0  0  0  0  0  0  0  0  0  0  0
    3.1993    8.4569   23.1339 C   0  0  0  0  0  0  0  0  0  0  0  0
    3.6618    7.6747   24.3165 C   0  0  0  0  0  0  0  0  0  0  0  0
    3.4699    8.2380   25.6649 C   0  0  0  0  0  0  0  0  0  0  0  0
    2.8599    9.5736   25.8480 C   0  0  0  0  0  0  0  0  0  0  0  0
    3.4800    7.6848   22.0127 N   0  0  0  0  0  0  0  0  0  0  0  0
    4.0902    6.5494   22.4266 C   0  0  0  0  0  0  0  0  0  0  0  0
    4.2319    6.4849   23.8271 C   0  0  0  0  0  0  0  0  0  0  0  0
    4.5800    5.5773   21.5674 C   0  0  0  0  0  0  0  0  0  0  0  0
    5.9059    5.3500   21.6184 N   0  0  0  0  0  0  0  0  0  0  0  0
    3.8239    4.9797   20.8011 O   0  0  0  0  0  0  0  0  0  0  0  0
    6.5135    5.7106   22.3040 H   0  0  0  0  0  0  0  0  0  0  0  0
    6.3080    4.5004   20.5218 C   0  0  0  0  0  0  0  0  0  0  0  0
    6.8199    3.1578   21.0428 C   0  0  0  0  0  0  0  0  0  0  0  0
    7.1984    2.1866   19.9214 C   0  0  0  0  0  0  0  0  0  0  0  0
    7.4245    5.1033   19.6728 C   0  0  0  0  0  0  0  0  0  0  0  0
    7.8439    4.1902   18.5096 C   0  0  0  0  0  0  0  0  0  0  0  0
    8.2011    2.8143   19.0083 N   0  0  0  0  0  0  0  0  0  0  0  0
    8.5687    1.9732   17.8331 C   0  0  0  0  0  0  0  0  0  0  0  0
    7.4466    1.1117   17.2742 C   0  0  0  0  0  0  0  0  0  0  0  0
    9.7563    1.1056   18.2013 C   0  0  0  0  0  0  0  0  0  0  0  0
    3.2255    8.0803   20.5944 C   0  0  0  0  0  0  0  0  0  0  0  0
    4.2443    8.9688   19.8571 C   0  0  0  0  0  0  0  0  0  0  0  0
    3.9067   10.2278   19.1330 C   0  0  0  0  0  0  0  0  0  0  0  0
    4.9733   10.9862   18.4745 C   0  0  0  0  0  0  0  0  0  0  0  0
    6.3587   10.5098   18.5267 C   0  0  0  0  0  0  0  0  0  0  0  0
    6.7147    9.2850   19.2437 C   0  0  0  0  0  0  0  0  0  0  0  0
    5.6460    8.5103   19.8966 C   0  0  0  0  0  0  0  0  0  0  0  0
    8.0792    9.0065   19.2804 O   0  0  0  0  0  0  0  0  0  0  0  0
    8.8134    8.7749   20.4984 C   0  0  0  0  0  0  0  0  0  0  0  0
  1  2  2  0  0  0
  1  6  1  0  0  0
  2  3  1  0  0  0
  3  4  2  0  0  0
  3  7  1  0  0  0
  4  5  1  0  0  0
  4  9  1  0  0  0
  5  6  2  0  0  0
  7  8  1  0  0  0
  7 23  1  0  0  0
  8  9  2  0  0  0
  8 10  1  0  0  0
 10 11  1  0  0  0
 10 12  2  0  0  0
 11 14  1  0  0  0
 14 15  1  0  0  0
 14 17  1  0  0  0
 15 16  1  0  0  0
 23 24  1  0  0  0
 24 25  2  0  0  0
 24 29  1  0  0  0
 25 26  1  0  0  0
 26 27  2  0  0  0
 27 28  1  0  0  0
 28 29  2  0  0  0
 28 30  1  0  0  0
 16 19  1  0  0  0
 30 31  1  0  0  0
 17 18  1  0  0  0
 18 19  1  0  0  0
 19 20  1  0  0  0
 20 21  1  0  0  0
 20 22  1  0  0  0
 11 13  1  0  0  0
M  END
> <minimizedAffinity>
-7.45144

$$$$
2BQ7_IID_A_1001


 31 34  0  0  0  0  0  0  0  0999 V2000
    8.7123    2.1449   18.9327 C   0  0  0  0  0  0  0  0  0  0  0  0
    7.8085    3.2518   19.3072 C   0  0  0  0  0  0  0  0  0  0  0  0
    7.0873    4.0064   18.2554 C   0  0  0  0  0  0  0  0  0  0  0  0
    7.2904    3.6734   16.8159 C   0  0  0  0  0  0  0  0  0  0  0  0
    8.1750    2.5492   16.4607 C   0  0  0  0  0  0  0  0  0  0  0  0
    8.8810    1.7805   17.5095 C   0  0  0  0  0  0  0  0  0  0  0  0
    6.1997    5.0753   18.2942 N   0  0  0  0  0  0  0  0  0  0  0  0
    5.8963    5.4159   17.0196 C   0  0  0  0  0  0  0  0  0  0  0  0
    6.5344    4.5952   16.0684 C   0  0  0  0  0  0  0  0  0  0  0  0
    5.0926    6.4929   16.6774 C   0  0  0  0  0  0  0  0  0  0  0  0
    3.8083    6.2105   16.3891 N   0  0  0  0  0  0  0  0  0  0  0  0
    5.5568    7.6326   16.6344 O   0  0  0  0  0  0  0  0  0  0  0  0
    3.3752    5.3393   16.5403 H   0  0  0  0  0  0  0  0  0  0  0  0
    3.1576    7.3705   15.8261 C   0  0  0  0  0  0  0  0  0  0  0  0
    1.8273    7.6347   16.5309 C   0  0  0  0  0  0  0  0  0  0  0  0
    1.1214    8.8944   16.0222 C   0  0  0  0  0  0  0  0  0  0  0  0
    2.8513    7.2241   14.3376 C   0  0  0  0  0  0  0  0  0  0  0  0
    2.1588    8.4643   13.7500 C   0  0  0  0  0  0  0  0  0  0  0  0
    0.9275    8.8184   14.5424 N   0  0  0  0  0  0  0  0  0  0  0  0
    0.3219   10.0413   13.9415 C   0  0  0  0  0  0  0  0  0  0  0  0
    0.4798   11.3138   14.7596 C   0  0  0  0  0  0  0  0  0  0  0  0
   -1.1458    9.7791   13.6659 C   0  0  0  0  0  0  0  0  0  0  0  0
    5.7301    5.7757   19.5279 C   0  0  0  0  0  0  0  0  0  0  0  0
    6.6526    6.7935   20.2236 C   0  0  0  0  0  0  0  0  0  0  0  0
    7.2938    7.9587   19.5495 C   0  0  0  0  0  0  0  0  0  0  0  0
    8.1486    8.8584   20.3283 C   0  0  0  0  0  0  0  0  0  0  0  0
    8.3716    8.6131   21.7563 C   0  0  0  0  0  0  0  0  0  0  0  0
    7.7410    7.4843   22.4411 C   0  0  0  0  0  0  0  0  0  0  0  0
    6.8912    6.5682   21.6620 C   0  0  0  0  0  0  0  0  0  0  0  0
    7.9748    7.4304   23.8134 O   0  0  0  0  0  0  0  0  0  0  0  0
    7.6555    8.5043   24.7195 C   0  0  0  0  0  0  0  0  0  0  0  0
  1  2  2  0  0  0
  1  6  1  0  0  0
  2  3  1  0  0  0
  3  4  2  0  0  0
  3  7  1  0  0  0
  4  5  1  0  0  0
  4  9  1  0  0  0
  5  6  2  0  0  0
  7  8  1  0  0  0
  7 23  1  0  0  0
  8  9  2  0  0  0
  8 10  1  0  0  0
 10 11  1  0  0  0
 10 12  2  0  0  0
 11 14  1  0  0  0
 14 15  1  0  0  0
 14 17  1  0  0  0
 15 16  1  0  0  0
 23 24  1  0  0  0
 24 25  2  0  0  0
 24 29  1  0  0  0
 25 26  1  0  0  0
 26 27  2  0  0  0
 27 28  1  0  0  0
 28 29  2  0  0  0
 28 30  1  0  0  0
 16 19  1  0  0  0
 30 31  1  0  0  0
 17 18  1  0  0  0
 18 19  1  0  0  0
 19 20  1  0  0  0
 20 21  1  0  0  0
 20 22  1  0  0  0
 11 13  1  0  0  0
M  END
> <minimizedAffinity>
-6.88221

$$$$
2BQ7_IID_A_1001


 31 34  0  0  0  0  0  0  0  0999 V2000
    8.4279    7.8898   25.6103 C   0  0  0  0  0  0  0  0  0  0  0  0
    7.4288    7.5240   24.5853 C   0  0  0  0  0  0  0  0  0  0  0  0
    7.5734    8.0261   23.1987 C   0  0  0  0  0  0  0  0  0  0  0  0
    8.7081    8.9238   22.8370 C   0  0  0  0  0  0  0  0  0  0  0  0
    9.7105    9.2576   23.8647 C   0  0  0  0  0  0  0  0  0  0  0  0
    9.5803    8.7416   25.2454 C   0  0  0  0  0  0  0  0  0  0  0  0
    6.8113    7.8658   22.0474 N   0  0  0  0  0  0  0  0  0  0  0  0
    7.3729    8.6090   21.0650 C   0  0  0  0  0  0  0  0  0  0  0  0
    8.5369    9.2820   21.4870 C   0  0  0  0  0  0  0  0  0  0  0  0
    6.8336    8.7464   19.7949 C   0  0  0  0  0  0  0  0  0  0  0  0
    6.0264    9.8062   19.6014 N   0  0  0  0  0  0  0  0  0  0  0  0
    7.0852    7.9227   18.9148 O   0  0  0  0  0  0  0  0  0  0  0  0
    5.9101   10.5494   20.2366 H   0  0  0  0  0  0  0  0  0  0  0  0
    5.3555    9.6951   18.3272 C   0  0  0  0  0  0  0  0  0  0  0  0
    5.4024   11.0265   17.5781 C   0  0  0  0  0  0  0  0  0  0  0  0
    4.7650   10.9529   16.1880 C   0  0  0  0  0  0  0  0  0  0  0  0
    3.8842    9.3077   18.4547 C   0  0  0  0  0  0  0  0  0  0  0  0
    3.1812    9.1930   17.0926 C   0  0  0  0  0  0  0  0  0  0  0  0
    3.3601   10.4537   16.2876 N   0  0  0  0  0  0  0  0  0  0  0  0
    2.6828   10.2671   14.9723 C   0  0  0  0  0  0  0  0  0  0  0  0
    3.4245   10.8370   13.7729 C   0  0  0  0  0  0  0  0  0  0  0  0
    1.2879   10.8563   15.0490 C   0  0  0  0  0  0  0  0  0  0  0  0
    5.5474    7.0760   21.9400 C   0  0  0  0  0  0  0  0  0  0  0  0
    5.6126    5.5796   21.5829 C   0  0  0  0  0  0  0  0  0  0  0  0
    4.5502    4.5829   21.9011 C   0  0  0  0  0  0  0  0  0  0  0  0
    4.7326    3.1855   21.5004 C   0  0  0  0  0  0  0  0  0  0  0  0
    5.9493    2.7724   20.7947 C   0  0  0  0  0  0  0  0  0  0  0  0
    6.9979    3.7362   20.4595 C   0  0  0  0  0  0  0  0  0  0  0  0
    6.8276    5.1399   20.8708 C   0  0  0  0  0  0  0  0  0  0  0  0
    8.0519    3.2149   19.7125 O   0  0  0  0  0  0  0  0  0  0  0  0
    8.4269    3.7067   18.4111 C   0  0  0  0  0  0  0  0  0  0  0  0
  1  2  2  0  0  0
  1  6  1  0  0  0
  2  3  1  0  0  0
  3  4  2  0  0  0
  3  7  1  0  0  0
  4  5  1  0  0  0
  4  9  1  0  0  0
  5  6  2  0  0  0
  7  8  1  0  0  0
  7 23  1  0  0  0
  8  9  2  0  0  0
  8 10  1  0  0  0
 10 11  1  0  0  0
 10 12  2  0  0  0
 11 14  1  0  0  0
 14 15  1  0  0  0
 14 17  1  0  0  0
 15 16  1  0  0  0
 23 24  1  0  0  0
 24 25  2  0  0  0
 24 29  1  0  0  0
 25 26  1  0  0  0
 26 27  2  0  0  0
 27 28  1  0  0  0
 28 29  2  0  0  0
 28 30  1  0  0  0
 16 19  1  0  0  0
 30 31  1  0  0  0
 17 18  1  0  0  0
 18 19  1  0  0  0
 19 20  1  0  0  0
 20 21  1  0  0  0
 20 22  1  0  0  0
 11 13  1  0  0  0
M  END
> <minimizedAffinity>
-6.77751

$$$$
2BQ7_IID_A_1001


 31 34  0  0  0  0  0  0  0  0999 V2000
    9.1633    1.8680   18.1967 C   0  0  0  0  0  0  0  0  0  0  0  0
    8.4079    2.8638   18.9842 C   0  0  0  0  0  0  0  0  0  0  0  0
    7.4335    3.7544   18.3111 C   0  0  0  0  0  0  0  0  0  0  0  0
    7.2307    3.6712   16.8359 C   0  0  0  0  0  0  0  0  0  0  0  0
    7.9728    2.6544   16.0691 C   0  0  0  0  0  0  0  0  0  0  0  0
    8.9318    1.7499   16.7410 C   0  0  0  0  0  0  0  0  0  0  0  0
    6.6011    4.7688   18.7697 N   0  0  0  0  0  0  0  0  0  0  0  0
    5.9632    5.3036   17.7021 C   0  0  0  0  0  0  0  0  0  0  0  0
    6.3078    4.6752   16.4888 C   0  0  0  0  0  0  0  0  0  0  0  0
    5.1071    6.3919   17.7782 C   0  0  0  0  0  0  0  0  0  0  0  0
    5.5925    7.5646   17.3293 N   0  0  0  0  0  0  0  0  0  0  0  0
    3.9754    6.2674   18.2470 O   0  0  0  0  0  0  0  0  0  0  0  0
    6.4350    7.6722   16.8315 H   0  0  0  0  0  0  0  0  0  0  0  0
    4.6982    8.6420   17.6837 C   0  0  0  0  0  0  0  0  0  0  0  0
    4.1508    9.3201   16.4281 C   0  0  0  0  0  0  0  0  0  0  0  0
    3.1421   10.4290   16.7394 C   0  0  0  0  0  0  0  0  0  0  0  0
    5.3690    9.7289   18.5201 C   0  0  0  0  0  0  0  0  0  0  0  0
    4.4078   10.8698   18.8906 C   0  0  0  0  0  0  0  0  0  0  0  0
    3.7479   11.4373   17.6610 N   0  0  0  0  0  0  0  0  0  0  0  0
    2.8105   12.5146   18.0900 C   0  0  0  0  0  0  0  0  0  0  0  0
    3.3107   13.3983   19.2224 C   0  0  0  0  0  0  0  0  0  0  0  0
    1.4816   11.8893   18.4667 C   0  0  0  0  0  0  0  0  0  0  0  0
    6.4948    5.2382   20.1843 C   0  0  0  0  0  0  0  0  0  0  0  0
    5.5823    4.4853   21.1699 C   0  0  0  0  0  0  0  0  0  0  0  0
    5.4571    3.0016   21.2483 C   0  0  0  0  0  0  0  0  0  0  0  0
    4.5542    2.4078   22.2377 C   0  0  0  0  0  0  0  0  0  0  0  0
    3.7808    3.2658   23.1403 C   0  0  0  0  0  0  0  0  0  0  0  0
    3.8989    4.7233   23.0906 C   0  0  0  0  0  0  0  0  0  0  0  0
    4.7943    5.3277   22.0898 C   0  0  0  0  0  0  0  0  0  0  0  0
    3.1709    5.4009   24.0660 O   0  0  0  0  0  0  0  0  0  0  0  0
    3.2677    6.8209   24.2907 C   0  0  0  0  0  0  0  0  0  0  0  0
  1  2  2  0  0  0
  1  6  1  0  0  0
  2  3  1  0  0  0
  3  4  2  0  0  0
  3  7  1  0  0  0
  4  5  1  0  0  0
  4  9  1  0  0  0
  5  6  2  0  0  0
  7  8  1  0  0  0
  7 23  1  0  0  0
  8  9  2  0  0  0
  8 10  1  0  0  0
 10 11  1  0  0  0
 10 12  2  0  0  0
 11 14  1  0  0  0
 14 15  1  0  0  0
 14 17  1  0  0  0
 15 16  1  0  0  0
 23 24  1  0  0  0
 24 25  2  0  0  0
 24 29  1  0  0  0
 25 26  1  0  0  0
 26 27  2  0  0  0
 27 28  1  0  0  0
 28 29  2  0  0  0
 28 30  1  0  0  0
 16 19  1  0  0  0
 30 31  1  0  0  0
 17 18  1  0  0  0
 18 19  1  0  0  0
 19 20  1  0  0  0
 20 21  1  0  0  0
 20 22  1  0  0  0
 11 13  1  0  0  0
M  END
> <minimizedAffinity>
-6.74815

$$$$
