4NBL_2J6_A_401


 24 26  0  0  0  0  0  0  0  0999 V2000
   28.7642   26.7480   -6.7044 C   0  0  0  0  0  0  0  0  0  0  0  0
   29.4470   24.5032   -7.2055 C   0  0  0  0  0  0  0  0  0  0  0  0
   29.8140   24.8889   -8.4261 N   0  0  0  0  0  0  0  0  0  0  0  0
   29.6841   26.1372   -8.8350 C   0  0  0  0  0  0  0  0  0  0  0  0
   29.1559   27.0995   -7.9872 C   0  0  0  0  0  0  0  0  0  0  0  0
   28.9003   25.4177   -6.2966 C   0  0  0  0  0  0  0  0  0  0  0  0
   28.5077   24.9851   -4.9314 C   0  0  0  0  0  0  0  0  0  0  0  0
   28.1726   23.7168   -4.7087 N   0  0  0  0  0  0  0  0  0  0  0  0
   27.8177   23.3085   -3.4962 C   0  0  0  0  0  0  0  0  0  0  0  0
   27.7977   24.2151   -2.4495 C   0  0  0  0  0  0  0  0  0  0  0  0
   28.1501   25.5338   -2.7132 C   0  0  0  0  0  0  0  0  0  0  0  0
   28.4956   25.8845   -3.9473 N   0  0  0  0  0  0  0  0  0  0  0  0
   29.5843   23.1834   -6.8096 N   0  0  0  0  0  0  0  0  0  0  0  0
   28.9676   22.8110   -6.1386 H   0  0  0  0  0  0  0  0  0  0  0  0
   30.6338   22.3350   -7.3753 C   0  0  0  0  0  0  0  0  0  0  0  0
   31.4250   21.6192   -6.3227 C   0  0  0  0  0  0  0  0  0  0  0  0
   30.8337   21.3466   -5.1055 C   0  0  0  0  0  0  0  0  0  0  0  0
   31.5496   20.6692   -4.1439 C   0  0  0  0  0  0  0  0  0  0  0  0
   32.8512   20.2750   -4.3966 C   0  0  0  0  0  0  0  0  0  0  0  0
   33.4587   20.5376   -5.6177 C   0  0  0  0  0  0  0  0  0  0  0  0
   32.7324   21.2205   -6.5889 C   0  0  0  0  0  0  0  0  0  0  0  0
   33.2966   21.5017   -7.7976 O   0  0  0  0  0  0  0  0  0  0  0  0
   33.5222   19.6121   -3.4415 F   0  0  0  0  0  0  0  0  0  0  0  0
   34.1763   21.2339   -7.9777 H   0  0  0  0  0  0  0  0  0  0  0  0
  4  5  2  0  0  0
  4  3  1  0  0  0
  5  1  1  0  0  0
 22 21  1  0  0  0
  3  2  2  0  0  0
 21 20  2  0  0  0
 21 16  1  0  0  0
 20 19  1  0  0  0
  1  6  2  0  0  0
  2  6  1  0  0  0
  2 13  1  0  0  0
 15 16  1  0  0  0
 15 13  1  0  0  0
  6  7  1  0  0  0
 16 17  2  0  0  0
 19 23  1  0  0  0
 19 18  2  0  0  0
 17 18  1  0  0  0
  7 12  2  0  0  0
  7  8  1  0  0  0
 12 11  1  0  0  0
  8  9  2  0  0  0
 11 10  2  0  0  0
  9 10  1  0  0  0
 13 14  1  0  0  0
 22 24  1  0  0  0
M  END
> <minimizedAffinity>
-9.64850

$$$$
4NBL_2J6_A_401


 24 26  0  0  0  0  0  0  0  0999 V2000
   30.7258   20.7711   -2.8630 C   0  0  0  0  0  0  0  0  0  0  0  0
   30.0854   21.6062   -5.0192 C   0  0  0  0  0  0  0  0  0  0  0  0
   31.2624   21.2275   -5.5138 N   0  0  0  0  0  0  0  0  0  0  0  0
   32.1809   20.6435   -4.7669 C   0  0  0  0  0  0  0  0  0  0  0  0
   31.9387   20.4002   -3.4231 C   0  0  0  0  0  0  0  0  0  0  0  0
   29.7722   21.3986   -3.6701 C   0  0  0  0  0  0  0  0  0  0  0  0
   28.4520   21.8086   -3.1279 C   0  0  0  0  0  0  0  0  0  0  0  0
   27.4848   20.9059   -2.9852 N   0  0  0  0  0  0  0  0  0  0  0  0
   26.2966   21.2507   -2.5032 C   0  0  0  0  0  0  0  0  0  0  0  0
   26.0621   22.5671   -2.1429 C   0  0  0  0  0  0  0  0  0  0  0  0
   27.0907   23.4880   -2.3060 C   0  0  0  0  0  0  0  0  0  0  0  0
   28.2587   23.0848   -2.7944 N   0  0  0  0  0  0  0  0  0  0  0  0
   29.1466   22.2279   -5.8250 N   0  0  0  0  0  0  0  0  0  0  0  0
   28.1914   22.1651   -5.5952 H   0  0  0  0  0  0  0  0  0  0  0  0
   29.5554   22.9770   -7.0137 C   0  0  0  0  0  0  0  0  0  0  0  0
   29.3099   24.4494   -6.8788 C   0  0  0  0  0  0  0  0  0  0  0  0
   28.9300   24.9587   -5.6533 C   0  0  0  0  0  0  0  0  0  0  0  0
   28.7254   26.3138   -5.5196 C   0  0  0  0  0  0  0  0  0  0  0  0
   28.8919   27.1517   -6.6075 C   0  0  0  0  0  0  0  0  0  0  0  0
   29.2781   26.6554   -7.8459 C   0  0  0  0  0  0  0  0  0  0  0  0
   29.4865   25.2857   -7.9781 C   0  0  0  0  0  0  0  0  0  0  0  0
   29.8606   24.7605   -9.1792 O   0  0  0  0  0  0  0  0  0  0  0  0
   28.6898   28.4688   -6.4453 F   0  0  0  0  0  0  0  0  0  0  0  0
   29.9797   25.3223   -9.9196 H   0  0  0  0  0  0  0  0  0  0  0  0
  4  5  2  0  0  0
  4  3  1  0  0  0
  5  1  1  0  0  0
 22 21  1  0  0  0
  3  2  2  0  0  0
 21 20  2  0  0  0
 21 16  1  0  0  0
 20 19  1  0  0  0
  1  6  2  0  0  0
  2  6  1  0  0  0
  2 13  1  0  0  0
 15 16  1  0  0  0
 15 13  1  0  0  0
  6  7  1  0  0  0
 16 17  2  0  0  0
 19 23  1  0  0  0
 19 18  2  0  0  0
 17 18  1  0  0  0
  7 12  2  0  0  0
  7  8  1  0  0  0
 12 11  1  0  0  0
  8  9  2  0  0  0
 11 10  2  0  0  0
  9 10  1  0  0  0
 13 14  1  0  0  0
 22 24  1  0  0  0
M  END
> <minimizedAffinity>
-9.29329

$$$$
4NBL_2J6_A_401


 24 26  0  0  0  0  0  0  0  0999 V2000
   33.6440   20.2780   -5.3845 C   0  0  0  0  0  0  0  0  0  0  0  0
   31.5185   21.3420   -5.7114 C   0  0  0  0  0  0  0  0  0  0  0  0
   31.8114   21.5288   -6.9970 N   0  0  0  0  0  0  0  0  0  0  0  0
   32.9583   21.1350   -7.5185 C   0  0  0  0  0  0  0  0  0  0  0  0
   33.9049   20.5004   -6.7280 C   0  0  0  0  0  0  0  0  0  0  0  0
   32.4275   20.7139   -4.8509 C   0  0  0  0  0  0  0  0  0  0  0  0
   32.0888   20.4940   -3.4220 C   0  0  0  0  0  0  0  0  0  0  0  0
   32.9244   20.9056   -2.4718 N   0  0  0  0  0  0  0  0  0  0  0  0
   32.6418   20.7186   -1.1880 C   0  0  0  0  0  0  0  0  0  0  0  0
   31.4607   20.0881   -0.8339 C   0  0  0  0  0  0  0  0  0  0  0  0
   30.6090   19.6668   -1.8487 C   0  0  0  0  0  0  0  0  0  0  0  0
   30.9453   19.8804   -3.1162 N   0  0  0  0  0  0  0  0  0  0  0  0
   30.3118   21.7774   -5.1905 N   0  0  0  0  0  0  0  0  0  0  0  0
   30.1725   21.7701   -4.2159 H   0  0  0  0  0  0  0  0  0  0  0  0
   29.2406   22.2482   -6.0693 C   0  0  0  0  0  0  0  0  0  0  0  0
   29.1056   23.7409   -6.0635 C   0  0  0  0  0  0  0  0  0  0  0  0
   28.5896   24.3655   -4.9458 C   0  0  0  0  0  0  0  0  0  0  0  0
   28.4849   25.7384   -4.9277 C   0  0  0  0  0  0  0  0  0  0  0  0
   28.8864   26.4797   -6.0243 C   0  0  0  0  0  0  0  0  0  0  0  0
   29.4117   25.8666   -7.1545 C   0  0  0  0  0  0  0  0  0  0  0  0
   29.5186   24.4790   -7.1696 C   0  0  0  0  0  0  0  0  0  0  0  0
   30.0239   23.8408   -8.2632 O   0  0  0  0  0  0  0  0  0  0  0  0
   28.7766   27.8166   -5.9754 F   0  0  0  0  0  0  0  0  0  0  0  0
   30.3020   24.3366   -9.0080 H   0  0  0  0  0  0  0  0  0  0  0  0
  4  5  2  0  0  0
  4  3  1  0  0  0
  5  1  1  0  0  0
 22 21  1  0  0  0
  3  2  2  0  0  0
 21 20  2  0  0  0
 21 16  1  0  0  0
 20 19  1  0  0  0
  1  6  2  0  0  0
  2  6  1  0  0  0
  2 13  1  0  0  0
 15 16  1  0  0  0
 15 13  1  0  0  0
  6  7  1  0  0  0
 16 17  2  0  0  0
 19 23  1  0  0  0
 19 18  2  0  0  0
 17 18  1  0  0  0
  7 12  2  0  0  0
  7  8  1  0  0  0
 12 11  1  0  0  0
  8  9  2  0  0  0
 11 10  2  0  0  0
  9 10  1  0  0  0
 13 14  1  0  0  0
 22 24  1  0  0  0
M  END
> <minimizedAffinity>
-9.03624

$$$$
4NBL_2J6_A_401


 24 26  0  0  0  0  0  0  0  0999 V2000
   28.4576   26.6926   -3.8318 C   0  0  0  0  0  0  0  0  0  0  0  0
   28.3473   24.3432   -4.3057 C   0  0  0  0  0  0  0  0  0  0  0  0
   28.0588   24.1006   -3.0285 N   0  0  0  0  0  0  0  0  0  0  0  0
   27.9634   25.0684   -2.1359 C   0  0  0  0  0  0  0  0  0  0  0  0
   28.1605   26.3888   -2.5120 C   0  0  0  0  0  0  0  0  0  0  0  0
   28.5650   25.6507   -4.7577 C   0  0  0  0  0  0  0  0  0  0  0  0
   28.8706   25.9165   -6.1864 C   0  0  0  0  0  0  0  0  0  0  0  0
   29.2273   24.9141   -6.9855 N   0  0  0  0  0  0  0  0  0  0  0  0
   29.5056   25.1293   -8.2658 C   0  0  0  0  0  0  0  0  0  0  0  0
   29.4217   26.4140   -8.7759 C   0  0  0  0  0  0  0  0  0  0  0  0
   29.0492   27.4412   -7.9163 C   0  0  0  0  0  0  0  0  0  0  0  0
   28.7836   27.1657   -6.6440 N   0  0  0  0  0  0  0  0  0  0  0  0
   28.4527   23.3055   -5.2164 N   0  0  0  0  0  0  0  0  0  0  0  0
   28.3309   23.4874   -6.1762 H   0  0  0  0  0  0  0  0  0  0  0  0
   28.7429   21.9421   -4.7711 C   0  0  0  0  0  0  0  0  0  0  0  0
   30.1623   21.5400   -5.0356 C   0  0  0  0  0  0  0  0  0  0  0  0
   30.7499   21.8942   -6.2335 C   0  0  0  0  0  0  0  0  0  0  0  0
   32.0608   21.5463   -6.4711 C   0  0  0  0  0  0  0  0  0  0  0  0
   32.7755   20.8415   -5.5193 C   0  0  0  0  0  0  0  0  0  0  0  0
   32.2000   20.4818   -4.3075 C   0  0  0  0  0  0  0  0  0  0  0  0
   30.8756   20.8364   -4.0686 C   0  0  0  0  0  0  0  0  0  0  0  0
   30.2745   20.4958   -2.8934 O   0  0  0  0  0  0  0  0  0  0  0  0
   34.0531   20.5207   -5.7775 F   0  0  0  0  0  0  0  0  0  0  0  0
   30.7536   20.0223   -2.2420 H   0  0  0  0  0  0  0  0  0  0  0  0
  4  5  2  0  0  0
  4  3  1  0  0  0
  5  1  1  0  0  0
 22 21  1  0  0  0
  3  2  2  0  0  0
 21 20  2  0  0  0
 21 16  1  0  0  0
 20 19  1  0  0  0
  1  6  2  0  0  0
  2  6  1  0  0  0
  2 13  1  0  0  0
 15 16  1  0  0  0
 15 13  1  0  0  0
  6  7  1  0  0  0
 16 17  2  0  0  0
 19 23  1  0  0  0
 19 18  2  0  0  0
 17 18  1  0  0  0
  7 12  2  0  0  0
  7  8  1  0  0  0
 12 11  1  0  0  0
  8  9  2  0  0  0
 11 10  2  0  0  0
  9 10  1  0  0  0
 13 14  1  0  0  0
 22 24  1  0  0  0
M  END
> <minimizedAffinity>
-8.71853

$$$$
4NBL_2J6_A_401


 24 26  0  0  0  0  0  0  0  0999 V2000
   28.6835   26.8621   -5.5434 C   0  0  0  0  0  0  0  0  0  0  0  0
   29.0508   24.5633   -6.1241 C   0  0  0  0  0  0  0  0  0  0  0  0
   29.4069   24.9322   -7.3531 N   0  0  0  0  0  0  0  0  0  0  0  0
   29.4182   26.1975   -7.7291 C   0  0  0  0  0  0  0  0  0  0  0  0
   29.0568   27.1957   -6.8365 C   0  0  0  0  0  0  0  0  0  0  0  0
   28.6678   25.5148   -5.1706 C   0  0  0  0  0  0  0  0  0  0  0  0
   28.2871   25.0988   -3.7969 C   0  0  0  0  0  0  0  0  0  0  0  0
   28.0437   23.8169   -3.5361 N   0  0  0  0  0  0  0  0  0  0  0  0
   27.7011   23.4229   -2.3152 C   0  0  0  0  0  0  0  0  0  0  0  0
   27.5975   24.3591   -1.3000 C   0  0  0  0  0  0  0  0  0  0  0  0
   27.8552   25.6911   -1.6033 C   0  0  0  0  0  0  0  0  0  0  0  0
   28.1930   26.0263   -2.8438 N   0  0  0  0  0  0  0  0  0  0  0  0
   29.0371   23.2267   -5.7629 N   0  0  0  0  0  0  0  0  0  0  0  0
   28.7535   22.9717   -4.8553 H   0  0  0  0  0  0  0  0  0  0  0  0
   29.4388   22.1881   -6.7123 C   0  0  0  0  0  0  0  0  0  0  0  0
   30.8052   21.6431   -6.4253 C   0  0  0  0  0  0  0  0  0  0  0  0
   31.7437   21.6130   -7.4371 C   0  0  0  0  0  0  0  0  0  0  0  0
   33.0072   21.1340   -7.1716 C   0  0  0  0  0  0  0  0  0  0  0  0
   33.3257   20.6808   -5.9042 C   0  0  0  0  0  0  0  0  0  0  0  0
   32.3940   20.7088   -4.8744 C   0  0  0  0  0  0  0  0  0  0  0  0
   31.1184   21.1953   -5.1445 C   0  0  0  0  0  0  0  0  0  0  0  0
   30.1751   21.2331   -4.1610 O   0  0  0  0  0  0  0  0  0  0  0  0
   34.5669   20.2241   -5.6746 F   0  0  0  0  0  0  0  0  0  0  0  0
   30.3848   20.9320   -3.2989 H   0  0  0  0  0  0  0  0  0  0  0  0
  4  5  2  0  0  0
  4  3  1  0  0  0
  5  1  1  0  0  0
 22 21  1  0  0  0
  3  2  2  0  0  0
 21 20  2  0  0  0
 21 16  1  0  0  0
 20 19  1  0  0  0
  1  6  2  0  0  0
  2  6  1  0  0  0
  2 13  1  0  0  0
 15 16  1  0  0  0
 15 13  1  0  0  0
  6  7  1  0  0  0
 16 17  2  0  0  0
 19 23  1  0  0  0
 19 18  2  0  0  0
 17 18  1  0  0  0
  7 12  2  0  0  0
  7  8  1  0  0  0
 12 11  1  0  0  0
  8  9  2  0  0  0
 11 10  2  0  0  0
  9 10  1  0  0  0
 13 14  1  0  0  0
 22 24  1  0  0  0
M  END
> <minimizedAffinity>
-8.71042

$$$$
4NBL_2J6_A_401


 24 26  0  0  0  0  0  0  0  0999 V2000
   33.0992   20.4526   -5.0705 C   0  0  0  0  0  0  0  0  0  0  0  0
   30.8331   21.2331   -4.9603 C   0  0  0  0  0  0  0  0  0  0  0  0
   30.9131   21.6395   -6.2259 N   0  0  0  0  0  0  0  0  0  0  0  0
   32.0133   21.4932   -6.9404 C   0  0  0  0  0  0  0  0  0  0  0  0
   33.1351   20.8974   -6.3833 C   0  0  0  0  0  0  0  0  0  0  0  0
   31.9272   20.6283   -4.3290 C   0  0  0  0  0  0  0  0  0  0  0  0
   31.8269   20.1626   -2.9225 C   0  0  0  0  0  0  0  0  0  0  0  0
   32.6508   20.6549   -2.0009 N   0  0  0  0  0  0  0  0  0  0  0  0
   32.5792   20.2521   -0.7378 C   0  0  0  0  0  0  0  0  0  0  0  0
   31.6329   19.3083   -0.3750 C   0  0  0  0  0  0  0  0  0  0  0  0
   30.7878   18.8103   -1.3602 C   0  0  0  0  0  0  0  0  0  0  0  0
   30.9070   19.2502   -2.6082 N   0  0  0  0  0  0  0  0  0  0  0  0
   29.6688   21.4115   -4.2324 N   0  0  0  0  0  0  0  0  0  0  0  0
   29.6268   21.1003   -3.2993 H   0  0  0  0  0  0  0  0  0  0  0  0
   28.4999   22.0565   -4.8315 C   0  0  0  0  0  0  0  0  0  0  0  0
   28.5121   23.5452   -4.6584 C   0  0  0  0  0  0  0  0  0  0  0  0
   28.7884   24.3470   -5.7477 C   0  0  0  0  0  0  0  0  0  0  0  0
   28.7783   25.7158   -5.5980 C   0  0  0  0  0  0  0  0  0  0  0  0
   28.5018   26.2773   -4.3645 C   0  0  0  0  0  0  0  0  0  0  0  0
   28.2174   25.4844   -3.2601 C   0  0  0  0  0  0  0  0  0  0  0  0
   28.2260   24.1012   -3.4143 C   0  0  0  0  0  0  0  0  0  0  0  0
   27.9575   23.2899   -2.3521 O   0  0  0  0  0  0  0  0  0  0  0  0
   28.4947   27.6147   -4.2506 F   0  0  0  0  0  0  0  0  0  0  0  0
   27.7649   23.6631   -1.5145 H   0  0  0  0  0  0  0  0  0  0  0  0
  4  5  2  0  0  0
  4  3  1  0  0  0
  5  1  1  0  0  0
 22 21  1  0  0  0
  3  2  2  0  0  0
 21 20  2  0  0  0
 21 16  1  0  0  0
 20 19  1  0  0  0
  1  6  2  0  0  0
  2  6  1  0  0  0
  2 13  1  0  0  0
 15 16  1  0  0  0
 15 13  1  0  0  0
  6  7  1  0  0  0
 16 17  2  0  0  0
 19 23  1  0  0  0
 19 18  2  0  0  0
 17 18  1  0  0  0
  7 12  2  0  0  0
  7  8  1  0  0  0
 12 11  1  0  0  0
  8  9  2  0  0  0
 11 10  2  0  0  0
  9 10  1  0  0  0
 13 14  1  0  0  0
 22 24  1  0  0  0
M  END
> <minimizedAffinity>
-8.67313

$$$$
4NBL_2J6_A_401


 24 26  0  0  0  0  0  0  0  0999 V2000
   27.9806   25.9639   -2.4781 C   0  0  0  0  0  0  0  0  0  0  0  0
   28.3035   23.8033   -3.4701 C   0  0  0  0  0  0  0  0  0  0  0  0
   28.0254   23.2271   -2.3021 N   0  0  0  0  0  0  0  0  0  0  0  0
   27.7334   23.9322   -1.2251 C   0  0  0  0  0  0  0  0  0  0  0  0
   27.7036   25.3177   -1.2830 C   0  0  0  0  0  0  0  0  0  0  0  0
   28.2987   25.1974   -3.6032 C   0  0  0  0  0  0  0  0  0  0  0  0
   28.5939   25.8337   -4.9120 C   0  0  0  0  0  0  0  0  0  0  0  0
   28.6868   25.0841   -6.0075 N   0  0  0  0  0  0  0  0  0  0  0  0
   28.9507   25.6320   -7.1878 C   0  0  0  0  0  0  0  0  0  0  0  0
   29.1299   27.0022   -7.2793 C   0  0  0  0  0  0  0  0  0  0  0  0
   29.0296   27.7589   -6.1174 C   0  0  0  0  0  0  0  0  0  0  0  0
   28.7645   27.1549   -4.9640 N   0  0  0  0  0  0  0  0  0  0  0  0
   28.6184   23.0370   -4.5795 N   0  0  0  0  0  0  0  0  0  0  0  0
   28.6068   23.4490   -5.4736 H   0  0  0  0  0  0  0  0  0  0  0  0
   28.9681   21.6228   -4.4408 C   0  0  0  0  0  0  0  0  0  0  0  0
   30.3918   21.3425   -4.8161 C   0  0  0  0  0  0  0  0  0  0  0  0
   31.2203   20.7262   -3.8999 C   0  0  0  0  0  0  0  0  0  0  0  0
   32.5226   20.4465   -4.2488 C   0  0  0  0  0  0  0  0  0  0  0  0
   32.9941   20.7891   -5.5033 C   0  0  0  0  0  0  0  0  0  0  0  0
   32.1719   21.4054   -6.4377 C   0  0  0  0  0  0  0  0  0  0  0  0
   30.8554   21.6852   -6.0836 C   0  0  0  0  0  0  0  0  0  0  0  0
   30.0197   22.2946   -6.9718 O   0  0  0  0  0  0  0  0  0  0  0  0
   34.2669   20.4994   -5.8161 F   0  0  0  0  0  0  0  0  0  0  0  0
   30.3307   22.5256   -7.8250 H   0  0  0  0  0  0  0  0  0  0  0  0
  4  5  2  0  0  0
  4  3  1  0  0  0
  5  1  1  0  0  0
 22 21  1  0  0  0
  3  2  2  0  0  0
 21 20  2  0  0  0
 21 16  1  0  0  0
 20 19  1  0  0  0
  1  6  2  0  0  0
  2  6  1  0  0  0
  2 13  1  0  0  0
 15 16  1  0  0  0
 15 13  1  0  0  0
  6  7  1  0  0  0
 16 17  2  0  0  0
 19 23  1  0  0  0
 19 18  2  0  0  0
 17 18  1  0  0  0
  7 12  2  0  0  0
  7  8  1  0  0  0
 12 11  1  0  0  0
  8  9  2  0  0  0
 11 10  2  0  0  0
  9 10  1  0  0  0
 13 14  1  0  0  0
 22 24  1  0  0  0
M  END
> <minimizedAffinity>
-8.51588

$$$$
4NBL_2J6_A_401


 24 26  0  0  0  0  0  0  0  0999 V2000
   28.4231   25.7810   -5.1366 C   0  0  0  0  0  0  0  0  0  0  0  0
   29.1692   23.7956   -6.2585 C   0  0  0  0  0  0  0  0  0  0  0  0
   29.5731   24.5329   -7.2913 N   0  0  0  0  0  0  0  0  0  0  0  0
   29.4331   25.8452   -7.3125 C   0  0  0  0  0  0  0  0  0  0  0  0
   28.8546   26.5044   -6.2380 C   0  0  0  0  0  0  0  0  0  0  0  0
   28.5710   24.3908   -5.1408 C   0  0  0  0  0  0  0  0  0  0  0  0
   28.1372   23.5652   -3.9852 C   0  0  0  0  0  0  0  0  0  0  0  0
   27.3990   22.4769   -4.1881 N   0  0  0  0  0  0  0  0  0  0  0  0
   26.9995   21.7247   -3.1694 C   0  0  0  0  0  0  0  0  0  0  0  0
   27.3577   22.0774   -1.8790 C   0  0  0  0  0  0  0  0  0  0  0  0
   28.1270   23.2212   -1.6981 C   0  0  0  0  0  0  0  0  0  0  0  0
   28.4964   23.9354   -2.7558 N   0  0  0  0  0  0  0  0  0  0  0  0
   29.3185   22.4191   -6.2707 N   0  0  0  0  0  0  0  0  0  0  0  0
   28.5738   21.8472   -5.9750 H   0  0  0  0  0  0  0  0  0  0  0  0
   30.5685   21.8033   -6.7174 C   0  0  0  0  0  0  0  0  0  0  0  0
   31.3547   21.2114   -5.5869 C   0  0  0  0  0  0  0  0  0  0  0  0
   30.7537   21.0669   -4.3526 C   0  0  0  0  0  0  0  0  0  0  0  0
   31.4653   20.5028   -3.3174 C   0  0  0  0  0  0  0  0  0  0  0  0
   32.7719   20.0942   -3.5147 C   0  0  0  0  0  0  0  0  0  0  0  0
   33.3892   20.2287   -4.7516 C   0  0  0  0  0  0  0  0  0  0  0  0
   32.6674   20.7970   -5.7970 C   0  0  0  0  0  0  0  0  0  0  0  0
   33.2411   20.9510   -7.0241 O   0  0  0  0  0  0  0  0  0  0  0  0
   33.4385   19.5435   -2.4879 F   0  0  0  0  0  0  0  0  0  0  0  0
   34.1244   20.6724   -7.1666 H   0  0  0  0  0  0  0  0  0  0  0  0
  4  5  2  0  0  0
  4  3  1  0  0  0
  5  1  1  0  0  0
 22 21  1  0  0  0
  3  2  2  0  0  0
 21 20  2  0  0  0
 21 16  1  0  0  0
 20 19  1  0  0  0
  1  6  2  0  0  0
  2  6  1  0  0  0
  2 13  1  0  0  0
 15 16  1  0  0  0
 15 13  1  0  0  0
  6  7  1  0  0  0
 16 17  2  0  0  0
 19 23  1  0  0  0
 19 18  2  0  0  0
 17 18  1  0  0  0
  7 12  2  0  0  0
  7  8  1  0  0  0
 12 11  1  0  0  0
  8  9  2  0  0  0
 11 10  2  0  0  0
  9 10  1  0  0  0
 13 14  1  0  0  0
 22 24  1  0  0  0
M  END
> <minimizedAffinity>
-8.28593

$$$$
4NBL_2J6_A_401


 24 26  0  0  0  0  0  0  0  0999 V2000
   26.8646   23.8390   -3.5618 C   0  0  0  0  0  0  0  0  0  0  0  0
   28.7293   22.7364   -4.5933 C   0  0  0  0  0  0  0  0  0  0  0  0
   28.3699   21.5916   -4.0158 N   0  0  0  0  0  0  0  0  0  0  0  0
   27.3144   21.5056   -3.2279 C   0  0  0  0  0  0  0  0  0  0  0  0
   26.5343   22.6250   -2.9789 C   0  0  0  0  0  0  0  0  0  0  0  0
   27.9934   23.9094   -4.3837 C   0  0  0  0  0  0  0  0  0  0  0  0
   28.3897   25.1795   -5.0431 C   0  0  0  0  0  0  0  0  0  0  0  0
   28.6008   25.2066   -6.3566 N   0  0  0  0  0  0  0  0  0  0  0  0
   28.9566   26.3310   -6.9665 C   0  0  0  0  0  0  0  0  0  0  0  0
   29.1081   27.4910   -6.2254 C   0  0  0  0  0  0  0  0  0  0  0  0
   28.8834   27.4312   -4.8547 C   0  0  0  0  0  0  0  0  0  0  0  0
   28.5303   26.2770   -4.2993 N   0  0  0  0  0  0  0  0  0  0  0  0
   29.8492   22.7980   -5.4053 N   0  0  0  0  0  0  0  0  0  0  0  0
   30.4995   23.5266   -5.2814 H   0  0  0  0  0  0  0  0  0  0  0  0
   30.0789   21.7944   -6.4452 C   0  0  0  0  0  0  0  0  0  0  0  0
   31.4998   21.3190   -6.4825 C   0  0  0  0  0  0  0  0  0  0  0  0
   32.2042   21.3961   -7.6672 C   0  0  0  0  0  0  0  0  0  0  0  0
   33.5168   20.9814   -7.7001 C   0  0  0  0  0  0  0  0  0  0  0  0
   34.1170   20.4853   -6.5569 C   0  0  0  0  0  0  0  0  0  0  0  0
   33.4232   20.4055   -5.3563 C   0  0  0  0  0  0  0  0  0  0  0  0
   32.0973   20.8273   -5.3249 C   0  0  0  0  0  0  0  0  0  0  0  0
   31.3819   20.7589   -4.1664 O   0  0  0  0  0  0  0  0  0  0  0  0
   35.3993   20.0931   -6.6188 F   0  0  0  0  0  0  0  0  0  0  0  0
   31.7831   20.4282   -3.3869 H   0  0  0  0  0  0  0  0  0  0  0  0
  4  5  2  0  0  0
  4  3  1  0  0  0
  5  1  1  0  0  0
 22 21  1  0  0  0
  3  2  2  0  0  0
 21 20  2  0  0  0
 21 16  1  0  0  0
 20 19  1  0  0  0
  1  6  2  0  0  0
  2  6  1  0  0  0
  2 13  1  0  0  0
 15 16  1  0  0  0
 15 13  1  0  0  0
  6  7  1  0  0  0
 16 17  2  0  0  0
 19 23  1  0  0  0
 19 18  2  0  0  0
 17 18  1  0  0  0
  7 12  2  0  0  0
  7  8  1  0  0  0
 12 11  1  0  0  0
  8  9  2  0  0  0
 11 10  2  0  0  0
  9 10  1  0  0  0
 13 14  1  0  0  0
 22 24  1  0  0  0
M  END
> <minimizedAffinity>
-7.94990

$$$$
4NBL_2J6_A_401


 24 26  0  0  0  0  0  0  0  0999 V2000
   28.6755   27.4442   -3.9715 C   0  0  0  0  0  0  0  0  0  0  0  0
   28.2736   25.0827   -4.1079 C   0  0  0  0  0  0  0  0  0  0  0  0
   28.0284   25.0503   -2.7994 N   0  0  0  0  0  0  0  0  0  0  0  0
   28.0917   26.1337   -2.0479 C   0  0  0  0  0  0  0  0  0  0  0  0
   28.4171   27.3583   -2.6119 C   0  0  0  0  0  0  0  0  0  0  0  0
   28.6139   26.2819   -4.7461 C   0  0  0  0  0  0  0  0  0  0  0  0
   28.8705   26.3147   -6.2083 C   0  0  0  0  0  0  0  0  0  0  0  0
   29.2041   25.1967   -6.8480 N   0  0  0  0  0  0  0  0  0  0  0  0
   29.4387   25.2033   -8.1548 C   0  0  0  0  0  0  0  0  0  0  0  0
   29.3329   26.3897   -8.8612 C   0  0  0  0  0  0  0  0  0  0  0  0
   28.9854   27.5420   -8.1653 C   0  0  0  0  0  0  0  0  0  0  0  0
   28.7635   27.4745   -6.8570 N   0  0  0  0  0  0  0  0  0  0  0  0
   28.2113   23.9270   -4.8679 N   0  0  0  0  0  0  0  0  0  0  0  0
   28.3433   23.9786   -5.8422 H   0  0  0  0  0  0  0  0  0  0  0  0
   27.9520   22.6298   -4.2423 C   0  0  0  0  0  0  0  0  0  0  0  0
   29.2059   21.8432   -4.0070 C   0  0  0  0  0  0  0  0  0  0  0  0
   29.4270   21.2854   -2.7639 C   0  0  0  0  0  0  0  0  0  0  0  0
   30.5670   20.5431   -2.5502 C   0  0  0  0  0  0  0  0  0  0  0  0
   31.4828   20.3677   -3.5719 C   0  0  0  0  0  0  0  0  0  0  0  0
   31.2726   20.9187   -4.8295 C   0  0  0  0  0  0  0  0  0  0  0  0
   30.1187   21.6667   -5.0437 C   0  0  0  0  0  0  0  0  0  0  0  0
   29.8804   22.2281   -6.2629 O   0  0  0  0  0  0  0  0  0  0  0  0
   32.5823   19.6351   -3.3349 F   0  0  0  0  0  0  0  0  0  0  0  0
   30.4940   22.1099   -6.9611 H   0  0  0  0  0  0  0  0  0  0  0  0
  4  5  2  0  0  0
  4  3  1  0  0  0
  5  1  1  0  0  0
 22 21  1  0  0  0
  3  2  2  0  0  0
 21 20  2  0  0  0
 21 16  1  0  0  0
 20 19  1  0  0  0
  1  6  2  0  0  0
  2  6  1  0  0  0
  2 13  1  0  0  0
 15 16  1  0  0  0
 15 13  1  0  0  0
  6  7  1  0  0  0
 16 17  2  0  0  0
 19 23  1  0  0  0
 19 18  2  0  0  0
 17 18  1  0  0  0
  7 12  2  0  0  0
  7  8  1  0  0  0
 12 11  1  0  0  0
  8  9  2  0  0  0
 11 10  2  0  0  0
  9 10  1  0  0  0
 13 14  1  0  0  0
 22 24  1  0  0  0
M  END
> <minimizedAffinity>
-7.94177

$$$$
