3JYA_LWG_A_1000


 17 19  0  0  0  0  0  0  0  0999 V2000
    4.1752   82.6713   -0.8540 C   0  0  0  0  0  0  0  0  0  0  0  0
    3.7099   83.1023    0.3571 N   0  0  0  0  0  0  0  0  0  0  0  0
    3.5322   82.6176   -1.8910 O   0  0  0  0  0  0  0  0  0  0  0  0
    6.4427   81.6953   -2.0234 S   0  0  0  0  0  0  0  0  0  0  0  0
    9.1813   80.6232   -3.1585 Cl  0  0  0  0  0  0  0  0  0  0  0  0
    4.4736   83.1421    1.4982 C   0  0  0  0  0  0  0  0  0  0  0  0
    5.7144   82.7931    1.6391 N   0  0  0  0  0  0  0  0  0  0  0  0
    8.3349   82.2541    2.8386 Cl  0  0  0  0  0  0  0  0  0  0  0  0
    6.2657   82.3356    0.4379 C   0  0  0  0  0  0  0  0  0  0  0  0
    5.5252   82.2920   -0.7147 C   0  0  0  0  0  0  0  0  0  0  0  0
    7.8306   81.5111   -1.0328 C   0  0  0  0  0  0  0  0  0  0  0  0
    9.0375   81.0446   -1.4865 C   0  0  0  0  0  0  0  0  0  0  0  0
   10.0620   80.9497   -0.5736 C   0  0  0  0  0  0  0  0  0  0  0  0
    9.8629   81.3114    0.7444 C   0  0  0  0  0  0  0  0  0  0  0  0
    8.6489   81.7851    1.1908 C   0  0  0  0  0  0  0  0  0  0  0  0
    7.6043   81.8922    0.2866 C   0  0  0  0  0  0  0  0  0  0  0  0
    2.7737   83.4012    0.4147 H   0  0  0  0  0  0  0  0  0  0  0  0
  3  1  2  0  0  0
  1 10  1  0  0  0
  1  2  1  0  0  0
  2  6  1  0  0  0
  4 10  1  0  0  0
  4 11  1  0  0  0
  5 12  1  0  0  0
  6  7  2  0  0  0
  9  7  1  0  0  0
 15  8  1  0  0  0
 10  9  2  0  0  0
  9 16  1  0  0  0
 12 11  1  0  0  0
 11 16  2  0  0  0
 12 13  2  0  0  0
 13 14  1  0  0  0
 14 15  2  0  0  0
 16 15  1  0  0  0
  2 17  1  0  0  0
M  END
> <minimizedAffinity>
-8.26410

$$$$
3JYA_LWG_A_1000


 17 19  0  0  0  0  0  0  0  0999 V2000
    3.6574   82.8940   -0.4874 C   0  0  0  0  0  0  0  0  0  0  0  0
    3.4343   82.5856   -1.8004 N   0  0  0  0  0  0  0  0  0  0  0  0
    2.8388   83.3636    0.2878 O   0  0  0  0  0  0  0  0  0  0  0  0
    5.6406   82.8410    1.3905 S   0  0  0  0  0  0  0  0  0  0  0  0
    8.0687   82.6500    3.3919 Cl  0  0  0  0  0  0  0  0  0  0  0  0
    4.3907   82.0598   -2.6344 C   0  0  0  0  0  0  0  0  0  0  0  0
    5.6238   81.7744   -2.3528 N   0  0  0  0  0  0  0  0  0  0  0  0
    8.4063   80.8896   -2.6187 Cl  0  0  0  0  0  0  0  0  0  0  0  0
    5.9336   82.0651   -1.0202 C   0  0  0  0  0  0  0  0  0  0  0  0
    4.9946   82.5849   -0.1676 C   0  0  0  0  0  0  0  0  0  0  0  0
    7.1734   82.2408    0.9095 C   0  0  0  0  0  0  0  0  0  0  0  0
    8.2548   82.1457    1.7472 C   0  0  0  0  0  0  0  0  0  0  0  0
    9.4217   81.6448    1.2187 C   0  0  0  0  0  0  0  0  0  0  0  0
    9.4835   81.2611   -0.1066 C   0  0  0  0  0  0  0  0  0  0  0  0
    8.3907   81.3540   -0.9401 C   0  0  0  0  0  0  0  0  0  0  0  0
    7.2040   81.8524   -0.4267 C   0  0  0  0  0  0  0  0  0  0  0  0
    2.5365   82.7499   -2.1694 H   0  0  0  0  0  0  0  0  0  0  0  0
  3  1  2  0  0  0
  1 10  1  0  0  0
  1  2  1  0  0  0
  2  6  1  0  0  0
  4 10  1  0  0  0
  4 11  1  0  0  0
  5 12  1  0  0  0
  6  7  2  0  0  0
  9  7  1  0  0  0
 15  8  1  0  0  0
 10  9  2  0  0  0
  9 16  1  0  0  0
 12 11  1  0  0  0
 11 16  2  0  0  0
 12 13  2  0  0  0
 13 14  1  0  0  0
 14 15  2  0  0  0
 16 15  1  0  0  0
  2 17  1  0  0  0
M  END
> <minimizedAffinity>
-8.12684

$$$$
3JYA_LWG_A_1000


 17 19  0  0  0  0  0  0  0  0999 V2000
    5.6568   82.9311    3.0172 C   0  0  0  0  0  0  0  0  0  0  0  0
    4.3262   83.1684    2.8120 N   0  0  0  0  0  0  0  0  0  0  0  0
    6.2497   83.0441    4.0789 O   0  0  0  0  0  0  0  0  0  0  0  0
    7.9007   82.1574    1.6650 S   0  0  0  0  0  0  0  0  0  0  0  0
   10.3412   81.2129   -0.0927 Cl  0  0  0  0  0  0  0  0  0  0  0  0
    3.7045   83.0288    1.5951 C   0  0  0  0  0  0  0  0  0  0  0  0
    4.2328   82.6689    0.4670 N   0  0  0  0  0  0  0  0  0  0  0  0
    4.5490   81.9945   -2.3687 Cl  0  0  0  0  0  0  0  0  0  0  0  0
    5.6013   82.4086    0.5932 C   0  0  0  0  0  0  0  0  0  0  0  0
    6.2424   82.5354    1.7980 C   0  0  0  0  0  0  0  0  0  0  0  0
    7.7411   81.8155   -0.0080 C   0  0  0  0  0  0  0  0  0  0  0  0
    8.7775   81.4071   -0.8074 C   0  0  0  0  0  0  0  0  0  0  0  0
    8.4979   81.1711   -2.1334 C   0  0  0  0  0  0  0  0  0  0  0  0
    7.2185   81.3474   -2.6227 C   0  0  0  0  0  0  0  0  0  0  0  0
    6.1813   81.7520   -1.8114 C   0  0  0  0  0  0  0  0  0  0  0  0
    6.4405   81.9916   -0.4714 C   0  0  0  0  0  0  0  0  0  0  0  0
    3.7823   83.4558    3.5806 H   0  0  0  0  0  0  0  0  0  0  0  0
  3  1  2  0  0  0
  1 10  1  0  0  0
  1  2  1  0  0  0
  2  6  1  0  0  0
  4 10  1  0  0  0
  4 11  1  0  0  0
  5 12  1  0  0  0
  6  7  2  0  0  0
  9  7  1  0  0  0
 15  8  1  0  0  0
 10  9  2  0  0  0
  9 16  1  0  0  0
 12 11  1  0  0  0
 11 16  2  0  0  0
 12 13  2  0  0  0
 13 14  1  0  0  0
 14 15  2  0  0  0
 16 15  1  0  0  0
  2 17  1  0  0  0
M  END
> <minimizedAffinity>
-7.99497

$$$$
3JYA_LWG_A_1000


 17 19  0  0  0  0  0  0  0  0999 V2000
    5.5851   83.1096    3.5941 C   0  0  0  0  0  0  0  0  0  0  0  0
    6.7401   83.0247    4.3204 N   0  0  0  0  0  0  0  0  0  0  0  0
    4.4871   83.4226    4.0276 O   0  0  0  0  0  0  0  0  0  0  0  0
    4.6568   82.7635    1.0484 S   0  0  0  0  0  0  0  0  0  0  0  0
    3.8260   82.3387   -1.9628 Cl  0  0  0  0  0  0  0  0  0  0  0  0
    7.9534   82.6652    3.7862 C   0  0  0  0  0  0  0  0  0  0  0  0
    8.2209   82.3501    2.5572 N   0  0  0  0  0  0  0  0  0  0  0  0
    9.6756   81.5247    0.1491 Cl  0  0  0  0  0  0  0  0  0  0  0  0
    7.0837   82.4109    1.7453 C   0  0  0  0  0  0  0  0  0  0  0  0
    5.8635   82.7724    2.2544 C   0  0  0  0  0  0  0  0  0  0  0  0
    5.7863   82.2849   -0.1502 C   0  0  0  0  0  0  0  0  0  0  0  0
    5.4646   82.0855   -1.4681 C   0  0  0  0  0  0  0  0  0  0  0  0
    6.4780   81.7011   -2.3149 C   0  0  0  0  0  0  0  0  0  0  0  0
    7.7620   81.5245   -1.8376 C   0  0  0  0  0  0  0  0  0  0  0  0
    8.0782   81.7330   -0.5132 C   0  0  0  0  0  0  0  0  0  0  0  0
    7.0728   82.1245    0.3563 C   0  0  0  0  0  0  0  0  0  0  0  0
    6.6999   83.2331    5.2818 H   0  0  0  0  0  0  0  0  0  0  0  0
  3  1  2  0  0  0
  1 10  1  0  0  0
  1  2  1  0  0  0
  2  6  1  0  0  0
  4 10  1  0  0  0
  4 11  1  0  0  0
  5 12  1  0  0  0
  6  7  2  0  0  0
  9  7  1  0  0  0
 15  8  1  0  0  0
 10  9  2  0  0  0
  9 16  1  0  0  0
 12 11  1  0  0  0
 11 16  2  0  0  0
 12 13  2  0  0  0
 13 14  1  0  0  0
 14 15  2  0  0  0
 16 15  1  0  0  0
  2 17  1  0  0  0
M  END
> <minimizedAffinity>
-7.91691

$$$$
3JYA_LWG_A_1000


 17 19  0  0  0  0  0  0  0  0999 V2000
    9.0348   80.8152   -2.0792 C   0  0  0  0  0  0  0  0  0  0  0  0
   10.1288   80.7133   -1.2658 N   0  0  0  0  0  0  0  0  0  0  0  0
    8.9815   80.4841   -3.2536 O   0  0  0  0  0  0  0  0  0  0  0  0
    6.4352   81.6530   -2.0332 S   0  0  0  0  0  0  0  0  0  0  0  0
    3.4587   82.6462   -1.7300 Cl  0  0  0  0  0  0  0  0  0  0  0  0
   10.1397   81.1024    0.0516 C   0  0  0  0  0  0  0  0  0  0  0  0
    9.1679   81.6174    0.7383 N   0  0  0  0  0  0  0  0  0  0  0  0
    7.6349   82.7857    2.9477 Cl  0  0  0  0  0  0  0  0  0  0  0  0
    8.0064   81.7574   -0.0283 C   0  0  0  0  0  0  0  0  0  0  0  0
    7.9696   81.3711   -1.3428 C   0  0  0  0  0  0  0  0  0  0  0  0
    5.8297   82.2814   -0.5568 C   0  0  0  0  0  0  0  0  0  0  0  0
    4.5445   82.7273   -0.3852 C   0  0  0  0  0  0  0  0  0  0  0  0
    4.2022   83.2061    0.8580 C   0  0  0  0  0  0  0  0  0  0  0  0
    5.1311   83.2322    1.8798 C   0  0  0  0  0  0  0  0  0  0  0  0
    6.4187   82.7765    1.7009 C   0  0  0  0  0  0  0  0  0  0  0  0
    6.7832   82.2863    0.4572 C   0  0  0  0  0  0  0  0  0  0  0  0
   10.9564   80.3396   -1.6460 H   0  0  0  0  0  0  0  0  0  0  0  0
  3  1  2  0  0  0
  1 10  1  0  0  0
  1  2  1  0  0  0
  2  6  1  0  0  0
  4 10  1  0  0  0
  4 11  1  0  0  0
  5 12  1  0  0  0
  6  7  2  0  0  0
  9  7  1  0  0  0
 15  8  1  0  0  0
 10  9  2  0  0  0
  9 16  1  0  0  0
 12 11  1  0  0  0
 11 16  2  0  0  0
 12 13  2  0  0  0
 13 14  1  0  0  0
 14 15  2  0  0  0
 16 15  1  0  0  0
  2 17  1  0  0  0
M  END
> <minimizedAffinity>
-7.86050

$$$$
3JYA_LWG_A_1000


 17 19  0  0  0  0  0  0  0  0999 V2000
    9.8787   80.9536   -0.9943 C   0  0  0  0  0  0  0  0  0  0  0  0
    9.6161   80.6636   -2.3042 N   0  0  0  0  0  0  0  0  0  0  0  0
   10.9463   80.7903   -0.4241 O   0  0  0  0  0  0  0  0  0  0  0  0
    8.6572   81.9454    1.2387 S   0  0  0  0  0  0  0  0  0  0  0  0
    7.0503   83.1487    3.6693 Cl  0  0  0  0  0  0  0  0  0  0  0  0
    8.3950   80.8637   -2.9006 C   0  0  0  0  0  0  0  0  0  0  0  0
    7.3138   81.3366   -2.3633 N   0  0  0  0  0  0  0  0  0  0  0  0
    4.5479   82.2429   -2.0103 Cl  0  0  0  0  0  0  0  0  0  0  0  0
    7.5005   81.6576   -1.0149 C   0  0  0  0  0  0  0  0  0  0  0  0
    8.7111   81.4721   -0.3995 C   0  0  0  0  0  0  0  0  0  0  0  0
    7.0107   82.4062    1.1045 C   0  0  0  0  0  0  0  0  0  0  0  0
    6.2760   82.9286    2.1377 C   0  0  0  0  0  0  0  0  0  0  0  0
    4.9639   83.2510    1.8804 C   0  0  0  0  0  0  0  0  0  0  0  0
    4.4242   83.0463    0.6256 C   0  0  0  0  0  0  0  0  0  0  0  0
    5.1710   82.5267   -0.4088 C   0  0  0  0  0  0  0  0  0  0  0  0
    6.4963   82.1986   -0.1721 C   0  0  0  0  0  0  0  0  0  0  0  0
   10.3440   80.2897   -2.8515 H   0  0  0  0  0  0  0  0  0  0  0  0
  3  1  2  0  0  0
  1 10  1  0  0  0
  1  2  1  0  0  0
  2  6  1  0  0  0
  4 10  1  0  0  0
  4 11  1  0  0  0
  5 12  1  0  0  0
  6  7  2  0  0  0
  9  7  1  0  0  0
 15  8  1  0  0  0
 10  9  2  0  0  0
  9 16  1  0  0  0
 12 11  1  0  0  0
 11 16  2  0  0  0
 12 13  2  0  0  0
 13 14  1  0  0  0
 14 15  2  0  0  0
 16 15  1  0  0  0
  2 17  1  0  0  0
M  END
> <minimizedAffinity>
-7.65599

$$$$
3JYA_LWG_A_1000


 17 19  0  0  0  0  0  0  0  0999 V2000
    3.3151   83.0622    1.5057 C   0  0  0  0  0  0  0  0  0  0  0  0
    2.7113   83.1273    0.2810 N   0  0  0  0  0  0  0  0  0  0  0  0
    2.7791   83.2787    2.5816 O   0  0  0  0  0  0  0  0  0  0  0  0
    5.7419   82.5320    2.6423 S   0  0  0  0  0  0  0  0  0  0  0  0
    8.6213   81.8449    3.7261 Cl  0  0  0  0  0  0  0  0  0  0  0  0
    3.3591   82.8764   -0.9040 C   0  0  0  0  0  0  0  0  0  0  0  0
    4.6021   82.5515   -1.0793 N   0  0  0  0  0  0  0  0  0  0  0  0
    7.1372   81.8383   -2.3680 Cl  0  0  0  0  0  0  0  0  0  0  0  0
    5.2933   82.4659    0.1335 C   0  0  0  0  0  0  0  0  0  0  0  0
    4.6671   82.7062    1.3289 C   0  0  0  0  0  0  0  0  0  0  0  0
    7.0370   82.1242    1.5946 C   0  0  0  0  0  0  0  0  0  0  0  0
    8.3036   81.8235    2.0254 C   0  0  0  0  0  0  0  0  0  0  0  0
    9.2408   81.5160    1.0668 C   0  0  0  0  0  0  0  0  0  0  0  0
    8.9018   81.5185   -0.2721 C   0  0  0  0  0  0  0  0  0  0  0  0
    7.6253   81.8157   -0.6962 C   0  0  0  0  0  0  0  0  0  0  0  0
    6.6647   82.1246    0.2535 C   0  0  0  0  0  0  0  0  0  0  0  0
    1.7573   83.3679    0.2463 H   0  0  0  0  0  0  0  0  0  0  0  0
  3  1  2  0  0  0
  1 10  1  0  0  0
  1  2  1  0  0  0
  2  6  1  0  0  0
  4 10  1  0  0  0
  4 11  1  0  0  0
  5 12  1  0  0  0
  6  7  2  0  0  0
  9  7  1  0  0  0
 15  8  1  0  0  0
 10  9  2  0  0  0
  9 16  1  0  0  0
 12 11  1  0  0  0
 11 16  2  0  0  0
 12 13  2  0  0  0
 13 14  1  0  0  0
 14 15  2  0  0  0
 16 15  1  0  0  0
  2 17  1  0  0  0
M  END
> <minimizedAffinity>
-7.59229

$$$$
3JYA_LWG_A_1000


 17 19  0  0  0  0  0  0  0  0999 V2000
    8.4557   81.8758    1.9388 C   0  0  0  0  0  0  0  0  0  0  0  0
    9.2838   81.5598    0.8981 N   0  0  0  0  0  0  0  0  0  0  0  0
    8.7737   81.9308    3.1167 O   0  0  0  0  0  0  0  0  0  0  0  0
    5.8574   82.5499    2.4453 S   0  0  0  0  0  0  0  0  0  0  0  0
    2.8256   83.3462    2.7800 Cl  0  0  0  0  0  0  0  0  0  0  0  0
    8.8772   81.5091   -0.4130 C   0  0  0  0  0  0  0  0  0  0  0  0
    7.6924   81.7347   -0.8891 N   0  0  0  0  0  0  0  0  0  0  0  0
    5.4554   82.0330   -2.7608 Cl  0  0  0  0  0  0  0  0  0  0  0  0
    6.7809   82.0644    0.1191 C   0  0  0  0  0  0  0  0  0  0  0  0
    7.1643   82.1269    1.4336 C   0  0  0  0  0  0  0  0  0  0  0  0
    4.7897   82.6565    1.1073 C   0  0  0  0  0  0  0  0  0  0  0  0
    3.4650   82.9948    1.2111 C   0  0  0  0  0  0  0  0  0  0  0  0
    2.7309   83.0385    0.0487 C   0  0  0  0  0  0  0  0  0  0  0  0
    3.3214   82.7467   -1.1653 C   0  0  0  0  0  0  0  0  0  0  0  0
    4.6546   82.4137   -1.2616 C   0  0  0  0  0  0  0  0  0  0  0  0
    5.4133   82.3675   -0.1030 C   0  0  0  0  0  0  0  0  0  0  0  0
   10.2258   81.3569    1.0999 H   0  0  0  0  0  0  0  0  0  0  0  0
  3  1  2  0  0  0
  1 10  1  0  0  0
  1  2  1  0  0  0
  2  6  1  0  0  0
  4 10  1  0  0  0
  4 11  1  0  0  0
  5 12  1  0  0  0
  6  7  2  0  0  0
  9  7  1  0  0  0
 15  8  1  0  0  0
 10  9  2  0  0  0
  9 16  1  0  0  0
 12 11  1  0  0  0
 11 16  2  0  0  0
 12 13  2  0  0  0
 13 14  1  0  0  0
 14 15  2  0  0  0
 16 15  1  0  0  0
  2 17  1  0  0  0
M  END
> <minimizedAffinity>
-7.57361

$$$$
3JYA_LWG_A_1000


 17 19  0  0  0  0  0  0  0  0999 V2000
    6.5572   82.7609    4.6388 C   0  0  0  0  0  0  0  0  0  0  0  0
    5.2675   83.1365    4.8925 N   0  0  0  0  0  0  0  0  0  0  0  0
    7.4385   82.6151    5.4717 O   0  0  0  0  0  0  0  0  0  0  0  0
    8.1970   82.0988    2.5567 S   0  0  0  0  0  0  0  0  0  0  0  0
    9.8846   81.3350    0.0060 Cl  0  0  0  0  0  0  0  0  0  0  0  0
    4.3110   83.2892    3.9186 C   0  0  0  0  0  0  0  0  0  0  0  0
    4.4419   83.1200    2.6397 N   0  0  0  0  0  0  0  0  0  0  0  0
    3.8414   82.9981   -0.2275 Cl  0  0  0  0  0  0  0  0  0  0  0  0
    5.7419   82.7347    2.2965 C   0  0  0  0  0  0  0  0  0  0  0  0
    6.7117   82.5703    3.2511 C   0  0  0  0  0  0  0  0  0  0  0  0
    7.5216   82.1085    0.9803 C   0  0  0  0  0  0  0  0  0  0  0  0
    8.2222   81.7875   -0.1538 C   0  0  0  0  0  0  0  0  0  0  0  0
    7.5464   81.8411   -1.3507 C   0  0  0  0  0  0  0  0  0  0  0  0
    6.2158   82.2094   -1.3890 C   0  0  0  0  0  0  0  0  0  0  0  0
    5.5174   82.5244   -0.2442 C   0  0  0  0  0  0  0  0  0  0  0  0
    6.1784   82.4730    0.9726 C   0  0  0  0  0  0  0  0  0  0  0  0
    5.0094   83.3072    5.8271 H   0  0  0  0  0  0  0  0  0  0  0  0
  3  1  2  0  0  0
  1 10  1  0  0  0
  1  2  1  0  0  0
  2  6  1  0  0  0
  4 10  1  0  0  0
  4 11  1  0  0  0
  5 12  1  0  0  0
  6  7  2  0  0  0
  9  7  1  0  0  0
 15  8  1  0  0  0
 10  9  2  0  0  0
  9 16  1  0  0  0
 12 11  1  0  0  0
 11 16  2  0  0  0
 12 13  2  0  0  0
 13 14  1  0  0  0
 14 15  2  0  0  0
 16 15  1  0  0  0
  2 17  1  0  0  0
M  END
> <minimizedAffinity>
-7.53305

$$$$
3JYA_LWG_A_1000


 17 19  0  0  0  0  0  0  0  0999 V2000
    8.4358   81.9238    2.0420 C   0  0  0  0  0  0  0  0  0  0  0  0
    8.2806   82.1505    3.3811 N   0  0  0  0  0  0  0  0  0  0  0  0
    9.4706   81.5880    1.4869 O   0  0  0  0  0  0  0  0  0  0  0  0
    7.0115   81.9606   -0.2887 S   0  0  0  0  0  0  0  0  0  0  0  0
    5.1598   82.0359   -2.8389 Cl  0  0  0  0  0  0  0  0  0  0  0  0
    7.0935   82.5296    3.9589 C   0  0  0  0  0  0  0  0  0  0  0  0
    5.9544   82.7384    3.3757 N   0  0  0  0  0  0  0  0  0  0  0  0
    3.1348   83.4113    2.9360 Cl  0  0  0  0  0  0  0  0  0  0  0  0
    6.0308   82.5284    1.9950 C   0  0  0  0  0  0  0  0  0  0  0  0
    7.2026   82.1443    1.3966 C   0  0  0  0  0  0  0  0  0  0  0  0
    5.3529   82.3878   -0.1988 C   0  0  0  0  0  0  0  0  0  0  0  0
    4.5159   82.4367   -1.2837 C   0  0  0  0  0  0  0  0  0  0  0  0
    3.2080   82.7977   -1.0572 C   0  0  0  0  0  0  0  0  0  0  0  0
    2.7744   83.0988    0.2191 C   0  0  0  0  0  0  0  0  0  0  0  0
    3.6204   83.0412    1.3047 C   0  0  0  0  0  0  0  0  0  0  0  0
    4.9412   82.6759    1.0992 C   0  0  0  0  0  0  0  0  0  0  0  0
    9.0649   82.0353    3.9650 H   0  0  0  0  0  0  0  0  0  0  0  0
  3  1  2  0  0  0
  1 10  1  0  0  0
  1  2  1  0  0  0
  2  6  1  0  0  0
  4 10  1  0  0  0
  4 11  1  0  0  0
  5 12  1  0  0  0
  6  7  2  0  0  0
  9  7  1  0  0  0
 15  8  1  0  0  0
 10  9  2  0  0  0
  9 16  1  0  0  0
 12 11  1  0  0  0
 11 16  2  0  0  0
 12 13  2  0  0  0
 13 14  1  0  0  0
 14 15  2  0  0  0
 16 15  1  0  0  0
  2 17  1  0  0  0
M  END
> <minimizedAffinity>
-7.43505

$$$$
