4ZX0_5L2_A_302


 36 37  0  0  0  0  0  0  0  0999 V2000
   -2.8745    2.5044   11.1720 S   0  0  0  0  0  0  0  0  0  0  0  0
   -2.1754    1.3017   11.8381 O   0  0  0  0  0  0  0  0  0  0  0  0
   -4.0643    2.1552   10.2602 O   0  0  0  0  0  0  0  0  0  0  0  0
   -3.7165    3.5301   12.4427 C   0  0  0  0  0  0  0  0  0  0  0  0
   -5.1283    3.6547   12.0353 C   0  0  0  0  0  0  0  0  0  0  0  0
   -6.0632    3.8932   13.1737 C   0  0  0  0  0  0  0  0  0  0  0  0
   -5.6945    3.6224   14.5800 C   0  0  0  0  0  0  0  0  0  0  0  0
   -4.4329    2.7787   14.7210 C   0  0  0  0  0  0  0  0  0  0  0  0
   -5.2996    4.5790   10.8969 O   0  0  0  0  0  0  0  0  0  0  0  0
   -7.1016    4.8887   13.0768 O   0  0  0  0  0  0  0  0  0  0  0  0
   -5.9448    4.6104   15.5323 O   0  0  0  0  0  0  0  0  0  0  0  0
   -3.4583    2.7881   13.6106 O   0  0  0  0  0  0  0  0  0  0  0  0
   -5.0469    5.4755   11.1675 H   0  0  0  0  0  0  0  0  0  0  0  0
   -6.7542    5.7474   13.3644 H   0  0  0  0  0  0  0  0  0  0  0  0
   -5.3246    5.3455   15.4064 H   0  0  0  0  0  0  0  0  0  0  0  0
   -4.0091    2.4618   16.0025 C   0  0  0  0  0  0  0  0  0  0  0  0
   -5.1364    2.4008   16.8163 O   0  0  0  0  0  0  0  0  0  0  0  0
   -5.6576    1.1427   17.0683 C   0  0  0  0  0  0  0  0  0  0  0  0
   -4.9742    0.2069   17.1853 O   0  0  0  0  0  0  0  0  0  0  0  0
   -7.1793    1.0956   17.2013 C   0  0  0  0  0  0  0  0  0  0  0  0
   -1.9251    3.2364   10.4196 N   0  0  0  0  0  0  0  0  0  0  0  0
   -0.8070    2.8412   10.2751 C   0  0  0  0  0  0  0  0  0  0  0  0
   -0.0204    4.0902    9.5683 C   0  0  0  0  0  0  0  0  0  0  0  0
   -0.3766    4.9951   10.2141 C   0  0  0  0  0  0  0  0  0  0  0  0
   -1.8534    4.7021   10.5641 C   0  0  0  0  0  0  0  0  0  0  0  0
   -2.7766    5.3993    9.6047 C   0  0  0  0  0  0  0  0  0  0  0  0
   -3.1002    6.4622    9.8180 O   0  0  0  0  0  0  0  0  0  0  0  0
   -3.1259    4.7096    8.4703 O   0  0  0  0  0  0  0  0  0  0  0  0
   -4.0854    5.2305    7.6274 C   0  0  0  0  0  0  0  0  0  0  0  0
    1.4840    3.8062    9.5612 O   0  0  0  0  0  0  0  0  0  0  0  0
    2.6723    4.7406   10.3122 S   0  0  0  0  0  0  0  0  0  0  0  0
    3.9439    4.0481    9.8894 O   0  0  0  0  0  0  0  0  0  0  0  0
    2.6248    6.2420    9.9769 O   0  0  0  0  0  0  0  0  0  0  0  0
    2.6150    4.3234   11.8602 N   0  0  0  0  0  0  0  0  0  0  0  0
    2.6543    3.3073   11.9401 H   0  0  0  0  0  0  0  0  0  0  0  0
    1.7460    4.6635   12.2721 H   0  0  0  0  0  0  0  0  0  0  0  0
  4  5  1  0  0  0
  4 12  1  0  0  0
  4  1  1  0  0  0
  5  6  1  0  0  0
  5  9  1  0  0  0
  6  7  1  0  0  0
  6 10  1  0  0  0
  7  8  1  0  0  0
  7 11  1  0  0  0
  8 16  1  0  0  0
  8 12  1  0  0  0
 16 17  1  0  0  0
 17 18  1  0  0  0
 18 19  2  0  0  0
 18 20  1  0  0  0
  1  2  2  0  0  0
  1  3  2  0  0  0
  1 21  1  0  0  0
 21 22  1  0  0  0
 21 25  1  0  0  0
 22 23  1  0  0  0
 23 30  1  0  0  0
 23 24  1  0  0  0
 30 31  1  0  0  0
 31 32  2  0  0  0
 31 33  2  0  0  0
 31 34  1  0  0  0
 24 25  1  0  0  0
 25 26  1  0  0  0
 26 27  2  0  0  0
 26 28  1  0  0  0
 28 29  1  0  0  0
  9 13  1  0  0  0
 10 14  1  0  0  0
 11 15  1  0  0  0
 34 35  1  0  0  0
 34 36  1  0  0  0
M  END
> <minimizedAffinity>
-8.08364

$$$$
4ZX0_5L2_A_302


 36 37  0  0  0  0  0  0  0  0999 V2000
   -3.1427    2.8719   11.4516 S   0  0  0  0  0  0  0  0  0  0  0  0
   -4.0354    2.5775   10.2288 O   0  0  0  0  0  0  0  0  0  0  0  0
   -2.1775    1.7420   11.8523 O   0  0  0  0  0  0  0  0  0  0  0  0
   -1.9464    4.2087   11.0545 C   0  0  0  0  0  0  0  0  0  0  0  0
   -0.7500    3.9829   11.8865 C   0  0  0  0  0  0  0  0  0  0  0  0
    0.5036    4.5408   11.3000 C   0  0  0  0  0  0  0  0  0  0  0  0
    0.6234    4.9061    9.8720 C   0  0  0  0  0  0  0  0  0  0  0  0
   -0.5068    4.3538    9.0113 C   0  0  0  0  0  0  0  0  0  0  0  0
   -0.9791    4.3427   13.2999 O   0  0  0  0  0  0  0  0  0  0  0  0
    1.4351    5.2763   12.1187 O   0  0  0  0  0  0  0  0  0  0  0  0
    1.1568    6.1542    9.5501 O   0  0  0  0  0  0  0  0  0  0  0  0
   -1.7928    4.0369    9.6659 O   0  0  0  0  0  0  0  0  0  0  0  0
   -1.1437    5.2961   13.3683 H   0  0  0  0  0  0  0  0  0  0  0  0
    1.1873    6.2140   12.1276 H   0  0  0  0  0  0  0  0  0  0  0  0
    0.5174    6.8474    9.7770 H   0  0  0  0  0  0  0  0  0  0  0  0
   -0.4793    4.6339    7.6536 C   0  0  0  0  0  0  0  0  0  0  0  0
   -1.1399    5.8433    7.4594 O   0  0  0  0  0  0  0  0  0  0  0  0
   -2.2631    5.8185    6.6494 C   0  0  0  0  0  0  0  0  0  0  0  0
   -3.0321    4.9449    6.6922 O   0  0  0  0  0  0  0  0  0  0  0  0
   -2.4144    7.0287    5.7285 C   0  0  0  0  0  0  0  0  0  0  0  0
   -3.9627    3.1841   12.5622 N   0  0  0  0  0  0  0  0  0  0  0  0
   -4.0431    2.4510   13.5020 C   0  0  0  0  0  0  0  0  0  0  0  0
   -5.2566    3.0760   14.4049 C   0  0  0  0  0  0  0  0  0  0  0  0
   -6.0723    3.2885   13.5973 C   0  0  0  0  0  0  0  0  0  0  0  0
   -5.3033    3.7567   12.3408 C   0  0  0  0  0  0  0  0  0  0  0  0
   -5.2603    5.2574   12.2711 C   0  0  0  0  0  0  0  0  0  0  0  0
   -4.4526    5.8169   12.8318 O   0  0  0  0  0  0  0  0  0  0  0  0
   -6.1859    5.8659   11.4602 O   0  0  0  0  0  0  0  0  0  0  0  0
   -6.7670    7.0501   11.8628 C   0  0  0  0  0  0  0  0  0  0  0  0
   -5.6315    2.0852   15.5102 O   0  0  0  0  0  0  0  0  0  0  0  0
   -4.5631    1.0754   16.3398 S   0  0  0  0  0  0  0  0  0  0  0  0
   -4.6399   -0.2025   15.5420 O   0  0  0  0  0  0  0  0  0  0  0  0
   -3.1393    1.6353   16.5073 O   0  0  0  0  0  0  0  0  0  0  0  0
   -5.3494    0.6367   17.6676 N   0  0  0  0  0  0  0  0  0  0  0  0
   -6.2736    0.2864   17.4154 H   0  0  0  0  0  0  0  0  0  0  0  0
   -5.4482    1.4419   18.2860 H   0  0  0  0  0  0  0  0  0  0  0  0
  4  5  1  0  0  0
  4 12  1  0  0  0
  4  1  1  0  0  0
  5  6  1  0  0  0
  5  9  1  0  0  0
  6  7  1  0  0  0
  6 10  1  0  0  0
  7  8  1  0  0  0
  7 11  1  0  0  0
  8 16  1  0  0  0
  8 12  1  0  0  0
 16 17  1  0  0  0
 17 18  1  0  0  0
 18 19  2  0  0  0
 18 20  1  0  0  0
  1  2  2  0  0  0
  1  3  2  0  0  0
  1 21  1  0  0  0
 21 22  1  0  0  0
 21 25  1  0  0  0
 22 23  1  0  0  0
 23 30  1  0  0  0
 23 24  1  0  0  0
 30 31  1  0  0  0
 31 32  2  0  0  0
 31 33  2  0  0  0
 31 34  1  0  0  0
 24 25  1  0  0  0
 25 26  1  0  0  0
 26 27  2  0  0  0
 26 28  1  0  0  0
 28 29  1  0  0  0
  9 13  1  0  0  0
 10 14  1  0  0  0
 11 15  1  0  0  0
 34 35  1  0  0  0
 34 36  1  0  0  0
M  END
> <minimizedAffinity>
-8.00422

$$$$
4ZX0_5L2_A_302


 36 37  0  0  0  0  0  0  0  0999 V2000
   -2.4710    4.0077   12.7514 S   0  0  0  0  0  0  0  0  0  0  0  0
   -1.5599    2.8567   12.2781 O   0  0  0  0  0  0  0  0  0  0  0  0
   -1.8030    5.0419   13.6751 O   0  0  0  0  0  0  0  0  0  0  0  0
   -2.9306    5.0765   11.3295 C   0  0  0  0  0  0  0  0  0  0  0  0
   -2.9627    4.2168   10.1317 C   0  0  0  0  0  0  0  0  0  0  0  0
   -3.8703    4.7164    9.0578 C   0  0  0  0  0  0  0  0  0  0  0  0
   -4.9300    5.7168    9.3093 C   0  0  0  0  0  0  0  0  0  0  0  0
   -5.2235    5.9252   10.7904 C   0  0  0  0  0  0  0  0  0  0  0  0
   -1.6080    3.8541    9.6705 O   0  0  0  0  0  0  0  0  0  0  0  0
   -3.4454    4.7244    7.6801 O   0  0  0  0  0  0  0  0  0  0  0  0
   -5.0234    6.8126    8.4512 O   0  0  0  0  0  0  0  0  0  0  0  0
   -4.1623    5.6000   11.7655 O   0  0  0  0  0  0  0  0  0  0  0  0
   -1.1403    4.6531    9.3811 H   0  0  0  0  0  0  0  0  0  0  0  0
   -2.9876    5.5577    7.4877 H   0  0  0  0  0  0  0  0  0  0  0  0
   -4.2790    7.4134    8.6118 H   0  0  0  0  0  0  0  0  0  0  0  0
   -6.2102    6.8382   11.1299 C   0  0  0  0  0  0  0  0  0  0  0  0
   -7.1916    6.7841   10.1446 O   0  0  0  0  0  0  0  0  0  0  0  0
   -7.5765    7.9886    9.5796 C   0  0  0  0  0  0  0  0  0  0  0  0
   -6.9782    8.9712    9.7609 O   0  0  0  0  0  0  0  0  0  0  0  0
   -8.8192    7.9112    8.6934 C   0  0  0  0  0  0  0  0  0  0  0  0
   -3.5977    3.4665   13.4154 N   0  0  0  0  0  0  0  0  0  0  0  0
   -3.8116    3.6977   14.5677 C   0  0  0  0  0  0  0  0  0  0  0  0
   -5.0423    2.6946   14.9642 C   0  0  0  0  0  0  0  0  0  0  0  0
   -4.6904    1.6851   14.4952 C   0  0  0  0  0  0  0  0  0  0  0  0
   -3.9819    2.0635   13.1744 C   0  0  0  0  0  0  0  0  0  0  0  0
   -4.9240    1.9390   12.0101 C   0  0  0  0  0  0  0  0  0  0  0  0
   -5.7221    2.7255   11.8544 O   0  0  0  0  0  0  0  0  0  0  0  0
   -4.7110    0.8894   11.1513 O   0  0  0  0  0  0  0  0  0  0  0  0
   -3.5327    0.1768   11.2292 C   0  0  0  0  0  0  0  0  0  0  0  0
   -5.2429    2.7094   16.4819 O   0  0  0  0  0  0  0  0  0  0  0  0
   -6.1929    1.6303   17.3665 S   0  0  0  0  0  0  0  0  0  0  0  0
   -6.2187    2.2673   18.7336 O   0  0  0  0  0  0  0  0  0  0  0  0
   -7.5837    1.3507   16.7694 O   0  0  0  0  0  0  0  0  0  0  0  0
   -5.2400    0.3713   17.6504 N   0  0  0  0  0  0  0  0  0  0  0  0
   -4.3560    0.6955   18.0425 H   0  0  0  0  0  0  0  0  0  0  0  0
   -5.0628   -0.1248   16.7769 H   0  0  0  0  0  0  0  0  0  0  0  0
  4  5  1  0  0  0
  4 12  1  0  0  0
  4  1  1  0  0  0
  5  6  1  0  0  0
  5  9  1  0  0  0
  6  7  1  0  0  0
  6 10  1  0  0  0
  7  8  1  0  0  0
  7 11  1  0  0  0
  8 16  1  0  0  0
  8 12  1  0  0  0
 16 17  1  0  0  0
 17 18  1  0  0  0
 18 19  2  0  0  0
 18 20  1  0  0  0
  1  2  2  0  0  0
  1  3  2  0  0  0
  1 21  1  0  0  0
 21 22  1  0  0  0
 21 25  1  0  0  0
 22 23  1  0  0  0
 23 30  1  0  0  0
 23 24  1  0  0  0
 30 31  1  0  0  0
 31 32  2  0  0  0
 31 33  2  0  0  0
 31 34  1  0  0  0
 24 25  1  0  0  0
 25 26  1  0  0  0
 26 27  2  0  0  0
 26 28  1  0  0  0
 28 29  1  0  0  0
  9 13  1  0  0  0
 10 14  1  0  0  0
 11 15  1  0  0  0
 34 35  1  0  0  0
 34 36  1  0  0  0
M  END
> <minimizedAffinity>
-7.86441

$$$$
4ZX0_5L2_A_302


 36 37  0  0  0  0  0  0  0  0999 V2000
   -2.7692    5.1114   14.0588 S   0  0  0  0  0  0  0  0  0  0  0  0
   -1.5430    4.7922   14.9382 O   0  0  0  0  0  0  0  0  0  0  0  0
   -3.1428    6.6013   13.9616 O   0  0  0  0  0  0  0  0  0  0  0  0
   -2.3974    4.7441   12.2974 C   0  0  0  0  0  0  0  0  0  0  0  0
   -1.1921    5.5138   11.9377 C   0  0  0  0  0  0  0  0  0  0  0  0
   -0.4049    4.9109   10.8226 C   0  0  0  0  0  0  0  0  0  0  0  0
   -0.5663    3.5025   10.4016 C   0  0  0  0  0  0  0  0  0  0  0  0
   -1.3388    2.6570   11.4074 C   0  0  0  0  0  0  0  0  0  0  0  0
   -1.4780    6.9534   11.7784 O   0  0  0  0  0  0  0  0  0  0  0  0
    0.1030    5.7326    9.7522 O   0  0  0  0  0  0  0  0  0  0  0  0
   -0.7252    3.2315    9.0425 O   0  0  0  0  0  0  0  0  0  0  0  0
   -2.2668    3.3430   12.3300 O   0  0  0  0  0  0  0  0  0  0  0  0
   -2.0791    7.0826   11.0281 H   0  0  0  0  0  0  0  0  0  0  0  0
   -0.5668    5.8049    9.0543 H   0  0  0  0  0  0  0  0  0  0  0  0
   -1.6048    3.5228    8.7554 H   0  0  0  0  0  0  0  0  0  0  0  0
   -1.5352    1.3176   11.1079 C   0  0  0  0  0  0  0  0  0  0  0  0
   -2.9079    1.0921   11.0656 O   0  0  0  0  0  0  0  0  0  0  0  0
   -3.3304   -0.0766   10.4542 C   0  0  0  0  0  0  0  0  0  0  0  0
   -3.8553   -0.0708    9.4146 O   0  0  0  0  0  0  0  0  0  0  0  0
   -3.0305   -1.3534   11.2386 C   0  0  0  0  0  0  0  0  0  0  0  0
   -3.8886    4.3930   14.5426 N   0  0  0  0  0  0  0  0  0  0  0  0
   -3.7610    3.4779   15.2999 C   0  0  0  0  0  0  0  0  0  0  0  0
   -5.2532    2.8120   15.3912 C   0  0  0  0  0  0  0  0  0  0  0  0
   -5.5653    2.7664   14.2672 C   0  0  0  0  0  0  0  0  0  0  0  0
   -4.9862    4.0457   13.6212 C   0  0  0  0  0  0  0  0  0  0  0  0
   -6.0250    5.1302   13.5630 C   0  0  0  0  0  0  0  0  0  0  0  0
   -6.3453    5.6448   14.5182 O   0  0  0  0  0  0  0  0  0  0  0  0
   -6.4837    5.4813   12.3177 O   0  0  0  0  0  0  0  0  0  0  0  0
   -5.8323    6.4680   11.6075 C   0  0  0  0  0  0  0  0  0  0  0  0
   -5.1698    1.4747   16.1318 O   0  0  0  0  0  0  0  0  0  0  0  0
   -6.0280    1.0580   17.5244 S   0  0  0  0  0  0  0  0  0  0  0  0
   -5.8238   -0.4349   17.5958 O   0  0  0  0  0  0  0  0  0  0  0  0
   -5.6097    1.8181   18.7957 O   0  0  0  0  0  0  0  0  0  0  0  0
   -7.5729    1.1199   17.0967 N   0  0  0  0  0  0  0  0  0  0  0  0
   -7.7116    0.5779   16.2438 H   0  0  0  0  0  0  0  0  0  0  0  0
   -7.8411    2.0899   16.9304 H   0  0  0  0  0  0  0  0  0  0  0  0
  4  5  1  0  0  0
  4 12  1  0  0  0
  4  1  1  0  0  0
  5  6  1  0  0  0
  5  9  1  0  0  0
  6  7  1  0  0  0
  6 10  1  0  0  0
  7  8  1  0  0  0
  7 11  1  0  0  0
  8 16  1  0  0  0
  8 12  1  0  0  0
 16 17  1  0  0  0
 17 18  1  0  0  0
 18 19  2  0  0  0
 18 20  1  0  0  0
  1  2  2  0  0  0
  1  3  2  0  0  0
  1 21  1  0  0  0
 21 22  1  0  0  0
 21 25  1  0  0  0
 22 23  1  0  0  0
 23 30  1  0  0  0
 23 24  1  0  0  0
 30 31  1  0  0  0
 31 32  2  0  0  0
 31 33  2  0  0  0
 31 34  1  0  0  0
 24 25  1  0  0  0
 25 26  1  0  0  0
 26 27  2  0  0  0
 26 28  1  0  0  0
 28 29  1  0  0  0
  9 13  1  0  0  0
 10 14  1  0  0  0
 11 15  1  0  0  0
 34 35  1  0  0  0
 34 36  1  0  0  0
M  END
> <minimizedAffinity>
-7.75627

$$$$
4ZX0_5L2_A_302


 36 37  0  0  0  0  0  0  0  0999 V2000
   -2.9238    2.8211   11.3451 S   0  0  0  0  0  0  0  0  0  0  0  0
   -3.9314    2.7086   10.1827 O   0  0  0  0  0  0  0  0  0  0  0  0
   -2.0920    1.5563   11.6232 O   0  0  0  0  0  0  0  0  0  0  0  0
   -1.5910    4.0101   10.9143 C   0  0  0  0  0  0  0  0  0  0  0  0
   -0.4558    3.7358   11.8147 C   0  0  0  0  0  0  0  0  0  0  0  0
    0.8677    4.1323   11.2509 C   0  0  0  0  0  0  0  0  0  0  0  0
    1.0789    4.3811    9.8085 C   0  0  0  0  0  0  0  0  0  0  0  0
   -0.0631    3.8745    8.9354 C   0  0  0  0  0  0  0  0  0  0  0  0
   -0.7062    4.2161   13.1882 O   0  0  0  0  0  0  0  0  0  0  0  0
    1.8312    4.8361   12.0603 O   0  0  0  0  0  0  0  0  0  0  0  0
    1.7410    5.5484    9.4278 O   0  0  0  0  0  0  0  0  0  0  0  0
   -1.3987    3.7253    9.5493 O   0  0  0  0  0  0  0  0  0  0  0  0
   -0.7821    5.1831   13.1838 H   0  0  0  0  0  0  0  0  0  0  0  0
    1.6736    5.7909   11.9938 H   0  0  0  0  0  0  0  0  0  0  0  0
    1.1618    6.3120    9.5769 H   0  0  0  0  0  0  0  0  0  0  0  0
    0.0453    4.0523    7.5647 C   0  0  0  0  0  0  0  0  0  0  0  0
    1.2678    3.5199    7.1661 O   0  0  0  0  0  0  0  0  0  0  0  0
    1.9376    4.1842    6.1520 C   0  0  0  0  0  0  0  0  0  0  0  0
    1.3848    4.5766    5.2051 O   0  0  0  0  0  0  0  0  0  0  0  0
    3.4348    4.3749    6.3922 C   0  0  0  0  0  0  0  0  0  0  0  0
   -3.6150    3.1792   12.5271 N   0  0  0  0  0  0  0  0  0  0  0  0
   -3.9225    2.3602   13.3407 C   0  0  0  0  0  0  0  0  0  0  0  0
   -4.8907    3.1658   14.3856 C   0  0  0  0  0  0  0  0  0  0  0  0
   -5.5968    3.7470   13.6599 C   0  0  0  0  0  0  0  0  0  0  0  0
   -4.7134    4.1606   12.4608 C   0  0  0  0  0  0  0  0  0  0  0  0
   -4.2110    5.5670   12.6294 C   0  0  0  0  0  0  0  0  0  0  0  0
   -4.7837    6.4219   12.1594 O   0  0  0  0  0  0  0  0  0  0  0  0
   -3.0986    5.7365   13.4159 O   0  0  0  0  0  0  0  0  0  0  0  0
   -3.1986    6.4585   14.5868 C   0  0  0  0  0  0  0  0  0  0  0  0
   -5.5586    2.1671   15.3345 O   0  0  0  0  0  0  0  0  0  0  0  0
   -4.7694    1.1996   16.4705 S   0  0  0  0  0  0  0  0  0  0  0  0
   -3.3509    1.7077   16.3987 O   0  0  0  0  0  0  0  0  0  0  0  0
   -5.3827    1.2250   17.8819 O   0  0  0  0  0  0  0  0  0  0  0  0
   -4.6030   -0.2285   15.7588 N   0  0  0  0  0  0  0  0  0  0  0  0
   -4.1875   -0.1021   14.8359 H   0  0  0  0  0  0  0  0  0  0  0  0
   -5.5179   -0.6690   15.6624 H   0  0  0  0  0  0  0  0  0  0  0  0
  4  5  1  0  0  0
  4 12  1  0  0  0
  4  1  1  0  0  0
  5  6  1  0  0  0
  5  9  1  0  0  0
  6  7  1  0  0  0
  6 10  1  0  0  0
  7  8  1  0  0  0
  7 11  1  0  0  0
  8 16  1  0  0  0
  8 12  1  0  0  0
 16 17  1  0  0  0
 17 18  1  0  0  0
 18 19  2  0  0  0
 18 20  1  0  0  0
  1  2  2  0  0  0
  1  3  2  0  0  0
  1 21  1  0  0  0
 21 22  1  0  0  0
 21 25  1  0  0  0
 22 23  1  0  0  0
 23 30  1  0  0  0
 23 24  1  0  0  0
 30 31  1  0  0  0
 31 32  2  0  0  0
 31 33  2  0  0  0
 31 34  1  0  0  0
 24 25  1  0  0  0
 25 26  1  0  0  0
 26 27  2  0  0  0
 26 28  1  0  0  0
 28 29  1  0  0  0
  9 13  1  0  0  0
 10 14  1  0  0  0
 11 15  1  0  0  0
 34 35  1  0  0  0
 34 36  1  0  0  0
M  END
> <minimizedAffinity>
-7.73109

$$$$
4ZX0_5L2_A_302


 36 37  0  0  0  0  0  0  0  0999 V2000
   -5.3579    4.6382   12.4011 S   0  0  0  0  0  0  0  0  0  0  0  0
   -5.4043    4.5450   10.8622 O   0  0  0  0  0  0  0  0  0  0  0  0
   -6.5580    5.3444   13.0568 O   0  0  0  0  0  0  0  0  0  0  0  0
   -5.5098    2.9635   13.1413 C   0  0  0  0  0  0  0  0  0  0  0  0
   -4.8066    2.0266   12.2454 C   0  0  0  0  0  0  0  0  0  0  0  0
   -4.2969    0.8050   12.9342 C   0  0  0  0  0  0  0  0  0  0  0  0
   -4.1381    0.7236   14.4022 C   0  0  0  0  0  0  0  0  0  0  0  0
   -4.2146    2.0801   15.0933 C   0  0  0  0  0  0  0  0  0  0  0  0
   -5.5685    1.7610   11.0091 O   0  0  0  0  0  0  0  0  0  0  0  0
   -4.4692   -0.4988   12.3433 O   0  0  0  0  0  0  0  0  0  0  0  0
   -4.6543   -0.3908   15.0635 O   0  0  0  0  0  0  0  0  0  0  0  0
   -4.9407    3.1715   14.4117 O   0  0  0  0  0  0  0  0  0  0  0  0
   -6.3964    1.3068   11.2308 H   0  0  0  0  0  0  0  0  0  0  0  0
   -5.3223   -0.8688   12.6196 H   0  0  0  0  0  0  0  0  0  0  0  0
   -5.6231   -0.3426   15.0706 H   0  0  0  0  0  0  0  0  0  0  0  0
   -4.0674    2.1107   16.4716 C   0  0  0  0  0  0  0  0  0  0  0  0
   -4.7147    0.9929   16.9896 O   0  0  0  0  0  0  0  0  0  0  0  0
   -6.0111    1.1752   17.4415 C   0  0  0  0  0  0  0  0  0  0  0  0
   -6.9145    0.6251   16.9542 O   0  0  0  0  0  0  0  0  0  0  0  0
   -6.1463    2.1261   18.6303 C   0  0  0  0  0  0  0  0  0  0  0  0
   -4.1709    5.3030   12.7915 N   0  0  0  0  0  0  0  0  0  0  0  0
   -4.2038    6.3553   13.3561 C   0  0  0  0  0  0  0  0  0  0  0  0
   -2.6443    6.8506   13.3883 C   0  0  0  0  0  0  0  0  0  0  0  0
   -2.3033    6.6428   12.2913 C   0  0  0  0  0  0  0  0  0  0  0  0
   -3.0185    5.3381   11.8723 C   0  0  0  0  0  0  0  0  0  0  0  0
   -2.1179    4.1508   12.0670 C   0  0  0  0  0  0  0  0  0  0  0  0
   -1.8236    3.8424   13.1149 O   0  0  0  0  0  0  0  0  0  0  0  0
   -1.7527    3.4595   10.9386 O   0  0  0  0  0  0  0  0  0  0  0  0
   -0.8776    4.0366   10.0423 C   0  0  0  0  0  0  0  0  0  0  0  0
   -2.5817    8.3061   13.8590 O   0  0  0  0  0  0  0  0  0  0  0  0
   -1.2352    9.0745   14.5267 S   0  0  0  0  0  0  0  0  0  0  0  0
   -1.3549    8.7246   15.9891 O   0  0  0  0  0  0  0  0  0  0  0  0
    0.1125    8.6910   13.8898 O   0  0  0  0  0  0  0  0  0  0  0  0
   -1.6208   10.6312   14.5678 N   0  0  0  0  0  0  0  0  0  0  0  0
   -2.5318   10.7442   15.0125 H   0  0  0  0  0  0  0  0  0  0  0  0
   -1.6592   10.9972   13.6165 H   0  0  0  0  0  0  0  0  0  0  0  0
  4  5  1  0  0  0
  4 12  1  0  0  0
  4  1  1  0  0  0
  5  6  1  0  0  0
  5  9  1  0  0  0
  6  7  1  0  0  0
  6 10  1  0  0  0
  7  8  1  0  0  0
  7 11  1  0  0  0
  8 16  1  0  0  0
  8 12  1  0  0  0
 16 17  1  0  0  0
 17 18  1  0  0  0
 18 19  2  0  0  0
 18 20  1  0  0  0
  1  2  2  0  0  0
  1  3  2  0  0  0
  1 21  1  0  0  0
 21 22  1  0  0  0
 21 25  1  0  0  0
 22 23  1  0  0  0
 23 30  1  0  0  0
 23 24  1  0  0  0
 30 31  1  0  0  0
 31 32  2  0  0  0
 31 33  2  0  0  0
 31 34  1  0  0  0
 24 25  1  0  0  0
 25 26  1  0  0  0
 26 27  2  0  0  0
 26 28  1  0  0  0
 28 29  1  0  0  0
  9 13  1  0  0  0
 10 14  1  0  0  0
 11 15  1  0  0  0
 34 35  1  0  0  0
 34 36  1  0  0  0
M  END
> <minimizedAffinity>
-7.48577

$$$$
4ZX0_5L2_A_302


 36 37  0  0  0  0  0  0  0  0999 V2000
   -4.7442    5.1545   12.3276 S   0  0  0  0  0  0  0  0  0  0  0  0
   -4.1984    6.3010   13.2031 O   0  0  0  0  0  0  0  0  0  0  0  0
   -5.9621    5.5107   11.4564 O   0  0  0  0  0  0  0  0  0  0  0  0
   -3.5217    4.7129   11.0291 C   0  0  0  0  0  0  0  0  0  0  0  0
   -4.1417    5.0177    9.7263 C   0  0  0  0  0  0  0  0  0  0  0  0
   -3.1556    5.3125    8.6459 C   0  0  0  0  0  0  0  0  0  0  0  0
   -1.7484    5.6714    8.9254 C   0  0  0  0  0  0  0  0  0  0  0  0
   -1.4976    6.0375   10.3836 C   0  0  0  0  0  0  0  0  0  0  0  0
   -5.1779    4.0323    9.3589 O   0  0  0  0  0  0  0  0  0  0  0  0
   -3.3084    4.7365    7.3330 O   0  0  0  0  0  0  0  0  0  0  0  0
   -0.7432    5.0063    8.2234 O   0  0  0  0  0  0  0  0  0  0  0  0
   -2.4210    5.5049   11.4066 O   0  0  0  0  0  0  0  0  0  0  0  0
   -4.7669    3.1628    9.2325 H   0  0  0  0  0  0  0  0  0  0  0  0
   -2.8692    3.8721    7.3061 H   0  0  0  0  0  0  0  0  0  0  0  0
   -0.6778    4.0920    8.5407 H   0  0  0  0  0  0  0  0  0  0  0  0
   -0.2087    6.3990   10.7452 C   0  0  0  0  0  0  0  0  0  0  0  0
    0.2882    5.4053   11.5834 O   0  0  0  0  0  0  0  0  0  0  0  0
    1.2747    4.5845   11.0627 C   0  0  0  0  0  0  0  0  0  0  0  0
    1.0215    3.6838   10.3692 O   0  0  0  0  0  0  0  0  0  0  0  0
    2.7008    4.9725   11.4516 C   0  0  0  0  0  0  0  0  0  0  0  0
   -5.0831    4.0576   13.1553 N   0  0  0  0  0  0  0  0  0  0  0  0
   -5.4515    4.2174   14.2805 C   0  0  0  0  0  0  0  0  0  0  0  0
   -5.4906    2.7096   14.9156 C   0  0  0  0  0  0  0  0  0  0  0  0
   -4.4696    2.2713   14.5574 C   0  0  0  0  0  0  0  0  0  0  0  0
   -4.2432    2.8458   13.1404 C   0  0  0  0  0  0  0  0  0  0  0  0
   -4.6970    1.8700   12.0912 C   0  0  0  0  0  0  0  0  0  0  0  0
   -5.6450    2.0793   11.5105 O   0  0  0  0  0  0  0  0  0  0  0  0
   -3.8793    0.7934   11.8525 O   0  0  0  0  0  0  0  0  0  0  0  0
   -4.4048   -0.3433   11.2745 C   0  0  0  0  0  0  0  0  0  0  0  0
   -5.7019    2.7998   16.4293 O   0  0  0  0  0  0  0  0  0  0  0  0
   -6.0229    1.5052   17.4638 S   0  0  0  0  0  0  0  0  0  0  0  0
   -7.4338    1.1299   17.0844 O   0  0  0  0  0  0  0  0  0  0  0  0
   -5.0138    0.3458   17.3843 O   0  0  0  0  0  0  0  0  0  0  0  0
   -6.2760    2.1721   18.9008 N   0  0  0  0  0  0  0  0  0  0  0  0
   -6.9617    2.9219   18.8116 H   0  0  0  0  0  0  0  0  0  0  0  0
   -5.3998    2.5533   19.2577 H   0  0  0  0  0  0  0  0  0  0  0  0
  4  5  1  0  0  0
  4 12  1  0  0  0
  4  1  1  0  0  0
  5  6  1  0  0  0
  5  9  1  0  0  0
  6  7  1  0  0  0
  6 10  1  0  0  0
  7  8  1  0  0  0
  7 11  1  0  0  0
  8 16  1  0  0  0
  8 12  1  0  0  0
 16 17  1  0  0  0
 17 18  1  0  0  0
 18 19  2  0  0  0
 18 20  1  0  0  0
  1  2  2  0  0  0
  1  3  2  0  0  0
  1 21  1  0  0  0
 21 22  1  0  0  0
 21 25  1  0  0  0
 22 23  1  0  0  0
 23 30  1  0  0  0
 23 24  1  0  0  0
 30 31  1  0  0  0
 31 32  2  0  0  0
 31 33  2  0  0  0
 31 34  1  0  0  0
 24 25  1  0  0  0
 25 26  1  0  0  0
 26 27  2  0  0  0
 26 28  1  0  0  0
 28 29  1  0  0  0
  9 13  1  0  0  0
 10 14  1  0  0  0
 11 15  1  0  0  0
 34 35  1  0  0  0
 34 36  1  0  0  0
M  END
> <minimizedAffinity>
-7.43842

$$$$
4ZX0_5L2_A_302


 36 37  0  0  0  0  0  0  0  0999 V2000
   -2.3451    3.1888   11.4561 S   0  0  0  0  0  0  0  0  0  0  0  0
   -1.6197    2.2321   10.4879 O   0  0  0  0  0  0  0  0  0  0  0  0
   -1.4582    3.8329   12.5366 O   0  0  0  0  0  0  0  0  0  0  0  0
   -2.9171    4.6854   10.5568 C   0  0  0  0  0  0  0  0  0  0  0  0
   -4.3488    4.4937   10.2600 C   0  0  0  0  0  0  0  0  0  0  0  0
   -5.1075    5.7699   10.1106 C   0  0  0  0  0  0  0  0  0  0  0  0
   -4.5968    7.0654   10.6087 C   0  0  0  0  0  0  0  0  0  0  0  0
   -3.4182    6.9218   11.5645 C   0  0  0  0  0  0  0  0  0  0  0  0
   -4.5661    3.5200    9.1718 O   0  0  0  0  0  0  0  0  0  0  0  0
   -6.0452    5.9463    9.0297 O   0  0  0  0  0  0  0  0  0  0  0  0
   -4.6277    8.1640    9.7497 O   0  0  0  0  0  0  0  0  0  0  0  0
   -2.5921    5.7001   11.4766 O   0  0  0  0  0  0  0  0  0  0  0  0
   -4.1936    3.8686    8.3468 H   0  0  0  0  0  0  0  0  0  0  0  0
   -5.5808    6.2939    8.2523 H   0  0  0  0  0  0  0  0  0  0  0  0
   -3.9574    8.0521    9.0575 H   0  0  0  0  0  0  0  0  0  0  0  0
   -2.8732    8.0812   12.0948 C   0  0  0  0  0  0  0  0  0  0  0  0
   -1.8956    7.7063   13.0117 O   0  0  0  0  0  0  0  0  0  0  0  0
   -2.2404    7.7656   14.3517 C   0  0  0  0  0  0  0  0  0  0  0  0
   -2.8902    6.9409   14.8558 O   0  0  0  0  0  0  0  0  0  0  0  0
   -1.6828    8.9740   15.1029 C   0  0  0  0  0  0  0  0  0  0  0  0
   -3.4027    2.4947   12.0909 N   0  0  0  0  0  0  0  0  0  0  0  0
   -3.8926    2.8978   13.1032 C   0  0  0  0  0  0  0  0  0  0  0  0
   -4.8767    1.6850   13.5921 C   0  0  0  0  0  0  0  0  0  0  0  0
   -4.1909    0.7498   13.4574 C   0  0  0  0  0  0  0  0  0  0  0  0
   -3.3570    1.0239   12.1851 C   0  0  0  0  0  0  0  0  0  0  0  0
   -3.9855    0.3720   10.9856 C   0  0  0  0  0  0  0  0  0  0  0  0
   -4.9008    0.8407   10.5141 O   0  0  0  0  0  0  0  0  0  0  0  0
   -3.3567   -0.7414   10.4861 O   0  0  0  0  0  0  0  0  0  0  0  0
   -2.9290   -1.7257   11.3524 C   0  0  0  0  0  0  0  0  0  0  0  0
   -5.3706    1.9710   15.0127 O   0  0  0  0  0  0  0  0  0  0  0  0
   -4.7155    1.3409   16.4351 S   0  0  0  0  0  0  0  0  0  0  0  0
   -5.1735   -0.0958   16.3937 O   0  0  0  0  0  0  0  0  0  0  0  0
   -3.1939    1.5187   16.5828 O   0  0  0  0  0  0  0  0  0  0  0  0
   -5.6471    1.9092   17.6111 N   0  0  0  0  0  0  0  0  0  0  0  0
   -6.6255    1.7264   17.3882 H   0  0  0  0  0  0  0  0  0  0  0  0
   -5.5017    2.9144   17.7044 H   0  0  0  0  0  0  0  0  0  0  0  0
  4  5  1  0  0  0
  4 12  1  0  0  0
  4  1  1  0  0  0
  5  6  1  0  0  0
  5  9  1  0  0  0
  6  7  1  0  0  0
  6 10  1  0  0  0
  7  8  1  0  0  0
  7 11  1  0  0  0
  8 16  1  0  0  0
  8 12  1  0  0  0
 16 17  1  0  0  0
 17 18  1  0  0  0
 18 19  2  0  0  0
 18 20  1  0  0  0
  1  2  2  0  0  0
  1  3  2  0  0  0
  1 21  1  0  0  0
 21 22  1  0  0  0
 21 25  1  0  0  0
 22 23  1  0  0  0
 23 30  1  0  0  0
 23 24  1  0  0  0
 30 31  1  0  0  0
 31 32  2  0  0  0
 31 33  2  0  0  0
 31 34  1  0  0  0
 24 25  1  0  0  0
 25 26  1  0  0  0
 26 27  2  0  0  0
 26 28  1  0  0  0
 28 29  1  0  0  0
  9 13  1  0  0  0
 10 14  1  0  0  0
 11 15  1  0  0  0
 34 35  1  0  0  0
 34 36  1  0  0  0
M  END
> <minimizedAffinity>
-7.38878

$$$$
4ZX0_5L2_A_302


 36 37  0  0  0  0  0  0  0  0999 V2000
   -2.6040    4.1696   12.6871 S   0  0  0  0  0  0  0  0  0  0  0  0
   -2.1989    3.2963   11.4822 O   0  0  0  0  0  0  0  0  0  0  0  0
   -1.4774    4.4752   13.6902 O   0  0  0  0  0  0  0  0  0  0  0  0
   -3.0217    5.8683   12.1254 C   0  0  0  0  0  0  0  0  0  0  0  0
   -1.8100    6.4299   11.5002 C   0  0  0  0  0  0  0  0  0  0  0  0
   -2.0926    7.4822   10.4806 C   0  0  0  0  0  0  0  0  0  0  0  0
   -3.4235    7.6552    9.8595 C   0  0  0  0  0  0  0  0  0  0  0  0
   -4.3579    6.4746   10.0968 C   0  0  0  0  0  0  0  0  0  0  0  0
   -0.7896    6.8028   12.4999 O   0  0  0  0  0  0  0  0  0  0  0  0
   -1.3283    8.7044   10.4533 O   0  0  0  0  0  0  0  0  0  0  0  0
   -3.9699    8.9377    9.8106 O   0  0  0  0  0  0  0  0  0  0  0  0
   -4.1138    5.6159   11.2740 O   0  0  0  0  0  0  0  0  0  0  0  0
   -1.1291    7.5216   13.0558 H   0  0  0  0  0  0  0  0  0  0  0  0
   -1.7422    9.3577   11.0388 H   0  0  0  0  0  0  0  0  0  0  0  0
   -4.2400    9.2083   10.7021 H   0  0  0  0  0  0  0  0  0  0  0  0
   -5.6286    6.5371    9.5454 C   0  0  0  0  0  0  0  0  0  0  0  0
   -5.9808    5.2496    9.1516 O   0  0  0  0  0  0  0  0  0  0  0  0
   -5.4280    4.7845    7.9700 C   0  0  0  0  0  0  0  0  0  0  0  0
   -4.5869    3.9789    7.9607 O   0  0  0  0  0  0  0  0  0  0  0  0
   -6.0250    5.3927    6.7015 C   0  0  0  0  0  0  0  0  0  0  0  0
   -3.6697    3.5445   13.3776 N   0  0  0  0  0  0  0  0  0  0  0  0
   -3.8457    3.7250   14.5453 C   0  0  0  0  0  0  0  0  0  0  0  0
   -5.0016    2.6419   14.9566 C   0  0  0  0  0  0  0  0  0  0  0  0
   -4.6159    1.6699   14.4377 C   0  0  0  0  0  0  0  0  0  0  0  0
   -3.9871    2.1310   13.1030 C   0  0  0  0  0  0  0  0  0  0  0  0
   -4.9706    1.9928   11.9751 C   0  0  0  0  0  0  0  0  0  0  0  0
   -5.7863    2.7668   11.8510 O   0  0  0  0  0  0  0  0  0  0  0  0
   -4.7739    0.9474   11.1072 O   0  0  0  0  0  0  0  0  0  0  0  0
   -4.2449   -0.2359   11.5785 C   0  0  0  0  0  0  0  0  0  0  0  0
   -5.1366    2.5951   16.4809 O   0  0  0  0  0  0  0  0  0  0  0  0
   -6.1786    1.5935   17.3531 S   0  0  0  0  0  0  0  0  0  0  0  0
   -6.2351    2.2769   18.6966 O   0  0  0  0  0  0  0  0  0  0  0  0
   -7.5528    1.3614   16.6999 O   0  0  0  0  0  0  0  0  0  0  0  0
   -5.3035    0.3003   17.7213 N   0  0  0  0  0  0  0  0  0  0  0  0
   -4.4233    0.5946   18.1444 H   0  0  0  0  0  0  0  0  0  0  0  0
   -5.1115   -0.2330   16.8733 H   0  0  0  0  0  0  0  0  0  0  0  0
  4  5  1  0  0  0
  4 12  1  0  0  0
  4  1  1  0  0  0
  5  6  1  0  0  0
  5  9  1  0  0  0
  6  7  1  0  0  0
  6 10  1  0  0  0
  7  8  1  0  0  0
  7 11  1  0  0  0
  8 16  1  0  0  0
  8 12  1  0  0  0
 16 17  1  0  0  0
 17 18  1  0  0  0
 18 19  2  0  0  0
 18 20  1  0  0  0
  1  2  2  0  0  0
  1  3  2  0  0  0
  1 21  1  0  0  0
 21 22  1  0  0  0
 21 25  1  0  0  0
 22 23  1  0  0  0
 23 30  1  0  0  0
 23 24  1  0  0  0
 30 31  1  0  0  0
 31 32  2  0  0  0
 31 33  2  0  0  0
 31 34  1  0  0  0
 24 25  1  0  0  0
 25 26  1  0  0  0
 26 27  2  0  0  0
 26 28  1  0  0  0
 28 29  1  0  0  0
  9 13  1  0  0  0
 10 14  1  0  0  0
 11 15  1  0  0  0
 34 35  1  0  0  0
 34 36  1  0  0  0
M  END
> <minimizedAffinity>
-7.21563

$$$$
4ZX0_5L2_A_302


 36 37  0  0  0  0  0  0  0  0999 V2000
   -5.0996    5.9168   11.8492 S   0  0  0  0  0  0  0  0  0  0  0  0
   -4.5731    7.3500   12.0678 O   0  0  0  0  0  0  0  0  0  0  0  0
   -6.6253    5.7905   11.6902 O   0  0  0  0  0  0  0  0  0  0  0  0
   -4.5394    5.2785   10.2200 C   0  0  0  0  0  0  0  0  0  0  0  0
   -5.0429    6.2084    9.1921 C   0  0  0  0  0  0  0  0  0  0  0  0
   -4.2229    6.2272    7.9456 C   0  0  0  0  0  0  0  0  0  0  0  0
   -2.8416    5.7021    7.8905 C   0  0  0  0  0  0  0  0  0  0  0  0
   -2.2317    5.4634    9.2669 C   0  0  0  0  0  0  0  0  0  0  0  0
   -6.4947    6.0586    8.9692 O   0  0  0  0  0  0  0  0  0  0  0  0
   -4.8539    6.2053    6.6494 O   0  0  0  0  0  0  0  0  0  0  0  0
   -2.5042    4.8330    6.8528 O   0  0  0  0  0  0  0  0  0  0  0  0
   -3.1448    5.2360   10.4059 O   0  0  0  0  0  0  0  0  0  0  0  0
   -6.6769    5.1774    8.6069 H   0  0  0  0  0  0  0  0  0  0  0  0
   -4.9970    5.2860    6.3750 H   0  0  0  0  0  0  0  0  0  0  0  0
   -2.9315    3.9745    6.9983 H   0  0  0  0  0  0  0  0  0  0  0  0
   -0.9335    4.9797    9.3218 C   0  0  0  0  0  0  0  0  0  0  0  0
   -1.0028    3.5903    9.3630 O   0  0  0  0  0  0  0  0  0  0  0  0
   -0.6048    2.9796   10.5405 C   0  0  0  0  0  0  0  0  0  0  0  0
    0.2022    3.4516   11.2350 O   0  0  0  0  0  0  0  0  0  0  0  0
   -1.3227    1.6675   10.8549 C   0  0  0  0  0  0  0  0  0  0  0  0
   -4.6862    5.0995   12.9282 N   0  0  0  0  0  0  0  0  0  0  0  0
   -5.1546    4.0144   13.1022 C   0  0  0  0  0  0  0  0  0  0  0  0
   -4.5785    3.5498   14.5618 C   0  0  0  0  0  0  0  0  0  0  0  0
   -4.7496    4.5093   15.2044 C   0  0  0  0  0  0  0  0  0  0  0  0
   -4.4731    5.6998   14.2580 C   0  0  0  0  0  0  0  0  0  0  0  0
   -3.0638    6.1953   14.4230 C   0  0  0  0  0  0  0  0  0  0  0  0
   -2.8518    7.0358   15.1499 O   0  0  0  0  0  0  0  0  0  0  0  0
   -2.0898    5.5383   13.7129 O   0  0  0  0  0  0  0  0  0  0  0  0
   -1.1374    6.2674   13.0321 C   0  0  0  0  0  0  0  0  0  0  0  0
   -5.3078    2.2833   15.0178 O   0  0  0  0  0  0  0  0  0  0  0  0
   -4.6261    1.0048   15.8839 S   0  0  0  0  0  0  0  0  0  0  0  0
   -4.5603   -0.0894   14.8477 O   0  0  0  0  0  0  0  0  0  0  0  0
   -3.2797    1.3232   16.5582 O   0  0  0  0  0  0  0  0  0  0  0  0
   -5.8105    0.4529   16.8147 N   0  0  0  0  0  0  0  0  0  0  0  0
   -6.6399    0.2842   16.2454 H   0  0  0  0  0  0  0  0  0  0  0  0
   -6.0267    1.1425   17.5345 H   0  0  0  0  0  0  0  0  0  0  0  0
  4  5  1  0  0  0
  4 12  1  0  0  0
  4  1  1  0  0  0
  5  6  1  0  0  0
  5  9  1  0  0  0
  6  7  1  0  0  0
  6 10  1  0  0  0
  7  8  1  0  0  0
  7 11  1  0  0  0
  8 16  1  0  0  0
  8 12  1  0  0  0
 16 17  1  0  0  0
 17 18  1  0  0  0
 18 19  2  0  0  0
 18 20  1  0  0  0
  1  2  2  0  0  0
  1  3  2  0  0  0
  1 21  1  0  0  0
 21 22  1  0  0  0
 21 25  1  0  0  0
 22 23  1  0  0  0
 23 30  1  0  0  0
 23 24  1  0  0  0
 30 31  1  0  0  0
 31 32  2  0  0  0
 31 33  2  0  0  0
 31 34  1  0  0  0
 24 25  1  0  0  0
 25 26  1  0  0  0
 26 27  2  0  0  0
 26 28  1  0  0  0
 28 29  1  0  0  0
  9 13  1  0  0  0
 10 14  1  0  0  0
 11 15  1  0  0  0
 34 35  1  0  0  0
 34 36  1  0  0  0
M  END
> <minimizedAffinity>
-7.20008

$$$$
