4J21_AJ6_A_1204


 23 25  0  0  0  0  0  0  0  0999 V2000
  -12.2269    1.8193   14.3095 C   0  0  0  0  0  0  0  0  0  0  0  0
  -11.9277    2.4714   12.0318 C   0  0  0  0  0  0  0  0  0  0  0  0
  -11.6637    3.0933    9.6991 C   0  0  0  0  0  0  0  0  0  0  0  0
  -11.9097    4.8262   11.3869 C   0  0  0  0  0  0  0  0  0  0  0  0
  -12.0189    3.8651   12.4203 C   0  0  0  0  0  0  0  0  0  0  0  0
  -12.3879    5.7158   14.3412 C   0  0  0  0  0  0  0  0  0  0  0  0
  -12.2347    4.2375   13.8479 C   0  0  0  0  0  0  0  0  0  0  0  0
  -12.3277    3.2104   14.7391 C   0  0  0  0  0  0  0  0  0  0  0  0
  -12.3464    0.9009   15.1406 O   0  0  0  0  0  0  0  0  0  0  0  0
  -12.0411    1.4951   12.9966 N   0  0  0  0  0  0  0  0  0  0  0  0
  -11.7362    2.1100   10.7010 C   0  0  0  0  0  0  0  0  0  0  0  0
  -11.7153    4.4403   10.0708 C   0  0  0  0  0  0  0  0  0  0  0  0
  -11.9873    0.5475   12.7350 H   0  0  0  0  0  0  0  0  0  0  0  0
   -9.9780    2.8189    6.3179 C   0  0  0  0  0  0  0  0  0  0  0  0
  -12.4640    2.0807    7.4798 C   0  0  0  0  0  0  0  0  0  0  0  0
  -11.4495    2.7423    8.2539 C   0  0  0  0  0  0  0  0  0  0  0  0
  -10.2159    3.0881    7.6500 C   0  0  0  0  0  0  0  0  0  0  0  0
  -10.9792    2.2027    5.5765 C   0  0  0  0  0  0  0  0  0  0  0  0
  -10.7514    1.9361    4.2299 N   0  0  0  0  0  0  0  0  0  0  0  0
  -12.2083    1.8271    6.1406 C   0  0  0  0  0  0  0  0  0  0  0  0
  -14.0327    1.6269    8.1381 Cl  0  0  0  0  0  0  0  0  0  0  0  0
  -11.4493    1.5002    3.6894 H   0  0  0  0  0  0  0  0  0  0  0  0
   -9.8922    2.1833    3.8177 H   0  0  0  0  0  0  0  0  0  0  0  0
 19 18  1  0  0  0
 18 20  2  0  0  0
 18 14  1  0  0  0
 20 15  1  0  0  0
 14 17  2  0  0  0
 15 16  2  0  0  0
 15 21  1  0  0  0
 17 16  1  0  0  0
 16  3  1  0  0  0
  3 12  2  0  0  0
  3 11  1  0  0  0
 12  4  1  0  0  0
 11  2  2  0  0  0
  4  5  2  0  0  0
  2  5  1  0  0  0
  2 10  1  0  0  0
  5  7  1  0  0  0
 10  1  1  0  0  0
  7  6  1  0  0  0
  7  8  2  0  0  0
  1  8  1  0  0  0
  1  9  2  0  0  0
 10 13  1  0  0  0
 19 22  1  0  0  0
 19 23  1  0  0  0
M  END
> <minimizedAffinity>
-12.29572

$$$$
4J21_AJ6_A_1204


 23 25  0  0  0  0  0  0  0  0999 V2000
  -10.0012    0.4495    7.3056 C   0  0  0  0  0  0  0  0  0  0  0  0
  -10.8032    1.6832    9.1864 C   0  0  0  0  0  0  0  0  0  0  0  0
  -11.5753    2.9138   11.1325 C   0  0  0  0  0  0  0  0  0  0  0  0
  -11.3611    4.0524    8.9948 C   0  0  0  0  0  0  0  0  0  0  0  0
  -10.9017    2.8721    8.3628 C   0  0  0  0  0  0  0  0  0  0  0  0
  -10.5497    4.0759    5.9800 C   0  0  0  0  0  0  0  0  0  0  0  0
  -10.5139    2.8269    6.9237 C   0  0  0  0  0  0  0  0  0  0  0  0
  -10.0828    1.6256    6.4454 C   0  0  0  0  0  0  0  0  0  0  0  0
   -9.5745   -0.6269    6.8497 O   0  0  0  0  0  0  0  0  0  0  0  0
  -10.3488    0.5108    8.6242 N   0  0  0  0  0  0  0  0  0  0  0  0
  -11.1527    1.7143   10.5337 C   0  0  0  0  0  0  0  0  0  0  0  0
  -11.7064    4.0557   10.3363 C   0  0  0  0  0  0  0  0  0  0  0  0
  -10.2735   -0.2965    9.1827 H   0  0  0  0  0  0  0  0  0  0  0  0
  -12.5500    1.7790   14.6127 C   0  0  0  0  0  0  0  0  0  0  0  0
  -12.1642    4.2421   13.2491 C   0  0  0  0  0  0  0  0  0  0  0  0
  -11.9684    2.9846   12.5811 C   0  0  0  0  0  0  0  0  0  0  0  0
  -12.1576    1.7731   13.2900 C   0  0  0  0  0  0  0  0  0  0  0  0
  -12.7611    3.0030   15.2366 C   0  0  0  0  0  0  0  0  0  0  0  0
  -13.1663    3.0181   16.5678 N   0  0  0  0  0  0  0  0  0  0  0  0
  -12.5671    4.2259   14.5760 C   0  0  0  0  0  0  0  0  0  0  0  0
  -11.9687    5.7975   12.4474 Cl  0  0  0  0  0  0  0  0  0  0  0  0
  -13.3204    3.8759   17.0257 H   0  0  0  0  0  0  0  0  0  0  0  0
  -13.2988    2.1710   17.0516 H   0  0  0  0  0  0  0  0  0  0  0  0
 19 18  1  0  0  0
 18 20  2  0  0  0
 18 14  1  0  0  0
 20 15  1  0  0  0
 14 17  2  0  0  0
 15 16  2  0  0  0
 15 21  1  0  0  0
 17 16  1  0  0  0
 16  3  1  0  0  0
  3 12  2  0  0  0
  3 11  1  0  0  0
 12  4  1  0  0  0
 11  2  2  0  0  0
  4  5  2  0  0  0
  2  5  1  0  0  0
  2 10  1  0  0  0
  5  7  1  0  0  0
 10  1  1  0  0  0
  7  6  1  0  0  0
  7  8  2  0  0  0
  1  8  1  0  0  0
  1  9  2  0  0  0
 10 13  1  0  0  0
 19 22  1  0  0  0
 19 23  1  0  0  0
M  END
> <minimizedAffinity>
-10.64649

$$$$
4J21_AJ6_A_1204


 23 25  0  0  0  0  0  0  0  0999 V2000
  -12.3544    6.2885   13.5671 C   0  0  0  0  0  0  0  0  0  0  0  0
  -12.0059    4.7198   11.8007 C   0  0  0  0  0  0  0  0  0  0  0  0
  -11.6070    3.1590    9.9834 C   0  0  0  0  0  0  0  0  0  0  0  0
  -11.9064    2.3214   12.2464 C   0  0  0  0  0  0  0  0  0  0  0  0
  -12.0706    3.6316   12.7562 C   0  0  0  0  0  0  0  0  0  0  0  0
  -12.3227    2.7969   15.3039 C   0  0  0  0  0  0  0  0  0  0  0  0
  -12.2847    3.9118   14.2050 C   0  0  0  0  0  0  0  0  0  0  0  0
  -12.4217    5.2207   14.5596 C   0  0  0  0  0  0  0  0  0  0  0  0
  -12.4519    7.4768   13.9235 O   0  0  0  0  0  0  0  0  0  0  0  0
  -12.1459    6.0156   12.2460 N   0  0  0  0  0  0  0  0  0  0  0  0
  -11.7966    4.4725   10.4467 C   0  0  0  0  0  0  0  0  0  0  0  0
  -11.7034    2.1020   10.8938 C   0  0  0  0  0  0  0  0  0  0  0  0
  -12.0947    6.7574   11.6007 H   0  0  0  0  0  0  0  0  0  0  0  0
   -9.9545    3.0806    6.5757 C   0  0  0  0  0  0  0  0  0  0  0  0
  -12.3567    2.1259    7.7560 C   0  0  0  0  0  0  0  0  0  0  0  0
  -11.3868    2.8522    8.5291 C   0  0  0  0  0  0  0  0  0  0  0  0
  -10.1936    3.3060    7.9157 C   0  0  0  0  0  0  0  0  0  0  0  0
  -10.9144    2.4000    5.8359 C   0  0  0  0  0  0  0  0  0  0  0  0
  -10.6858    2.1765    4.4816 N   0  0  0  0  0  0  0  0  0  0  0  0
  -12.1013    1.9175    6.4089 C   0  0  0  0  0  0  0  0  0  0  0  0
  -13.8746    1.5367    8.4261 Cl  0  0  0  0  0  0  0  0  0  0  0  0
  -11.3547    1.6962    3.9422 H   0  0  0  0  0  0  0  0  0  0  0  0
   -9.8551    2.4988    4.0629 H   0  0  0  0  0  0  0  0  0  0  0  0
 19 18  1  0  0  0
 18 20  2  0  0  0
 18 14  1  0  0  0
 20 15  1  0  0  0
 14 17  2  0  0  0
 15 16  2  0  0  0
 15 21  1  0  0  0
 17 16  1  0  0  0
 16  3  1  0  0  0
  3 12  2  0  0  0
  3 11  1  0  0  0
 12  4  1  0  0  0
 11  2  2  0  0  0
  4  5  2  0  0  0
  2  5  1  0  0  0
  2 10  1  0  0  0
  5  7  1  0  0  0
 10  1  1  0  0  0
  7  6  1  0  0  0
  7  8  2  0  0  0
  1  8  1  0  0  0
  1  9  2  0  0  0
 10 13  1  0  0  0
 19 22  1  0  0  0
 19 23  1  0  0  0
M  END
> <minimizedAffinity>
-10.52856

$$$$
4J21_AJ6_A_1204


 23 25  0  0  0  0  0  0  0  0999 V2000
  -13.3988    1.7212    6.1155 C   0  0  0  0  0  0  0  0  0  0  0  0
  -12.5732    2.1422    8.3163 C   0  0  0  0  0  0  0  0  0  0  0  0
  -11.7643    2.5229   10.5743 C   0  0  0  0  0  0  0  0  0  0  0  0
  -10.2110    2.6209    8.7062 C   0  0  0  0  0  0  0  0  0  0  0  0
  -11.2392    2.3257    7.7793 C   0  0  0  0  0  0  0  0  0  0  0  0
   -9.5726    2.3261    5.6642 C   0  0  0  0  0  0  0  0  0  0  0  0
  -10.9897    2.1869    6.3158 C   0  0  0  0  0  0  0  0  0  0  0  0
  -12.0699    1.8947    5.5376 C   0  0  0  0  0  0  0  0  0  0  0  0
  -14.3614    1.4242    5.3849 O   0  0  0  0  0  0  0  0  0  0  0  0
  -13.6080    1.8399    7.4591 N   0  0  0  0  0  0  0  0  0  0  0  0
  -12.8178    2.2593    9.6819 C   0  0  0  0  0  0  0  0  0  0  0  0
  -10.4816    2.7360   10.0598 C   0  0  0  0  0  0  0  0  0  0  0  0
  -14.5137    1.7071    7.8215 H   0  0  0  0  0  0  0  0  0  0  0  0
  -12.3963    1.5613   14.1834 C   0  0  0  0  0  0  0  0  0  0  0  0
  -12.0551    3.9527   12.6867 C   0  0  0  0  0  0  0  0  0  0  0  0
  -11.9907    2.6642   12.0530 C   0  0  0  0  0  0  0  0  0  0  0  0
  -12.1537    1.4894   12.8271 C   0  0  0  0  0  0  0  0  0  0  0  0
  -12.4821    2.8155   14.7763 C   0  0  0  0  0  0  0  0  0  0  0  0
  -12.7359    2.8976   16.1420 N   0  0  0  0  0  0  0  0  0  0  0  0
  -12.3085    4.0033   14.0492 C   0  0  0  0  0  0  0  0  0  0  0  0
  -11.8808    5.4672   11.8058 Cl  0  0  0  0  0  0  0  0  0  0  0  0
  -12.8000    3.7776   16.5787 H   0  0  0  0  0  0  0  0  0  0  0  0
  -12.8515    2.0757   16.6715 H   0  0  0  0  0  0  0  0  0  0  0  0
 19 18  1  0  0  0
 18 20  2  0  0  0
 18 14  1  0  0  0
 20 15  1  0  0  0
 14 17  2  0  0  0
 15 16  2  0  0  0
 15 21  1  0  0  0
 17 16  1  0  0  0
 16  3  1  0  0  0
  3 12  2  0  0  0
  3 11  1  0  0  0
 12  4  1  0  0  0
 11  2  2  0  0  0
  4  5  2  0  0  0
  2  5  1  0  0  0
  2 10  1  0  0  0
  5  7  1  0  0  0
 10  1  1  0  0  0
  7  6  1  0  0  0
  7  8  2  0  0  0
  1  8  1  0  0  0
  1  9  2  0  0  0
 10 13  1  0  0  0
 19 22  1  0  0  0
 19 23  1  0  0  0
M  END
> <minimizedAffinity>
-10.06835

$$$$
4J21_AJ6_A_1204


 23 25  0  0  0  0  0  0  0  0999 V2000
  -12.1158    5.4747   12.9924 C   0  0  0  0  0  0  0  0  0  0  0  0
  -11.6207    4.1855   11.0442 C   0  0  0  0  0  0  0  0  0  0  0  0
  -11.0688    2.9087    9.0535 C   0  0  0  0  0  0  0  0  0  0  0  0
  -11.6979    1.7457   11.0941 C   0  0  0  0  0  0  0  0  0  0  0  0
  -11.8615    2.9667   11.7912 C   0  0  0  0  0  0  0  0  0  0  0  0
  -12.4801    1.7582   14.1167 C   0  0  0  0  0  0  0  0  0  0  0  0
  -12.2461    3.0278   13.2306 C   0  0  0  0  0  0  0  0  0  0  0  0
  -12.3629    4.2703   13.7787 C   0  0  0  0  0  0  0  0  0  0  0  0
  -12.1996    6.5953   13.5270 O   0  0  0  0  0  0  0  0  0  0  0  0
  -11.7528    5.4009   11.6786 N   0  0  0  0  0  0  0  0  0  0  0  0
  -11.2514    4.1421    9.7025 C   0  0  0  0  0  0  0  0  0  0  0  0
  -11.3336    1.7300    9.7577 C   0  0  0  0  0  0  0  0  0  0  0  0
  -11.5825    6.2302   11.1762 H   0  0  0  0  0  0  0  0  0  0  0  0
  -10.5676    3.9229    5.4383 C   0  0  0  0  0  0  0  0  0  0  0  0
  -10.1251    1.6201    7.0435 C   0  0  0  0  0  0  0  0  0  0  0  0
  -10.6788    2.8218    7.6050 C   0  0  0  0  0  0  0  0  0  0  0  0
  -10.8777    3.9574    6.7823 C   0  0  0  0  0  0  0  0  0  0  0  0
  -10.0579    2.7448    4.9051 C   0  0  0  0  0  0  0  0  0  0  0  0
   -9.7513    2.6982    3.5486 N   0  0  0  0  0  0  0  0  0  0  0  0
   -9.8284    1.6034    5.6889 C   0  0  0  0  0  0  0  0  0  0  0  0
   -9.8568    0.1550    7.9823 Cl  0  0  0  0  0  0  0  0  0  0  0  0
   -9.3894    1.8721    3.1539 H   0  0  0  0  0  0  0  0  0  0  0  0
   -9.8962    3.4913    2.9836 H   0  0  0  0  0  0  0  0  0  0  0  0
 19 18  1  0  0  0
 18 20  2  0  0  0
 18 14  1  0  0  0
 20 15  1  0  0  0
 14 17  2  0  0  0
 15 16  2  0  0  0
 15 21  1  0  0  0
 17 16  1  0  0  0
 16  3  1  0  0  0
  3 12  2  0  0  0
  3 11  1  0  0  0
 12  4  1  0  0  0
 11  2  2  0  0  0
  4  5  2  0  0  0
  2  5  1  0  0  0
  2 10  1  0  0  0
  5  7  1  0  0  0
 10  1  1  0  0  0
  7  6  1  0  0  0
  7  8  2  0  0  0
  1  8  1  0  0  0
  1  9  2  0  0  0
 10 13  1  0  0  0
 19 22  1  0  0  0
 19 23  1  0  0  0
M  END
> <minimizedAffinity>
-9.42681

$$$$
4J21_AJ6_A_1204


 23 25  0  0  0  0  0  0  0  0999 V2000
  -12.0840    1.7870   13.9644 C   0  0  0  0  0  0  0  0  0  0  0  0
  -12.1550    2.3623   11.6478 C   0  0  0  0  0  0  0  0  0  0  0  0
  -12.2723    2.9085    9.2844 C   0  0  0  0  0  0  0  0  0  0  0  0
  -12.1005    4.6940   10.9259 C   0  0  0  0  0  0  0  0  0  0  0  0
  -12.0852    3.7677   11.9961 C   0  0  0  0  0  0  0  0  0  0  0  0
  -11.9848    5.6848   13.8845 C   0  0  0  0  0  0  0  0  0  0  0  0
  -12.0180    4.1882   13.4252 C   0  0  0  0  0  0  0  0  0  0  0  0
  -12.0164    3.1916   14.3549 C   0  0  0  0  0  0  0  0  0  0  0  0
  -12.1122    0.8992   14.8359 O   0  0  0  0  0  0  0  0  0  0  0  0
  -12.1571    1.4194   12.6518 N   0  0  0  0  0  0  0  0  0  0  0  0
  -12.2281    1.9568   10.3179 C   0  0  0  0  0  0  0  0  0  0  0  0
  -12.1696    4.2643    9.6109 C   0  0  0  0  0  0  0  0  0  0  0  0
  -12.2122    0.4644   12.4190 H   0  0  0  0  0  0  0  0  0  0  0  0
  -13.6450    1.5018    6.0461 C   0  0  0  0  0  0  0  0  0  0  0  0
  -11.2325    2.7040    6.9460 C   0  0  0  0  0  0  0  0  0  0  0  0
  -12.3429    2.5091    7.8376 C   0  0  0  0  0  0  0  0  0  0  0  0
  -13.5366    1.9171    7.3573 C   0  0  0  0  0  0  0  0  0  0  0  0
  -12.5528    1.6732    5.2036 C   0  0  0  0  0  0  0  0  0  0  0  0
  -12.6500    1.2486    3.8820 N   0  0  0  0  0  0  0  0  0  0  0  0
  -11.3587    2.2717    5.6344 C   0  0  0  0  0  0  0  0  0  0  0  0
   -9.7044    3.4156    7.4547 Cl  0  0  0  0  0  0  0  0  0  0  0  0
  -11.8863    1.3620    3.2711 H   0  0  0  0  0  0  0  0  0  0  0  0
  -13.4824    0.8348    3.5579 H   0  0  0  0  0  0  0  0  0  0  0  0
 19 18  1  0  0  0
 18 20  2  0  0  0
 18 14  1  0  0  0
 20 15  1  0  0  0
 14 17  2  0  0  0
 15 16  2  0  0  0
 15 21  1  0  0  0
 17 16  1  0  0  0
 16  3  1  0  0  0
  3 12  2  0  0  0
  3 11  1  0  0  0
 12  4  1  0  0  0
 11  2  2  0  0  0
  4  5  2  0  0  0
  2  5  1  0  0  0
  2 10  1  0  0  0
  5  7  1  0  0  0
 10  1  1  0  0  0
  7  6  1  0  0  0
  7  8  2  0  0  0
  1  8  1  0  0  0
  1  9  2  0  0  0
 10 13  1  0  0  0
 19 22  1  0  0  0
 19 23  1  0  0  0
M  END
> <minimizedAffinity>
-9.36360

$$$$
