6EED_J6A_A_1102


 33 35  0  0  0  0  0  0  0  0999 V2000
   14.4565   10.8915   12.5825 C   0  0  0  0  0  0  0  0  0  0  0  0
   13.5503   11.3686   11.4719 C   0  0  0  0  0  0  0  0  0  0  0  0
   12.4160   10.9059   11.2870 O   0  0  0  0  0  0  0  0  0  0  0  0
   14.1154   12.2685   10.6779 N   0  0  0  0  0  0  0  0  0  0  0  0
   13.2861   12.7882    9.6576 O   0  0  0  0  0  0  0  0  0  0  0  0
   15.0503   12.5555   10.7915 H   0  0  0  0  0  0  0  0  0  0  0  0
   12.4080   12.3801    9.7154 H   0  0  0  0  0  0  0  0  0  0  0  0
   13.9475   11.1150   13.9220 C   0  0  0  0  0  0  0  0  0  0  0  0
   13.8198   10.0714   14.8318 C   0  0  0  0  0  0  0  0  0  0  0  0
   13.3865   10.3514   16.1441 C   0  0  0  0  0  0  0  0  0  0  0  0
   13.6350   12.4163   14.3210 C   0  0  0  0  0  0  0  0  0  0  0  0
   13.2034   12.6963   15.6252 C   0  0  0  0  0  0  0  0  0  0  0  0
   13.0684   11.6509   16.5503 C   0  0  0  0  0  0  0  0  0  0  0  0
   12.7137   11.8942   17.9096 C   0  0  0  0  0  0  0  0  0  0  0  0
   11.6157   11.3297   18.5706 C   0  0  0  0  0  0  0  0  0  0  0  0
   11.4148   11.6010   19.9219 C   0  0  0  0  0  0  0  0  0  0  0  0
   10.3866   11.1212   20.5836 F   0  0  0  0  0  0  0  0  0  0  0  0
   12.2932   12.3917   20.6243 C   0  0  0  0  0  0  0  0  0  0  0  0
   12.0516   12.6710   21.9509 F   0  0  0  0  0  0  0  0  0  0  0  0
   13.3782   12.9593   20.0054 C   0  0  0  0  0  0  0  0  0  0  0  0
   14.2796   13.7180   20.7605 F   0  0  0  0  0  0  0  0  0  0  0  0
   13.6115   12.6837   18.6609 C   0  0  0  0  0  0  0  0  0  0  0  0
   15.9598    8.9366   12.2097 C   0  0  0  0  0  0  0  0  0  0  0  0
   17.0212    9.5718   12.2760 O   0  0  0  0  0  0  0  0  0  0  0  0
   14.7476    9.4512   12.3538 N   0  0  0  0  0  0  0  0  0  0  0  0
   13.9821    8.8339   12.3058 H   0  0  0  0  0  0  0  0  0  0  0  0
   15.9180    7.3739   11.9929 C   0  0  0  0  0  0  0  0  0  0  0  0
   15.8591    6.9293   14.5378 C   0  0  0  0  0  0  0  0  0  0  0  0
   15.1221    6.1434   15.6758 C   0  0  0  0  0  0  0  0  0  0  0  0
   15.1222    4.6340   15.3117 C   0  0  0  0  0  0  0  0  0  0  0  0
   14.4005    4.4189   13.9752 C   0  0  0  0  0  0  0  0  0  0  0  0
   15.1680    5.1332   12.8917 C   0  0  0  0  0  0  0  0  0  0  0  0
   15.1791    6.6434   13.1786 C   0  0  0  0  0  0  0  0  0  0  0  0
  5  4  1  0  0  0
  4  2  1  0  0  0
  3  2  2  0  0  0
  2  1  1  0  0  0
 27 23  1  0  0  0
 27 33  1  0  0  0
 25  1  1  0  0  0
 25 23  1  0  0  0
  1  8  1  0  0  0
 23 24  2  0  0  0
 32 33  1  0  0  0
 32 31  1  0  0  0
 33 28  1  0  0  0
  8 11  2  0  0  0
  8  9  1  0  0  0
 31 30  1  0  0  0
 11 12  1  0  0  0
  9 10  2  0  0  0
 28 29  1  0  0  0
 30 29  1  0  0  0
 12 13  2  0  0  0
 10 13  1  0  0  0
 13 14  1  0  0  0
 14 15  2  0  0  0
 14 22  1  0  0  0
 15 16  1  0  0  0
 22 20  2  0  0  0
 16 17  1  0  0  0
 16 18  2  0  0  0
 20 18  1  0  0  0
 20 21  1  0  0  0
 18 19  1  0  0  0
 25 26  1  0  0  0
  4  6  1  0  0  0
  5  7  1  0  0  0
M  END
> <minimizedAffinity>
-11.69197

$$$$
6EED_J6A_A_1102


 33 35  0  0  0  0  0  0  0  0999 V2000
   14.4415   10.9261   12.5831 C   0  0  0  0  0  0  0  0  0  0  0  0
   13.5329   11.4117   11.4782 C   0  0  0  0  0  0  0  0  0  0  0  0
   12.3484   11.0612   11.3818 O   0  0  0  0  0  0  0  0  0  0  0  0
   14.1461   12.1820   10.5892 N   0  0  0  0  0  0  0  0  0  0  0  0
   13.3230   12.7085    9.5673 O   0  0  0  0  0  0  0  0  0  0  0  0
   15.1104   12.3743   10.6378 H   0  0  0  0  0  0  0  0  0  0  0  0
   12.4115   12.4031    9.6969 H   0  0  0  0  0  0  0  0  0  0  0  0
   13.9391   11.1468   13.9255 C   0  0  0  0  0  0  0  0  0  0  0  0
   13.7970   10.0980   14.8273 C   0  0  0  0  0  0  0  0  0  0  0  0
   13.3712   10.3741   16.1428 C   0  0  0  0  0  0  0  0  0  0  0  0
   13.6482   12.4496   14.3358 C   0  0  0  0  0  0  0  0  0  0  0  0
   13.2242   12.7259   15.6433 C   0  0  0  0  0  0  0  0  0  0  0  0
   13.0746   11.6752   16.5603 C   0  0  0  0  0  0  0  0  0  0  0  0
   12.7270   11.9131   17.9223 C   0  0  0  0  0  0  0  0  0  0  0  0
   11.6279   11.3522   18.5844 C   0  0  0  0  0  0  0  0  0  0  0  0
   11.4341   11.6171   19.9381 C   0  0  0  0  0  0  0  0  0  0  0  0
   10.4053   11.1404   20.6011 F   0  0  0  0  0  0  0  0  0  0  0  0
   12.3205   12.3978   20.6414 C   0  0  0  0  0  0  0  0  0  0  0  0
   12.0861   12.6711   21.9706 F   0  0  0  0  0  0  0  0  0  0  0  0
   13.4069   12.9617   20.0215 C   0  0  0  0  0  0  0  0  0  0  0  0
   14.3164   13.7100   20.7773 F   0  0  0  0  0  0  0  0  0  0  0  0
   13.6330   12.6922   18.6745 C   0  0  0  0  0  0  0  0  0  0  0  0
   15.9298    8.9732   12.1453 C   0  0  0  0  0  0  0  0  0  0  0  0
   16.9913    9.6116   12.1546 O   0  0  0  0  0  0  0  0  0  0  0  0
   14.7249    9.4853   12.3476 N   0  0  0  0  0  0  0  0  0  0  0  0
   13.9598    8.8658   12.3415 H   0  0  0  0  0  0  0  0  0  0  0  0
   15.8816    7.4092   11.9392 C   0  0  0  0  0  0  0  0  0  0  0  0
   15.8525    7.8500    9.3931 C   0  0  0  0  0  0  0  0  0  0  0  0
   16.4111    7.3661    8.0112 C   0  0  0  0  0  0  0  0  0  0  0  0
   16.0930    5.8545    7.8535 C   0  0  0  0  0  0  0  0  0  0  0  0
   16.7499    5.0610    8.9902 C   0  0  0  0  0  0  0  0  0  0  0  0
   16.1466    5.5036   10.2993 C   0  0  0  0  0  0  0  0  0  0  0  0
   16.4537    6.9920   10.5306 C   0  0  0  0  0  0  0  0  0  0  0  0
  5  4  1  0  0  0
  4  2  1  0  0  0
  3  2  2  0  0  0
  2  1  1  0  0  0
 27 23  1  0  0  0
 27 33  1  0  0  0
 25  1  1  0  0  0
 25 23  1  0  0  0
  1  8  1  0  0  0
 23 24  2  0  0  0
 32 33  1  0  0  0
 32 31  1  0  0  0
 33 28  1  0  0  0
  8 11  2  0  0  0
  8  9  1  0  0  0
 31 30  1  0  0  0
 11 12  1  0  0  0
  9 10  2  0  0  0
 28 29  1  0  0  0
 30 29  1  0  0  0
 12 13  2  0  0  0
 10 13  1  0  0  0
 13 14  1  0  0  0
 14 15  2  0  0  0
 14 22  1  0  0  0
 15 16  1  0  0  0
 22 20  2  0  0  0
 16 17  1  0  0  0
 16 18  2  0  0  0
 20 18  1  0  0  0
 20 21  1  0  0  0
 18 19  1  0  0  0
 25 26  1  0  0  0
  4  6  1  0  0  0
  5  7  1  0  0  0
M  END
> <minimizedAffinity>
-11.23199

$$$$
6EED_J6A_A_1102


 33 35  0  0  0  0  0  0  0  0999 V2000
   14.6389    9.9992   12.6941 C   0  0  0  0  0  0  0  0  0  0  0  0
   15.8993   10.4863   12.0188 C   0  0  0  0  0  0  0  0  0  0  0  0
   17.0090   10.4569   12.5692 O   0  0  0  0  0  0  0  0  0  0  0  0
   15.6874   11.0129   10.8198 N   0  0  0  0  0  0  0  0  0  0  0  0
   16.8449   11.4304   10.1236 O   0  0  0  0  0  0  0  0  0  0  0  0
   14.7840   11.1068   10.4400 H   0  0  0  0  0  0  0  0  0  0  0  0
   17.6297   11.2527   10.6652 H   0  0  0  0  0  0  0  0  0  0  0  0
   14.7665    8.7252   13.3752 C   0  0  0  0  0  0  0  0  0  0  0  0
   15.3492    7.6266   12.7532 C   0  0  0  0  0  0  0  0  0  0  0  0
   15.5139    6.4305   13.4815 C   0  0  0  0  0  0  0  0  0  0  0  0
   14.3470    8.6203   14.7030 C   0  0  0  0  0  0  0  0  0  0  0  0
   14.5094    7.4316   15.4284 C   0  0  0  0  0  0  0  0  0  0  0  0
   15.0933    6.3164   14.8101 C   0  0  0  0  0  0  0  0  0  0  0  0
   15.3560    5.1132   15.5284 C   0  0  0  0  0  0  0  0  0  0  0  0
   15.3503    3.8262   14.9765 C   0  0  0  0  0  0  0  0  0  0  0  0
   15.6857    2.7357   15.7754 C   0  0  0  0  0  0  0  0  0  0  0  0
   15.6693    1.5048   15.3171 F   0  0  0  0  0  0  0  0  0  0  0  0
   16.0497    2.9056   17.0902 C   0  0  0  0  0  0  0  0  0  0  0  0
   16.3435    1.8066   17.8661 F   0  0  0  0  0  0  0  0  0  0  0  0
   16.0651    4.1535   17.6603 C   0  0  0  0  0  0  0  0  0  0  0  0
   16.4882    4.2969   18.9864 F   0  0  0  0  0  0  0  0  0  0  0  0
   15.7554    5.2604   16.8747 C   0  0  0  0  0  0  0  0  0  0  0  0
   13.0322   11.7209   13.5157 C   0  0  0  0  0  0  0  0  0  0  0  0
   12.1748   11.5284   12.6427 O   0  0  0  0  0  0  0  0  0  0  0  0
   14.1755   11.0608   13.6268 N   0  0  0  0  0  0  0  0  0  0  0  0
   14.7622   11.2903   14.3833 H   0  0  0  0  0  0  0  0  0  0  0  0
   12.8407   12.7732   14.6763 C   0  0  0  0  0  0  0  0  0  0  0  0
   11.6211   12.0441   16.8346 C   0  0  0  0  0  0  0  0  0  0  0  0
   11.8172   11.4172   18.2575 C   0  0  0  0  0  0  0  0  0  0  0  0
   12.8795   12.2529   19.0217 C   0  0  0  0  0  0  0  0  0  0  0  0
   14.2080   12.2361   18.2548 C   0  0  0  0  0  0  0  0  0  0  0  0
   14.0023   12.9022   16.9179 C   0  0  0  0  0  0  0  0  0  0  0  0
   12.9786   12.1022   16.0962 C   0  0  0  0  0  0  0  0  0  0  0  0
  5  4  1  0  0  0
  4  2  1  0  0  0
  3  2  2  0  0  0
  2  1  1  0  0  0
 27 23  1  0  0  0
 27 33  1  0  0  0
 25  1  1  0  0  0
 25 23  1  0  0  0
  1  8  1  0  0  0
 23 24  2  0  0  0
 32 33  1  0  0  0
 32 31  1  0  0  0
 33 28  1  0  0  0
  8 11  2  0  0  0
  8  9  1  0  0  0
 31 30  1  0  0  0
 11 12  1  0  0  0
  9 10  2  0  0  0
 28 29  1  0  0  0
 30 29  1  0  0  0
 12 13  2  0  0  0
 10 13  1  0  0  0
 13 14  1  0  0  0
 14 15  2  0  0  0
 14 22  1  0  0  0
 15 16  1  0  0  0
 22 20  2  0  0  0
 16 17  1  0  0  0
 16 18  2  0  0  0
 20 18  1  0  0  0
 20 21  1  0  0  0
 18 19  1  0  0  0
 25 26  1  0  0  0
  4  6  1  0  0  0
  5  7  1  0  0  0
M  END
> <minimizedAffinity>
-10.71851

$$$$
6EED_J6A_A_1102


 33 35  0  0  0  0  0  0  0  0999 V2000
   15.4991   10.2226   11.2537 C   0  0  0  0  0  0  0  0  0  0  0  0
   14.2146   11.0016   11.0949 C   0  0  0  0  0  0  0  0  0  0  0  0
   13.1275   10.5979   11.5313 O   0  0  0  0  0  0  0  0  0  0  0  0
   14.3539   12.1120   10.3827 N   0  0  0  0  0  0  0  0  0  0  0  0
   13.1905   12.9052   10.2555 O   0  0  0  0  0  0  0  0  0  0  0  0
   15.2107   12.3668    9.9700 H   0  0  0  0  0  0  0  0  0  0  0  0
   12.4580   12.4835   10.7314 H   0  0  0  0  0  0  0  0  0  0  0  0
   15.4140    9.0839   12.1478 C   0  0  0  0  0  0  0  0  0  0  0  0
   15.7755    7.8075   11.7315 C   0  0  0  0  0  0  0  0  0  0  0  0
   15.7419    6.7457   12.6588 C   0  0  0  0  0  0  0  0  0  0  0  0
   15.0155    9.2879   13.4706 C   0  0  0  0  0  0  0  0  0  0  0  0
   14.9809    8.2332   14.3937 C   0  0  0  0  0  0  0  0  0  0  0  0
   15.3408    6.9411   13.9839 C   0  0  0  0  0  0  0  0  0  0  0  0
   15.4020    5.8531   14.9033 C   0  0  0  0  0  0  0  0  0  0  0  0
   15.3305    4.4984   14.5562 C   0  0  0  0  0  0  0  0  0  0  0  0
   15.4659    3.5284   15.5467 C   0  0  0  0  0  0  0  0  0  0  0  0
   15.3790    2.2449   15.2816 F   0  0  0  0  0  0  0  0  0  0  0  0
   15.6967    3.8796   16.8556 C   0  0  0  0  0  0  0  0  0  0  0  0
   15.7927    2.9009   17.8197 F   0  0  0  0  0  0  0  0  0  0  0  0
   15.7719    5.1981   17.2276 C   0  0  0  0  0  0  0  0  0  0  0  0
   16.0574    5.5202   18.5592 F   0  0  0  0  0  0  0  0  0  0  0  0
   15.6621    6.1842   16.2510 C   0  0  0  0  0  0  0  0  0  0  0  0
   17.1375   10.1041    9.3769 C   0  0  0  0  0  0  0  0  0  0  0  0
   18.0365   10.7380    9.9464 O   0  0  0  0  0  0  0  0  0  0  0  0
   15.9574    9.8080    9.9010 N   0  0  0  0  0  0  0  0  0  0  0  0
   15.3373    9.2736    9.3540 H   0  0  0  0  0  0  0  0  0  0  0  0
   17.3101    9.5020    7.9283 C   0  0  0  0  0  0  0  0  0  0  0  0
   15.9417    7.3112    8.0007 C   0  0  0  0  0  0  0  0  0  0  0  0
   16.0429    5.7493    8.0793 C   0  0  0  0  0  0  0  0  0  0  0  0
   16.8976    5.3731    9.3198 C   0  0  0  0  0  0  0  0  0  0  0  0
   18.2996    5.9826    9.1927 C   0  0  0  0  0  0  0  0  0  0  0  0
   18.1739    7.4851    9.1840 C   0  0  0  0  0  0  0  0  0  0  0  0
   17.3598    7.9265    7.9571 C   0  0  0  0  0  0  0  0  0  0  0  0
  5  4  1  0  0  0
  4  2  1  0  0  0
  3  2  2  0  0  0
  2  1  1  0  0  0
 27 23  1  0  0  0
 27 33  1  0  0  0
 25  1  1  0  0  0
 25 23  1  0  0  0
  1  8  1  0  0  0
 23 24  2  0  0  0
 32 33  1  0  0  0
 32 31  1  0  0  0
 33 28  1  0  0  0
  8 11  2  0  0  0
  8  9  1  0  0  0
 31 30  1  0  0  0
 11 12  1  0  0  0
  9 10  2  0  0  0
 28 29  1  0  0  0
 30 29  1  0  0  0
 12 13  2  0  0  0
 10 13  1  0  0  0
 13 14  1  0  0  0
 14 15  2  0  0  0
 14 22  1  0  0  0
 15 16  1  0  0  0
 22 20  2  0  0  0
 16 17  1  0  0  0
 16 18  2  0  0  0
 20 18  1  0  0  0
 20 21  1  0  0  0
 18 19  1  0  0  0
 25 26  1  0  0  0
  4  6  1  0  0  0
  5  7  1  0  0  0
M  END
> <minimizedAffinity>
-10.32679

$$$$
6EED_J6A_A_1102


 33 35  0  0  0  0  0  0  0  0999 V2000
   15.0755    9.5695   11.6139 C   0  0  0  0  0  0  0  0  0  0  0  0
   16.2983   10.4073   11.3223 C   0  0  0  0  0  0  0  0  0  0  0  0
   17.0663   10.8039   12.2099 O   0  0  0  0  0  0  0  0  0  0  0  0
   16.4220   10.7350   10.0428 N   0  0  0  0  0  0  0  0  0  0  0  0
   17.5829   11.4706    9.7111 O   0  0  0  0  0  0  0  0  0  0  0  0
   15.7501   10.4828    9.3690 H   0  0  0  0  0  0  0  0  0  0  0  0
   18.1130   11.6160   10.5103 H   0  0  0  0  0  0  0  0  0  0  0  0
   15.3494    8.2889   12.2370 C   0  0  0  0  0  0  0  0  0  0  0  0
   15.0292    8.0479   13.5684 C   0  0  0  0  0  0  0  0  0  0  0  0
   15.2509    6.7644   14.1083 C   0  0  0  0  0  0  0  0  0  0  0  0
   15.8929    7.2605   11.4643 C   0  0  0  0  0  0  0  0  0  0  0  0
   16.1145    5.9838   11.9997 C   0  0  0  0  0  0  0  0  0  0  0  0
   15.7978    5.7305   13.3423 C   0  0  0  0  0  0  0  0  0  0  0  0
   15.9265    4.4289   13.9098 C   0  0  0  0  0  0  0  0  0  0  0  0
   15.4046    4.0331   15.1475 C   0  0  0  0  0  0  0  0  0  0  0  0
   15.5467    2.7106   15.5607 C   0  0  0  0  0  0  0  0  0  0  0  0
   15.1016    2.2921   16.7234 F   0  0  0  0  0  0  0  0  0  0  0  0
   16.1666    1.7807   14.7600 C   0  0  0  0  0  0  0  0  0  0  0  0
   16.3233    0.4881   15.2081 F   0  0  0  0  0  0  0  0  0  0  0  0
   16.6884    2.1371   13.5421 C   0  0  0  0  0  0  0  0  0  0  0  0
   17.2687    1.1557   12.7306 F   0  0  0  0  0  0  0  0  0  0  0  0
   16.5381    3.4482   13.0988 C   0  0  0  0  0  0  0  0  0  0  0  0
   13.4270   11.4007   12.0006 C   0  0  0  0  0  0  0  0  0  0  0  0
   13.3983   11.8020   10.8290 O   0  0  0  0  0  0  0  0  0  0  0  0
   14.1474   10.3817   12.4450 N   0  0  0  0  0  0  0  0  0  0  0  0
   14.0620   10.1443   13.3966 H   0  0  0  0  0  0  0  0  0  0  0  0
   12.5384   12.0386   13.1383 C   0  0  0  0  0  0  0  0  0  0  0  0
   12.9409   10.3329   15.0372 C   0  0  0  0  0  0  0  0  0  0  0  0
   13.5273   10.1478   16.4786 C   0  0  0  0  0  0  0  0  0  0  0  0
   12.8594   11.1871   17.4192 C   0  0  0  0  0  0  0  0  0  0  0  0
   13.1464   12.6076   16.9159 C   0  0  0  0  0  0  0  0  0  0  0  0
   12.5157   12.7748   15.5566 C   0  0  0  0  0  0  0  0  0  0  0  0
   13.1580   11.7899   14.5664 C   0  0  0  0  0  0  0  0  0  0  0  0
  5  4  1  0  0  0
  4  2  1  0  0  0
  3  2  2  0  0  0
  2  1  1  0  0  0
 27 23  1  0  0  0
 27 33  1  0  0  0
 25  1  1  0  0  0
 25 23  1  0  0  0
  1  8  1  0  0  0
 23 24  2  0  0  0
 32 33  1  0  0  0
 32 31  1  0  0  0
 33 28  1  0  0  0
  8 11  2  0  0  0
  8  9  1  0  0  0
 31 30  1  0  0  0
 11 12  1  0  0  0
  9 10  2  0  0  0
 28 29  1  0  0  0
 30 29  1  0  0  0
 12 13  2  0  0  0
 10 13  1  0  0  0
 13 14  1  0  0  0
 14 15  2  0  0  0
 14 22  1  0  0  0
 15 16  1  0  0  0
 22 20  2  0  0  0
 16 17  1  0  0  0
 16 18  2  0  0  0
 20 18  1  0  0  0
 20 21  1  0  0  0
 18 19  1  0  0  0
 25 26  1  0  0  0
  4  6  1  0  0  0
  5  7  1  0  0  0
M  END
> <minimizedAffinity>
-10.31986

$$$$
6EED_J6A_A_1102


 33 35  0  0  0  0  0  0  0  0999 V2000
   16.0573    5.1020   12.4924 C   0  0  0  0  0  0  0  0  0  0  0  0
   17.3976    4.6157   12.9919 C   0  0  0  0  0  0  0  0  0  0  0  0
   18.3635    5.3723   13.1638 O   0  0  0  0  0  0  0  0  0  0  0  0
   17.4566    3.3003   13.1527 N   0  0  0  0  0  0  0  0  0  0  0  0
   18.6732    2.8034   13.6741 O   0  0  0  0  0  0  0  0  0  0  0  0
   16.7032    2.7092   12.9241 H   0  0  0  0  0  0  0  0  0  0  0  0
   19.2828    3.5413   13.8317 H   0  0  0  0  0  0  0  0  0  0  0  0
   15.5451    6.2774   13.1701 C   0  0  0  0  0  0  0  0  0  0  0  0
   15.6191    7.5384   12.5889 C   0  0  0  0  0  0  0  0  0  0  0  0
   15.0439    8.6390   13.2568 C   0  0  0  0  0  0  0  0  0  0  0  0
   14.9131    6.1268   14.4062 C   0  0  0  0  0  0  0  0  0  0  0  0
   14.3412    7.2201   15.0719 C   0  0  0  0  0  0  0  0  0  0  0  0
   14.4125    8.4970   14.4962 C   0  0  0  0  0  0  0  0  0  0  0  0
   13.7751    9.6245   15.0923 C   0  0  0  0  0  0  0  0  0  0  0  0
   13.5166    9.7756   16.4602 C   0  0  0  0  0  0  0  0  0  0  0  0
   12.9420   10.9568   16.9234 C   0  0  0  0  0  0  0  0  0  0  0  0
   12.6523   11.1404   18.1914 F   0  0  0  0  0  0  0  0  0  0  0  0
   12.6503   11.9882   16.0625 C   0  0  0  0  0  0  0  0  0  0  0  0
   12.0513   13.1314   16.5427 F   0  0  0  0  0  0  0  0  0  0  0  0
   12.8915   11.8710   14.7169 C   0  0  0  0  0  0  0  0  0  0  0  0
   12.6292   12.9580   13.8756 F   0  0  0  0  0  0  0  0  0  0  0  0
   13.4862   10.7083   14.2346 C   0  0  0  0  0  0  0  0  0  0  0  0
   16.0520    4.3942   10.1009 C   0  0  0  0  0  0  0  0  0  0  0  0
   15.8058    3.1996   10.3174 O   0  0  0  0  0  0  0  0  0  0  0  0
   16.1674    5.3338   11.0276 N   0  0  0  0  0  0  0  0  0  0  0  0
   16.3387    6.2545   10.7238 H   0  0  0  0  0  0  0  0  0  0  0  0
   16.2103    4.9776    8.6430 C   0  0  0  0  0  0  0  0  0  0  0  0
   15.7808    7.5236    8.5382 C   0  0  0  0  0  0  0  0  0  0  0  0
   16.4704    8.9305    8.5094 C   0  0  0  0  0  0  0  0  0  0  0  0
   17.4919    8.9544    7.3403 C   0  0  0  0  0  0  0  0  0  0  0  0
   18.5461    7.8590    7.5452 C   0  0  0  0  0  0  0  0  0  0  0  0
   17.8615    6.5163    7.5042 C   0  0  0  0  0  0  0  0  0  0  0  0
   16.8538    6.4167    8.6608 C   0  0  0  0  0  0  0  0  0  0  0  0
  5  4  1  0  0  0
  4  2  1  0  0  0
  3  2  2  0  0  0
  2  1  1  0  0  0
 27 23  1  0  0  0
 27 33  1  0  0  0
 25  1  1  0  0  0
 25 23  1  0  0  0
  1  8  1  0  0  0
 23 24  2  0  0  0
 32 33  1  0  0  0
 32 31  1  0  0  0
 33 28  1  0  0  0
  8 11  2  0  0  0
  8  9  1  0  0  0
 31 30  1  0  0  0
 11 12  1  0  0  0
  9 10  2  0  0  0
 28 29  1  0  0  0
 30 29  1  0  0  0
 12 13  2  0  0  0
 10 13  1  0  0  0
 13 14  1  0  0  0
 14 15  2  0  0  0
 14 22  1  0  0  0
 15 16  1  0  0  0
 22 20  2  0  0  0
 16 17  1  0  0  0
 16 18  2  0  0  0
 20 18  1  0  0  0
 20 21  1  0  0  0
 18 19  1  0  0  0
 25 26  1  0  0  0
  4  6  1  0  0  0
  5  7  1  0  0  0
M  END
> <minimizedAffinity>
-10.31821

$$$$
6EED_J6A_A_1102


 33 35  0  0  0  0  0  0  0  0999 V2000
   15.9050    5.0921   12.4997 C   0  0  0  0  0  0  0  0  0  0  0  0
   17.1737    4.5124   13.0799 C   0  0  0  0  0  0  0  0  0  0  0  0
   18.2144    5.1722   13.2089 O   0  0  0  0  0  0  0  0  0  0  0  0
   17.0833    3.2195   13.3629 N   0  0  0  0  0  0  0  0  0  0  0  0
   18.2275    2.6448   13.9624 O   0  0  0  0  0  0  0  0  0  0  0  0
   16.2732    2.6950   13.1684 H   0  0  0  0  0  0  0  0  0  0  0  0
   18.9122    3.3236   14.0687 H   0  0  0  0  0  0  0  0  0  0  0  0
   15.4453    6.3107   13.1376 C   0  0  0  0  0  0  0  0  0  0  0  0
   15.6238    7.5532   12.5394 C   0  0  0  0  0  0  0  0  0  0  0  0
   15.0968    8.7010   13.1662 C   0  0  0  0  0  0  0  0  0  0  0  0
   14.7580    6.2246   14.3501 C   0  0  0  0  0  0  0  0  0  0  0  0
   14.2338    7.3649   14.9750 C   0  0  0  0  0  0  0  0  0  0  0  0
   14.4105    8.6235   14.3819 C   0  0  0  0  0  0  0  0  0  0  0  0
   13.8260    9.8009   14.9341 C   0  0  0  0  0  0  0  0  0  0  0  0
   13.5280   10.9663   14.2172 C   0  0  0  0  0  0  0  0  0  0  0  0
   12.8984   12.0273   14.8637 C   0  0  0  0  0  0  0  0  0  0  0  0
   12.6214   13.1535   14.2471 F   0  0  0  0  0  0  0  0  0  0  0  0
   12.5394   11.9378   16.1878 C   0  0  0  0  0  0  0  0  0  0  0  0
   11.9488   13.0146   16.8106 F   0  0  0  0  0  0  0  0  0  0  0  0
   12.8175   10.8096   16.9174 C   0  0  0  0  0  0  0  0  0  0  0  0
   12.3941   10.7320   18.2490 F   0  0  0  0  0  0  0  0  0  0  0  0
   13.4258    9.7281   16.2862 C   0  0  0  0  0  0  0  0  0  0  0  0
   16.0406    4.3457   10.1238 C   0  0  0  0  0  0  0  0  0  0  0  0
   15.7534    3.1605   10.3413 O   0  0  0  0  0  0  0  0  0  0  0  0
   16.1163    5.2976   11.0421 N   0  0  0  0  0  0  0  0  0  0  0  0
   16.3283    6.2092   10.7367 H   0  0  0  0  0  0  0  0  0  0  0  0
   16.3076    4.9016    8.6710 C   0  0  0  0  0  0  0  0  0  0  0  0
   15.7611    7.4263    8.6011 C   0  0  0  0  0  0  0  0  0  0  0  0
   16.3851    8.8638    8.5911 C   0  0  0  0  0  0  0  0  0  0  0  0
   17.4032    8.9506    7.4220 C   0  0  0  0  0  0  0  0  0  0  0  0
   18.5070    7.9022    7.6116 C   0  0  0  0  0  0  0  0  0  0  0  0
   17.8849    6.5300    7.5526 C   0  0  0  0  0  0  0  0  0  0  0  0
   16.8841    6.3684    8.7081 C   0  0  0  0  0  0  0  0  0  0  0  0
  5  4  1  0  0  0
  4  2  1  0  0  0
  3  2  2  0  0  0
  2  1  1  0  0  0
 27 23  1  0  0  0
 27 33  1  0  0  0
 25  1  1  0  0  0
 25 23  1  0  0  0
  1  8  1  0  0  0
 23 24  2  0  0  0
 32 33  1  0  0  0
 32 31  1  0  0  0
 33 28  1  0  0  0
  8 11  2  0  0  0
  8  9  1  0  0  0
 31 30  1  0  0  0
 11 12  1  0  0  0
  9 10  2  0  0  0
 28 29  1  0  0  0
 30 29  1  0  0  0
 12 13  2  0  0  0
 10 13  1  0  0  0
 13 14  1  0  0  0
 14 15  2  0  0  0
 14 22  1  0  0  0
 15 16  1  0  0  0
 22 20  2  0  0  0
 16 17  1  0  0  0
 16 18  2  0  0  0
 20 18  1  0  0  0
 20 21  1  0  0  0
 18 19  1  0  0  0
 25 26  1  0  0  0
  4  6  1  0  0  0
  5  7  1  0  0  0
M  END
> <minimizedAffinity>
-10.26538

$$$$
6EED_J6A_A_1102


 33 35  0  0  0  0  0  0  0  0999 V2000
   15.6788   10.0084   12.2265 C   0  0  0  0  0  0  0  0  0  0  0  0
   14.3970   10.8045   12.3012 C   0  0  0  0  0  0  0  0  0  0  0  0
   14.1073   11.5190   13.2711 O   0  0  0  0  0  0  0  0  0  0  0  0
   13.5884   10.6031   11.2691 N   0  0  0  0  0  0  0  0  0  0  0  0
   12.4012   11.3709   11.2655 O   0  0  0  0  0  0  0  0  0  0  0  0
   13.8009    9.9617   10.5532 H   0  0  0  0  0  0  0  0  0  0  0  0
   12.3803   11.9378   12.0523 H   0  0  0  0  0  0  0  0  0  0  0  0
   15.7223    8.8424   13.0877 C   0  0  0  0  0  0  0  0  0  0  0  0
   16.8426    8.0204   13.1379 C   0  0  0  0  0  0  0  0  0  0  0  0
   16.8631    6.9393   14.0430 C   0  0  0  0  0  0  0  0  0  0  0  0
   14.6370    8.5763   13.9253 C   0  0  0  0  0  0  0  0  0  0  0  0
   14.6555    7.5015   14.8253 C   0  0  0  0  0  0  0  0  0  0  0  0
   15.7792    6.6642   14.8823 C   0  0  0  0  0  0  0  0  0  0  0  0
   15.8807    5.6101   15.8370 C   0  0  0  0  0  0  0  0  0  0  0  0
   16.0376    5.7841   17.2176 C   0  0  0  0  0  0  0  0  0  0  0  0
   16.0611    4.6686   18.0513 C   0  0  0  0  0  0  0  0  0  0  0  0
   16.2338    4.7722   19.3493 F   0  0  0  0  0  0  0  0  0  0  0  0
   15.9045    3.4008   17.5433 C   0  0  0  0  0  0  0  0  0  0  0  0
   15.9659    2.3137   18.3864 F   0  0  0  0  0  0  0  0  0  0  0  0
   15.7489    3.1971   16.1954 C   0  0  0  0  0  0  0  0  0  0  0  0
   15.5423    1.8984   15.7170 F   0  0  0  0  0  0  0  0  0  0  0  0
   15.6997    4.2988   15.3456 C   0  0  0  0  0  0  0  0  0  0  0  0
   16.7224   10.2669    9.9760 C   0  0  0  0  0  0  0  0  0  0  0  0
   17.4328   11.2379   10.2708 O   0  0  0  0  0  0  0  0  0  0  0  0
   15.9066    9.6333   10.8056 N   0  0  0  0  0  0  0  0  0  0  0  0
   15.4145    8.8560   10.4552 H   0  0  0  0  0  0  0  0  0  0  0  0
   16.7405    9.6058    8.5431 C   0  0  0  0  0  0  0  0  0  0  0  0
   18.2285    7.6556    7.7307 C   0  0  0  0  0  0  0  0  0  0  0  0
   18.4459    6.1052    7.8022 C   0  0  0  0  0  0  0  0  0  0  0  0
   17.1257    5.4030    7.3841 C   0  0  0  0  0  0  0  0  0  0  0  0
   15.9915    5.8166    8.3307 C   0  0  0  0  0  0  0  0  0  0  0  0
   15.7639    7.3007    8.1920 C   0  0  0  0  0  0  0  0  0  0  0  0
   17.0305    8.0582    8.6219 C   0  0  0  0  0  0  0  0  0  0  0  0
  5  4  1  0  0  0
  4  2  1  0  0  0
  3  2  2  0  0  0
  2  1  1  0  0  0
 27 23  1  0  0  0
 27 33  1  0  0  0
 25  1  1  0  0  0
 25 23  1  0  0  0
  1  8  1  0  0  0
 23 24  2  0  0  0
 32 33  1  0  0  0
 32 31  1  0  0  0
 33 28  1  0  0  0
  8 11  2  0  0  0
  8  9  1  0  0  0
 31 30  1  0  0  0
 11 12  1  0  0  0
  9 10  2  0  0  0
 28 29  1  0  0  0
 30 29  1  0  0  0
 12 13  2  0  0  0
 10 13  1  0  0  0
 13 14  1  0  0  0
 14 15  2  0  0  0
 14 22  1  0  0  0
 15 16  1  0  0  0
 22 20  2  0  0  0
 16 17  1  0  0  0
 16 18  2  0  0  0
 20 18  1  0  0  0
 20 21  1  0  0  0
 18 19  1  0  0  0
 25 26  1  0  0  0
  4  6  1  0  0  0
  5  7  1  0  0  0
M  END
> <minimizedAffinity>
-9.90131

$$$$
6EED_J6A_A_1102


 33 35  0  0  0  0  0  0  0  0999 V2000
   16.1125    3.9736   14.2672 C   0  0  0  0  0  0  0  0  0  0  0  0
   15.8498    3.4294   12.8827 C   0  0  0  0  0  0  0  0  0  0  0  0
   14.7155    3.1301   12.4842 O   0  0  0  0  0  0  0  0  0  0  0  0
   16.9533    3.2352   12.1725 N   0  0  0  0  0  0  0  0  0  0  0  0
   16.7546    2.7812   10.8484 O   0  0  0  0  0  0  0  0  0  0  0  0
   17.8511    3.3966   12.5429 H   0  0  0  0  0  0  0  0  0  0  0  0
   15.8044    2.6853   10.6787 H   0  0  0  0  0  0  0  0  0  0  0  0
   15.6428    5.3278   14.4883 C   0  0  0  0  0  0  0  0  0  0  0  0
   15.4950    6.2241   13.4356 C   0  0  0  0  0  0  0  0  0  0  0  0
   14.9683    7.5066   13.6923 C   0  0  0  0  0  0  0  0  0  0  0  0
   15.2773    5.7174   15.7786 C   0  0  0  0  0  0  0  0  0  0  0  0
   14.7539    6.9923   16.0357 C   0  0  0  0  0  0  0  0  0  0  0  0
   14.6032    7.9054   14.9818 C   0  0  0  0  0  0  0  0  0  0  0  0
   13.9995    9.1822   15.1770 C   0  0  0  0  0  0  0  0  0  0  0  0
   13.5719    9.6928   16.4088 C   0  0  0  0  0  0  0  0  0  0  0  0
   13.0533   10.9838   16.4735 C   0  0  0  0  0  0  0  0  0  0  0  0
   12.6117   11.5020   17.5968 F   0  0  0  0  0  0  0  0  0  0  0  0
   12.9805   11.7753   15.3518 C   0  0  0  0  0  0  0  0  0  0  0  0
   12.4320   13.0355   15.4382 F   0  0  0  0  0  0  0  0  0  0  0  0
   13.3913   11.3042   14.1304 C   0  0  0  0  0  0  0  0  0  0  0  0
   13.3500   12.1528   13.0184 F   0  0  0  0  0  0  0  0  0  0  0  0
   13.9340   10.0249   14.0460 C   0  0  0  0  0  0  0  0  0  0  0  0
   16.1375    1.9809   15.7669 C   0  0  0  0  0  0  0  0  0  0  0  0
   17.3064    1.6491   15.5259 O   0  0  0  0  0  0  0  0  0  0  0  0
   15.5173    3.0328   15.2533 N   0  0  0  0  0  0  0  0  0  0  0  0
   14.5932    3.2046   15.5462 H   0  0  0  0  0  0  0  0  0  0  0  0
   15.2272    1.1987   16.7918 C   0  0  0  0  0  0  0  0  0  0  0  0
   16.4888    1.8696   18.9449 C   0  0  0  0  0  0  0  0  0  0  0  0
   16.3451    2.5754   20.3367 C   0  0  0  0  0  0  0  0  0  0  0  0
   15.1780    1.9049   21.1108 C   0  0  0  0  0  0  0  0  0  0  0  0
   13.8740    2.0463   20.3152 C   0  0  0  0  0  0  0  0  0  0  0  0
   14.0212    1.3041   19.0110 C   0  0  0  0  0  0  0  0  0  0  0  0
   15.1466    1.9413   18.1801 C   0  0  0  0  0  0  0  0  0  0  0  0
  5  4  1  0  0  0
  4  2  1  0  0  0
  3  2  2  0  0  0
  2  1  1  0  0  0
 27 23  1  0  0  0
 27 33  1  0  0  0
 25  1  1  0  0  0
 25 23  1  0  0  0
  1  8  1  0  0  0
 23 24  2  0  0  0
 32 33  1  0  0  0
 32 31  1  0  0  0
 33 28  1  0  0  0
  8 11  2  0  0  0
  8  9  1  0  0  0
 31 30  1  0  0  0
 11 12  1  0  0  0
  9 10  2  0  0  0
 28 29  1  0  0  0
 30 29  1  0  0  0
 12 13  2  0  0  0
 10 13  1  0  0  0
 13 14  1  0  0  0
 14 15  2  0  0  0
 14 22  1  0  0  0
 15 16  1  0  0  0
 22 20  2  0  0  0
 16 17  1  0  0  0
 16 18  2  0  0  0
 20 18  1  0  0  0
 20 21  1  0  0  0
 18 19  1  0  0  0
 25 26  1  0  0  0
  4  6  1  0  0  0
  5  7  1  0  0  0
M  END
> <minimizedAffinity>
-9.67088

$$$$
6EED_J6A_A_1102


 33 35  0  0  0  0  0  0  0  0999 V2000
   15.1617    9.5074   11.9799 C   0  0  0  0  0  0  0  0  0  0  0  0
   16.1390   10.1489   11.0231 C   0  0  0  0  0  0  0  0  0  0  0  0
   17.0510   10.8986   11.3990 O   0  0  0  0  0  0  0  0  0  0  0  0
   15.8774    9.8916    9.7483 N   0  0  0  0  0  0  0  0  0  0  0  0
   16.7990   10.4230    8.8171 O   0  0  0  0  0  0  0  0  0  0  0  0
   15.0934    9.3655    9.4691 H   0  0  0  0  0  0  0  0  0  0  0  0
   17.4949   10.9055    9.2903 H   0  0  0  0  0  0  0  0  0  0  0  0
   15.7370    8.5061   12.8573 C   0  0  0  0  0  0  0  0  0  0  0  0
   17.1010    8.2363   12.8523 C   0  0  0  0  0  0  0  0  0  0  0  0
   17.6216    7.3042   13.7733 C   0  0  0  0  0  0  0  0  0  0  0  0
   14.9089    7.8429   13.7654 C   0  0  0  0  0  0  0  0  0  0  0  0
   15.4248    6.9154   14.6814 C   0  0  0  0  0  0  0  0  0  0  0  0
   16.7987    6.6334   14.6832 C   0  0  0  0  0  0  0  0  0  0  0  0
   17.3836    5.7620   15.6483 C   0  0  0  0  0  0  0  0  0  0  0  0
   16.7568    5.3175   16.8189 C   0  0  0  0  0  0  0  0  0  0  0  0
   17.4164    4.4151   17.6500 C   0  0  0  0  0  0  0  0  0  0  0  0
   16.8872    3.9875   18.7736 F   0  0  0  0  0  0  0  0  0  0  0  0
   18.6617    3.9321   17.3249 C   0  0  0  0  0  0  0  0  0  0  0  0
   19.3050    3.0671   18.1818 F   0  0  0  0  0  0  0  0  0  0  0  0
   19.3022    4.3482   16.1851 C   0  0  0  0  0  0  0  0  0  0  0  0
   20.5473    3.7993   15.8584 F   0  0  0  0  0  0  0  0  0  0  0  0
   18.6526    5.2323   15.3280 C   0  0  0  0  0  0  0  0  0  0  0  0
   13.4363   11.2668   12.3645 C   0  0  0  0  0  0  0  0  0  0  0  0
   12.8178   11.0782   11.3079 O   0  0  0  0  0  0  0  0  0  0  0  0
   14.5032   10.5885   12.7604 N   0  0  0  0  0  0  0  0  0  0  0  0
   14.8889   10.8172   13.6368 H   0  0  0  0  0  0  0  0  0  0  0  0
   12.9845   12.3367   13.4332 C   0  0  0  0  0  0  0  0  0  0  0  0
   12.0830   12.7015   15.8273 C   0  0  0  0  0  0  0  0  0  0  0  0
   11.6989   11.9829   17.1659 C   0  0  0  0  0  0  0  0  0  0  0  0
   12.9186   11.1502   17.6454 C   0  0  0  0  0  0  0  0  0  0  0  0
   13.2918   10.1100   16.5814 C   0  0  0  0  0  0  0  0  0  0  0  0
   13.7172   10.8324   15.3282 C   0  0  0  0  0  0  0  0  0  0  0  0
   12.5389   11.6556   14.7833 C   0  0  0  0  0  0  0  0  0  0  0  0
  5  4  1  0  0  0
  4  2  1  0  0  0
  3  2  2  0  0  0
  2  1  1  0  0  0
 27 23  1  0  0  0
 27 33  1  0  0  0
 25  1  1  0  0  0
 25 23  1  0  0  0
  1  8  1  0  0  0
 23 24  2  0  0  0
 32 33  1  0  0  0
 32 31  1  0  0  0
 33 28  1  0  0  0
  8 11  2  0  0  0
  8  9  1  0  0  0
 31 30  1  0  0  0
 11 12  1  0  0  0
  9 10  2  0  0  0
 28 29  1  0  0  0
 30 29  1  0  0  0
 12 13  2  0  0  0
 10 13  1  0  0  0
 13 14  1  0  0  0
 14 15  2  0  0  0
 14 22  1  0  0  0
 15 16  1  0  0  0
 22 20  2  0  0  0
 16 17  1  0  0  0
 16 18  2  0  0  0
 20 18  1  0  0  0
 20 21  1  0  0  0
 18 19  1  0  0  0
 25 26  1  0  0  0
  4  6  1  0  0  0
  5  7  1  0  0  0
M  END
> <minimizedAffinity>
-9.46542

$$$$
