5NGZ_2BG_A_201


 13 14  0  0  0  0  0  0  0  0999 V2000
    1.0757   14.0968    0.6376 N   0  0  0  0  0  0  0  0  0  0  0  0
    0.5041   13.1523    1.4864 C   0  0  0  0  0  0  0  0  0  0  0  0
    0.5912   13.0695    2.9007 C   0  0  0  0  0  0  0  0  0  0  0  0
   -0.0380   12.0606    3.5799 C   0  0  0  0  0  0  0  0  0  0  0  0
   -0.7616   11.0841    2.8832 C   0  0  0  0  0  0  0  0  0  0  0  0
   -0.8781   11.1359    1.5052 C   0  0  0  0  0  0  0  0  0  0  0  0
   -0.2418   12.1650    0.8017 C   0  0  0  0  0  0  0  0  0  0  0  0
   -0.1958   12.4531   -0.9208 S   0  0  0  0  0  0  0  0  0  0  0  0
    0.8049   13.8512   -0.5964 C   0  0  0  0  0  0  0  0  0  0  0  0
    1.2979   14.7345   -1.7092 C   0  0  0  0  0  0  0  0  0  0  0  0
    2.5898   15.3446   -1.3850 N   0  0  0  0  0  0  0  0  0  0  0  0
    2.4919   15.9261   -0.5528 H   0  0  0  0  0  0  0  0  0  0  0  0
    2.8998   15.9205   -2.1677 H   0  0  0  0  0  0  0  0  0  0  0  0
  6  5  2  0  0  0
  6  7  1  0  0  0
  5  4  1  0  0  0
  8  7  1  0  0  0
  8  9  1  0  0  0
  7  2  2  0  0  0
  4  3  2  0  0  0
  2  3  1  0  0  0
  2  1  1  0  0  0
  9  1  2  0  0  0
  9 10  1  0  0  0
 10 11  1  0  0  0
 11 12  1  0  0  0
 11 13  1  0  0  0
M  END
> <minimizedAffinity>
-4.95701

$$$$
5NGZ_2BG_A_201


 13 14  0  0  0  0  0  0  0  0999 V2000
    0.2763   11.2640    3.3834 N   0  0  0  0  0  0  0  0  0  0  0  0
    0.2954   12.0182    2.2129 C   0  0  0  0  0  0  0  0  0  0  0  0
    0.9742   13.2389    1.9608 C   0  0  0  0  0  0  0  0  0  0  0  0
    0.8777   13.8507    0.7395 C   0  0  0  0  0  0  0  0  0  0  0  0
    0.0899   13.2871   -0.2726 C   0  0  0  0  0  0  0  0  0  0  0  0
   -0.5792   12.0930   -0.0688 C   0  0  0  0  0  0  0  0  0  0  0  0
   -0.4843   11.4578    1.1747 C   0  0  0  0  0  0  0  0  0  0  0  0
   -1.2388    9.9764    1.7120 S   0  0  0  0  0  0  0  0  0  0  0  0
   -0.4651   10.2189    3.2624 C   0  0  0  0  0  0  0  0  0  0  0  0
   -0.6405    9.2346    4.3858 C   0  0  0  0  0  0  0  0  0  0  0  0
    0.5907    9.0749    5.1636 N   0  0  0  0  0  0  0  0  0  0  0  0
    1.3315    8.7205    4.5586 H   0  0  0  0  0  0  0  0  0  0  0  0
    0.4288    8.4155    5.9248 H   0  0  0  0  0  0  0  0  0  0  0  0
  6  5  2  0  0  0
  6  7  1  0  0  0
  5  4  1  0  0  0
  8  7  1  0  0  0
  8  9  1  0  0  0
  7  2  2  0  0  0
  4  3  2  0  0  0
  2  3  1  0  0  0
  2  1  1  0  0  0
  9  1  2  0  0  0
  9 10  1  0  0  0
 10 11  1  0  0  0
 11 12  1  0  0  0
 11 13  1  0  0  0
M  END
> <minimizedAffinity>
-4.82287

$$$$
5NGZ_2BG_A_201


 13 14  0  0  0  0  0  0  0  0999 V2000
    1.3425   14.8034   -1.4133 N   0  0  0  0  0  0  0  0  0  0  0  0
    1.5302   14.7603   -2.7925 C   0  0  0  0  0  0  0  0  0  0  0  0
    2.0839   15.7558   -3.6392 C   0  0  0  0  0  0  0  0  0  0  0  0
    2.1902   15.5435   -4.9878 C   0  0  0  0  0  0  0  0  0  0  0  0
    1.7346   14.3449   -5.5522 C   0  0  0  0  0  0  0  0  0  0  0  0
    1.1979   13.3462   -4.7588 C   0  0  0  0  0  0  0  0  0  0  0  0
    1.0880   13.5518   -3.3787 C   0  0  0  0  0  0  0  0  0  0  0  0
    0.4301   12.4884   -2.1586 S   0  0  0  0  0  0  0  0  0  0  0  0
    0.7908   13.7261   -0.9757 C   0  0  0  0  0  0  0  0  0  0  0  0
    0.4931   13.5222    0.4843 C   0  0  0  0  0  0  0  0  0  0  0  0
    1.2573   14.4450    1.3273 N   0  0  0  0  0  0  0  0  0  0  0  0
    2.2551   14.2817    1.1924 H   0  0  0  0  0  0  0  0  0  0  0  0
    1.0167   14.2897    2.3062 H   0  0  0  0  0  0  0  0  0  0  0  0
  6  5  2  0  0  0
  6  7  1  0  0  0
  5  4  1  0  0  0
  8  7  1  0  0  0
  8  9  1  0  0  0
  7  2  2  0  0  0
  4  3  2  0  0  0
  2  3  1  0  0  0
  2  1  1  0  0  0
  9  1  2  0  0  0
  9 10  1  0  0  0
 10 11  1  0  0  0
 11 12  1  0  0  0
 11 13  1  0  0  0
M  END
> <minimizedAffinity>
-4.43868

$$$$
5NGZ_2BG_A_201


 13 14  0  0  0  0  0  0  0  0999 V2000
    0.1150   12.6377    0.9832 N   0  0  0  0  0  0  0  0  0  0  0  0
   -0.6633   11.5116    0.7273 C   0  0  0  0  0  0  0  0  0  0  0  0
   -1.1537   11.0426   -0.5193 C   0  0  0  0  0  0  0  0  0  0  0  0
   -1.9155    9.9067   -0.5858 C   0  0  0  0  0  0  0  0  0  0  0  0
   -2.2369    9.2024    0.5817 C   0  0  0  0  0  0  0  0  0  0  0  0
   -1.7696    9.6221    1.8148 C   0  0  0  0  0  0  0  0  0  0  0  0
   -0.9871   10.7799    1.8933 C   0  0  0  0  0  0  0  0  0  0  0  0
   -0.2982   11.5466    3.3040 S   0  0  0  0  0  0  0  0  0  0  0  0
    0.3590   12.7701    2.2399 C   0  0  0  0  0  0  0  0  0  0  0  0
    1.1914   13.9037    2.7726 C   0  0  0  0  0  0  0  0  0  0  0  0
    1.6257   14.8063    1.7035 N   0  0  0  0  0  0  0  0  0  0  0  0
    2.2004   14.2914    1.0364 H   0  0  0  0  0  0  0  0  0  0  0  0
    2.1709   15.5698    2.1036 H   0  0  0  0  0  0  0  0  0  0  0  0
  6  5  2  0  0  0
  6  7  1  0  0  0
  5  4  1  0  0  0
  8  7  1  0  0  0
  8  9  1  0  0  0
  7  2  2  0  0  0
  4  3  2  0  0  0
  2  3  1  0  0  0
  2  1  1  0  0  0
  9  1  2  0  0  0
  9 10  1  0  0  0
 10 11  1  0  0  0
 11 12  1  0  0  0
 11 13  1  0  0  0
M  END
> <minimizedAffinity>
-4.42167

$$$$
5NGZ_2BG_A_201


 13 14  0  0  0  0  0  0  0  0999 V2000
   -1.2817   10.4225    1.1460 N   0  0  0  0  0  0  0  0  0  0  0  0
   -0.6098   11.5714    0.7365 C   0  0  0  0  0  0  0  0  0  0  0  0
   -0.5169   12.1214   -0.5687 C   0  0  0  0  0  0  0  0  0  0  0  0
    0.1968   13.2684   -0.7925 C   0  0  0  0  0  0  0  0  0  0  0  0
    0.8618   13.9041    0.2640 C   0  0  0  0  0  0  0  0  0  0  0  0
    0.7871   13.4044    1.5523 C   0  0  0  0  0  0  0  0  0  0  0  0
    0.0573   12.2346    1.7925 C   0  0  0  0  0  0  0  0  0  0  0  0
   -0.1771   11.3750    3.2954 S   0  0  0  0  0  0  0  0  0  0  0  0
   -1.1344   10.2108    2.4069 C   0  0  0  0  0  0  0  0  0  0  0  0
   -1.7741    9.0368    3.0956 C   0  0  0  0  0  0  0  0  0  0  0  0
   -1.3810    8.9548    4.5045 N   0  0  0  0  0  0  0  0  0  0  0  0
   -0.3702    8.8343    4.5691 H   0  0  0  0  0  0  0  0  0  0  0  0
   -1.8469    8.1597    4.9418 H   0  0  0  0  0  0  0  0  0  0  0  0
  6  5  2  0  0  0
  6  7  1  0  0  0
  5  4  1  0  0  0
  8  7  1  0  0  0
  8  9  1  0  0  0
  7  2  2  0  0  0
  4  3  2  0  0  0
  2  3  1  0  0  0
  2  1  1  0  0  0
  9  1  2  0  0  0
  9 10  1  0  0  0
 10 11  1  0  0  0
 11 12  1  0  0  0
 11 13  1  0  0  0
M  END
> <minimizedAffinity>
-4.32529

$$$$
5NGZ_2BG_A_201


 13 14  0  0  0  0  0  0  0  0999 V2000
    1.2110   14.3565   -1.2893 N   0  0  0  0  0  0  0  0  0  0  0  0
    0.4808   13.2016   -1.5582 C   0  0  0  0  0  0  0  0  0  0  0  0
   -0.3483   12.4571   -0.6790 C   0  0  0  0  0  0  0  0  0  0  0  0
   -0.9949   11.3320   -1.1163 C   0  0  0  0  0  0  0  0  0  0  0  0
   -0.8302   10.8904   -2.4356 C   0  0  0  0  0  0  0  0  0  0  0  0
   -0.0383   11.5943   -3.3257 C   0  0  0  0  0  0  0  0  0  0  0  0
    0.6243   12.7476   -2.8898 C   0  0  0  0  0  0  0  0  0  0  0  0
    1.6984   13.8000   -3.7792 S   0  0  0  0  0  0  0  0  0  0  0  0
    1.8712   14.7514   -2.3211 C   0  0  0  0  0  0  0  0  0  0  0  0
    2.7297   15.9857   -2.2906 C   0  0  0  0  0  0  0  0  0  0  0  0
    3.5020   16.0782   -1.0491 N   0  0  0  0  0  0  0  0  0  0  0  0
    2.8641   16.1290   -0.2548 H   0  0  0  0  0  0  0  0  0  0  0  0
    4.0837   16.9157   -1.0721 H   0  0  0  0  0  0  0  0  0  0  0  0
  6  5  2  0  0  0
  6  7  1  0  0  0
  5  4  1  0  0  0
  8  7  1  0  0  0
  8  9  1  0  0  0
  7  2  2  0  0  0
  4  3  2  0  0  0
  2  3  1  0  0  0
  2  1  1  0  0  0
  9  1  2  0  0  0
  9 10  1  0  0  0
 10 11  1  0  0  0
 11 12  1  0  0  0
 11 13  1  0  0  0
M  END
> <minimizedAffinity>
-4.30764

$$$$
5NGZ_2BG_A_201


 13 14  0  0  0  0  0  0  0  0999 V2000
    0.8498   13.6641    1.6091 N   0  0  0  0  0  0  0  0  0  0  0  0
    0.8075   13.5707    0.2204 C   0  0  0  0  0  0  0  0  0  0  0  0
    1.3862   14.4404   -0.7406 C   0  0  0  0  0  0  0  0  0  0  0  0
    1.2400   14.1954   -2.0799 C   0  0  0  0  0  0  0  0  0  0  0  0
    0.4989   13.0907   -2.5191 C   0  0  0  0  0  0  0  0  0  0  0  0
   -0.0723   12.2141   -1.6134 C   0  0  0  0  0  0  0  0  0  0  0  0
    0.0742   12.4534   -0.2422 C   0  0  0  0  0  0  0  0  0  0  0  0
   -0.5588   11.5404    1.1061 S   0  0  0  0  0  0  0  0  0  0  0  0
    0.1944   12.7084    2.1691 C   0  0  0  0  0  0  0  0  0  0  0  0
    0.0993   12.5795    3.6644 C   0  0  0  0  0  0  0  0  0  0  0  0
   -0.3189   11.2344    4.0670 N   0  0  0  0  0  0  0  0  0  0  0  0
   -1.2430   11.0365    3.6831 H   0  0  0  0  0  0  0  0  0  0  0  0
   -0.3548   11.1799    5.0849 H   0  0  0  0  0  0  0  0  0  0  0  0
  6  5  2  0  0  0
  6  7  1  0  0  0
  5  4  1  0  0  0
  8  7  1  0  0  0
  8  9  1  0  0  0
  7  2  2  0  0  0
  4  3  2  0  0  0
  2  3  1  0  0  0
  2  1  1  0  0  0
  9  1  2  0  0  0
  9 10  1  0  0  0
 10 11  1  0  0  0
 11 12  1  0  0  0
 11 13  1  0  0  0
M  END
> <minimizedAffinity>
-4.18617

$$$$
5NGZ_2BG_A_201


 13 14  0  0  0  0  0  0  0  0999 V2000
   -0.0963   12.2362    1.5354 N   0  0  0  0  0  0  0  0  0  0  0  0
   -0.8996   11.1028    1.4388 C   0  0  0  0  0  0  0  0  0  0  0  0
   -1.3423   10.2437    2.4784 C   0  0  0  0  0  0  0  0  0  0  0  0
   -2.1328    9.1611    2.1988 C   0  0  0  0  0  0  0  0  0  0  0  0
   -2.4994    8.8767    0.8770 C   0  0  0  0  0  0  0  0  0  0  0  0
   -2.0962    9.6959   -0.1629 C   0  0  0  0  0  0  0  0  0  0  0  0
   -1.2909   10.8070    0.1125 C   0  0  0  0  0  0  0  0  0  0  0  0
   -0.6192   11.9787   -0.9959 S   0  0  0  0  0  0  0  0  0  0  0  0
    0.1238   12.7614    0.3812 C   0  0  0  0  0  0  0  0  0  0  0  0
    0.9555   14.0039    0.2192 C   0  0  0  0  0  0  0  0  0  0  0  0
    1.3796   14.5448    1.5129 N   0  0  0  0  0  0  0  0  0  0  0  0
    0.5577   14.7958    2.0623 H   0  0  0  0  0  0  0  0  0  0  0  0
    1.9544   15.3739    1.3628 H   0  0  0  0  0  0  0  0  0  0  0  0
  6  5  2  0  0  0
  6  7  1  0  0  0
  5  4  1  0  0  0
  8  7  1  0  0  0
  8  9  1  0  0  0
  7  2  2  0  0  0
  4  3  2  0  0  0
  2  3  1  0  0  0
  2  1  1  0  0  0
  9  1  2  0  0  0
  9 10  1  0  0  0
 10 11  1  0  0  0
 11 12  1  0  0  0
 11 13  1  0  0  0
M  END
> <minimizedAffinity>
-4.16640

$$$$
5NGZ_2BG_A_201


 13 14  0  0  0  0  0  0  0  0999 V2000
   -0.1605   12.4748   -0.3556 N   0  0  0  0  0  0  0  0  0  0  0  0
   -0.4875   11.7030    0.7564 C   0  0  0  0  0  0  0  0  0  0  0  0
   -1.2893   10.5331    0.8137 C   0  0  0  0  0  0  0  0  0  0  0  0
   -1.5111    9.8979    2.0063 C   0  0  0  0  0  0  0  0  0  0  0  0
   -0.9632   10.4075    3.1907 C   0  0  0  0  0  0  0  0  0  0  0  0
   -0.1680   11.5399    3.1747 C   0  0  0  0  0  0  0  0  0  0  0  0
    0.0678   12.1947    1.9604 C   0  0  0  0  0  0  0  0  0  0  0  0
    0.9953   13.6436    1.6557 S   0  0  0  0  0  0  0  0  0  0  0  0
    0.5729   13.4825   -0.0345 C   0  0  0  0  0  0  0  0  0  0  0  0
    1.0698   14.4628   -1.0611 C   0  0  0  0  0  0  0  0  0  0  0  0
    2.3800   15.0093   -0.6990 N   0  0  0  0  0  0  0  0  0  0  0  0
    2.3076   15.5059    0.1889 H   0  0  0  0  0  0  0  0  0  0  0  0
    2.6916   15.6545   -1.4250 H   0  0  0  0  0  0  0  0  0  0  0  0
  6  5  2  0  0  0
  6  7  1  0  0  0
  5  4  1  0  0  0
  8  7  1  0  0  0
  8  9  1  0  0  0
  7  2  2  0  0  0
  4  3  2  0  0  0
  2  3  1  0  0  0
  2  1  1  0  0  0
  9  1  2  0  0  0
  9 10  1  0  0  0
 10 11  1  0  0  0
 11 12  1  0  0  0
 11 13  1  0  0  0
M  END
> <minimizedAffinity>
-4.12922

$$$$
5NGZ_2BG_A_201


 13 14  0  0  0  0  0  0  0  0999 V2000
    0.4262   11.8816    3.5712 N   0  0  0  0  0  0  0  0  0  0  0  0
   -0.2722   10.7506    3.1561 C   0  0  0  0  0  0  0  0  0  0  0  0
   -0.5972    9.5897    3.9055 C   0  0  0  0  0  0  0  0  0  0  0  0
   -1.2939    8.5610    3.3299 C   0  0  0  0  0  0  0  0  0  0  0  0
   -1.6789    8.6340    1.9849 C   0  0  0  0  0  0  0  0  0  0  0  0
   -1.3895    9.7531    1.2239 C   0  0  0  0  0  0  0  0  0  0  0  0
   -0.6809   10.8117    1.8037 C   0  0  0  0  0  0  0  0  0  0  0  0
   -0.1593   12.3127    1.0775 S   0  0  0  0  0  0  0  0  0  0  0  0
    0.5563   12.7355    2.6171 C   0  0  0  0  0  0  0  0  0  0  0  0
    1.2638   14.0476    2.8160 C   0  0  0  0  0  0  0  0  0  0  0  0
    1.5039   14.7323    1.5433 N   0  0  0  0  0  0  0  0  0  0  0  0
    2.0972   14.1510    0.9512 H   0  0  0  0  0  0  0  0  0  0  0  0
    1.9679   15.6235    1.7190 H   0  0  0  0  0  0  0  0  0  0  0  0
  6  5  2  0  0  0
  6  7  1  0  0  0
  5  4  1  0  0  0
  8  7  1  0  0  0
  8  9  1  0  0  0
  7  2  2  0  0  0
  4  3  2  0  0  0
  2  3  1  0  0  0
  2  1  1  0  0  0
  9  1  2  0  0  0
  9 10  1  0  0  0
 10 11  1  0  0  0
 11 12  1  0  0  0
 11 13  1  0  0  0
M  END
> <minimizedAffinity>
-4.10468

$$$$
