5NKA_91H_A_1001


 39 42  0  0  0  0  0  0  0  0999 V2000
   92.6939   14.0103    7.9763 C   0  0  0  0  0  0  0  0  0  0  0  0
   93.8728   14.3379    7.3192 C   0  0  0  0  0  0  0  0  0  0  0  0
   91.4737   14.1896    7.3560 C   0  0  0  0  0  0  0  0  0  0  0  0
   91.4277   14.7266    6.0807 C   0  0  0  0  0  0  0  0  0  0  0  0
   92.6198   15.0556    5.4307 C   0  0  0  0  0  0  0  0  0  0  0  0
   93.8551   14.8299    6.0498 C   0  0  0  0  0  0  0  0  0  0  0  0
   93.7404   14.1011    9.9801 N   0  0  0  0  0  0  0  0  0  0  0  0
   92.8140   13.4761    9.2484 C   0  0  0  0  0  0  0  0  0  0  0  0
   92.0650   12.5850    9.6566 O   0  0  0  0  0  0  0  0  0  0  0  0
   94.2583   14.8228    9.5556 H   0  0  0  0  0  0  0  0  0  0  0  0
   95.4910   13.4505   11.5876 C   0  0  0  0  0  0  0  0  0  0  0  0
   95.6641   12.8733   13.0032 C   0  0  0  0  0  0  0  0  0  0  0  0
   94.8210   13.6324   14.0619 C   0  0  0  0  0  0  0  0  0  0  0  0
   94.4119   15.0253   13.5449 C   0  0  0  0  0  0  0  0  0  0  0  0
   93.6483   14.9910   12.2155 C   0  0  0  0  0  0  0  0  0  0  0  0
   94.0297   13.7737   11.3787 C   0  0  0  0  0  0  0  0  0  0  0  0
   93.6074   12.8148   14.5631 C   0  0  0  0  0  0  0  0  0  0  0  0
   93.4177   11.6807   14.0669 O   0  0  0  0  0  0  0  0  0  0  0  0
   92.8623   13.3774   15.3969 O   0  0  0  0  0  0  0  0  0  0  0  0
   94.0277   11.3327   13.4467 H   0  0  0  0  0  0  0  0  0  0  0  0
   95.0950   15.1494    5.5423 N   0  0  0  0  0  0  0  0  0  0  0  0
   95.2055   15.2051    4.5656 H   0  0  0  0  0  0  0  0  0  0  0  0
   96.1539   15.3870    6.3218 C   0  0  0  0  0  0  0  0  0  0  0  0
   96.1753   16.4487    7.6939 S   0  0  0  0  0  0  0  0  0  0  0  0
   97.3715   14.8775    6.0939 N   0  0  0  0  0  0  0  0  0  0  0  0
   98.3079   15.2475    7.0251 C   0  0  0  0  0  0  0  0  0  0  0  0
   97.8654   16.1316    7.9831 C   0  0  0  0  0  0  0  0  0  0  0  0
   98.4935   16.6918    9.0652 C   0  0  0  0  0  0  0  0  0  0  0  0
   97.7990   16.9605   10.0467 O   0  0  0  0  0  0  0  0  0  0  0  0
   99.8417   16.9077    9.0737 N   0  0  0  0  0  0  0  0  0  0  0  0
  100.3632   16.7051    8.2636 H   0  0  0  0  0  0  0  0  0  0  0  0
  100.4898   17.3977   10.1760 C   0  0  0  0  0  0  0  0  0  0  0  0
  100.6064   18.7786   10.3474 C   0  0  0  0  0  0  0  0  0  0  0  0
   99.8909   19.8955    9.2374 Cl  0  0  0  0  0  0  0  0  0  0  0  0
  101.3413   19.2909   11.4297 C   0  0  0  0  0  0  0  0  0  0  0  0
  101.9137   18.4278   12.3583 C   0  0  0  0  0  0  0  0  0  0  0  0
  101.7981   17.0468   12.1787 C   0  0  0  0  0  0  0  0  0  0  0  0
  101.1142   16.5298   11.0893 C   0  0  0  0  0  0  0  0  0  0  0  0
  101.0347   15.1210   10.9515 C   0  0  0  0  0  0  0  0  0  0  0  0
 19 17  2  0  0  0
 18 17  1  0  0  0
 17 13  1  0  0  0
 13 14  1  0  0  0
 13 12  1  0  0  0
 14 15  1  0  0  0
 12 11  1  0  0  0
 15 16  1  0  0  0
 16 11  1  0  0  0
 16  7  1  0  0  0
  9  8  2  0  0  0
  7  8  1  0  0  0
  8  1  1  0  0  0
  2  1  2  0  0  0
  2  6  1  0  0  0
  1  3  1  0  0  0
 21  6  1  0  0  0
 21 23  1  0  0  0
 25 23  2  0  0  0
 25 26  1  0  0  0
  6  5  2  0  0  0
 23 24  1  0  0  0
  3  4  2  0  0  0
 26 27  2  0  0  0
  5  4  1  0  0  0
 24 27  1  0  0  0
 27 28  1  0  0  0
 28 30  1  0  0  0
 28 29  2  0  0  0
 34 33  1  0  0  0
 30 32  1  0  0  0
 32 33  2  0  0  0
 32 38  1  0  0  0
 33 35  1  0  0  0
 39 38  1  0  0  0
 38 37  2  0  0  0
 35 36  2  0  0  0
 37 36  1  0  0  0
 18 20  1  0  0  0
  7 10  1  0  0  0
 21 22  1  0  0  0
 30 31  1  0  0  0
M  END
> <minimizedAffinity>
-9.91515

$$$$
5NKA_91H_A_1001


 39 42  0  0  0  0  0  0  0  0999 V2000
   92.6721   14.4753    7.9794 C   0  0  0  0  0  0  0  0  0  0  0  0
   93.8836   14.6466    7.3220 C   0  0  0  0  0  0  0  0  0  0  0  0
   91.4862   14.4752    7.2728 C   0  0  0  0  0  0  0  0  0  0  0  0
   91.5068   14.6759    5.9031 C   0  0  0  0  0  0  0  0  0  0  0  0
   92.7309   14.8504    5.2528 C   0  0  0  0  0  0  0  0  0  0  0  0
   93.9321   14.8056    5.9707 C   0  0  0  0  0  0  0  0  0  0  0  0
   93.9785   14.1891    9.8043 N   0  0  0  0  0  0  0  0  0  0  0  0
   92.7258   14.2776    9.3491 C   0  0  0  0  0  0  0  0  0  0  0  0
   91.7112   14.2838   10.0507 O   0  0  0  0  0  0  0  0  0  0  0  0
   94.7138   14.2284    9.1508 H   0  0  0  0  0  0  0  0  0  0  0  0
   94.0388   12.6376   11.7177 C   0  0  0  0  0  0  0  0  0  0  0  0
   94.1754   12.6289   13.2502 C   0  0  0  0  0  0  0  0  0  0  0  0
   95.3914   13.4571   13.7433 C   0  0  0  0  0  0  0  0  0  0  0  0
   96.4077   13.6747   12.6056 C   0  0  0  0  0  0  0  0  0  0  0  0
   95.8087   14.3416   11.3614 C   0  0  0  0  0  0  0  0  0  0  0  0
   94.3204   14.0367   11.2209 C   0  0  0  0  0  0  0  0  0  0  0  0
   94.9795   14.7847   14.4216 C   0  0  0  0  0  0  0  0  0  0  0  0
   95.8720   15.6366   14.6360 O   0  0  0  0  0  0  0  0  0  0  0  0
   93.7793   14.8878   14.7621 O   0  0  0  0  0  0  0  0  0  0  0  0
   96.7490   15.4795   14.3460 H   0  0  0  0  0  0  0  0  0  0  0  0
   95.1965   15.0074    5.4631 N   0  0  0  0  0  0  0  0  0  0  0  0
   95.3311   14.9398    4.4902 H   0  0  0  0  0  0  0  0  0  0  0  0
   96.2477   15.2911    6.2375 C   0  0  0  0  0  0  0  0  0  0  0  0
   96.2227   16.3299    7.6270 S   0  0  0  0  0  0  0  0  0  0  0  0
   97.4897   14.8543    5.9908 N   0  0  0  0  0  0  0  0  0  0  0  0
   98.4127   15.2609    6.9202 C   0  0  0  0  0  0  0  0  0  0  0  0
   97.9304   16.1031    7.8966 C   0  0  0  0  0  0  0  0  0  0  0  0
   98.5364   16.6800    8.9826 C   0  0  0  0  0  0  0  0  0  0  0  0
   97.8290   16.9283    9.9603 O   0  0  0  0  0  0  0  0  0  0  0  0
   99.8779   16.9336    8.9990 N   0  0  0  0  0  0  0  0  0  0  0  0
  100.4095   16.7464    8.1918 H   0  0  0  0  0  0  0  0  0  0  0  0
  100.5056   17.4408   10.1053 C   0  0  0  0  0  0  0  0  0  0  0  0
  100.9778   16.5683   11.0880 C   0  0  0  0  0  0  0  0  0  0  0  0
  100.8546   14.8519   10.9143 Cl  0  0  0  0  0  0  0  0  0  0  0  0
  101.5477   17.0812   12.2654 C   0  0  0  0  0  0  0  0  0  0  0  0
  101.6865   18.4548   12.4352 C   0  0  0  0  0  0  0  0  0  0  0  0
  101.2074   19.3231   11.4507 C   0  0  0  0  0  0  0  0  0  0  0  0
  100.6018   18.8293   10.3056 C   0  0  0  0  0  0  0  0  0  0  0  0
  100.1264   19.7553    9.3430 C   0  0  0  0  0  0  0  0  0  0  0  0
 19 17  2  0  0  0
 18 17  1  0  0  0
 17 13  1  0  0  0
 13 14  1  0  0  0
 13 12  1  0  0  0
 14 15  1  0  0  0
 12 11  1  0  0  0
 15 16  1  0  0  0
 16 11  1  0  0  0
 16  7  1  0  0  0
  9  8  2  0  0  0
  7  8  1  0  0  0
  8  1  1  0  0  0
  2  1  2  0  0  0
  2  6  1  0  0  0
  1  3  1  0  0  0
 21  6  1  0  0  0
 21 23  1  0  0  0
 25 23  2  0  0  0
 25 26  1  0  0  0
  6  5  2  0  0  0
 23 24  1  0  0  0
  3  4  2  0  0  0
 26 27  2  0  0  0
  5  4  1  0  0  0
 24 27  1  0  0  0
 27 28  1  0  0  0
 28 30  1  0  0  0
 28 29  2  0  0  0
 34 33  1  0  0  0
 30 32  1  0  0  0
 32 33  2  0  0  0
 32 38  1  0  0  0
 33 35  1  0  0  0
 39 38  1  0  0  0
 38 37  2  0  0  0
 35 36  2  0  0  0
 37 36  1  0  0  0
 18 20  1  0  0  0
  7 10  1  0  0  0
 21 22  1  0  0  0
 30 31  1  0  0  0
M  END
> <minimizedAffinity>
-9.70229

$$$$
5NKA_91H_A_1001


 39 42  0  0  0  0  0  0  0  0999 V2000
   91.6982   14.8407    5.6177 C   0  0  0  0  0  0  0  0  0  0  0  0
   93.0265   15.0090    5.2487 C   0  0  0  0  0  0  0  0  0  0  0  0
   91.3717   14.4617    6.9044 C   0  0  0  0  0  0  0  0  0  0  0  0
   92.3798   14.2210    7.8225 C   0  0  0  0  0  0  0  0  0  0  0  0
   93.7125   14.3903    7.4392 C   0  0  0  0  0  0  0  0  0  0  0  0
   94.0333   14.8172    6.1449 C   0  0  0  0  0  0  0  0  0  0  0  0
   90.8699   16.3193    4.1189 N   0  0  0  0  0  0  0  0  0  0  0  0
   90.7421   15.1004    4.6500 C   0  0  0  0  0  0  0  0  0  0  0  0
   89.9377   14.2419    4.2789 O   0  0  0  0  0  0  0  0  0  0  0  0
   91.5722   16.9099    4.4757 H   0  0  0  0  0  0  0  0  0  0  0  0
   88.6679   17.2619    3.5403 C   0  0  0  0  0  0  0  0  0  0  0  0
   87.7616   17.5341    2.3272 C   0  0  0  0  0  0  0  0  0  0  0  0
   88.5029   18.2815    1.1872 C   0  0  0  0  0  0  0  0  0  0  0  0
   89.7739   18.9732    1.7171 C   0  0  0  0  0  0  0  0  0  0  0  0
   90.7489   18.0200    2.4188 C   0  0  0  0  0  0  0  0  0  0  0  0
   90.0244   16.8274    3.0354 C   0  0  0  0  0  0  0  0  0  0  0  0
   88.7945   17.3782   -0.0340 C   0  0  0  0  0  0  0  0  0  0  0  0
   88.3254   16.2170   -0.0314 O   0  0  0  0  0  0  0  0  0  0  0  0
   89.5349   17.8611   -0.9205 O   0  0  0  0  0  0  0  0  0  0  0  0
   87.7771   15.9349    0.6742 H   0  0  0  0  0  0  0  0  0  0  0  0
   95.2993   14.9781    5.6269 N   0  0  0  0  0  0  0  0  0  0  0  0
   95.4326   14.8559    4.6591 H   0  0  0  0  0  0  0  0  0  0  0  0
   96.3539   15.2932    6.3844 C   0  0  0  0  0  0  0  0  0  0  0  0
   96.3098   16.2834    7.8086 S   0  0  0  0  0  0  0  0  0  0  0  0
   97.6105   14.9329    6.0927 N   0  0  0  0  0  0  0  0  0  0  0  0
   98.5345   15.3587    7.0124 C   0  0  0  0  0  0  0  0  0  0  0  0
   98.0338   16.1412    8.0284 C   0  0  0  0  0  0  0  0  0  0  0  0
   98.6363   16.7146    9.1181 C   0  0  0  0  0  0  0  0  0  0  0  0
   97.9255   16.9618   10.0936 O   0  0  0  0  0  0  0  0  0  0  0  0
   99.9782   16.9659    9.1404 N   0  0  0  0  0  0  0  0  0  0  0  0
  100.5127   16.7797    8.3349 H   0  0  0  0  0  0  0  0  0  0  0  0
  100.6024   17.4695   10.2503 C   0  0  0  0  0  0  0  0  0  0  0  0
  100.7095   18.8525   10.4106 C   0  0  0  0  0  0  0  0  0  0  0  0
  100.0109   19.9553    9.2761 Cl  0  0  0  0  0  0  0  0  0  0  0  0
  101.4207   19.3786   11.5021 C   0  0  0  0  0  0  0  0  0  0  0  0
  101.9787   18.5271   12.4500 C   0  0  0  0  0  0  0  0  0  0  0  0
  101.8728   17.1439   12.2815 C   0  0  0  0  0  0  0  0  0  0  0  0
  101.2127   16.6133   11.1840 C   0  0  0  0  0  0  0  0  0  0  0  0
  101.1422   15.2029   11.0584 C   0  0  0  0  0  0  0  0  0  0  0  0
 19 17  2  0  0  0
 18 17  1  0  0  0
 17 13  1  0  0  0
 13 14  1  0  0  0
 13 12  1  0  0  0
 14 15  1  0  0  0
 12 11  1  0  0  0
 15 16  1  0  0  0
 16 11  1  0  0  0
 16  7  1  0  0  0
  9  8  2  0  0  0
  7  8  1  0  0  0
  8  1  1  0  0  0
  2  1  2  0  0  0
  2  6  1  0  0  0
  1  3  1  0  0  0
 21  6  1  0  0  0
 21 23  1  0  0  0
 25 23  2  0  0  0
 25 26  1  0  0  0
  6  5  2  0  0  0
 23 24  1  0  0  0
  3  4  2  0  0  0
 26 27  2  0  0  0
  5  4  1  0  0  0
 24 27  1  0  0  0
 27 28  1  0  0  0
 28 30  1  0  0  0
 28 29  2  0  0  0
 34 33  1  0  0  0
 30 32  1  0  0  0
 32 33  2  0  0  0
 32 38  1  0  0  0
 33 35  1  0  0  0
 39 38  1  0  0  0
 38 37  2  0  0  0
 35 36  2  0  0  0
 37 36  1  0  0  0
 18 20  1  0  0  0
  7 10  1  0  0  0
 21 22  1  0  0  0
 30 31  1  0  0  0
M  END
> <minimizedAffinity>
-9.24821

$$$$
5NKA_91H_A_1001


 39 42  0  0  0  0  0  0  0  0999 V2000
   96.7508   15.5183    7.5372 C   0  0  0  0  0  0  0  0  0  0  0  0
   95.8016   15.0016    8.4097 C   0  0  0  0  0  0  0  0  0  0  0  0
   96.4516   15.6930    6.2009 C   0  0  0  0  0  0  0  0  0  0  0  0
   95.2051   15.3228    5.7256 C   0  0  0  0  0  0  0  0  0  0  0  0
   94.2593   14.8010    6.6117 C   0  0  0  0  0  0  0  0  0  0  0  0
   94.5558   14.6678    7.9735 C   0  0  0  0  0  0  0  0  0  0  0  0
   97.9258   16.0026    9.4089 N   0  0  0  0  0  0  0  0  0  0  0  0
   97.9753   15.8690    8.0808 C   0  0  0  0  0  0  0  0  0  0  0  0
   98.9971   15.9468    7.3941 O   0  0  0  0  0  0  0  0  0  0  0  0
   97.0560   15.8864    9.8552 H   0  0  0  0  0  0  0  0  0  0  0  0
  100.3556   15.6973    9.6825 C   0  0  0  0  0  0  0  0  0  0  0  0
  101.4720   15.8453   10.7309 C   0  0  0  0  0  0  0  0  0  0  0  0
  101.4584   17.2347   11.4217 C   0  0  0  0  0  0  0  0  0  0  0  0
  100.6721   18.2599   10.5818 C   0  0  0  0  0  0  0  0  0  0  0  0
   99.2325   17.8312   10.2729 C   0  0  0  0  0  0  0  0  0  0  0  0
   99.0926   16.3123   10.2395 C   0  0  0  0  0  0  0  0  0  0  0  0
  100.9621   17.1738   12.8853 C   0  0  0  0  0  0  0  0  0  0  0  0
  100.6556   16.0543   13.3557 O   0  0  0  0  0  0  0  0  0  0  0  0
  100.8478   18.2687   13.4812 O   0  0  0  0  0  0  0  0  0  0  0  0
  100.7737   15.2811   12.8399 H   0  0  0  0  0  0  0  0  0  0  0  0
   93.7362   14.1287    8.9402 N   0  0  0  0  0  0  0  0  0  0  0  0
   93.0798   13.4445    8.6751 H   0  0  0  0  0  0  0  0  0  0  0  0
   93.7957   14.4967   10.2234 C   0  0  0  0  0  0  0  0  0  0  0  0
   93.5229   16.1016   10.8236 S   0  0  0  0  0  0  0  0  0  0  0  0
   94.1480   13.6696   11.2163 N   0  0  0  0  0  0  0  0  0  0  0  0
   94.1344   14.2573   12.4554 C   0  0  0  0  0  0  0  0  0  0  0  0
   93.8398   15.6021   12.4639 C   0  0  0  0  0  0  0  0  0  0  0  0
   93.7112   16.5000   13.4918 C   0  0  0  0  0  0  0  0  0  0  0  0
   93.5031   16.0456   14.6180 O   0  0  0  0  0  0  0  0  0  0  0  0
   93.8479   17.8429   13.2863 N   0  0  0  0  0  0  0  0  0  0  0  0
   93.9886   18.1741   12.3700 H   0  0  0  0  0  0  0  0  0  0  0  0
   93.7951   18.7423   14.3174 C   0  0  0  0  0  0  0  0  0  0  0  0
   92.5711   19.3170   14.6661 C   0  0  0  0  0  0  0  0  0  0  0  0
   91.0995   18.8704   13.8748 Cl  0  0  0  0  0  0  0  0  0  0  0  0
   92.5192   20.3028   15.6658 C   0  0  0  0  0  0  0  0  0  0  0  0
   93.6759   20.6748   16.3429 C   0  0  0  0  0  0  0  0  0  0  0  0
   94.8987   20.1001   15.9860 C   0  0  0  0  0  0  0  0  0  0  0  0
   94.9687   19.1598   14.9698 C   0  0  0  0  0  0  0  0  0  0  0  0
   96.2363   18.6151   14.6432 C   0  0  0  0  0  0  0  0  0  0  0  0
 19 17  2  0  0  0
 18 17  1  0  0  0
 17 13  1  0  0  0
 13 14  1  0  0  0
 13 12  1  0  0  0
 14 15  1  0  0  0
 12 11  1  0  0  0
 15 16  1  0  0  0
 16 11  1  0  0  0
 16  7  1  0  0  0
  9  8  2  0  0  0
  7  8  1  0  0  0
  8  1  1  0  0  0
  2  1  2  0  0  0
  2  6  1  0  0  0
  1  3  1  0  0  0
 21  6  1  0  0  0
 21 23  1  0  0  0
 25 23  2  0  0  0
 25 26  1  0  0  0
  6  5  2  0  0  0
 23 24  1  0  0  0
  3  4  2  0  0  0
 26 27  2  0  0  0
  5  4  1  0  0  0
 24 27  1  0  0  0
 27 28  1  0  0  0
 28 30  1  0  0  0
 28 29  2  0  0  0
 34 33  1  0  0  0
 30 32  1  0  0  0
 32 33  2  0  0  0
 32 38  1  0  0  0
 33 35  1  0  0  0
 39 38  1  0  0  0
 38 37  2  0  0  0
 35 36  2  0  0  0
 37 36  1  0  0  0
 18 20  1  0  0  0
  7 10  1  0  0  0
 21 22  1  0  0  0
 30 31  1  0  0  0
M  END
> <minimizedAffinity>
-8.56888

$$$$
5NKA_91H_A_1001


 39 42  0  0  0  0  0  0  0  0999 V2000
   96.2032   15.4747    8.3675 C   0  0  0  0  0  0  0  0  0  0  0  0
   94.9142   14.9953    8.5622 C   0  0  0  0  0  0  0  0  0  0  0  0
   96.6432   15.8056    7.1016 C   0  0  0  0  0  0  0  0  0  0  0  0
   95.8002   15.6301    6.0175 C   0  0  0  0  0  0  0  0  0  0  0  0
   94.5070   15.1439    6.2247 C   0  0  0  0  0  0  0  0  0  0  0  0
   94.0537   14.8520    7.5168 C   0  0  0  0  0  0  0  0  0  0  0  0
   98.2318   16.0265    9.2035 N   0  0  0  0  0  0  0  0  0  0  0  0
   96.9912   15.6274    9.4962 C   0  0  0  0  0  0  0  0  0  0  0  0
   96.5355   15.4931   10.6346 O   0  0  0  0  0  0  0  0  0  0  0  0
   98.4745   16.1305    8.2550 H   0  0  0  0  0  0  0  0  0  0  0  0
  100.5995   15.7526    9.8287 C   0  0  0  0  0  0  0  0  0  0  0  0
  101.5412   15.8718   11.0396 C   0  0  0  0  0  0  0  0  0  0  0  0
  101.3894   17.2273   11.7795 C   0  0  0  0  0  0  0  0  0  0  0  0
  100.7133   18.2760   10.8752 C   0  0  0  0  0  0  0  0  0  0  0  0
   99.3478   17.8363   10.3335 C   0  0  0  0  0  0  0  0  0  0  0  0
   99.2522   16.3183   10.2138 C   0  0  0  0  0  0  0  0  0  0  0  0
  100.6800   17.0897   13.1471 C   0  0  0  0  0  0  0  0  0  0  0  0
  100.3971   15.9378   13.5490 O   0  0  0  0  0  0  0  0  0  0  0  0
  100.3861   18.1565   13.7324 O   0  0  0  0  0  0  0  0  0  0  0  0
  100.6561   15.1899   13.0476 H   0  0  0  0  0  0  0  0  0  0  0  0
   92.8261   14.3264    7.8539 N   0  0  0  0  0  0  0  0  0  0  0  0
   92.2851   13.9009    7.1499 H   0  0  0  0  0  0  0  0  0  0  0  0
   92.3395   14.3706    9.0975 C   0  0  0  0  0  0  0  0  0  0  0  0
   92.0529   12.9949   10.1153 S   0  0  0  0  0  0  0  0  0  0  0  0
   91.9406   15.4995    9.6979 N   0  0  0  0  0  0  0  0  0  0  0  0
   91.4819   15.3123   10.9768 C   0  0  0  0  0  0  0  0  0  0  0  0
   91.4359   14.0024   11.3979 C   0  0  0  0  0  0  0  0  0  0  0  0
   91.0677   13.4424   12.5938 C   0  0  0  0  0  0  0  0  0  0  0  0
   90.2546   14.0611   13.2823 O   0  0  0  0  0  0  0  0  0  0  0  0
   91.5499   12.2282   12.9907 N   0  0  0  0  0  0  0  0  0  0  0  0
   92.2174   11.7723   12.4287 H   0  0  0  0  0  0  0  0  0  0  0  0
   91.1323   11.6261   14.1474 C   0  0  0  0  0  0  0  0  0  0  0  0
   91.8766   11.7938   15.3170 C   0  0  0  0  0  0  0  0  0  0  0  0
   93.2802   12.8032   15.3638 Cl  0  0  0  0  0  0  0  0  0  0  0  0
   91.5042   11.1131   16.4883 C   0  0  0  0  0  0  0  0  0  0  0  0
   90.3691   10.3093   16.5000 C   0  0  0  0  0  0  0  0  0  0  0  0
   89.6313   10.1410   15.3252 C   0  0  0  0  0  0  0  0  0  0  0  0
   90.0156   10.7715   14.1520 C   0  0  0  0  0  0  0  0  0  0  0  0
   89.2355   10.5594   12.9873 C   0  0  0  0  0  0  0  0  0  0  0  0
 19 17  2  0  0  0
 18 17  1  0  0  0
 17 13  1  0  0  0
 13 14  1  0  0  0
 13 12  1  0  0  0
 14 15  1  0  0  0
 12 11  1  0  0  0
 15 16  1  0  0  0
 16 11  1  0  0  0
 16  7  1  0  0  0
  9  8  2  0  0  0
  7  8  1  0  0  0
  8  1  1  0  0  0
  2  1  2  0  0  0
  2  6  1  0  0  0
  1  3  1  0  0  0
 21  6  1  0  0  0
 21 23  1  0  0  0
 25 23  2  0  0  0
 25 26  1  0  0  0
  6  5  2  0  0  0
 23 24  1  0  0  0
  3  4  2  0  0  0
 26 27  2  0  0  0
  5  4  1  0  0  0
 24 27  1  0  0  0
 27 28  1  0  0  0
 28 30  1  0  0  0
 28 29  2  0  0  0
 34 33  1  0  0  0
 30 32  1  0  0  0
 32 33  2  0  0  0
 32 38  1  0  0  0
 33 35  1  0  0  0
 39 38  1  0  0  0
 38 37  2  0  0  0
 35 36  2  0  0  0
 37 36  1  0  0  0
 18 20  1  0  0  0
  7 10  1  0  0  0
 21 22  1  0  0  0
 30 31  1  0  0  0
M  END
> <minimizedAffinity>
-8.48513

$$$$
5NKA_91H_A_1001


 39 42  0  0  0  0  0  0  0  0999 V2000
   95.8377   15.1446    8.7435 C   0  0  0  0  0  0  0  0  0  0  0  0
   94.5146   14.9955    9.1387 C   0  0  0  0  0  0  0  0  0  0  0  0
   96.1643   15.2183    7.4042 C   0  0  0  0  0  0  0  0  0  0  0  0
   95.1659   15.1139    6.4507 C   0  0  0  0  0  0  0  0  0  0  0  0
   93.8388   14.9608    6.8596 C   0  0  0  0  0  0  0  0  0  0  0  0
   93.5113   14.9309    8.2205 C   0  0  0  0  0  0  0  0  0  0  0  0
   97.7523   16.1165    9.4567 N   0  0  0  0  0  0  0  0  0  0  0  0
   96.7839   15.2444    9.7499 C   0  0  0  0  0  0  0  0  0  0  0  0
   96.6613   14.6496   10.8237 O   0  0  0  0  0  0  0  0  0  0  0  0
   97.7295   16.5570    8.5766 H   0  0  0  0  0  0  0  0  0  0  0  0
  100.1976   16.1760    9.7541 C   0  0  0  0  0  0  0  0  0  0  0  0
  101.2691   16.3082   10.8502 C   0  0  0  0  0  0  0  0  0  0  0  0
  101.0163   17.5203   11.7856 C   0  0  0  0  0  0  0  0  0  0  0  0
  100.0688   18.5392   11.1232 C   0  0  0  0  0  0  0  0  0  0  0  0
   98.7246   17.9417   10.6898 C   0  0  0  0  0  0  0  0  0  0  0  0
   98.8465   16.4548   10.3707 C   0  0  0  0  0  0  0  0  0  0  0  0
  100.5334   17.1023   13.1943 C   0  0  0  0  0  0  0  0  0  0  0  0
  100.4105   15.8794   13.4345 O   0  0  0  0  0  0  0  0  0  0  0  0
  100.2427   18.0307   13.9821 O   0  0  0  0  0  0  0  0  0  0  0  0
  100.6528   15.2479   12.7860 H   0  0  0  0  0  0  0  0  0  0  0  0
   92.2568   14.7399    8.7559 N   0  0  0  0  0  0  0  0  0  0  0  0
   91.9479   15.3495    9.4646 H   0  0  0  0  0  0  0  0  0  0  0  0
   91.4419   13.7607    8.3526 C   0  0  0  0  0  0  0  0  0  0  0  0
   90.3907   13.8304    6.9739 S   0  0  0  0  0  0  0  0  0  0  0  0
   91.2826   12.6082    9.0161 N   0  0  0  0  0  0  0  0  0  0  0  0
   90.4019   11.7438    8.4176 C   0  0  0  0  0  0  0  0  0  0  0  0
   89.7777   12.2290    7.2906 C   0  0  0  0  0  0  0  0  0  0  0  0
   88.8761   11.6568    6.4309 C   0  0  0  0  0  0  0  0  0  0  0  0
   88.2743   10.6564    6.8248 O   0  0  0  0  0  0  0  0  0  0  0  0
   88.6228   12.1949    5.2019 N   0  0  0  0  0  0  0  0  0  0  0  0
   89.1395   12.9798    4.9082 H   0  0  0  0  0  0  0  0  0  0  0  0
   87.6714   11.6748    4.3656 C   0  0  0  0  0  0  0  0  0  0  0  0
   86.3482   12.1068    4.4771 C   0  0  0  0  0  0  0  0  0  0  0  0
   85.8861   13.3384    5.6000 Cl  0  0  0  0  0  0  0  0  0  0  0  0
   85.3498   11.5194    3.6820 C   0  0  0  0  0  0  0  0  0  0  0  0
   85.6821   10.5416    2.7501 C   0  0  0  0  0  0  0  0  0  0  0  0
   87.0070   10.1095    2.6468 C   0  0  0  0  0  0  0  0  0  0  0  0
   87.9927   10.6497    3.4583 C   0  0  0  0  0  0  0  0  0  0  0  0
   89.3188   10.1687    3.3172 C   0  0  0  0  0  0  0  0  0  0  0  0
 19 17  2  0  0  0
 18 17  1  0  0  0
 17 13  1  0  0  0
 13 14  1  0  0  0
 13 12  1  0  0  0
 14 15  1  0  0  0
 12 11  1  0  0  0
 15 16  1  0  0  0
 16 11  1  0  0  0
 16  7  1  0  0  0
  9  8  2  0  0  0
  7  8  1  0  0  0
  8  1  1  0  0  0
  2  1  2  0  0  0
  2  6  1  0  0  0
  1  3  1  0  0  0
 21  6  1  0  0  0
 21 23  1  0  0  0
 25 23  2  0  0  0
 25 26  1  0  0  0
  6  5  2  0  0  0
 23 24  1  0  0  0
  3  4  2  0  0  0
 26 27  2  0  0  0
  5  4  1  0  0  0
 24 27  1  0  0  0
 27 28  1  0  0  0
 28 30  1  0  0  0
 28 29  2  0  0  0
 34 33  1  0  0  0
 30 32  1  0  0  0
 32 33  2  0  0  0
 32 38  1  0  0  0
 33 35  1  0  0  0
 39 38  1  0  0  0
 38 37  2  0  0  0
 35 36  2  0  0  0
 37 36  1  0  0  0
 18 20  1  0  0  0
  7 10  1  0  0  0
 21 22  1  0  0  0
 30 31  1  0  0  0
M  END
> <minimizedAffinity>
-8.38352

$$$$
5NKA_91H_A_1001


 39 42  0  0  0  0  0  0  0  0999 V2000
   96.4253   15.5096    8.2439 C   0  0  0  0  0  0  0  0  0  0  0  0
   95.1212   15.0511    8.3789 C   0  0  0  0  0  0  0  0  0  0  0  0
   96.9837   15.6735    6.9921 C   0  0  0  0  0  0  0  0  0  0  0  0
   96.2448   15.3505    5.8666 C   0  0  0  0  0  0  0  0  0  0  0  0
   94.9352   14.8871    6.0145 C   0  0  0  0  0  0  0  0  0  0  0  0
   94.3615   14.7652    7.2858 C   0  0  0  0  0  0  0  0  0  0  0  0
   98.4176   15.9666    9.2139 N   0  0  0  0  0  0  0  0  0  0  0  0
   97.1051   15.8153    9.4111 C   0  0  0  0  0  0  0  0  0  0  0  0
   96.5172   16.0122   10.4776 O   0  0  0  0  0  0  0  0  0  0  0  0
   98.7717   15.8132    8.3082 H   0  0  0  0  0  0  0  0  0  0  0  0
  100.7734   15.9298    9.9353 C   0  0  0  0  0  0  0  0  0  0  0  0
  101.6476   16.1285   11.1856 C   0  0  0  0  0  0  0  0  0  0  0  0
  101.3260   17.4505   11.9318 C   0  0  0  0  0  0  0  0  0  0  0  0
  100.5822   18.4365   11.0102 C   0  0  0  0  0  0  0  0  0  0  0  0
   99.2929   17.8658   10.4074 C   0  0  0  0  0  0  0  0  0  0  0  0
   99.3602   16.3480   10.2690 C   0  0  0  0  0  0  0  0  0  0  0  0
  100.5797   17.2212   13.2670 C   0  0  0  0  0  0  0  0  0  0  0  0
  100.2953   16.0441   13.5865 O   0  0  0  0  0  0  0  0  0  0  0  0
  100.2604   18.2464   13.9104 O   0  0  0  0  0  0  0  0  0  0  0  0
  100.5746   15.3314   13.0461 H   0  0  0  0  0  0  0  0  0  0  0  0
   93.1048   14.2802    7.5731 N   0  0  0  0  0  0  0  0  0  0  0  0
   92.9964   13.6758    8.3426 H   0  0  0  0  0  0  0  0  0  0  0  0
   92.0269   14.5969    6.8499 C   0  0  0  0  0  0  0  0  0  0  0  0
   92.0471   15.1774    5.2149 S   0  0  0  0  0  0  0  0  0  0  0  0
   90.7771   14.5700    7.3310 N   0  0  0  0  0  0  0  0  0  0  0  0
   89.8238   14.9265    6.4116 C   0  0  0  0  0  0  0  0  0  0  0  0
   90.3097   15.3220    5.1858 C   0  0  0  0  0  0  0  0  0  0  0  0
   89.6728   15.7144    4.0370 C   0  0  0  0  0  0  0  0  0  0  0  0
   88.4426   15.7774    4.0647 O   0  0  0  0  0  0  0  0  0  0  0  0
   90.3725   16.0612    2.9170 N   0  0  0  0  0  0  0  0  0  0  0  0
   91.3533   15.9753    2.9207 H   0  0  0  0  0  0  0  0  0  0  0  0
   89.7503   16.5250    1.7889 C   0  0  0  0  0  0  0  0  0  0  0  0
   89.2894   15.6154    0.8349 C   0  0  0  0  0  0  0  0  0  0  0  0
   89.4197   13.9070    1.0711 Cl  0  0  0  0  0  0  0  0  0  0  0  0
   88.7254   16.0827   -0.3641 C   0  0  0  0  0  0  0  0  0  0  0  0
   88.5811   17.4485   -0.5842 C   0  0  0  0  0  0  0  0  0  0  0  0
   89.0490   18.3541    0.3718 C   0  0  0  0  0  0  0  0  0  0  0  0
   89.6487   17.9049    1.5381 C   0  0  0  0  0  0  0  0  0  0  0  0
   90.1128   18.8673    2.4699 C   0  0  0  0  0  0  0  0  0  0  0  0
 19 17  2  0  0  0
 18 17  1  0  0  0
 17 13  1  0  0  0
 13 14  1  0  0  0
 13 12  1  0  0  0
 14 15  1  0  0  0
 12 11  1  0  0  0
 15 16  1  0  0  0
 16 11  1  0  0  0
 16  7  1  0  0  0
  9  8  2  0  0  0
  7  8  1  0  0  0
  8  1  1  0  0  0
  2  1  2  0  0  0
  2  6  1  0  0  0
  1  3  1  0  0  0
 21  6  1  0  0  0
 21 23  1  0  0  0
 25 23  2  0  0  0
 25 26  1  0  0  0
  6  5  2  0  0  0
 23 24  1  0  0  0
  3  4  2  0  0  0
 26 27  2  0  0  0
  5  4  1  0  0  0
 24 27  1  0  0  0
 27 28  1  0  0  0
 28 30  1  0  0  0
 28 29  2  0  0  0
 34 33  1  0  0  0
 30 32  1  0  0  0
 32 33  2  0  0  0
 32 38  1  0  0  0
 33 35  1  0  0  0
 39 38  1  0  0  0
 38 37  2  0  0  0
 35 36  2  0  0  0
 37 36  1  0  0  0
 18 20  1  0  0  0
  7 10  1  0  0  0
 21 22  1  0  0  0
 30 31  1  0  0  0
M  END
> <minimizedAffinity>
-8.28870

$$$$
5NKA_91H_A_1001


 39 42  0  0  0  0  0  0  0  0999 V2000
   95.6654   15.1411    8.6011 C   0  0  0  0  0  0  0  0  0  0  0  0
   94.3426   14.9823    8.9934 C   0  0  0  0  0  0  0  0  0  0  0  0
   96.0022   15.1512    7.2624 C   0  0  0  0  0  0  0  0  0  0  0  0
   95.0151   14.9730    6.3080 C   0  0  0  0  0  0  0  0  0  0  0  0
   93.6883   14.8109    6.7143 C   0  0  0  0  0  0  0  0  0  0  0  0
   93.3493   14.8456    8.0722 C   0  0  0  0  0  0  0  0  0  0  0  0
   97.7282   15.8788    9.1664 N   0  0  0  0  0  0  0  0  0  0  0  0
   96.6000   15.3163    9.6080 C   0  0  0  0  0  0  0  0  0  0  0  0
   96.3467   15.0574   10.7872 O   0  0  0  0  0  0  0  0  0  0  0  0
   97.8056   16.0703    8.2038 H   0  0  0  0  0  0  0  0  0  0  0  0
  100.1716   15.7520    9.4589 C   0  0  0  0  0  0  0  0  0  0  0  0
  101.2609   15.9214   10.5321 C   0  0  0  0  0  0  0  0  0  0  0  0
  101.1277   17.2583   11.3085 C   0  0  0  0  0  0  0  0  0  0  0  0
  100.2702   18.2690   10.5223 C   0  0  0  0  0  0  0  0  0  0  0  0
   98.8734   17.7471   10.1642 C   0  0  0  0  0  0  0  0  0  0  0  0
   98.8571   16.2272   10.0332 C   0  0  0  0  0  0  0  0  0  0  0  0
  100.6221   17.0645   12.7573 C   0  0  0  0  0  0  0  0  0  0  0  0
  100.6340   18.0567   13.5215 O   0  0  0  0  0  0  0  0  0  0  0  0
  100.2876   15.9023   13.0803 O   0  0  0  0  0  0  0  0  0  0  0  0
  100.8993   18.8947   13.1970 H   0  0  0  0  0  0  0  0  0  0  0  0
   92.0947   14.6539    8.6073 N   0  0  0  0  0  0  0  0  0  0  0  0
   91.7776   15.2754    9.3020 H   0  0  0  0  0  0  0  0  0  0  0  0
   91.2906   13.6588    8.2220 C   0  0  0  0  0  0  0  0  0  0  0  0
   90.1977   13.7123    6.8754 S   0  0  0  0  0  0  0  0  0  0  0  0
   91.1771   12.4992    8.8827 N   0  0  0  0  0  0  0  0  0  0  0  0
   90.2988   11.6184    8.3049 C   0  0  0  0  0  0  0  0  0  0  0  0
   89.6307   12.0956    7.1998 C   0  0  0  0  0  0  0  0  0  0  0  0
   88.7171   11.5080    6.3635 C   0  0  0  0  0  0  0  0  0  0  0  0
   88.2046   10.4517    6.7373 O   0  0  0  0  0  0  0  0  0  0  0  0
   88.3571   12.0879    5.1810 N   0  0  0  0  0  0  0  0  0  0  0  0
   88.8045   12.9189    4.9007 H   0  0  0  0  0  0  0  0  0  0  0  0
   87.3920   11.5477    4.3737 C   0  0  0  0  0  0  0  0  0  0  0  0
   87.7460   10.5769    3.4345 C   0  0  0  0  0  0  0  0  0  0  0  0
   89.3653    9.9825    3.3084 Cl  0  0  0  0  0  0  0  0  0  0  0  0
   86.7801   10.0773    2.5448 C   0  0  0  0  0  0  0  0  0  0  0  0
   85.4613   10.5118    2.6271 C   0  0  0  0  0  0  0  0  0  0  0  0
   85.1141   11.4874    3.5655 C   0  0  0  0  0  0  0  0  0  0  0  0
   86.0685   12.0207    4.4178 C   0  0  0  0  0  0  0  0  0  0  0  0
   85.6631   13.0137    5.3450 C   0  0  0  0  0  0  0  0  0  0  0  0
 19 17  2  0  0  0
 18 17  1  0  0  0
 17 13  1  0  0  0
 13 14  1  0  0  0
 13 12  1  0  0  0
 14 15  1  0  0  0
 12 11  1  0  0  0
 15 16  1  0  0  0
 16 11  1  0  0  0
 16  7  1  0  0  0
  9  8  2  0  0  0
  7  8  1  0  0  0
  8  1  1  0  0  0
  2  1  2  0  0  0
  2  6  1  0  0  0
  1  3  1  0  0  0
 21  6  1  0  0  0
 21 23  1  0  0  0
 25 23  2  0  0  0
 25 26  1  0  0  0
  6  5  2  0  0  0
 23 24  1  0  0  0
  3  4  2  0  0  0
 26 27  2  0  0  0
  5  4  1  0  0  0
 24 27  1  0  0  0
 27 28  1  0  0  0
 28 30  1  0  0  0
 28 29  2  0  0  0
 34 33  1  0  0  0
 30 32  1  0  0  0
 32 33  2  0  0  0
 32 38  1  0  0  0
 33 35  1  0  0  0
 39 38  1  0  0  0
 38 37  2  0  0  0
 35 36  2  0  0  0
 37 36  1  0  0  0
 18 20  1  0  0  0
  7 10  1  0  0  0
 21 22  1  0  0  0
 30 31  1  0  0  0
M  END
> <minimizedAffinity>
-8.28671

$$$$
5NKA_91H_A_1001


 39 42  0  0  0  0  0  0  0  0999 V2000
   96.4283   13.8737   11.6971 C   0  0  0  0  0  0  0  0  0  0  0  0
   95.5228   14.6169   10.9509 C   0  0  0  0  0  0  0  0  0  0  0  0
   96.0559   12.6630   12.2460 C   0  0  0  0  0  0  0  0  0  0  0  0
   94.7614   12.2035   12.0730 C   0  0  0  0  0  0  0  0  0  0  0  0
   93.8582   12.9610   11.3233 C   0  0  0  0  0  0  0  0  0  0  0  0
   94.2564   14.1667   10.7334 C   0  0  0  0  0  0  0  0  0  0  0  0
   97.8105   15.6265   11.3286 N   0  0  0  0  0  0  0  0  0  0  0  0
   97.7059   14.3920   11.8280 C   0  0  0  0  0  0  0  0  0  0  0  0
   98.5976   13.7887   12.4301 O   0  0  0  0  0  0  0  0  0  0  0  0
   97.0190   16.0210   10.8960 H   0  0  0  0  0  0  0  0  0  0  0  0
   99.8486   16.3027   10.1199 C   0  0  0  0  0  0  0  0  0  0  0  0
  101.2229   16.9525   10.3568 C   0  0  0  0  0  0  0  0  0  0  0  0
  101.1233   18.2804   11.1535 C   0  0  0  0  0  0  0  0  0  0  0  0
   99.6939   18.8531   11.0935 C   0  0  0  0  0  0  0  0  0  0  0  0
   98.6174   17.8801   11.5894 C   0  0  0  0  0  0  0  0  0  0  0  0
   99.0364   16.4270   11.3882 C   0  0  0  0  0  0  0  0  0  0  0  0
  101.6411   18.1510   12.6052 C   0  0  0  0  0  0  0  0  0  0  0  0
  101.7660   17.0006   13.0841 O   0  0  0  0  0  0  0  0  0  0  0  0
  101.8456   19.2212   13.2216 O   0  0  0  0  0  0  0  0  0  0  0  0
  101.5921   16.2498   12.5512 H   0  0  0  0  0  0  0  0  0  0  0  0
   93.4585   15.0278   10.0132 N   0  0  0  0  0  0  0  0  0  0  0  0
   92.9404   15.7095   10.4991 H   0  0  0  0  0  0  0  0  0  0  0  0
   93.3591   14.9756    8.6818 C   0  0  0  0  0  0  0  0  0  0  0  0
   91.9710   14.4269    7.7971 S   0  0  0  0  0  0  0  0  0  0  0  0
   94.3640   15.2817    7.8507 N   0  0  0  0  0  0  0  0  0  0  0  0
   94.0379   15.1647    6.5236 C   0  0  0  0  0  0  0  0  0  0  0  0
   92.7729   14.6842    6.2703 C   0  0  0  0  0  0  0  0  0  0  0  0
   92.1008   14.4628    5.0961 C   0  0  0  0  0  0  0  0  0  0  0  0
   92.7747   14.1994    4.0989 O   0  0  0  0  0  0  0  0  0  0  0  0
   90.7370   14.4924    5.0391 N   0  0  0  0  0  0  0  0  0  0  0  0
   90.2300   14.7310    5.8486 H   0  0  0  0  0  0  0  0  0  0  0  0
   90.0536   14.2000    3.8891 C   0  0  0  0  0  0  0  0  0  0  0  0
   89.7155   15.2307    3.0097 C   0  0  0  0  0  0  0  0  0  0  0  0
   90.1989   16.8661    3.2979 Cl  0  0  0  0  0  0  0  0  0  0  0  0
   88.9423   14.9539    1.8697 C   0  0  0  0  0  0  0  0  0  0  0  0
   88.5519   13.6487    1.5886 C   0  0  0  0  0  0  0  0  0  0  0  0
   88.8887   12.6223    2.4751 C   0  0  0  0  0  0  0  0  0  0  0  0
   89.6123   12.8910    3.6267 C   0  0  0  0  0  0  0  0  0  0  0  0
   89.9195   11.8133    4.4952 C   0  0  0  0  0  0  0  0  0  0  0  0
 19 17  2  0  0  0
 18 17  1  0  0  0
 17 13  1  0  0  0
 13 14  1  0  0  0
 13 12  1  0  0  0
 14 15  1  0  0  0
 12 11  1  0  0  0
 15 16  1  0  0  0
 16 11  1  0  0  0
 16  7  1  0  0  0
  9  8  2  0  0  0
  7  8  1  0  0  0
  8  1  1  0  0  0
  2  1  2  0  0  0
  2  6  1  0  0  0
  1  3  1  0  0  0
 21  6  1  0  0  0
 21 23  1  0  0  0
 25 23  2  0  0  0
 25 26  1  0  0  0
  6  5  2  0  0  0
 23 24  1  0  0  0
  3  4  2  0  0  0
 26 27  2  0  0  0
  5  4  1  0  0  0
 24 27  1  0  0  0
 27 28  1  0  0  0
 28 30  1  0  0  0
 28 29  2  0  0  0
 34 33  1  0  0  0
 30 32  1  0  0  0
 32 33  2  0  0  0
 32 38  1  0  0  0
 33 35  1  0  0  0
 39 38  1  0  0  0
 38 37  2  0  0  0
 35 36  2  0  0  0
 37 36  1  0  0  0
 18 20  1  0  0  0
  7 10  1  0  0  0
 21 22  1  0  0  0
 30 31  1  0  0  0
M  END
> <minimizedAffinity>
-8.12753

$$$$
5NKA_91H_A_1001


 39 42  0  0  0  0  0  0  0  0999 V2000
   90.7622   13.7345    8.1319 C   0  0  0  0  0  0  0  0  0  0  0  0
   91.7796   14.3412    7.4069 C   0  0  0  0  0  0  0  0  0  0  0  0
   91.0412   13.0738    9.3115 C   0  0  0  0  0  0  0  0  0  0  0  0
   92.3497   12.9934    9.7567 C   0  0  0  0  0  0  0  0  0  0  0  0
   93.3655   13.6045    9.0175 C   0  0  0  0  0  0  0  0  0  0  0  0
   93.0683   14.3099    7.8452 C   0  0  0  0  0  0  0  0  0  0  0  0
   89.2812   13.1082    6.5403 N   0  0  0  0  0  0  0  0  0  0  0  0
   89.4774   13.8561    7.6295 C   0  0  0  0  0  0  0  0  0  0  0  0
   88.6099   14.5170    8.2062 O   0  0  0  0  0  0  0  0  0  0  0  0
   90.0432   12.5953    6.1859 H   0  0  0  0  0  0  0  0  0  0  0  0
   87.9139   13.9686    4.6797 C   0  0  0  0  0  0  0  0  0  0  0  0
   86.4633   13.9885    4.1672 C   0  0  0  0  0  0  0  0  0  0  0  0
   85.8289   12.5731    4.1230 C   0  0  0  0  0  0  0  0  0  0  0  0
   86.9164   11.4812    4.1376 C   0  0  0  0  0  0  0  0  0  0  0  0
   87.8693   11.5746    5.3353 C   0  0  0  0  0  0  0  0  0  0  0  0
   87.9964   13.0076    5.8430 C   0  0  0  0  0  0  0  0  0  0  0  0
   84.7667   12.3554    5.2259 C   0  0  0  0  0  0  0  0  0  0  0  0
   84.5196   13.3083    6.0001 O   0  0  0  0  0  0  0  0  0  0  0  0
   84.2669   11.2101    5.3003 O   0  0  0  0  0  0  0  0  0  0  0  0
   84.9393   14.1364    5.8727 H   0  0  0  0  0  0  0  0  0  0  0  0
   93.9743   14.9155    7.0029 N   0  0  0  0  0  0  0  0  0  0  0  0
   93.7239   15.0542    6.0610 H   0  0  0  0  0  0  0  0  0  0  0  0
   95.1794   15.3224    7.4124 C   0  0  0  0  0  0  0  0  0  0  0  0
   95.4974   16.2339    8.8541 S   0  0  0  0  0  0  0  0  0  0  0  0
   96.3042   15.1320    6.7105 N   0  0  0  0  0  0  0  0  0  0  0  0
   97.4276   15.6252    7.3236 C   0  0  0  0  0  0  0  0  0  0  0  0
   97.2051   16.2936    8.5064 C   0  0  0  0  0  0  0  0  0  0  0  0
   98.0659   16.8861    9.3937 C   0  0  0  0  0  0  0  0  0  0  0  0
   97.5943   17.2854   10.4596 O   0  0  0  0  0  0  0  0  0  0  0  0
   99.4006   16.9948    9.1273 N   0  0  0  0  0  0  0  0  0  0  0  0
   99.7404   16.6885    8.2556 H   0  0  0  0  0  0  0  0  0  0  0  0
  100.2805   17.5175   10.0371 C   0  0  0  0  0  0  0  0  0  0  0  0
  100.9301   16.6655   10.9327 C   0  0  0  0  0  0  0  0  0  0  0  0
  100.7077   14.9512   10.8797 Cl  0  0  0  0  0  0  0  0  0  0  0  0
  101.7700   17.1996   11.9243 C   0  0  0  0  0  0  0  0  0  0  0  0
  101.9942   18.5710   11.9877 C   0  0  0  0  0  0  0  0  0  0  0  0
  101.3372   19.4191   11.0921 C   0  0  0  0  0  0  0  0  0  0  0  0
  100.4706   18.9070   10.1389 C   0  0  0  0  0  0  0  0  0  0  0  0
   99.8243   19.8134    9.2609 C   0  0  0  0  0  0  0  0  0  0  0  0
 19 17  2  0  0  0
 18 17  1  0  0  0
 17 13  1  0  0  0
 13 14  1  0  0  0
 13 12  1  0  0  0
 14 15  1  0  0  0
 12 11  1  0  0  0
 15 16  1  0  0  0
 16 11  1  0  0  0
 16  7  1  0  0  0
  9  8  2  0  0  0
  7  8  1  0  0  0
  8  1  1  0  0  0
  2  1  2  0  0  0
  2  6  1  0  0  0
  1  3  1  0  0  0
 21  6  1  0  0  0
 21 23  1  0  0  0
 25 23  2  0  0  0
 25 26  1  0  0  0
  6  5  2  0  0  0
 23 24  1  0  0  0
  3  4  2  0  0  0
 26 27  2  0  0  0
  5  4  1  0  0  0
 24 27  1  0  0  0
 27 28  1  0  0  0
 28 30  1  0  0  0
 28 29  2  0  0  0
 34 33  1  0  0  0
 30 32  1  0  0  0
 32 33  2  0  0  0
 32 38  1  0  0  0
 33 35  1  0  0  0
 39 38  1  0  0  0
 38 37  2  0  0  0
 35 36  2  0  0  0
 37 36  1  0  0  0
 18 20  1  0  0  0
  7 10  1  0  0  0
 21 22  1  0  0  0
 30 31  1  0  0  0
M  END
> <minimizedAffinity>
-8.01288

$$$$
