3RSX_RSV_A_397


 18 20  0  0  0  0  0  0  0  0999 V2000
   68.4647   50.1818    8.8772 C   0  0  0  0  0  0  0  0  0  0  0  0
   69.0366   49.0330    9.4297 C   0  0  0  0  0  0  0  0  0  0  0  0
   69.9077   49.1457   10.5136 C   0  0  0  0  0  0  0  0  0  0  0  0
   67.6088   50.0932    7.8463 N   0  0  0  0  0  0  0  0  0  0  0  0
   67.2760   48.9004    7.3086 C   0  0  0  0  0  0  0  0  0  0  0  0
   68.7188   47.7841    8.8953 C   0  0  0  0  0  0  0  0  0  0  0  0
   67.8266   47.7170    7.8182 C   0  0  0  0  0  0  0  0  0  0  0  0
   66.4362   48.8553    6.2745 N   0  0  0  0  0  0  0  0  0  0  0  0
   68.7687   51.4317    9.4148 C   0  0  0  0  0  0  0  0  0  0  0  0
   69.6464   51.5450   10.4958 C   0  0  0  0  0  0  0  0  0  0  0  0
   70.2345   50.4044   11.0446 C   0  0  0  0  0  0  0  0  0  0  0  0
   66.0499   49.6874    5.9174 H   0  0  0  0  0  0  0  0  0  0  0  0
   66.2021   47.9898    5.8679 H   0  0  0  0  0  0  0  0  0  0  0  0
   71.0937   50.5293   12.1418 C   0  0  0  0  0  0  0  0  0  0  0  0
   70.9422   51.5398   13.0448 C   0  0  0  0  0  0  0  0  0  0  0  0
   72.0933   49.6831   12.4504 C   0  0  0  0  0  0  0  0  0  0  0  0
   71.7851   51.5967   14.0880 C   0  0  0  0  0  0  0  0  0  0  0  0
   72.7915   50.2742   13.8916 S   0  0  0  0  0  0  0  0  0  0  0  0
  4  1  2  0  0  0
  1  9  1  0  0  0
  1  2  1  0  0  0
  6  2  2  0  0  0
  2  3  1  0  0  0
  3 11  2  0  0  0
 11 14  1  0  0  0
 14 16  2  0  0  0
 14 15  1  0  0  0
 15 17  2  0  0  0
 16 18  1  0  0  0
  5  4  1  0  0  0
  8  5  1  0  0  0
  5  7  2  0  0  0
  7  6  1  0  0  0
  9 10  2  0  0  0
 10 11  1  0  0  0
 18 17  1  0  0  0
  8 12  1  0  0  0
  8 13  1  0  0  0
M  END
> <minimizedAffinity>
-7.94775

$$$$
3RSX_RSV_A_397


 18 20  0  0  0  0  0  0  0  0999 V2000
   67.4658   52.9788   11.3436 C   0  0  0  0  0  0  0  0  0  0  0  0
   68.6101   53.4032   10.6637 C   0  0  0  0  0  0  0  0  0  0  0  0
   69.7377   52.5824   10.6260 C   0  0  0  0  0  0  0  0  0  0  0  0
   66.3637   53.7454   11.3753 N   0  0  0  0  0  0  0  0  0  0  0  0
   66.3239   54.9460   10.7593 C   0  0  0  0  0  0  0  0  0  0  0  0
   68.6057   54.6411   10.0204 C   0  0  0  0  0  0  0  0  0  0  0  0
   67.4461   55.4244   10.0701 C   0  0  0  0  0  0  0  0  0  0  0  0
   65.2170   55.6854   10.8282 N   0  0  0  0  0  0  0  0  0  0  0  0
   67.4599   51.7373   11.9780 C   0  0  0  0  0  0  0  0  0  0  0  0
   68.5914   50.9185   11.9461 C   0  0  0  0  0  0  0  0  0  0  0  0
   69.7443   51.3405   11.2824 C   0  0  0  0  0  0  0  0  0  0  0  0
   64.4292   55.3482   11.3128 H   0  0  0  0  0  0  0  0  0  0  0  0
   65.1873   56.5688   10.3946 H   0  0  0  0  0  0  0  0  0  0  0  0
   70.8629   50.5013   11.2379 C   0  0  0  0  0  0  0  0  0  0  0  0
   71.5451   50.1745   12.3726 C   0  0  0  0  0  0  0  0  0  0  0  0
   71.3486   49.9061   10.1332 C   0  0  0  0  0  0  0  0  0  0  0  0
   72.5988   49.3494   12.2699 C   0  0  0  0  0  0  0  0  0  0  0  0
   72.6846   48.9730   10.6416 S   0  0  0  0  0  0  0  0  0  0  0  0
  4  1  2  0  0  0
  1  9  1  0  0  0
  1  2  1  0  0  0
  6  2  2  0  0  0
  2  3  1  0  0  0
  3 11  2  0  0  0
 11 14  1  0  0  0
 14 16  2  0  0  0
 14 15  1  0  0  0
 15 17  2  0  0  0
 16 18  1  0  0  0
  5  4  1  0  0  0
  8  5  1  0  0  0
  5  7  2  0  0  0
  7  6  1  0  0  0
  9 10  2  0  0  0
 10 11  1  0  0  0
 18 17  1  0  0  0
  8 12  1  0  0  0
  8 13  1  0  0  0
M  END
> <minimizedAffinity>
-7.76408

$$$$
3RSX_RSV_A_397


 18 20  0  0  0  0  0  0  0  0999 V2000
   71.4736   49.5414   11.7676 C   0  0  0  0  0  0  0  0  0  0  0  0
   70.4171   50.4489   11.8792 C   0  0  0  0  0  0  0  0  0  0  0  0
   69.3264   50.3517   11.0146 C   0  0  0  0  0  0  0  0  0  0  0  0
   72.5234   49.6059   12.6024 N   0  0  0  0  0  0  0  0  0  0  0  0
   72.5966   50.5451   13.5695 C   0  0  0  0  0  0  0  0  0  0  0  0
   70.4625   51.4359   12.8641 C   0  0  0  0  0  0  0  0  0  0  0  0
   71.5690   51.4855   13.7208 C   0  0  0  0  0  0  0  0  0  0  0  0
   73.6634   50.5872   14.3675 N   0  0  0  0  0  0  0  0  0  0  0  0
   71.4282   48.5451   10.7934 C   0  0  0  0  0  0  0  0  0  0  0  0
   70.3392   48.4522    9.9232 C   0  0  0  0  0  0  0  0  0  0  0  0
   69.2864   49.3636   10.0171 C   0  0  0  0  0  0  0  0  0  0  0  0
   74.3848   49.9258   14.2602 H   0  0  0  0  0  0  0  0  0  0  0  0
   73.7300   51.2796   15.0641 H   0  0  0  0  0  0  0  0  0  0  0  0
   68.1908   49.2456    9.1550 C   0  0  0  0  0  0  0  0  0  0  0  0
   66.9141   49.2359    9.6342 C   0  0  0  0  0  0  0  0  0  0  0  0
   68.2575   49.1791    7.8128 C   0  0  0  0  0  0  0  0  0  0  0  0
   65.9026   49.1399    8.7571 C   0  0  0  0  0  0  0  0  0  0  0  0
   66.6457   49.0831    7.2587 S   0  0  0  0  0  0  0  0  0  0  0  0
  4  1  2  0  0  0
  1  9  1  0  0  0
  1  2  1  0  0  0
  6  2  2  0  0  0
  2  3  1  0  0  0
  3 11  2  0  0  0
 11 14  1  0  0  0
 14 16  2  0  0  0
 14 15  1  0  0  0
 15 17  2  0  0  0
 16 18  1  0  0  0
  5  4  1  0  0  0
  8  5  1  0  0  0
  5  7  2  0  0  0
  7  6  1  0  0  0
  9 10  2  0  0  0
 10 11  1  0  0  0
 18 17  1  0  0  0
  8 12  1  0  0  0
  8 13  1  0  0  0
M  END
> <minimizedAffinity>
-7.70185

$$$$
3RSX_RSV_A_397


 18 20  0  0  0  0  0  0  0  0999 V2000
   71.0817   50.2536   10.5727 C   0  0  0  0  0  0  0  0  0  0  0  0
   70.9125   51.0132   11.7330 C   0  0  0  0  0  0  0  0  0  0  0  0
   70.0750   52.1288   11.7145 C   0  0  0  0  0  0  0  0  0  0  0  0
   71.8681   49.1651   10.5748 N   0  0  0  0  0  0  0  0  0  0  0  0
   72.5213   48.7713   11.6888 C   0  0  0  0  0  0  0  0  0  0  0  0
   71.5770   50.6379   12.9009 C   0  0  0  0  0  0  0  0  0  0  0  0
   72.3943   49.5011   12.8780 C   0  0  0  0  0  0  0  0  0  0  0  0
   73.3065   47.6950   11.6462 N   0  0  0  0  0  0  0  0  0  0  0  0
   70.4107   50.6164    9.4057 C   0  0  0  0  0  0  0  0  0  0  0  0
   69.5774   51.7376    9.3854 C   0  0  0  0  0  0  0  0  0  0  0  0
   69.4142   52.5114   10.5354 C   0  0  0  0  0  0  0  0  0  0  0  0
   73.3950   47.1830   10.8100 H   0  0  0  0  0  0  0  0  0  0  0  0
   73.7980   47.4121   12.4509 H   0  0  0  0  0  0  0  0  0  0  0  0
   68.5589   53.6182   10.5084 C   0  0  0  0  0  0  0  0  0  0  0  0
   68.7894   54.6674    9.6683 C   0  0  0  0  0  0  0  0  0  0  0  0
   67.4354   53.7543   11.2363 C   0  0  0  0  0  0  0  0  0  0  0  0
   67.9230   55.6927    9.6732 C   0  0  0  0  0  0  0  0  0  0  0  0
   66.7601   55.2588   10.7956 S   0  0  0  0  0  0  0  0  0  0  0  0
  4  1  2  0  0  0
  1  9  1  0  0  0
  1  2  1  0  0  0
  6  2  2  0  0  0
  2  3  1  0  0  0
  3 11  2  0  0  0
 11 14  1  0  0  0
 14 16  2  0  0  0
 14 15  1  0  0  0
 15 17  2  0  0  0
 16 18  1  0  0  0
  5  4  1  0  0  0
  8  5  1  0  0  0
  5  7  2  0  0  0
  7  6  1  0  0  0
  9 10  2  0  0  0
 10 11  1  0  0  0
 18 17  1  0  0  0
  8 12  1  0  0  0
  8 13  1  0  0  0
M  END
> <minimizedAffinity>
-7.57294

$$$$
3RSX_RSV_A_397


 18 20  0  0  0  0  0  0  0  0999 V2000
   69.9549   48.2849    8.6760 C   0  0  0  0  0  0  0  0  0  0  0  0
   69.0438   48.8231    9.5883 C   0  0  0  0  0  0  0  0  0  0  0  0
   69.5098   49.4529   10.7428 C   0  0  0  0  0  0  0  0  0  0  0  0
   69.5275   47.6919    7.5496 N   0  0  0  0  0  0  0  0  0  0  0  0
   68.2121   47.5921    7.2625 C   0  0  0  0  0  0  0  0  0  0  0  0
   67.6766   48.7329    9.3258 C   0  0  0  0  0  0  0  0  0  0  0  0
   67.2546   48.1071    8.1464 C   0  0  0  0  0  0  0  0  0  0  0  0
   67.8268   46.9809    6.1425 N   0  0  0  0  0  0  0  0  0  0  0  0
   71.3229   48.3829    8.9266 C   0  0  0  0  0  0  0  0  0  0  0  0
   71.7891   49.0074   10.0861 C   0  0  0  0  0  0  0  0  0  0  0  0
   70.8863   49.5345   11.0107 C   0  0  0  0  0  0  0  0  0  0  0  0
   68.5005   46.6194    5.5222 H   0  0  0  0  0  0  0  0  0  0  0  0
   66.8685   46.8908    5.9355 H   0  0  0  0  0  0  0  0  0  0  0  0
   71.3664   50.1780   12.1565 C   0  0  0  0  0  0  0  0  0  0  0  0
   72.4773   49.7263   12.8058 C   0  0  0  0  0  0  0  0  0  0  0  0
   70.8455   51.2923   12.7019 C   0  0  0  0  0  0  0  0  0  0  0  0
   72.9018   50.3966   13.8886 C   0  0  0  0  0  0  0  0  0  0  0  0
   71.8264   51.6690   14.0472 S   0  0  0  0  0  0  0  0  0  0  0  0
  4  1  2  0  0  0
  1  9  1  0  0  0
  1  2  1  0  0  0
  6  2  2  0  0  0
  2  3  1  0  0  0
  3 11  2  0  0  0
 11 14  1  0  0  0
 14 16  2  0  0  0
 14 15  1  0  0  0
 15 17  2  0  0  0
 16 18  1  0  0  0
  5  4  1  0  0  0
  8  5  1  0  0  0
  5  7  2  0  0  0
  7  6  1  0  0  0
  9 10  2  0  0  0
 10 11  1  0  0  0
 18 17  1  0  0  0
  8 12  1  0  0  0
  8 13  1  0  0  0
M  END
> <minimizedAffinity>
-7.27696

$$$$
3RSX_RSV_A_397


 18 20  0  0  0  0  0  0  0  0999 V2000
   70.3181   50.6076   12.1020 C   0  0  0  0  0  0  0  0  0  0  0  0
   70.6643   49.5544   11.2517 C   0  0  0  0  0  0  0  0  0  0  0  0
   69.7652   49.1305   10.2726 C   0  0  0  0  0  0  0  0  0  0  0  0
   71.1768   51.0432   13.0379 N   0  0  0  0  0  0  0  0  0  0  0  0
   72.3945   50.4808   13.1919 C   0  0  0  0  0  0  0  0  0  0  0  0
   71.9127   48.9466   11.3865 C   0  0  0  0  0  0  0  0  0  0  0  0
   72.7900   49.4158   12.3719 C   0  0  0  0  0  0  0  0  0  0  0  0
   73.2119   50.9301   14.1441 N   0  0  0  0  0  0  0  0  0  0  0  0
   69.0769   51.2272   11.9639 C   0  0  0  0  0  0  0  0  0  0  0  0
   68.1739   50.7981   10.9881 C   0  0  0  0  0  0  0  0  0  0  0  0
   68.5047   49.7369   10.1442 C   0  0  0  0  0  0  0  0  0  0  0  0
   72.9329   51.6785   14.7196 H   0  0  0  0  0  0  0  0  0  0  0  0
   74.0948   50.5135   14.2718 H   0  0  0  0  0  0  0  0  0  0  0  0
   67.6011   49.3319    9.1557 C   0  0  0  0  0  0  0  0  0  0  0  0
   66.3504   48.8954    9.4796 C   0  0  0  0  0  0  0  0  0  0  0  0
   67.8273   49.3673    7.8298 C   0  0  0  0  0  0  0  0  0  0  0  0
   65.5207   48.5385    8.4866 C   0  0  0  0  0  0  0  0  0  0  0  0
   66.3977   48.8039    7.0863 S   0  0  0  0  0  0  0  0  0  0  0  0
  4  1  2  0  0  0
  1  9  1  0  0  0
  1  2  1  0  0  0
  6  2  2  0  0  0
  2  3  1  0  0  0
  3 11  2  0  0  0
 11 14  1  0  0  0
 14 16  2  0  0  0
 14 15  1  0  0  0
 15 17  2  0  0  0
 16 18  1  0  0  0
  5  4  1  0  0  0
  8  5  1  0  0  0
  5  7  2  0  0  0
  7  6  1  0  0  0
  9 10  2  0  0  0
 10 11  1  0  0  0
 18 17  1  0  0  0
  8 12  1  0  0  0
  8 13  1  0  0  0
M  END
> <minimizedAffinity>
-7.03706

$$$$
3RSX_RSV_A_397


 18 20  0  0  0  0  0  0  0  0999 V2000
   70.8348   50.0332   11.8386 C   0  0  0  0  0  0  0  0  0  0  0  0
   72.0406   49.3885   12.1257 C   0  0  0  0  0  0  0  0  0  0  0  0
   72.4573   48.3157   11.3371 C   0  0  0  0  0  0  0  0  0  0  0  0
   70.4254   51.0799   12.5734 N   0  0  0  0  0  0  0  0  0  0  0  0
   71.1569   51.5406   13.6105 C   0  0  0  0  0  0  0  0  0  0  0  0
   72.8192   49.8350   13.1937 C   0  0  0  0  0  0  0  0  0  0  0  0
   72.3701   50.9261   13.9479 C   0  0  0  0  0  0  0  0  0  0  0  0
   70.7082   52.5711   14.3268 N   0  0  0  0  0  0  0  0  0  0  0  0
   70.0583   49.5996   10.7649 C   0  0  0  0  0  0  0  0  0  0  0  0
   70.4723   48.5209    9.9795 C   0  0  0  0  0  0  0  0  0  0  0  0
   71.6678   47.8609   10.2680 C   0  0  0  0  0  0  0  0  0  0  0  0
   69.8556   53.0020   14.0887 H   0  0  0  0  0  0  0  0  0  0  0  0
   71.2293   52.9014   15.0940 H   0  0  0  0  0  0  0  0  0  0  0  0
   72.0827   46.7969    9.4598 C   0  0  0  0  0  0  0  0  0  0  0  0
   71.2331   45.7781    9.1439 C   0  0  0  0  0  0  0  0  0  0  0  0
   73.2938   46.6792    8.8855 C   0  0  0  0  0  0  0  0  0  0  0  0
   71.6820   44.7946    8.3483 C   0  0  0  0  0  0  0  0  0  0  0  0
   73.2568   45.2292    7.9856 S   0  0  0  0  0  0  0  0  0  0  0  0
  4  1  2  0  0  0
  1  9  1  0  0  0
  1  2  1  0  0  0
  6  2  2  0  0  0
  2  3  1  0  0  0
  3 11  2  0  0  0
 11 14  1  0  0  0
 14 16  2  0  0  0
 14 15  1  0  0  0
 15 17  2  0  0  0
 16 18  1  0  0  0
  5  4  1  0  0  0
  8  5  1  0  0  0
  5  7  2  0  0  0
  7  6  1  0  0  0
  9 10  2  0  0  0
 10 11  1  0  0  0
 18 17  1  0  0  0
  8 12  1  0  0  0
  8 13  1  0  0  0
M  END
> <minimizedAffinity>
-6.82700

$$$$
3RSX_RSV_A_397


 18 20  0  0  0  0  0  0  0  0999 V2000
   71.0764   50.0876   10.8941 C   0  0  0  0  0  0  0  0  0  0  0  0
   70.7776   50.5871    9.6240 C   0  0  0  0  0  0  0  0  0  0  0  0
   69.9887   51.7308    9.4976 C   0  0  0  0  0  0  0  0  0  0  0  0
   71.8499   48.9994   11.0380 N   0  0  0  0  0  0  0  0  0  0  0  0
   72.3593   48.3519    9.9684 C   0  0  0  0  0  0  0  0  0  0  0  0
   71.2831   49.9395    8.4965 C   0  0  0  0  0  0  0  0  0  0  0  0
   72.0845   48.8046    8.6713 C   0  0  0  0  0  0  0  0  0  0  0  0
   73.1086   47.2649   10.1518 N   0  0  0  0  0  0  0  0  0  0  0  0
   70.5844   50.7375   12.0252 C   0  0  0  0  0  0  0  0  0  0  0  0
   69.7887   51.8788   11.8983 C   0  0  0  0  0  0  0  0  0  0  0  0
   69.4722   52.3763   10.6333 C   0  0  0  0  0  0  0  0  0  0  0  0
   73.3010   46.9478   11.0638 H   0  0  0  0  0  0  0  0  0  0  0  0
   73.4697   46.7792    9.3753 H   0  0  0  0  0  0  0  0  0  0  0  0
   68.6938   53.5333   10.5202 C   0  0  0  0  0  0  0  0  0  0  0  0
   69.0151   54.5154    9.6302 C   0  0  0  0  0  0  0  0  0  0  0  0
   67.5639   53.7840   11.2065 C   0  0  0  0  0  0  0  0  0  0  0  0
   68.2195   55.5937    9.5531 C   0  0  0  0  0  0  0  0  0  0  0  0
   67.0022   55.3018   10.6637 S   0  0  0  0  0  0  0  0  0  0  0  0
  4  1  2  0  0  0
  1  9  1  0  0  0
  1  2  1  0  0  0
  6  2  2  0  0  0
  2  3  1  0  0  0
  3 11  2  0  0  0
 11 14  1  0  0  0
 14 16  2  0  0  0
 14 15  1  0  0  0
 15 17  2  0  0  0
 16 18  1  0  0  0
  5  4  1  0  0  0
  8  5  1  0  0  0
  5  7  2  0  0  0
  7  6  1  0  0  0
  9 10  2  0  0  0
 10 11  1  0  0  0
 18 17  1  0  0  0
  8 12  1  0  0  0
  8 13  1  0  0  0
M  END
> <minimizedAffinity>
-6.73837

$$$$
3RSX_RSV_A_397


 18 20  0  0  0  0  0  0  0  0999 V2000
   66.7926   50.7980   11.2625 C   0  0  0  0  0  0  0  0  0  0  0  0
   67.1646   49.8221   10.3346 C   0  0  0  0  0  0  0  0  0  0  0  0
   68.5135   49.5118   10.1589 C   0  0  0  0  0  0  0  0  0  0  0  0
   65.4987   51.0976   11.4605 N   0  0  0  0  0  0  0  0  0  0  0  0
   64.5189   50.4738   10.7724 C   0  0  0  0  0  0  0  0  0  0  0  0
   66.1782   49.1612    9.6022 C   0  0  0  0  0  0  0  0  0  0  0  0
   64.8358   49.4929    9.8234 C   0  0  0  0  0  0  0  0  0  0  0  0
   63.2471   50.8114   10.9848 N   0  0  0  0  0  0  0  0  0  0  0  0
   67.7730   51.4531   12.0064 C   0  0  0  0  0  0  0  0  0  0  0  0
   69.1241   51.1473   11.8254 C   0  0  0  0  0  0  0  0  0  0  0  0
   69.5064   50.1847   10.8899 C   0  0  0  0  0  0  0  0  0  0  0  0
   63.0256   51.5007   11.6519 H   0  0  0  0  0  0  0  0  0  0  0  0
   62.5291   50.3714   10.4747 H   0  0  0  0  0  0  0  0  0  0  0  0
   70.8610   49.8710   10.7347 C   0  0  0  0  0  0  0  0  0  0  0  0
   71.6130   49.4498   11.7915 C   0  0  0  0  0  0  0  0  0  0  0  0
   71.5405   49.8989    9.5736 C   0  0  0  0  0  0  0  0  0  0  0  0
   72.9025   49.1446   11.5772 C   0  0  0  0  0  0  0  0  0  0  0  0
   73.1303   49.3955    9.9384 S   0  0  0  0  0  0  0  0  0  0  0  0
  4  1  2  0  0  0
  1  9  1  0  0  0
  1  2  1  0  0  0
  6  2  2  0  0  0
  2  3  1  0  0  0
  3 11  2  0  0  0
 11 14  1  0  0  0
 14 16  2  0  0  0
 14 15  1  0  0  0
 15 17  2  0  0  0
 16 18  1  0  0  0
  5  4  1  0  0  0
  8  5  1  0  0  0
  5  7  2  0  0  0
  7  6  1  0  0  0
  9 10  2  0  0  0
 10 11  1  0  0  0
 18 17  1  0  0  0
  8 12  1  0  0  0
  8 13  1  0  0  0
M  END
> <minimizedAffinity>
-6.70622

$$$$
3RSX_RSV_A_397


 18 20  0  0  0  0  0  0  0  0999 V2000
   71.4797   49.7798   12.0355 C   0  0  0  0  0  0  0  0  0  0  0  0
   70.3183   49.7462   11.2597 C   0  0  0  0  0  0  0  0  0  0  0  0
   70.1856   48.7898   10.2526 C   0  0  0  0  0  0  0  0  0  0  0  0
   71.6188   50.6799   13.0223 N   0  0  0  0  0  0  0  0  0  0  0  0
   70.6502   51.5799   13.2953 C   0  0  0  0  0  0  0  0  0  0  0  0
   69.2992   50.6652   11.5111 C   0  0  0  0  0  0  0  0  0  0  0  0
   69.4683   51.5965   12.5431 C   0  0  0  0  0  0  0  0  0  0  0  0
   70.8331   52.4686   14.2718 N   0  0  0  0  0  0  0  0  0  0  0  0
   72.4964   48.8561   11.7973 C   0  0  0  0  0  0  0  0  0  0  0  0
   72.3664   47.9029   10.7842 C   0  0  0  0  0  0  0  0  0  0  0  0
   71.2164   47.8713    9.9940 C   0  0  0  0  0  0  0  0  0  0  0  0
   71.6640   52.4559   14.7996 H   0  0  0  0  0  0  0  0  0  0  0  0
   70.1372   53.1376   14.4651 H   0  0  0  0  0  0  0  0  0  0  0  0
   71.0883   46.8971    8.9981 C   0  0  0  0  0  0  0  0  0  0  0  0
   69.8652   46.5470    8.5069 C   0  0  0  0  0  0  0  0  0  0  0  0
   72.1076   46.2539    8.3998 C   0  0  0  0  0  0  0  0  0  0  0  0
   69.8068   45.6199    7.5380 C   0  0  0  0  0  0  0  0  0  0  0  0
   71.4032   45.2111    7.2465 S   0  0  0  0  0  0  0  0  0  0  0  0
  4  1  2  0  0  0
  1  9  1  0  0  0
  1  2  1  0  0  0
  6  2  2  0  0  0
  2  3  1  0  0  0
  3 11  2  0  0  0
 11 14  1  0  0  0
 14 16  2  0  0  0
 14 15  1  0  0  0
 15 17  2  0  0  0
 16 18  1  0  0  0
  5  4  1  0  0  0
  8  5  1  0  0  0
  5  7  2  0  0  0
  7  6  1  0  0  0
  9 10  2  0  0  0
 10 11  1  0  0  0
 18 17  1  0  0  0
  8 12  1  0  0  0
  8 13  1  0  0  0
M  END
> <minimizedAffinity>
-6.61501

$$$$
