1Z6S_AMP_A_1101


 29 31  0  0  0  0  0  0  0  0999 V2000
   37.9135    5.7712   16.1196 C   0  0  0  0  0  0  0  0  0  0  0  0
   37.4733    5.5907   17.4763 O   0  0  0  0  0  0  0  0  0  0  0  0
   39.1194    4.8455   15.9233 C   0  0  0  0  0  0  0  0  0  0  0  0
   40.3099    5.6120   15.6938 O   0  0  0  0  0  0  0  0  0  0  0  0
   39.2328    4.0453   17.2147 C   0  0  0  0  0  0  0  0  0  0  0  0
   40.6042    3.8097   17.5768 O   0  0  0  0  0  0  0  0  0  0  0  0
   38.5163    4.9422   18.2167 C   0  0  0  0  0  0  0  0  0  0  0  0
   40.4603    6.2082   16.4441 H   0  0  0  0  0  0  0  0  0  0  0  0
   41.0677    4.6580   17.6571 H   0  0  0  0  0  0  0  0  0  0  0  0
   37.9902    4.2090   19.3991 N   0  0  0  0  0  0  0  0  0  0  0  0
   38.3503    2.9668   19.8125 C   0  0  0  0  0  0  0  0  0  0  0  0
   37.6864    2.6083   20.9244 N   0  0  0  0  0  0  0  0  0  0  0  0
   36.8951    3.6392   21.2393 C   0  0  0  0  0  0  0  0  0  0  0  0
   35.9379    3.9034   22.3041 C   0  0  0  0  0  0  0  0  0  0  0  0
   35.7457    2.9365   23.2484 N   0  0  0  0  0  0  0  0  0  0  0  0
   35.2964    5.1184   22.2889 N   0  0  0  0  0  0  0  0  0  0  0  0
   35.5189    6.0492   21.3389 C   0  0  0  0  0  0  0  0  0  0  0  0
   36.3911    5.8622   20.3227 N   0  0  0  0  0  0  0  0  0  0  0  0
   37.0905    4.6936   20.2398 C   0  0  0  0  0  0  0  0  0  0  0  0
   36.2430    2.0887   23.1931 H   0  0  0  0  0  0  0  0  0  0  0  0
   35.1098    3.0872   23.9847 H   0  0  0  0  0  0  0  0  0  0  0  0
   36.7862    5.4199   15.1652 C   0  0  0  0  0  0  0  0  0  0  0  0
   37.1307    4.1872   14.5407 O   0  0  0  0  0  0  0  0  0  0  0  0
   36.2187    3.5339   13.3988 P   0  0  0  0  0  0  0  0  0  0  0  0
   37.2086    3.3225   12.2684 O   0  0  0  0  0  0  0  0  0  0  0  0
   35.6696    2.2888   14.0448 O   0  0  0  0  0  0  0  0  0  0  0  0
   35.2028    4.6400   13.1935 O   0  0  0  0  0  0  0  0  0  0  0  0
   35.0972    1.8233   13.4150 H   0  0  0  0  0  0  0  0  0  0  0  0
   34.5689    4.3739   12.5091 H   0  0  0  0  0  0  0  0  0  0  0  0
 24 25  2  0  0  0
 24 26  1  0  0  0
 24 27  1  0  0  0
 24 23  1  0  0  0
 23 22  1  0  0  0
 22  1  1  0  0  0
  1  2  1  0  0  0
  1  3  1  0  0  0
  2  7  1  0  0  0
  3  4  1  0  0  0
  3  5  1  0  0  0
  5  6  1  0  0  0
  5  7  1  0  0  0
  7 10  1  0  0  0
 10 11  1  0  0  0
 10 19  1  0  0  0
 11 12  2  0  0  0
 12 13  1  0  0  0
 13 14  1  0  0  0
 13 19  2  0  0  0
 14 15  1  0  0  0
 14 16  2  0  0  0
 16 17  1  0  0  0
 17 18  2  0  0  0
 18 19  1  0  0  0
 26 28  1  0  0  0
 27 29  1  0  0  0
  4  8  1  0  0  0
  6  9  1  0  0  0
 15 20  1  0  0  0
 15 21  1  0  0  0
M  END
> <minimizedAffinity>
-7.60358

$$$$
1Z6S_AMP_A_1101


 29 31  0  0  0  0  0  0  0  0999 V2000
   37.3534    5.8896   13.6437 C   0  0  0  0  0  0  0  0  0  0  0  0
   38.2299    4.8920   13.0929 O   0  0  0  0  0  0  0  0  0  0  0  0
   36.1591    5.1399   14.2449 C   0  0  0  0  0  0  0  0  0  0  0  0
   34.9562    5.4539   13.5295 O   0  0  0  0  0  0  0  0  0  0  0  0
   36.4973    3.6606   14.1098 C   0  0  0  0  0  0  0  0  0  0  0  0
   35.3325    2.8731   13.8092 O   0  0  0  0  0  0  0  0  0  0  0  0
   37.5055    3.6607   12.9673 C   0  0  0  0  0  0  0  0  0  0  0  0
   35.0657    5.2203   12.5944 H   0  0  0  0  0  0  0  0  0  0  0  0
   34.9179    3.2057   12.9978 H   0  0  0  0  0  0  0  0  0  0  0  0
   38.4074    2.4780   12.9718 N   0  0  0  0  0  0  0  0  0  0  0  0
   39.6966    2.4395   13.3964 C   0  0  0  0  0  0  0  0  0  0  0  0
   40.2177    1.2074   13.2706 N   0  0  0  0  0  0  0  0  0  0  0  0
   39.2468    0.4373   12.7685 C   0  0  0  0  0  0  0  0  0  0  0  0
   39.1459   -0.9675   12.3997 C   0  0  0  0  0  0  0  0  0  0  0  0
   40.2427   -1.7593   12.5826 N   0  0  0  0  0  0  0  0  0  0  0  0
   37.9434   -1.4034   11.8976 N   0  0  0  0  0  0  0  0  0  0  0  0
   36.8812   -0.5884   11.7370 C   0  0  0  0  0  0  0  0  0  0  0  0
   36.9132    0.7252   12.0561 N   0  0  0  0  0  0  0  0  0  0  0  0
   38.0550    1.2675   12.5697 C   0  0  0  0  0  0  0  0  0  0  0  0
   41.0720   -1.3747   12.9483 H   0  0  0  0  0  0  0  0  0  0  0  0
   40.2046   -2.7148   12.3488 H   0  0  0  0  0  0  0  0  0  0  0  0
   38.0914    6.6913   14.7009 C   0  0  0  0  0  0  0  0  0  0  0  0
   37.7313    8.0576   14.5223 O   0  0  0  0  0  0  0  0  0  0  0  0
   36.5341    8.7309   15.3444 P   0  0  0  0  0  0  0  0  0  0  0  0
   37.0335   10.1488   15.5503 O   0  0  0  0  0  0  0  0  0  0  0  0
   35.3406    8.5699   14.4395 O   0  0  0  0  0  0  0  0  0  0  0  0
   36.5170    7.8476   16.5762 O   0  0  0  0  0  0  0  0  0  0  0  0
   34.5585    8.9556   14.8643 H   0  0  0  0  0  0  0  0  0  0  0  0
   35.8198    8.1482   17.1800 H   0  0  0  0  0  0  0  0  0  0  0  0
 24 25  2  0  0  0
 24 26  1  0  0  0
 24 27  1  0  0  0
 24 23  1  0  0  0
 23 22  1  0  0  0
 22  1  1  0  0  0
  1  2  1  0  0  0
  1  3  1  0  0  0
  2  7  1  0  0  0
  3  4  1  0  0  0
  3  5  1  0  0  0
  5  6  1  0  0  0
  5  7  1  0  0  0
  7 10  1  0  0  0
 10 11  1  0  0  0
 10 19  1  0  0  0
 11 12  2  0  0  0
 12 13  1  0  0  0
 13 14  1  0  0  0
 13 19  2  0  0  0
 14 15  1  0  0  0
 14 16  2  0  0  0
 16 17  1  0  0  0
 17 18  2  0  0  0
 18 19  1  0  0  0
 26 28  1  0  0  0
 27 29  1  0  0  0
  4  8  1  0  0  0
  6  9  1  0  0  0
 15 20  1  0  0  0
 15 21  1  0  0  0
M  END
> <minimizedAffinity>
-7.19763

$$$$
1Z6S_AMP_A_1101


 29 31  0  0  0  0  0  0  0  0999 V2000
   37.9061    6.4024   16.0014 C   0  0  0  0  0  0  0  0  0  0  0  0
   36.9551    6.2769   17.0723 O   0  0  0  0  0  0  0  0  0  0  0  0
   39.2761    6.6168   16.6548 C   0  0  0  0  0  0  0  0  0  0  0  0
   39.7812    7.9236   16.3473 O   0  0  0  0  0  0  0  0  0  0  0  0
   39.0406    6.4675   18.1526 C   0  0  0  0  0  0  0  0  0  0  0  0
   39.8496    7.3814   18.9127 O   0  0  0  0  0  0  0  0  0  0  0  0
   37.5526    6.7699   18.2793 C   0  0  0  0  0  0  0  0  0  0  0  0
   39.1515    8.5943   16.6549 H   0  0  0  0  0  0  0  0  0  0  0  0
   39.6676    8.2899   18.6257 H   0  0  0  0  0  0  0  0  0  0  0  0
   36.9286    6.1799   19.4938 N   0  0  0  0  0  0  0  0  0  0  0  0
   36.0093    6.7664   20.3028 C   0  0  0  0  0  0  0  0  0  0  0  0
   35.6486    5.9504   21.3076 N   0  0  0  0  0  0  0  0  0  0  0  0
   36.3367    4.8166   21.1373 C   0  0  0  0  0  0  0  0  0  0  0  0
   36.4136    3.5517   21.8542 C   0  0  0  0  0  0  0  0  0  0  0  0
   35.6318    3.3935   22.9620 N   0  0  0  0  0  0  0  0  0  0  0  0
   37.2672    2.5960   21.3581 N   0  0  0  0  0  0  0  0  0  0  0  0
   38.0196    2.7909   20.2562 C   0  0  0  0  0  0  0  0  0  0  0  0
   37.9963    3.9438   19.5500 N   0  0  0  0  0  0  0  0  0  0  0  0
   37.1799    4.9623   19.9470 C   0  0  0  0  0  0  0  0  0  0  0  0
   35.0435    4.1253   23.2578 H   0  0  0  0  0  0  0  0  0  0  0  0
   35.6564    2.5477   23.4651 H   0  0  0  0  0  0  0  0  0  0  0  0
   37.8897    5.1436   15.1528 C   0  0  0  0  0  0  0  0  0  0  0  0
   36.5265    4.7709   14.9770 O   0  0  0  0  0  0  0  0  0  0  0  0
   36.0087    4.0658   13.6363 P   0  0  0  0  0  0  0  0  0  0  0  0
   37.2464    4.0795   12.7587 O   0  0  0  0  0  0  0  0  0  0  0  0
   35.5363    2.7128   14.1004 O   0  0  0  0  0  0  0  0  0  0  0  0
   34.9003    5.0192   13.2360 O   0  0  0  0  0  0  0  0  0  0  0  0
   35.2009    2.2098   13.3419 H   0  0  0  0  0  0  0  0  0  0  0  0
   34.4860    4.7073   12.4162 H   0  0  0  0  0  0  0  0  0  0  0  0
 24 25  2  0  0  0
 24 26  1  0  0  0
 24 27  1  0  0  0
 24 23  1  0  0  0
 23 22  1  0  0  0
 22  1  1  0  0  0
  1  2  1  0  0  0
  1  3  1  0  0  0
  2  7  1  0  0  0
  3  4  1  0  0  0
  3  5  1  0  0  0
  5  6  1  0  0  0
  5  7  1  0  0  0
  7 10  1  0  0  0
 10 11  1  0  0  0
 10 19  1  0  0  0
 11 12  2  0  0  0
 12 13  1  0  0  0
 13 14  1  0  0  0
 13 19  2  0  0  0
 14 15  1  0  0  0
 14 16  2  0  0  0
 16 17  1  0  0  0
 17 18  2  0  0  0
 18 19  1  0  0  0
 26 28  1  0  0  0
 27 29  1  0  0  0
  4  8  1  0  0  0
  6  9  1  0  0  0
 15 20  1  0  0  0
 15 21  1  0  0  0
M  END
> <minimizedAffinity>
-6.86385

$$$$
1Z6S_AMP_A_1101


 29 31  0  0  0  0  0  0  0  0999 V2000
   39.8934    5.6814   14.2909 C   0  0  0  0  0  0  0  0  0  0  0  0
   39.2692    4.3971   14.4575 O   0  0  0  0  0  0  0  0  0  0  0  0
   39.7463    6.0516   12.8107 C   0  0  0  0  0  0  0  0  0  0  0  0
   41.0310    6.1028   12.1749 O   0  0  0  0  0  0  0  0  0  0  0  0
   38.8849    4.9533   12.2002 C   0  0  0  0  0  0  0  0  0  0  0  0
   39.3010    4.6320   10.8619 O   0  0  0  0  0  0  0  0  0  0  0  0
   39.1016    3.7953   13.1665 C   0  0  0  0  0  0  0  0  0  0  0  0
   41.4714    5.2434   12.2660 H   0  0  0  0  0  0  0  0  0  0  0  0
   40.2354    4.3719   10.8674 H   0  0  0  0  0  0  0  0  0  0  0  0
   37.9988    2.7973   13.1534 N   0  0  0  0  0  0  0  0  0  0  0  0
   36.6941    3.0225   13.4545 C   0  0  0  0  0  0  0  0  0  0  0  0
   35.9623    1.9021   13.3325 N   0  0  0  0  0  0  0  0  0  0  0  0
   36.8052    0.9431   12.9356 C   0  0  0  0  0  0  0  0  0  0  0  0
   36.6672   -0.4722   12.6232 C   0  0  0  0  0  0  0  0  0  0  0  0
   35.4265   -1.0330   12.7218 N   0  0  0  0  0  0  0  0  0  0  0  0
   37.8010   -1.1476   12.2407 N   0  0  0  0  0  0  0  0  0  0  0  0
   39.0086   -0.5542   12.1513 C   0  0  0  0  0  0  0  0  0  0  0  0
   39.2024    0.7542   12.4320 N   0  0  0  0  0  0  0  0  0  0  0  0
   38.1451    1.5259   12.8168 C   0  0  0  0  0  0  0  0  0  0  0  0
   34.6592   -0.4841   13.0033 H   0  0  0  0  0  0  0  0  0  0  0  0
   35.2990   -1.9863   12.5114 H   0  0  0  0  0  0  0  0  0  0  0  0
   39.2119    6.7011   15.1858 C   0  0  0  0  0  0  0  0  0  0  0  0
   38.1975    7.3319   14.4104 O   0  0  0  0  0  0  0  0  0  0  0  0
   36.6423    7.0437   14.6573 P   0  0  0  0  0  0  0  0  0  0  0  0
   36.1187    6.8366   13.2483 O   0  0  0  0  0  0  0  0  0  0  0  0
   36.6384    5.8332   15.5539 O   0  0  0  0  0  0  0  0  0  0  0  0
   36.2290    8.3344   15.3362 O   0  0  0  0  0  0  0  0  0  0  0  0
   35.7231    5.5847   15.7576 H   0  0  0  0  0  0  0  0  0  0  0  0
   35.2833    8.2993   15.5492 H   0  0  0  0  0  0  0  0  0  0  0  0
 24 25  2  0  0  0
 24 26  1  0  0  0
 24 27  1  0  0  0
 24 23  1  0  0  0
 23 22  1  0  0  0
 22  1  1  0  0  0
  1  2  1  0  0  0
  1  3  1  0  0  0
  2  7  1  0  0  0
  3  4  1  0  0  0
  3  5  1  0  0  0
  5  6  1  0  0  0
  5  7  1  0  0  0
  7 10  1  0  0  0
 10 11  1  0  0  0
 10 19  1  0  0  0
 11 12  2  0  0  0
 12 13  1  0  0  0
 13 14  1  0  0  0
 13 19  2  0  0  0
 14 15  1  0  0  0
 14 16  2  0  0  0
 16 17  1  0  0  0
 17 18  2  0  0  0
 18 19  1  0  0  0
 26 28  1  0  0  0
 27 29  1  0  0  0
  4  8  1  0  0  0
  6  9  1  0  0  0
 15 20  1  0  0  0
 15 21  1  0  0  0
M  END
> <minimizedAffinity>
-6.79652

$$$$
1Z6S_AMP_A_1101


 29 31  0  0  0  0  0  0  0  0999 V2000
   36.7161    5.1066   14.1026 C   0  0  0  0  0  0  0  0  0  0  0  0
   37.1548    5.0005   15.4677 O   0  0  0  0  0  0  0  0  0  0  0  0
   36.5742    6.6032   13.8030 C   0  0  0  0  0  0  0  0  0  0  0  0
   35.2016    6.9390   13.5569 O   0  0  0  0  0  0  0  0  0  0  0  0
   37.0907    7.3179   15.0454 C   0  0  0  0  0  0  0  0  0  0  0  0
   36.3331    8.5063   15.3299 O   0  0  0  0  0  0  0  0  0  0  0  0
   36.9253    6.2547   16.1242 C   0  0  0  0  0  0  0  0  0  0  0  0
   34.6661    6.6968   14.3286 H   0  0  0  0  0  0  0  0  0  0  0  0
   35.3963    8.2760   15.4312 H   0  0  0  0  0  0  0  0  0  0  0  0
   37.8268    6.4484   17.2913 N   0  0  0  0  0  0  0  0  0  0  0  0
   39.1840    6.4094   17.2863 C   0  0  0  0  0  0  0  0  0  0  0  0
   39.6856    6.6353   18.5123 N   0  0  0  0  0  0  0  0  0  0  0  0
   38.6368    6.8345   19.3174 C   0  0  0  0  0  0  0  0  0  0  0  0
   38.4790    7.1247   20.7354 C   0  0  0  0  0  0  0  0  0  0  0  0
   39.6069    7.2484   21.4943 N   0  0  0  0  0  0  0  0  0  0  0  0
   37.1979    7.2627   21.2125 N   0  0  0  0  0  0  0  0  0  0  0  0
   36.1091    7.1374   20.4269 C   0  0  0  0  0  0  0  0  0  0  0  0
   36.1894    6.8643   19.1050 N   0  0  0  0  0  0  0  0  0  0  0  0
   37.4127    6.7123   18.5202 C   0  0  0  0  0  0  0  0  0  0  0  0
   40.4932    7.1356   21.0809 H   0  0  0  0  0  0  0  0  0  0  0  0
   39.5340    7.4504   22.4551 H   0  0  0  0  0  0  0  0  0  0  0  0
   37.7352    4.4538   13.1858 C   0  0  0  0  0  0  0  0  0  0  0  0
   37.0899    3.3528   12.5538 O   0  0  0  0  0  0  0  0  0  0  0  0
   36.9930    1.9153   13.2515 P   0  0  0  0  0  0  0  0  0  0  0  0
   37.2818    0.9707   12.0997 O   0  0  0  0  0  0  0  0  0  0  0  0
   38.0311    1.9734   14.3416 O   0  0  0  0  0  0  0  0  0  0  0  0
   35.5591    1.9452   13.7422 O   0  0  0  0  0  0  0  0  0  0  0  0
   38.0417    1.1315   14.8232 H   0  0  0  0  0  0  0  0  0  0  0  0
   35.3558    1.1133   14.1978 H   0  0  0  0  0  0  0  0  0  0  0  0
 24 25  2  0  0  0
 24 26  1  0  0  0
 24 27  1  0  0  0
 24 23  1  0  0  0
 23 22  1  0  0  0
 22  1  1  0  0  0
  1  2  1  0  0  0
  1  3  1  0  0  0
  2  7  1  0  0  0
  3  4  1  0  0  0
  3  5  1  0  0  0
  5  6  1  0  0  0
  5  7  1  0  0  0
  7 10  1  0  0  0
 10 11  1  0  0  0
 10 19  1  0  0  0
 11 12  2  0  0  0
 12 13  1  0  0  0
 13 14  1  0  0  0
 13 19  2  0  0  0
 14 15  1  0  0  0
 14 16  2  0  0  0
 16 17  1  0  0  0
 17 18  2  0  0  0
 18 19  1  0  0  0
 26 28  1  0  0  0
 27 29  1  0  0  0
  4  8  1  0  0  0
  6  9  1  0  0  0
 15 20  1  0  0  0
 15 21  1  0  0  0
M  END
> <minimizedAffinity>
-6.47690

$$$$
1Z6S_AMP_A_1101


 29 31  0  0  0  0  0  0  0  0999 V2000
   37.6263    3.2786   12.9390 C   0  0  0  0  0  0  0  0  0  0  0  0
   37.0172    4.0125   14.0148 O   0  0  0  0  0  0  0  0  0  0  0  0
   38.9061    4.0338   12.5629 C   0  0  0  0  0  0  0  0  0  0  0  0
   38.8035    4.5677   11.2355 O   0  0  0  0  0  0  0  0  0  0  0  0
   39.0337    5.1542   13.5873 C   0  0  0  0  0  0  0  0  0  0  0  0
   39.5583    6.3567   12.9991 O   0  0  0  0  0  0  0  0  0  0  0  0
   37.5965    5.3234   14.0644 C   0  0  0  0  0  0  0  0  0  0  0  0
   38.0354    5.1577   11.1828 H   0  0  0  0  0  0  0  0  0  0  0  0
   38.9912    6.6297   12.2610 H   0  0  0  0  0  0  0  0  0  0  0  0
   37.4883    5.9321   15.4172 N   0  0  0  0  0  0  0  0  0  0  0  0
   37.6956    5.3121   16.6073 C   0  0  0  0  0  0  0  0  0  0  0  0
   37.5231    6.1576   17.6373 N   0  0  0  0  0  0  0  0  0  0  0  0
   37.2115    7.3431   17.1032 C   0  0  0  0  0  0  0  0  0  0  0  0
   36.9073    8.6593   17.6464 C   0  0  0  0  0  0  0  0  0  0  0  0
   36.9310    8.8148   19.0024 N   0  0  0  0  0  0  0  0  0  0  0  0
   36.6237    9.6616   16.7504 N   0  0  0  0  0  0  0  0  0  0  0  0
   36.6156    9.4669   15.4161 C   0  0  0  0  0  0  0  0  0  0  0  0
   36.8850    8.2685   14.8509 N   0  0  0  0  0  0  0  0  0  0  0  0
   37.1867    7.2004   15.6445 C   0  0  0  0  0  0  0  0  0  0  0  0
   37.1432    8.0480   19.5822 H   0  0  0  0  0  0  0  0  0  0  0  0
   36.7358    9.6938   19.4005 H   0  0  0  0  0  0  0  0  0  0  0  0
   37.9337    1.8634   13.3949 C   0  0  0  0  0  0  0  0  0  0  0  0
   37.9095    1.0328   12.2384 O   0  0  0  0  0  0  0  0  0  0  0  0
   36.9640   -0.2554   12.1421 P   0  0  0  0  0  0  0  0  0  0  0  0
   37.8329   -1.3463   12.7397 O   0  0  0  0  0  0  0  0  0  0  0  0
   35.7437    0.1335   12.9351 O   0  0  0  0  0  0  0  0  0  0  0  0
   36.7480   -0.3251   10.6433 O   0  0  0  0  0  0  0  0  0  0  0  0
   35.1079   -0.5990   12.9301 H   0  0  0  0  0  0  0  0  0  0  0  0
   36.1766   -1.0804   10.4338 H   0  0  0  0  0  0  0  0  0  0  0  0
 24 25  2  0  0  0
 24 26  1  0  0  0
 24 27  1  0  0  0
 24 23  1  0  0  0
 23 22  1  0  0  0
 22  1  1  0  0  0
  1  2  1  0  0  0
  1  3  1  0  0  0
  2  7  1  0  0  0
  3  4  1  0  0  0
  3  5  1  0  0  0
  5  6  1  0  0  0
  5  7  1  0  0  0
  7 10  1  0  0  0
 10 11  1  0  0  0
 10 19  1  0  0  0
 11 12  2  0  0  0
 12 13  1  0  0  0
 13 14  1  0  0  0
 13 19  2  0  0  0
 14 15  1  0  0  0
 14 16  2  0  0  0
 16 17  1  0  0  0
 17 18  2  0  0  0
 18 19  1  0  0  0
 26 28  1  0  0  0
 27 29  1  0  0  0
  4  8  1  0  0  0
  6  9  1  0  0  0
 15 20  1  0  0  0
 15 21  1  0  0  0
M  END
> <minimizedAffinity>
-6.45672

$$$$
1Z6S_AMP_A_1101


 29 31  0  0  0  0  0  0  0  0999 V2000
   39.0488    4.9464   16.2076 C   0  0  0  0  0  0  0  0  0  0  0  0
   38.3194    4.9612   17.4465 O   0  0  0  0  0  0  0  0  0  0  0  0
   40.2099    3.9632   16.3945 C   0  0  0  0  0  0  0  0  0  0  0  0
   41.4666    4.6525   16.3402 O   0  0  0  0  0  0  0  0  0  0  0  0
   39.9962    3.3370   17.7668 C   0  0  0  0  0  0  0  0  0  0  0  0
   41.2420    3.1056   18.4465 O   0  0  0  0  0  0  0  0  0  0  0  0
   39.1390    4.3815   18.4707 C   0  0  0  0  0  0  0  0  0  0  0  0
   41.4898    5.3371   17.0270 H   0  0  0  0  0  0  0  0  0  0  0  0
   41.7288    3.9411   18.5227 H   0  0  0  0  0  0  0  0  0  0  0  0
   38.3292    3.8286   19.5891 N   0  0  0  0  0  0  0  0  0  0  0  0
   38.3687    2.5606   20.0730 C   0  0  0  0  0  0  0  0  0  0  0  0
   37.5118    2.3988   21.0953 N   0  0  0  0  0  0  0  0  0  0  0  0
   36.9195    3.5830   21.2811 C   0  0  0  0  0  0  0  0  0  0  0  0
   35.9135    4.0875   22.2048 C   0  0  0  0  0  0  0  0  0  0  0  0
   35.4086    3.2268   23.1363 N   0  0  0  0  0  0  0  0  0  0  0  0
   35.5457    5.4055   22.0792 N   0  0  0  0  0  0  0  0  0  0  0  0
   36.0733    6.2246   21.1470 C   0  0  0  0  0  0  0  0  0  0  0  0
   37.0068    5.8152   20.2586 N   0  0  0  0  0  0  0  0  0  0  0  0
   37.4526    4.5262   20.2936 C   0  0  0  0  0  0  0  0  0  0  0  0
   35.7215    2.2938   23.1652 H   0  0  0  0  0  0  0  0  0  0  0  0
   34.7314    3.5390   23.7791 H   0  0  0  0  0  0  0  0  0  0  0  0
   38.1314    4.5100   15.0793 C   0  0  0  0  0  0  0  0  0  0  0  0
   38.0220    5.6061   14.1766 O   0  0  0  0  0  0  0  0  0  0  0  0
   37.0073    6.8168   14.4357 P   0  0  0  0  0  0  0  0  0  0  0  0
   37.9401    8.0074   14.5559 O   0  0  0  0  0  0  0  0  0  0  0  0
   36.1060    6.7959   13.2288 O   0  0  0  0  0  0  0  0  0  0  0  0
   36.3519    6.3543   15.7220 O   0  0  0  0  0  0  0  0  0  0  0  0
   35.4503    7.5068   13.3026 H   0  0  0  0  0  0  0  0  0  0  0  0
   35.6954    7.0102   16.0043 H   0  0  0  0  0  0  0  0  0  0  0  0
 24 25  2  0  0  0
 24 26  1  0  0  0
 24 27  1  0  0  0
 24 23  1  0  0  0
 23 22  1  0  0  0
 22  1  1  0  0  0
  1  2  1  0  0  0
  1  3  1  0  0  0
  2  7  1  0  0  0
  3  4  1  0  0  0
  3  5  1  0  0  0
  5  6  1  0  0  0
  5  7  1  0  0  0
  7 10  1  0  0  0
 10 11  1  0  0  0
 10 19  1  0  0  0
 11 12  2  0  0  0
 12 13  1  0  0  0
 13 14  1  0  0  0
 13 19  2  0  0  0
 14 15  1  0  0  0
 14 16  2  0  0  0
 16 17  1  0  0  0
 17 18  2  0  0  0
 18 19  1  0  0  0
 26 28  1  0  0  0
 27 29  1  0  0  0
  4  8  1  0  0  0
  6  9  1  0  0  0
 15 20  1  0  0  0
 15 21  1  0  0  0
M  END
> <minimizedAffinity>
-6.24654

$$$$
1Z6S_AMP_A_1101


 29 31  0  0  0  0  0  0  0  0999 V2000
   38.0662    2.6685   13.9776 C   0  0  0  0  0  0  0  0  0  0  0  0
   38.2273    3.8632   14.7610 O   0  0  0  0  0  0  0  0  0  0  0  0
   36.7162    2.7925   13.2621 C   0  0  0  0  0  0  0  0  0  0  0  0
   35.8033    1.7915   13.7333 O   0  0  0  0  0  0  0  0  0  0  0  0
   36.2058    4.1888   13.5949 C   0  0  0  0  0  0  0  0  0  0  0  0
   34.7791    4.2060   13.7727 O   0  0  0  0  0  0  0  0  0  0  0  0
   36.9528    4.5093   14.8836 C   0  0  0  0  0  0  0  0  0  0  0  0
   35.6874    1.8852   14.6918 H   0  0  0  0  0  0  0  0  0  0  0  0
   34.5322    3.5759   14.4675 H   0  0  0  0  0  0  0  0  0  0  0  0
   37.0876    5.9674   15.1444 N   0  0  0  0  0  0  0  0  0  0  0  0
   37.0607    6.9646   14.2232 C   0  0  0  0  0  0  0  0  0  0  0  0
   37.2015    8.1696   14.8007 N   0  0  0  0  0  0  0  0  0  0  0  0
   37.3089    7.9472   16.1148 C   0  0  0  0  0  0  0  0  0  0  0  0
   37.4781    8.7984   17.2838 C   0  0  0  0  0  0  0  0  0  0  0  0
   37.5430   10.1482   17.0906 N   0  0  0  0  0  0  0  0  0  0  0  0
   37.5531    8.1806   18.5088 N   0  0  0  0  0  0  0  0  0  0  0  0
   37.4798    6.8422   18.6568 C   0  0  0  0  0  0  0  0  0  0  0  0
   37.3276    5.9987   17.6111 N   0  0  0  0  0  0  0  0  0  0  0  0
   37.2352    6.5015   16.3461 C   0  0  0  0  0  0  0  0  0  0  0  0
   37.4818   10.5187   16.1805 H   0  0  0  0  0  0  0  0  0  0  0  0
   37.6510   10.7511   17.8613 H   0  0  0  0  0  0  0  0  0  0  0  0
   39.2089    2.5500   12.9849 C   0  0  0  0  0  0  0  0  0  0  0  0
   39.9323    3.7760   13.0258 O   0  0  0  0  0  0  0  0  0  0  0  0
   40.2519    4.6139   11.6998 P   0  0  0  0  0  0  0  0  0  0  0  0
   40.8635    5.8868   12.2547 O   0  0  0  0  0  0  0  0  0  0  0  0
   41.1763    3.7155   10.9203 O   0  0  0  0  0  0  0  0  0  0  0  0
   38.8588    4.7459   11.1169 O   0  0  0  0  0  0  0  0  0  0  0  0
   41.4246    4.1500   10.0893 H   0  0  0  0  0  0  0  0  0  0  0  0
   38.9017    5.2461   10.2869 H   0  0  0  0  0  0  0  0  0  0  0  0
 24 25  2  0  0  0
 24 26  1  0  0  0
 24 27  1  0  0  0
 24 23  1  0  0  0
 23 22  1  0  0  0
 22  1  1  0  0  0
  1  2  1  0  0  0
  1  3  1  0  0  0
  2  7  1  0  0  0
  3  4  1  0  0  0
  3  5  1  0  0  0
  5  6  1  0  0  0
  5  7  1  0  0  0
  7 10  1  0  0  0
 10 11  1  0  0  0
 10 19  1  0  0  0
 11 12  2  0  0  0
 12 13  1  0  0  0
 13 14  1  0  0  0
 13 19  2  0  0  0
 14 15  1  0  0  0
 14 16  2  0  0  0
 16 17  1  0  0  0
 17 18  2  0  0  0
 18 19  1  0  0  0
 26 28  1  0  0  0
 27 29  1  0  0  0
  4  8  1  0  0  0
  6  9  1  0  0  0
 15 20  1  0  0  0
 15 21  1  0  0  0
M  END
> <minimizedAffinity>
-6.17921

$$$$
1Z6S_AMP_A_1101


 29 31  0  0  0  0  0  0  0  0999 V2000
   38.6972    5.0261   15.9333 C   0  0  0  0  0  0  0  0  0  0  0  0
   37.8616    4.8232   17.0855 O   0  0  0  0  0  0  0  0  0  0  0  0
   40.1466    4.8942   16.4143 C   0  0  0  0  0  0  0  0  0  0  0  0
   40.8344    6.1466   16.2886 O   0  0  0  0  0  0  0  0  0  0  0  0
   40.0538    4.4732   17.8756 C   0  0  0  0  0  0  0  0  0  0  0  0
   41.0874    5.0785   18.6710 O   0  0  0  0  0  0  0  0  0  0  0  0
   38.6639    4.9601   18.2664 C   0  0  0  0  0  0  0  0  0  0  0  0
   40.3683    6.8244   16.8026 H   0  0  0  0  0  0  0  0  0  0  0  0
   41.0358    6.0436   18.5880 H   0  0  0  0  0  0  0  0  0  0  0  0
   38.0834    4.2297   19.4248 N   0  0  0  0  0  0  0  0  0  0  0  0
   38.4126    2.9823   19.8480 C   0  0  0  0  0  0  0  0  0  0  0  0
   37.7014    2.6285   20.9318 N   0  0  0  0  0  0  0  0  0  0  0  0
   36.9104    3.6676   21.2188 C   0  0  0  0  0  0  0  0  0  0  0  0
   35.9153    3.9400   22.2461 C   0  0  0  0  0  0  0  0  0  0  0  0
   35.6751    2.9728   23.1790 N   0  0  0  0  0  0  0  0  0  0  0  0
   35.2890    5.1625   22.2098 N   0  0  0  0  0  0  0  0  0  0  0  0
   35.5594    6.0933   21.2723 C   0  0  0  0  0  0  0  0  0  0  0  0
   36.4684    5.8989   20.2904 N   0  0  0  0  0  0  0  0  0  0  0  0
   37.1570    4.7225   20.2312 C   0  0  0  0  0  0  0  0  0  0  0  0
   36.1643    2.1194   23.1406 H   0  0  0  0  0  0  0  0  0  0  0  0
   35.0125    3.1288   23.8904 H   0  0  0  0  0  0  0  0  0  0  0  0
   38.3696    3.9880   14.8749 C   0  0  0  0  0  0  0  0  0  0  0  0
   39.3644    4.0907   13.8610 O   0  0  0  0  0  0  0  0  0  0  0  0
   38.9989    4.4943   12.3556 P   0  0  0  0  0  0  0  0  0  0  0  0
   37.7818    3.6342   12.0709 O   0  0  0  0  0  0  0  0  0  0  0  0
   38.7621    5.9802   12.4286 O   0  0  0  0  0  0  0  0  0  0  0  0
   40.2768    4.0921   11.6463 O   0  0  0  0  0  0  0  0  0  0  0  0
   38.5317    6.3145   11.5477 H   0  0  0  0  0  0  0  0  0  0  0  0
   40.1954    4.2853   10.6993 H   0  0  0  0  0  0  0  0  0  0  0  0
 24 25  2  0  0  0
 24 26  1  0  0  0
 24 27  1  0  0  0
 24 23  1  0  0  0
 23 22  1  0  0  0
 22  1  1  0  0  0
  1  2  1  0  0  0
  1  3  1  0  0  0
  2  7  1  0  0  0
  3  4  1  0  0  0
  3  5  1  0  0  0
  5  6  1  0  0  0
  5  7  1  0  0  0
  7 10  1  0  0  0
 10 11  1  0  0  0
 10 19  1  0  0  0
 11 12  2  0  0  0
 12 13  1  0  0  0
 13 14  1  0  0  0
 13 19  2  0  0  0
 14 15  1  0  0  0
 14 16  2  0  0  0
 16 17  1  0  0  0
 17 18  2  0  0  0
 18 19  1  0  0  0
 26 28  1  0  0  0
 27 29  1  0  0  0
  4  8  1  0  0  0
  6  9  1  0  0  0
 15 20  1  0  0  0
 15 21  1  0  0  0
M  END
> <minimizedAffinity>
-6.17778

$$$$
1Z6S_AMP_A_1101


 29 31  0  0  0  0  0  0  0  0999 V2000
   37.3238    4.1823   21.4118 C   0  0  0  0  0  0  0  0  0  0  0  0
   37.6711    5.3537   20.6540 O   0  0  0  0  0  0  0  0  0  0  0  0
   35.8266    4.2895   21.7229 C   0  0  0  0  0  0  0  0  0  0  0  0
   35.6152    4.4339   23.1342 O   0  0  0  0  0  0  0  0  0  0  0  0
   35.3430    5.5255   20.9750 C   0  0  0  0  0  0  0  0  0  0  0  0
   34.3469    6.2445   21.7222 O   0  0  0  0  0  0  0  0  0  0  0  0
   36.6281    6.3264   20.8055 C   0  0  0  0  0  0  0  0  0  0  0  0
   36.0836    5.2215   23.4524 H   0  0  0  0  0  0  0  0  0  0  0  0
   34.7063    6.4872   22.5899 H   0  0  0  0  0  0  0  0  0  0  0  0
   36.5855    7.2827   19.6670 N   0  0  0  0  0  0  0  0  0  0  0  0
   36.2897    8.6065   19.7271 C   0  0  0  0  0  0  0  0  0  0  0  0
   36.3514    9.1784   18.5127 N   0  0  0  0  0  0  0  0  0  0  0  0
   36.7036    8.2117   17.6587 C   0  0  0  0  0  0  0  0  0  0  0  0
   36.9436    8.1547   16.2238 C   0  0  0  0  0  0  0  0  0  0  0  0
   36.8107    9.3075   15.5049 N   0  0  0  0  0  0  0  0  0  0  0  0
   37.2971    6.9386   15.6909 N   0  0  0  0  0  0  0  0  0  0  0  0
   37.4223    5.8230   16.4381 C   0  0  0  0  0  0  0  0  0  0  0  0
   37.2088    5.8101   17.7732 N   0  0  0  0  0  0  0  0  0  0  0  0
   36.8582    6.9636   18.4120 C   0  0  0  0  0  0  0  0  0  0  0  0
   36.5535   10.1430   15.9575 H   0  0  0  0  0  0  0  0  0  0  0  0
   36.9721    9.3033   14.5337 H   0  0  0  0  0  0  0  0  0  0  0  0
   37.6313    2.9375   20.5987 C   0  0  0  0  0  0  0  0  0  0  0  0
   39.0238    2.6744   20.7402 O   0  0  0  0  0  0  0  0  0  0  0  0
   40.0269    2.7356   19.4942 P   0  0  0  0  0  0  0  0  0  0  0  0
   41.2947    3.2866   20.1197 O   0  0  0  0  0  0  0  0  0  0  0  0
   40.0878    1.3102   19.0106 O   0  0  0  0  0  0  0  0  0  0  0  0
   39.2719    3.6810   18.5810 O   0  0  0  0  0  0  0  0  0  0  0  0
   40.6819    1.2533   18.2460 H   0  0  0  0  0  0  0  0  0  0  0  0
   39.7771    3.8135   17.7637 H   0  0  0  0  0  0  0  0  0  0  0  0
 24 25  2  0  0  0
 24 26  1  0  0  0
 24 27  1  0  0  0
 24 23  1  0  0  0
 23 22  1  0  0  0
 22  1  1  0  0  0
  1  2  1  0  0  0
  1  3  1  0  0  0
  2  7  1  0  0  0
  3  4  1  0  0  0
  3  5  1  0  0  0
  5  6  1  0  0  0
  5  7  1  0  0  0
  7 10  1  0  0  0
 10 11  1  0  0  0
 10 19  1  0  0  0
 11 12  2  0  0  0
 12 13  1  0  0  0
 13 14  1  0  0  0
 13 19  2  0  0  0
 14 15  1  0  0  0
 14 16  2  0  0  0
 16 17  1  0  0  0
 17 18  2  0  0  0
 18 19  1  0  0  0
 26 28  1  0  0  0
 27 29  1  0  0  0
  4  8  1  0  0  0
  6  9  1  0  0  0
 15 20  1  0  0  0
 15 21  1  0  0  0
M  END
> <minimizedAffinity>
-5.97235

$$$$
