4GIH_0X5_A_1201


 25 27  0  0  0  0  0  0  0  0999 V2000
   -6.9295   -5.7595  -16.1700 C   0  0  0  0  0  0  0  0  0  0  0  0
   -6.8418   -4.9154  -15.0427 C   0  0  0  0  0  0  0  0  0  0  0  0
   -5.9684   -3.8299  -15.0868 C   0  0  0  0  0  0  0  0  0  0  0  0
   -5.2580   -3.5795  -16.1858 N   0  0  0  0  0  0  0  0  0  0  0  0
   -5.3132   -4.3399  -17.2801 C   0  0  0  0  0  0  0  0  0  0  0  0
   -6.1398   -5.4669  -17.2810 C   0  0  0  0  0  0  0  0  0  0  0  0
   -7.2545   -8.1944  -16.0175 C   0  0  0  0  0  0  0  0  0  0  0  0
   -6.0981   -8.4656  -15.6784 O   0  0  0  0  0  0  0  0  0  0  0  0
   -7.6746   -6.9391  -16.2490 N   0  0  0  0  0  0  0  0  0  0  0  0
   -8.6199   -6.8385  -16.5047 H   0  0  0  0  0  0  0  0  0  0  0  0
   -8.2009   -9.3100  -16.2287 C   0  0  0  0  0  0  0  0  0  0  0  0
   -9.1328   -9.5717  -15.2059 C   0  0  0  0  0  0  0  0  0  0  0  0
  -10.1002  -10.5557  -15.3600 C   0  0  0  0  0  0  0  0  0  0  0  0
   -8.2339  -10.0861  -17.4026 C   0  0  0  0  0  0  0  0  0  0  0  0
  -10.1306  -11.3075  -16.5225 C   0  0  0  0  0  0  0  0  0  0  0  0
   -9.2037  -11.0746  -17.5374 C   0  0  0  0  0  0  0  0  0  0  0  0
   -9.0439   -8.6906  -13.7225 Cl  0  0  0  0  0  0  0  0  0  0  0  0
   -7.0674   -9.8845  -18.6740 Cl  0  0  0  0  0  0  0  0  0  0  0  0
   -4.5213   -4.0095  -18.4019 N   0  0  0  0  0  0  0  0  0  0  0  0
   -3.2263   -4.4095  -18.5864 C   0  0  0  0  0  0  0  0  0  0  0  0
   -2.6547   -5.0908  -17.7550 O   0  0  0  0  0  0  0  0  0  0  0  0
   -4.9309   -3.4509  -19.1015 H   0  0  0  0  0  0  0  0  0  0  0  0
   -2.4724   -3.9985  -19.8448 C   0  0  0  0  0  0  0  0  0  0  0  0
   -2.3098   -5.0202  -20.9787 C   0  0  0  0  0  0  0  0  0  0  0  0
   -3.2633   -3.8410  -21.1497 C   0  0  0  0  0  0  0  0  0  0  0  0
 24 25  1  0  0  0
 24 23  1  0  0  0
 25 23  1  0  0  0
 23 20  1  0  0  0
 20 21  2  0  0  0
 20 19  1  0  0  0
 19  5  1  0  0  0
  5  6  2  0  0  0
  5  4  1  0  0  0
  6  1  1  0  0  0
  4  3  2  0  0  0
  9  1  1  0  0  0
  9  7  1  0  0  0
  1  2  2  0  0  0
 15 16  2  0  0  0
 15 13  1  0  0  0
 16 14  1  0  0  0
 13 12  2  0  0  0
 14 18  1  0  0  0
 14 11  2  0  0  0
 12 11  1  0  0  0
 12 17  1  0  0  0
 11  7  1  0  0  0
  7  8  2  0  0  0
  3  2  1  0  0  0
  9 10  1  0  0  0
 19 22  1  0  0  0
M  END
> <minimizedAffinity>
-8.00998

$$$$
4GIH_0X5_A_1201


 25 27  0  0  0  0  0  0  0  0999 V2000
   -6.8004   -5.8169  -16.1473 C   0  0  0  0  0  0  0  0  0  0  0  0
   -6.6702   -5.0015  -15.0031 C   0  0  0  0  0  0  0  0  0  0  0  0
   -5.7771   -3.9319  -15.0427 C   0  0  0  0  0  0  0  0  0  0  0  0
   -5.0878   -3.6690  -16.1522 N   0  0  0  0  0  0  0  0  0  0  0  0
   -5.1832   -4.4020  -17.2622 C   0  0  0  0  0  0  0  0  0  0  0  0
   -6.0313   -5.5129  -17.2696 C   0  0  0  0  0  0  0  0  0  0  0  0
   -7.1604   -8.2508  -16.0824 C   0  0  0  0  0  0  0  0  0  0  0  0
   -5.9924   -8.5547  -15.8197 O   0  0  0  0  0  0  0  0  0  0  0  0
   -7.5698   -6.9801  -16.2360 N   0  0  0  0  0  0  0  0  0  0  0  0
   -8.5257   -6.8535  -16.4347 H   0  0  0  0  0  0  0  0  0  0  0  0
   -8.1369   -9.3410  -16.2891 C   0  0  0  0  0  0  0  0  0  0  0  0
   -8.1519   -9.9671  -17.5503 C   0  0  0  0  0  0  0  0  0  0  0  0
   -8.9902  -11.0459  -17.7988 C   0  0  0  0  0  0  0  0  0  0  0  0
   -9.0132   -9.7964  -15.2860 C   0  0  0  0  0  0  0  0  0  0  0  0
   -9.8417  -11.4927  -16.8025 C   0  0  0  0  0  0  0  0  0  0  0  0
   -9.8535  -10.8725  -15.5541 C   0  0  0  0  0  0  0  0  0  0  0  0
   -7.1497   -9.3583  -18.8189 Cl  0  0  0  0  0  0  0  0  0  0  0  0
   -9.1175   -9.0247  -13.7331 Cl  0  0  0  0  0  0  0  0  0  0  0  0
   -4.4114   -4.0601  -18.3945 N   0  0  0  0  0  0  0  0  0  0  0  0
   -3.1201   -4.4586  -18.6065 C   0  0  0  0  0  0  0  0  0  0  0  0
   -2.5341   -5.1489  -17.7927 O   0  0  0  0  0  0  0  0  0  0  0  0
   -4.8332   -3.4940  -19.0807 H   0  0  0  0  0  0  0  0  0  0  0  0
   -2.3888   -4.0346  -19.8739 C   0  0  0  0  0  0  0  0  0  0  0  0
   -2.3204   -5.0144  -21.0534 C   0  0  0  0  0  0  0  0  0  0  0  0
   -3.2143   -3.7807  -21.1416 C   0  0  0  0  0  0  0  0  0  0  0  0
 24 25  1  0  0  0
 24 23  1  0  0  0
 25 23  1  0  0  0
 23 20  1  0  0  0
 20 21  2  0  0  0
 20 19  1  0  0  0
 19  5  1  0  0  0
  5  6  2  0  0  0
  5  4  1  0  0  0
  6  1  1  0  0  0
  4  3  2  0  0  0
  9  1  1  0  0  0
  9  7  1  0  0  0
  1  2  2  0  0  0
 15 16  2  0  0  0
 15 13  1  0  0  0
 16 14  1  0  0  0
 13 12  2  0  0  0
 14 18  1  0  0  0
 14 11  2  0  0  0
 12 11  1  0  0  0
 12 17  1  0  0  0
 11  7  1  0  0  0
  7  8  2  0  0  0
  3  2  1  0  0  0
  9 10  1  0  0  0
 19 22  1  0  0  0
M  END
> <minimizedAffinity>
-7.93195

$$$$
4GIH_0X5_A_1201


 25 27  0  0  0  0  0  0  0  0999 V2000
   -8.5541   -8.9004  -15.7659 C   0  0  0  0  0  0  0  0  0  0  0  0
   -9.3589   -9.2786  -14.6702 C   0  0  0  0  0  0  0  0  0  0  0  0
  -10.2497  -10.3388  -14.8297 C   0  0  0  0  0  0  0  0  0  0  0  0
  -10.3120  -11.0000  -15.9848 N   0  0  0  0  0  0  0  0  0  0  0  0
   -9.5658  -10.6890  -17.0455 C   0  0  0  0  0  0  0  0  0  0  0  0
   -8.6837   -9.6083  -16.9598 C   0  0  0  0  0  0  0  0  0  0  0  0
   -7.9875   -6.5139  -15.5628 C   0  0  0  0  0  0  0  0  0  0  0  0
   -9.1205   -6.1302  -15.2549 O   0  0  0  0  0  0  0  0  0  0  0  0
   -7.6904   -7.8024  -15.8022 N   0  0  0  0  0  0  0  0  0  0  0  0
   -6.7525   -7.9959  -16.0304 H   0  0  0  0  0  0  0  0  0  0  0  0
   -6.9258   -5.4985  -15.7261 C   0  0  0  0  0  0  0  0  0  0  0  0
   -6.5092   -5.2018  -17.0380 C   0  0  0  0  0  0  0  0  0  0  0  0
   -5.5683   -4.2092  -17.2780 C   0  0  0  0  0  0  0  0  0  0  0  0
   -6.3480   -4.8017  -14.6480 C   0  0  0  0  0  0  0  0  0  0  0  0
   -5.0127   -3.5226  -16.2116 C   0  0  0  0  0  0  0  0  0  0  0  0
   -5.3997   -3.8165  -14.9050 C   0  0  0  0  0  0  0  0  0  0  0  0
   -7.1407   -6.1138  -18.3624 Cl  0  0  0  0  0  0  0  0  0  0  0  0
   -6.7437   -5.1667  -12.9964 Cl  0  0  0  0  0  0  0  0  0  0  0  0
   -9.6979  -11.4361  -18.2367 N   0  0  0  0  0  0  0  0  0  0  0  0
   -8.6623  -11.7712  -19.0652 C   0  0  0  0  0  0  0  0  0  0  0  0
   -7.5227  -11.4201  -18.8199 O   0  0  0  0  0  0  0  0  0  0  0  0
  -10.6006  -11.7375  -18.4890 H   0  0  0  0  0  0  0  0  0  0  0  0
   -8.9248  -12.5914  -20.3218 C   0  0  0  0  0  0  0  0  0  0  0  0
   -8.0852  -12.3147  -21.5766 C   0  0  0  0  0  0  0  0  0  0  0  0
   -7.8551  -13.5930  -20.7754 C   0  0  0  0  0  0  0  0  0  0  0  0
 24 25  1  0  0  0
 24 23  1  0  0  0
 25 23  1  0  0  0
 23 20  1  0  0  0
 20 21  2  0  0  0
 20 19  1  0  0  0
 19  5  1  0  0  0
  5  6  2  0  0  0
  5  4  1  0  0  0
  6  1  1  0  0  0
  4  3  2  0  0  0
  9  1  1  0  0  0
  9  7  1  0  0  0
  1  2  2  0  0  0
 15 16  2  0  0  0
 15 13  1  0  0  0
 16 14  1  0  0  0
 13 12  2  0  0  0
 14 18  1  0  0  0
 14 11  2  0  0  0
 12 11  1  0  0  0
 12 17  1  0  0  0
 11  7  1  0  0  0
  7  8  2  0  0  0
  3  2  1  0  0  0
  9 10  1  0  0  0
 19 22  1  0  0  0
M  END
> <minimizedAffinity>
-7.59297

$$$$
4GIH_0X5_A_1201


 25 27  0  0  0  0  0  0  0  0999 V2000
   -8.8225   -9.1148  -16.1710 C   0  0  0  0  0  0  0  0  0  0  0  0
   -9.4862   -9.6329  -15.0386 C   0  0  0  0  0  0  0  0  0  0  0  0
  -10.1699  -10.8417  -15.1596 C   0  0  0  0  0  0  0  0  0  0  0  0
  -10.1655  -11.5070  -16.3140 N   0  0  0  0  0  0  0  0  0  0  0  0
   -9.5449  -11.0656  -17.4088 C   0  0  0  0  0  0  0  0  0  0  0  0
   -8.8772   -9.8387  -17.3611 C   0  0  0  0  0  0  0  0  0  0  0  0
   -6.8789   -7.6094  -16.0529 C   0  0  0  0  0  0  0  0  0  0  0  0
   -6.0463   -8.4819  -15.7857 O   0  0  0  0  0  0  0  0  0  0  0  0
   -8.1823   -7.8747  -16.2440 N   0  0  0  0  0  0  0  0  0  0  0  0
   -8.7544   -7.1036  -16.4614 H   0  0  0  0  0  0  0  0  0  0  0  0
   -6.4246   -6.2040  -16.1110 C   0  0  0  0  0  0  0  0  0  0  0  0
   -6.4758   -5.4566  -14.9187 C   0  0  0  0  0  0  0  0  0  0  0  0
   -6.0001   -4.1528  -14.8757 C   0  0  0  0  0  0  0  0  0  0  0  0
   -5.9186   -5.6012  -17.2781 C   0  0  0  0  0  0  0  0  0  0  0  0
   -5.4953   -3.5717  -16.0268 C   0  0  0  0  0  0  0  0  0  0  0  0
   -5.4546   -4.2907  -17.2204 C   0  0  0  0  0  0  0  0  0  0  0  0
   -7.1807   -6.1523  -13.5032 Cl  0  0  0  0  0  0  0  0  0  0  0  0
   -5.9002   -6.4249  -18.8074 Cl  0  0  0  0  0  0  0  0  0  0  0  0
   -9.5947  -11.8286  -18.5963 N   0  0  0  0  0  0  0  0  0  0  0  0
   -8.5256  -12.0638  -19.4167 C   0  0  0  0  0  0  0  0  0  0  0  0
   -7.4280  -11.6001  -19.1669 O   0  0  0  0  0  0  0  0  0  0  0  0
  -10.4613  -12.2193  -18.8521 H   0  0  0  0  0  0  0  0  0  0  0  0
   -8.6975  -12.9127  -20.6699 C   0  0  0  0  0  0  0  0  0  0  0  0
   -8.2718  -12.3296  -22.0245 C   0  0  0  0  0  0  0  0  0  0  0  0
   -7.4391  -13.4323  -21.3767 C   0  0  0  0  0  0  0  0  0  0  0  0
 24 25  1  0  0  0
 24 23  1  0  0  0
 25 23  1  0  0  0
 23 20  1  0  0  0
 20 21  2  0  0  0
 20 19  1  0  0  0
 19  5  1  0  0  0
  5  6  2  0  0  0
  5  4  1  0  0  0
  6  1  1  0  0  0
  4  3  2  0  0  0
  9  1  1  0  0  0
  9  7  1  0  0  0
  1  2  2  0  0  0
 15 16  2  0  0  0
 15 13  1  0  0  0
 16 14  1  0  0  0
 13 12  2  0  0  0
 14 18  1  0  0  0
 14 11  2  0  0  0
 12 11  1  0  0  0
 12 17  1  0  0  0
 11  7  1  0  0  0
  7  8  2  0  0  0
  3  2  1  0  0  0
  9 10  1  0  0  0
 19 22  1  0  0  0
M  END
> <minimizedAffinity>
-7.59027

$$$$
4GIH_0X5_A_1201


 25 27  0  0  0  0  0  0  0  0999 V2000
   -6.2322   -6.3669  -17.9094 C   0  0  0  0  0  0  0  0  0  0  0  0
   -5.4982   -5.3310  -18.5252 C   0  0  0  0  0  0  0  0  0  0  0  0
   -4.8100   -5.6095  -19.7050 C   0  0  0  0  0  0  0  0  0  0  0  0
   -4.8746   -6.8218  -20.2540 N   0  0  0  0  0  0  0  0  0  0  0  0
   -5.5626   -7.8306  -19.7176 C   0  0  0  0  0  0  0  0  0  0  0  0
   -6.2392   -7.6240  -18.5123 C   0  0  0  0  0  0  0  0  0  0  0  0
   -6.5215   -6.8332  -15.5102 C   0  0  0  0  0  0  0  0  0  0  0  0
   -5.4975   -7.5113  -15.3783 O   0  0  0  0  0  0  0  0  0  0  0  0
   -6.8886   -6.2806  -16.6788 N   0  0  0  0  0  0  0  0  0  0  0  0
   -7.7190   -5.7518  -16.6665 H   0  0  0  0  0  0  0  0  0  0  0  0
   -7.4076   -6.6700  -14.3384 C   0  0  0  0  0  0  0  0  0  0  0  0
   -7.1260   -5.6097  -13.4556 C   0  0  0  0  0  0  0  0  0  0  0  0
   -7.9538   -5.3474  -12.3722 C   0  0  0  0  0  0  0  0  0  0  0  0
   -8.5226   -7.4925  -14.0899 C   0  0  0  0  0  0  0  0  0  0  0  0
   -9.0538   -6.1564  -12.1415 C   0  0  0  0  0  0  0  0  0  0  0  0
   -9.3367   -7.2220  -12.9945 C   0  0  0  0  0  0  0  0  0  0  0  0
   -5.7088   -4.6512  -13.6953 Cl  0  0  0  0  0  0  0  0  0  0  0  0
   -8.8898   -8.8715  -15.0806 Cl  0  0  0  0  0  0  0  0  0  0  0  0
   -5.5740   -9.0885  -20.3596 N   0  0  0  0  0  0  0  0  0  0  0  0
   -6.4904   -9.4758  -21.2985 C   0  0  0  0  0  0  0  0  0  0  0  0
   -7.3925   -8.7330  -21.6397 O   0  0  0  0  0  0  0  0  0  0  0  0
   -4.8718   -9.7332  -20.1136 H   0  0  0  0  0  0  0  0  0  0  0  0
   -6.3967  -10.8582  -21.9316 C   0  0  0  0  0  0  0  0  0  0  0  0
   -7.3003  -11.9797  -21.4007 C   0  0  0  0  0  0  0  0  0  0  0  0
   -7.5820  -11.3596  -22.7664 C   0  0  0  0  0  0  0  0  0  0  0  0
 24 25  1  0  0  0
 24 23  1  0  0  0
 25 23  1  0  0  0
 23 20  1  0  0  0
 20 21  2  0  0  0
 20 19  1  0  0  0
 19  5  1  0  0  0
  5  6  2  0  0  0
  5  4  1  0  0  0
  6  1  1  0  0  0
  4  3  2  0  0  0
  9  1  1  0  0  0
  9  7  1  0  0  0
  1  2  2  0  0  0
 15 16  2  0  0  0
 15 13  1  0  0  0
 16 14  1  0  0  0
 13 12  2  0  0  0
 14 18  1  0  0  0
 14 11  2  0  0  0
 12 11  1  0  0  0
 12 17  1  0  0  0
 11  7  1  0  0  0
  7  8  2  0  0  0
  3  2  1  0  0  0
  9 10  1  0  0  0
 19 22  1  0  0  0
M  END
> <minimizedAffinity>
-7.43051

$$$$
4GIH_0X5_A_1201


 25 27  0  0  0  0  0  0  0  0999 V2000
   -8.1309  -10.1156  -18.1386 C   0  0  0  0  0  0  0  0  0  0  0  0
   -8.9560  -11.2371  -18.3679 C   0  0  0  0  0  0  0  0  0  0  0  0
   -8.5775  -12.1567  -19.3448 C   0  0  0  0  0  0  0  0  0  0  0  0
   -7.4417  -11.9930  -20.0219 N   0  0  0  0  0  0  0  0  0  0  0  0
   -6.6229  -10.9571  -19.8350 C   0  0  0  0  0  0  0  0  0  0  0  0
   -6.9699   -9.9796  -18.8982 C   0  0  0  0  0  0  0  0  0  0  0  0
   -7.6720   -8.6046  -16.2508 C   0  0  0  0  0  0  0  0  0  0  0  0
   -6.5799   -9.0945  -15.9460 O   0  0  0  0  0  0  0  0  0  0  0  0
   -8.4176   -9.0562  -17.2736 N   0  0  0  0  0  0  0  0  0  0  0  0
   -9.2670   -8.5844  -17.4324 H   0  0  0  0  0  0  0  0  0  0  0  0
   -8.2031   -7.5064  -15.4160 C   0  0  0  0  0  0  0  0  0  0  0  0
   -8.8452   -7.8588  -14.2134 C   0  0  0  0  0  0  0  0  0  0  0  0
   -9.3068   -6.8822  -13.3410 C   0  0  0  0  0  0  0  0  0  0  0  0
   -8.0659   -6.1453  -15.7478 C   0  0  0  0  0  0  0  0  0  0  0  0
   -9.1587   -5.5457  -13.6717 C   0  0  0  0  0  0  0  0  0  0  0  0
   -8.5423   -5.1792  -14.8671 C   0  0  0  0  0  0  0  0  0  0  0  0
   -9.1039   -9.5254  -13.8390 Cl  0  0  0  0  0  0  0  0  0  0  0  0
   -7.3637   -5.6290  -17.2505 Cl  0  0  0  0  0  0  0  0  0  0  0  0
   -5.4403  -10.8536  -20.6001 N   0  0  0  0  0  0  0  0  0  0  0  0
   -5.3697  -10.3176  -21.8567 C   0  0  0  0  0  0  0  0  0  0  0  0
   -6.3646   -9.8930  -22.4154 O   0  0  0  0  0  0  0  0  0  0  0  0
   -4.6066  -11.1915  -20.2003 H   0  0  0  0  0  0  0  0  0  0  0  0
   -4.0327  -10.2500  -22.5837 C   0  0  0  0  0  0  0  0  0  0  0  0
   -3.5608  -11.4722  -23.3833 C   0  0  0  0  0  0  0  0  0  0  0  0
   -4.0373  -10.2220  -24.1174 C   0  0  0  0  0  0  0  0  0  0  0  0
 24 25  1  0  0  0
 24 23  1  0  0  0
 25 23  1  0  0  0
 23 20  1  0  0  0
 20 21  2  0  0  0
 20 19  1  0  0  0
 19  5  1  0  0  0
  5  6  2  0  0  0
  5  4  1  0  0  0
  6  1  1  0  0  0
  4  3  2  0  0  0
  9  1  1  0  0  0
  9  7  1  0  0  0
  1  2  2  0  0  0
 15 16  2  0  0  0
 15 13  1  0  0  0
 16 14  1  0  0  0
 13 12  2  0  0  0
 14 18  1  0  0  0
 14 11  2  0  0  0
 12 11  1  0  0  0
 12 17  1  0  0  0
 11  7  1  0  0  0
  7  8  2  0  0  0
  3  2  1  0  0  0
  9 10  1  0  0  0
 19 22  1  0  0  0
M  END
> <minimizedAffinity>
-7.36285

$$$$
4GIH_0X5_A_1201


 25 27  0  0  0  0  0  0  0  0999 V2000
   -5.6142   -7.6541  -17.7947 C   0  0  0  0  0  0  0  0  0  0  0  0
   -4.8529   -6.6430  -18.4187 C   0  0  0  0  0  0  0  0  0  0  0  0
   -4.6241   -5.4550  -17.7262 C   0  0  0  0  0  0  0  0  0  0  0  0
   -5.0885   -5.2958  -16.4875 N   0  0  0  0  0  0  0  0  0  0  0  0
   -5.8031   -6.2243  -15.8504 C   0  0  0  0  0  0  0  0  0  0  0  0
   -6.1008   -7.4203  -16.5093 C   0  0  0  0  0  0  0  0  0  0  0  0
   -7.0218   -9.0437  -19.2592 C   0  0  0  0  0  0  0  0  0  0  0  0
   -7.7396   -8.1261  -19.6697 O   0  0  0  0  0  0  0  0  0  0  0  0
   -6.0172   -8.8538  -18.3872 N   0  0  0  0  0  0  0  0  0  0  0  0
   -5.5040   -9.6554  -18.1357 H   0  0  0  0  0  0  0  0  0  0  0  0
   -7.3201  -10.4196  -19.7098 C   0  0  0  0  0  0  0  0  0  0  0  0
   -8.2898  -11.1419  -18.9882 C   0  0  0  0  0  0  0  0  0  0  0  0
   -8.6765  -12.4128  -19.3924 C   0  0  0  0  0  0  0  0  0  0  0  0
   -6.7129  -11.0161  -20.8310 C   0  0  0  0  0  0  0  0  0  0  0  0
   -8.0803  -12.9874  -20.5023 C   0  0  0  0  0  0  0  0  0  0  0  0
   -7.1049  -12.2940  -21.2172 C   0  0  0  0  0  0  0  0  0  0  0  0
   -8.9742  -10.4592  -17.5564 Cl  0  0  0  0  0  0  0  0  0  0  0  0
   -5.4484  -10.2272  -21.7234 Cl  0  0  0  0  0  0  0  0  0  0  0  0
   -6.2649   -5.9737  -14.5395 N   0  0  0  0  0  0  0  0  0  0  0  0
   -7.4746   -5.4131  -14.2335 C   0  0  0  0  0  0  0  0  0  0  0  0
   -8.2490   -5.0730  -15.1092 O   0  0  0  0  0  0  0  0  0  0  0  0
   -5.6736   -6.2202  -13.7920 H   0  0  0  0  0  0  0  0  0  0  0  0
   -7.8704   -5.1992  -12.7780 C   0  0  0  0  0  0  0  0  0  0  0  0
   -9.0361   -6.0130  -12.1994 C   0  0  0  0  0  0  0  0  0  0  0  0
   -7.6045   -6.3302  -11.7764 C   0  0  0  0  0  0  0  0  0  0  0  0
 24 25  1  0  0  0
 24 23  1  0  0  0
 25 23  1  0  0  0
 23 20  1  0  0  0
 20 21  2  0  0  0
 20 19  1  0  0  0
 19  5  1  0  0  0
  5  6  2  0  0  0
  5  4  1  0  0  0
  6  1  1  0  0  0
  4  3  2  0  0  0
  9  1  1  0  0  0
  9  7  1  0  0  0
  1  2  2  0  0  0
 15 16  2  0  0  0
 15 13  1  0  0  0
 16 14  1  0  0  0
 13 12  2  0  0  0
 14 18  1  0  0  0
 14 11  2  0  0  0
 12 11  1  0  0  0
 12 17  1  0  0  0
 11  7  1  0  0  0
  7  8  2  0  0  0
  3  2  1  0  0  0
  9 10  1  0  0  0
 19 22  1  0  0  0
M  END
> <minimizedAffinity>
-7.34767

$$$$
4GIH_0X5_A_1201


 25 27  0  0  0  0  0  0  0  0999 V2000
   -8.1040  -10.1461  -18.2637 C   0  0  0  0  0  0  0  0  0  0  0  0
   -8.9422  -11.2738  -18.3929 C   0  0  0  0  0  0  0  0  0  0  0  0
   -8.6363  -12.2264  -19.3636 C   0  0  0  0  0  0  0  0  0  0  0  0
   -7.5543  -12.0869  -20.1286 N   0  0  0  0  0  0  0  0  0  0  0  0
   -6.7253  -11.0461  -20.0383 C   0  0  0  0  0  0  0  0  0  0  0  0
   -7.0029  -10.0372  -19.1119 C   0  0  0  0  0  0  0  0  0  0  0  0
   -7.5561   -8.6356  -16.3993 C   0  0  0  0  0  0  0  0  0  0  0  0
   -6.4957   -9.1855  -16.0850 O   0  0  0  0  0  0  0  0  0  0  0  0
   -8.3268   -9.0577  -17.4160 N   0  0  0  0  0  0  0  0  0  0  0  0
   -9.1462   -8.5382  -17.5837 H   0  0  0  0  0  0  0  0  0  0  0  0
   -8.0206   -7.4943  -15.5829 C   0  0  0  0  0  0  0  0  0  0  0  0
   -7.7517   -6.1995  -16.0666 C   0  0  0  0  0  0  0  0  0  0  0  0
   -8.2179   -5.0779  -15.3937 C   0  0  0  0  0  0  0  0  0  0  0  0
   -8.7387   -7.6430  -14.3813 C   0  0  0  0  0  0  0  0  0  0  0  0
   -8.9316   -5.2347  -14.2175 C   0  0  0  0  0  0  0  0  0  0  0  0
   -9.1906   -6.5086  -13.7142 C   0  0  0  0  0  0  0  0  0  0  0  0
   -6.7915   -6.0006  -17.4889 Cl  0  0  0  0  0  0  0  0  0  0  0  0
   -9.0379   -9.2007  -13.6729 Cl  0  0  0  0  0  0  0  0  0  0  0  0
   -5.6032  -10.9699  -20.8925 N   0  0  0  0  0  0  0  0  0  0  0  0
   -5.6123  -10.4162  -22.1433 C   0  0  0  0  0  0  0  0  0  0  0  0
   -6.6324   -9.9494  -22.6163 O   0  0  0  0  0  0  0  0  0  0  0  0
   -4.7530  -11.3421  -20.5640 H   0  0  0  0  0  0  0  0  0  0  0  0
   -4.3345  -10.3816  -22.9721 C   0  0  0  0  0  0  0  0  0  0  0  0
   -3.9698  -11.6053  -23.8238 C   0  0  0  0  0  0  0  0  0  0  0  0
   -4.4578  -10.3272  -24.5001 C   0  0  0  0  0  0  0  0  0  0  0  0
 24 25  1  0  0  0
 24 23  1  0  0  0
 25 23  1  0  0  0
 23 20  1  0  0  0
 20 21  2  0  0  0
 20 19  1  0  0  0
 19  5  1  0  0  0
  5  6  2  0  0  0
  5  4  1  0  0  0
  6  1  1  0  0  0
  4  3  2  0  0  0
  9  1  1  0  0  0
  9  7  1  0  0  0
  1  2  2  0  0  0
 15 16  2  0  0  0
 15 13  1  0  0  0
 16 14  1  0  0  0
 13 12  2  0  0  0
 14 18  1  0  0  0
 14 11  2  0  0  0
 12 11  1  0  0  0
 12 17  1  0  0  0
 11  7  1  0  0  0
  7  8  2  0  0  0
  3  2  1  0  0  0
  9 10  1  0  0  0
 19 22  1  0  0  0
M  END
> <minimizedAffinity>
-7.28130

$$$$
4GIH_0X5_A_1201


 25 27  0  0  0  0  0  0  0  0999 V2000
   -7.8723  -11.2744  -19.2818 C   0  0  0  0  0  0  0  0  0  0  0  0
   -8.5921  -12.4511  -19.5793 C   0  0  0  0  0  0  0  0  0  0  0  0
   -8.5412  -12.9553  -20.8779 C   0  0  0  0  0  0  0  0  0  0  0  0
   -7.7996  -12.3535  -21.8070 N   0  0  0  0  0  0  0  0  0  0  0  0
   -7.0933  -11.2466  -21.5736 C   0  0  0  0  0  0  0  0  0  0  0  0
   -7.1381  -10.6701  -20.3012 C   0  0  0  0  0  0  0  0  0  0  0  0
   -8.9367   -9.9357  -17.5118 C   0  0  0  0  0  0  0  0  0  0  0  0
  -10.0517   -9.8732  -18.0397 O   0  0  0  0  0  0  0  0  0  0  0  0
   -7.9000  -10.5877  -18.0650 N   0  0  0  0  0  0  0  0  0  0  0  0
   -7.0598  -10.5808  -17.5519 H   0  0  0  0  0  0  0  0  0  0  0  0
   -8.7239   -9.2136  -16.2398 C   0  0  0  0  0  0  0  0  0  0  0  0
   -9.3545   -9.7266  -15.0900 C   0  0  0  0  0  0  0  0  0  0  0  0
   -9.1458   -9.1467  -13.8458 C   0  0  0  0  0  0  0  0  0  0  0  0
   -7.9039   -8.0754  -16.1230 C   0  0  0  0  0  0  0  0  0  0  0  0
   -8.3297   -8.0330  -13.7396 C   0  0  0  0  0  0  0  0  0  0  0  0
   -7.7126   -7.5005  -14.8705 C   0  0  0  0  0  0  0  0  0  0  0  0
  -10.4373  -11.0650  -15.2342 Cl  0  0  0  0  0  0  0  0  0  0  0  0
   -7.1592   -7.3302  -17.5043 Cl  0  0  0  0  0  0  0  0  0  0  0  0
   -6.3382  -10.6662  -22.6164 N   0  0  0  0  0  0  0  0  0  0  0  0
   -5.0807  -11.0622  -22.9814 C   0  0  0  0  0  0  0  0  0  0  0  0
   -4.5123  -11.9662  -22.3968 O   0  0  0  0  0  0  0  0  0  0  0  0
   -6.7462   -9.9229  -23.1167 H   0  0  0  0  0  0  0  0  0  0  0  0
   -4.3652  -10.3660  -24.1321 C   0  0  0  0  0  0  0  0  0  0  0  0
   -3.0802   -9.5794  -23.8388 C   0  0  0  0  0  0  0  0  0  0  0  0
   -3.0031  -10.9111  -24.5801 C   0  0  0  0  0  0  0  0  0  0  0  0
 24 25  1  0  0  0
 24 23  1  0  0  0
 25 23  1  0  0  0
 23 20  1  0  0  0
 20 21  2  0  0  0
 20 19  1  0  0  0
 19  5  1  0  0  0
  5  6  2  0  0  0
  5  4  1  0  0  0
  6  1  1  0  0  0
  4  3  2  0  0  0
  9  1  1  0  0  0
  9  7  1  0  0  0
  1  2  2  0  0  0
 15 16  2  0  0  0
 15 13  1  0  0  0
 16 14  1  0  0  0
 13 12  2  0  0  0
 14 18  1  0  0  0
 14 11  2  0  0  0
 12 11  1  0  0  0
 12 17  1  0  0  0
 11  7  1  0  0  0
  7  8  2  0  0  0
  3  2  1  0  0  0
  9 10  1  0  0  0
 19 22  1  0  0  0
M  END
> <minimizedAffinity>
-7.19970

$$$$
4GIH_0X5_A_1201


 25 27  0  0  0  0  0  0  0  0999 V2000
   -6.0598   -6.1085  -17.9950 C   0  0  0  0  0  0  0  0  0  0  0  0
   -5.3597   -5.0639  -18.6352 C   0  0  0  0  0  0  0  0  0  0  0  0
   -4.6673   -5.3461  -19.8117 C   0  0  0  0  0  0  0  0  0  0  0  0
   -4.6969   -6.5711  -20.3350 N   0  0  0  0  0  0  0  0  0  0  0  0
   -5.3521   -7.5888  -19.7749 C   0  0  0  0  0  0  0  0  0  0  0  0
   -6.0306   -7.3775  -18.5715 C   0  0  0  0  0  0  0  0  0  0  0  0
   -6.4127   -6.6571  -15.6219 C   0  0  0  0  0  0  0  0  0  0  0  0
   -5.4615   -7.4383  -15.5193 O   0  0  0  0  0  0  0  0  0  0  0  0
   -6.7143   -6.0162  -16.7638 N   0  0  0  0  0  0  0  0  0  0  0  0
   -7.4888   -5.4094  -16.7289 H   0  0  0  0  0  0  0  0  0  0  0  0
   -7.2879   -6.4630  -14.4465 C   0  0  0  0  0  0  0  0  0  0  0  0
   -8.3780   -7.3419  -14.2981 C   0  0  0  0  0  0  0  0  0  0  0  0
   -9.2033   -7.2695  -13.1838 C   0  0  0  0  0  0  0  0  0  0  0  0
   -7.0624   -5.4772  -13.4673 C   0  0  0  0  0  0  0  0  0  0  0  0
   -8.9676   -6.3025  -12.2211 C   0  0  0  0  0  0  0  0  0  0  0  0
   -7.9042   -5.4120  -12.3614 C   0  0  0  0  0  0  0  0  0  0  0  0
   -8.7219   -8.4944  -15.5383 Cl  0  0  0  0  0  0  0  0  0  0  0  0
   -5.7927   -4.3012  -13.6183 Cl  0  0  0  0  0  0  0  0  0  0  0  0
   -5.3274   -8.8597  -20.3904 N   0  0  0  0  0  0  0  0  0  0  0  0
   -6.3352   -9.3721  -21.1604 C   0  0  0  0  0  0  0  0  0  0  0  0
   -7.3579   -8.7418  -21.3575 O   0  0  0  0  0  0  0  0  0  0  0  0
   -4.5271   -9.4170  -20.2555 H   0  0  0  0  0  0  0  0  0  0  0  0
   -6.1922  -10.7551  -21.7830 C   0  0  0  0  0  0  0  0  0  0  0  0
   -5.1475  -10.9666  -22.8875 C   0  0  0  0  0  0  0  0  0  0  0  0
   -4.9141  -11.5542  -21.4985 C   0  0  0  0  0  0  0  0  0  0  0  0
 24 25  1  0  0  0
 24 23  1  0  0  0
 25 23  1  0  0  0
 23 20  1  0  0  0
 20 21  2  0  0  0
 20 19  1  0  0  0
 19  5  1  0  0  0
  5  6  2  0  0  0
  5  4  1  0  0  0
  6  1  1  0  0  0
  4  3  2  0  0  0
  9  1  1  0  0  0
  9  7  1  0  0  0
  1  2  2  0  0  0
 15 16  2  0  0  0
 15 13  1  0  0  0
 16 14  1  0  0  0
 13 12  2  0  0  0
 14 18  1  0  0  0
 14 11  2  0  0  0
 12 11  1  0  0  0
 12 17  1  0  0  0
 11  7  1  0  0  0
  7  8  2  0  0  0
  3  2  1  0  0  0
  9 10  1  0  0  0
 19 22  1  0  0  0
M  END
> <minimizedAffinity>
-7.17878

$$$$
