5UMX_RBF_B_201


 32 34  0  0  0  0  0  0  0  0999 V2000
    7.2551   -3.3716    4.6409 N   0  0  0  0  0  0  0  0  0  0  0  0
    6.4519   -2.2738    4.5431 C   0  0  0  0  0  0  0  0  0  0  0  0
    5.6437   -2.1800    3.5702 O   0  0  0  0  0  0  0  0  0  0  0  0
    6.4968   -1.2666    5.4448 N   0  0  0  0  0  0  0  0  0  0  0  0
    7.3359   -1.2739    6.4934 C   0  0  0  0  0  0  0  0  0  0  0  0
    7.3604   -0.3082    7.3003 O   0  0  0  0  0  0  0  0  0  0  0  0
    8.2357   -2.4504    6.6763 C   0  0  0  0  0  0  0  0  0  0  0  0
    9.1007   -2.5135    7.7183 N   0  0  0  0  0  0  0  0  0  0  0  0
    9.9056   -3.6015    7.8331 C   0  0  0  0  0  0  0  0  0  0  0  0
   10.7675   -3.6328    8.9173 C   0  0  0  0  0  0  0  0  0  0  0  0
   11.6128   -4.7117    9.1077 C   0  0  0  0  0  0  0  0  0  0  0  0
   12.5599   -4.7238   10.2882 C   0  0  0  0  0  0  0  0  0  0  0  0
   11.5976   -5.8191    8.1182 C   0  0  0  0  0  0  0  0  0  0  0  0
   12.5289   -6.9833    8.2848 C   0  0  0  0  0  0  0  0  0  0  0  0
   10.7410   -5.7952    7.0288 C   0  0  0  0  0  0  0  0  0  0  0  0
    9.8708   -4.7217    6.8291 C   0  0  0  0  0  0  0  0  0  0  0  0
    8.9821   -4.6643    5.7180 N   0  0  0  0  0  0  0  0  0  0  0  0
    8.1562   -3.5203    5.6409 C   0  0  0  0  0  0  0  0  0  0  0  0
    5.8914   -0.4990    5.3281 H   0  0  0  0  0  0  0  0  0  0  0  0
    8.8962   -5.7205    4.6571 C   0  0  0  0  0  0  0  0  0  0  0  0
    9.7346   -5.5213    3.3761 C   0  0  0  0  0  0  0  0  0  0  0  0
    9.2210   -4.4332    2.6114 O   0  0  0  0  0  0  0  0  0  0  0  0
    8.3342   -4.6559    2.2875 H   0  0  0  0  0  0  0  0  0  0  0  0
    9.7384   -6.6332    2.3314 C   0  0  0  0  0  0  0  0  0  0  0  0
    9.7932   -7.9205    2.9565 O   0  0  0  0  0  0  0  0  0  0  0  0
   10.6132   -7.9963    3.4691 H   0  0  0  0  0  0  0  0  0  0  0  0
   10.8971   -6.4197    1.3229 C   0  0  0  0  0  0  0  0  0  0  0  0
   11.7728   -5.3375    1.7202 O   0  0  0  0  0  0  0  0  0  0  0  0
   11.2798   -4.5022    1.7098 H   0  0  0  0  0  0  0  0  0  0  0  0
   10.4134   -6.1580   -0.1098 C   0  0  0  0  0  0  0  0  0  0  0  0
   11.0593   -7.0346   -1.0443 O   0  0  0  0  0  0  0  0  0  0  0  0
   12.0172   -6.8836   -1.0204 H   0  0  0  0  0  0  0  0  0  0  0  0
  1  2  1  0  0  0
  1 18  2  0  0  0
  2  3  2  0  0  0
  2  4  1  0  0  0
  4  5  1  0  0  0
  5  6  2  0  0  0
  5  7  1  0  0  0
  7  8  2  0  0  0
  7 18  1  0  0  0
  8  9  1  0  0  0
  9 10  2  0  0  0
  9 16  1  0  0  0
 10 11  1  0  0  0
 11 12  1  0  0  0
 11 13  2  0  0  0
 13 14  1  0  0  0
 13 15  1  0  0  0
 15 16  2  0  0  0
 16 17  1  0  0  0
 17 18  1  0  0  0
 17 20  1  0  0  0
 20 21  1  0  0  0
 21 22  1  0  0  0
 21 24  1  0  0  0
 24 25  1  0  0  0
 24 27  1  0  0  0
 27 28  1  0  0  0
 27 30  1  0  0  0
 30 31  1  0  0  0
  4 19  1  0  0  0
 22 23  1  0  0  0
 25 26  1  0  0  0
 28 29  1  0  0  0
 31 32  1  0  0  0
M  END
> <minimizedAffinity>
-9.24401

$$$$
5UMX_RBF_B_201


 32 34  0  0  0  0  0  0  0  0999 V2000
   11.5657   -7.4853    6.8226 N   0  0  0  0  0  0  0  0  0  0  0  0
   11.8368   -8.6400    6.1495 C   0  0  0  0  0  0  0  0  0  0  0  0
   12.6959   -9.4460    6.6195 O   0  0  0  0  0  0  0  0  0  0  0  0
   11.2289   -8.9524    4.9822 N   0  0  0  0  0  0  0  0  0  0  0  0
   10.3226   -8.1482    4.4031 C   0  0  0  0  0  0  0  0  0  0  0  0
    9.7928   -8.4662    3.3064 O   0  0  0  0  0  0  0  0  0  0  0  0
    9.9617   -6.8729    5.0890 C   0  0  0  0  0  0  0  0  0  0  0  0
    9.0509   -6.0241    4.5524 N   0  0  0  0  0  0  0  0  0  0  0  0
    8.7660   -4.8711    5.2114 C   0  0  0  0  0  0  0  0  0  0  0  0
    7.8223   -4.0361    4.6358 C   0  0  0  0  0  0  0  0  0  0  0  0
    7.4720   -2.8473    5.2514 C   0  0  0  0  0  0  0  0  0  0  0  0
    6.4510   -1.9383    4.6020 C   0  0  0  0  0  0  0  0  0  0  0  0
    8.1428   -2.4722    6.5223 C   0  0  0  0  0  0  0  0  0  0  0  0
    7.8045   -1.1724    7.1907 C   0  0  0  0  0  0  0  0  0  0  0  0
    9.0903   -3.2996    7.1042 C   0  0  0  0  0  0  0  0  0  0  0  0
    9.4450   -4.5097    6.5046 C   0  0  0  0  0  0  0  0  0  0  0  0
   10.4179   -5.3798    7.0738 N   0  0  0  0  0  0  0  0  0  0  0  0
   10.6781   -6.5722    6.3616 C   0  0  0  0  0  0  0  0  0  0  0  0
   11.4596   -9.8015    4.5405 H   0  0  0  0  0  0  0  0  0  0  0  0
   11.1614   -5.0907    8.3435 C   0  0  0  0  0  0  0  0  0  0  0  0
   12.6141   -4.5815    8.2249 C   0  0  0  0  0  0  0  0  0  0  0  0
   13.5286   -5.6737    8.2813 O   0  0  0  0  0  0  0  0  0  0  0  0
   13.4877   -6.0847    9.1590 H   0  0  0  0  0  0  0  0  0  0  0  0
   13.1620   -3.6873    9.3330 C   0  0  0  0  0  0  0  0  0  0  0  0
   14.5254   -4.0139    9.6249 O   0  0  0  0  0  0  0  0  0  0  0  0
   14.5789   -4.9316    9.9347 H   0  0  0  0  0  0  0  0  0  0  0  0
   12.2557   -3.7706   10.5888 C   0  0  0  0  0  0  0  0  0  0  0  0
   12.1502   -2.4977   11.2700 O   0  0  0  0  0  0  0  0  0  0  0  0
   13.0211   -2.2403   11.6111 H   0  0  0  0  0  0  0  0  0  0  0  0
   12.7154   -4.8306   11.5990 C   0  0  0  0  0  0  0  0  0  0  0  0
   13.9486   -4.4500   12.2262 O   0  0  0  0  0  0  0  0  0  0  0  0
   14.6401   -4.3605   11.5519 H   0  0  0  0  0  0  0  0  0  0  0  0
  1  2  1  0  0  0
  1 18  2  0  0  0
  2  3  2  0  0  0
  2  4  1  0  0  0
  4  5  1  0  0  0
  5  6  2  0  0  0
  5  7  1  0  0  0
  7  8  2  0  0  0
  7 18  1  0  0  0
  8  9  1  0  0  0
  9 10  2  0  0  0
  9 16  1  0  0  0
 10 11  1  0  0  0
 11 12  1  0  0  0
 11 13  2  0  0  0
 13 14  1  0  0  0
 13 15  1  0  0  0
 15 16  2  0  0  0
 16 17  1  0  0  0
 17 18  1  0  0  0
 17 20  1  0  0  0
 20 21  1  0  0  0
 21 22  1  0  0  0
 21 24  1  0  0  0
 24 25  1  0  0  0
 24 27  1  0  0  0
 27 28  1  0  0  0
 27 30  1  0  0  0
 30 31  1  0  0  0
  4 19  1  0  0  0
 22 23  1  0  0  0
 25 26  1  0  0  0
 28 29  1  0  0  0
 31 32  1  0  0  0
M  END
> <minimizedAffinity>
-8.71633

$$$$
5UMX_RBF_B_201


 32 34  0  0  0  0  0  0  0  0999 V2000
   11.1501   -6.4470    7.0748 N   0  0  0  0  0  0  0  0  0  0  0  0
   12.0683   -6.7175    8.0462 C   0  0  0  0  0  0  0  0  0  0  0  0
   12.7250   -7.8014    7.9958 O   0  0  0  0  0  0  0  0  0  0  0  0
   12.2952   -5.8724    9.0776 N   0  0  0  0  0  0  0  0  0  0  0  0
   11.6313   -4.7137    9.2203 C   0  0  0  0  0  0  0  0  0  0  0  0
   11.8583   -3.9630   10.2048 O   0  0  0  0  0  0  0  0  0  0  0  0
   10.6210   -4.3408    8.1871 C   0  0  0  0  0  0  0  0  0  0  0  0
    9.9232   -3.1820    8.2780 N   0  0  0  0  0  0  0  0  0  0  0  0
    9.0073   -2.8949    7.3170 C   0  0  0  0  0  0  0  0  0  0  0  0
    8.3233   -1.6965    7.4403 C   0  0  0  0  0  0  0  0  0  0  0  0
    7.3804   -1.3291    6.4964 C   0  0  0  0  0  0  0  0  0  0  0  0
    6.6301   -0.0242    6.6535 C   0  0  0  0  0  0  0  0  0  0  0  0
    7.0978   -2.2516    5.3673 C   0  0  0  0  0  0  0  0  0  0  0  0
    6.0557   -1.8909    4.3501 C   0  0  0  0  0  0  0  0  0  0  0  0
    7.7749   -3.4540    5.2372 C   0  0  0  0  0  0  0  0  0  0  0  0
    8.7400   -3.8338    6.1721 C   0  0  0  0  0  0  0  0  0  0  0  0
    9.4497   -5.0640    6.0701 N   0  0  0  0  0  0  0  0  0  0  0  0
   10.3993   -5.3200    7.0847 C   0  0  0  0  0  0  0  0  0  0  0  0
   12.9728   -6.1158    9.7492 H   0  0  0  0  0  0  0  0  0  0  0  0
    9.2322   -6.0699    4.9795 C   0  0  0  0  0  0  0  0  0  0  0  0
    9.9172   -5.8140    3.6197 C   0  0  0  0  0  0  0  0  0  0  0  0
    8.9436   -5.7327    2.5815 O   0  0  0  0  0  0  0  0  0  0  0  0
    8.5110   -6.5944    2.4757 H   0  0  0  0  0  0  0  0  0  0  0  0
   10.8463   -6.8880    3.0620 C   0  0  0  0  0  0  0  0  0  0  0  0
   11.6315   -7.4755    4.1056 O   0  0  0  0  0  0  0  0  0  0  0  0
   12.1849   -6.7933    4.5170 H   0  0  0  0  0  0  0  0  0  0  0  0
   11.7235   -6.3027    1.9248 C   0  0  0  0  0  0  0  0  0  0  0  0
   11.6124   -4.8619    1.8377 O   0  0  0  0  0  0  0  0  0  0  0  0
   10.7040   -4.6216    1.5969 H   0  0  0  0  0  0  0  0  0  0  0  0
   11.4102   -6.9027    0.5475 C   0  0  0  0  0  0  0  0  0  0  0  0
   10.2788   -6.2577   -0.0549 O   0  0  0  0  0  0  0  0  0  0  0  0
    9.4988   -6.3804    0.5086 H   0  0  0  0  0  0  0  0  0  0  0  0
  1  2  1  0  0  0
  1 18  2  0  0  0
  2  3  2  0  0  0
  2  4  1  0  0  0
  4  5  1  0  0  0
  5  6  2  0  0  0
  5  7  1  0  0  0
  7  8  2  0  0  0
  7 18  1  0  0  0
  8  9  1  0  0  0
  9 10  2  0  0  0
  9 16  1  0  0  0
 10 11  1  0  0  0
 11 12  1  0  0  0
 11 13  2  0  0  0
 13 14  1  0  0  0
 13 15  1  0  0  0
 15 16  2  0  0  0
 16 17  1  0  0  0
 17 18  1  0  0  0
 17 20  1  0  0  0
 20 21  1  0  0  0
 21 22  1  0  0  0
 21 24  1  0  0  0
 24 25  1  0  0  0
 24 27  1  0  0  0
 27 28  1  0  0  0
 27 30  1  0  0  0
 30 31  1  0  0  0
  4 19  1  0  0  0
 22 23  1  0  0  0
 25 26  1  0  0  0
 28 29  1  0  0  0
 31 32  1  0  0  0
M  END
> <minimizedAffinity>
-8.68433

$$$$
5UMX_RBF_B_201


 32 34  0  0  0  0  0  0  0  0999 V2000
   12.1817   -8.3914    3.9312 N   0  0  0  0  0  0  0  0  0  0  0  0
   13.0881   -9.2012    3.3128 C   0  0  0  0  0  0  0  0  0  0  0  0
   12.7085   -9.9406    2.3548 O   0  0  0  0  0  0  0  0  0  0  0  0
   14.3840   -9.2561    3.6966 N   0  0  0  0  0  0  0  0  0  0  0  0
   14.8668   -8.5235    4.7134 C   0  0  0  0  0  0  0  0  0  0  0  0
   16.0755   -8.6169    5.0521 O   0  0  0  0  0  0  0  0  0  0  0  0
   13.9378   -7.6006    5.4292 C   0  0  0  0  0  0  0  0  0  0  0  0
   14.3706   -6.8347    6.4607 N   0  0  0  0  0  0  0  0  0  0  0  0
   13.4821   -6.0194    7.0857 C   0  0  0  0  0  0  0  0  0  0  0  0
   13.9662   -5.2452    8.1276 C   0  0  0  0  0  0  0  0  0  0  0  0
   13.1243   -4.3832    8.8081 C   0  0  0  0  0  0  0  0  0  0  0  0
   13.6645   -3.5558    9.9544 C   0  0  0  0  0  0  0  0  0  0  0  0
   11.6922   -4.3226    8.4194 C   0  0  0  0  0  0  0  0  0  0  0  0
   10.7528   -3.4209    9.1646 C   0  0  0  0  0  0  0  0  0  0  0  0
   11.1981   -5.0955    7.3804 C   0  0  0  0  0  0  0  0  0  0  0  0
   12.0364   -5.9597    6.6732 C   0  0  0  0  0  0  0  0  0  0  0  0
   11.5593   -6.7705    5.6042 N   0  0  0  0  0  0  0  0  0  0  0  0
   12.5175   -7.5971    4.9754 C   0  0  0  0  0  0  0  0  0  0  0  0
   14.9964   -9.8558    3.2123 H   0  0  0  0  0  0  0  0  0  0  0  0
   10.1332   -6.7946    5.1415 C   0  0  0  0  0  0  0  0  0  0  0  0
    9.6674   -5.6698    4.1920 C   0  0  0  0  0  0  0  0  0  0  0  0
    8.3325   -5.2784    4.5041 O   0  0  0  0  0  0  0  0  0  0  0  0
    7.7284   -6.0149    4.3208 H   0  0  0  0  0  0  0  0  0  0  0  0
    9.5370   -5.9837    2.7046 C   0  0  0  0  0  0  0  0  0  0  0  0
    9.8004   -7.3682    2.4503 O   0  0  0  0  0  0  0  0  0  0  0  0
   10.7092   -7.5785    2.7163 H   0  0  0  0  0  0  0  0  0  0  0  0
   10.4549   -5.0486    1.8751 C   0  0  0  0  0  0  0  0  0  0  0  0
   10.3243   -5.2792    0.4519 O   0  0  0  0  0  0  0  0  0  0  0  0
   10.6293   -6.1753    0.2402 H   0  0  0  0  0  0  0  0  0  0  0  0
   11.9374   -5.1606    2.2558 C   0  0  0  0  0  0  0  0  0  0  0  0
   12.5177   -6.3653    1.7352 O   0  0  0  0  0  0  0  0  0  0  0  0
   12.0554   -7.1333    2.1060 H   0  0  0  0  0  0  0  0  0  0  0  0
  1  2  1  0  0  0
  1 18  2  0  0  0
  2  3  2  0  0  0
  2  4  1  0  0  0
  4  5  1  0  0  0
  5  6  2  0  0  0
  5  7  1  0  0  0
  7  8  2  0  0  0
  7 18  1  0  0  0
  8  9  1  0  0  0
  9 10  2  0  0  0
  9 16  1  0  0  0
 10 11  1  0  0  0
 11 12  1  0  0  0
 11 13  2  0  0  0
 13 14  1  0  0  0
 13 15  1  0  0  0
 15 16  2  0  0  0
 16 17  1  0  0  0
 17 18  1  0  0  0
 17 20  1  0  0  0
 20 21  1  0  0  0
 21 22  1  0  0  0
 21 24  1  0  0  0
 24 25  1  0  0  0
 24 27  1  0  0  0
 27 28  1  0  0  0
 27 30  1  0  0  0
 30 31  1  0  0  0
  4 19  1  0  0  0
 22 23  1  0  0  0
 25 26  1  0  0  0
 28 29  1  0  0  0
 31 32  1  0  0  0
M  END
> <minimizedAffinity>
-8.58813

$$$$
5UMX_RBF_B_201


 32 34  0  0  0  0  0  0  0  0999 V2000
    9.6335   -6.4493    3.7481 N   0  0  0  0  0  0  0  0  0  0  0  0
   10.0663   -7.1871    2.6859 C   0  0  0  0  0  0  0  0  0  0  0  0
    9.2560   -7.4635    1.7502 O   0  0  0  0  0  0  0  0  0  0  0  0
   11.3340   -7.6511    2.6006 N   0  0  0  0  0  0  0  0  0  0  0  0
   12.2513   -7.4232    3.5547 C   0  0  0  0  0  0  0  0  0  0  0  0
   13.4160   -7.8884    3.4470 O   0  0  0  0  0  0  0  0  0  0  0  0
   11.8563   -6.6091    4.7414 C   0  0  0  0  0  0  0  0  0  0  0  0
   12.7416   -6.3445    5.7336 N   0  0  0  0  0  0  0  0  0  0  0  0
   12.3284   -5.6079    6.7973 C   0  0  0  0  0  0  0  0  0  0  0  0
   13.2659   -5.3505    7.7843 C   0  0  0  0  0  0  0  0  0  0  0  0
   12.9236   -4.5997    8.8952 C   0  0  0  0  0  0  0  0  0  0  0  0
   13.9545   -4.3406    9.9725 C   0  0  0  0  0  0  0  0  0  0  0  0
   11.5312   -4.0988    9.0218 C   0  0  0  0  0  0  0  0  0  0  0  0
   11.1273   -3.3115   10.2333 C   0  0  0  0  0  0  0  0  0  0  0  0
   10.5857   -4.3537    8.0410 C   0  0  0  0  0  0  0  0  0  0  0  0
   10.9175   -5.0968    6.9064 C   0  0  0  0  0  0  0  0  0  0  0  0
    9.9686   -5.3804    5.8832 N   0  0  0  0  0  0  0  0  0  0  0  0
   10.4413   -6.1415    4.7906 C   0  0  0  0  0  0  0  0  0  0  0  0
   11.5940   -8.1757    1.8092 H   0  0  0  0  0  0  0  0  0  0  0  0
    8.5376   -4.9338    5.9191 C   0  0  0  0  0  0  0  0  0  0  0  0
    8.2283   -3.4803    5.5003 C   0  0  0  0  0  0  0  0  0  0  0  0
    8.2748   -2.6170    6.6339 O   0  0  0  0  0  0  0  0  0  0  0  0
    7.5596   -2.8492    7.2467 H   0  0  0  0  0  0  0  0  0  0  0  0
    6.8405   -3.1633    4.9515 C   0  0  0  0  0  0  0  0  0  0  0  0
    6.6014   -3.8702    3.7293 O   0  0  0  0  0  0  0  0  0  0  0  0
    7.2507   -3.5940    3.0636 H   0  0  0  0  0  0  0  0  0  0  0  0
    6.6638   -1.6311    4.7886 C   0  0  0  0  0  0  0  0  0  0  0  0
    6.1863   -1.0055    6.0036 O   0  0  0  0  0  0  0  0  0  0  0  0
    5.2978   -1.3356    6.2097 H   0  0  0  0  0  0  0  0  0  0  0  0
    5.7233   -1.2483    3.6378 C   0  0  0  0  0  0  0  0  0  0  0  0
    4.5102   -2.0134    3.6821 O   0  0  0  0  0  0  0  0  0  0  0  0
    4.7195   -2.9566    3.5954 H   0  0  0  0  0  0  0  0  0  0  0  0
  1  2  1  0  0  0
  1 18  2  0  0  0
  2  3  2  0  0  0
  2  4  1  0  0  0
  4  5  1  0  0  0
  5  6  2  0  0  0
  5  7  1  0  0  0
  7  8  2  0  0  0
  7 18  1  0  0  0
  8  9  1  0  0  0
  9 10  2  0  0  0
  9 16  1  0  0  0
 10 11  1  0  0  0
 11 12  1  0  0  0
 11 13  2  0  0  0
 13 14  1  0  0  0
 13 15  1  0  0  0
 15 16  2  0  0  0
 16 17  1  0  0  0
 17 18  1  0  0  0
 17 20  1  0  0  0
 20 21  1  0  0  0
 21 22  1  0  0  0
 21 24  1  0  0  0
 24 25  1  0  0  0
 24 27  1  0  0  0
 27 28  1  0  0  0
 27 30  1  0  0  0
 30 31  1  0  0  0
  4 19  1  0  0  0
 22 23  1  0  0  0
 25 26  1  0  0  0
 28 29  1  0  0  0
 31 32  1  0  0  0
M  END
> <minimizedAffinity>
-8.21839

$$$$
5UMX_RBF_B_201


 32 34  0  0  0  0  0  0  0  0999 V2000
    7.5343   -3.4699    4.9802 N   0  0  0  0  0  0  0  0  0  0  0  0
    6.6491   -2.4974    4.6187 C   0  0  0  0  0  0  0  0  0  0  0  0
    5.9456   -2.6543    3.5752 O   0  0  0  0  0  0  0  0  0  0  0  0
    6.5037   -1.3560    5.3299 N   0  0  0  0  0  0  0  0  0  0  0  0
    7.2217   -1.0985    6.4353 C   0  0  0  0  0  0  0  0  0  0  0  0
    7.0702   -0.0157    7.0591 O   0  0  0  0  0  0  0  0  0  0  0  0
    8.2004   -2.1235    6.9028 C   0  0  0  0  0  0  0  0  0  0  0  0
    8.9498   -1.9189    8.0139 N   0  0  0  0  0  0  0  0  0  0  0  0
    9.8338   -2.8788    8.3905 C   0  0  0  0  0  0  0  0  0  0  0  0
   10.5727   -2.6363    9.5371 C   0  0  0  0  0  0  0  0  0  0  0  0
   11.4878   -3.5704    9.9899 C   0  0  0  0  0  0  0  0  0  0  0  0
   12.2987   -3.2840   11.2352 C   0  0  0  0  0  0  0  0  0  0  0  0
   11.6812   -4.8212    9.2128 C   0  0  0  0  0  0  0  0  0  0  0  0
   12.6918   -5.8335    9.6650 C   0  0  0  0  0  0  0  0  0  0  0  0
   10.9488   -5.0712    8.0630 C   0  0  0  0  0  0  0  0  0  0  0  0
   10.0106   -4.1466    7.5998 C   0  0  0  0  0  0  0  0  0  0  0  0
    9.2457   -4.3709    6.4198 N   0  0  0  0  0  0  0  0  0  0  0  0
    8.3317   -3.3522    6.0684 C   0  0  0  0  0  0  0  0  0  0  0  0
    5.8467   -0.6889    5.0258 H   0  0  0  0  0  0  0  0  0  0  0  0
    9.3722   -5.5910    5.5574 C   0  0  0  0  0  0  0  0  0  0  0  0
   10.5662   -5.6594    4.5809 C   0  0  0  0  0  0  0  0  0  0  0  0
   10.1122   -5.9567    3.2625 O   0  0  0  0  0  0  0  0  0  0  0  0
    9.7340   -6.8497    3.2445 H   0  0  0  0  0  0  0  0  0  0  0  0
   11.6068   -6.7566    4.7832 C   0  0  0  0  0  0  0  0  0  0  0  0
   11.1146   -7.7700    5.6672 O   0  0  0  0  0  0  0  0  0  0  0  0
   10.9275   -7.3791    6.5350 H   0  0  0  0  0  0  0  0  0  0  0  0
   12.9440   -6.1451    5.2764 C   0  0  0  0  0  0  0  0  0  0  0  0
   13.8322   -5.8212    4.1801 O   0  0  0  0  0  0  0  0  0  0  0  0
   14.0885   -6.6358    3.7200 H   0  0  0  0  0  0  0  0  0  0  0  0
   13.6948   -7.0470    6.2655 C   0  0  0  0  0  0  0  0  0  0  0  0
   13.9873   -8.3256    5.6834 O   0  0  0  0  0  0  0  0  0  0  0  0
   13.1585   -8.7694    5.4446 H   0  0  0  0  0  0  0  0  0  0  0  0
  1  2  1  0  0  0
  1 18  2  0  0  0
  2  3  2  0  0  0
  2  4  1  0  0  0
  4  5  1  0  0  0
  5  6  2  0  0  0
  5  7  1  0  0  0
  7  8  2  0  0  0
  7 18  1  0  0  0
  8  9  1  0  0  0
  9 10  2  0  0  0
  9 16  1  0  0  0
 10 11  1  0  0  0
 11 12  1  0  0  0
 11 13  2  0  0  0
 13 14  1  0  0  0
 13 15  1  0  0  0
 15 16  2  0  0  0
 16 17  1  0  0  0
 17 18  1  0  0  0
 17 20  1  0  0  0
 20 21  1  0  0  0
 21 22  1  0  0  0
 21 24  1  0  0  0
 24 25  1  0  0  0
 24 27  1  0  0  0
 27 28  1  0  0  0
 27 30  1  0  0  0
 30 31  1  0  0  0
  4 19  1  0  0  0
 22 23  1  0  0  0
 25 26  1  0  0  0
 28 29  1  0  0  0
 31 32  1  0  0  0
M  END
> <minimizedAffinity>
-7.55033

$$$$
5UMX_RBF_B_201


 32 34  0  0  0  0  0  0  0  0999 V2000
   10.5093   -5.9670    3.5729 N   0  0  0  0  0  0  0  0  0  0  0  0
    9.6777   -5.2239    2.7879 C   0  0  0  0  0  0  0  0  0  0  0  0
    8.8339   -4.4507    3.3344 O   0  0  0  0  0  0  0  0  0  0  0  0
    9.7103   -5.2931    1.4374 N   0  0  0  0  0  0  0  0  0  0  0  0
   10.5572   -6.0993    0.7767 C   0  0  0  0  0  0  0  0  0  0  0  0
   10.5437   -6.1489   -0.4810 O   0  0  0  0  0  0  0  0  0  0  0  0
   11.5098   -6.9322    1.5678 C   0  0  0  0  0  0  0  0  0  0  0  0
   12.3894   -7.7616    0.9542 N   0  0  0  0  0  0  0  0  0  0  0  0
   13.2276   -8.5063    1.7207 C   0  0  0  0  0  0  0  0  0  0  0  0
   14.1183   -9.3329    1.0553 C   0  0  0  0  0  0  0  0  0  0  0  0
   15.0102  -10.1163    1.7665 C   0  0  0  0  0  0  0  0  0  0  0  0
   15.9662  -11.0260    1.0256 C   0  0  0  0  0  0  0  0  0  0  0  0
   14.9776  -10.0741    3.2507 C   0  0  0  0  0  0  0  0  0  0  0  0
   15.9117  -10.9397    4.0438 C   0  0  0  0  0  0  0  0  0  0  0  0
   14.0881   -9.2525    3.9252 C   0  0  0  0  0  0  0  0  0  0  0  0
   13.1913   -8.4444    3.2236 C   0  0  0  0  0  0  0  0  0  0  0  0
   12.2617   -7.5931    3.8861 N   0  0  0  0  0  0  0  0  0  0  0  0
   11.4146   -6.8292    3.0522 C   0  0  0  0  0  0  0  0  0  0  0  0
    9.0898   -4.7313    0.9192 H   0  0  0  0  0  0  0  0  0  0  0  0
   12.1379   -7.4852    5.3766 C   0  0  0  0  0  0  0  0  0  0  0  0
   12.8595   -6.3119    6.0739 C   0  0  0  0  0  0  0  0  0  0  0  0
   14.2352   -6.2837    5.7011 O   0  0  0  0  0  0  0  0  0  0  0  0
   14.6787   -7.0765    6.0413 H   0  0  0  0  0  0  0  0  0  0  0  0
   12.9720   -6.3308    7.5953 C   0  0  0  0  0  0  0  0  0  0  0  0
   11.6858   -6.5063    8.2000 O   0  0  0  0  0  0  0  0  0  0  0  0
   11.1104   -5.7641    7.9573 H   0  0  0  0  0  0  0  0  0  0  0  0
   13.6878   -5.0500    8.0976 C   0  0  0  0  0  0  0  0  0  0  0  0
   15.0954   -5.2758    8.3499 O   0  0  0  0  0  0  0  0  0  0  0  0
   15.1959   -5.9141    9.0732 H   0  0  0  0  0  0  0  0  0  0  0  0
   13.0522   -4.4565    9.3622 C   0  0  0  0  0  0  0  0  0  0  0  0
   11.7795   -3.8603    9.0729 O   0  0  0  0  0  0  0  0  0  0  0  0
   11.8973   -3.1414    8.4324 H   0  0  0  0  0  0  0  0  0  0  0  0
  1  2  1  0  0  0
  1 18  2  0  0  0
  2  3  2  0  0  0
  2  4  1  0  0  0
  4  5  1  0  0  0
  5  6  2  0  0  0
  5  7  1  0  0  0
  7  8  2  0  0  0
  7 18  1  0  0  0
  8  9  1  0  0  0
  9 10  2  0  0  0
  9 16  1  0  0  0
 10 11  1  0  0  0
 11 12  1  0  0  0
 11 13  2  0  0  0
 13 14  1  0  0  0
 13 15  1  0  0  0
 15 16  2  0  0  0
 16 17  1  0  0  0
 17 18  1  0  0  0
 17 20  1  0  0  0
 20 21  1  0  0  0
 21 22  1  0  0  0
 21 24  1  0  0  0
 24 25  1  0  0  0
 24 27  1  0  0  0
 27 28  1  0  0  0
 27 30  1  0  0  0
 30 31  1  0  0  0
  4 19  1  0  0  0
 22 23  1  0  0  0
 25 26  1  0  0  0
 28 29  1  0  0  0
 31 32  1  0  0  0
M  END
> <minimizedAffinity>
-7.52188

$$$$
5UMX_RBF_B_201


 32 34  0  0  0  0  0  0  0  0999 V2000
   11.5349   -7.6263    4.5988 N   0  0  0  0  0  0  0  0  0  0  0  0
   10.7462   -7.6729    3.4872 C   0  0  0  0  0  0  0  0  0  0  0  0
   10.9880   -8.5359    2.5898 O   0  0  0  0  0  0  0  0  0  0  0  0
    9.7168   -6.8160    3.2986 N   0  0  0  0  0  0  0  0  0  0  0  0
    9.4029   -5.8589    4.1869 C   0  0  0  0  0  0  0  0  0  0  0  0
    8.4485   -5.0686    3.9658 O   0  0  0  0  0  0  0  0  0  0  0  0
   10.2115   -5.7557    5.4369 C   0  0  0  0  0  0  0  0  0  0  0  0
    9.9380   -4.8112    6.3703 N   0  0  0  0  0  0  0  0  0  0  0  0
   10.7112   -4.7528    7.4855 C   0  0  0  0  0  0  0  0  0  0  0  0
   10.3925   -3.7808    8.4197 C   0  0  0  0  0  0  0  0  0  0  0  0
   11.1283   -3.6637    9.5859 C   0  0  0  0  0  0  0  0  0  0  0  0
   10.7777   -2.5865   10.5894 C   0  0  0  0  0  0  0  0  0  0  0  0
   12.2775   -4.5787    9.8045 C   0  0  0  0  0  0  0  0  0  0  0  0
   13.1110   -4.4488   11.0451 C   0  0  0  0  0  0  0  0  0  0  0  0
   12.6058   -5.5522    8.8742 C   0  0  0  0  0  0  0  0  0  0  0  0
   11.8652   -5.6944    7.6990 C   0  0  0  0  0  0  0  0  0  0  0  0
   12.1792   -6.6807    6.7212 N   0  0  0  0  0  0  0  0  0  0  0  0
   11.3451   -6.7134    5.5810 C   0  0  0  0  0  0  0  0  0  0  0  0
    9.1773   -6.8970    2.4791 H   0  0  0  0  0  0  0  0  0  0  0  0
   13.3229   -7.6434    6.8379 C   0  0  0  0  0  0  0  0  0  0  0  0
   13.0950   -8.9336    7.6547 C   0  0  0  0  0  0  0  0  0  0  0  0
   14.3394   -9.4567    8.1132 O   0  0  0  0  0  0  0  0  0  0  0  0
   14.8697   -9.7426    7.3530 H   0  0  0  0  0  0  0  0  0  0  0  0
   12.5144  -10.1508    6.9411 C   0  0  0  0  0  0  0  0  0  0  0  0
   12.6841  -10.0401    5.5234 O   0  0  0  0  0  0  0  0  0  0  0  0
   12.2105   -9.2573    5.2012 H   0  0  0  0  0  0  0  0  0  0  0  0
   11.0297  -10.3515    7.3415 C   0  0  0  0  0  0  0  0  0  0  0  0
   10.1236   -9.7025    6.4177 O   0  0  0  0  0  0  0  0  0  0  0  0
   10.2603   -8.7428    6.4510 H   0  0  0  0  0  0  0  0  0  0  0  0
   10.7136   -9.8640    8.7621 C   0  0  0  0  0  0  0  0  0  0  0  0
   10.8625  -10.9225    9.7194 O   0  0  0  0  0  0  0  0  0  0  0  0
   10.2461  -11.6404    9.5061 H   0  0  0  0  0  0  0  0  0  0  0  0
  1  2  1  0  0  0
  1 18  2  0  0  0
  2  3  2  0  0  0
  2  4  1  0  0  0
  4  5  1  0  0  0
  5  6  2  0  0  0
  5  7  1  0  0  0
  7  8  2  0  0  0
  7 18  1  0  0  0
  8  9  1  0  0  0
  9 10  2  0  0  0
  9 16  1  0  0  0
 10 11  1  0  0  0
 11 12  1  0  0  0
 11 13  2  0  0  0
 13 14  1  0  0  0
 13 15  1  0  0  0
 15 16  2  0  0  0
 16 17  1  0  0  0
 17 18  1  0  0  0
 17 20  1  0  0  0
 20 21  1  0  0  0
 21 22  1  0  0  0
 21 24  1  0  0  0
 24 25  1  0  0  0
 24 27  1  0  0  0
 27 28  1  0  0  0
 27 30  1  0  0  0
 30 31  1  0  0  0
  4 19  1  0  0  0
 22 23  1  0  0  0
 25 26  1  0  0  0
 28 29  1  0  0  0
 31 32  1  0  0  0
M  END
> <minimizedAffinity>
-7.40917

$$$$
5UMX_RBF_B_201


 32 34  0  0  0  0  0  0  0  0999 V2000
   10.8273   -5.6268    2.9172 N   0  0  0  0  0  0  0  0  0  0  0  0
   10.0860   -5.1067    1.8975 C   0  0  0  0  0  0  0  0  0  0  0  0
    9.2654   -4.1707    2.1407 O   0  0  0  0  0  0  0  0  0  0  0  0
   10.1840   -5.5664    0.6292 N   0  0  0  0  0  0  0  0  0  0  0  0
   11.0114   -6.5672    0.2865 C   0  0  0  0  0  0  0  0  0  0  0  0
   11.0598   -6.9791   -0.9020 O   0  0  0  0  0  0  0  0  0  0  0  0
   11.8674   -7.1769    1.3460 C   0  0  0  0  0  0  0  0  0  0  0  0
   12.7234   -8.1878    1.0572 N   0  0  0  0  0  0  0  0  0  0  0  0
   13.4723   -8.7152    2.0602 C   0  0  0  0  0  0  0  0  0  0  0  0
   14.3423   -9.7389    1.7220 C   0  0  0  0  0  0  0  0  0  0  0  0
   15.1451  -10.3217    2.6867 C   0  0  0  0  0  0  0  0  0  0  0  0
   16.0788  -11.4498    2.3046 C   0  0  0  0  0  0  0  0  0  0  0  0
   15.0385   -9.8491    4.0906 C   0  0  0  0  0  0  0  0  0  0  0  0
   15.8738  -10.4886    5.1601 C   0  0  0  0  0  0  0  0  0  0  0  0
   14.1689   -8.8276    4.4391 C   0  0  0  0  0  0  0  0  0  0  0  0
   13.3622   -8.2181    3.4760 C   0  0  0  0  0  0  0  0  0  0  0  0
   12.4552   -7.1699    3.8019 N   0  0  0  0  0  0  0  0  0  0  0  0
   11.7021   -6.6433    2.7284 C   0  0  0  0  0  0  0  0  0  0  0  0
    9.6277   -5.1516   -0.0692 H   0  0  0  0  0  0  0  0  0  0  0  0
   12.2615   -6.6284    5.1867 C   0  0  0  0  0  0  0  0  0  0  0  0
   11.1890   -7.2953    6.0748 C   0  0  0  0  0  0  0  0  0  0  0  0
   10.8375   -8.5743    5.5523 O   0  0  0  0  0  0  0  0  0  0  0  0
   10.4040   -8.4639    4.6916 H   0  0  0  0  0  0  0  0  0  0  0  0
    9.8167   -6.6358    6.1738 C   0  0  0  0  0  0  0  0  0  0  0  0
    9.0227   -6.9344    5.0201 O   0  0  0  0  0  0  0  0  0  0  0  0
    9.4598   -6.5854    4.2276 H   0  0  0  0  0  0  0  0  0  0  0  0
    9.9688   -5.1096    6.4037 C   0  0  0  0  0  0  0  0  0  0  0  0
   10.3928   -4.8015    7.7532 O   0  0  0  0  0  0  0  0  0  0  0  0
    9.7052   -5.0778    8.3792 H   0  0  0  0  0  0  0  0  0  0  0  0
    8.6884   -4.3201    6.0998 C   0  0  0  0  0  0  0  0  0  0  0  0
    8.3954   -4.3265    4.6951 O   0  0  0  0  0  0  0  0  0  0  0  0
    9.1252   -3.9097    4.2107 H   0  0  0  0  0  0  0  0  0  0  0  0
  1  2  1  0  0  0
  1 18  2  0  0  0
  2  3  2  0  0  0
  2  4  1  0  0  0
  4  5  1  0  0  0
  5  6  2  0  0  0
  5  7  1  0  0  0
  7  8  2  0  0  0
  7 18  1  0  0  0
  8  9  1  0  0  0
  9 10  2  0  0  0
  9 16  1  0  0  0
 10 11  1  0  0  0
 11 12  1  0  0  0
 11 13  2  0  0  0
 13 14  1  0  0  0
 13 15  1  0  0  0
 15 16  2  0  0  0
 16 17  1  0  0  0
 17 18  1  0  0  0
 17 20  1  0  0  0
 20 21  1  0  0  0
 21 22  1  0  0  0
 21 24  1  0  0  0
 24 25  1  0  0  0
 24 27  1  0  0  0
 27 28  1  0  0  0
 27 30  1  0  0  0
 30 31  1  0  0  0
  4 19  1  0  0  0
 22 23  1  0  0  0
 25 26  1  0  0  0
 28 29  1  0  0  0
 31 32  1  0  0  0
M  END
> <minimizedAffinity>
-7.36672

$$$$
5UMX_RBF_B_201


 32 34  0  0  0  0  0  0  0  0999 V2000
    9.8899   -5.8803    4.5038 N   0  0  0  0  0  0  0  0  0  0  0  0
    8.9488   -5.5533    3.5725 C   0  0  0  0  0  0  0  0  0  0  0  0
    8.8892   -6.2134    2.4912 O   0  0  0  0  0  0  0  0  0  0  0  0
    8.0797   -4.5331    3.7550 N   0  0  0  0  0  0  0  0  0  0  0  0
    8.0852   -3.7696    4.8599 C   0  0  0  0  0  0  0  0  0  0  0  0
    7.2717   -2.8172    4.9839 O   0  0  0  0  0  0  0  0  0  0  0  0
    9.0768   -4.0769    5.9320 C   0  0  0  0  0  0  0  0  0  0  0  0
    9.1261   -3.3420    7.0702 N   0  0  0  0  0  0  0  0  0  0  0  0
   10.0548   -3.6563    8.0101 C   0  0  0  0  0  0  0  0  0  0  0  0
   10.0654   -2.8883    9.1631 C   0  0  0  0  0  0  0  0  0  0  0  0
   10.9763   -3.1522   10.1708 C   0  0  0  0  0  0  0  0  0  0  0  0
   10.9858   -2.2942   11.4175 C   0  0  0  0  0  0  0  0  0  0  0  0
   11.9555   -4.2529    9.9831 C   0  0  0  0  0  0  0  0  0  0  0  0
   12.9748   -4.5361   11.0468 C   0  0  0  0  0  0  0  0  0  0  0  0
   11.9546   -5.0247    8.8318 C   0  0  0  0  0  0  0  0  0  0  0  0
   11.0330   -4.7821    7.8113 C   0  0  0  0  0  0  0  0  0  0  0  0
   11.0087   -5.5531    6.6144 N   0  0  0  0  0  0  0  0  0  0  0  0
   10.0219   -5.1994    5.6670 C   0  0  0  0  0  0  0  0  0  0  0  0
    7.4179   -4.3430    3.0513 H   0  0  0  0  0  0  0  0  0  0  0  0
   11.9585   -6.6755    6.3202 C   0  0  0  0  0  0  0  0  0  0  0  0
   11.5422   -8.0993    6.7481 C   0  0  0  0  0  0  0  0  0  0  0  0
   12.6351   -8.7691    7.3721 O   0  0  0  0  0  0  0  0  0  0  0  0
   13.3419   -8.9091    6.7226 H   0  0  0  0  0  0  0  0  0  0  0  0
   11.1693   -9.1034    5.6616 C   0  0  0  0  0  0  0  0  0  0  0  0
   11.5522  -10.4304    6.0400 O   0  0  0  0  0  0  0  0  0  0  0  0
   12.5144  -10.4682    6.1571 H   0  0  0  0  0  0  0  0  0  0  0  0
   11.7847   -8.6788    4.3029 C   0  0  0  0  0  0  0  0  0  0  0  0
   10.7868   -8.5848    3.2583 O   0  0  0  0  0  0  0  0  0  0  0  0
   10.4074   -9.4622    3.0937 H   0  0  0  0  0  0  0  0  0  0  0  0
   12.9061   -9.6123    3.8270 C   0  0  0  0  0  0  0  0  0  0  0  0
   14.0046   -9.6169    4.7501 O   0  0  0  0  0  0  0  0  0  0  0  0
   14.3713   -8.7217    4.8208 H   0  0  0  0  0  0  0  0  0  0  0  0
  1  2  1  0  0  0
  1 18  2  0  0  0
  2  3  2  0  0  0
  2  4  1  0  0  0
  4  5  1  0  0  0
  5  6  2  0  0  0
  5  7  1  0  0  0
  7  8  2  0  0  0
  7 18  1  0  0  0
  8  9  1  0  0  0
  9 10  2  0  0  0
  9 16  1  0  0  0
 10 11  1  0  0  0
 11 12  1  0  0  0
 11 13  2  0  0  0
 13 14  1  0  0  0
 13 15  1  0  0  0
 15 16  2  0  0  0
 16 17  1  0  0  0
 17 18  1  0  0  0
 17 20  1  0  0  0
 20 21  1  0  0  0
 21 22  1  0  0  0
 21 24  1  0  0  0
 24 25  1  0  0  0
 24 27  1  0  0  0
 27 28  1  0  0  0
 27 30  1  0  0  0
 30 31  1  0  0  0
  4 19  1  0  0  0
 22 23  1  0  0  0
 25 26  1  0  0  0
 28 29  1  0  0  0
 31 32  1  0  0  0
M  END
> <minimizedAffinity>
-7.29272

$$$$
