5SZ5_72E_A_303


 19 20  0  0  0  0  0  0  0  0999 V2000
   16.6773    5.1721   14.9928 C   0  0  0  0  0  0  0  0  0  0  0  0
   17.6441    4.2197   15.2686 C   0  0  0  0  0  0  0  0  0  0  0  0
   17.3029    3.0160   15.8586 C   0  0  0  0  0  0  0  0  0  0  0  0
   15.9689    2.7793   16.1846 C   0  0  0  0  0  0  0  0  0  0  0  0
   14.9987    3.7432   15.9243 C   0  0  0  0  0  0  0  0  0  0  0  0
   15.3568    4.9326   15.3182 C   0  0  0  0  0  0  0  0  0  0  0  0
   17.0919    5.3946   11.9176 C   0  0  0  0  0  0  0  0  0  0  0  0
   17.1367    6.5728   12.8955 C   0  0  0  0  0  0  0  0  0  0  0  0
   17.3581    7.8082   12.2965 C   0  0  0  0  0  0  0  0  0  0  0  0
   17.4183    8.9620   13.0570 C   0  0  0  0  0  0  0  0  0  0  0  0
   17.2451    8.8879   14.4260 C   0  0  0  0  0  0  0  0  0  0  0  0
   17.0268    7.6586   15.0338 C   0  0  0  0  0  0  0  0  0  0  0  0
   16.9863    6.4944   14.2847 C   0  0  0  0  0  0  0  0  0  0  0  0
   15.4593    1.2287   16.9133 S   0  0  0  0  0  0  0  0  0  0  0  0
   13.9375    1.2390   16.7636 O   0  0  0  0  0  0  0  0  0  0  0  0
   16.2523    0.1201   16.1411 O   0  0  0  0  0  0  0  0  0  0  0  0
   15.8648    1.2676   18.5066 N   0  0  0  0  0  0  0  0  0  0  0  0
   16.8805    1.2605   18.5992 H   0  0  0  0  0  0  0  0  0  0  0  0
   15.4748    0.4507   18.9767 H   0  0  0  0  0  0  0  0  0  0  0  0
  7  8  1  0  0  0
  9  8  2  0  0  0
  9 10  1  0  0  0
  8 13  1  0  0  0
 10 11  2  0  0  0
 13  1  1  0  0  0
 13 12  2  0  0  0
 11 12  1  0  0  0
  1  2  2  0  0  0
  1  6  1  0  0  0
  2  3  1  0  0  0
  6  5  2  0  0  0
  3  4  2  0  0  0
  5  4  1  0  0  0
  4 14  1  0  0  0
 17 14  1  0  0  0
 16 14  2  0  0  0
 14 15  2  0  0  0
 17 18  1  0  0  0
 17 19  1  0  0  0
M  END
> <minimizedAffinity>
-7.14926

$$$$
5SZ5_72E_A_303


 19 20  0  0  0  0  0  0  0  0999 V2000
   16.8980    4.8944   14.7922 C   0  0  0  0  0  0  0  0  0  0  0  0
   15.5318    4.7246   14.9409 C   0  0  0  0  0  0  0  0  0  0  0  0
   15.0249    3.6318   15.6208 C   0  0  0  0  0  0  0  0  0  0  0  0
   15.9116    2.6935   16.1451 C   0  0  0  0  0  0  0  0  0  0  0  0
   17.2848    2.8536   15.9808 C   0  0  0  0  0  0  0  0  0  0  0  0
   17.7725    3.9614   15.3135 C   0  0  0  0  0  0  0  0  0  0  0  0
   16.4955    7.8047   15.8152 C   0  0  0  0  0  0  0  0  0  0  0  0
   17.3475    7.4113   14.6045 C   0  0  0  0  0  0  0  0  0  0  0  0
   17.9803    8.4785   13.9765 C   0  0  0  0  0  0  0  0  0  0  0  0
   18.7866    8.2716   12.8718 C   0  0  0  0  0  0  0  0  0  0  0  0
   18.9745    6.9888   12.3937 C   0  0  0  0  0  0  0  0  0  0  0  0
   18.3444    5.9169   13.0119 C   0  0  0  0  0  0  0  0  0  0  0  0
   17.5177    6.1150   14.1052 C   0  0  0  0  0  0  0  0  0  0  0  0
   15.3202    1.2807   17.0665 S   0  0  0  0  0  0  0  0  0  0  0  0
   13.8017    1.3452   16.8968 O   0  0  0  0  0  0  0  0  0  0  0  0
   16.0615    0.0416   16.4591 O   0  0  0  0  0  0  0  0  0  0  0  0
   15.7166    1.5118   18.6458 N   0  0  0  0  0  0  0  0  0  0  0  0
   16.7301    1.4676   18.7519 H   0  0  0  0  0  0  0  0  0  0  0  0
   15.2831    0.7849   19.2151 H   0  0  0  0  0  0  0  0  0  0  0  0
  7  8  1  0  0  0
  9  8  2  0  0  0
  9 10  1  0  0  0
  8 13  1  0  0  0
 10 11  2  0  0  0
 13  1  1  0  0  0
 13 12  2  0  0  0
 11 12  1  0  0  0
  1  2  2  0  0  0
  1  6  1  0  0  0
  2  3  1  0  0  0
  6  5  2  0  0  0
  3  4  2  0  0  0
  5  4  1  0  0  0
  4 14  1  0  0  0
 17 14  1  0  0  0
 16 14  2  0  0  0
 14 15  2  0  0  0
 17 18  1  0  0  0
 17 19  1  0  0  0
M  END
> <minimizedAffinity>
-6.97019

$$$$
5SZ5_72E_A_303


 19 20  0  0  0  0  0  0  0  0999 V2000
   17.8339    6.8440   14.6682 C   0  0  0  0  0  0  0  0  0  0  0  0
   16.5635    6.5145   15.1098 C   0  0  0  0  0  0  0  0  0  0  0  0
   16.2058    5.1938   15.3128 C   0  0  0  0  0  0  0  0  0  0  0  0
   17.1417    4.1945   15.0534 C   0  0  0  0  0  0  0  0  0  0  0  0
   18.4135    4.5233   14.5922 C   0  0  0  0  0  0  0  0  0  0  0  0
   18.7575    5.8498   14.4123 C   0  0  0  0  0  0  0  0  0  0  0  0
   16.1884    8.9851   13.1233 C   0  0  0  0  0  0  0  0  0  0  0  0
   17.5312    9.2421   13.8141 C   0  0  0  0  0  0  0  0  0  0  0  0
   17.9791   10.5558   13.7281 C   0  0  0  0  0  0  0  0  0  0  0  0
   19.1752   10.9346   14.3105 C   0  0  0  0  0  0  0  0  0  0  0  0
   19.9279    9.9998   14.9953 C   0  0  0  0  0  0  0  0  0  0  0  0
   19.4908    8.6848   15.0841 C   0  0  0  0  0  0  0  0  0  0  0  0
   18.3057    8.2897   14.4863 C   0  0  0  0  0  0  0  0  0  0  0  0
   16.7527    2.4724   15.3328 S   0  0  0  0  0  0  0  0  0  0  0  0
   15.3526    2.5105   15.9467 O   0  0  0  0  0  0  0  0  0  0  0  0
   16.9102    1.7739   13.9395 O   0  0  0  0  0  0  0  0  0  0  0  0
   17.8289    1.8882   16.4305 N   0  0  0  0  0  0  0  0  0  0  0  0
   18.7601    1.8654   16.0148 H   0  0  0  0  0  0  0  0  0  0  0  0
   17.5560    0.9445   16.7052 H   0  0  0  0  0  0  0  0  0  0  0  0
  7  8  1  0  0  0
  9  8  2  0  0  0
  9 10  1  0  0  0
  8 13  1  0  0  0
 10 11  2  0  0  0
 13  1  1  0  0  0
 13 12  2  0  0  0
 11 12  1  0  0  0
  1  2  2  0  0  0
  1  6  1  0  0  0
  2  3  1  0  0  0
  6  5  2  0  0  0
  3  4  2  0  0  0
  5  4  1  0  0  0
  4 14  1  0  0  0
 17 14  1  0  0  0
 16 14  2  0  0  0
 14 15  2  0  0  0
 17 18  1  0  0  0
 17 19  1  0  0  0
M  END
> <minimizedAffinity>
-6.82681

$$$$
5SZ5_72E_A_303


 19 20  0  0  0  0  0  0  0  0999 V2000
   17.0577    3.3914   14.5391 C   0  0  0  0  0  0  0  0  0  0  0  0
   17.0185    3.0729   13.1920 C   0  0  0  0  0  0  0  0  0  0  0  0
   17.9709    3.5691   12.3201 C   0  0  0  0  0  0  0  0  0  0  0  0
   18.9671    4.4077   12.8161 C   0  0  0  0  0  0  0  0  0  0  0  0
   18.9971    4.7431   14.1669 C   0  0  0  0  0  0  0  0  0  0  0  0
   18.0470    4.2231   15.0254 C   0  0  0  0  0  0  0  0  0  0  0  0
   17.1499    0.4440   15.5307 C   0  0  0  0  0  0  0  0  0  0  0  0
   16.1519    1.5006   16.0144 C   0  0  0  0  0  0  0  0  0  0  0  0
   15.2654    1.0506   16.9868 C   0  0  0  0  0  0  0  0  0  0  0  0
   14.3109    1.8980   17.5199 C   0  0  0  0  0  0  0  0  0  0  0  0
   14.2449    3.2096   17.0898 C   0  0  0  0  0  0  0  0  0  0  0  0
   15.1236    3.6675   16.1169 C   0  0  0  0  0  0  0  0  0  0  0  0
   16.0689    2.8219   15.5606 C   0  0  0  0  0  0  0  0  0  0  0  0
   20.2479    5.0498   11.7473 S   0  0  0  0  0  0  0  0  0  0  0  0
   19.5162    5.3407   10.4364 O   0  0  0  0  0  0  0  0  0  0  0  0
   20.8646    6.2684   12.5146 O   0  0  0  0  0  0  0  0  0  0  0  0
   21.3534    3.8541   11.5173 N   0  0  0  0  0  0  0  0  0  0  0  0
   21.8375    3.6652   12.3950 H   0  0  0  0  0  0  0  0  0  0  0  0
   22.0297    4.1474   10.8123 H   0  0  0  0  0  0  0  0  0  0  0  0
  7  8  1  0  0  0
  9  8  2  0  0  0
  9 10  1  0  0  0
  8 13  1  0  0  0
 10 11  2  0  0  0
 13  1  1  0  0  0
 13 12  2  0  0  0
 11 12  1  0  0  0
  1  2  2  0  0  0
  1  6  1  0  0  0
  2  3  1  0  0  0
  6  5  2  0  0  0
  3  4  2  0  0  0
  5  4  1  0  0  0
  4 14  1  0  0  0
 17 14  1  0  0  0
 16 14  2  0  0  0
 14 15  2  0  0  0
 17 18  1  0  0  0
 17 19  1  0  0  0
M  END
> <minimizedAffinity>
-6.75554

$$$$
5SZ5_72E_A_303


 19 20  0  0  0  0  0  0  0  0999 V2000
   17.4602    3.5695   14.5403 C   0  0  0  0  0  0  0  0  0  0  0  0
   18.4551    4.4704   14.8812 C   0  0  0  0  0  0  0  0  0  0  0  0
   19.2538    5.0436   13.9080 C   0  0  0  0  0  0  0  0  0  0  0  0
   19.0508    4.6905   12.5754 C   0  0  0  0  0  0  0  0  0  0  0  0
   18.0628    3.7713   12.2331 C   0  0  0  0  0  0  0  0  0  0  0  0
   17.2634    3.2229   13.2181 C   0  0  0  0  0  0  0  0  0  0  0  0
   14.9123    5.0224   15.5777 C   0  0  0  0  0  0  0  0  0  0  0  0
   15.3484    3.6139   15.9930 C   0  0  0  0  0  0  0  0  0  0  0  0
   14.4844    2.9840   16.8822 C   0  0  0  0  0  0  0  0  0  0  0  0
   14.7492    1.7058   17.3398 C   0  0  0  0  0  0  0  0  0  0  0  0
   15.8789    1.0428   16.8996 C   0  0  0  0  0  0  0  0  0  0  0  0
   16.7495    1.6645   16.0142 C   0  0  0  0  0  0  0  0  0  0  0  0
   16.5056    2.9522   15.5665 C   0  0  0  0  0  0  0  0  0  0  0  0
   20.0244    5.4252   11.2688 S   0  0  0  0  0  0  0  0  0  0  0  0
   19.6144    6.8983   11.2937 O   0  0  0  0  0  0  0  0  0  0  0  0
   21.5146    5.0857   11.6123 O   0  0  0  0  0  0  0  0  0  0  0  0
   19.5563    4.7385    9.8496 N   0  0  0  0  0  0  0  0  0  0  0  0
   19.8327    3.7567    9.8396 H   0  0  0  0  0  0  0  0  0  0  0  0
   20.0031    5.2254    9.0726 H   0  0  0  0  0  0  0  0  0  0  0  0
  7  8  1  0  0  0
  9  8  2  0  0  0
  9 10  1  0  0  0
  8 13  1  0  0  0
 10 11  2  0  0  0
 13  1  1  0  0  0
 13 12  2  0  0  0
 11 12  1  0  0  0
  1  2  2  0  0  0
  1  6  1  0  0  0
  2  3  1  0  0  0
  6  5  2  0  0  0
  3  4  2  0  0  0
  5  4  1  0  0  0
  4 14  1  0  0  0
 17 14  1  0  0  0
 16 14  2  0  0  0
 14 15  2  0  0  0
 17 18  1  0  0  0
 17 19  1  0  0  0
M  END
> <minimizedAffinity>
-6.44760

$$$$
5SZ5_72E_A_303


 19 20  0  0  0  0  0  0  0  0999 V2000
   16.4843    5.8627   13.6092 C   0  0  0  0  0  0  0  0  0  0  0  0
   17.4965    4.9884   13.2504 C   0  0  0  0  0  0  0  0  0  0  0  0
   17.6085    3.7496   13.8556 C   0  0  0  0  0  0  0  0  0  0  0  0
   16.6924    3.3974   14.8447 C   0  0  0  0  0  0  0  0  0  0  0  0
   15.6852    4.2826   15.2191 C   0  0  0  0  0  0  0  0  0  0  0  0
   15.5792    5.5088   14.5903 C   0  0  0  0  0  0  0  0  0  0  0  0
   17.5197    8.5401   14.8082 C   0  0  0  0  0  0  0  0  0  0  0  0
   16.7774    8.4059   13.4750 C   0  0  0  0  0  0  0  0  0  0  0  0
   16.6088    9.6034   12.7885 C   0  0  0  0  0  0  0  0  0  0  0  0
   15.9601    9.6330   11.5672 C   0  0  0  0  0  0  0  0  0  0  0  0
   15.4842    8.4578   11.0177 C   0  0  0  0  0  0  0  0  0  0  0  0
   15.6447    7.2574   11.6970 C   0  0  0  0  0  0  0  0  0  0  0  0
   16.2734    7.2193   12.9305 C   0  0  0  0  0  0  0  0  0  0  0  0
   16.7611    1.7964   15.6367 S   0  0  0  0  0  0  0  0  0  0  0  0
   17.9814    1.8958   16.5531 O   0  0  0  0  0  0  0  0  0  0  0  0
   15.3630    1.6027   16.3163 O   0  0  0  0  0  0  0  0  0  0  0  0
   17.0297    0.6712   14.4678 N   0  0  0  0  0  0  0  0  0  0  0  0
   16.2125    0.6101   13.8605 H   0  0  0  0  0  0  0  0  0  0  0  0
   17.1994   -0.2361   14.9018 H   0  0  0  0  0  0  0  0  0  0  0  0
  7  8  1  0  0  0
  9  8  2  0  0  0
  9 10  1  0  0  0
  8 13  1  0  0  0
 10 11  2  0  0  0
 13  1  1  0  0  0
 13 12  2  0  0  0
 11 12  1  0  0  0
  1  2  2  0  0  0
  1  6  1  0  0  0
  2  3  1  0  0  0
  6  5  2  0  0  0
  3  4  2  0  0  0
  5  4  1  0  0  0
  4 14  1  0  0  0
 17 14  1  0  0  0
 16 14  2  0  0  0
 14 15  2  0  0  0
 17 18  1  0  0  0
 17 19  1  0  0  0
M  END
> <minimizedAffinity>
-6.44461

$$$$
5SZ5_72E_A_303


 19 20  0  0  0  0  0  0  0  0999 V2000
   18.3485    6.8162   14.5891 C   0  0  0  0  0  0  0  0  0  0  0  0
   19.2428    5.7673   14.4566 C   0  0  0  0  0  0  0  0  0  0  0  0
   18.8453    4.4644   14.6979 C   0  0  0  0  0  0  0  0  0  0  0  0
   17.5303    4.2226   15.0902 C   0  0  0  0  0  0  0  0  0  0  0  0
   16.6351    5.2781   15.2412 C   0  0  0  0  0  0  0  0  0  0  0  0
   17.0465    6.5711   14.9784 C   0  0  0  0  0  0  0  0  0  0  0  0
   17.0084    8.4482   12.3045 C   0  0  0  0  0  0  0  0  0  0  0  0
   18.0734    8.9921   13.2618 C   0  0  0  0  0  0  0  0  0  0  0  0
   18.4020   10.3276   13.0562 C   0  0  0  0  0  0  0  0  0  0  0  0
   19.3459   10.9538   13.8502 C   0  0  0  0  0  0  0  0  0  0  0  0
   19.9608   10.2476   14.8664 C   0  0  0  0  0  0  0  0  0  0  0  0
   19.6419    8.9127   15.0775 C   0  0  0  0  0  0  0  0  0  0  0  0
   18.7144    8.2698   14.2748 C   0  0  0  0  0  0  0  0  0  0  0  0
   16.9460    2.5583   15.3793 S   0  0  0  0  0  0  0  0  0  0  0  0
   17.0150    1.9034   13.9991 O   0  0  0  0  0  0  0  0  0  0  0  0
   17.8720    1.9760   16.5007 O   0  0  0  0  0  0  0  0  0  0  0  0
   15.3807    2.6565   15.8741 N   0  0  0  0  0  0  0  0  0  0  0  0
   15.3420    3.0940   16.7948 H   0  0  0  0  0  0  0  0  0  0  0  0
   14.9811    1.7195   15.9259 H   0  0  0  0  0  0  0  0  0  0  0  0
  7  8  1  0  0  0
  9  8  2  0  0  0
  9 10  1  0  0  0
  8 13  1  0  0  0
 10 11  2  0  0  0
 13  1  1  0  0  0
 13 12  2  0  0  0
 11 12  1  0  0  0
  1  2  2  0  0  0
  1  6  1  0  0  0
  2  3  1  0  0  0
  6  5  2  0  0  0
  3  4  2  0  0  0
  5  4  1  0  0  0
  4 14  1  0  0  0
 17 14  1  0  0  0
 16 14  2  0  0  0
 14 15  2  0  0  0
 17 18  1  0  0  0
 17 19  1  0  0  0
M  END
> <minimizedAffinity>
-6.09865

$$$$
5SZ5_72E_A_303


 19 20  0  0  0  0  0  0  0  0999 V2000
   15.9168    4.5427   15.0385 C   0  0  0  0  0  0  0  0  0  0  0  0
   16.5076    4.4946   13.7870 C   0  0  0  0  0  0  0  0  0  0  0  0
   16.8155    5.6581   13.1052 C   0  0  0  0  0  0  0  0  0  0  0  0
   16.5100    6.8843   13.6923 C   0  0  0  0  0  0  0  0  0  0  0  0
   15.8997    6.9339   14.9426 C   0  0  0  0  0  0  0  0  0  0  0  0
   15.6159    5.7606   15.6157 C   0  0  0  0  0  0  0  0  0  0  0  0
   18.1290    2.6435   16.1239 C   0  0  0  0  0  0  0  0  0  0  0  0
   16.6270    2.4703   16.3699 C   0  0  0  0  0  0  0  0  0  0  0  0
   16.2976    1.3782   17.1654 C   0  0  0  0  0  0  0  0  0  0  0  0
   14.9782    1.1014   17.4750 C   0  0  0  0  0  0  0  0  0  0  0  0
   13.9770    1.9258   16.9981 C   0  0  0  0  0  0  0  0  0  0  0  0
   14.2955    3.0169   16.2004 C   0  0  0  0  0  0  0  0  0  0  0  0
   15.6113    3.2908   15.8661 C   0  0  0  0  0  0  0  0  0  0  0  0
   16.9178    8.4227   12.8787 S   0  0  0  0  0  0  0  0  0  0  0  0
   18.2372    8.1197   12.1674 O   0  0  0  0  0  0  0  0  0  0  0  0
   15.6789    8.7671   11.9840 O   0  0  0  0  0  0  0  0  0  0  0  0
   17.1590    9.5568   14.0451 N   0  0  0  0  0  0  0  0  0  0  0  0
   16.2756    9.7541   14.5153 H   0  0  0  0  0  0  0  0  0  0  0  0
   17.5159   10.4121   13.6191 H   0  0  0  0  0  0  0  0  0  0  0  0
  7  8  1  0  0  0
  9  8  2  0  0  0
  9 10  1  0  0  0
  8 13  1  0  0  0
 10 11  2  0  0  0
 13  1  1  0  0  0
 13 12  2  0  0  0
 11 12  1  0  0  0
  1  2  2  0  0  0
  1  6  1  0  0  0
  2  3  1  0  0  0
  6  5  2  0  0  0
  3  4  2  0  0  0
  5  4  1  0  0  0
  4 14  1  0  0  0
 17 14  1  0  0  0
 16 14  2  0  0  0
 14 15  2  0  0  0
 17 18  1  0  0  0
 17 19  1  0  0  0
M  END
> <minimizedAffinity>
-5.76988

$$$$
5SZ5_72E_A_303


 19 20  0  0  0  0  0  0  0  0999 V2000
   16.8070    6.3223   14.3770 C   0  0  0  0  0  0  0  0  0  0  0  0
   16.8747    6.5250   13.0088 C   0  0  0  0  0  0  0  0  0  0  0  0
   17.1582    7.7767   12.4925 C   0  0  0  0  0  0  0  0  0  0  0  0
   17.3629    8.8380   13.3720 C   0  0  0  0  0  0  0  0  0  0  0  0
   17.2773    8.6394   14.7473 C   0  0  0  0  0  0  0  0  0  0  0  0
   17.0104    7.3776   15.2441 C   0  0  0  0  0  0  0  0  0  0  0  0
   19.1007    4.3499   15.1029 C   0  0  0  0  0  0  0  0  0  0  0  0
   17.6115    4.0924   15.3527 C   0  0  0  0  0  0  0  0  0  0  0  0
   17.3349    2.8802   15.9755 C   0  0  0  0  0  0  0  0  0  0  0  0
   16.0328    2.5164   16.2679 C   0  0  0  0  0  0  0  0  0  0  0  0
   14.9960    3.3722   15.9480 C   0  0  0  0  0  0  0  0  0  0  0  0
   15.2617    4.5835   15.3231 C   0  0  0  0  0  0  0  0  0  0  0  0
   16.5597    4.9481   15.0060 C   0  0  0  0  0  0  0  0  0  0  0  0
   17.7704   10.4701   12.7678 S   0  0  0  0  0  0  0  0  0  0  0  0
   16.8103   10.6743   11.5951 O   0  0  0  0  0  0  0  0  0  0  0  0
   17.6170   11.4254   13.9998 O   0  0  0  0  0  0  0  0  0  0  0  0
   19.3207   10.4283   12.2206 N   0  0  0  0  0  0  0  0  0  0  0  0
   19.9554   10.2920   13.0074 H   0  0  0  0  0  0  0  0  0  0  0  0
   19.5407   11.3087   11.7549 H   0  0  0  0  0  0  0  0  0  0  0  0
  7  8  1  0  0  0
  9  8  2  0  0  0
  9 10  1  0  0  0
  8 13  1  0  0  0
 10 11  2  0  0  0
 13  1  1  0  0  0
 13 12  2  0  0  0
 11 12  1  0  0  0
  1  2  2  0  0  0
  1  6  1  0  0  0
  2  3  1  0  0  0
  6  5  2  0  0  0
  3  4  2  0  0  0
  5  4  1  0  0  0
  4 14  1  0  0  0
 17 14  1  0  0  0
 16 14  2  0  0  0
 14 15  2  0  0  0
 17 18  1  0  0  0
 17 19  1  0  0  0
M  END
> <minimizedAffinity>
-5.73835

$$$$
5SZ5_72E_A_303


 19 20  0  0  0  0  0  0  0  0999 V2000
   18.3822    7.9785   14.4282 C   0  0  0  0  0  0  0  0  0  0  0  0
   17.2563    7.7271   15.1943 C   0  0  0  0  0  0  0  0  0  0  0  0
   16.6382    6.4901   15.1583 C   0  0  0  0  0  0  0  0  0  0  0  0
   17.1590    5.5003   14.3271 C   0  0  0  0  0  0  0  0  0  0  0  0
   18.2802    5.7575   13.5429 C   0  0  0  0  0  0  0  0  0  0  0  0
   18.8941    6.9942   13.6060 C   0  0  0  0  0  0  0  0  0  0  0  0
   17.3593   10.5725   13.0487 C   0  0  0  0  0  0  0  0  0  0  0  0
   18.6463   10.4672   13.8727 C   0  0  0  0  0  0  0  0  0  0  0  0
   19.3492   11.6608   13.9950 C   0  0  0  0  0  0  0  0  0  0  0  0
   20.5284   11.7162   14.7159 C   0  0  0  0  0  0  0  0  0  0  0  0
   21.0074   10.5754   15.3312 C   0  0  0  0  0  0  0  0  0  0  0  0
   20.3144    9.3779   15.2123 C   0  0  0  0  0  0  0  0  0  0  0  0
   19.1443    9.3061   14.4749 C   0  0  0  0  0  0  0  0  0  0  0  0
   16.4285    3.8702   14.2655 S   0  0  0  0  0  0  0  0  0  0  0  0
   17.3459    3.0264   15.1515 O   0  0  0  0  0  0  0  0  0  0  0  0
   14.9451    4.0557   14.7337 O   0  0  0  0  0  0  0  0  0  0  0  0
   16.5132    3.3425   12.7102 N   0  0  0  0  0  0  0  0  0  0  0  0
   15.8993    3.9092   12.1250 H   0  0  0  0  0  0  0  0  0  0  0  0
   16.2197    2.3667   12.6657 H   0  0  0  0  0  0  0  0  0  0  0  0
  7  8  1  0  0  0
  9  8  2  0  0  0
  9 10  1  0  0  0
  8 13  1  0  0  0
 10 11  2  0  0  0
 13  1  1  0  0  0
 13 12  2  0  0  0
 11 12  1  0  0  0
  1  2  2  0  0  0
  1  6  1  0  0  0
  2  3  1  0  0  0
  6  5  2  0  0  0
  3  4  2  0  0  0
  5  4  1  0  0  0
  4 14  1  0  0  0
 17 14  1  0  0  0
 16 14  2  0  0  0
 14 15  2  0  0  0
 17 18  1  0  0  0
 17 19  1  0  0  0
M  END
> <minimizedAffinity>
-5.61112

$$$$
