5NEE_8V5_A_302


 24 26  0  0  0  0  0  0  0  0999 V2000
   -4.4972    4.7114   13.0002 C   0  0  0  0  0  0  0  0  0  0  0  0
   -4.1379    5.9816   12.7308 C   0  0  0  0  0  0  0  0  0  0  0  0
   -3.5940    6.0703   11.4678 N   0  0  0  0  0  0  0  0  0  0  0  0
   -3.6376    4.8434   11.0067 C   0  0  0  0  0  0  0  0  0  0  0  0
   -4.1822    3.9632   11.8784 O   0  0  0  0  0  0  0  0  0  0  0  0
   -3.0690    4.3541    9.7021 C   0  0  0  0  0  0  0  0  0  0  0  0
   -3.7553    4.4192    8.6814 O   0  0  0  0  0  0  0  0  0  0  0  0
   -1.8485    3.8171    9.7078 N   0  0  0  0  0  0  0  0  0  0  0  0
   -0.7693    4.5881   10.0003 C   0  0  0  0  0  0  0  0  0  0  0  0
   -0.0390    4.1731   11.2784 C   0  0  0  0  0  0  0  0  0  0  0  0
   -0.7950    3.2075   12.0125 O   0  0  0  0  0  0  0  0  0  0  0  0
   -1.2077    2.0245   11.2009 C   0  0  0  0  0  0  0  0  0  0  0  0
   -1.6842    2.3933    9.8172 C   0  0  0  0  0  0  0  0  0  0  0  0
   -5.8548    2.4171   15.8739 C   0  0  0  0  0  0  0  0  0  0  0  0
   -4.6384    2.3956   14.6532 S   0  0  0  0  0  0  0  0  0  0  0  0
   -5.0944    3.9834   14.1021 C   0  0  0  0  0  0  0  0  0  0  0  0
   -6.1397    4.4751   14.8626 C   0  0  0  0  0  0  0  0  0  0  0  0
   -6.5708    3.5901   15.8665 C   0  0  0  0  0  0  0  0  0  0  0  0
   -6.1309    1.0259   16.9182 S   0  0  0  0  0  0  0  0  0  0  0  0
   -7.5244    0.7111   16.8642 O   0  0  0  0  0  0  0  0  0  0  0  0
   -5.5131    1.3464   18.1671 O   0  0  0  0  0  0  0  0  0  0  0  0
   -5.3280   -0.1783   16.2757 N   0  0  0  0  0  0  0  0  0  0  0  0
   -5.7487   -0.4284   15.3807 H   0  0  0  0  0  0  0  0  0  0  0  0
   -5.3606   -0.9819   16.9030 H   0  0  0  0  0  0  0  0  0  0  0  0
 13 12  1  0  0  0
 13  8  1  0  0  0
 12 11  1  0  0  0
  8  6  1  0  0  0
  8  9  1  0  0  0
 11 10  1  0  0  0
  7  6  2  0  0  0
  6  4  1  0  0  0
 10  9  1  0  0  0
  4  3  2  0  0  0
  4  5  1  0  0  0
  3  2  1  0  0  0
  5  1  1  0  0  0
  2  1  2  0  0  0
  1 16  1  0  0  0
 16 17  2  0  0  0
 16 15  1  0  0  0
 17 18  1  0  0  0
 15 14  1  0  0  0
 18 14  2  0  0  0
 14 19  1  0  0  0
 22 19  1  0  0  0
 20 19  2  0  0  0
 19 21  2  0  0  0
 22 23  1  0  0  0
 22 24  1  0  0  0
M  END
> <minimizedAffinity>
-7.63335

$$$$
5NEE_8V5_A_302


 24 26  0  0  0  0  0  0  0  0999 V2000
   -3.4729    1.7984   12.3599 C   0  0  0  0  0  0  0  0  0  0  0  0
   -3.3902    0.9937   11.2825 C   0  0  0  0  0  0  0  0  0  0  0  0
   -2.3954    1.4273   10.4332 N   0  0  0  0  0  0  0  0  0  0  0  0
   -1.9029    2.4901   11.0231 C   0  0  0  0  0  0  0  0  0  0  0  0
   -2.5013    2.7726   12.2035 O   0  0  0  0  0  0  0  0  0  0  0  0
   -0.8566    3.4196   10.4702 C   0  0  0  0  0  0  0  0  0  0  0  0
    0.3343    3.1276   10.5877 O   0  0  0  0  0  0  0  0  0  0  0  0
   -1.2590    4.5611    9.9108 N   0  0  0  0  0  0  0  0  0  0  0  0
   -1.9823    4.5356    8.7615 C   0  0  0  0  0  0  0  0  0  0  0  0
   -3.3999    5.0904    8.9088 C   0  0  0  0  0  0  0  0  0  0  0  0
   -3.7314    5.2969   10.2837 O   0  0  0  0  0  0  0  0  0  0  0  0
   -2.7330    6.1231   11.0247 C   0  0  0  0  0  0  0  0  0  0  0  0
   -1.3052    5.7708   10.6860 C   0  0  0  0  0  0  0  0  0  0  0  0
   -5.5374    1.6326   15.6878 C   0  0  0  0  0  0  0  0  0  0  0  0
   -4.4676    0.6440   14.7667 S   0  0  0  0  0  0  0  0  0  0  0  0
   -4.2748    1.8885   13.5640 C   0  0  0  0  0  0  0  0  0  0  0  0
   -5.0157    3.0057   13.9041 C   0  0  0  0  0  0  0  0  0  0  0  0
   -5.7303    2.8628   15.1065 C   0  0  0  0  0  0  0  0  0  0  0  0
   -6.3090    1.0317   17.1527 S   0  0  0  0  0  0  0  0  0  0  0  0
   -5.5517   -0.0893   17.6149 O   0  0  0  0  0  0  0  0  0  0  0  0
   -7.6940    0.8817   16.8312 O   0  0  0  0  0  0  0  0  0  0  0  0
   -6.1838    2.1882   18.2273 N   0  0  0  0  0  0  0  0  0  0  0  0
   -5.2029    2.3169   18.4755 H   0  0  0  0  0  0  0  0  0  0  0  0
   -6.7154    1.9368   19.0607 H   0  0  0  0  0  0  0  0  0  0  0  0
 13 12  1  0  0  0
 13  8  1  0  0  0
 12 11  1  0  0  0
  8  6  1  0  0  0
  8  9  1  0  0  0
 11 10  1  0  0  0
  7  6  2  0  0  0
  6  4  1  0  0  0
 10  9  1  0  0  0
  4  3  2  0  0  0
  4  5  1  0  0  0
  3  2  1  0  0  0
  5  1  1  0  0  0
  2  1  2  0  0  0
  1 16  1  0  0  0
 16 17  2  0  0  0
 16 15  1  0  0  0
 17 18  1  0  0  0
 15 14  1  0  0  0
 18 14  2  0  0  0
 14 19  1  0  0  0
 22 19  1  0  0  0
 20 19  2  0  0  0
 19 21  2  0  0  0
 22 23  1  0  0  0
 22 24  1  0  0  0
M  END
> <minimizedAffinity>
-7.41623

$$$$
5NEE_8V5_A_302


 24 26  0  0  0  0  0  0  0  0999 V2000
   -3.4549    2.0780   12.1761 C   0  0  0  0  0  0  0  0  0  0  0  0
   -2.8431    1.1818   11.3775 C   0  0  0  0  0  0  0  0  0  0  0  0
   -2.2708    1.8139   10.2949 N   0  0  0  0  0  0  0  0  0  0  0  0
   -2.5563    3.0820   10.4689 C   0  0  0  0  0  0  0  0  0  0  0  0
   -3.2662    3.3210   11.5959 O   0  0  0  0  0  0  0  0  0  0  0  0
   -2.2598    4.2078    9.5153 C   0  0  0  0  0  0  0  0  0  0  0  0
   -3.0486    4.4485    8.6004 O   0  0  0  0  0  0  0  0  0  0  0  0
   -1.1178    4.8791    9.6674 N   0  0  0  0  0  0  0  0  0  0  0  0
   -0.9190    5.6374   10.7765 C   0  0  0  0  0  0  0  0  0  0  0  0
    0.2303    5.1523   11.6613 C   0  0  0  0  0  0  0  0  0  0  0  0
    0.6921    3.8653   11.2453 O   0  0  0  0  0  0  0  0  0  0  0  0
    1.0396    3.7917    9.7954 C   0  0  0  0  0  0  0  0  0  0  0  0
    0.0472    4.5072    8.9119 C   0  0  0  0  0  0  0  0  0  0  0  0
   -5.3657    1.6314   15.5694 C   0  0  0  0  0  0  0  0  0  0  0  0
   -4.2718    0.7575   14.5644 S   0  0  0  0  0  0  0  0  0  0  0  0
   -4.2109    2.0623   13.4127 C   0  0  0  0  0  0  0  0  0  0  0  0
   -5.0092    3.1113   13.8311 C   0  0  0  0  0  0  0  0  0  0  0  0
   -5.6629    2.8693   15.0522 C   0  0  0  0  0  0  0  0  0  0  0  0
   -6.0352    0.9179   17.0340 S   0  0  0  0  0  0  0  0  0  0  0  0
   -5.6291    1.7297   18.1384 O   0  0  0  0  0  0  0  0  0  0  0  0
   -5.6823   -0.4670   16.9903 O   0  0  0  0  0  0  0  0  0  0  0  0
   -7.6096    1.0209   16.8988 N   0  0  0  0  0  0  0  0  0  0  0  0
   -7.8899    2.0012   16.9270 H   0  0  0  0  0  0  0  0  0  0  0  0
   -8.0506    0.5189   17.6694 H   0  0  0  0  0  0  0  0  0  0  0  0
 13 12  1  0  0  0
 13  8  1  0  0  0
 12 11  1  0  0  0
  8  6  1  0  0  0
  8  9  1  0  0  0
 11 10  1  0  0  0
  7  6  2  0  0  0
  6  4  1  0  0  0
 10  9  1  0  0  0
  4  3  2  0  0  0
  4  5  1  0  0  0
  3  2  1  0  0  0
  5  1  1  0  0  0
  2  1  2  0  0  0
  1 16  1  0  0  0
 16 17  2  0  0  0
 16 15  1  0  0  0
 17 18  1  0  0  0
 15 14  1  0  0  0
 18 14  2  0  0  0
 14 19  1  0  0  0
 22 19  1  0  0  0
 20 19  2  0  0  0
 19 21  2  0  0  0
 22 23  1  0  0  0
 22 24  1  0  0  0
M  END
> <minimizedAffinity>
-7.34923

$$$$
5NEE_8V5_A_302


 24 26  0  0  0  0  0  0  0  0999 V2000
   -3.8497    4.8375   13.4145 C   0  0  0  0  0  0  0  0  0  0  0  0
   -3.9883    5.9673   12.6939 C   0  0  0  0  0  0  0  0  0  0  0  0
   -2.8459    6.2161   11.9646 N   0  0  0  0  0  0  0  0  0  0  0  0
   -2.0425    5.2250   12.2682 C   0  0  0  0  0  0  0  0  0  0  0  0
   -2.5869    4.3419   13.1371 O   0  0  0  0  0  0  0  0  0  0  0  0
   -0.6124    5.0621   11.8291 C   0  0  0  0  0  0  0  0  0  0  0  0
    0.2559    5.7872   12.3164 O   0  0  0  0  0  0  0  0  0  0  0  0
   -0.3417    4.1628   10.8826 N   0  0  0  0  0  0  0  0  0  0  0  0
   -0.5167    2.8396   11.1338 C   0  0  0  0  0  0  0  0  0  0  0  0
   -1.5913    2.1809   10.2675 C   0  0  0  0  0  0  0  0  0  0  0  0
   -2.3415    3.1599    9.5453 O   0  0  0  0  0  0  0  0  0  0  0  0
   -1.4952    4.1036    8.7567 C   0  0  0  0  0  0  0  0  0  0  0  0
   -0.2669    4.5625    9.5038 C   0  0  0  0  0  0  0  0  0  0  0  0
   -5.6937    2.4460   15.9136 C   0  0  0  0  0  0  0  0  0  0  0  0
   -4.1977    2.5406   15.0632 S   0  0  0  0  0  0  0  0  0  0  0  0
   -4.6455    4.0631   14.3462 C   0  0  0  0  0  0  0  0  0  0  0  0
   -5.9009    4.4487   14.7799 C   0  0  0  0  0  0  0  0  0  0  0  0
   -6.4953    3.5349   15.6678 C   0  0  0  0  0  0  0  0  0  0  0  0
   -6.0998    1.0461   16.9024 S   0  0  0  0  0  0  0  0  0  0  0  0
   -7.5046    0.8149   16.7731 O   0  0  0  0  0  0  0  0  0  0  0  0
   -5.5267    1.2967   18.1880 O   0  0  0  0  0  0  0  0  0  0  0  0
   -5.3365   -0.1856   16.2637 N   0  0  0  0  0  0  0  0  0  0  0  0
   -5.7263   -0.3868   15.3429 H   0  0  0  0  0  0  0  0  0  0  0  0
   -5.4456   -1.0022   16.8650 H   0  0  0  0  0  0  0  0  0  0  0  0
 13 12  1  0  0  0
 13  8  1  0  0  0
 12 11  1  0  0  0
  8  6  1  0  0  0
  8  9  1  0  0  0
 11 10  1  0  0  0
  7  6  2  0  0  0
  6  4  1  0  0  0
 10  9  1  0  0  0
  4  3  2  0  0  0
  4  5  1  0  0  0
  3  2  1  0  0  0
  5  1  1  0  0  0
  2  1  2  0  0  0
  1 16  1  0  0  0
 16 17  2  0  0  0
 16 15  1  0  0  0
 17 18  1  0  0  0
 15 14  1  0  0  0
 18 14  2  0  0  0
 14 19  1  0  0  0
 22 19  1  0  0  0
 20 19  2  0  0  0
 19 21  2  0  0  0
 22 23  1  0  0  0
 22 24  1  0  0  0
M  END
> <minimizedAffinity>
-7.25141

$$$$
5NEE_8V5_A_302


 24 26  0  0  0  0  0  0  0  0999 V2000
   -4.3494    5.0074   13.3878 C   0  0  0  0  0  0  0  0  0  0  0  0
   -3.7047    6.1903   13.3715 C   0  0  0  0  0  0  0  0  0  0  0  0
   -3.8956    6.8257   12.1637 N   0  0  0  0  0  0  0  0  0  0  0  0
   -4.6530    6.0032   11.4783 C   0  0  0  0  0  0  0  0  0  0  0  0
   -4.9775    4.8804   12.1603 O   0  0  0  0  0  0  0  0  0  0  0  0
   -5.0769    6.1588   10.0428 C   0  0  0  0  0  0  0  0  0  0  0  0
   -6.2749    6.1203    9.7587 O   0  0  0  0  0  0  0  0  0  0  0  0
   -4.1277    6.2849    9.1149 N   0  0  0  0  0  0  0  0  0  0  0  0
   -3.3343    7.3872    9.1012 C   0  0  0  0  0  0  0  0  0  0  0  0
   -1.8570    7.0910    9.3635 C   0  0  0  0  0  0  0  0  0  0  0  0
   -1.6722    5.7427    9.8004 O   0  0  0  0  0  0  0  0  0  0  0  0
   -2.2888    4.7282    8.8952 C   0  0  0  0  0  0  0  0  0  0  0  0
   -3.6562    5.1306    8.3996 C   0  0  0  0  0  0  0  0  0  0  0  0
   -5.2646    2.1574   15.9186 C   0  0  0  0  0  0  0  0  0  0  0  0
   -6.0433    3.4147   15.0337 S   0  0  0  0  0  0  0  0  0  0  0  0
   -4.5363    3.9080   14.3138 C   0  0  0  0  0  0  0  0  0  0  0  0
   -3.5037    3.1029   14.7591 C   0  0  0  0  0  0  0  0  0  0  0  0
   -3.9144    2.1109   15.6669 C   0  0  0  0  0  0  0  0  0  0  0  0
   -6.1566    1.1436   17.0495 S   0  0  0  0  0  0  0  0  0  0  0  0
   -7.5387    1.2011   16.6886 O   0  0  0  0  0  0  0  0  0  0  0  0
   -5.7357    1.5500   18.3540 O   0  0  0  0  0  0  0  0  0  0  0  0
   -5.6471   -0.3374   16.8157 N   0  0  0  0  0  0  0  0  0  0  0  0
   -5.9345   -0.6536   15.8895 H   0  0  0  0  0  0  0  0  0  0  0  0
   -6.0490   -0.9511   17.5244 H   0  0  0  0  0  0  0  0  0  0  0  0
 13 12  1  0  0  0
 13  8  1  0  0  0
 12 11  1  0  0  0
  8  6  1  0  0  0
  8  9  1  0  0  0
 11 10  1  0  0  0
  7  6  2  0  0  0
  6  4  1  0  0  0
 10  9  1  0  0  0
  4  3  2  0  0  0
  4  5  1  0  0  0
  3  2  1  0  0  0
  5  1  1  0  0  0
  2  1  2  0  0  0
  1 16  1  0  0  0
 16 17  2  0  0  0
 16 15  1  0  0  0
 17 18  1  0  0  0
 15 14  1  0  0  0
 18 14  2  0  0  0
 14 19  1  0  0  0
 22 19  1  0  0  0
 20 19  2  0  0  0
 19 21  2  0  0  0
 22 23  1  0  0  0
 22 24  1  0  0  0
M  END
> <minimizedAffinity>
-6.92339

$$$$
5NEE_8V5_A_302


 24 26  0  0  0  0  0  0  0  0999 V2000
   -4.0904    4.6227   12.8100 C   0  0  0  0  0  0  0  0  0  0  0  0
   -3.2499    4.3160   11.8027 C   0  0  0  0  0  0  0  0  0  0  0  0
   -2.9558    5.4404   11.0622 N   0  0  0  0  0  0  0  0  0  0  0  0
   -3.6326    6.4010   11.6445 C   0  0  0  0  0  0  0  0  0  0  0  0
   -4.3392    5.9818   12.7198 O   0  0  0  0  0  0  0  0  0  0  0  0
   -3.7553    7.8252   11.1740 C   0  0  0  0  0  0  0  0  0  0  0  0
   -3.0397    8.6919   11.6779 O   0  0  0  0  0  0  0  0  0  0  0  0
   -4.6779    8.1083   10.2540 N   0  0  0  0  0  0  0  0  0  0  0  0
   -4.5628    7.6018    8.9992 C   0  0  0  0  0  0  0  0  0  0  0  0
   -5.6881    6.6407    8.6129 C   0  0  0  0  0  0  0  0  0  0  0  0
   -6.4893    6.3040    9.7475 O   0  0  0  0  0  0  0  0  0  0  0  0
   -7.0050    7.4906   10.4922 C   0  0  0  0  0  0  0  0  0  0  0  0
   -5.9754    8.5825   10.6515 C   0  0  0  0  0  0  0  0  0  0  0  0
   -5.6059    2.4190   15.6756 C   0  0  0  0  0  0  0  0  0  0  0  0
   -4.2891    2.3870   14.5643 S   0  0  0  0  0  0  0  0  0  0  0  0
   -4.7533    3.9261   13.8945 C   0  0  0  0  0  0  0  0  0  0  0  0
   -5.8773    4.4117   14.5378 C   0  0  0  0  0  0  0  0  0  0  0  0
   -6.3606    3.5602   15.5468 C   0  0  0  0  0  0  0  0  0  0  0  0
   -5.9201    1.0706   16.7644 S   0  0  0  0  0  0  0  0  0  0  0  0
   -5.4847    1.4555   18.0706 O   0  0  0  0  0  0  0  0  0  0  0  0
   -5.3612   -0.0822   16.1298 O   0  0  0  0  0  0  0  0  0  0  0  0
   -7.4926    0.8876   16.8028 N   0  0  0  0  0  0  0  0  0  0  0  0
   -7.9184    1.6984   17.2519 H   0  0  0  0  0  0  0  0  0  0  0  0
   -7.7242    0.0460   17.3305 H   0  0  0  0  0  0  0  0  0  0  0  0
 13 12  1  0  0  0
 13  8  1  0  0  0
 12 11  1  0  0  0
  8  6  1  0  0  0
  8  9  1  0  0  0
 11 10  1  0  0  0
  7  6  2  0  0  0
  6  4  1  0  0  0
 10  9  1  0  0  0
  4  3  2  0  0  0
  4  5  1  0  0  0
  3  2  1  0  0  0
  5  1  1  0  0  0
  2  1  2  0  0  0
  1 16  1  0  0  0
 16 17  2  0  0  0
 16 15  1  0  0  0
 17 18  1  0  0  0
 15 14  1  0  0  0
 18 14  2  0  0  0
 14 19  1  0  0  0
 22 19  1  0  0  0
 20 19  2  0  0  0
 19 21  2  0  0  0
 22 23  1  0  0  0
 22 24  1  0  0  0
M  END
> <minimizedAffinity>
-6.92213

$$$$
5NEE_8V5_A_302


 24 26  0  0  0  0  0  0  0  0999 V2000
   -4.1119    4.0515   10.7890 C   0  0  0  0  0  0  0  0  0  0  0  0
   -3.2473    4.3949    9.8145 C   0  0  0  0  0  0  0  0  0  0  0  0
   -3.7247    5.4767    9.1070 N   0  0  0  0  0  0  0  0  0  0  0  0
   -4.8728    5.7575    9.6752 C   0  0  0  0  0  0  0  0  0  0  0  0
   -5.1714    4.9396   10.7111 O   0  0  0  0  0  0  0  0  0  0  0  0
   -5.8683    6.7920    9.2241 C   0  0  0  0  0  0  0  0  0  0  0  0
   -6.9514    6.4282    8.7638 O   0  0  0  0  0  0  0  0  0  0  0  0
   -5.5186    8.0768    9.2942 N   0  0  0  0  0  0  0  0  0  0  0  0
   -5.3154    8.6596   10.5040 C   0  0  0  0  0  0  0  0  0  0  0  0
   -3.8778    9.1288   10.7325 C   0  0  0  0  0  0  0  0  0  0  0  0
   -3.0074    8.6363    9.7113 O   0  0  0  0  0  0  0  0  0  0  0  0
   -3.4754    8.9380    8.3262 C   0  0  0  0  0  0  0  0  0  0  0  0
   -4.9607    8.7392    8.1470 C   0  0  0  0  0  0  0  0  0  0  0  0
   -4.3037    1.6589   13.8881 C   0  0  0  0  0  0  0  0  0  0  0  0
   -4.2145    3.3459   13.5471 S   0  0  0  0  0  0  0  0  0  0  0  0
   -4.1995    3.0480   11.8313 C   0  0  0  0  0  0  0  0  0  0  0  0
   -4.2709    1.6903   11.5779 C   0  0  0  0  0  0  0  0  0  0  0  0
   -4.3308    0.9026   12.7410 C   0  0  0  0  0  0  0  0  0  0  0  0
   -4.2825    1.0552   15.5426 S   0  0  0  0  0  0  0  0  0  0  0  0
   -3.0407    1.4469   16.1328 O   0  0  0  0  0  0  0  0  0  0  0  0
   -4.6349   -0.3278   15.4581 O   0  0  0  0  0  0  0  0  0  0  0  0
   -5.4495    1.8067   16.3048 N   0  0  0  0  0  0  0  0  0  0  0  0
   -5.2235    2.7985   16.3794 H   0  0  0  0  0  0  0  0  0  0  0  0
   -5.5557    1.4109   17.2388 H   0  0  0  0  0  0  0  0  0  0  0  0
 13 12  1  0  0  0
 13  8  1  0  0  0
 12 11  1  0  0  0
  8  6  1  0  0  0
  8  9  1  0  0  0
 11 10  1  0  0  0
  7  6  2  0  0  0
  6  4  1  0  0  0
 10  9  1  0  0  0
  4  3  2  0  0  0
  4  5  1  0  0  0
  3  2  1  0  0  0
  5  1  1  0  0  0
  2  1  2  0  0  0
  1 16  1  0  0  0
 16 17  2  0  0  0
 16 15  1  0  0  0
 17 18  1  0  0  0
 15 14  1  0  0  0
 18 14  2  0  0  0
 14 19  1  0  0  0
 22 19  1  0  0  0
 20 19  2  0  0  0
 19 21  2  0  0  0
 22 23  1  0  0  0
 22 24  1  0  0  0
M  END
> <minimizedAffinity>
-6.89614

$$$$
5NEE_8V5_A_302


 24 26  0  0  0  0  0  0  0  0999 V2000
   -4.1921    4.2110   10.9934 C   0  0  0  0  0  0  0  0  0  0  0  0
   -4.6139    5.4858   10.8832 C   0  0  0  0  0  0  0  0  0  0  0  0
   -4.2825    5.9972    9.6473 N   0  0  0  0  0  0  0  0  0  0  0  0
   -3.6635    5.0123    9.0418 C   0  0  0  0  0  0  0  0  0  0  0  0
   -3.5782    3.8908    9.7942 O   0  0  0  0  0  0  0  0  0  0  0  0
   -2.9930    5.0662    7.6956 C   0  0  0  0  0  0  0  0  0  0  0  0
   -3.6624    4.8780    6.6789 O   0  0  0  0  0  0  0  0  0  0  0  0
   -1.6758    5.2693    7.6546 N   0  0  0  0  0  0  0  0  0  0  0  0
   -1.1589    6.4554    8.0674 C   0  0  0  0  0  0  0  0  0  0  0  0
   -0.2520    6.3432    9.2939 C   0  0  0  0  0  0  0  0  0  0  0  0
   -0.3369    5.0421    9.8793 O   0  0  0  0  0  0  0  0  0  0  0  0
   -0.0995    3.9311    8.9109 C   0  0  0  0  0  0  0  0  0  0  0  0
   -0.7729    4.1532    7.5787 C   0  0  0  0  0  0  0  0  0  0  0  0
   -4.2851    1.6830   13.9876 C   0  0  0  0  0  0  0  0  0  0  0  0
   -4.3801    3.3816   13.7122 S   0  0  0  0  0  0  0  0  0  0  0  0
   -4.2221    3.1609   11.9920 C   0  0  0  0  0  0  0  0  0  0  0  0
   -4.1124    1.8163   11.6873 C   0  0  0  0  0  0  0  0  0  0  0  0
   -4.1487    0.9783   12.8157 C   0  0  0  0  0  0  0  0  0  0  0  0
   -4.2940    1.0163   15.6179 S   0  0  0  0  0  0  0  0  0  0  0  0
   -3.0339    1.3219   16.2198 O   0  0  0  0  0  0  0  0  0  0  0  0
   -4.7159   -0.3430   15.4815 O   0  0  0  0  0  0  0  0  0  0  0  0
   -5.4214    1.7961   16.4107 N   0  0  0  0  0  0  0  0  0  0  0  0
   -5.1455    2.7716   16.5226 H   0  0  0  0  0  0  0  0  0  0  0  0
   -5.5472    1.3708   17.3292 H   0  0  0  0  0  0  0  0  0  0  0  0
 13 12  1  0  0  0
 13  8  1  0  0  0
 12 11  1  0  0  0
  8  6  1  0  0  0
  8  9  1  0  0  0
 11 10  1  0  0  0
  7  6  2  0  0  0
  6  4  1  0  0  0
 10  9  1  0  0  0
  4  3  2  0  0  0
  4  5  1  0  0  0
  3  2  1  0  0  0
  5  1  1  0  0  0
  2  1  2  0  0  0
  1 16  1  0  0  0
 16 17  2  0  0  0
 16 15  1  0  0  0
 17 18  1  0  0  0
 15 14  1  0  0  0
 18 14  2  0  0  0
 14 19  1  0  0  0
 22 19  1  0  0  0
 20 19  2  0  0  0
 19 21  2  0  0  0
 22 23  1  0  0  0
 22 24  1  0  0  0
M  END
> <minimizedAffinity>
-6.88896

$$$$
5NEE_8V5_A_302


 24 26  0  0  0  0  0  0  0  0999 V2000
   -4.5463    5.6485   12.1870 C   0  0  0  0  0  0  0  0  0  0  0  0
   -4.0591    6.8972   12.0514 C   0  0  0  0  0  0  0  0  0  0  0  0
   -4.1612    7.3139   10.7418 N   0  0  0  0  0  0  0  0  0  0  0  0
   -4.7085    6.2985   10.1179 C   0  0  0  0  0  0  0  0  0  0  0  0
   -4.9796    5.2528   10.9328 O   0  0  0  0  0  0  0  0  0  0  0  0
   -4.9482    6.1784    8.6371 C   0  0  0  0  0  0  0  0  0  0  0  0
   -4.2611    5.3997    7.9748 O   0  0  0  0  0  0  0  0  0  0  0  0
   -5.8720    6.9635    8.0819 N   0  0  0  0  0  0  0  0  0  0  0  0
   -7.1814    6.8035    8.4048 C   0  0  0  0  0  0  0  0  0  0  0  0
   -7.7967    8.0103    9.1149 C   0  0  0  0  0  0  0  0  0  0  0  0
   -6.7909    8.9523    9.4938 O   0  0  0  0  0  0  0  0  0  0  0  0
   -5.9008    9.3656    8.3689 C   0  0  0  0  0  0  0  0  0  0  0  0
   -5.4942    8.2141    7.4822 C   0  0  0  0  0  0  0  0  0  0  0  0
   -4.6850    2.8183   14.8955 C   0  0  0  0  0  0  0  0  0  0  0  0
   -3.7161    3.2889   13.5502 S   0  0  0  0  0  0  0  0  0  0  0  0
   -4.7186    4.6815   13.2530 C   0  0  0  0  0  0  0  0  0  0  0  0
   -5.7408    4.7460   14.1824 C   0  0  0  0  0  0  0  0  0  0  0  0
   -5.7227    3.6926   15.1134 C   0  0  0  0  0  0  0  0  0  0  0  0
   -4.3583    1.3347   15.7869 S   0  0  0  0  0  0  0  0  0  0  0  0
   -2.9860    1.3605   16.1866 O   0  0  0  0  0  0  0  0  0  0  0  0
   -4.8498    0.2709   14.9679 O   0  0  0  0  0  0  0  0  0  0  0  0
   -5.2533    1.3942   17.0920 N   0  0  0  0  0  0  0  0  0  0  0  0
   -4.9236    2.1470   17.6962 H   0  0  0  0  0  0  0  0  0  0  0  0
   -5.1887    0.5060   17.5893 H   0  0  0  0  0  0  0  0  0  0  0  0
 13 12  1  0  0  0
 13  8  1  0  0  0
 12 11  1  0  0  0
  8  6  1  0  0  0
  8  9  1  0  0  0
 11 10  1  0  0  0
  7  6  2  0  0  0
  6  4  1  0  0  0
 10  9  1  0  0  0
  4  3  2  0  0  0
  4  5  1  0  0  0
  3  2  1  0  0  0
  5  1  1  0  0  0
  2  1  2  0  0  0
  1 16  1  0  0  0
 16 17  2  0  0  0
 16 15  1  0  0  0
 17 18  1  0  0  0
 15 14  1  0  0  0
 18 14  2  0  0  0
 14 19  1  0  0  0
 22 19  1  0  0  0
 20 19  2  0  0  0
 19 21  2  0  0  0
 22 23  1  0  0  0
 22 24  1  0  0  0
M  END
> <minimizedAffinity>
-6.77532

$$$$
5NEE_8V5_A_302


 24 26  0  0  0  0  0  0  0  0999 V2000
   -3.4783    4.1913   10.9040 C   0  0  0  0  0  0  0  0  0  0  0  0
   -3.0024    4.1671    9.6438 C   0  0  0  0  0  0  0  0  0  0  0  0
   -2.9361    5.4440    9.1299 N   0  0  0  0  0  0  0  0  0  0  0  0
   -3.3787    6.2092   10.0986 C   0  0  0  0  0  0  0  0  0  0  0  0
   -3.7189    5.5196   11.2122 O   0  0  0  0  0  0  0  0  0  0  0  0
   -3.6179    7.6934   10.0320 C   0  0  0  0  0  0  0  0  0  0  0  0
   -2.7105    8.4664   10.3424 O   0  0  0  0  0  0  0  0  0  0  0  0
   -4.8314    8.1218    9.6829 N   0  0  0  0  0  0  0  0  0  0  0  0
   -5.2968    7.8927    8.4278 C   0  0  0  0  0  0  0  0  0  0  0  0
   -6.5272    6.9855    8.3788 C   0  0  0  0  0  0  0  0  0  0  0  0
   -6.7755    6.3860    9.6523 O   0  0  0  0  0  0  0  0  0  0  0  0
   -6.8556    7.3686   10.7733 C   0  0  0  0  0  0  0  0  0  0  0  0
   -5.8027    8.4467   10.6916 C   0  0  0  0  0  0  0  0  0  0  0  0
   -4.1916    1.9065   14.0081 C   0  0  0  0  0  0  0  0  0  0  0  0
   -3.7721    3.5419   13.6621 S   0  0  0  0  0  0  0  0  0  0  0  0
   -3.7791    3.2323   11.9483 C   0  0  0  0  0  0  0  0  0  0  0  0
   -4.1055    1.9116   11.6991 C   0  0  0  0  0  0  0  0  0  0  0  0
   -4.3401    1.1600   12.8640 C   0  0  0  0  0  0  0  0  0  0  0  0
   -4.3215    1.3239   15.6653 S   0  0  0  0  0  0  0  0  0  0  0  0
   -5.3912    2.0343   16.2936 O   0  0  0  0  0  0  0  0  0  0  0  0
   -2.9995    1.3873   16.2061 O   0  0  0  0  0  0  0  0  0  0  0  0
   -4.7325   -0.2023   15.5688 N   0  0  0  0  0  0  0  0  0  0  0  0
   -5.6745   -0.2770   15.1848 H   0  0  0  0  0  0  0  0  0  0  0  0
   -4.7105   -0.6198   16.4991 H   0  0  0  0  0  0  0  0  0  0  0  0
 13 12  1  0  0  0
 13  8  1  0  0  0
 12 11  1  0  0  0
  8  6  1  0  0  0
  8  9  1  0  0  0
 11 10  1  0  0  0
  7  6  2  0  0  0
  6  4  1  0  0  0
 10  9  1  0  0  0
  4  3  2  0  0  0
  4  5  1  0  0  0
  3  2  1  0  0  0
  5  1  1  0  0  0
  2  1  2  0  0  0
  1 16  1  0  0  0
 16 17  2  0  0  0
 16 15  1  0  0  0
 17 18  1  0  0  0
 15 14  1  0  0  0
 18 14  2  0  0  0
 14 19  1  0  0  0
 22 19  1  0  0  0
 20 19  2  0  0  0
 19 21  2  0  0  0
 22 23  1  0  0  0
 22 24  1  0  0  0
M  END
> <minimizedAffinity>
-6.66496

$$$$
