2D1N_FA4_A_1001


 42 42  0  0  0  0  0  0  0  0999 V2000
  -41.1473   27.7541  -15.4894 C   0  0  0  0  0  0  0  0  0  0  0  0
  -42.4206   26.9385  -15.7067 C   0  0  0  0  0  0  0  0  0  0  0  0
  -42.1018   25.4682  -15.4302 C   0  0  0  0  0  0  0  0  0  0  0  0
  -40.6265   25.1379  -15.2328 C   0  0  0  0  0  0  0  0  0  0  0  0
  -40.2922   24.3080  -13.9820 C   0  0  0  0  0  0  0  0  0  0  0  0
  -41.5145   23.8978  -13.1303 C   0  0  0  0  0  0  0  0  0  0  0  0
  -40.3720   20.3037  -12.3625 C   0  0  0  0  0  0  0  0  0  0  0  0
  -40.4114   21.7131  -12.5238 C   0  0  0  0  0  0  0  0  0  0  0  0
  -41.5936   22.3736  -12.9876 C   0  0  0  0  0  0  0  0  0  0  0  0
  -42.7704   21.5656  -13.2903 C   0  0  0  0  0  0  0  0  0  0  0  0
  -42.6986   20.1350  -13.1185 C   0  0  0  0  0  0  0  0  0  0  0  0
  -41.5143   19.5190  -12.6613 C   0  0  0  0  0  0  0  0  0  0  0  0
  -44.0842   22.1602  -13.7799 C   0  0  0  0  0  0  0  0  0  0  0  0
  -45.0546   22.4011  -12.6027 N   0  0  0  0  0  0  0  0  0  0  0  0
  -44.8500   23.0743  -11.9140 H   0  0  0  0  0  0  0  0  0  0  0  0
  -46.2575   21.6270  -12.5315 C   0  0  0  0  0  0  0  0  0  0  0  0
  -47.4063   22.1538  -11.9016 N   0  0  0  0  0  0  0  0  0  0  0  0
  -46.3052   20.4438  -13.0308 N   0  0  0  0  0  0  0  0  0  0  0  0
  -47.3843   23.0588  -11.5147 H   0  0  0  0  0  0  0  0  0  0  0  0
  -48.2293   21.6160  -11.8493 H   0  0  0  0  0  0  0  0  0  0  0  0
  -45.5120   20.0637  -13.4729 H   0  0  0  0  0  0  0  0  0  0  0  0
  -40.6761   28.5090  -16.7283 C   0  0  0  0  0  0  0  0  0  0  0  0
  -41.5072   28.1457  -17.9672 C   0  0  0  0  0  0  0  0  0  0  0  0
  -41.9388   29.3612  -18.7888 C   0  0  0  0  0  0  0  0  0  0  0  0
  -42.5404   30.4818  -17.9633 C   0  0  0  0  0  0  0  0  0  0  0  0
  -43.5577   30.0579  -17.1182 N   0  0  0  0  0  0  0  0  0  0  0  0
  -42.1729   31.6502  -18.0329 O   0  0  0  0  0  0  0  0  0  0  0  0
  -43.7903   29.1014  -17.1321 H   0  0  0  0  0  0  0  0  0  0  0  0
  -44.3211   30.9338  -16.1963 C   0  0  0  0  0  0  0  0  0  0  0  0
  -45.7364   31.1397  -16.7834 C   0  0  0  0  0  0  0  0  0  0  0  0
  -46.0468   30.3601  -17.8360 N   0  0  0  0  0  0  0  0  0  0  0  0
  -47.3100   30.5325  -18.4200 O   0  0  0  0  0  0  0  0  0  0  0  0
  -46.5418   31.9656  -16.3538 O   0  0  0  0  0  0  0  0  0  0  0  0
  -45.4106   29.6936  -18.1829 H   0  0  0  0  0  0  0  0  0  0  0  0
  -47.7928   31.2281  -17.9467 H   0  0  0  0  0  0  0  0  0  0  0  0
  -44.3900   30.1994  -14.8366 C   0  0  0  0  0  0  0  0  0  0  0  0
  -44.5612   31.1516  -13.6215 C   0  0  0  0  0  0  0  0  0  0  0  0
  -43.6652   32.4113  -13.5354 C   0  0  0  0  0  0  0  0  0  0  0  0
  -43.9767   33.3076  -12.3173 C   0  0  0  0  0  0  0  0  0  0  0  0
  -43.0313   34.4491  -12.2454 N   0  0  0  0  0  0  0  0  0  0  0  0
  -42.0793   34.0965  -12.1470 H   0  0  0  0  0  0  0  0  0  0  0  0
  -43.2628   35.0321  -11.4410 H   0  0  0  0  0  0  0  0  0  0  0  0
  7  8  2  0  0  0
  7 12  1  0  0  0
  8  9  1  0  0  0
  9 10  2  0  0  0
  9  6  1  0  0  0
 10 11  1  0  0  0
 10 13  1  0  0  0
 11 12  2  0  0  0
  6  5  1  0  0  0
  5  4  1  0  0  0
  4  3  1  0  0  0
  3  2  1  0  0  0
  2  1  1  0  0  0
  1 22  1  0  0  0
 22 23  1  0  0  0
 23 24  1  0  0  0
 24 25  1  0  0  0
 25 26  1  0  0  0
 25 27  2  0  0  0
 26 29  1  0  0  0
 29 36  1  0  0  0
 29 30  1  0  0  0
 36 37  1  0  0  0
 30 31  1  0  0  0
 30 33  2  0  0  0
 31 32  1  0  0  0
 37 38  1  0  0  0
 38 39  1  0  0  0
 39 40  1  0  0  0
 13 14  1  0  0  0
 14 16  1  0  0  0
 16 17  1  0  0  0
 16 18  2  0  0  0
 26 28  1  0  0  0
 31 34  1  0  0  0
 40 41  1  0  0  0
 40 42  1  0  0  0
 14 15  1  0  0  0
 17 19  1  0  0  0
 17 20  1  0  0  0
 18 21  1  0  0  0
 32 35  1  0  0  0
M  END
> <minimizedAffinity>
-8.57807

$$$$
2D1N_FA4_A_1001


 42 42  0  0  0  0  0  0  0  0999 V2000
  -40.8817   27.8619  -17.1623 C   0  0  0  0  0  0  0  0  0  0  0  0
  -40.6610   27.7807  -15.6529 C   0  0  0  0  0  0  0  0  0  0  0  0
  -41.2712   26.4718  -15.1484 C   0  0  0  0  0  0  0  0  0  0  0  0
  -40.4250   25.2220  -15.3643 C   0  0  0  0  0  0  0  0  0  0  0  0
  -40.2720   24.3027  -14.1410 C   0  0  0  0  0  0  0  0  0  0  0  0
  -41.5992   23.9171  -13.4498 C   0  0  0  0  0  0  0  0  0  0  0  0
  -40.3882   20.4365  -12.3404 C   0  0  0  0  0  0  0  0  0  0  0  0
  -40.4553   21.8230  -12.6351 C   0  0  0  0  0  0  0  0  0  0  0  0
  -41.6482   22.4121  -13.1631 C   0  0  0  0  0  0  0  0  0  0  0  0
  -42.8070   21.5550  -13.3912 C   0  0  0  0  0  0  0  0  0  0  0  0
  -42.7072   20.1489  -13.0840 C   0  0  0  0  0  0  0  0  0  0  0  0
  -41.5129   19.6036  -12.5668 C   0  0  0  0  0  0  0  0  0  0  0  0
  -44.1300   22.0732  -13.9391 C   0  0  0  0  0  0  0  0  0  0  0  0
  -45.0818   22.4797  -12.7926 N   0  0  0  0  0  0  0  0  0  0  0  0
  -44.9386   23.3170  -12.2951 H   0  0  0  0  0  0  0  0  0  0  0  0
  -46.1766   21.6157  -12.4665 C   0  0  0  0  0  0  0  0  0  0  0  0
  -47.1234   22.0032  -11.4932 N   0  0  0  0  0  0  0  0  0  0  0  0
  -46.3072   20.4767  -13.0473 N   0  0  0  0  0  0  0  0  0  0  0  0
  -47.0359   22.8728  -11.0402 H   0  0  0  0  0  0  0  0  0  0  0  0
  -47.8710   21.4036  -11.2676 H   0  0  0  0  0  0  0  0  0  0  0  0
  -45.6547   20.1934  -13.7279 H   0  0  0  0  0  0  0  0  0  0  0  0
  -41.1652   29.2714  -17.6721 C   0  0  0  0  0  0  0  0  0  0  0  0
  -42.6682   29.5852  -17.6731 C   0  0  0  0  0  0  0  0  0  0  0  0
  -43.0460   30.7576  -16.7667 C   0  0  0  0  0  0  0  0  0  0  0  0
  -43.5485   30.3421  -15.3978 C   0  0  0  0  0  0  0  0  0  0  0  0
  -43.7384   31.4122  -14.5331 N   0  0  0  0  0  0  0  0  0  0  0  0
  -43.7641   29.1777  -15.0773 O   0  0  0  0  0  0  0  0  0  0  0  0
  -43.5347   32.3130  -14.8742 H   0  0  0  0  0  0  0  0  0  0  0  0
  -44.2241   31.3039  -13.1360 C   0  0  0  0  0  0  0  0  0  0  0  0
  -43.5710   32.4332  -12.3064 C   0  0  0  0  0  0  0  0  0  0  0  0
  -43.2320   33.5382  -12.9964 N   0  0  0  0  0  0  0  0  0  0  0  0
  -42.6098   34.5777  -12.2904 O   0  0  0  0  0  0  0  0  0  0  0  0
  -43.3443   32.3519  -11.0992 O   0  0  0  0  0  0  0  0  0  0  0  0
  -43.4141   33.6136  -13.9610 H   0  0  0  0  0  0  0  0  0  0  0  0
  -42.5146   34.3242  -11.3589 H   0  0  0  0  0  0  0  0  0  0  0  0
  -45.7611   31.4728  -13.1828 C   0  0  0  0  0  0  0  0  0  0  0  0
  -46.2691   32.2101  -14.4519 C   0  0  0  0  0  0  0  0  0  0  0  0
  -46.4523   33.7464  -14.3928 C   0  0  0  0  0  0  0  0  0  0  0  0
  -46.3973   34.4278  -15.7772 C   0  0  0  0  0  0  0  0  0  0  0  0
  -45.5586   33.6454  -16.7187 N   0  0  0  0  0  0  0  0  0  0  0  0
  -44.6074   33.5832  -16.3556 H   0  0  0  0  0  0  0  0  0  0  0  0
  -45.5460   34.1080  -17.6277 H   0  0  0  0  0  0  0  0  0  0  0  0
  7  8  2  0  0  0
  7 12  1  0  0  0
  8  9  1  0  0  0
  9 10  2  0  0  0
  9  6  1  0  0  0
 10 11  1  0  0  0
 10 13  1  0  0  0
 11 12  2  0  0  0
  6  5  1  0  0  0
  5  4  1  0  0  0
  4  3  1  0  0  0
  3  2  1  0  0  0
  2  1  1  0  0  0
  1 22  1  0  0  0
 22 23  1  0  0  0
 23 24  1  0  0  0
 24 25  1  0  0  0
 25 26  1  0  0  0
 25 27  2  0  0  0
 26 29  1  0  0  0
 29 36  1  0  0  0
 29 30  1  0  0  0
 36 37  1  0  0  0
 30 31  1  0  0  0
 30 33  2  0  0  0
 31 32  1  0  0  0
 37 38  1  0  0  0
 38 39  1  0  0  0
 39 40  1  0  0  0
 13 14  1  0  0  0
 14 16  1  0  0  0
 16 17  1  0  0  0
 16 18  2  0  0  0
 26 28  1  0  0  0
 31 34  1  0  0  0
 40 41  1  0  0  0
 40 42  1  0  0  0
 14 15  1  0  0  0
 17 19  1  0  0  0
 17 20  1  0  0  0
 18 21  1  0  0  0
 32 35  1  0  0  0
M  END
> <minimizedAffinity>
-8.50416

$$$$
2D1N_FA4_A_1001


 42 42  0  0  0  0  0  0  0  0999 V2000
  -41.2678   26.9088  -15.3923 C   0  0  0  0  0  0  0  0  0  0  0  0
  -42.3839   25.8962  -15.6429 C   0  0  0  0  0  0  0  0  0  0  0  0
  -41.8255   24.4945  -15.3910 C   0  0  0  0  0  0  0  0  0  0  0  0
  -40.3820   24.4360  -14.9040 C   0  0  0  0  0  0  0  0  0  0  0  0
  -40.1727   23.8043  -13.5175 C   0  0  0  0  0  0  0  0  0  0  0  0
  -41.4740   23.4602  -12.7588 C   0  0  0  0  0  0  0  0  0  0  0  0
  -40.7356   19.7500  -12.0510 C   0  0  0  0  0  0  0  0  0  0  0  0
  -40.6398   21.1631  -12.1382 C   0  0  0  0  0  0  0  0  0  0  0  0
  -41.6937   21.9439  -12.7115 C   0  0  0  0  0  0  0  0  0  0  0  0
  -42.8817   21.2555  -13.2056 C   0  0  0  0  0  0  0  0  0  0  0  0
  -42.9485   19.8179  -13.1053 C   0  0  0  0  0  0  0  0  0  0  0  0
  -41.8881   19.0815  -12.5357 C   0  0  0  0  0  0  0  0  0  0  0  0
  -44.0675   21.9832  -13.8250 C   0  0  0  0  0  0  0  0  0  0  0  0
  -45.0695   22.4317  -12.7386 N   0  0  0  0  0  0  0  0  0  0  0  0
  -44.8851   23.2227  -12.1822 H   0  0  0  0  0  0  0  0  0  0  0  0
  -46.2721   21.6755  -12.5556 C   0  0  0  0  0  0  0  0  0  0  0  0
  -47.3523   22.2218  -11.8285 N   0  0  0  0  0  0  0  0  0  0  0  0
  -46.3809   20.4908  -13.0417 N   0  0  0  0  0  0  0  0  0  0  0  0
  -47.2830   23.1281  -11.4504 H   0  0  0  0  0  0  0  0  0  0  0  0
  -48.1748   21.6963  -11.6998 H   0  0  0  0  0  0  0  0  0  0  0  0
  -45.6358   20.0972  -13.5507 H   0  0  0  0  0  0  0  0  0  0  0  0
  -40.6594   27.4882  -16.6655 C   0  0  0  0  0  0  0  0  0  0  0  0
  -41.1536   28.9169  -16.9339 C   0  0  0  0  0  0  0  0  0  0  0  0
  -40.7493   29.4530  -18.3079 C   0  0  0  0  0  0  0  0  0  0  0  0
  -41.7312   30.4477  -18.8955 C   0  0  0  0  0  0  0  0  0  0  0  0
  -42.4312   29.9508  -19.9873 N   0  0  0  0  0  0  0  0  0  0  0  0
  -41.8936   31.5823  -18.4578 O   0  0  0  0  0  0  0  0  0  0  0  0
  -42.2322   29.0299  -20.2730 H   0  0  0  0  0  0  0  0  0  0  0  0
  -43.4551   30.6991  -20.7563 C   0  0  0  0  0  0  0  0  0  0  0  0
  -43.3727   30.2540  -22.2346 C   0  0  0  0  0  0  0  0  0  0  0  0
  -43.2849   31.2498  -23.1361 N   0  0  0  0  0  0  0  0  0  0  0  0
  -43.2373   30.8943  -24.4917 O   0  0  0  0  0  0  0  0  0  0  0  0
  -43.4030   29.0782  -22.5978 O   0  0  0  0  0  0  0  0  0  0  0  0
  -43.2552   32.1926  -22.8541 H   0  0  0  0  0  0  0  0  0  0  0  0
  -43.2774   29.9287  -24.5744 H   0  0  0  0  0  0  0  0  0  0  0  0
  -44.8285   30.3327  -20.1462 C   0  0  0  0  0  0  0  0  0  0  0  0
  -45.6748   31.5665  -19.7291 C   0  0  0  0  0  0  0  0  0  0  0  0
  -45.3454   32.2729  -18.3914 C   0  0  0  0  0  0  0  0  0  0  0  0
  -45.3572   31.3239  -17.1735 C   0  0  0  0  0  0  0  0  0  0  0  0
  -44.0871   31.4242  -16.4127 N   0  0  0  0  0  0  0  0  0  0  0  0
  -43.3079   31.1601  -17.0155 H   0  0  0  0  0  0  0  0  0  0  0  0
  -44.1222   30.7979  -15.6084 H   0  0  0  0  0  0  0  0  0  0  0  0
  7  8  2  0  0  0
  7 12  1  0  0  0
  8  9  1  0  0  0
  9 10  2  0  0  0
  9  6  1  0  0  0
 10 11  1  0  0  0
 10 13  1  0  0  0
 11 12  2  0  0  0
  6  5  1  0  0  0
  5  4  1  0  0  0
  4  3  1  0  0  0
  3  2  1  0  0  0
  2  1  1  0  0  0
  1 22  1  0  0  0
 22 23  1  0  0  0
 23 24  1  0  0  0
 24 25  1  0  0  0
 25 26  1  0  0  0
 25 27  2  0  0  0
 26 29  1  0  0  0
 29 36  1  0  0  0
 29 30  1  0  0  0
 36 37  1  0  0  0
 30 31  1  0  0  0
 30 33  2  0  0  0
 31 32  1  0  0  0
 37 38  1  0  0  0
 38 39  1  0  0  0
 39 40  1  0  0  0
 13 14  1  0  0  0
 14 16  1  0  0  0
 16 17  1  0  0  0
 16 18  2  0  0  0
 26 28  1  0  0  0
 31 34  1  0  0  0
 40 41  1  0  0  0
 40 42  1  0  0  0
 14 15  1  0  0  0
 17 19  1  0  0  0
 17 20  1  0  0  0
 18 21  1  0  0  0
 32 35  1  0  0  0
M  END
> <minimizedAffinity>
-8.30747

$$$$
2D1N_FA4_A_1001


 42 42  0  0  0  0  0  0  0  0999 V2000
  -40.6563   27.3350  -16.0957 C   0  0  0  0  0  0  0  0  0  0  0  0
  -41.9736   26.9032  -15.4538 C   0  0  0  0  0  0  0  0  0  0  0  0
  -42.0159   25.3743  -15.4270 C   0  0  0  0  0  0  0  0  0  0  0  0
  -40.6629   24.6774  -15.3366 C   0  0  0  0  0  0  0  0  0  0  0  0
  -40.2797   24.1461  -13.9453 C   0  0  0  0  0  0  0  0  0  0  0  0
  -41.4762   23.7655  -13.0446 C   0  0  0  0  0  0  0  0  0  0  0  0
  -40.4767   20.1320  -12.2631 C   0  0  0  0  0  0  0  0  0  0  0  0
  -40.4677   21.5435  -12.4097 C   0  0  0  0  0  0  0  0  0  0  0  0
  -41.6058   22.2429  -12.9238 C   0  0  0  0  0  0  0  0  0  0  0  0
  -42.7888   21.4727  -13.2939 C   0  0  0  0  0  0  0  0  0  0  0  0
  -42.7665   20.0389  -13.1356 C   0  0  0  0  0  0  0  0  0  0  0  0
  -41.6246   19.3840  -12.6274 C   0  0  0  0  0  0  0  0  0  0  0  0
  -44.0588   22.1103  -13.8411 C   0  0  0  0  0  0  0  0  0  0  0  0
  -45.0360   22.4643  -12.6985 N   0  0  0  0  0  0  0  0  0  0  0  0
  -44.8436   23.2122  -12.0879 H   0  0  0  0  0  0  0  0  0  0  0  0
  -46.2273   21.6844  -12.5438 C   0  0  0  0  0  0  0  0  0  0  0  0
  -47.3155   22.1878  -11.7981 N   0  0  0  0  0  0  0  0  0  0  0  0
  -46.3187   20.5167  -13.0728 N   0  0  0  0  0  0  0  0  0  0  0  0
  -47.2596   23.0808  -11.3872 H   0  0  0  0  0  0  0  0  0  0  0  0
  -48.1302   21.6459  -11.6890 H   0  0  0  0  0  0  0  0  0  0  0  0
  -45.5678   20.1529  -13.5954 H   0  0  0  0  0  0  0  0  0  0  0  0
  -40.6957   28.7293  -16.7133 C   0  0  0  0  0  0  0  0  0  0  0  0
  -41.1117   28.6863  -18.1906 C   0  0  0  0  0  0  0  0  0  0  0  0
  -42.2911   29.6031  -18.5180 C   0  0  0  0  0  0  0  0  0  0  0  0
  -42.7366   29.5423  -19.9661 C   0  0  0  0  0  0  0  0  0  0  0  0
  -43.7262   30.4658  -20.2768 N   0  0  0  0  0  0  0  0  0  0  0  0
  -42.2759   28.7550  -20.7866 O   0  0  0  0  0  0  0  0  0  0  0  0
  -44.0403   31.0551  -19.5534 H   0  0  0  0  0  0  0  0  0  0  0  0
  -44.3469   30.6335  -21.6133 C   0  0  0  0  0  0  0  0  0  0  0  0
  -45.8035   31.1122  -21.4152 C   0  0  0  0  0  0  0  0  0  0  0  0
  -46.6249   30.9199  -22.4641 N   0  0  0  0  0  0  0  0  0  0  0  0
  -47.9489   31.3651  -22.3405 O   0  0  0  0  0  0  0  0  0  0  0  0
  -46.2119   31.6540  -20.3881 O   0  0  0  0  0  0  0  0  0  0  0  0
  -46.3080   30.4830  -23.2875 H   0  0  0  0  0  0  0  0  0  0  0  0
  -48.0749   31.7663  -21.4664 H   0  0  0  0  0  0  0  0  0  0  0  0
  -43.5135   31.6999  -22.3624 C   0  0  0  0  0  0  0  0  0  0  0  0
  -43.3593   31.4169  -23.8818 C   0  0  0  0  0  0  0  0  0  0  0  0
  -43.1893   29.9506  -24.3488 C   0  0  0  0  0  0  0  0  0  0  0  0
  -42.4293   29.8133  -25.6858 C   0  0  0  0  0  0  0  0  0  0  0  0
  -42.4732   28.4139  -26.1777 N   0  0  0  0  0  0  0  0  0  0  0  0
  -42.0306   27.7993  -25.4944 H   0  0  0  0  0  0  0  0  0  0  0  0
  -41.9752   28.3498  -27.0655 H   0  0  0  0  0  0  0  0  0  0  0  0
  7  8  2  0  0  0
  7 12  1  0  0  0
  8  9  1  0  0  0
  9 10  2  0  0  0
  9  6  1  0  0  0
 10 11  1  0  0  0
 10 13  1  0  0  0
 11 12  2  0  0  0
  6  5  1  0  0  0
  5  4  1  0  0  0
  4  3  1  0  0  0
  3  2  1  0  0  0
  2  1  1  0  0  0
  1 22  1  0  0  0
 22 23  1  0  0  0
 23 24  1  0  0  0
 24 25  1  0  0  0
 25 26  1  0  0  0
 25 27  2  0  0  0
 26 29  1  0  0  0
 29 36  1  0  0  0
 29 30  1  0  0  0
 36 37  1  0  0  0
 30 31  1  0  0  0
 30 33  2  0  0  0
 31 32  1  0  0  0
 37 38  1  0  0  0
 38 39  1  0  0  0
 39 40  1  0  0  0
 13 14  1  0  0  0
 14 16  1  0  0  0
 16 17  1  0  0  0
 16 18  2  0  0  0
 26 28  1  0  0  0
 31 34  1  0  0  0
 40 41  1  0  0  0
 40 42  1  0  0  0
 14 15  1  0  0  0
 17 19  1  0  0  0
 17 20  1  0  0  0
 18 21  1  0  0  0
 32 35  1  0  0  0
M  END
> <minimizedAffinity>
-8.11001

$$$$
2D1N_FA4_A_1001


 42 42  0  0  0  0  0  0  0  0999 V2000
  -41.4906   23.3514  -15.0203 C   0  0  0  0  0  0  0  0  0  0  0  0
  -42.2891   24.6042  -15.3758 C   0  0  0  0  0  0  0  0  0  0  0  0
  -41.4511   25.8289  -15.0046 C   0  0  0  0  0  0  0  0  0  0  0  0
  -40.7372   26.5166  -16.1629 C   0  0  0  0  0  0  0  0  0  0  0  0
  -40.6432   28.0489  -16.0710 C   0  0  0  0  0  0  0  0  0  0  0  0
  -41.3010   28.8102  -17.2437 C   0  0  0  0  0  0  0  0  0  0  0  0
  -44.0111   30.1835  -14.8811 C   0  0  0  0  0  0  0  0  0  0  0  0
  -42.9545   29.4185  -15.4399 C   0  0  0  0  0  0  0  0  0  0  0  0
  -42.4365   29.7096  -16.7421 C   0  0  0  0  0  0  0  0  0  0  0  0
  -43.0160   30.8201  -17.4907 C   0  0  0  0  0  0  0  0  0  0  0  0
  -44.0907   31.5776  -16.8968 C   0  0  0  0  0  0  0  0  0  0  0  0
  -44.5768   31.2592  -15.6110 C   0  0  0  0  0  0  0  0  0  0  0  0
  -42.5387   31.2268  -18.8785 C   0  0  0  0  0  0  0  0  0  0  0  0
  -43.4549   30.6365  -19.9730 N   0  0  0  0  0  0  0  0  0  0  0  0
  -44.4312   30.6102  -19.8491 H   0  0  0  0  0  0  0  0  0  0  0  0
  -42.8578   30.1280  -21.1714 C   0  0  0  0  0  0  0  0  0  0  0  0
  -42.9566   30.8536  -22.3788 N   0  0  0  0  0  0  0  0  0  0  0  0
  -42.2333   29.0048  -21.1662 N   0  0  0  0  0  0  0  0  0  0  0  0
  -43.4320   31.7155  -22.3976 H   0  0  0  0  0  0  0  0  0  0  0  0
  -42.5500   30.4976  -23.2017 H   0  0  0  0  0  0  0  0  0  0  0  0
  -42.1566   28.4881  -20.3317 H   0  0  0  0  0  0  0  0  0  0  0  0
  -40.2484   23.6263  -14.1788 C   0  0  0  0  0  0  0  0  0  0  0  0
  -40.3581   23.0021  -12.7802 C   0  0  0  0  0  0  0  0  0  0  0  0
  -40.0078   21.5138  -12.7485 C   0  0  0  0  0  0  0  0  0  0  0  0
  -41.0502   20.6489  -12.0670 C   0  0  0  0  0  0  0  0  0  0  0  0
  -42.2788   20.6545  -12.7145 N   0  0  0  0  0  0  0  0  0  0  0  0
  -40.8377   20.0083  -11.0425 O   0  0  0  0  0  0  0  0  0  0  0  0
  -42.3604   21.2022  -13.5285 H   0  0  0  0  0  0  0  0  0  0  0  0
  -43.4776   19.8996  -12.2755 C   0  0  0  0  0  0  0  0  0  0  0  0
  -44.7340   20.6854  -12.7161 C   0  0  0  0  0  0  0  0  0  0  0  0
  -44.5394   21.5886  -13.6951 N   0  0  0  0  0  0  0  0  0  0  0  0
  -45.6454   22.3460  -14.1071 O   0  0  0  0  0  0  0  0  0  0  0  0
  -45.8471   20.5337  -12.2129 O   0  0  0  0  0  0  0  0  0  0  0  0
  -43.6537   21.7129  -14.1064 H   0  0  0  0  0  0  0  0  0  0  0  0
  -46.4252   22.0860  -13.5922 H   0  0  0  0  0  0  0  0  0  0  0  0
  -43.4175   18.5203  -12.9732 C   0  0  0  0  0  0  0  0  0  0  0  0
  -43.2273   17.3322  -11.9910 C   0  0  0  0  0  0  0  0  0  0  0  0
  -44.0309   17.3291  -10.6676 C   0  0  0  0  0  0  0  0  0  0  0  0
  -43.1506   17.5029   -9.4111 C   0  0  0  0  0  0  0  0  0  0  0  0
  -41.7103   17.4827   -9.7676 N   0  0  0  0  0  0  0  0  0  0  0  0
  -41.4791   16.5873  -10.1979 H   0  0  0  0  0  0  0  0  0  0  0  0
  -41.1497   17.6100   -8.9251 H   0  0  0  0  0  0  0  0  0  0  0  0
  7  8  2  0  0  0
  7 12  1  0  0  0
  8  9  1  0  0  0
  9 10  2  0  0  0
  9  6  1  0  0  0
 10 11  1  0  0  0
 10 13  1  0  0  0
 11 12  2  0  0  0
  6  5  1  0  0  0
  5  4  1  0  0  0
  4  3  1  0  0  0
  3  2  1  0  0  0
  2  1  1  0  0  0
  1 22  1  0  0  0
 22 23  1  0  0  0
 23 24  1  0  0  0
 24 25  1  0  0  0
 25 26  1  0  0  0
 25 27  2  0  0  0
 26 29  1  0  0  0
 29 36  1  0  0  0
 29 30  1  0  0  0
 36 37  1  0  0  0
 30 31  1  0  0  0
 30 33  2  0  0  0
 31 32  1  0  0  0
 37 38  1  0  0  0
 38 39  1  0  0  0
 39 40  1  0  0  0
 13 14  1  0  0  0
 14 16  1  0  0  0
 16 17  1  0  0  0
 16 18  2  0  0  0
 26 28  1  0  0  0
 31 34  1  0  0  0
 40 41  1  0  0  0
 40 42  1  0  0  0
 14 15  1  0  0  0
 17 19  1  0  0  0
 17 20  1  0  0  0
 18 21  1  0  0  0
 32 35  1  0  0  0
M  END
> <minimizedAffinity>
-8.07509

$$$$
2D1N_FA4_A_1001


 42 42  0  0  0  0  0  0  0  0999 V2000
  -41.6587   27.4514  -16.9636 C   0  0  0  0  0  0  0  0  0  0  0  0
  -41.3541   27.3263  -15.4718 C   0  0  0  0  0  0  0  0  0  0  0  0
  -41.5423   25.8639  -15.0647 C   0  0  0  0  0  0  0  0  0  0  0  0
  -40.2760   25.0149  -15.0467 C   0  0  0  0  0  0  0  0  0  0  0  0
  -40.1537   24.0272  -13.8744 C   0  0  0  0  0  0  0  0  0  0  0  0
  -41.4860   23.6933  -13.1664 C   0  0  0  0  0  0  0  0  0  0  0  0
  -40.5297   20.0921  -12.2026 C   0  0  0  0  0  0  0  0  0  0  0  0
  -40.5035   21.4940  -12.4212 C   0  0  0  0  0  0  0  0  0  0  0  0
  -41.6344   22.1806  -12.9676 C   0  0  0  0  0  0  0  0  0  0  0  0
  -42.8280   21.4076  -13.2948 C   0  0  0  0  0  0  0  0  0  0  0  0
  -42.8233   19.9836  -13.0634 C   0  0  0  0  0  0  0  0  0  0  0  0
  -41.6880   19.3410  -12.5253 C   0  0  0  0  0  0  0  0  0  0  0  0
  -44.0917   22.0324  -13.8708 C   0  0  0  0  0  0  0  0  0  0  0  0
  -45.0461   22.4872  -12.7447 N   0  0  0  0  0  0  0  0  0  0  0  0
  -44.9049   23.3458  -12.2841 H   0  0  0  0  0  0  0  0  0  0  0  0
  -46.1402   21.6366  -12.3829 C   0  0  0  0  0  0  0  0  0  0  0  0
  -46.3873   20.4490  -13.1057 N   0  0  0  0  0  0  0  0  0  0  0  0
  -46.9140   21.9456  -11.4045 N   0  0  0  0  0  0  0  0  0  0  0  0
  -45.8027   20.1997  -13.8576 H   0  0  0  0  0  0  0  0  0  0  0  0
  -47.1441   19.8703  -12.8577 H   0  0  0  0  0  0  0  0  0  0  0  0
  -46.7537   22.7706  -10.8917 H   0  0  0  0  0  0  0  0  0  0  0  0
  -40.6163   28.2456  -17.7444 C   0  0  0  0  0  0  0  0  0  0  0  0
  -41.0898   29.6774  -18.0331 C   0  0  0  0  0  0  0  0  0  0  0  0
  -42.6079   29.8442  -17.9542 C   0  0  0  0  0  0  0  0  0  0  0  0
  -43.0556   31.0395  -17.1358 C   0  0  0  0  0  0  0  0  0  0  0  0
  -43.5600   30.6948  -15.8885 N   0  0  0  0  0  0  0  0  0  0  0  0
  -42.9861   32.1988  -17.5313 O   0  0  0  0  0  0  0  0  0  0  0  0
  -43.5828   29.7382  -15.6568 H   0  0  0  0  0  0  0  0  0  0  0  0
  -44.0670   31.6552  -14.8785 C   0  0  0  0  0  0  0  0  0  0  0  0
  -45.5973   31.7844  -15.0571 C   0  0  0  0  0  0  0  0  0  0  0  0
  -46.3095   30.6773  -14.7760 N   0  0  0  0  0  0  0  0  0  0  0  0
  -47.6994   30.7389  -14.9517 O   0  0  0  0  0  0  0  0  0  0  0  0
  -46.1564   32.8093  -15.4472 O   0  0  0  0  0  0  0  0  0  0  0  0
  -45.8710   29.8549  -14.4588 H   0  0  0  0  0  0  0  0  0  0  0  0
  -47.9465   31.6222  -15.2673 H   0  0  0  0  0  0  0  0  0  0  0  0
  -43.7220   31.0673  -13.4900 C   0  0  0  0  0  0  0  0  0  0  0  0
  -43.3699   32.1436  -12.4269 C   0  0  0  0  0  0  0  0  0  0  0  0
  -44.4459   32.5355  -11.3849 C   0  0  0  0  0  0  0  0  0  0  0  0
  -44.0215   32.2592   -9.9263 C   0  0  0  0  0  0  0  0  0  0  0  0
  -43.2942   30.9699   -9.8225 N   0  0  0  0  0  0  0  0  0  0  0  0
  -43.9033   30.2105  -10.1270 H   0  0  0  0  0  0  0  0  0  0  0  0
  -43.0149   30.8142   -8.8539 H   0  0  0  0  0  0  0  0  0  0  0  0
  7  8  2  0  0  0
  7 12  1  0  0  0
  8  9  1  0  0  0
  9 10  2  0  0  0
  9  6  1  0  0  0
 10 11  1  0  0  0
 10 13  1  0  0  0
 11 12  2  0  0  0
  6  5  1  0  0  0
  5  4  1  0  0  0
  4  3  1  0  0  0
  3  2  1  0  0  0
  2  1  1  0  0  0
  1 22  1  0  0  0
 22 23  1  0  0  0
 23 24  1  0  0  0
 24 25  1  0  0  0
 25 26  1  0  0  0
 25 27  2  0  0  0
 26 29  1  0  0  0
 29 36  1  0  0  0
 29 30  1  0  0  0
 36 37  1  0  0  0
 30 31  1  0  0  0
 30 33  2  0  0  0
 31 32  1  0  0  0
 37 38  1  0  0  0
 38 39  1  0  0  0
 39 40  1  0  0  0
 13 14  1  0  0  0
 14 16  1  0  0  0
 16 17  1  0  0  0
 16 18  2  0  0  0
 26 28  1  0  0  0
 31 34  1  0  0  0
 40 41  1  0  0  0
 40 42  1  0  0  0
 14 15  1  0  0  0
 17 19  1  0  0  0
 17 20  1  0  0  0
 18 21  1  0  0  0
 32 35  1  0  0  0
M  END
> <minimizedAffinity>
-8.07032

$$$$
2D1N_FA4_A_1001


 42 42  0  0  0  0  0  0  0  0999 V2000
  -41.6588   24.3617  -13.9975 C   0  0  0  0  0  0  0  0  0  0  0  0
  -40.7735   23.1372  -14.2218 C   0  0  0  0  0  0  0  0  0  0  0  0
  -41.2959   21.9997  -13.3425 C   0  0  0  0  0  0  0  0  0  0  0  0
  -40.3063   21.4433  -12.3250 C   0  0  0  0  0  0  0  0  0  0  0  0
  -40.7136   20.1201  -11.6555 C   0  0  0  0  0  0  0  0  0  0  0  0
  -41.7695   19.2999  -12.4300 C   0  0  0  0  0  0  0  0  0  0  0  0
  -42.8175   16.9740   -9.5483 C   0  0  0  0  0  0  0  0  0  0  0  0
  -42.0574   17.7193  -10.4867 C   0  0  0  0  0  0  0  0  0  0  0  0
  -42.6934   18.5490  -11.4644 C   0  0  0  0  0  0  0  0  0  0  0  0
  -44.1509   18.6198  -11.4768 C   0  0  0  0  0  0  0  0  0  0  0  0
  -44.8960   17.8486  -10.5117 C   0  0  0  0  0  0  0  0  0  0  0  0
  -44.2337   17.0395   -9.5642 C   0  0  0  0  0  0  0  0  0  0  0  0
  -44.9338   19.4759  -12.4634 C   0  0  0  0  0  0  0  0  0  0  0  0
  -44.7401   20.9791  -12.1658 N   0  0  0  0  0  0  0  0  0  0  0  0
  -44.2209   21.2722  -11.3823 H   0  0  0  0  0  0  0  0  0  0  0  0
  -45.3298   21.9386  -13.0506 C   0  0  0  0  0  0  0  0  0  0  0  0
  -44.7645   22.1748  -14.3228 N   0  0  0  0  0  0  0  0  0  0  0  0
  -46.3728   22.6010  -12.6970 N   0  0  0  0  0  0  0  0  0  0  0  0
  -43.9656   21.6747  -14.6071 H   0  0  0  0  0  0  0  0  0  0  0  0
  -45.1694   22.8397  -14.9256 H   0  0  0  0  0  0  0  0  0  0  0  0
  -46.7776   22.4467  -11.8129 H   0  0  0  0  0  0  0  0  0  0  0  0
  -42.1819   24.9924  -15.2841 C   0  0  0  0  0  0  0  0  0  0  0  0
  -41.7679   26.4660  -15.4054 C   0  0  0  0  0  0  0  0  0  0  0  0
  -40.5568   26.6855  -16.3130 C   0  0  0  0  0  0  0  0  0  0  0  0
  -40.7527   27.7732  -17.3511 C   0  0  0  0  0  0  0  0  0  0  0  0
  -41.8438   28.5922  -17.0910 N   0  0  0  0  0  0  0  0  0  0  0  0
  -40.0260   27.9187  -18.3288 O   0  0  0  0  0  0  0  0  0  0  0  0
  -42.3749   28.3983  -16.2850 H   0  0  0  0  0  0  0  0  0  0  0  0
  -42.2714   29.7361  -17.9327 C   0  0  0  0  0  0  0  0  0  0  0  0
  -42.6804   29.1911  -19.3204 C   0  0  0  0  0  0  0  0  0  0  0  0
  -41.7999   29.4144  -20.3138 N   0  0  0  0  0  0  0  0  0  0  0  0
  -42.1421   28.9633  -21.5967 O   0  0  0  0  0  0  0  0  0  0  0  0
  -43.7409   28.6060  -19.5402 O   0  0  0  0  0  0  0  0  0  0  0  0
  -40.9473   29.8772  -20.1458 H   0  0  0  0  0  0  0  0  0  0  0  0
  -43.0119   28.5349  -21.5674 H   0  0  0  0  0  0  0  0  0  0  0  0
  -43.4787   30.3891  -17.2193 C   0  0  0  0  0  0  0  0  0  0  0  0
  -44.0214   29.5581  -16.0246 C   0  0  0  0  0  0  0  0  0  0  0  0
  -44.7390   30.3006  -14.8710 C   0  0  0  0  0  0  0  0  0  0  0  0
  -44.0531   31.6239  -14.4681 C   0  0  0  0  0  0  0  0  0  0  0  0
  -44.8799   32.7904  -14.8652 N   0  0  0  0  0  0  0  0  0  0  0  0
  -45.0037   32.7905  -15.8777 H   0  0  0  0  0  0  0  0  0  0  0  0
  -44.4130   33.6511  -14.5797 H   0  0  0  0  0  0  0  0  0  0  0  0
  7  8  2  0  0  0
  7 12  1  0  0  0
  8  9  1  0  0  0
  9 10  2  0  0  0
  9  6  1  0  0  0
 10 11  1  0  0  0
 10 13  1  0  0  0
 11 12  2  0  0  0
  6  5  1  0  0  0
  5  4  1  0  0  0
  4  3  1  0  0  0
  3  2  1  0  0  0
  2  1  1  0  0  0
  1 22  1  0  0  0
 22 23  1  0  0  0
 23 24  1  0  0  0
 24 25  1  0  0  0
 25 26  1  0  0  0
 25 27  2  0  0  0
 26 29  1  0  0  0
 29 36  1  0  0  0
 29 30  1  0  0  0
 36 37  1  0  0  0
 30 31  1  0  0  0
 30 33  2  0  0  0
 31 32  1  0  0  0
 37 38  1  0  0  0
 38 39  1  0  0  0
 39 40  1  0  0  0
 13 14  1  0  0  0
 14 16  1  0  0  0
 16 17  1  0  0  0
 16 18  2  0  0  0
 26 28  1  0  0  0
 31 34  1  0  0  0
 40 41  1  0  0  0
 40 42  1  0  0  0
 14 15  1  0  0  0
 17 19  1  0  0  0
 17 20  1  0  0  0
 18 21  1  0  0  0
 32 35  1  0  0  0
M  END
> <minimizedAffinity>
-8.06070

$$$$
2D1N_FA4_A_1001


 42 42  0  0  0  0  0  0  0  0999 V2000
  -41.0068   27.9081  -17.3075 C   0  0  0  0  0  0  0  0  0  0  0  0
  -41.0508   27.9038  -15.7805 C   0  0  0  0  0  0  0  0  0  0  0  0
  -41.4568   26.5040  -15.3160 C   0  0  0  0  0  0  0  0  0  0  0  0
  -40.3280   25.4826  -15.2317 C   0  0  0  0  0  0  0  0  0  0  0  0
  -40.7621   24.0320  -14.9628 C   0  0  0  0  0  0  0  0  0  0  0  0
  -41.5773   23.8291  -13.6659 C   0  0  0  0  0  0  0  0  0  0  0  0
  -40.3021   20.4148  -12.4295 C   0  0  0  0  0  0  0  0  0  0  0  0
  -40.3829   21.7784  -12.8140 C   0  0  0  0  0  0  0  0  0  0  0  0
  -41.6140   22.3486  -13.2702 C   0  0  0  0  0  0  0  0  0  0  0  0
  -42.7972   21.4967  -13.3294 C   0  0  0  0  0  0  0  0  0  0  0  0
  -42.6829   20.1139  -12.9341 C   0  0  0  0  0  0  0  0  0  0  0  0
  -41.4511   19.5865  -12.4919 C   0  0  0  0  0  0  0  0  0  0  0  0
  -44.1604   21.9970  -13.7883 C   0  0  0  0  0  0  0  0  0  0  0  0
  -45.0204   22.4403  -12.5844 N   0  0  0  0  0  0  0  0  0  0  0  0
  -44.7972   23.2574  -12.0826 H   0  0  0  0  0  0  0  0  0  0  0  0
  -46.1487   21.6406  -12.2116 C   0  0  0  0  0  0  0  0  0  0  0  0
  -45.9725   20.2883  -11.8455 N   0  0  0  0  0  0  0  0  0  0  0  0
  -47.3334   22.1388  -12.2130 N   0  0  0  0  0  0  0  0  0  0  0  0
  -45.0707   19.8933  -11.8399 H   0  0  0  0  0  0  0  0  0  0  0  0
  -46.7514   19.7404  -11.5959 H   0  0  0  0  0  0  0  0  0  0  0  0
  -47.4712   23.0802  -12.4660 H   0  0  0  0  0  0  0  0  0  0  0  0
  -41.9086   28.9570  -17.9505 C   0  0  0  0  0  0  0  0  0  0  0  0
  -41.8419   30.2986  -17.2067 C   0  0  0  0  0  0  0  0  0  0  0  0
  -43.2133   30.9329  -16.9706 C   0  0  0  0  0  0  0  0  0  0  0  0
  -43.8126   30.6197  -15.6135 C   0  0  0  0  0  0  0  0  0  0  0  0
  -43.9430   31.7365  -14.7984 N   0  0  0  0  0  0  0  0  0  0  0  0
  -44.1475   29.4930  -15.2618 O   0  0  0  0  0  0  0  0  0  0  0  0
  -43.6430   32.6010  -15.1616 H   0  0  0  0  0  0  0  0  0  0  0  0
  -44.4990   31.7286  -13.4234 C   0  0  0  0  0  0  0  0  0  0  0  0
  -43.5908   32.6022  -12.5278 C   0  0  0  0  0  0  0  0  0  0  0  0
  -43.2518   33.8004  -13.0391 N   0  0  0  0  0  0  0  0  0  0  0  0
  -42.4050   34.6153  -12.2741 O   0  0  0  0  0  0  0  0  0  0  0  0
  -43.1722   32.2479  -11.4257 O   0  0  0  0  0  0  0  0  0  0  0  0
  -43.5859   34.0937  -13.9175 H   0  0  0  0  0  0  0  0  0  0  0  0
  -42.1816   34.1622  -11.4460 H   0  0  0  0  0  0  0  0  0  0  0  0
  -45.9229   32.3263  -13.5137 C   0  0  0  0  0  0  0  0  0  0  0  0
  -46.8539   31.8988  -12.3463 C   0  0  0  0  0  0  0  0  0  0  0  0
  -47.1947   30.3975  -12.1821 C   0  0  0  0  0  0  0  0  0  0  0  0
  -47.1554   29.9128  -10.7167 C   0  0  0  0  0  0  0  0  0  0  0  0
  -45.8685   29.2373  -10.4176 N   0  0  0  0  0  0  0  0  0  0  0  0
  -45.7614   28.4251  -11.0253 H   0  0  0  0  0  0  0  0  0  0  0  0
  -45.8611   28.9361   -9.4431 H   0  0  0  0  0  0  0  0  0  0  0  0
  7  8  2  0  0  0
  7 12  1  0  0  0
  8  9  1  0  0  0
  9 10  2  0  0  0
  9  6  1  0  0  0
 10 11  1  0  0  0
 10 13  1  0  0  0
 11 12  2  0  0  0
  6  5  1  0  0  0
  5  4  1  0  0  0
  4  3  1  0  0  0
  3  2  1  0  0  0
  2  1  1  0  0  0
  1 22  1  0  0  0
 22 23  1  0  0  0
 23 24  1  0  0  0
 24 25  1  0  0  0
 25 26  1  0  0  0
 25 27  2  0  0  0
 26 29  1  0  0  0
 29 36  1  0  0  0
 29 30  1  0  0  0
 36 37  1  0  0  0
 30 31  1  0  0  0
 30 33  2  0  0  0
 31 32  1  0  0  0
 37 38  1  0  0  0
 38 39  1  0  0  0
 39 40  1  0  0  0
 13 14  1  0  0  0
 14 16  1  0  0  0
 16 17  1  0  0  0
 16 18  2  0  0  0
 26 28  1  0  0  0
 31 34  1  0  0  0
 40 41  1  0  0  0
 40 42  1  0  0  0
 14 15  1  0  0  0
 17 19  1  0  0  0
 17 20  1  0  0  0
 18 21  1  0  0  0
 32 35  1  0  0  0
M  END
> <minimizedAffinity>
-8.05861

$$$$
2D1N_FA4_A_1001


 42 42  0  0  0  0  0  0  0  0999 V2000
  -42.2583   28.2207  -15.6916 C   0  0  0  0  0  0  0  0  0  0  0  0
  -40.7743   27.8581  -15.6837 C   0  0  0  0  0  0  0  0  0  0  0  0
  -40.6355   26.3953  -16.1091 C   0  0  0  0  0  0  0  0  0  0  0  0
  -40.2095   25.4258  -15.0122 C   0  0  0  0  0  0  0  0  0  0  0  0
  -41.0925   24.1775  -14.8479 C   0  0  0  0  0  0  0  0  0  0  0  0
  -41.5423   23.8879  -13.3983 C   0  0  0  0  0  0  0  0  0  0  0  0
  -40.3922   20.3778  -12.3171 C   0  0  0  0  0  0  0  0  0  0  0  0
  -40.4393   21.7698  -12.5891 C   0  0  0  0  0  0  0  0  0  0  0  0
  -41.6120   22.3786  -13.1395 C   0  0  0  0  0  0  0  0  0  0  0  0
  -42.7712   21.5360  -13.4146 C   0  0  0  0  0  0  0  0  0  0  0  0
  -42.6919   20.1239  -13.1296 C   0  0  0  0  0  0  0  0  0  0  0  0
  -41.5172   19.5590  -12.5892 C   0  0  0  0  0  0  0  0  0  0  0  0
  -44.0740   22.0754  -13.9898 C   0  0  0  0  0  0  0  0  0  0  0  0
  -45.0485   22.4835  -12.8630 N   0  0  0  0  0  0  0  0  0  0  0  0
  -45.0964   23.4175  -12.5554 H   0  0  0  0  0  0  0  0  0  0  0  0
  -45.8811   21.4779  -12.2740 C   0  0  0  0  0  0  0  0  0  0  0  0
  -46.3528   20.3988  -13.0530 N   0  0  0  0  0  0  0  0  0  0  0  0
  -46.2158   21.5481  -11.0352 N   0  0  0  0  0  0  0  0  0  0  0  0
  -46.1045   20.3321  -14.0033 H   0  0  0  0  0  0  0  0  0  0  0  0
  -46.9300   19.7130  -12.6458 H   0  0  0  0  0  0  0  0  0  0  0  0
  -45.8944   22.2949  -10.4800 H   0  0  0  0  0  0  0  0  0  0  0  0
  -43.1421   27.1990  -16.4000 C   0  0  0  0  0  0  0  0  0  0  0  0
  -43.9397   27.8345  -17.5479 C   0  0  0  0  0  0  0  0  0  0  0  0
  -43.0608   28.5322  -18.5868 C   0  0  0  0  0  0  0  0  0  0  0  0
  -43.8396   29.2676  -19.6600 C   0  0  0  0  0  0  0  0  0  0  0  0
  -44.9509   29.9411  -19.1698 N   0  0  0  0  0  0  0  0  0  0  0  0
  -43.5274   29.2686  -20.8465 O   0  0  0  0  0  0  0  0  0  0  0  0
  -45.1282   29.8807  -18.2032 H   0  0  0  0  0  0  0  0  0  0  0  0
  -45.8913   30.7440  -19.9886 C   0  0  0  0  0  0  0  0  0  0  0  0
  -47.3282   30.4647  -19.4910 C   0  0  0  0  0  0  0  0  0  0  0  0
  -47.5106   30.5623  -18.1608 N   0  0  0  0  0  0  0  0  0  0  0  0
  -48.7918   30.2889  -17.6607 O   0  0  0  0  0  0  0  0  0  0  0  0
  -48.2602   30.1525  -20.2320 O   0  0  0  0  0  0  0  0  0  0  0  0
  -46.7720   30.8162  -17.5615 H   0  0  0  0  0  0  0  0  0  0  0  0
  -49.3829   30.0582  -18.3943 H   0  0  0  0  0  0  0  0  0  0  0  0
  -45.5134   32.2289  -19.7760 C   0  0  0  0  0  0  0  0  0  0  0  0
  -44.5746   32.4658  -18.5615 C   0  0  0  0  0  0  0  0  0  0  0  0
  -45.1812   33.0362  -17.2563 C   0  0  0  0  0  0  0  0  0  0  0  0
  -46.3865   33.9715  -17.4935 C   0  0  0  0  0  0  0  0  0  0  0  0
  -47.6518   33.3207  -17.0722 N   0  0  0  0  0  0  0  0  0  0  0  0
  -47.7951   32.4709  -17.6178 H   0  0  0  0  0  0  0  0  0  0  0  0
  -48.4312   33.9601  -17.2277 H   0  0  0  0  0  0  0  0  0  0  0  0
  7  8  2  0  0  0
  7 12  1  0  0  0
  8  9  1  0  0  0
  9 10  2  0  0  0
  9  6  1  0  0  0
 10 11  1  0  0  0
 10 13  1  0  0  0
 11 12  2  0  0  0
  6  5  1  0  0  0
  5  4  1  0  0  0
  4  3  1  0  0  0
  3  2  1  0  0  0
  2  1  1  0  0  0
  1 22  1  0  0  0
 22 23  1  0  0  0
 23 24  1  0  0  0
 24 25  1  0  0  0
 25 26  1  0  0  0
 25 27  2  0  0  0
 26 29  1  0  0  0
 29 36  1  0  0  0
 29 30  1  0  0  0
 36 37  1  0  0  0
 30 31  1  0  0  0
 30 33  2  0  0  0
 31 32  1  0  0  0
 37 38  1  0  0  0
 38 39  1  0  0  0
 39 40  1  0  0  0
 13 14  1  0  0  0
 14 16  1  0  0  0
 16 17  1  0  0  0
 16 18  2  0  0  0
 26 28  1  0  0  0
 31 34  1  0  0  0
 40 41  1  0  0  0
 40 42  1  0  0  0
 14 15  1  0  0  0
 17 19  1  0  0  0
 17 20  1  0  0  0
 18 21  1  0  0  0
 32 35  1  0  0  0
M  END
> <minimizedAffinity>
-7.85219

$$$$
2D1N_FA4_A_1001


 42 42  0  0  0  0  0  0  0  0999 V2000
  -43.4268   29.1194  -17.9317 C   0  0  0  0  0  0  0  0  0  0  0  0
  -42.1388   29.8429  -17.5426 C   0  0  0  0  0  0  0  0  0  0  0  0
  -41.1625   28.8120  -16.9733 C   0  0  0  0  0  0  0  0  0  0  0  0
  -41.7376   27.8658  -15.9252 C   0  0  0  0  0  0  0  0  0  0  0  0
  -41.3692   26.3823  -16.0945 C   0  0  0  0  0  0  0  0  0  0  0  0
  -42.4409   25.3872  -15.5957 C   0  0  0  0  0  0  0  0  0  0  0  0
  -39.8135   23.6646  -13.3727 C   0  0  0  0  0  0  0  0  0  0  0  0
  -40.4885   24.5840  -14.2170 C   0  0  0  0  0  0  0  0  0  0  0  0
  -41.8172   24.3256  -14.6826 C   0  0  0  0  0  0  0  0  0  0  0  0
  -42.4739   23.0907  -14.2664 C   0  0  0  0  0  0  0  0  0  0  0  0
  -41.7609   22.1748  -13.4096 C   0  0  0  0  0  0  0  0  0  0  0  0
  -40.4505   22.4628  -12.9727 C   0  0  0  0  0  0  0  0  0  0  0  0
  -43.8876   22.7164  -14.6912 C   0  0  0  0  0  0  0  0  0  0  0  0
  -44.3414   21.4073  -14.0085 N   0  0  0  0  0  0  0  0  0  0  0  0
  -43.9555   20.5422  -14.2765 H   0  0  0  0  0  0  0  0  0  0  0  0
  -45.3341   21.4754  -12.9783 C   0  0  0  0  0  0  0  0  0  0  0  0
  -45.5432   22.6789  -12.2700 N   0  0  0  0  0  0  0  0  0  0  0  0
  -46.0398   20.4436  -12.6799 N   0  0  0  0  0  0  0  0  0  0  0  0
  -45.0098   23.4773  -12.4879 H   0  0  0  0  0  0  0  0  0  0  0  0
  -46.2222   22.7197  -11.5584 H   0  0  0  0  0  0  0  0  0  0  0  0
  -45.9049   19.5978  -13.1653 H   0  0  0  0  0  0  0  0  0  0  0  0
  -43.6537   29.0248  -19.4372 C   0  0  0  0  0  0  0  0  0  0  0  0
  -43.2062   30.3022  -20.1621 C   0  0  0  0  0  0  0  0  0  0  0  0
  -43.8310   30.4664  -21.5482 C   0  0  0  0  0  0  0  0  0  0  0  0
  -43.2580   29.5341  -22.5977 C   0  0  0  0  0  0  0  0  0  0  0  0
  -44.1004   29.3460  -23.6857 N   0  0  0  0  0  0  0  0  0  0  0  0
  -42.1614   28.9926  -22.5001 O   0  0  0  0  0  0  0  0  0  0  0  0
  -44.9649   29.8169  -23.6771 H   0  0  0  0  0  0  0  0  0  0  0  0
  -43.7993   28.4910  -24.8596 C   0  0  0  0  0  0  0  0  0  0  0  0
  -45.1252   27.8787  -25.3667 C   0  0  0  0  0  0  0  0  0  0  0  0
  -46.2317   28.2591  -24.7012 N   0  0  0  0  0  0  0  0  0  0  0  0
  -47.4546   27.7063  -25.1077 O   0  0  0  0  0  0  0  0  0  0  0  0
  -45.1968   27.0794  -26.3002 O   0  0  0  0  0  0  0  0  0  0  0  0
  -46.1841   28.9016  -23.9567 H   0  0  0  0  0  0  0  0  0  0  0  0
  -47.3045   27.0995  -25.8494 H   0  0  0  0  0  0  0  0  0  0  0  0
  -43.1710   29.4108  -25.9330 C   0  0  0  0  0  0  0  0  0  0  0  0
  -43.8730   30.7905  -26.0605 C   0  0  0  0  0  0  0  0  0  0  0  0
  -43.0084   32.0352  -26.3770 C   0  0  0  0  0  0  0  0  0  0  0  0
  -42.8542   32.3109  -27.8883 C   0  0  0  0  0  0  0  0  0  0  0  0
  -41.5205   32.8889  -28.1870 N   0  0  0  0  0  0  0  0  0  0  0  0
  -41.4136   33.7726  -27.6889 H   0  0  0  0  0  0  0  0  0  0  0  0
  -41.4375   33.0521  -29.1904 H   0  0  0  0  0  0  0  0  0  0  0  0
  7  8  2  0  0  0
  7 12  1  0  0  0
  8  9  1  0  0  0
  9 10  2  0  0  0
  9  6  1  0  0  0
 10 11  1  0  0  0
 10 13  1  0  0  0
 11 12  2  0  0  0
  6  5  1  0  0  0
  5  4  1  0  0  0
  4  3  1  0  0  0
  3  2  1  0  0  0
  2  1  1  0  0  0
  1 22  1  0  0  0
 22 23  1  0  0  0
 23 24  1  0  0  0
 24 25  1  0  0  0
 25 26  1  0  0  0
 25 27  2  0  0  0
 26 29  1  0  0  0
 29 36  1  0  0  0
 29 30  1  0  0  0
 36 37  1  0  0  0
 30 31  1  0  0  0
 30 33  2  0  0  0
 31 32  1  0  0  0
 37 38  1  0  0  0
 38 39  1  0  0  0
 39 40  1  0  0  0
 13 14  1  0  0  0
 14 16  1  0  0  0
 16 17  1  0  0  0
 16 18  2  0  0  0
 26 28  1  0  0  0
 31 34  1  0  0  0
 40 41  1  0  0  0
 40 42  1  0  0  0
 14 15  1  0  0  0
 17 19  1  0  0  0
 17 20  1  0  0  0
 18 21  1  0  0  0
 32 35  1  0  0  0
M  END
> <minimizedAffinity>
-7.84298

$$$$
