3A5Y_KAA_A_1990


 41 43  0  0  0  0  0  0  0  0999 V2000
    2.3986    1.2224   -3.6366 C   0  0  0  0  0  0  0  0  0  0  0  0
    2.7517    0.2251   -4.6040 O   0  0  0  0  0  0  0  0  0  0  0  0
    2.3969    2.5084   -4.4633 C   0  0  0  0  0  0  0  0  0  0  0  0
    2.5026    3.6251   -3.5761 O   0  0  0  0  0  0  0  0  0  0  0  0
    3.7127    2.3245   -5.2212 C   0  0  0  0  0  0  0  0  0  0  0  0
    4.8342    2.7033   -4.4162 O   0  0  0  0  0  0  0  0  0  0  0  0
    3.7502    0.8111   -5.4576 C   0  0  0  0  0  0  0  0  0  0  0  0
    3.2757    3.5097   -3.0018 H   0  0  0  0  0  0  0  0  0  0  0  0
    4.8304    2.1889   -3.5939 H   0  0  0  0  0  0  0  0  0  0  0  0
    3.3720    0.4708   -6.8455 N   0  0  0  0  0  0  0  0  0  0  0  0
    2.1515    0.1448   -7.2647 C   0  0  0  0  0  0  0  0  0  0  0  0
    2.1916   -0.1263   -8.5671 N   0  0  0  0  0  0  0  0  0  0  0  0
    3.4466    0.0263   -8.9804 C   0  0  0  0  0  0  0  0  0  0  0  0
    4.2006    0.4129   -7.8831 C   0  0  0  0  0  0  0  0  0  0  0  0
    5.5125    0.6449   -8.0319 N   0  0  0  0  0  0  0  0  0  0  0  0
    6.0871    0.5072   -9.2137 C   0  0  0  0  0  0  0  0  0  0  0  0
    5.4027    0.1355  -10.2802 N   0  0  0  0  0  0  0  0  0  0  0  0
    4.0881   -0.1156  -10.2049 C   0  0  0  0  0  0  0  0  0  0  0  0
    3.4139   -0.5070  -11.2830 N   0  0  0  0  0  0  0  0  0  0  0  0
    2.4485   -0.6896  -11.2205 H   0  0  0  0  0  0  0  0  0  0  0  0
    3.8804   -0.6139  -12.1433 H   0  0  0  0  0  0  0  0  0  0  0  0
    1.0322    0.9302   -3.0107 C   0  0  0  0  0  0  0  0  0  0  0  0
   -0.0292    1.5230   -3.7658 O   0  0  0  0  0  0  0  0  0  0  0  0
   -1.1965    0.7671   -4.1140 S   0  0  0  0  0  0  0  0  0  0  0  0
   -1.0411    0.2695   -5.5194 O   0  0  0  0  0  0  0  0  0  0  0  0
   -2.4071    1.6501   -4.0401 O   0  0  0  0  0  0  0  0  0  0  0  0
   -2.2421   -1.4014   -3.5468 C   0  0  0  0  0  0  0  0  0  0  0  0
   -2.7584   -1.3472   -4.6618 O   0  0  0  0  0  0  0  0  0  0  0  0
   -1.3966   -0.4835   -3.0877 N   0  0  0  0  0  0  0  0  0  0  0  0
   -0.9392   -0.5520   -2.2186 H   0  0  0  0  0  0  0  0  0  0  0  0
   -2.5602   -2.5758   -2.6196 C   0  0  0  0  0  0  0  0  0  0  0  0
   -1.3755   -3.4307   -2.4524 N   0  0  0  0  0  0  0  0  0  0  0  0
   -0.6160   -2.8838   -2.0469 H   0  0  0  0  0  0  0  0  0  0  0  0
   -1.0864   -3.7925   -3.3612 H   0  0  0  0  0  0  0  0  0  0  0  0
   -2.9955   -2.0228   -1.2609 C   0  0  0  0  0  0  0  0  0  0  0  0
   -2.7701   -3.0351   -0.1372 C   0  0  0  0  0  0  0  0  0  0  0  0
   -2.8877   -2.3424    1.2221 C   0  0  0  0  0  0  0  0  0  0  0  0
   -3.2334   -3.8376    3.1389 N   0  0  0  0  0  0  0  0  0  0  0  0
   -2.2143   -3.1529    2.3320 C   0  0  0  0  0  0  0  0  0  0  0  0
   -2.7781   -4.3755    3.8763 H   0  0  0  0  0  0  0  0  0  0  0  0
   -3.7730   -4.4658    2.5434 H   0  0  0  0  0  0  0  0  0  0  0  0
 38 39  1  0  0  0
 39 37  1  0  0  0
 37 36  1  0  0  0
 36 35  1  0  0  0
 35 31  1  0  0  0
 31 27  1  0  0  0
 31 32  1  0  0  0
 27 28  2  0  0  0
 27 29  1  0  0  0
 29 24  1  0  0  0
 24 25  2  0  0  0
 24 23  1  0  0  0
 24 26  2  0  0  0
 23 22  1  0  0  0
 22  1  1  0  0  0
  1  2  1  0  0  0
  1  3  1  0  0  0
  2  7  1  0  0  0
  3  5  1  0  0  0
  3  4  1  0  0  0
  5  7  1  0  0  0
  5  6  1  0  0  0
  7 10  1  0  0  0
 10 14  1  0  0  0
 10 11  1  0  0  0
 11 12  2  0  0  0
 12 13  1  0  0  0
 13 18  1  0  0  0
 13 14  2  0  0  0
 14 15  1  0  0  0
 15 16  2  0  0  0
 16 17  1  0  0  0
 17 18  2  0  0  0
 18 19  1  0  0  0
 38 40  1  0  0  0
 38 41  1  0  0  0
 32 33  1  0  0  0
 32 34  1  0  0  0
 29 30  1  0  0  0
  4  8  1  0  0  0
  6  9  1  0  0  0
 19 20  1  0  0  0
 19 21  1  0  0  0
M  END
> <minimizedAffinity>
-11.32681

$$$$
3A5Y_KAA_A_1990


 41 43  0  0  0  0  0  0  0  0999 V2000
    2.5955    0.7987   -3.6291 C   0  0  0  0  0  0  0  0  0  0  0  0
    3.0718   -0.0406   -4.6892 O   0  0  0  0  0  0  0  0  0  0  0  0
    2.2903    2.1119   -4.3500 C   0  0  0  0  0  0  0  0  0  0  0  0
    2.2346    3.1645   -3.3835 O   0  0  0  0  0  0  0  0  0  0  0  0
    3.5645    2.2448   -5.1856 C   0  0  0  0  0  0  0  0  0  0  0  0
    4.6411    2.7831   -4.4107 O   0  0  0  0  0  0  0  0  0  0  0  0
    3.8797    0.7885   -5.5429 C   0  0  0  0  0  0  0  0  0  0  0  0
    3.0511    3.1661   -2.8598 H   0  0  0  0  0  0  0  0  0  0  0  0
    4.7908    2.2235   -3.6327 H   0  0  0  0  0  0  0  0  0  0  0  0
    3.4853    0.4749   -6.9326 N   0  0  0  0  0  0  0  0  0  0  0  0
    2.2523    0.1980   -7.3508 C   0  0  0  0  0  0  0  0  0  0  0  0
    2.2787   -0.0627   -8.6556 N   0  0  0  0  0  0  0  0  0  0  0  0
    3.5372    0.0473   -9.0716 C   0  0  0  0  0  0  0  0  0  0  0  0
    4.3081    0.3958   -7.9733 C   0  0  0  0  0  0  0  0  0  0  0  0
    5.6273    0.5807   -8.1243 N   0  0  0  0  0  0  0  0  0  0  0  0
    6.1931    0.4325   -9.3090 C   0  0  0  0  0  0  0  0  0  0  0  0
    5.4923    0.0959  -10.3766 N   0  0  0  0  0  0  0  0  0  0  0  0
    4.1696   -0.1071  -10.2993 C   0  0  0  0  0  0  0  0  0  0  0  0
    3.4783   -0.4636  -11.3788 N   0  0  0  0  0  0  0  0  0  0  0  0
    2.5070   -0.6111  -11.3148 H   0  0  0  0  0  0  0  0  0  0  0  0
    3.9381   -0.5800  -12.2415 H   0  0  0  0  0  0  0  0  0  0  0  0
    1.3556    0.1993   -2.9602 C   0  0  0  0  0  0  0  0  0  0  0  0
    0.1739    0.9381   -3.2858 O   0  0  0  0  0  0  0  0  0  0  0  0
   -0.9945    0.2752   -3.7864 S   0  0  0  0  0  0  0  0  0  0  0  0
   -0.7001   -0.2347   -5.1649 O   0  0  0  0  0  0  0  0  0  0  0  0
   -2.1324    1.2501   -3.8595 O   0  0  0  0  0  0  0  0  0  0  0  0
   -2.3791   -1.7199   -3.3179 C   0  0  0  0  0  0  0  0  0  0  0  0
   -2.8406   -1.5593   -4.4466 O   0  0  0  0  0  0  0  0  0  0  0  0
   -1.4203   -0.9546   -2.8049 N   0  0  0  0  0  0  0  0  0  0  0  0
   -1.0103   -1.1142   -1.9241 H   0  0  0  0  0  0  0  0  0  0  0  0
   -2.9064   -2.8538   -2.4368 C   0  0  0  0  0  0  0  0  0  0  0  0
   -1.8125   -3.4380   -1.6464 N   0  0  0  0  0  0  0  0  0  0  0  0
   -1.4014   -2.7188   -1.0513 H   0  0  0  0  0  0  0  0  0  0  0  0
   -1.0992   -3.8081   -2.2745 H   0  0  0  0  0  0  0  0  0  0  0  0
   -3.9772   -2.2893   -1.5010 C   0  0  0  0  0  0  0  0  0  0  0  0
   -5.3761   -2.7780   -1.8784 C   0  0  0  0  0  0  0  0  0  0  0  0
   -5.2754   -3.9208   -2.8909 C   0  0  0  0  0  0  0  0  0  0  0  0
   -5.7456   -2.2947   -4.6697 N   0  0  0  0  0  0  0  0  0  0  0  0
   -6.0835   -3.6295   -4.1575 C   0  0  0  0  0  0  0  0  0  0  0  0
   -6.2873   -2.1070   -5.5133 H   0  0  0  0  0  0  0  0  0  0  0  0
   -4.7502   -2.2568   -4.8893 H   0  0  0  0  0  0  0  0  0  0  0  0
 38 39  1  0  0  0
 39 37  1  0  0  0
 37 36  1  0  0  0
 36 35  1  0  0  0
 35 31  1  0  0  0
 31 27  1  0  0  0
 31 32  1  0  0  0
 27 28  2  0  0  0
 27 29  1  0  0  0
 29 24  1  0  0  0
 24 25  2  0  0  0
 24 23  1  0  0  0
 24 26  2  0  0  0
 23 22  1  0  0  0
 22  1  1  0  0  0
  1  2  1  0  0  0
  1  3  1  0  0  0
  2  7  1  0  0  0
  3  5  1  0  0  0
  3  4  1  0  0  0
  5  7  1  0  0  0
  5  6  1  0  0  0
  7 10  1  0  0  0
 10 14  1  0  0  0
 10 11  1  0  0  0
 11 12  2  0  0  0
 12 13  1  0  0  0
 13 18  1  0  0  0
 13 14  2  0  0  0
 14 15  1  0  0  0
 15 16  2  0  0  0
 16 17  1  0  0  0
 17 18  2  0  0  0
 18 19  1  0  0  0
 38 40  1  0  0  0
 38 41  1  0  0  0
 32 33  1  0  0  0
 32 34  1  0  0  0
 29 30  1  0  0  0
  4  8  1  0  0  0
  6  9  1  0  0  0
 19 20  1  0  0  0
 19 21  1  0  0  0
M  END
> <minimizedAffinity>
-10.94186

$$$$
3A5Y_KAA_A_1990


 41 43  0  0  0  0  0  0  0  0999 V2000
    2.4479    1.0844   -3.6410 C   0  0  0  0  0  0  0  0  0  0  0  0
    2.8401    0.1238   -4.6301 O   0  0  0  0  0  0  0  0  0  0  0  0
    2.4012    2.3886   -4.4374 C   0  0  0  0  0  0  0  0  0  0  0  0
    2.4631    3.4872   -3.5239 O   0  0  0  0  0  0  0  0  0  0  0  0
    3.7250    2.2711   -5.1944 C   0  0  0  0  0  0  0  0  0  0  0  0
    4.8295    2.6717   -4.3766 O   0  0  0  0  0  0  0  0  0  0  0  0
    3.8188    0.7660   -5.4661 C   0  0  0  0  0  0  0  0  0  0  0  0
    3.2383    3.3868   -2.9495 H   0  0  0  0  0  0  0  0  0  0  0  0
    4.8423    2.1383   -3.5666 H   0  0  0  0  0  0  0  0  0  0  0  0
    3.4574    0.4449   -6.8630 N   0  0  0  0  0  0  0  0  0  0  0  0
    2.2405    0.1326   -7.3026 C   0  0  0  0  0  0  0  0  0  0  0  0
    2.2966   -0.1234   -8.6075 N   0  0  0  0  0  0  0  0  0  0  0  0
    3.5582    0.0251   -9.0018 C   0  0  0  0  0  0  0  0  0  0  0  0
    4.2997    0.3932   -7.8897 C   0  0  0  0  0  0  0  0  0  0  0  0
    5.6152    0.6176   -8.0179 N   0  0  0  0  0  0  0  0  0  0  0  0
    6.2050    0.4897   -9.1932 C   0  0  0  0  0  0  0  0  0  0  0  0
    5.5327    0.1354  -10.2733 N   0  0  0  0  0  0  0  0  0  0  0  0
    4.2155   -0.1070  -10.2190 C   0  0  0  0  0  0  0  0  0  0  0  0
    3.5535   -0.4808  -11.3108 N   0  0  0  0  0  0  0  0  0  0  0  0
    2.5861   -0.6572  -11.2637 H   0  0  0  0  0  0  0  0  0  0  0  0
    4.0310   -0.5810  -12.1659 H   0  0  0  0  0  0  0  0  0  0  0  0
    1.0913    0.7276   -3.0272 C   0  0  0  0  0  0  0  0  0  0  0  0
    0.0356    1.5093   -3.5952 O   0  0  0  0  0  0  0  0  0  0  0  0
   -0.9916    0.8961   -4.3853 S   0  0  0  0  0  0  0  0  0  0  0  0
   -2.1183    0.5005   -3.4793 O   0  0  0  0  0  0  0  0  0  0  0  0
   -0.4467   -0.3327   -5.0514 O   0  0  0  0  0  0  0  0  0  0  0  0
   -2.5071    1.4179   -6.2689 C   0  0  0  0  0  0  0  0  0  0  0  0
   -3.0156    0.3192   -6.0526 O   0  0  0  0  0  0  0  0  0  0  0  0
   -1.5210    1.9241   -5.5344 N   0  0  0  0  0  0  0  0  0  0  0  0
   -1.1494    2.8256   -5.6703 H   0  0  0  0  0  0  0  0  0  0  0  0
   -3.0176    2.2753   -7.4285 C   0  0  0  0  0  0  0  0  0  0  0  0
   -4.4371    2.6064   -7.2332 N   0  0  0  0  0  0  0  0  0  0  0  0
   -4.5484    3.1255   -6.3622 H   0  0  0  0  0  0  0  0  0  0  0  0
   -4.9838    1.7464   -7.1886 H   0  0  0  0  0  0  0  0  0  0  0  0
   -2.1897    3.5606   -7.4886 C   0  0  0  0  0  0  0  0  0  0  0  0
   -2.0581    4.0849   -8.9190 C   0  0  0  0  0  0  0  0  0  0  0  0
   -0.6691    4.6920   -9.1278 C   0  0  0  0  0  0  0  0  0  0  0  0
    0.9388    2.8398   -9.0122 N   0  0  0  0  0  0  0  0  0  0  0  0
    0.3913    3.9883   -8.2777 C   0  0  0  0  0  0  0  0  0  0  0  0
    1.6444    2.3756   -8.4404 H   0  0  0  0  0  0  0  0  0  0  0  0
    1.3641    3.1633   -9.8810 H   0  0  0  0  0  0  0  0  0  0  0  0
 38 39  1  0  0  0
 39 37  1  0  0  0
 37 36  1  0  0  0
 36 35  1  0  0  0
 35 31  1  0  0  0
 31 27  1  0  0  0
 31 32  1  0  0  0
 27 28  2  0  0  0
 27 29  1  0  0  0
 29 24  1  0  0  0
 24 25  2  0  0  0
 24 23  1  0  0  0
 24 26  2  0  0  0
 23 22  1  0  0  0
 22  1  1  0  0  0
  1  2  1  0  0  0
  1  3  1  0  0  0
  2  7  1  0  0  0
  3  5  1  0  0  0
  3  4  1  0  0  0
  5  7  1  0  0  0
  5  6  1  0  0  0
  7 10  1  0  0  0
 10 14  1  0  0  0
 10 11  1  0  0  0
 11 12  2  0  0  0
 12 13  1  0  0  0
 13 18  1  0  0  0
 13 14  2  0  0  0
 14 15  1  0  0  0
 15 16  2  0  0  0
 16 17  1  0  0  0
 17 18  2  0  0  0
 18 19  1  0  0  0
 38 40  1  0  0  0
 38 41  1  0  0  0
 32 33  1  0  0  0
 32 34  1  0  0  0
 29 30  1  0  0  0
  4  8  1  0  0  0
  6  9  1  0  0  0
 19 20  1  0  0  0
 19 21  1  0  0  0
M  END
> <minimizedAffinity>
-10.44767

$$$$
3A5Y_KAA_A_1990


 41 43  0  0  0  0  0  0  0  0999 V2000
    0.2479    0.3457   -4.1241 C   0  0  0  0  0  0  0  0  0  0  0  0
    0.8107   -0.4152   -5.2008 O   0  0  0  0  0  0  0  0  0  0  0  0
    1.0464    1.6483   -4.1783 C   0  0  0  0  0  0  0  0  0  0  0  0
    0.9196    2.3177   -2.9209 O   0  0  0  0  0  0  0  0  0  0  0  0
    2.4576    1.0751   -4.3182 C   0  0  0  0  0  0  0  0  0  0  0  0
    2.9820    0.6679   -3.0500 O   0  0  0  0  0  0  0  0  0  0  0  0
    2.2270   -0.1639   -5.1896 C   0  0  0  0  0  0  0  0  0  0  0  0
    1.1723    1.7130   -2.2057 H   0  0  0  0  0  0  0  0  0  0  0  0
    2.3820    0.0228   -2.6441 H   0  0  0  0  0  0  0  0  0  0  0  0
    2.6240    0.0798   -6.5925 N   0  0  0  0  0  0  0  0  0  0  0  0
    1.8099    0.0802   -7.6456 C   0  0  0  0  0  0  0  0  0  0  0  0
    2.5187    0.3060   -8.7492 N   0  0  0  0  0  0  0  0  0  0  0  0
    3.7933    0.4488   -8.3973 C   0  0  0  0  0  0  0  0  0  0  0  0
    3.8613    0.3099   -7.0196 C   0  0  0  0  0  0  0  0  0  0  0  0
    5.0461    0.4215   -6.4022 N   0  0  0  0  0  0  0  0  0  0  0  0
    6.1436    0.6617   -7.0975 C   0  0  0  0  0  0  0  0  0  0  0  0
    6.1188    0.7944   -8.4113 N   0  0  0  0  0  0  0  0  0  0  0  0
    4.9702    0.6928   -9.0947 C   0  0  0  0  0  0  0  0  0  0  0  0
    4.9619    0.8106  -10.4199 N   0  0  0  0  0  0  0  0  0  0  0  0
    4.1146    0.7349  -10.9155 H   0  0  0  0  0  0  0  0  0  0  0  0
    5.8030    0.9735  -10.9050 H   0  0  0  0  0  0  0  0  0  0  0  0
   -1.2523    0.5730   -4.3291 C   0  0  0  0  0  0  0  0  0  0  0  0
   -1.8973   -0.6002   -4.8347 O   0  0  0  0  0  0  0  0  0  0  0  0
   -3.3214   -0.6476   -4.9926 S   0  0  0  0  0  0  0  0  0  0  0  0
   -3.6551   -1.7079   -5.9981 O   0  0  0  0  0  0  0  0  0  0  0  0
   -3.8150    0.6761   -5.4974 O   0  0  0  0  0  0  0  0  0  0  0  0
   -3.6351   -2.1093   -3.0223 C   0  0  0  0  0  0  0  0  0  0  0  0
   -2.7472   -2.8090   -3.5067 O   0  0  0  0  0  0  0  0  0  0  0  0
   -4.0454   -0.9681   -3.5677 N   0  0  0  0  0  0  0  0  0  0  0  0
   -4.7165   -0.3784   -3.1541 H   0  0  0  0  0  0  0  0  0  0  0  0
   -4.3164   -2.5402   -1.7221 C   0  0  0  0  0  0  0  0  0  0  0  0
   -5.3109   -3.5900   -1.9897 N   0  0  0  0  0  0  0  0  0  0  0  0
   -4.8484   -4.3982   -2.4059 H   0  0  0  0  0  0  0  0  0  0  0  0
   -6.0170   -3.2333   -2.6336 H   0  0  0  0  0  0  0  0  0  0  0  0
   -3.2491   -3.0705   -0.7626 C   0  0  0  0  0  0  0  0  0  0  0  0
   -2.8724   -2.0340    0.2968 C   0  0  0  0  0  0  0  0  0  0  0  0
   -2.1237   -2.7102    1.4471 C   0  0  0  0  0  0  0  0  0  0  0  0
   -3.4096   -3.8542    3.1984 N   0  0  0  0  0  0  0  0  0  0  0  0
   -2.8669   -2.5560    2.7761 C   0  0  0  0  0  0  0  0  0  0  0  0
   -3.9034   -3.7445    4.0842 H   0  0  0  0  0  0  0  0  0  0  0  0
   -2.6460   -4.5203    3.3151 H   0  0  0  0  0  0  0  0  0  0  0  0
 38 39  1  0  0  0
 39 37  1  0  0  0
 37 36  1  0  0  0
 36 35  1  0  0  0
 35 31  1  0  0  0
 31 27  1  0  0  0
 31 32  1  0  0  0
 27 28  2  0  0  0
 27 29  1  0  0  0
 29 24  1  0  0  0
 24 25  2  0  0  0
 24 23  1  0  0  0
 24 26  2  0  0  0
 23 22  1  0  0  0
 22  1  1  0  0  0
  1  2  1  0  0  0
  1  3  1  0  0  0
  2  7  1  0  0  0
  3  5  1  0  0  0
  3  4  1  0  0  0
  5  7  1  0  0  0
  5  6  1  0  0  0
  7 10  1  0  0  0
 10 14  1  0  0  0
 10 11  1  0  0  0
 11 12  2  0  0  0
 12 13  1  0  0  0
 13 18  1  0  0  0
 13 14  2  0  0  0
 14 15  1  0  0  0
 15 16  2  0  0  0
 16 17  1  0  0  0
 17 18  2  0  0  0
 18 19  1  0  0  0
 38 40  1  0  0  0
 38 41  1  0  0  0
 32 33  1  0  0  0
 32 34  1  0  0  0
 29 30  1  0  0  0
  4  8  1  0  0  0
  6  9  1  0  0  0
 19 20  1  0  0  0
 19 21  1  0  0  0
M  END
> <minimizedAffinity>
-10.23874

$$$$
3A5Y_KAA_A_1990


 41 43  0  0  0  0  0  0  0  0999 V2000
    2.5828    0.7744   -3.6622 C   0  0  0  0  0  0  0  0  0  0  0  0
    3.0580   -0.0701   -4.7186 O   0  0  0  0  0  0  0  0  0  0  0  0
    2.3230    2.0989   -4.3803 C   0  0  0  0  0  0  0  0  0  0  0  0
    2.2750    3.1468   -3.4083 O   0  0  0  0  0  0  0  0  0  0  0  0
    3.6153    2.2055   -5.1915 C   0  0  0  0  0  0  0  0  0  0  0  0
    4.6902    2.7128   -4.3936 O   0  0  0  0  0  0  0  0  0  0  0  0
    3.9015    0.7440   -5.5522 C   0  0  0  0  0  0  0  0  0  0  0  0
    3.0815    3.1255   -2.8698 H   0  0  0  0  0  0  0  0  0  0  0  0
    4.8118    2.1452   -3.6165 H   0  0  0  0  0  0  0  0  0  0  0  0
    3.5253    0.4484   -6.9508 N   0  0  0  0  0  0  0  0  0  0  0  0
    2.2989    0.1713   -7.3876 C   0  0  0  0  0  0  0  0  0  0  0  0
    2.3422   -0.0706   -8.6956 N   0  0  0  0  0  0  0  0  0  0  0  0
    3.6050    0.0514   -9.0949 C   0  0  0  0  0  0  0  0  0  0  0  0
    4.3609    0.3881   -7.9825 C   0  0  0  0  0  0  0  0  0  0  0  0
    5.6809    0.5815   -8.1150 N   0  0  0  0  0  0  0  0  0  0  0  0
    6.2615    0.4531   -9.2948 C   0  0  0  0  0  0  0  0  0  0  0  0
    5.5753    0.1282  -10.3754 N   0  0  0  0  0  0  0  0  0  0  0  0
    4.2528   -0.0824  -10.3169 C   0  0  0  0  0  0  0  0  0  0  0  0
    3.5763   -0.4269  -11.4095 N   0  0  0  0  0  0  0  0  0  0  0  0
    2.6051   -0.5801  -11.3593 H   0  0  0  0  0  0  0  0  0  0  0  0
    4.0469   -0.5287  -12.2682 H   0  0  0  0  0  0  0  0  0  0  0  0
    1.3165    0.2016   -3.0199 C   0  0  0  0  0  0  0  0  0  0  0  0
    0.1828    1.0437   -3.2514 O   0  0  0  0  0  0  0  0  0  0  0  0
   -0.8922    0.6154   -4.0978 S   0  0  0  0  0  0  0  0  0  0  0  0
   -0.3182   -0.1726   -5.2364 O   0  0  0  0  0  0  0  0  0  0  0  0
   -1.6080    1.8143   -4.6461 O   0  0  0  0  0  0  0  0  0  0  0  0
   -2.7850   -0.9756   -4.0411 C   0  0  0  0  0  0  0  0  0  0  0  0
   -2.7064   -0.9807   -5.2685 O   0  0  0  0  0  0  0  0  0  0  0  0
   -1.9556   -0.2915   -3.2587 N   0  0  0  0  0  0  0  0  0  0  0  0
   -1.9810   -0.3289   -2.2752 H   0  0  0  0  0  0  0  0  0  0  0  0
   -3.8752   -1.7942   -3.3471 C   0  0  0  0  0  0  0  0  0  0  0  0
   -3.8170   -1.5931   -1.8916 N   0  0  0  0  0  0  0  0  0  0  0  0
   -3.9574   -0.6054   -1.6789 H   0  0  0  0  0  0  0  0  0  0  0  0
   -2.9052   -1.8895   -1.5435 H   0  0  0  0  0  0  0  0  0  0  0  0
   -5.2379   -1.3443   -3.8780 C   0  0  0  0  0  0  0  0  0  0  0  0
   -5.2297    0.1291   -4.2871 C   0  0  0  0  0  0  0  0  0  0  0  0
   -5.8866    0.2945   -5.6591 C   0  0  0  0  0  0  0  0  0  0  0  0
   -6.8809    2.1588   -4.4080 N   0  0  0  0  0  0  0  0  0  0  0  0
   -6.9828    1.3623   -5.6382 C   0  0  0  0  0  0  0  0  0  0  0  0
   -7.6138    2.8681   -4.4005 H   0  0  0  0  0  0  0  0  0  0  0  0
   -5.9681    2.6126   -4.3714 H   0  0  0  0  0  0  0  0  0  0  0  0
 38 39  1  0  0  0
 39 37  1  0  0  0
 37 36  1  0  0  0
 36 35  1  0  0  0
 35 31  1  0  0  0
 31 27  1  0  0  0
 31 32  1  0  0  0
 27 28  2  0  0  0
 27 29  1  0  0  0
 29 24  1  0  0  0
 24 25  2  0  0  0
 24 23  1  0  0  0
 24 26  2  0  0  0
 23 22  1  0  0  0
 22  1  1  0  0  0
  1  2  1  0  0  0
  1  3  1  0  0  0
  2  7  1  0  0  0
  3  5  1  0  0  0
  3  4  1  0  0  0
  5  7  1  0  0  0
  5  6  1  0  0  0
  7 10  1  0  0  0
 10 14  1  0  0  0
 10 11  1  0  0  0
 11 12  2  0  0  0
 12 13  1  0  0  0
 13 18  1  0  0  0
 13 14  2  0  0  0
 14 15  1  0  0  0
 15 16  2  0  0  0
 16 17  1  0  0  0
 17 18  2  0  0  0
 18 19  1  0  0  0
 38 40  1  0  0  0
 38 41  1  0  0  0
 32 33  1  0  0  0
 32 34  1  0  0  0
 29 30  1  0  0  0
  4  8  1  0  0  0
  6  9  1  0  0  0
 19 20  1  0  0  0
 19 21  1  0  0  0
M  END
> <minimizedAffinity>
-9.95980

$$$$
3A5Y_KAA_A_1990


 41 43  0  0  0  0  0  0  0  0999 V2000
    2.3924    1.1019   -3.6255 C   0  0  0  0  0  0  0  0  0  0  0  0
    2.7781    0.1322   -4.6083 O   0  0  0  0  0  0  0  0  0  0  0  0
    2.3593    2.4019   -4.4294 C   0  0  0  0  0  0  0  0  0  0  0  0
    2.4293    3.5051   -3.5220 O   0  0  0  0  0  0  0  0  0  0  0  0
    3.6837    2.2681   -5.1828 C   0  0  0  0  0  0  0  0  0  0  0  0
    4.7900    2.6633   -4.3649 O   0  0  0  0  0  0  0  0  0  0  0  0
    3.7643    0.7607   -5.4457 C   0  0  0  0  0  0  0  0  0  0  0  0
    3.2023    3.4010   -2.9454 H   0  0  0  0  0  0  0  0  0  0  0  0
    4.7962    2.1344   -3.5518 H   0  0  0  0  0  0  0  0  0  0  0  0
    3.4030    0.4349   -6.8416 N   0  0  0  0  0  0  0  0  0  0  0  0
    2.1901    0.1013   -7.2767 C   0  0  0  0  0  0  0  0  0  0  0  0
    2.2455   -0.1520   -8.5821 N   0  0  0  0  0  0  0  0  0  0  0  0
    3.5025    0.0198   -8.9814 C   0  0  0  0  0  0  0  0  0  0  0  0
    4.2419    0.3998   -7.8719 C   0  0  0  0  0  0  0  0  0  0  0  0
    5.5525    0.6481   -8.0051 N   0  0  0  0  0  0  0  0  0  0  0  0
    6.1397    0.5324   -9.1830 C   0  0  0  0  0  0  0  0  0  0  0  0
    5.4694    0.1675  -10.2608 N   0  0  0  0  0  0  0  0  0  0  0  0
    4.1571   -0.0988  -10.2014 C   0  0  0  0  0  0  0  0  0  0  0  0
    3.4974   -0.4831  -11.2911 N   0  0  0  0  0  0  0  0  0  0  0  0
    2.5335   -0.6770  -11.2402 H   0  0  0  0  0  0  0  0  0  0  0  0
    3.9731   -0.5735  -12.1482 H   0  0  0  0  0  0  0  0  0  0  0  0
    1.0314    0.7610   -3.0127 C   0  0  0  0  0  0  0  0  0  0  0  0
   -0.0414    1.3491   -3.7552 O   0  0  0  0  0  0  0  0  0  0  0  0
   -1.1648    0.5630   -4.1741 S   0  0  0  0  0  0  0  0  0  0  0  0
   -1.8207   -0.0179   -2.9580 O   0  0  0  0  0  0  0  0  0  0  0  0
   -0.6941   -0.5556   -5.0560 O   0  0  0  0  0  0  0  0  0  0  0  0
   -1.7832    1.8107   -6.2181 C   0  0  0  0  0  0  0  0  0  0  0  0
   -0.7194    1.4062   -6.6841 O   0  0  0  0  0  0  0  0  0  0  0  0
   -2.2248    1.4778   -5.0089 N   0  0  0  0  0  0  0  0  0  0  0  0
   -3.1006    1.7549   -4.6546 H   0  0  0  0  0  0  0  0  0  0  0  0
   -2.6718    2.7381   -7.0491 C   0  0  0  0  0  0  0  0  0  0  0  0
   -1.9708    3.9994   -7.3324 N   0  0  0  0  0  0  0  0  0  0  0  0
   -1.1161    3.8037   -7.8535 H   0  0  0  0  0  0  0  0  0  0  0  0
   -1.7353    4.4621   -6.4544 H   0  0  0  0  0  0  0  0  0  0  0  0
   -3.0217    2.0341   -8.3618 C   0  0  0  0  0  0  0  0  0  0  0  0
   -4.4802    2.2652   -8.7589 C   0  0  0  0  0  0  0  0  0  0  0  0
   -5.3404    2.4488   -7.5069 C   0  0  0  0  0  0  0  0  0  0  0  0
   -6.2307    4.2015   -8.9781 N   0  0  0  0  0  0  0  0  0  0  0  0
   -6.2117    3.7038   -7.5960 C   0  0  0  0  0  0  0  0  0  0  0  0
   -6.8127    5.0375   -9.0305 H   0  0  0  0  0  0  0  0  0  0  0  0
   -6.6120    3.4826   -9.5931 H   0  0  0  0  0  0  0  0  0  0  0  0
 38 39  1  0  0  0
 39 37  1  0  0  0
 37 36  1  0  0  0
 36 35  1  0  0  0
 35 31  1  0  0  0
 31 27  1  0  0  0
 31 32  1  0  0  0
 27 28  2  0  0  0
 27 29  1  0  0  0
 29 24  1  0  0  0
 24 25  2  0  0  0
 24 23  1  0  0  0
 24 26  2  0  0  0
 23 22  1  0  0  0
 22  1  1  0  0  0
  1  2  1  0  0  0
  1  3  1  0  0  0
  2  7  1  0  0  0
  3  5  1  0  0  0
  3  4  1  0  0  0
  5  7  1  0  0  0
  5  6  1  0  0  0
  7 10  1  0  0  0
 10 14  1  0  0  0
 10 11  1  0  0  0
 11 12  2  0  0  0
 12 13  1  0  0  0
 13 18  1  0  0  0
 13 14  2  0  0  0
 14 15  1  0  0  0
 15 16  2  0  0  0
 16 17  1  0  0  0
 17 18  2  0  0  0
 18 19  1  0  0  0
 38 40  1  0  0  0
 38 41  1  0  0  0
 32 33  1  0  0  0
 32 34  1  0  0  0
 29 30  1  0  0  0
  4  8  1  0  0  0
  6  9  1  0  0  0
 19 20  1  0  0  0
 19 21  1  0  0  0
M  END
> <minimizedAffinity>
-9.72764

$$$$
3A5Y_KAA_A_1990


 41 43  0  0  0  0  0  0  0  0999 V2000
    0.3802    0.3440   -4.0597 C   0  0  0  0  0  0  0  0  0  0  0  0
    1.0131   -0.4276   -5.0888 O   0  0  0  0  0  0  0  0  0  0  0  0
    1.0484    1.7114   -4.2043 C   0  0  0  0  0  0  0  0  0  0  0  0
    0.8585    2.4461   -2.9921 O   0  0  0  0  0  0  0  0  0  0  0  0
    2.5084    1.2696   -4.3171 C   0  0  0  0  0  0  0  0  0  0  0  0
    3.0712    0.9989   -3.0290 O   0  0  0  0  0  0  0  0  0  0  0  0
    2.3983   -0.0403   -5.1044 C   0  0  0  0  0  0  0  0  0  0  0  0
    1.1695    1.9168   -2.2411 H   0  0  0  0  0  0  0  0  0  0  0  0
    2.5371    0.3266   -2.5776 H   0  0  0  0  0  0  0  0  0  0  0  0
    2.7683    0.1485   -6.5231 N   0  0  0  0  0  0  0  0  0  0  0  0
    1.9323    0.1208   -7.5584 C   0  0  0  0  0  0  0  0  0  0  0  0
    2.6201    0.2986   -8.6839 N   0  0  0  0  0  0  0  0  0  0  0  0
    3.9034    0.4390   -8.3638 C   0  0  0  0  0  0  0  0  0  0  0  0
    3.9988    0.3487   -6.9836 C   0  0  0  0  0  0  0  0  0  0  0  0
    5.1974    0.4684   -6.3953 N   0  0  0  0  0  0  0  0  0  0  0  0
    6.2826    0.6708   -7.1213 C   0  0  0  0  0  0  0  0  0  0  0  0
    6.2317    0.7568   -8.4382 N   0  0  0  0  0  0  0  0  0  0  0  0
    5.0679    0.6442   -9.0937 C   0  0  0  0  0  0  0  0  0  0  0  0
    5.0329    0.7147  -10.4218 N   0  0  0  0  0  0  0  0  0  0  0  0
    4.1746    0.6312  -10.8967 H   0  0  0  0  0  0  0  0  0  0  0  0
    5.8654    0.8503  -10.9296 H   0  0  0  0  0  0  0  0  0  0  0  0
   -1.1352    0.4111   -4.2680 C   0  0  0  0  0  0  0  0  0  0  0  0
   -1.7047   -0.8944   -4.4076 O   0  0  0  0  0  0  0  0  0  0  0  0
   -3.1224   -1.0703   -4.5286 S   0  0  0  0  0  0  0  0  0  0  0  0
   -3.4443   -1.3808   -5.9593 O   0  0  0  0  0  0  0  0  0  0  0  0
   -3.8211    0.1977   -4.1354 O   0  0  0  0  0  0  0  0  0  0  0  0
   -4.9487   -2.4717   -3.6244 C   0  0  0  0  0  0  0  0  0  0  0  0
   -5.6853   -1.8599   -4.3962 O   0  0  0  0  0  0  0  0  0  0  0  0
   -3.6355   -2.2743   -3.5569 N   0  0  0  0  0  0  0  0  0  0  0  0
   -3.0356   -2.8005   -2.9802 H   0  0  0  0  0  0  0  0  0  0  0  0
   -5.5398   -3.5265   -2.6873 C   0  0  0  0  0  0  0  0  0  0  0  0
   -5.8426   -2.9335   -1.3761 N   0  0  0  0  0  0  0  0  0  0  0  0
   -6.5172   -2.1774   -1.4926 H   0  0  0  0  0  0  0  0  0  0  0  0
   -4.9858   -2.5642   -0.9640 H   0  0  0  0  0  0  0  0  0  0  0  0
   -6.8222   -4.0760   -3.3156 C   0  0  0  0  0  0  0  0  0  0  0  0
   -6.8264   -5.6048   -3.3530 C   0  0  0  0  0  0  0  0  0  0  0  0
   -5.5420   -6.1154   -4.0094 C   0  0  0  0  0  0  0  0  0  0  0  0
   -3.7040   -7.7326   -3.8206 N   0  0  0  0  0  0  0  0  0  0  0  0
   -4.7435   -7.0188   -3.0668 C   0  0  0  0  0  0  0  0  0  0  0  0
   -3.1759   -8.3325   -3.1869 H   0  0  0  0  0  0  0  0  0  0  0  0
   -3.0740   -7.0575   -4.2538 H   0  0  0  0  0  0  0  0  0  0  0  0
 38 39  1  0  0  0
 39 37  1  0  0  0
 37 36  1  0  0  0
 36 35  1  0  0  0
 35 31  1  0  0  0
 31 27  1  0  0  0
 31 32  1  0  0  0
 27 28  2  0  0  0
 27 29  1  0  0  0
 29 24  1  0  0  0
 24 25  2  0  0  0
 24 23  1  0  0  0
 24 26  2  0  0  0
 23 22  1  0  0  0
 22  1  1  0  0  0
  1  2  1  0  0  0
  1  3  1  0  0  0
  2  7  1  0  0  0
  3  5  1  0  0  0
  3  4  1  0  0  0
  5  7  1  0  0  0
  5  6  1  0  0  0
  7 10  1  0  0  0
 10 14  1  0  0  0
 10 11  1  0  0  0
 11 12  2  0  0  0
 12 13  1  0  0  0
 13 18  1  0  0  0
 13 14  2  0  0  0
 14 15  1  0  0  0
 15 16  2  0  0  0
 16 17  1  0  0  0
 17 18  2  0  0  0
 18 19  1  0  0  0
 38 40  1  0  0  0
 38 41  1  0  0  0
 32 33  1  0  0  0
 32 34  1  0  0  0
 29 30  1  0  0  0
  4  8  1  0  0  0
  6  9  1  0  0  0
 19 20  1  0  0  0
 19 21  1  0  0  0
M  END
> <minimizedAffinity>
-9.71538

$$$$
3A5Y_KAA_A_1990


 41 43  0  0  0  0  0  0  0  0999 V2000
    1.3671    0.1971   -4.3296 C   0  0  0  0  0  0  0  0  0  0  0  0
    2.2958   -0.2625   -5.3202 O   0  0  0  0  0  0  0  0  0  0  0  0
    0.5076    1.1925   -5.1091 C   0  0  0  0  0  0  0  0  0  0  0  0
   -0.1592    2.0505   -4.1794 O   0  0  0  0  0  0  0  0  0  0  0  0
    1.6102    1.9696   -5.8301 C   0  0  0  0  0  0  0  0  0  0  0  0
    2.1924    2.9600   -4.9761 O   0  0  0  0  0  0  0  0  0  0  0  0
    2.6483    0.8803   -6.1194 C   0  0  0  0  0  0  0  0  0  0  0  0
    0.4934    2.4523   -3.5848 H   0  0  0  0  0  0  0  0  0  0  0  0
    2.5328    2.5350   -4.1733 H   0  0  0  0  0  0  0  0  0  0  0  0
    2.5940    0.4424   -7.5302 N   0  0  0  0  0  0  0  0  0  0  0  0
    1.5069    0.0311   -8.1788 C   0  0  0  0  0  0  0  0  0  0  0  0
    1.8394   -0.3117   -9.4211 N   0  0  0  0  0  0  0  0  0  0  0  0
    3.1476   -0.1192   -9.5647 C   0  0  0  0  0  0  0  0  0  0  0  0
    3.6299    0.3675   -8.3594 C   0  0  0  0  0  0  0  0  0  0  0  0
    4.9332    0.6573   -8.2384 N   0  0  0  0  0  0  0  0  0  0  0  0
    5.7558    0.4817   -9.2573 C   0  0  0  0  0  0  0  0  0  0  0  0
    5.3340    0.0150  -10.4185 N   0  0  0  0  0  0  0  0  0  0  0  0
    4.0449   -0.2980  -10.6106 C   0  0  0  0  0  0  0  0  0  0  0  0
    3.6364   -0.7843  -11.7796 N   0  0  0  0  0  0  0  0  0  0  0  0
    2.6881   -1.0121  -11.9137 H   0  0  0  0  0  0  0  0  0  0  0  0
    4.2825   -0.9164  -12.5106 H   0  0  0  0  0  0  0  0  0  0  0  0
    0.5445   -0.9615   -3.7592 C   0  0  0  0  0  0  0  0  0  0  0  0
   -0.8339   -0.8601   -4.1306 O   0  0  0  0  0  0  0  0  0  0  0  0
   -1.8639   -1.4025   -3.2938 S   0  0  0  0  0  0  0  0  0  0  0  0
   -1.7473   -0.7852   -1.9328 O   0  0  0  0  0  0  0  0  0  0  0  0
   -1.6834   -2.8869   -3.1734 O   0  0  0  0  0  0  0  0  0  0  0  0
   -4.3210   -1.6815   -3.2496 C   0  0  0  0  0  0  0  0  0  0  0  0
   -4.1451   -2.3119   -2.2083 O   0  0  0  0  0  0  0  0  0  0  0  0
   -3.3350   -1.1032   -3.9290 N   0  0  0  0  0  0  0  0  0  0  0  0
   -3.4786   -0.5519   -4.7319 H   0  0  0  0  0  0  0  0  0  0  0  0
   -5.7344   -1.5281   -3.8141 C   0  0  0  0  0  0  0  0  0  0  0  0
   -6.7031   -2.2408   -2.9678 N   0  0  0  0  0  0  0  0  0  0  0  0
   -6.6788   -1.8546   -2.0241 H   0  0  0  0  0  0  0  0  0  0  0  0
   -6.4627   -3.2315   -2.9361 H   0  0  0  0  0  0  0  0  0  0  0  0
   -6.0842   -0.0392   -3.8603 C   0  0  0  0  0  0  0  0  0  0  0  0
   -5.6844    0.5969   -5.1922 C   0  0  0  0  0  0  0  0  0  0  0  0
   -5.4182    2.0913   -4.9990 C   0  0  0  0  0  0  0  0  0  0  0  0
   -3.3406    2.9207   -3.9864 N   0  0  0  0  0  0  0  0  0  0  0  0
   -3.9471    2.4408   -5.2355 C   0  0  0  0  0  0  0  0  0  0  0  0
   -2.3609    3.1517   -4.1510 H   0  0  0  0  0  0  0  0  0  0  0  0
   -3.4034    2.1915   -3.2759 H   0  0  0  0  0  0  0  0  0  0  0  0
 38 39  1  0  0  0
 39 37  1  0  0  0
 37 36  1  0  0  0
 36 35  1  0  0  0
 35 31  1  0  0  0
 31 27  1  0  0  0
 31 32  1  0  0  0
 27 28  2  0  0  0
 27 29  1  0  0  0
 29 24  1  0  0  0
 24 25  2  0  0  0
 24 23  1  0  0  0
 24 26  2  0  0  0
 23 22  1  0  0  0
 22  1  1  0  0  0
  1  2  1  0  0  0
  1  3  1  0  0  0
  2  7  1  0  0  0
  3  5  1  0  0  0
  3  4  1  0  0  0
  5  7  1  0  0  0
  5  6  1  0  0  0
  7 10  1  0  0  0
 10 14  1  0  0  0
 10 11  1  0  0  0
 11 12  2  0  0  0
 12 13  1  0  0  0
 13 18  1  0  0  0
 13 14  2  0  0  0
 14 15  1  0  0  0
 15 16  2  0  0  0
 16 17  1  0  0  0
 17 18  2  0  0  0
 18 19  1  0  0  0
 38 40  1  0  0  0
 38 41  1  0  0  0
 32 33  1  0  0  0
 32 34  1  0  0  0
 29 30  1  0  0  0
  4  8  1  0  0  0
  6  9  1  0  0  0
 19 20  1  0  0  0
 19 21  1  0  0  0
M  END
> <minimizedAffinity>
-9.45210

$$$$
3A5Y_KAA_A_1990


 41 43  0  0  0  0  0  0  0  0999 V2000
    0.3940    0.3155   -3.8657 C   0  0  0  0  0  0  0  0  0  0  0  0
    1.0389   -0.4441   -4.8964 O   0  0  0  0  0  0  0  0  0  0  0  0
    0.9998    1.7079   -4.0438 C   0  0  0  0  0  0  0  0  0  0  0  0
    0.8026    2.4523   -2.8388 O   0  0  0  0  0  0  0  0  0  0  0  0
    2.4749    1.3272   -4.1803 C   0  0  0  0  0  0  0  0  0  0  0  0
    3.0745    1.1006   -2.9003 O   0  0  0  0  0  0  0  0  0  0  0  0
    2.4056    0.0018   -4.9461 C   0  0  0  0  0  0  0  0  0  0  0  0
    1.1510    1.9484   -2.0867 H   0  0  0  0  0  0  0  0  0  0  0  0
    2.5789    0.4132   -2.4283 H   0  0  0  0  0  0  0  0  0  0  0  0
    2.7387    0.1845   -6.3747 N   0  0  0  0  0  0  0  0  0  0  0  0
    1.8740    0.1676   -7.3864 C   0  0  0  0  0  0  0  0  0  0  0  0
    2.5328    0.3351   -8.5307 N   0  0  0  0  0  0  0  0  0  0  0  0
    3.8263    0.4579   -8.2464 C   0  0  0  0  0  0  0  0  0  0  0  0
    3.9587    0.3672   -6.8693 C   0  0  0  0  0  0  0  0  0  0  0  0
    5.1747    0.4707   -6.3146 N   0  0  0  0  0  0  0  0  0  0  0  0
    6.2421    0.6574   -7.0706 C   0  0  0  0  0  0  0  0  0  0  0  0
    6.1558    0.7432   -8.3856 N   0  0  0  0  0  0  0  0  0  0  0  0
    4.9729    0.6463   -9.0085 C   0  0  0  0  0  0  0  0  0  0  0  0
    4.9021    0.7163  -10.3352 N   0  0  0  0  0  0  0  0  0  0  0  0
    4.0299    0.6444  -10.7861 H   0  0  0  0  0  0  0  0  0  0  0  0
    5.7219    0.8400  -10.8661 H   0  0  0  0  0  0  0  0  0  0  0  0
   -1.1266    0.3145   -4.0437 C   0  0  0  0  0  0  0  0  0  0  0  0
   -1.6150    1.6121   -4.3988 O   0  0  0  0  0  0  0  0  0  0  0  0
   -2.1984    1.8525   -5.6861 S   0  0  0  0  0  0  0  0  0  0  0  0
   -1.2861    1.2929   -6.7355 O   0  0  0  0  0  0  0  0  0  0  0  0
   -2.3440    3.3297   -5.9035 O   0  0  0  0  0  0  0  0  0  0  0  0
   -4.5072    1.5810   -4.8416 C   0  0  0  0  0  0  0  0  0  0  0  0
   -4.2209    2.4565   -4.0266 O   0  0  0  0  0  0  0  0  0  0  0  0
   -3.6709    1.1604   -5.7861 N   0  0  0  0  0  0  0  0  0  0  0  0
   -3.9156    0.5000   -6.4740 H   0  0  0  0  0  0  0  0  0  0  0  0
   -5.8902    0.9287   -4.8003 C   0  0  0  0  0  0  0  0  0  0  0  0
   -6.0835    0.0652   -5.9748 N   0  0  0  0  0  0  0  0  0  0  0  0
   -5.3718   -0.6655   -5.9805 H   0  0  0  0  0  0  0  0  0  0  0  0
   -6.0039    0.6240   -6.8244 H   0  0  0  0  0  0  0  0  0  0  0  0
   -6.0006    0.0958   -3.5215 C   0  0  0  0  0  0  0  0  0  0  0  0
   -5.2005   -1.2037   -3.6194 C   0  0  0  0  0  0  0  0  0  0  0  0
   -5.5608   -2.1287   -2.4550 C   0  0  0  0  0  0  0  0  0  0  0  0
   -6.3029   -3.5899   -4.2835 N   0  0  0  0  0  0  0  0  0  0  0  0
   -5.7595   -3.5736   -2.9187 C   0  0  0  0  0  0  0  0  0  0  0  0
   -6.4329   -4.5552   -4.5862 H   0  0  0  0  0  0  0  0  0  0  0  0
   -5.6528   -3.1204   -4.9139 H   0  0  0  0  0  0  0  0  0  0  0  0
 38 39  1  0  0  0
 39 37  1  0  0  0
 37 36  1  0  0  0
 36 35  1  0  0  0
 35 31  1  0  0  0
 31 27  1  0  0  0
 31 32  1  0  0  0
 27 28  2  0  0  0
 27 29  1  0  0  0
 29 24  1  0  0  0
 24 25  2  0  0  0
 24 23  1  0  0  0
 24 26  2  0  0  0
 23 22  1  0  0  0
 22  1  1  0  0  0
  1  2  1  0  0  0
  1  3  1  0  0  0
  2  7  1  0  0  0
  3  5  1  0  0  0
  3  4  1  0  0  0
  5  7  1  0  0  0
  5  6  1  0  0  0
  7 10  1  0  0  0
 10 14  1  0  0  0
 10 11  1  0  0  0
 11 12  2  0  0  0
 12 13  1  0  0  0
 13 18  1  0  0  0
 13 14  2  0  0  0
 14 15  1  0  0  0
 15 16  2  0  0  0
 16 17  1  0  0  0
 17 18  2  0  0  0
 18 19  1  0  0  0
 38 40  1  0  0  0
 38 41  1  0  0  0
 32 33  1  0  0  0
 32 34  1  0  0  0
 29 30  1  0  0  0
  4  8  1  0  0  0
  6  9  1  0  0  0
 19 20  1  0  0  0
 19 21  1  0  0  0
M  END
> <minimizedAffinity>
-9.27518

$$$$
3A5Y_KAA_A_1990


 41 43  0  0  0  0  0  0  0  0999 V2000
    0.5247    0.4681   -3.9664 C   0  0  0  0  0  0  0  0  0  0  0  0
    1.1140   -0.3288   -5.0022 O   0  0  0  0  0  0  0  0  0  0  0  0
    1.2019    1.8252   -4.1586 C   0  0  0  0  0  0  0  0  0  0  0  0
    1.0612    2.5835   -2.9543 O   0  0  0  0  0  0  0  0  0  0  0  0
    2.6525    1.3653   -4.3129 C   0  0  0  0  0  0  0  0  0  0  0  0
    3.2561    1.1115   -3.0399 O   0  0  0  0  0  0  0  0  0  0  0  0
    2.5018    0.0429   -5.0719 C   0  0  0  0  0  0  0  0  0  0  0  0
    1.3921    2.0643   -2.2047 H   0  0  0  0  0  0  0  0  0  0  0  0
    2.7308    0.4534   -2.5584 H   0  0  0  0  0  0  0  0  0  0  0  0
    2.8251    0.2021   -6.5056 N   0  0  0  0  0  0  0  0  0  0  0  0
    1.9534    0.1689   -7.5109 C   0  0  0  0  0  0  0  0  0  0  0  0
    2.6042    0.3176   -8.6623 N   0  0  0  0  0  0  0  0  0  0  0  0
    3.8996    0.4449   -8.3890 C   0  0  0  0  0  0  0  0  0  0  0  0
    4.0416    0.3767   -7.0116 C   0  0  0  0  0  0  0  0  0  0  0  0
    5.2614    0.4892   -6.4670 N   0  0  0  0  0  0  0  0  0  0  0  0
    6.3235    0.6635   -7.2333 C   0  0  0  0  0  0  0  0  0  0  0  0
    6.2282    0.7278   -8.5490 N   0  0  0  0  0  0  0  0  0  0  0  0
    5.0409    0.6209   -9.1620 C   0  0  0  0  0  0  0  0  0  0  0  0
    4.9610    0.6692  -10.4891 N   0  0  0  0  0  0  0  0  0  0  0  0
    4.0857    0.5900  -10.9328 H   0  0  0  0  0  0  0  0  0  0  0  0
    5.7771    0.7842  -11.0276 H   0  0  0  0  0  0  0  0  0  0  0  0
   -0.9961    0.5482   -4.1243 C   0  0  0  0  0  0  0  0  0  0  0  0
   -1.5567   -0.7235   -4.4657 O   0  0  0  0  0  0  0  0  0  0  0  0
   -2.5139   -1.3602   -3.6091 S   0  0  0  0  0  0  0  0  0  0  0  0
   -2.1762   -1.0289   -2.1868 O   0  0  0  0  0  0  0  0  0  0  0  0
   -2.4422   -2.8473   -3.7940 O   0  0  0  0  0  0  0  0  0  0  0  0
   -4.2948   -0.9139   -5.2664 C   0  0  0  0  0  0  0  0  0  0  0  0
   -3.5130   -1.3659   -6.1014 O   0  0  0  0  0  0  0  0  0  0  0  0
   -4.0239   -0.8600   -3.9657 N   0  0  0  0  0  0  0  0  0  0  0  0
   -4.6680   -0.5503   -3.2886 H   0  0  0  0  0  0  0  0  0  0  0  0
   -5.6601   -0.3873   -5.7121 C   0  0  0  0  0  0  0  0  0  0  0  0
   -6.3683    0.2227   -4.5768 N   0  0  0  0  0  0  0  0  0  0  0  0
   -5.8171    0.9983   -4.2093 H   0  0  0  0  0  0  0  0  0  0  0  0
   -6.5029   -0.4753   -3.8453 H   0  0  0  0  0  0  0  0  0  0  0  0
   -5.4475    0.6562   -6.8108 C   0  0  0  0  0  0  0  0  0  0  0  0
   -4.7125    1.8906   -6.2869 C   0  0  0  0  0  0  0  0  0  0  0  0
   -3.9402    2.5615   -7.4248 C   0  0  0  0  0  0  0  0  0  0  0  0
   -1.9791    1.0967   -7.2302 N   0  0  0  0  0  0  0  0  0  0  0  0
   -2.4277    2.4953   -7.2003 C   0  0  0  0  0  0  0  0  0  0  0  0
   -0.9709    1.0598   -7.0800 H   0  0  0  0  0  0  0  0  0  0  0  0
   -2.2030    0.6872   -8.1371 H   0  0  0  0  0  0  0  0  0  0  0  0
 38 39  1  0  0  0
 39 37  1  0  0  0
 37 36  1  0  0  0
 36 35  1  0  0  0
 35 31  1  0  0  0
 31 27  1  0  0  0
 31 32  1  0  0  0
 27 28  2  0  0  0
 27 29  1  0  0  0
 29 24  1  0  0  0
 24 25  2  0  0  0
 24 23  1  0  0  0
 24 26  2  0  0  0
 23 22  1  0  0  0
 22  1  1  0  0  0
  1  2  1  0  0  0
  1  3  1  0  0  0
  2  7  1  0  0  0
  3  5  1  0  0  0
  3  4  1  0  0  0
  5  7  1  0  0  0
  5  6  1  0  0  0
  7 10  1  0  0  0
 10 14  1  0  0  0
 10 11  1  0  0  0
 11 12  2  0  0  0
 12 13  1  0  0  0
 13 18  1  0  0  0
 13 14  2  0  0  0
 14 15  1  0  0  0
 15 16  2  0  0  0
 16 17  1  0  0  0
 17 18  2  0  0  0
 18 19  1  0  0  0
 38 40  1  0  0  0
 38 41  1  0  0  0
 32 33  1  0  0  0
 32 34  1  0  0  0
 29 30  1  0  0  0
  4  8  1  0  0  0
  6  9  1  0  0  0
 19 20  1  0  0  0
 19 21  1  0  0  0
M  END
> <minimizedAffinity>
-9.20538

$$$$
