2PQ9_GG9_A_501


 35 35  0  0  0  0  0  0  0  0999 V2000
   56.7277   11.9591   27.9330 C   0  0  0  0  0  0  0  0  0  0  0  0
   55.5679   11.1684   28.2118 C   0  0  0  0  0  0  0  0  0  0  0  0
   55.7067    9.8884   29.0334 C   0  0  0  0  0  0  0  0  0  0  0  0
   57.0200    9.8893   29.9371 C   0  0  0  0  0  0  0  0  0  0  0  0
   58.2678   10.1405   29.0418 C   0  0  0  0  0  0  0  0  0  0  0  0
   58.1007   11.5879   28.4329 C   0  0  0  0  0  0  0  0  0  0  0  0
   57.0663    8.6202   30.6079 O   0  0  0  0  0  0  0  0  0  0  0  0
   57.0766    7.9071   29.9504 H   0  0  0  0  0  0  0  0  0  0  0  0
   56.5639   13.2177   27.1348 C   0  0  0  0  0  0  0  0  0  0  0  0
   55.9087   13.1591   26.1113 O   0  0  0  0  0  0  0  0  0  0  0  0
   57.0679   14.2083   27.5789 O   0  0  0  0  0  0  0  0  0  0  0  0
   57.5585   14.1674   28.3761 H   0  0  0  0  0  0  0  0  0  0  0  0
   55.6410    8.6775   28.0579 O   0  0  0  0  0  0  0  0  0  0  0  0
   54.2703    7.7866   27.7668 P   0  0  0  0  0  0  0  0  0  0  0  0
   53.6434    7.5181   29.1382 O   0  0  0  0  0  0  0  0  0  0  0  0
   54.7727    6.4753   27.0276 O   0  0  0  0  0  0  0  0  0  0  0  0
   53.4545    8.7889   26.9105 O   0  0  0  0  0  0  0  0  0  0  0  0
   53.3591    8.3570   29.5335 H   0  0  0  0  0  0  0  0  0  0  0  0
   55.1568    6.7147   26.1697 H   0  0  0  0  0  0  0  0  0  0  0  0
   59.4492   10.0813   29.8508 O   0  0  0  0  0  0  0  0  0  0  0  0
   60.4720    9.0666   29.6891 C   0  0  0  0  0  0  0  0  0  0  0  0
   61.3600    9.1181   30.9073 C   0  0  0  0  0  0  0  0  0  0  0  0
   61.9388   10.2548   30.9780 O   0  0  0  0  0  0  0  0  0  0  0  0
   61.4955    8.2033   31.7423 O   0  0  0  0  0  0  0  0  0  0  0  0
   61.0395    7.3928   31.6275 H   0  0  0  0  0  0  0  0  0  0  0  0
   60.0054    7.5472   29.4940 C   0  0  0  0  0  0  0  0  0  0  0  0
   58.9499    7.4237   28.7660 F   0  0  0  0  0  0  0  0  0  0  0  0
   60.9907    6.7883   29.0591 F   0  0  0  0  0  0  0  0  0  0  0  0
   61.3515    9.4317   28.5478 O   0  0  0  0  0  0  0  0  0  0  0  0
   61.1898    9.5245   26.9111 P   0  0  0  0  0  0  0  0  0  0  0  0
   59.7950    8.9764   26.5394 O   0  0  0  0  0  0  0  0  0  0  0  0
   62.2844    8.6396   26.3905 O   0  0  0  0  0  0  0  0  0  0  0  0
   61.3328   10.9901   26.4311 O   0  0  0  0  0  0  0  0  0  0  0  0
   62.2630    8.6352   25.4207 H   0  0  0  0  0  0  0  0  0  0  0  0
   61.2349   11.0255   25.4667 H   0  0  0  0  0  0  0  0  0  0  0  0
  1  9  1  0  0  0
  1  2  2  0  0  0
  1  6  1  0  0  0
  2  3  1  0  0  0
  3 13  1  0  0  0
  3  4  1  0  0  0
  4  5  1  0  0  0
  4  7  1  0  0  0
  5  6  1  0  0  0
  5 20  1  0  0  0
  9 10  2  0  0  0
  9 11  1  0  0  0
 13 14  1  0  0  0
 20 21  1  0  0  0
 14 17  2  0  0  0
 14 15  1  0  0  0
 14 16  1  0  0  0
 21 29  1  0  0  0
 21 26  1  0  0  0
 21 22  1  0  0  0
 26 27  1  0  0  0
 26 28  1  0  0  0
 22 23  2  0  0  0
 22 24  1  0  0  0
 30 31  2  0  0  0
 30 33  1  0  0  0
 30 32  1  0  0  0
 30 29  1  0  0  0
  7  8  1  0  0  0
 11 12  1  0  0  0
 15 18  1  0  0  0
 16 19  1  0  0  0
 24 25  1  0  0  0
 32 34  1  0  0  0
 33 35  1  0  0  0
M  END
> <minimizedAffinity>
-11.70891

$$$$
