4WKB_TDI_A_301


 24 26  0  0  0  0  0  0  0  0999 V2000
   14.9201   -6.6852   19.3482 C   0  0  0  0  0  0  0  0  0  0  0  0
   13.0702   -7.5840   20.3931 C   0  0  0  0  0  0  0  0  0  0  0  0
   13.7929   -8.8248   20.6307 C   0  0  0  0  0  0  0  0  0  0  0  0
   15.1679   -8.8691   20.1811 C   0  0  0  0  0  0  0  0  0  0  0  0
   11.7267   -7.7865   20.9070 C   0  0  0  0  0  0  0  0  0  0  0  0
   11.7427   -9.0560   21.4486 C   0  0  0  0  0  0  0  0  0  0  0  0
   12.9530   -9.6462   21.2744 N   0  0  0  0  0  0  0  0  0  0  0  0
   15.9132   -9.9806   20.3726 N   0  0  0  0  0  0  0  0  0  0  0  0
   15.6730   -7.8018   19.5561 N   0  0  0  0  0  0  0  0  0  0  0  0
   13.6414   -6.5405   19.7397 N   0  0  0  0  0  0  0  0  0  0  0  0
   13.1821  -10.5538   21.5796 H   0  0  0  0  0  0  0  0  0  0  0  0
   15.5265  -10.7590   20.8351 H   0  0  0  0  0  0  0  0  0  0  0  0
   16.8427  -10.0117   20.0495 H   0  0  0  0  0  0  0  0  0  0  0  0
   10.5737   -6.8272   20.9923 C   0  0  0  0  0  0  0  0  0  0  0  0
    9.0878   -7.7267   17.7377 C   0  0  0  0  0  0  0  0  0  0  0  0
    9.2826   -8.0523   19.2255 C   0  0  0  0  0  0  0  0  0  0  0  0
    9.6154   -6.7492   19.8675 N   0  0  0  0  0  0  0  0  0  0  0  0
   10.0451   -5.8310   18.7744 C   0  0  0  0  0  0  0  0  0  0  0  0
    9.0652   -6.2103   17.6788 C   0  0  0  0  0  0  0  0  0  0  0  0
    7.7299   -5.7870   18.0156 O   0  0  0  0  0  0  0  0  0  0  0  0
    7.4761   -6.1676   18.8710 H   0  0  0  0  0  0  0  0  0  0  0  0
   10.2369   -8.3191   16.9200 C   0  0  0  0  0  0  0  0  0  0  0  0
    8.4876   -9.6762   15.3075 C   0  0  0  0  0  0  0  0  0  0  0  0
    9.8549   -8.5761   15.2171 S   0  0  0  0  0  0  0  0  0  0  0  0
  1  9  2  0  0  0
  1 10  1  0  0  0
  2  3  1  0  0  0
  2  5  1  0  0  0
  2 10  2  0  0  0
  3  4  2  0  0  0
  3  7  1  0  0  0
  4  8  1  0  0  0
  4  9  1  0  0  0
 23 24  1  0  0  0
 24 22  1  0  0  0
 22 15  1  0  0  0
 15 16  1  0  0  0
 15 19  1  0  0  0
 16 17  1  0  0  0
 17 14  1  0  0  0
 17 18  1  0  0  0
 14  5  1  0  0  0
  5  6  2  0  0  0
  6  7  1  0  0  0
 18 19  1  0  0  0
 19 20  1  0  0  0
  7 11  1  0  0  0
  8 12  1  0  0  0
  8 13  1  0  0  0
 20 21  1  0  0  0
M  END
> <minimizedAffinity>
-9.54534

$$$$
