3BUG_AEH_A_394


 15 15  0  0  0  0  0  0  0  0999 V2000
  -18.9454   40.1683   92.4298 C   0  0  0  0  0  0  0  0  0  0  0  0
  -20.1569   40.8452   94.4203 C   0  0  0  0  0  0  0  0  0  0  0  0
  -22.4180   41.5262   94.2361 O   0  0  0  0  0  0  0  0  0  0  0  0
  -21.2753   41.0757   93.6242 C   0  0  0  0  0  0  0  0  0  0  0  0
  -18.9869   40.3875   93.8147 C   0  0  0  0  0  0  0  0  0  0  0  0
  -20.0789   40.4039   91.6405 C   0  0  0  0  0  0  0  0  0  0  0  0
  -21.2594   40.8607   92.2353 C   0  0  0  0  0  0  0  0  0  0  0  0
  -22.4283   41.6694   95.1620 H   0  0  0  0  0  0  0  0  0  0  0  0
  -22.4906   41.1315   91.4093 C   0  0  0  0  0  0  0  0  0  0  0  0
  -22.1679   41.5305   89.9641 C   0  0  0  0  0  0  0  0  0  0  0  0
  -17.6765   39.6717   91.7912 C   0  0  0  0  0  0  0  0  0  0  0  0
  -15.6333   38.7805   92.9057 N   0  0  0  0  0  0  0  0  0  0  0  0
  -16.4487   40.0225   92.6389 C   0  0  0  0  0  0  0  0  0  0  0  0
  -14.8189   39.0232   93.4699 H   0  0  0  0  0  0  0  0  0  0  0  0
  -15.3258   38.3789   92.0200 H   0  0  0  0  0  0  0  0  0  0  0  0
  9 10  1  0  0  0
  9  7  1  0  0  0
  1 11  1  0  0  0
  1  5  2  0  0  0
  1  6  1  0  0  0
  2  4  2  0  0  0
  2  5  1  0  0  0
 11 13  1  0  0  0
 12 13  1  0  0  0
  3  4  1  0  0  0
  4  7  1  0  0  0
  6  7  2  0  0  0
 12 14  1  0  0  0
 12 15  1  0  0  0
  3  8  1  0  0  0
M  END
> <minimizedAffinity>
-5.37693

$$$$
3BUG_AEH_A_394


 15 15  0  0  0  0  0  0  0  0999 V2000
  -18.1418   40.5951   93.0831 C   0  0  0  0  0  0  0  0  0  0  0  0
  -19.9359   39.6321   91.7633 C   0  0  0  0  0  0  0  0  0  0  0  0
  -22.1759   39.8504   92.5019 O   0  0  0  0  0  0  0  0  0  0  0  0
  -20.8432   40.1054   92.7071 C   0  0  0  0  0  0  0  0  0  0  0  0
  -18.5775   39.8820   91.9565 C   0  0  0  0  0  0  0  0  0  0  0  0
  -19.0661   41.0662   94.0250 C   0  0  0  0  0  0  0  0  0  0  0  0
  -20.4316   40.8246   93.8423 C   0  0  0  0  0  0  0  0  0  0  0  0
  -22.4500   39.3709   91.7450 H   0  0  0  0  0  0  0  0  0  0  0  0
  -21.4470   41.3114   94.8441 C   0  0  0  0  0  0  0  0  0  0  0  0
  -20.8238   41.6971   96.1913 C   0  0  0  0  0  0  0  0  0  0  0  0
  -16.6730   40.8592   93.2764 C   0  0  0  0  0  0  0  0  0  0  0  0
  -15.2930   38.7951   93.0614 N   0  0  0  0  0  0  0  0  0  0  0  0
  -15.8215   40.0054   92.3303 C   0  0  0  0  0  0  0  0  0  0  0  0
  -14.7280   38.2332   92.4247 H   0  0  0  0  0  0  0  0  0  0  0  0
  -16.0747   38.2371   93.4048 H   0  0  0  0  0  0  0  0  0  0  0  0
  9 10  1  0  0  0
  9  7  1  0  0  0
  1 11  1  0  0  0
  1  5  2  0  0  0
  1  6  1  0  0  0
  2  4  2  0  0  0
  2  5  1  0  0  0
 11 13  1  0  0  0
 12 13  1  0  0  0
  3  4  1  0  0  0
  4  7  1  0  0  0
  6  7  2  0  0  0
 12 14  1  0  0  0
 12 15  1  0  0  0
  3  8  1  0  0  0
M  END
> <minimizedAffinity>
-5.18017

$$$$
3BUG_AEH_A_394


 15 15  0  0  0  0  0  0  0  0999 V2000
  -22.2453   42.6036   89.8768 C   0  0  0  0  0  0  0  0  0  0  0  0
  -22.9671   43.4016   92.0517 C   0  0  0  0  0  0  0  0  0  0  0  0
  -22.7551   41.9908   93.9425 O   0  0  0  0  0  0  0  0  0  0  0  0
  -22.5794   42.1798   92.5947 C   0  0  0  0  0  0  0  0  0  0  0  0
  -22.7959   43.6105   90.6834 C   0  0  0  0  0  0  0  0  0  0  0  0
  -21.8588   41.3787   90.4368 C   0  0  0  0  0  0  0  0  0  0  0  0
  -22.0227   41.1569   91.8079 C   0  0  0  0  0  0  0  0  0  0  0  0
  -23.1262   42.6730   94.4668 H   0  0  0  0  0  0  0  0  0  0  0  0
  -21.6247   39.8456   92.4353 C   0  0  0  0  0  0  0  0  0  0  0  0
  -20.5772   39.0817   91.6159 C   0  0  0  0  0  0  0  0  0  0  0  0
  -22.0643   42.8449   88.4025 C   0  0  0  0  0  0  0  0  0  0  0  0
  -20.6469   43.9153   86.6543 N   0  0  0  0  0  0  0  0  0  0  0  0
  -20.9395   43.8507   88.1338 C   0  0  0  0  0  0  0  0  0  0  0  0
  -19.8977   44.5864   86.4848 H   0  0  0  0  0  0  0  0  0  0  0  0
  -21.4860   44.2089   86.1543 H   0  0  0  0  0  0  0  0  0  0  0  0
  9 10  1  0  0  0
  9  7  1  0  0  0
  1 11  1  0  0  0
  1  5  2  0  0  0
  1  6  1  0  0  0
  2  4  2  0  0  0
  2  5  1  0  0  0
 11 13  1  0  0  0
 12 13  1  0  0  0
  3  4  1  0  0  0
  4  7  1  0  0  0
  6  7  2  0  0  0
 12 14  1  0  0  0
 12 15  1  0  0  0
  3  8  1  0  0  0
M  END
> <minimizedAffinity>
-5.13190

$$$$
3BUG_AEH_A_394


 15 15  0  0  0  0  0  0  0  0999 V2000
  -20.9515   41.0218   90.3162 C   0  0  0  0  0  0  0  0  0  0  0  0
  -20.6159   39.7642   92.3641 C   0  0  0  0  0  0  0  0  0  0  0  0
  -18.4242   39.1268   92.9972 O   0  0  0  0  0  0  0  0  0  0  0  0
  -19.2489   39.7591   92.1009 C   0  0  0  0  0  0  0  0  0  0  0  0
  -21.4686   40.4020   91.4634 C   0  0  0  0  0  0  0  0  0  0  0  0
  -19.5732   41.0095   90.0640 C   0  0  0  0  0  0  0  0  0  0  0  0
  -18.7066   40.3755   90.9602 C   0  0  0  0  0  0  0  0  0  0  0  0
  -18.7861   38.7159   93.7576 H   0  0  0  0  0  0  0  0  0  0  0  0
  -17.2209   40.3386   90.7091 C   0  0  0  0  0  0  0  0  0  0  0  0
  -16.5122   41.6386   91.1091 C   0  0  0  0  0  0  0  0  0  0  0  0
  -21.8839   41.7083   89.3551 C   0  0  0  0  0  0  0  0  0  0  0  0
  -21.4252   43.2838   87.4793 N   0  0  0  0  0  0  0  0  0  0  0  0
  -21.2436   41.8685   87.9718 C   0  0  0  0  0  0  0  0  0  0  0  0
  -20.9964   43.3812   86.5590 H   0  0  0  0  0  0  0  0  0  0  0  0
  -20.9812   43.9304   88.1314 H   0  0  0  0  0  0  0  0  0  0  0  0
  9 10  1  0  0  0
  9  7  1  0  0  0
  1 11  1  0  0  0
  1  5  2  0  0  0
  1  6  1  0  0  0
  2  4  2  0  0  0
  2  5  1  0  0  0
 11 13  1  0  0  0
 12 13  1  0  0  0
  3  4  1  0  0  0
  4  7  1  0  0  0
  6  7  2  0  0  0
 12 14  1  0  0  0
 12 15  1  0  0  0
  3  8  1  0  0  0
M  END
> <minimizedAffinity>
-4.91337

$$$$
3BUG_AEH_A_394


 15 15  0  0  0  0  0  0  0  0999 V2000
  -21.8614   41.3038   90.3551 C   0  0  0  0  0  0  0  0  0  0  0  0
  -21.2470   40.2818   92.4684 C   0  0  0  0  0  0  0  0  0  0  0  0
  -22.0804   41.1904   94.4909 O   0  0  0  0  0  0  0  0  0  0  0  0
  -22.0180   41.2398   93.1210 C   0  0  0  0  0  0  0  0  0  0  0  0
  -21.1722   40.3175   91.0762 C   0  0  0  0  0  0  0  0  0  0  0  0
  -22.6343   42.2617   91.0248 C   0  0  0  0  0  0  0  0  0  0  0  0
  -22.7198   42.2359   92.4206 C   0  0  0  0  0  0  0  0  0  0  0  0
  -21.6123   40.5262   94.9576 H   0  0  0  0  0  0  0  0  0  0  0  0
  -23.5360   43.2594   93.1674 C   0  0  0  0  0  0  0  0  0  0  0  0
  -23.3718   44.6795   92.6119 C   0  0  0  0  0  0  0  0  0  0  0  0
  -21.7731   41.3277   88.8531 C   0  0  0  0  0  0  0  0  0  0  0  0
  -20.7913   42.9530   87.2389 N   0  0  0  0  0  0  0  0  0  0  0  0
  -21.8360   42.7601   88.3114 C   0  0  0  0  0  0  0  0  0  0  0  0
  -20.8403   43.9082   86.8844 H   0  0  0  0  0  0  0  0  0  0  0  0
  -20.9623   42.2980   86.4760 H   0  0  0  0  0  0  0  0  0  0  0  0
  9 10  1  0  0  0
  9  7  1  0  0  0
  1 11  1  0  0  0
  1  5  2  0  0  0
  1  6  1  0  0  0
  2  4  2  0  0  0
  2  5  1  0  0  0
 11 13  1  0  0  0
 12 13  1  0  0  0
  3  4  1  0  0  0
  4  7  1  0  0  0
  6  7  2  0  0  0
 12 14  1  0  0  0
 12 15  1  0  0  0
  3  8  1  0  0  0
M  END
> <minimizedAffinity>
-4.81902

$$$$
3BUG_AEH_A_394


 15 15  0  0  0  0  0  0  0  0999 V2000
  -18.3249   41.1333   92.7659 C   0  0  0  0  0  0  0  0  0  0  0  0
  -19.7649   41.3746   94.7040 C   0  0  0  0  0  0  0  0  0  0  0  0
  -22.1057   41.1065   94.4603 O   0  0  0  0  0  0  0  0  0  0  0  0
  -20.8596   41.1111   93.8854 C   0  0  0  0  0  0  0  0  0  0  0  0
  -18.4911   41.3836   94.1361 C   0  0  0  0  0  0  0  0  0  0  0  0
  -19.4357   40.8689   91.9537 C   0  0  0  0  0  0  0  0  0  0  0  0
  -20.7185   40.8546   92.5108 C   0  0  0  0  0  0  0  0  0  0  0  0
  -22.1994   41.2776   95.3768 H   0  0  0  0  0  0  0  0  0  0  0  0
  -21.9318   40.5826   91.6591 C   0  0  0  0  0  0  0  0  0  0  0  0
  -21.7776   41.0830   90.2176 C   0  0  0  0  0  0  0  0  0  0  0  0
  -16.9440   41.1437   92.1682 C   0  0  0  0  0  0  0  0  0  0  0  0
  -16.1227   43.0603   90.8032 N   0  0  0  0  0  0  0  0  0  0  0  0
  -16.3274   42.5463   92.2077 C   0  0  0  0  0  0  0  0  0  0  0  0
  -15.7123   43.9934   90.8391 H   0  0  0  0  0  0  0  0  0  0  0  0
  -17.0211   43.1022   90.3222 H   0  0  0  0  0  0  0  0  0  0  0  0
  9 10  1  0  0  0
  9  7  1  0  0  0
  1 11  1  0  0  0
  1  5  2  0  0  0
  1  6  1  0  0  0
  2  4  2  0  0  0
  2  5  1  0  0  0
 11 13  1  0  0  0
 12 13  1  0  0  0
  3  4  1  0  0  0
  4  7  1  0  0  0
  6  7  2  0  0  0
 12 14  1  0  0  0
 12 15  1  0  0  0
  3  8  1  0  0  0
M  END
> <minimizedAffinity>
-4.72633

$$$$
3BUG_AEH_A_394


 15 15  0  0  0  0  0  0  0  0999 V2000
  -22.4869   42.2533   92.1359 C   0  0  0  0  0  0  0  0  0  0  0  0
  -21.5285   40.4296   90.8540 C   0  0  0  0  0  0  0  0  0  0  0  0
  -19.7612   39.1533   91.7806 O   0  0  0  0  0  0  0  0  0  0  0  0
  -20.6591   40.1826   91.9129 C   0  0  0  0  0  0  0  0  0  0  0  0
  -22.4473   41.4722   90.9715 C   0  0  0  0  0  0  0  0  0  0  0  0
  -21.6063   41.9933   93.1943 C   0  0  0  0  0  0  0  0  0  0  0  0
  -20.6815   40.9492   93.0906 C   0  0  0  0  0  0  0  0  0  0  0  0
  -19.7466   38.6424   90.9953 H   0  0  0  0  0  0  0  0  0  0  0  0
  -19.7161   40.6532   94.2095 C   0  0  0  0  0  0  0  0  0  0  0  0
  -18.5068   41.5963   94.2241 C   0  0  0  0  0  0  0  0  0  0  0  0
  -23.4858   43.3731   92.2489 C   0  0  0  0  0  0  0  0  0  0  0  0
  -25.2134   42.5775   93.8594 N   0  0  0  0  0  0  0  0  0  0  0  0
  -24.0296   43.4962   93.6766 C   0  0  0  0  0  0  0  0  0  0  0  0
  -25.5686   42.6659   94.8115 H   0  0  0  0  0  0  0  0  0  0  0  0
  -24.9248   41.6136   93.6923 H   0  0  0  0  0  0  0  0  0  0  0  0
  9 10  1  0  0  0
  9  7  1  0  0  0
  1 11  1  0  0  0
  1  5  2  0  0  0
  1  6  1  0  0  0
  2  4  2  0  0  0
  2  5  1  0  0  0
 11 13  1  0  0  0
 12 13  1  0  0  0
  3  4  1  0  0  0
  4  7  1  0  0  0
  6  7  2  0  0  0
 12 14  1  0  0  0
 12 15  1  0  0  0
  3  8  1  0  0  0
M  END
> <minimizedAffinity>
-4.60859

$$$$
3BUG_AEH_A_394


 15 15  0  0  0  0  0  0  0  0999 V2000
  -19.5162   40.7098   93.7601 C   0  0  0  0  0  0  0  0  0  0  0  0
  -19.2528   39.6552   91.5907 C   0  0  0  0  0  0  0  0  0  0  0  0
  -17.1457   39.7171   90.5103 O   0  0  0  0  0  0  0  0  0  0  0  0
  -17.9184   40.0521   91.5937 C   0  0  0  0  0  0  0  0  0  0  0  0
  -20.0526   39.9876   92.6838 C   0  0  0  0  0  0  0  0  0  0  0  0
  -18.1712   41.1025   93.7503 C   0  0  0  0  0  0  0  0  0  0  0  0
  -17.3573   40.7736   92.6614 C   0  0  0  0  0  0  0  0  0  0  0  0
  -17.5201   39.2361   89.7986 H   0  0  0  0  0  0  0  0  0  0  0  0
  -15.9098   41.1913   92.6199 C   0  0  0  0  0  0  0  0  0  0  0  0
  -15.7101   42.6105   92.0740 C   0  0  0  0  0  0  0  0  0  0  0  0
  -20.3910   41.0587   94.9337 C   0  0  0  0  0  0  0  0  0  0  0  0
  -21.3878   43.3167   94.5889 N   0  0  0  0  0  0  0  0  0  0  0  0
  -21.6387   41.8314   94.4917 C   0  0  0  0  0  0  0  0  0  0  0  0
  -22.2226   43.8226   94.2931 H   0  0  0  0  0  0  0  0  0  0  0  0
  -20.6053   43.5696   93.9854 H   0  0  0  0  0  0  0  0  0  0  0  0
  9 10  1  0  0  0
  9  7  1  0  0  0
  1 11  1  0  0  0
  1  5  2  0  0  0
  1  6  1  0  0  0
  2  4  2  0  0  0
  2  5  1  0  0  0
 11 13  1  0  0  0
 12 13  1  0  0  0
  3  4  1  0  0  0
  4  7  1  0  0  0
  6  7  2  0  0  0
 12 14  1  0  0  0
 12 15  1  0  0  0
  3  8  1  0  0  0
M  END
> <minimizedAffinity>
-4.60311

$$$$
3BUG_AEH_A_394


 15 15  0  0  0  0  0  0  0  0999 V2000
  -18.6467   41.8885   91.8230 C   0  0  0  0  0  0  0  0  0  0  0  0
  -19.9585   40.5427   93.3579 C   0  0  0  0  0  0  0  0  0  0  0  0
  -22.0790   39.7326   92.6814 O   0  0  0  0  0  0  0  0  0  0  0  0
  -20.9474   40.4490   92.3826 C   0  0  0  0  0  0  0  0  0  0  0  0
  -18.8019   41.2674   93.0712 C   0  0  0  0  0  0  0  0  0  0  0  0
  -19.6499   41.7855   90.8502 C   0  0  0  0  0  0  0  0  0  0  0  0
  -20.8138   41.0598   91.1239 C   0  0  0  0  0  0  0  0  0  0  0  0
  -22.1678   39.3255   93.5207 H   0  0  0  0  0  0  0  0  0  0  0  0
  -21.9131   40.9405   90.0997 C   0  0  0  0  0  0  0  0  0  0  0  0
  -21.5408   41.5558   88.7452 C   0  0  0  0  0  0  0  0  0  0  0  0
  -17.3918   42.6647   91.5274 C   0  0  0  0  0  0  0  0  0  0  0  0
  -15.2801   42.4197   90.2267 N   0  0  0  0  0  0  0  0  0  0  0  0
  -16.2252   41.7325   91.1825 C   0  0  0  0  0  0  0  0  0  0  0  0
  -14.5075   41.7927   90.0028 H   0  0  0  0  0  0  0  0  0  0  0  0
  -14.9151   43.2677   90.6604 H   0  0  0  0  0  0  0  0  0  0  0  0
  9 10  1  0  0  0
  9  7  1  0  0  0
  1 11  1  0  0  0
  1  5  2  0  0  0
  1  6  1  0  0  0
  2  4  2  0  0  0
  2  5  1  0  0  0
 11 13  1  0  0  0
 12 13  1  0  0  0
  3  4  1  0  0  0
  4  7  1  0  0  0
  6  7  2  0  0  0
 12 14  1  0  0  0
 12 15  1  0  0  0
  3  8  1  0  0  0
M  END
> <minimizedAffinity>
-4.56166

$$$$
3BUG_AEH_A_394


 15 15  0  0  0  0  0  0  0  0999 V2000
  -19.7087   40.5454   91.1054 C   0  0  0  0  0  0  0  0  0  0  0  0
  -18.5432   39.1681   92.7280 C   0  0  0  0  0  0  0  0  0  0  0  0
  -16.1761   39.2056   92.8059 O   0  0  0  0  0  0  0  0  0  0  0  0
  -17.3380   39.6590   92.2336 C   0  0  0  0  0  0  0  0  0  0  0  0
  -19.7337   39.6180   92.1576 C   0  0  0  0  0  0  0  0  0  0  0  0
  -18.4884   41.0317   90.6179 C   0  0  0  0  0  0  0  0  0  0  0  0
  -17.2871   40.5906   91.1824 C   0  0  0  0  0  0  0  0  0  0  0  0
  -16.2103   38.5845   93.5066 H   0  0  0  0  0  0  0  0  0  0  0  0
  -15.9599   41.0897   90.6717 C   0  0  0  0  0  0  0  0  0  0  0  0
  -15.6824   42.5501   91.0488 C   0  0  0  0  0  0  0  0  0  0  0  0
  -21.0017   41.0235   90.5021 C   0  0  0  0  0  0  0  0  0  0  0  0
  -23.1390   41.1511   91.7775 N   0  0  0  0  0  0  0  0  0  0  0  0
  -21.8218   41.8378   91.5087 C   0  0  0  0  0  0  0  0  0  0  0  0
  -23.6777   41.6995   92.4479 H   0  0  0  0  0  0  0  0  0  0  0  0
  -22.9659   40.2214   92.1598 H   0  0  0  0  0  0  0  0  0  0  0  0
  9 10  1  0  0  0
  9  7  1  0  0  0
  1 11  1  0  0  0
  1  5  2  0  0  0
  1  6  1  0  0  0
  2  4  2  0  0  0
  2  5  1  0  0  0
 11 13  1  0  0  0
 12 13  1  0  0  0
  3  4  1  0  0  0
  4  7  1  0  0  0
  6  7  2  0  0  0
 12 14  1  0  0  0
 12 15  1  0  0  0
  3  8  1  0  0  0
M  END
> <minimizedAffinity>
-4.55950

$$$$
