3KDD_JZQ_A_100


 49 53  0  0  0  0  0  0  0  0999 V2000
   15.9914   24.2090   17.8152 C   0  0  0  0  0  0  0  0  0  0  0  0
   15.6200   25.1628   18.8144 O   0  0  0  0  0  0  0  0  0  0  0  0
   15.5113   24.7125   19.6667 H   0  0  0  0  0  0  0  0  0  0  0  0
   14.8750   23.2018   17.6728 C   0  0  0  0  0  0  0  0  0  0  0  0
   14.1878   22.9276   18.6454 O   0  0  0  0  0  0  0  0  0  0  0  0
   14.6561   22.6684   16.4649 N   0  0  0  0  0  0  0  0  0  0  0  0
   13.5156   21.7530   16.2456 C   0  0  0  0  0  0  0  0  0  0  0  0
   13.2272   21.5399   14.7530 C   0  0  0  0  0  0  0  0  0  0  0  0
   15.4623   22.8877   15.2579 C   0  0  0  0  0  0  0  0  0  0  0  0
   12.2364   22.6000   14.3041 C   0  0  0  0  0  0  0  0  0  0  0  0
   12.7003   20.1577   14.3682 C   0  0  0  0  0  0  0  0  0  0  0  0
   14.7921   21.8359   14.0249 S   0  0  0  0  0  0  0  0  0  0  0  0
   13.6699   20.4450   16.9743 C   0  0  0  0  0  0  0  0  0  0  0  0
   14.7322   19.8292   16.9351 O   0  0  0  0  0  0  0  0  0  0  0  0
   12.5788   20.0406   17.6300 N   0  0  0  0  0  0  0  0  0  0  0  0
   11.8886   20.7047   17.8578 H   0  0  0  0  0  0  0  0  0  0  0  0
   10.0375   19.3143   18.2188 O   0  0  0  0  0  0  0  0  0  0  0  0
   12.3748   18.6622   18.0174 C   0  0  0  0  0  0  0  0  0  0  0  0
   12.6980   18.4438   19.4393 C   0  0  0  0  0  0  0  0  0  0  0  0
   13.7776   18.9649   20.1338 C   0  0  0  0  0  0  0  0  0  0  0  0
   13.8748   18.6228   21.4795 C   0  0  0  0  0  0  0  0  0  0  0  0
   10.9109   18.2097   17.9664 C   0  0  0  0  0  0  0  0  0  0  0  0
   11.7793   17.6229   20.0427 C   0  0  0  0  0  0  0  0  0  0  0  0
   11.8590   17.2749   21.3843 C   0  0  0  0  0  0  0  0  0  0  0  0
   12.9338   17.7929   22.0953 C   0  0  0  0  0  0  0  0  0  0  0  0
   10.7044   17.1991   19.0892 C   0  0  0  0  0  0  0  0  0  0  0  0
   10.1450   19.9778   17.5194 H   0  0  0  0  0  0  0  0  0  0  0  0
   17.3555   23.5905   18.1431 C   0  0  0  0  0  0  0  0  0  0  0  0
   18.7921   23.4018   15.7727 O   0  0  0  0  0  0  0  0  0  0  0  0
   19.0789   24.2796   16.5655 C   0  0  0  0  0  0  0  0  0  0  0  0
   18.3908   24.5041   17.6881 N   0  0  0  0  0  0  0  0  0  0  0  0
   18.5897   25.3080   18.2205 H   0  0  0  0  0  0  0  0  0  0  0  0
   20.2718   25.1621   16.2775 C   0  0  0  0  0  0  0  0  0  0  0  0
   19.9013   26.5346   16.1576 O   0  0  0  0  0  0  0  0  0  0  0  0
   18.2291   26.3552   13.9411 F   0  0  0  0  0  0  0  0  0  0  0  0
   22.1932   28.0273   15.9523 F   0  0  0  0  0  0  0  0  0  0  0  0
   20.8502   28.4851   12.6071 C   0  0  0  0  0  0  0  0  0  0  0  0
   19.6850   27.7271   12.6915 C   0  0  0  0  0  0  0  0  0  0  0  0
   19.3625   27.0760   13.8787 C   0  0  0  0  0  0  0  0  0  0  0  0
   20.2055   27.1795   14.9811 C   0  0  0  0  0  0  0  0  0  0  0  0
   21.3728   27.9263   14.8914 C   0  0  0  0  0  0  0  0  0  0  0  0
   21.6962   28.5810   13.7067 C   0  0  0  0  0  0  0  0  0  0  0  0
   17.5433   23.2781   19.6292 C   0  0  0  0  0  0  0  0  0  0  0  0
   19.0169   23.2289   19.9652 C   0  0  0  0  0  0  0  0  0  0  0  0
   21.7308   23.1584   20.5807 C   0  0  0  0  0  0  0  0  0  0  0  0
   19.7130   22.0191   19.9117 C   0  0  0  0  0  0  0  0  0  0  0  0
   19.6794   24.4002   20.3283 C   0  0  0  0  0  0  0  0  0  0  0  0
   21.0685   21.9846   20.2254 C   0  0  0  0  0  0  0  0  0  0  0  0
   21.0398   24.3694   20.6326 C   0  0  0  0  0  0  0  0  0  0  0  0
 35 39  1  0  0  0
 12  8  1  0  0  0
 12  9  1  0  0  0
 36 41  1  0  0  0
 31 30  1  0  0  0
 31 28  1  0  0  0
 34 33  1  0  0  0
 34 40  1  0  0  0
  6  4  1  0  0  0
  6  7  1  0  0  0
  6  9  1  0  0  0
  5  4  2  0  0  0
 15 13  1  0  0  0
 15 18  1  0  0  0
 14 13  2  0  0  0
  2  1  1  0  0  0
 17 22  1  0  0  0
 29 30  2  0  0  0
 30 33  1  0  0  0
 28  1  1  0  0  0
 28 43  1  0  0  0
  1  4  1  0  0  0
 43 44  1  0  0  0
  7  8  1  0  0  0
  7 13  1  0  0  0
  8 10  1  0  0  0
  8 11  1  0  0  0
 44 46  2  0  0  0
 44 47  1  0  0  0
 46 48  1  0  0  0
 48 45  2  0  0  0
 45 49  1  0  0  0
 49 47  2  0  0  0
 18 19  1  0  0  0
 18 22  1  0  0  0
 19 20  2  0  0  0
 19 23  1  0  0  0
 20 21  1  0  0  0
 21 25  2  0  0  0
 22 26  1  0  0  0
 23 24  2  0  0  0
 23 26  1  0  0  0
 24 25  1  0  0  0
 37 38  2  0  0  0
 37 42  1  0  0  0
 38 39  1  0  0  0
 39 40  2  0  0  0
 40 41  1  0  0  0
 41 42  2  0  0  0
 31 32  1  0  0  0
  2  3  1  0  0  0
 15 16  1  0  0  0
 17 27  1  0  0  0
M  END
> <minimizedAffinity>
-12.75443

$$$$
3KDD_JZQ_A_100


 49 53  0  0  0  0  0  0  0  0999 V2000
   15.3049   23.3145   18.1094 C   0  0  0  0  0  0  0  0  0  0  0  0
   14.2111   24.2223   18.2693 O   0  0  0  0  0  0  0  0  0  0  0  0
   14.1521   24.7979   17.4908 H   0  0  0  0  0  0  0  0  0  0  0  0
   16.5838   24.1130   18.0201 C   0  0  0  0  0  0  0  0  0  0  0  0
   16.5887   25.1698   17.4067 O   0  0  0  0  0  0  0  0  0  0  0  0
   17.6661   23.6446   18.6532 N   0  0  0  0  0  0  0  0  0  0  0  0
   18.9168   24.4330   18.6823 C   0  0  0  0  0  0  0  0  0  0  0  0
   19.9034   23.9089   19.7352 C   0  0  0  0  0  0  0  0  0  0  0  0
   17.7739   22.3624   19.3598 C   0  0  0  0  0  0  0  0  0  0  0  0
   19.6267   24.6264   21.0449 C   0  0  0  0  0  0  0  0  0  0  0  0
   21.3848   24.0457   19.3848 C   0  0  0  0  0  0  0  0  0  0  0  0
   19.4467   22.2234   19.8676 S   0  0  0  0  0  0  0  0  0  0  0  0
   19.5615   24.5532   17.3276 C   0  0  0  0  0  0  0  0  0  0  0  0
   19.5886   23.5937   16.5608 O   0  0  0  0  0  0  0  0  0  0  0  0
   20.0831   25.7542   17.0634 N   0  0  0  0  0  0  0  0  0  0  0  0
   19.7712   26.5313   17.5811 H   0  0  0  0  0  0  0  0  0  0  0  0
   21.6795   27.9224   17.3501 O   0  0  0  0  0  0  0  0  0  0  0  0
   21.0895   25.9540   16.0441 C   0  0  0  0  0  0  0  0  0  0  0  0
   20.5283   26.6059   14.8467 C   0  0  0  0  0  0  0  0  0  0  0  0
   19.3102   26.3309   14.2468 C   0  0  0  0  0  0  0  0  0  0  0  0
   18.9876   27.0835   13.1211 C   0  0  0  0  0  0  0  0  0  0  0  0
   22.1909   26.9441   16.4403 C   0  0  0  0  0  0  0  0  0  0  0  0
   21.3785   27.5613   14.3501 C   0  0  0  0  0  0  0  0  0  0  0  0
   21.0709   28.3232   13.2312 C   0  0  0  0  0  0  0  0  0  0  0  0
   19.8510   28.0621   12.6208 C   0  0  0  0  0  0  0  0  0  0  0  0
   22.6229   27.6787   15.1759 C   0  0  0  0  0  0  0  0  0  0  0  0
   21.3949   27.4856   18.1682 H   0  0  0  0  0  0  0  0  0  0  0  0
   15.0617   22.3851   16.9145 C   0  0  0  0  0  0  0  0  0  0  0  0
   13.9726   21.7731   19.3960 O   0  0  0  0  0  0  0  0  0  0  0  0
   14.3209   20.8633   18.6665 C   0  0  0  0  0  0  0  0  0  0  0  0
   14.7728   21.0545   17.4241 N   0  0  0  0  0  0  0  0  0  0  0  0
   14.9137   20.2752   16.8392 H   0  0  0  0  0  0  0  0  0  0  0  0
   14.2462   19.4445   19.1823 C   0  0  0  0  0  0  0  0  0  0  0  0
   13.0690   19.2215   19.9568 O   0  0  0  0  0  0  0  0  0  0  0  0
   11.6112   20.0072   17.7211 F   0  0  0  0  0  0  0  0  0  0  0  0
   12.5177   16.7856   21.0907 F   0  0  0  0  0  0  0  0  0  0  0  0
   10.1167   16.7606   18.3634 C   0  0  0  0  0  0  0  0  0  0  0  0
   10.3793   17.9967   17.7778 C   0  0  0  0  0  0  0  0  0  0  0  0
   11.3686   18.8210   18.3060 C   0  0  0  0  0  0  0  0  0  0  0  0
   12.0939   18.4123   19.4213 C   0  0  0  0  0  0  0  0  0  0  0  0
   11.8226   17.1846   20.0107 C   0  0  0  0  0  0  0  0  0  0  0  0
   10.8362   16.3568   19.4828 C   0  0  0  0  0  0  0  0  0  0  0  0
   13.9322   22.8547   15.9951 C   0  0  0  0  0  0  0  0  0  0  0  0
   13.6586   21.8099   14.9367 C   0  0  0  0  0  0  0  0  0  0  0  0
   13.1672   19.8965   12.9755 C   0  0  0  0  0  0  0  0  0  0  0  0
   12.5380   20.9820   15.0354 C   0  0  0  0  0  0  0  0  0  0  0  0
   14.5318   21.6775   13.8583 C   0  0  0  0  0  0  0  0  0  0  0  0
   12.2969   20.0218   14.0570 C   0  0  0  0  0  0  0  0  0  0  0  0
   14.2861   20.7234   12.8717 C   0  0  0  0  0  0  0  0  0  0  0  0
 35 39  1  0  0  0
 12  8  1  0  0  0
 12  9  1  0  0  0
 36 41  1  0  0  0
 31 30  1  0  0  0
 31 28  1  0  0  0
 34 33  1  0  0  0
 34 40  1  0  0  0
  6  4  1  0  0  0
  6  7  1  0  0  0
  6  9  1  0  0  0
  5  4  2  0  0  0
 15 13  1  0  0  0
 15 18  1  0  0  0
 14 13  2  0  0  0
  2  1  1  0  0  0
 17 22  1  0  0  0
 29 30  2  0  0  0
 30 33  1  0  0  0
 28  1  1  0  0  0
 28 43  1  0  0  0
  1  4  1  0  0  0
 43 44  1  0  0  0
  7  8  1  0  0  0
  7 13  1  0  0  0
  8 10  1  0  0  0
  8 11  1  0  0  0
 44 46  2  0  0  0
 44 47  1  0  0  0
 46 48  1  0  0  0
 48 45  2  0  0  0
 45 49  1  0  0  0
 49 47  2  0  0  0
 18 19  1  0  0  0
 18 22  1  0  0  0
 19 20  2  0  0  0
 19 23  1  0  0  0
 20 21  1  0  0  0
 21 25  2  0  0  0
 22 26  1  0  0  0
 23 24  2  0  0  0
 23 26  1  0  0  0
 24 25  1  0  0  0
 37 38  2  0  0  0
 37 42  1  0  0  0
 38 39  1  0  0  0
 39 40  2  0  0  0
 40 41  1  0  0  0
 41 42  2  0  0  0
 31 32  1  0  0  0
  2  3  1  0  0  0
 15 16  1  0  0  0
 17 27  1  0  0  0
M  END
> <minimizedAffinity>
-11.73037

$$$$
3KDD_JZQ_A_100


 49 53  0  0  0  0  0  0  0  0999 V2000
   19.5340   23.9528   19.2561 C   0  0  0  0  0  0  0  0  0  0  0  0
   18.6495   24.5521   20.2072 O   0  0  0  0  0  0  0  0  0  0  0  0
   18.3710   25.4237   19.8853 H   0  0  0  0  0  0  0  0  0  0  0  0
   20.7642   24.8198   19.1302 C   0  0  0  0  0  0  0  0  0  0  0  0
   20.7616   25.7526   18.3408 O   0  0  0  0  0  0  0  0  0  0  0  0
   21.8093   24.5518   19.9223 N   0  0  0  0  0  0  0  0  0  0  0  0
   23.0012   25.4271   19.9120 C   0  0  0  0  0  0  0  0  0  0  0  0
   23.9154   25.1692   21.1179 C   0  0  0  0  0  0  0  0  0  0  0  0
   21.9291   23.4223   20.8523 C   0  0  0  0  0  0  0  0  0  0  0  0
   23.4741   26.0779   22.2521 C   0  0  0  0  0  0  0  0  0  0  0  0
   25.4119   25.3571   20.8701 C   0  0  0  0  0  0  0  0  0  0  0  0
   23.5527   23.5015   21.5108 S   0  0  0  0  0  0  0  0  0  0  0  0
   23.7610   25.3617   18.6143 C   0  0  0  0  0  0  0  0  0  0  0  0
   24.6560   24.5354   18.4550 O   0  0  0  0  0  0  0  0  0  0  0  0
   23.3822   26.2598   17.7011 N   0  0  0  0  0  0  0  0  0  0  0  0
   22.4925   26.6734   17.7828 H   0  0  0  0  0  0  0  0  0  0  0  0
   24.9969   28.3950   18.1086 O   0  0  0  0  0  0  0  0  0  0  0  0
   24.2320   26.6465   16.5965 C   0  0  0  0  0  0  0  0  0  0  0  0
   23.5034   27.4670   15.6118 C   0  0  0  0  0  0  0  0  0  0  0  0
   22.2129   27.2600   15.1525 C   0  0  0  0  0  0  0  0  0  0  0  0
   21.7305   28.1745   14.2205 C   0  0  0  0  0  0  0  0  0  0  0  0
   25.3758   27.5887   16.9893 C   0  0  0  0  0  0  0  0  0  0  0  0
   24.2711   28.5114   15.1622 C   0  0  0  0  0  0  0  0  0  0  0  0
   23.8045   29.4344   14.2363 C   0  0  0  0  0  0  0  0  0  0  0  0
   22.5106   29.2427   13.7693 C   0  0  0  0  0  0  0  0  0  0  0  0
   25.6204   28.5274   15.8129 C   0  0  0  0  0  0  0  0  0  0  0  0
   24.8335   27.8255   18.8766 H   0  0  0  0  0  0  0  0  0  0  0  0
   18.8066   23.7006   17.9302 C   0  0  0  0  0  0  0  0  0  0  0  0
   18.0577   21.7043   16.1491 O   0  0  0  0  0  0  0  0  0  0  0  0
   17.4513   21.8132   17.1987 C   0  0  0  0  0  0  0  0  0  0  0  0
   17.7929   22.6827   18.1535 N   0  0  0  0  0  0  0  0  0  0  0  0
   17.3472   22.6330   19.0299 H   0  0  0  0  0  0  0  0  0  0  0  0
   16.2497   20.9293   17.4428 C   0  0  0  0  0  0  0  0  0  0  0  0
   15.0255   21.6533   17.3313 O   0  0  0  0  0  0  0  0  0  0  0  0
   15.4784   23.1783   15.0487 F   0  0  0  0  0  0  0  0  0  0  0  0
   13.0334   19.7688   17.2741 F   0  0  0  0  0  0  0  0  0  0  0  0
   12.7354   21.0925   13.9032 C   0  0  0  0  0  0  0  0  0  0  0  0
   13.7391   22.0578   13.9160 C   0  0  0  0  0  0  0  0  0  0  0  0
   14.5096   22.2459   15.0599 C   0  0  0  0  0  0  0  0  0  0  0  0
   14.2756   21.4717   16.1924 C   0  0  0  0  0  0  0  0  0  0  0  0
   13.2666   20.5177   16.1816 C   0  0  0  0  0  0  0  0  0  0  0  0
   12.4968   20.3252   15.0383 C   0  0  0  0  0  0  0  0  0  0  0  0
   18.1698   24.9577   17.3340 C   0  0  0  0  0  0  0  0  0  0  0  0
   18.5945   25.1183   15.8915 C   0  0  0  0  0  0  0  0  0  0  0  0
   19.3572   25.4190   13.2313 C   0  0  0  0  0  0  0  0  0  0  0  0
   19.7744   24.5278   15.4333 C   0  0  0  0  0  0  0  0  0  0  0  0
   17.7997   25.8594   15.0185 C   0  0  0  0  0  0  0  0  0  0  0  0
   20.1574   24.6840   14.1044 C   0  0  0  0  0  0  0  0  0  0  0  0
   18.1763   26.0080   13.6843 C   0  0  0  0  0  0  0  0  0  0  0  0
 35 39  1  0  0  0
 12  8  1  0  0  0
 12  9  1  0  0  0
 36 41  1  0  0  0
 31 30  1  0  0  0
 31 28  1  0  0  0
 34 33  1  0  0  0
 34 40  1  0  0  0
  6  4  1  0  0  0
  6  7  1  0  0  0
  6  9  1  0  0  0
  5  4  2  0  0  0
 15 13  1  0  0  0
 15 18  1  0  0  0
 14 13  2  0  0  0
  2  1  1  0  0  0
 17 22  1  0  0  0
 29 30  2  0  0  0
 30 33  1  0  0  0
 28  1  1  0  0  0
 28 43  1  0  0  0
  1  4  1  0  0  0
 43 44  1  0  0  0
  7  8  1  0  0  0
  7 13  1  0  0  0
  8 10  1  0  0  0
  8 11  1  0  0  0
 44 46  2  0  0  0
 44 47  1  0  0  0
 46 48  1  0  0  0
 48 45  2  0  0  0
 45 49  1  0  0  0
 49 47  2  0  0  0
 18 19  1  0  0  0
 18 22  1  0  0  0
 19 20  2  0  0  0
 19 23  1  0  0  0
 20 21  1  0  0  0
 21 25  2  0  0  0
 22 26  1  0  0  0
 23 24  2  0  0  0
 23 26  1  0  0  0
 24 25  1  0  0  0
 37 38  2  0  0  0
 37 42  1  0  0  0
 38 39  1  0  0  0
 39 40  2  0  0  0
 40 41  1  0  0  0
 41 42  2  0  0  0
 31 32  1  0  0  0
  2  3  1  0  0  0
 15 16  1  0  0  0
 17 27  1  0  0  0
M  END
> <minimizedAffinity>
-11.07723

$$$$
3KDD_JZQ_A_100


 49 53  0  0  0  0  0  0  0  0999 V2000
   17.0087   24.1770   17.7856 C   0  0  0  0  0  0  0  0  0  0  0  0
   16.3200   25.4306   17.7636 O   0  0  0  0  0  0  0  0  0  0  0  0
   16.4715   25.8678   16.9111 H   0  0  0  0  0  0  0  0  0  0  0  0
   18.4899   24.4394   17.6513 C   0  0  0  0  0  0  0  0  0  0  0  0
   19.2533   24.0163   18.5066 O   0  0  0  0  0  0  0  0  0  0  0  0
   18.9183   25.1023   16.5703 N   0  0  0  0  0  0  0  0  0  0  0  0
   20.3651   25.3009   16.3378 C   0  0  0  0  0  0  0  0  0  0  0  0
   20.6605   25.7536   14.9010 C   0  0  0  0  0  0  0  0  0  0  0  0
   18.0772   25.6999   15.5261 C   0  0  0  0  0  0  0  0  0  0  0  0
   20.8713   24.5159   14.0464 C   0  0  0  0  0  0  0  0  0  0  0  0
   21.8523   26.6956   14.7323 C   0  0  0  0  0  0  0  0  0  0  0  0
   19.1678   26.5484   14.4462 S   0  0  0  0  0  0  0  0  0  0  0  0
   20.9977   26.2173   17.3505 C   0  0  0  0  0  0  0  0  0  0  0  0
   20.6696   27.3995   17.4147 O   0  0  0  0  0  0  0  0  0  0  0  0
   21.9153   25.6382   18.1294 N   0  0  0  0  0  0  0  0  0  0  0  0
   21.9097   24.6580   18.2210 H   0  0  0  0  0  0  0  0  0  0  0  0
   24.1980   24.3301   18.7699 O   0  0  0  0  0  0  0  0  0  0  0  0
   22.9169   26.3993   18.8430 C   0  0  0  0  0  0  0  0  0  0  0  0
   22.6246   26.4630   20.2867 C   0  0  0  0  0  0  0  0  0  0  0  0
   21.3858   26.6629   20.8740 C   0  0  0  0  0  0  0  0  0  0  0  0
   21.3530   26.6800   22.2654 C   0  0  0  0  0  0  0  0  0  0  0  0
   24.3077   25.7545   18.8435 C   0  0  0  0  0  0  0  0  0  0  0  0
   23.7620   26.3029   21.0369 C   0  0  0  0  0  0  0  0  0  0  0  0
   23.7466   26.3135   22.4249 C   0  0  0  0  0  0  0  0  0  0  0  0
   22.5112   26.5088   23.0288 C   0  0  0  0  0  0  0  0  0  0  0  0
   24.9691   26.0930   20.1749 C   0  0  0  0  0  0  0  0  0  0  0  0
   23.7794   24.0809   17.9311 H   0  0  0  0  0  0  0  0  0  0  0  0
   16.4403   23.2328   16.7196 C   0  0  0  0  0  0  0  0  0  0  0  0
   17.1833   20.5573   16.8080 O   0  0  0  0  0  0  0  0  0  0  0  0
   16.1260   20.8905   17.3103 C   0  0  0  0  0  0  0  0  0  0  0  0
   15.7253   22.1620   17.3946 N   0  0  0  0  0  0  0  0  0  0  0  0
   14.9261   22.3792   17.9269 H   0  0  0  0  0  0  0  0  0  0  0  0
   15.2125   19.8219   17.8656 C   0  0  0  0  0  0  0  0  0  0  0  0
   14.3634   20.3296   18.8935 O   0  0  0  0  0  0  0  0  0  0  0  0
   14.8866   19.3222   21.4337 F   0  0  0  0  0  0  0  0  0  0  0  0
   12.0772   19.5240   17.6098 F   0  0  0  0  0  0  0  0  0  0  0  0
   11.7401   17.6601   20.7107 C   0  0  0  0  0  0  0  0  0  0  0  0
   12.8989   18.0539   21.3752 C   0  0  0  0  0  0  0  0  0  0  0  0
   13.7771   18.9495   20.7719 C   0  0  0  0  0  0  0  0  0  0  0  0
   13.4994   19.4496   19.5032 C   0  0  0  0  0  0  0  0  0  0  0  0
   12.3493   19.0468   18.8374 C   0  0  0  0  0  0  0  0  0  0  0  0
   11.4678   18.1540   19.4396 C   0  0  0  0  0  0  0  0  0  0  0  0
   15.5210   23.9293   15.7141 C   0  0  0  0  0  0  0  0  0  0  0  0
   14.5579   22.9292   15.1149 C   0  0  0  0  0  0  0  0  0  0  0  0
   12.7983   21.0845   13.9967 C   0  0  0  0  0  0  0  0  0  0  0  0
   13.2063   22.9530   15.4663 C   0  0  0  0  0  0  0  0  0  0  0  0
   15.0266   21.9816   14.2064 C   0  0  0  0  0  0  0  0  0  0  0  0
   12.3289   22.0263   14.9109 C   0  0  0  0  0  0  0  0  0  0  0  0
   14.1470   21.0592   13.6408 C   0  0  0  0  0  0  0  0  0  0  0  0
 35 39  1  0  0  0
 12  8  1  0  0  0
 12  9  1  0  0  0
 36 41  1  0  0  0
 31 30  1  0  0  0
 31 28  1  0  0  0
 34 33  1  0  0  0
 34 40  1  0  0  0
  6  4  1  0  0  0
  6  7  1  0  0  0
  6  9  1  0  0  0
  5  4  2  0  0  0
 15 13  1  0  0  0
 15 18  1  0  0  0
 14 13  2  0  0  0
  2  1  1  0  0  0
 17 22  1  0  0  0
 29 30  2  0  0  0
 30 33  1  0  0  0
 28  1  1  0  0  0
 28 43  1  0  0  0
  1  4  1  0  0  0
 43 44  1  0  0  0
  7  8  1  0  0  0
  7 13  1  0  0  0
  8 10  1  0  0  0
  8 11  1  0  0  0
 44 46  2  0  0  0
 44 47  1  0  0  0
 46 48  1  0  0  0
 48 45  2  0  0  0
 45 49  1  0  0  0
 49 47  2  0  0  0
 18 19  1  0  0  0
 18 22  1  0  0  0
 19 20  2  0  0  0
 19 23  1  0  0  0
 20 21  1  0  0  0
 21 25  2  0  0  0
 22 26  1  0  0  0
 23 24  2  0  0  0
 23 26  1  0  0  0
 24 25  1  0  0  0
 37 38  2  0  0  0
 37 42  1  0  0  0
 38 39  1  0  0  0
 39 40  2  0  0  0
 40 41  1  0  0  0
 41 42  2  0  0  0
 31 32  1  0  0  0
  2  3  1  0  0  0
 15 16  1  0  0  0
 17 27  1  0  0  0
M  END
> <minimizedAffinity>
-10.85742

$$$$
3KDD_JZQ_A_100


 49 53  0  0  0  0  0  0  0  0999 V2000
   21.1899   24.7924   19.9009 C   0  0  0  0  0  0  0  0  0  0  0  0
   20.5749   25.6136   20.8977 O   0  0  0  0  0  0  0  0  0  0  0  0
   20.4672   26.5140   20.5534 H   0  0  0  0  0  0  0  0  0  0  0  0
   22.5629   25.3459   19.6015 C   0  0  0  0  0  0  0  0  0  0  0  0
   22.6821   26.5258   19.3066 O   0  0  0  0  0  0  0  0  0  0  0  0
   23.6124   24.5219   19.7062 N   0  0  0  0  0  0  0  0  0  0  0  0
   24.9877   25.0330   19.5213 C   0  0  0  0  0  0  0  0  0  0  0  0
   26.0438   24.0396   20.0257 C   0  0  0  0  0  0  0  0  0  0  0  0
   23.5637   23.0829   19.9924 C   0  0  0  0  0  0  0  0  0  0  0  0
   26.3169   24.3386   21.4896 C   0  0  0  0  0  0  0  0  0  0  0  0
   27.3642   24.0249   19.2559 C   0  0  0  0  0  0  0  0  0  0  0  0
   25.2150   22.5046   19.8723 S   0  0  0  0  0  0  0  0  0  0  0  0
   25.2630   25.4664   18.1065 C   0  0  0  0  0  0  0  0  0  0  0  0
   25.6428   24.6541   17.2667 O   0  0  0  0  0  0  0  0  0  0  0  0
   25.0674   26.7671   17.8741 N   0  0  0  0  0  0  0  0  0  0  0  0
   24.4963   27.2788   18.4915 H   0  0  0  0  0  0  0  0  0  0  0  0
   25.9147   29.3016   18.3104 O   0  0  0  0  0  0  0  0  0  0  0  0
   25.6646   27.4508   16.7482 C   0  0  0  0  0  0  0  0  0  0  0  0
   24.6407   28.0163   15.8506 C   0  0  0  0  0  0  0  0  0  0  0  0
   23.4615   27.4089   15.4509 C   0  0  0  0  0  0  0  0  0  0  0  0
   22.6422   28.1429   14.5978 C   0  0  0  0  0  0  0  0  0  0  0  0
   26.4594   28.7050   17.1298 C   0  0  0  0  0  0  0  0  0  0  0  0
   24.9896   29.2708   15.4183 C   0  0  0  0  0  0  0  0  0  0  0  0
   24.1827   30.0177   14.5708 C   0  0  0  0  0  0  0  0  0  0  0  0
   22.9948   29.4240   14.1644 C   0  0  0  0  0  0  0  0  0  0  0  0
   26.3001   29.7110   15.9951 C   0  0  0  0  0  0  0  0  0  0  0  0
   26.0009   28.6845   19.0538 H   0  0  0  0  0  0  0  0  0  0  0  0
   20.2822   24.6688   18.6714 C   0  0  0  0  0  0  0  0  0  0  0  0
   19.2863   22.1019   19.0420 O   0  0  0  0  0  0  0  0  0  0  0  0
   18.5389   23.0501   19.1954 C   0  0  0  0  0  0  0  0  0  0  0  0
   18.9457   24.3205   19.1254 N   0  0  0  0  0  0  0  0  0  0  0  0
   18.3253   25.0385   19.3876 H   0  0  0  0  0  0  0  0  0  0  0  0
   17.0766   22.7893   19.4756 C   0  0  0  0  0  0  0  0  0  0  0  0
   16.5695   21.7097   18.6928 O   0  0  0  0  0  0  0  0  0  0  0  0
   13.8522   22.3009   18.7834 F   0  0  0  0  0  0  0  0  0  0  0  0
   17.8389   21.7505   16.2617 F   0  0  0  0  0  0  0  0  0  0  0  0
   14.4719   22.6361   15.2211 C   0  0  0  0  0  0  0  0  0  0  0  0
   13.8098   22.6149   16.4461 C   0  0  0  0  0  0  0  0  0  0  0  0
   14.5090   22.3089   17.6101 C   0  0  0  0  0  0  0  0  0  0  0  0
   15.8693   22.0209   17.5503 C   0  0  0  0  0  0  0  0  0  0  0  0
   16.5252   22.0312   16.3264 C   0  0  0  0  0  0  0  0  0  0  0  0
   15.8294   22.3401   15.1613 C   0  0  0  0  0  0  0  0  0  0  0  0
   20.2353   25.9371   17.8166 C   0  0  0  0  0  0  0  0  0  0  0  0
   19.6533   25.6230   16.4567 C   0  0  0  0  0  0  0  0  0  0  0  0
   18.5998   25.0495   13.9446 C   0  0  0  0  0  0  0  0  0  0  0  0
   18.2693   25.5960   16.2704 C   0  0  0  0  0  0  0  0  0  0  0  0
   20.5071   25.3612   15.3865 C   0  0  0  0  0  0  0  0  0  0  0  0
   17.7441   25.3033   15.0152 C   0  0  0  0  0  0  0  0  0  0  0  0
   19.9829   25.0782   14.1258 C   0  0  0  0  0  0  0  0  0  0  0  0
 35 39  1  0  0  0
 12  8  1  0  0  0
 12  9  1  0  0  0
 36 41  1  0  0  0
 31 30  1  0  0  0
 31 28  1  0  0  0
 34 33  1  0  0  0
 34 40  1  0  0  0
  6  4  1  0  0  0
  6  7  1  0  0  0
  6  9  1  0  0  0
  5  4  2  0  0  0
 15 13  1  0  0  0
 15 18  1  0  0  0
 14 13  2  0  0  0
  2  1  1  0  0  0
 17 22  1  0  0  0
 29 30  2  0  0  0
 30 33  1  0  0  0
 28  1  1  0  0  0
 28 43  1  0  0  0
  1  4  1  0  0  0
 43 44  1  0  0  0
  7  8  1  0  0  0
  7 13  1  0  0  0
  8 10  1  0  0  0
  8 11  1  0  0  0
 44 46  2  0  0  0
 44 47  1  0  0  0
 46 48  1  0  0  0
 48 45  2  0  0  0
 45 49  1  0  0  0
 49 47  2  0  0  0
 18 19  1  0  0  0
 18 22  1  0  0  0
 19 20  2  0  0  0
 19 23  1  0  0  0
 20 21  1  0  0  0
 21 25  2  0  0  0
 22 26  1  0  0  0
 23 24  2  0  0  0
 23 26  1  0  0  0
 24 25  1  0  0  0
 37 38  2  0  0  0
 37 42  1  0  0  0
 38 39  1  0  0  0
 39 40  2  0  0  0
 40 41  1  0  0  0
 41 42  2  0  0  0
 31 32  1  0  0  0
  2  3  1  0  0  0
 15 16  1  0  0  0
 17 27  1  0  0  0
M  END
> <minimizedAffinity>
-10.04801

$$$$
3KDD_JZQ_A_100


 49 53  0  0  0  0  0  0  0  0999 V2000
   17.7296   22.9772   18.5574 C   0  0  0  0  0  0  0  0  0  0  0  0
   18.6316   21.8687   18.4938 O   0  0  0  0  0  0  0  0  0  0  0  0
   18.5486   21.4335   17.6310 H   0  0  0  0  0  0  0  0  0  0  0  0
   16.3176   22.4565   18.4300 C   0  0  0  0  0  0  0  0  0  0  0  0
   15.6735   22.2183   19.4408 O   0  0  0  0  0  0  0  0  0  0  0  0
   15.8080   22.3078   17.2014 N   0  0  0  0  0  0  0  0  0  0  0  0
   14.3993   21.8964   17.0194 C   0  0  0  0  0  0  0  0  0  0  0  0
   13.9132   22.1275   15.5817 C   0  0  0  0  0  0  0  0  0  0  0  0
   16.5206   22.5080   15.9337 C   0  0  0  0  0  0  0  0  0  0  0  0
   13.3321   23.5281   15.4956 C   0  0  0  0  0  0  0  0  0  0  0  0
   12.8905   21.1207   15.0556 C   0  0  0  0  0  0  0  0  0  0  0  0
   15.4032   22.0397   14.6657 S   0  0  0  0  0  0  0  0  0  0  0  0
   14.1413   20.4847   17.4733 C   0  0  0  0  0  0  0  0  0  0  0  0
   15.0532   19.6622   17.5063 O   0  0  0  0  0  0  0  0  0  0  0  0
   12.8745   20.2313   17.8125 N   0  0  0  0  0  0  0  0  0  0  0  0
   12.2844   20.9856   18.0406 H   0  0  0  0  0  0  0  0  0  0  0  0
   10.1805   20.0102   17.9726 O   0  0  0  0  0  0  0  0  0  0  0  0
   12.3386   18.8887   17.8569 C   0  0  0  0  0  0  0  0  0  0  0  0
   12.4011   18.3233   19.2171 C   0  0  0  0  0  0  0  0  0  0  0  0
   13.4525   18.4319   20.1128 C   0  0  0  0  0  0  0  0  0  0  0  0
   13.2818   17.8161   21.3494 C   0  0  0  0  0  0  0  0  0  0  0  0
   10.8361   18.8065   17.5632 C   0  0  0  0  0  0  0  0  0  0  0  0
   11.2562   17.6340   19.5275 C   0  0  0  0  0  0  0  0  0  0  0  0
   11.0681   17.0175   20.7570 C   0  0  0  0  0  0  0  0  0  0  0  0
   12.1117   17.1209   21.6675 C   0  0  0  0  0  0  0  0  0  0  0  0
   10.2668   17.6685   18.4032 C   0  0  0  0  0  0  0  0  0  0  0  0
   10.5216   20.7563   17.4550 H   0  0  0  0  0  0  0  0  0  0  0  0
   18.1041   24.0353   17.5129 C   0  0  0  0  0  0  0  0  0  0  0  0
   20.6559   23.7373   18.5702 O   0  0  0  0  0  0  0  0  0  0  0  0
   20.0793   24.7991   18.7166 C   0  0  0  0  0  0  0  0  0  0  0  0
   18.8898   25.0665   18.1709 N   0  0  0  0  0  0  0  0  0  0  0  0
   18.5365   25.9843   18.2153 H   0  0  0  0  0  0  0  0  0  0  0  0
   20.7299   25.8733   19.5579 C   0  0  0  0  0  0  0  0  0  0  0  0
   20.9940   27.0539   18.8017 O   0  0  0  0  0  0  0  0  0  0  0  0
   23.6438   26.5774   19.5036 F   0  0  0  0  0  0  0  0  0  0  0  0
   20.3855   27.4171   16.1520 F   0  0  0  0  0  0  0  0  0  0  0  0
   23.9726   26.8945   15.9012 C   0  0  0  0  0  0  0  0  0  0  0  0
   24.3008   26.7132   17.2424 C   0  0  0  0  0  0  0  0  0  0  0  0
   23.3065   26.7623   18.2152 C   0  0  0  0  0  0  0  0  0  0  0  0
   21.9844   26.9957   17.8487 C   0  0  0  0  0  0  0  0  0  0  0  0
   21.6609   27.1879   16.5120 C   0  0  0  0  0  0  0  0  0  0  0  0
   22.6524   27.1360   15.5368 C   0  0  0  0  0  0  0  0  0  0  0  0
   18.8727   23.4684   16.3174 C   0  0  0  0  0  0  0  0  0  0  0  0
   18.9399   24.4970   15.2109 C   0  0  0  0  0  0  0  0  0  0  0  0
   19.0839   26.3893   13.1743 C   0  0  0  0  0  0  0  0  0  0  0  0
   17.8456   25.3246   14.9492 C   0  0  0  0  0  0  0  0  0  0  0  0
   20.1030   24.6166   14.4521 C   0  0  0  0  0  0  0  0  0  0  0  0
   17.9170   26.2662   13.9268 C   0  0  0  0  0  0  0  0  0  0  0  0
   20.1802   25.5666   13.4343 C   0  0  0  0  0  0  0  0  0  0  0  0
 35 39  1  0  0  0
 12  8  1  0  0  0
 12  9  1  0  0  0
 36 41  1  0  0  0
 31 30  1  0  0  0
 31 28  1  0  0  0
 34 33  1  0  0  0
 34 40  1  0  0  0
  6  4  1  0  0  0
  6  7  1  0  0  0
  6  9  1  0  0  0
  5  4  2  0  0  0
 15 13  1  0  0  0
 15 18  1  0  0  0
 14 13  2  0  0  0
  2  1  1  0  0  0
 17 22  1  0  0  0
 29 30  2  0  0  0
 30 33  1  0  0  0
 28  1  1  0  0  0
 28 43  1  0  0  0
  1  4  1  0  0  0
 43 44  1  0  0  0
  7  8  1  0  0  0
  7 13  1  0  0  0
  8 10  1  0  0  0
  8 11  1  0  0  0
 44 46  2  0  0  0
 44 47  1  0  0  0
 46 48  1  0  0  0
 48 45  2  0  0  0
 45 49  1  0  0  0
 49 47  2  0  0  0
 18 19  1  0  0  0
 18 22  1  0  0  0
 19 20  2  0  0  0
 19 23  1  0  0  0
 20 21  1  0  0  0
 21 25  2  0  0  0
 22 26  1  0  0  0
 23 24  2  0  0  0
 23 26  1  0  0  0
 24 25  1  0  0  0
 37 38  2  0  0  0
 37 42  1  0  0  0
 38 39  1  0  0  0
 39 40  2  0  0  0
 40 41  1  0  0  0
 41 42  2  0  0  0
 31 32  1  0  0  0
  2  3  1  0  0  0
 15 16  1  0  0  0
 17 27  1  0  0  0
M  END
> <minimizedAffinity>
-9.85872

$$$$
3KDD_JZQ_A_100


 49 53  0  0  0  0  0  0  0  0999 V2000
   16.7352   23.0081   15.9478 C   0  0  0  0  0  0  0  0  0  0  0  0
   16.6713   21.9656   14.9704 O   0  0  0  0  0  0  0  0  0  0  0  0
   17.3404   21.2926   15.1713 H   0  0  0  0  0  0  0  0  0  0  0  0
   18.0945   23.6613   15.8664 C   0  0  0  0  0  0  0  0  0  0  0  0
   19.0378   23.1573   16.4575 O   0  0  0  0  0  0  0  0  0  0  0  0
   18.2229   24.7600   15.1128 N   0  0  0  0  0  0  0  0  0  0  0  0
   19.5494   25.3838   14.9176 C   0  0  0  0  0  0  0  0  0  0  0  0
   19.5467   26.3921   13.7600 C   0  0  0  0  0  0  0  0  0  0  0  0
   17.1418   25.4705   14.4191 C   0  0  0  0  0  0  0  0  0  0  0  0
   19.9017   25.6508   12.4829 C   0  0  0  0  0  0  0  0  0  0  0  0
   20.4757   27.5947   13.9236 C   0  0  0  0  0  0  0  0  0  0  0  0
   17.8714   26.9000   13.7120 S   0  0  0  0  0  0  0  0  0  0  0  0
   20.1004   25.9890   16.1807 C   0  0  0  0  0  0  0  0  0  0  0  0
   19.3524   26.5233   16.9957 O   0  0  0  0  0  0  0  0  0  0  0  0
   21.4263   25.8948   16.3114 N   0  0  0  0  0  0  0  0  0  0  0  0
   21.9077   25.2151   15.7866 H   0  0  0  0  0  0  0  0  0  0  0  0
   24.0590   26.1935   15.7528 O   0  0  0  0  0  0  0  0  0  0  0  0
   22.1802   26.7555   17.1960 C   0  0  0  0  0  0  0  0  0  0  0  0
   22.5872   26.0493   18.4247 C   0  0  0  0  0  0  0  0  0  0  0  0
   21.8146   25.1774   19.1745 C   0  0  0  0  0  0  0  0  0  0  0  0
   22.4178   24.6230   20.2998 C   0  0  0  0  0  0  0  0  0  0  0  0
   23.5378   27.1928   16.6339 C   0  0  0  0  0  0  0  0  0  0  0  0
   23.8754   26.3605   18.7793 C   0  0  0  0  0  0  0  0  0  0  0  0
   24.4933   25.8139   19.8958 C   0  0  0  0  0  0  0  0  0  0  0  0
   23.7330   24.9345   20.6558 C   0  0  0  0  0  0  0  0  0  0  0  0
   24.5025   27.3134   17.8084 C   0  0  0  0  0  0  0  0  0  0  0  0
   23.4659   26.0921   14.9920 H   0  0  0  0  0  0  0  0  0  0  0  0
   16.3834   22.4642   17.3375 C   0  0  0  0  0  0  0  0  0  0  0  0
   14.2286   22.4101   19.0903 O   0  0  0  0  0  0  0  0  0  0  0  0
   14.2472   21.6287   18.1574 C   0  0  0  0  0  0  0  0  0  0  0  0
   15.1938   21.6375   17.2151 N   0  0  0  0  0  0  0  0  0  0  0  0
   15.0833   21.0702   16.4181 H   0  0  0  0  0  0  0  0  0  0  0  0
   13.1528   20.5914   18.0521 C   0  0  0  0  0  0  0  0  0  0  0  0
   13.6424   19.2747   18.3007 O   0  0  0  0  0  0  0  0  0  0  0  0
   11.5276   17.4964   17.9742 F   0  0  0  0  0  0  0  0  0  0  0  0
   14.6668   19.6441   20.8181 F   0  0  0  0  0  0  0  0  0  0  0  0
   12.0641   17.2178   21.5548 C   0  0  0  0  0  0  0  0  0  0  0  0
   11.5277   17.0219   20.2846 C   0  0  0  0  0  0  0  0  0  0  0  0
   12.0554   17.7055   19.1931 C   0  0  0  0  0  0  0  0  0  0  0  0
   13.1172   18.5876   19.3706 C   0  0  0  0  0  0  0  0  0  0  0  0
   13.6430   18.7905   20.6397 C   0  0  0  0  0  0  0  0  0  0  0  0
   13.1196   18.1057   21.7324 C   0  0  0  0  0  0  0  0  0  0  0  0
   17.5164   21.6660   17.9860 C   0  0  0  0  0  0  0  0  0  0  0  0
   18.0873   22.4353   19.1560 C   0  0  0  0  0  0  0  0  0  0  0  0
   19.1286   23.8683   21.3035 C   0  0  0  0  0  0  0  0  0  0  0  0
   19.2069   21.9539   19.8385 C   0  0  0  0  0  0  0  0  0  0  0  0
   17.4900   23.6314   19.5505 C   0  0  0  0  0  0  0  0  0  0  0  0
   19.7227   22.6685   20.9157 C   0  0  0  0  0  0  0  0  0  0  0  0
   18.0119   24.3541   20.6226 C   0  0  0  0  0  0  0  0  0  0  0  0
 35 39  1  0  0  0
 12  8  1  0  0  0
 12  9  1  0  0  0
 36 41  1  0  0  0
 31 30  1  0  0  0
 31 28  1  0  0  0
 34 33  1  0  0  0
 34 40  1  0  0  0
  6  4  1  0  0  0
  6  7  1  0  0  0
  6  9  1  0  0  0
  5  4  2  0  0  0
 15 13  1  0  0  0
 15 18  1  0  0  0
 14 13  2  0  0  0
  2  1  1  0  0  0
 17 22  1  0  0  0
 29 30  2  0  0  0
 30 33  1  0  0  0
 28  1  1  0  0  0
 28 43  1  0  0  0
  1  4  1  0  0  0
 43 44  1  0  0  0
  7  8  1  0  0  0
  7 13  1  0  0  0
  8 10  1  0  0  0
  8 11  1  0  0  0
 44 46  2  0  0  0
 44 47  1  0  0  0
 46 48  1  0  0  0
 48 45  2  0  0  0
 45 49  1  0  0  0
 49 47  2  0  0  0
 18 19  1  0  0  0
 18 22  1  0  0  0
 19 20  2  0  0  0
 19 23  1  0  0  0
 20 21  1  0  0  0
 21 25  2  0  0  0
 22 26  1  0  0  0
 23 24  2  0  0  0
 23 26  1  0  0  0
 24 25  1  0  0  0
 37 38  2  0  0  0
 37 42  1  0  0  0
 38 39  1  0  0  0
 39 40  2  0  0  0
 40 41  1  0  0  0
 41 42  2  0  0  0
 31 32  1  0  0  0
  2  3  1  0  0  0
 15 16  1  0  0  0
 17 27  1  0  0  0
M  END
> <minimizedAffinity>
-9.78615

$$$$
