1O3F_696_A_246


 30 33  0  0  0  0  0  0  0  0999 V2000
   44.1260   -3.1545   26.4972 C   0  0  0  0  0  0  0  0  0  0  0  0
   44.2447   -1.7232   26.5323 C   0  0  0  0  0  0  0  0  0  0  0  0
   44.1546   -0.9900   27.7144 C   0  0  0  0  0  0  0  0  0  0  0  0
   43.9470   -1.6976   28.8519 C   0  0  0  0  0  0  0  0  0  0  0  0
   43.8308   -3.0283   28.8943 C   0  0  0  0  0  0  0  0  0  0  0  0
   43.9101   -3.8144   27.7400 C   0  0  0  0  0  0  0  0  0  0  0  0
   43.8471   -1.2656   30.0560 N   0  0  0  0  0  0  0  0  0  0  0  0
   43.6487   -3.4740   30.1319 C   0  0  0  0  0  0  0  0  0  0  0  0
   43.6729   -2.3259   30.7824 C   0  0  0  0  0  0  0  0  0  0  0  0
   43.8928   -0.3311   30.3623 H   0  0  0  0  0  0  0  0  0  0  0  0
   44.2384   -3.8352   25.2696 C   0  0  0  0  0  0  0  0  0  0  0  0
   43.9160   -5.1050   25.1795 N   0  0  0  0  0  0  0  0  0  0  0  0
   44.6682   -3.1916   24.2020 N   0  0  0  0  0  0  0  0  0  0  0  0
   43.5947   -5.5889   25.9744 H   0  0  0  0  0  0  0  0  0  0  0  0
   43.9957   -5.5731   24.3171 H   0  0  0  0  0  0  0  0  0  0  0  0
   44.9108   -2.2396   24.2655 H   0  0  0  0  0  0  0  0  0  0  0  0
   44.7465   -3.6631   23.3413 H   0  0  0  0  0  0  0  0  0  0  0  0
   43.4657   -2.2704   32.1623 C   0  0  0  0  0  0  0  0  0  0  0  0
   42.6029   -3.1563   32.7986 C   0  0  0  0  0  0  0  0  0  0  0  0
   42.3859   -3.1082   34.1565 C   0  0  0  0  0  0  0  0  0  0  0  0
   43.0297   -2.1624   34.9183 C   0  0  0  0  0  0  0  0  0  0  0  0
   43.9206   -1.2253   34.3483 C   0  0  0  0  0  0  0  0  0  0  0  0
   44.1150   -1.3126   32.9688 C   0  0  0  0  0  0  0  0  0  0  0  0
   44.9939   -0.4342   32.3707 O   0  0  0  0  0  0  0  0  0  0  0  0
   44.5458   -0.2480   35.1586 C   0  0  0  0  0  0  0  0  0  0  0  0
   45.7842   -0.4435   35.7533 C   0  0  0  0  0  0  0  0  0  0  0  0
   46.3705    0.5038   36.5652 C   0  0  0  0  0  0  0  0  0  0  0  0
   45.7399    1.6969   36.8137 C   0  0  0  0  0  0  0  0  0  0  0  0
   44.4992    1.9520   36.2431 C   0  0  0  0  0  0  0  0  0  0  0  0
   43.9184    0.9857   35.4256 C   0  0  0  0  0  0  0  0  0  0  0  0
  1  2  2  0  0  0
  1  6  1  0  0  0
  1 11  1  0  0  0
  2  3  1  0  0  0
  3  4  2  0  0  0
  4  5  1  0  0  0
  4  7  1  0  0  0
  5  6  2  0  0  0
  5  8  1  0  0  0
 11 12  1  0  0  0
 11 13  2  0  0  0
  7  9  1  0  0  0
  8  9  2  0  0  0
  9 18  1  0  0  0
 18 19  2  0  0  0
 18 23  1  0  0  0
 19 20  1  0  0  0
 20 21  2  0  0  0
 21 22  1  0  0  0
 22 23  2  0  0  0
 22 25  1  0  0  0
 23 24  1  0  0  0
 25 26  2  0  0  0
 25 30  1  0  0  0
 26 27  1  0  0  0
 27 28  2  0  0  0
 28 29  1  0  0  0
 29 30  2  0  0  0
 12 14  1  0  0  0
 12 15  1  0  0  0
 13 16  1  0  0  0
 13 17  1  0  0  0
  7 10  1  0  0  0
M  CHG 1  13   1
M  CHG 1  24  -1
M  END
> <minimizedAffinity>
-9.37685

$$$$
1O3F_696_A_246


 30 33  0  0  0  0  0  0  0  0999 V2000
   45.5705    0.7122   35.9831 C   0  0  0  0  0  0  0  0  0  0  0  0
   45.0068    1.8848   35.3740 C   0  0  0  0  0  0  0  0  0  0  0  0
   44.2021    1.8288   34.2372 C   0  0  0  0  0  0  0  0  0  0  0  0
   43.9685    0.5975   33.7204 C   0  0  0  0  0  0  0  0  0  0  0  0
   44.4563   -0.5349   34.2359 C   0  0  0  0  0  0  0  0  0  0  0  0
   45.2710   -0.5387   35.3730 C   0  0  0  0  0  0  0  0  0  0  0  0
   43.2548    0.2792   32.7027 N   0  0  0  0  0  0  0  0  0  0  0  0
   44.0657   -1.6036   33.5513 C   0  0  0  0  0  0  0  0  0  0  0  0
   43.3302   -1.0135   32.6278 C   0  0  0  0  0  0  0  0  0  0  0  0
   42.7573    0.8852   32.1074 H   0  0  0  0  0  0  0  0  0  0  0  0
   46.3660    0.8382   37.1382 C   0  0  0  0  0  0  0  0  0  0  0  0
   45.8244    1.1700   38.2876 N   0  0  0  0  0  0  0  0  0  0  0  0
   47.6642    0.6189   37.0653 N   0  0  0  0  0  0  0  0  0  0  0  0
   44.8555    1.3345   38.3460 H   0  0  0  0  0  0  0  0  0  0  0  0
   46.3873    1.2542   39.0909 H   0  0  0  0  0  0  0  0  0  0  0  0
   48.0739    0.3700   36.2054 H   0  0  0  0  0  0  0  0  0  0  0  0
   48.2238    0.7041   37.8708 H   0  0  0  0  0  0  0  0  0  0  0  0
   42.7233   -1.7475   31.6066 C   0  0  0  0  0  0  0  0  0  0  0  0
   41.5050   -2.3885   31.8045 C   0  0  0  0  0  0  0  0  0  0  0  0
   40.8996   -3.1193   30.8082 C   0  0  0  0  0  0  0  0  0  0  0  0
   41.5045   -3.2311   29.5790 C   0  0  0  0  0  0  0  0  0  0  0  0
   42.7430   -2.6117   29.2977 C   0  0  0  0  0  0  0  0  0  0  0  0
   43.3196   -1.8767   30.3349 C   0  0  0  0  0  0  0  0  0  0  0  0
   44.5172   -1.2343   30.1002 O   0  0  0  0  0  0  0  0  0  0  0  0
   43.3503   -2.7699   28.0294 C   0  0  0  0  0  0  0  0  0  0  0  0
   43.8105   -1.6990   27.2764 C   0  0  0  0  0  0  0  0  0  0  0  0
   44.3735   -1.8622   26.0287 C   0  0  0  0  0  0  0  0  0  0  0  0
   44.5053   -3.1133   25.4806 C   0  0  0  0  0  0  0  0  0  0  0  0
   44.0663   -4.2250   26.1886 C   0  0  0  0  0  0  0  0  0  0  0  0
   43.4988   -4.0452   27.4475 C   0  0  0  0  0  0  0  0  0  0  0  0
  1  2  2  0  0  0
  1  6  1  0  0  0
  1 11  1  0  0  0
  2  3  1  0  0  0
  3  4  2  0  0  0
  4  5  1  0  0  0
  4  7  1  0  0  0
  5  6  2  0  0  0
  5  8  1  0  0  0
 11 12  1  0  0  0
 11 13  2  0  0  0
  7  9  1  0  0  0
  8  9  2  0  0  0
  9 18  1  0  0  0
 18 19  2  0  0  0
 18 23  1  0  0  0
 19 20  1  0  0  0
 20 21  2  0  0  0
 21 22  1  0  0  0
 22 23  2  0  0  0
 22 25  1  0  0  0
 23 24  1  0  0  0
 25 26  2  0  0  0
 25 30  1  0  0  0
 26 27  1  0  0  0
 27 28  2  0  0  0
 28 29  1  0  0  0
 29 30  2  0  0  0
 12 14  1  0  0  0
 12 15  1  0  0  0
 13 16  1  0  0  0
 13 17  1  0  0  0
  7 10  1  0  0  0
M  CHG 1  13   1
M  CHG 1  24  -1
M  END
> <minimizedAffinity>
-8.05863

$$$$
1O3F_696_A_246


 30 33  0  0  0  0  0  0  0  0999 V2000
   43.9171   -3.1573   27.4416 C   0  0  0  0  0  0  0  0  0  0  0  0
   44.1701   -4.2679   28.3170 C   0  0  0  0  0  0  0  0  0  0  0  0
   43.8919   -4.2278   29.6823 C   0  0  0  0  0  0  0  0  0  0  0  0
   43.3616   -3.0749   30.1589 C   0  0  0  0  0  0  0  0  0  0  0  0
   43.0967   -2.0049   29.4033 C   0  0  0  0  0  0  0  0  0  0  0  0
   43.3577   -1.9875   28.0292 C   0  0  0  0  0  0  0  0  0  0  0  0
   43.0037   -2.7948   31.3589 N   0  0  0  0  0  0  0  0  0  0  0  0
   42.5664   -1.0138   30.1103 C   0  0  0  0  0  0  0  0  0  0  0  0
   42.5431   -1.5838   31.3005 C   0  0  0  0  0  0  0  0  0  0  0  0
   43.0655   -3.3741   32.1525 H   0  0  0  0  0  0  0  0  0  0  0  0
   44.2109   -3.2682   26.0689 C   0  0  0  0  0  0  0  0  0  0  0  0
   44.4171   -4.4453   25.5243 N   0  0  0  0  0  0  0  0  0  0  0  0
   44.2771   -2.1818   25.3244 N   0  0  0  0  0  0  0  0  0  0  0  0
   44.3685   -5.2586   26.0769 H   0  0  0  0  0  0  0  0  0  0  0  0
   44.6201   -4.5143   24.5634 H   0  0  0  0  0  0  0  0  0  0  0  0
   44.1231   -1.2976   25.7291 H   0  0  0  0  0  0  0  0  0  0  0  0
   44.4803   -2.2549   24.3639 H   0  0  0  0  0  0  0  0  0  0  0  0
   42.0982   -0.8898   32.4276 C   0  0  0  0  0  0  0  0  0  0  0  0
   40.7515   -0.8638   32.7741 C   0  0  0  0  0  0  0  0  0  0  0  0
   40.2999   -0.1791   33.8788 C   0  0  0  0  0  0  0  0  0  0  0  0
   41.1913    0.5056   34.6699 C   0  0  0  0  0  0  0  0  0  0  0  0
   42.5753    0.5302   34.3858 C   0  0  0  0  0  0  0  0  0  0  0  0
   42.9906   -0.1811   33.2588 C   0  0  0  0  0  0  0  0  0  0  0  0
   44.3355   -0.2060   32.9545 O   0  0  0  0  0  0  0  0  0  0  0  0
   43.4612    1.2675   35.2066 C   0  0  0  0  0  0  0  0  0  0  0  0
   44.4480    0.6688   35.9770 C   0  0  0  0  0  0  0  0  0  0  0  0
   45.2862    1.3944   36.7962 C   0  0  0  0  0  0  0  0  0  0  0  0
   45.1748    2.7598   36.8755 C   0  0  0  0  0  0  0  0  0  0  0  0
   44.2079    3.4165   36.1246 C   0  0  0  0  0  0  0  0  0  0  0  0
   43.3674    2.6708   35.3019 C   0  0  0  0  0  0  0  0  0  0  0  0
  1  2  2  0  0  0
  1  6  1  0  0  0
  1 11  1  0  0  0
  2  3  1  0  0  0
  3  4  2  0  0  0
  4  5  1  0  0  0
  4  7  1  0  0  0
  5  6  2  0  0  0
  5  8  1  0  0  0
 11 12  1  0  0  0
 11 13  2  0  0  0
  7  9  1  0  0  0
  8  9  2  0  0  0
  9 18  1  0  0  0
 18 19  2  0  0  0
 18 23  1  0  0  0
 19 20  1  0  0  0
 20 21  2  0  0  0
 21 22  1  0  0  0
 22 23  2  0  0  0
 22 25  1  0  0  0
 23 24  1  0  0  0
 25 26  2  0  0  0
 25 30  1  0  0  0
 26 27  1  0  0  0
 27 28  2  0  0  0
 28 29  1  0  0  0
 29 30  2  0  0  0
 12 14  1  0  0  0
 12 15  1  0  0  0
 13 16  1  0  0  0
 13 17  1  0  0  0
  7 10  1  0  0  0
M  CHG 1  13   1
M  CHG 1  24  -1
M  END
> <minimizedAffinity>
-7.94455

$$$$
1O3F_696_A_246


 30 33  0  0  0  0  0  0  0  0999 V2000
   44.9994    1.4175   36.2882 C   0  0  0  0  0  0  0  0  0  0  0  0
   46.0357    0.4511   36.0515 C   0  0  0  0  0  0  0  0  0  0  0  0
   45.9642   -0.4929   35.0283 C   0  0  0  0  0  0  0  0  0  0  0  0
   44.8547   -0.4599   34.2500 C   0  0  0  0  0  0  0  0  0  0  0  0
   43.8547    0.4122   34.4098 C   0  0  0  0  0  0  0  0  0  0  0  0
   43.8713    1.3789   35.4207 C   0  0  0  0  0  0  0  0  0  0  0  0
   44.5609   -1.1999   33.2439 N   0  0  0  0  0  0  0  0  0  0  0  0
   42.8955    0.2421   33.5074 C   0  0  0  0  0  0  0  0  0  0  0  0
   43.4103   -0.7670   32.8302 C   0  0  0  0  0  0  0  0  0  0  0  0
   45.0937   -1.9371   32.8672 H   0  0  0  0  0  0  0  0  0  0  0  0
   45.1400    2.3514   37.3327 C   0  0  0  0  0  0  0  0  0  0  0  0
   45.7710    2.0260   38.4374 N   0  0  0  0  0  0  0  0  0  0  0  0
   44.6362    3.5627   37.1991 N   0  0  0  0  0  0  0  0  0  0  0  0
   46.1485    1.1227   38.5409 H   0  0  0  0  0  0  0  0  0  0  0  0
   45.8666    2.6854   39.1622 H   0  0  0  0  0  0  0  0  0  0  0  0
   44.1625    3.8103   36.3723 H   0  0  0  0  0  0  0  0  0  0  0  0
   44.7338    4.2193   37.9260 H   0  0  0  0  0  0  0  0  0  0  0  0
   42.7180   -1.3567   31.7704 C   0  0  0  0  0  0  0  0  0  0  0  0
   41.3835   -1.7270   31.8973 C   0  0  0  0  0  0  0  0  0  0  0  0
   40.6921   -2.3139   30.8625 C   0  0  0  0  0  0  0  0  0  0  0  0
   41.3247   -2.5501   29.6653 C   0  0  0  0  0  0  0  0  0  0  0  0
   42.6789   -2.2051   29.4560 C   0  0  0  0  0  0  0  0  0  0  0  0
   43.3409   -1.6081   30.5301 C   0  0  0  0  0  0  0  0  0  0  0  0
   44.6575   -1.2320   30.3655 O   0  0  0  0  0  0  0  0  0  0  0  0
   43.3062   -2.4873   28.2193 C   0  0  0  0  0  0  0  0  0  0  0  0
   43.8150   -1.4975   27.3904 C   0  0  0  0  0  0  0  0  0  0  0  0
   44.3974   -1.7816   26.1737 C   0  0  0  0  0  0  0  0  0  0  0  0
   44.5004   -3.0776   25.7347 C   0  0  0  0  0  0  0  0  0  0  0  0
   44.0123   -4.1124   26.5226 C   0  0  0  0  0  0  0  0  0  0  0  0
   43.4257   -3.8108   27.7491 C   0  0  0  0  0  0  0  0  0  0  0  0
  1  2  2  0  0  0
  1  6  1  0  0  0
  1 11  1  0  0  0
  2  3  1  0  0  0
  3  4  2  0  0  0
  4  5  1  0  0  0
  4  7  1  0  0  0
  5  6  2  0  0  0
  5  8  1  0  0  0
 11 12  1  0  0  0
 11 13  2  0  0  0
  7  9  1  0  0  0
  8  9  2  0  0  0
  9 18  1  0  0  0
 18 19  2  0  0  0
 18 23  1  0  0  0
 19 20  1  0  0  0
 20 21  2  0  0  0
 21 22  1  0  0  0
 22 23  2  0  0  0
 22 25  1  0  0  0
 23 24  1  0  0  0
 25 26  2  0  0  0
 25 30  1  0  0  0
 26 27  1  0  0  0
 27 28  2  0  0  0
 28 29  1  0  0  0
 29 30  2  0  0  0
 12 14  1  0  0  0
 12 15  1  0  0  0
 13 16  1  0  0  0
 13 17  1  0  0  0
  7 10  1  0  0  0
M  CHG 1  13   1
M  CHG 1  24  -1
M  END
> <minimizedAffinity>
-7.47993

$$$$
1O3F_696_A_246


 30 33  0  0  0  0  0  0  0  0999 V2000
   41.9833   -3.2911   30.4464 C   0  0  0  0  0  0  0  0  0  0  0  0
   41.5773   -1.9886   29.9967 C   0  0  0  0  0  0  0  0  0  0  0  0
   41.9530   -0.8163   30.6506 C   0  0  0  0  0  0  0  0  0  0  0  0
   42.7334   -0.9591   31.7498 C   0  0  0  0  0  0  0  0  0  0  0  0
   43.1515   -2.1373   32.2222 C   0  0  0  0  0  0  0  0  0  0  0  0
   42.8034   -3.3453   31.6089 C   0  0  0  0  0  0  0  0  0  0  0  0
   43.2229   -0.0468   32.5076 N   0  0  0  0  0  0  0  0  0  0  0  0
   43.9160   -2.0000   33.2993 C   0  0  0  0  0  0  0  0  0  0  0  0
   43.9093   -0.6844   33.4046 C   0  0  0  0  0  0  0  0  0  0  0  0
   43.1034    0.9270   32.4258 H   0  0  0  0  0  0  0  0  0  0  0  0
   41.5778   -4.4350   29.7323 C   0  0  0  0  0  0  0  0  0  0  0  0
   42.3405   -4.9366   28.7883 N   0  0  0  0  0  0  0  0  0  0  0  0
   40.4245   -5.0080   30.0156 N   0  0  0  0  0  0  0  0  0  0  0  0
   43.2023   -4.5116   28.5739 H   0  0  0  0  0  0  0  0  0  0  0  0
   42.0505   -5.7378   28.2950 H   0  0  0  0  0  0  0  0  0  0  0  0
   39.8499   -4.6348   30.7226 H   0  0  0  0  0  0  0  0  0  0  0  0
   40.1379   -5.8090   29.5201 H   0  0  0  0  0  0  0  0  0  0  0  0
   44.5609   -0.0384   34.4573 C   0  0  0  0  0  0  0  0  0  0  0  0
   45.8510   -0.3951   34.8349 C   0  0  0  0  0  0  0  0  0  0  0  0
   46.5017    0.2298   35.8738 C   0  0  0  0  0  0  0  0  0  0  0  0
   45.8714    1.2339   36.5695 C   0  0  0  0  0  0  0  0  0  0  0  0
   44.5607    1.6543   36.2498 C   0  0  0  0  0  0  0  0  0  0  0  0
   43.9396    0.9969   35.1865 C   0  0  0  0  0  0  0  0  0  0  0  0
   42.6686    1.3888   34.8221 O   0  0  0  0  0  0  0  0  0  0  0  0
   43.9321    2.6730   37.0044 C   0  0  0  0  0  0  0  0  0  0  0  0
   44.1242    4.0239   36.7521 C   0  0  0  0  0  0  0  0  0  0  0  0
   43.5302    5.0082   37.5127 C   0  0  0  0  0  0  0  0  0  0  0  0
   42.7090    4.6796   38.5618 C   0  0  0  0  0  0  0  0  0  0  0  0
   42.4752    3.3433   38.8609 C   0  0  0  0  0  0  0  0  0  0  0  0
   43.0826    2.3594   38.0847 C   0  0  0  0  0  0  0  0  0  0  0  0
  1  2  2  0  0  0
  1  6  1  0  0  0
  1 11  1  0  0  0
  2  3  1  0  0  0
  3  4  2  0  0  0
  4  5  1  0  0  0
  4  7  1  0  0  0
  5  6  2  0  0  0
  5  8  1  0  0  0
 11 12  1  0  0  0
 11 13  2  0  0  0
  7  9  1  0  0  0
  8  9  2  0  0  0
  9 18  1  0  0  0
 18 19  2  0  0  0
 18 23  1  0  0  0
 19 20  1  0  0  0
 20 21  2  0  0  0
 21 22  1  0  0  0
 22 23  2  0  0  0
 22 25  1  0  0  0
 23 24  1  0  0  0
 25 26  2  0  0  0
 25 30  1  0  0  0
 26 27  1  0  0  0
 27 28  2  0  0  0
 28 29  1  0  0  0
 29 30  2  0  0  0
 12 14  1  0  0  0
 12 15  1  0  0  0
 13 16  1  0  0  0
 13 17  1  0  0  0
  7 10  1  0  0  0
M  CHG 1  13   1
M  CHG 1  24  -1
M  END
> <minimizedAffinity>
-7.07198

$$$$
1O3F_696_A_246


 30 33  0  0  0  0  0  0  0  0999 V2000
   42.5819    1.9866   35.6330 C   0  0  0  0  0  0  0  0  0  0  0  0
   43.8405    2.3792   35.0624 C   0  0  0  0  0  0  0  0  0  0  0  0
   44.4698    1.6495   34.0551 C   0  0  0  0  0  0  0  0  0  0  0  0
   43.8319    0.5324   33.6274 C   0  0  0  0  0  0  0  0  0  0  0  0
   42.6591    0.1099   34.1093 C   0  0  0  0  0  0  0  0  0  0  0  0
   41.9841    0.8001   35.1216 C   0  0  0  0  0  0  0  0  0  0  0  0
   44.1883   -0.2909   32.7101 N   0  0  0  0  0  0  0  0  0  0  0  0
   42.2439   -0.9997   33.5096 C   0  0  0  0  0  0  0  0  0  0  0  0
   43.2414   -1.1760   32.6635 C   0  0  0  0  0  0  0  0  0  0  0  0
   45.0043   -0.2579   32.1603 H   0  0  0  0  0  0  0  0  0  0  0  0
   41.9947    2.7759   36.6405 C   0  0  0  0  0  0  0  0  0  0  0  0
   42.7355    3.3168   37.5802 N   0  0  0  0  0  0  0  0  0  0  0  0
   40.6912    2.9752   36.6386 N   0  0  0  0  0  0  0  0  0  0  0  0
   43.7090    3.1703   37.5850 H   0  0  0  0  0  0  0  0  0  0  0  0
   42.3173    3.8689   38.2799 H   0  0  0  0  0  0  0  0  0  0  0  0
   40.1325    2.5713   35.9357 H   0  0  0  0  0  0  0  0  0  0  0  0
   40.2767    3.5279   37.3400 H   0  0  0  0  0  0  0  0  0  0  0  0
   43.2851   -2.2849   31.8159 C   0  0  0  0  0  0  0  0  0  0  0  0
   43.1029   -3.5743   32.3043 C   0  0  0  0  0  0  0  0  0  0  0  0
   43.1493   -4.6753   31.4805 C   0  0  0  0  0  0  0  0  0  0  0  0
   43.3844   -4.5132   30.1359 C   0  0  0  0  0  0  0  0  0  0  0  0
   43.5813   -3.2374   29.5613 C   0  0  0  0  0  0  0  0  0  0  0  0
   43.5216   -2.1481   30.4320 C   0  0  0  0  0  0  0  0  0  0  0  0
   43.6841   -0.8806   29.9133 O   0  0  0  0  0  0  0  0  0  0  0  0
   43.8477   -3.1094   28.1774 C   0  0  0  0  0  0  0  0  0  0  0  0
   43.6616   -4.1479   27.2760 C   0  0  0  0  0  0  0  0  0  0  0  0
   43.9528   -4.0214   25.9345 C   0  0  0  0  0  0  0  0  0  0  0  0
   44.4410   -2.8405   25.4345 C   0  0  0  0  0  0  0  0  0  0  0  0
   44.6448   -1.7633   26.2877 C   0  0  0  0  0  0  0  0  0  0  0  0
   44.3471   -1.9055   27.6407 C   0  0  0  0  0  0  0  0  0  0  0  0
  1  2  2  0  0  0
  1  6  1  0  0  0
  1 11  1  0  0  0
  2  3  1  0  0  0
  3  4  2  0  0  0
  4  5  1  0  0  0
  4  7  1  0  0  0
  5  6  2  0  0  0
  5  8  1  0  0  0
 11 12  1  0  0  0
 11 13  2  0  0  0
  7  9  1  0  0  0
  8  9  2  0  0  0
  9 18  1  0  0  0
 18 19  2  0  0  0
 18 23  1  0  0  0
 19 20  1  0  0  0
 20 21  2  0  0  0
 21 22  1  0  0  0
 22 23  2  0  0  0
 22 25  1  0  0  0
 23 24  1  0  0  0
 25 26  2  0  0  0
 25 30  1  0  0  0
 26 27  1  0  0  0
 27 28  2  0  0  0
 28 29  1  0  0  0
 29 30  2  0  0  0
 12 14  1  0  0  0
 12 15  1  0  0  0
 13 16  1  0  0  0
 13 17  1  0  0  0
  7 10  1  0  0  0
M  CHG 1  13   1
M  CHG 1  24  -1
M  END
> <minimizedAffinity>
-7.05462

$$$$
1O3F_696_A_246


 30 33  0  0  0  0  0  0  0  0999 V2000
   42.4920   -3.5258   29.4579 C   0  0  0  0  0  0  0  0  0  0  0  0
   42.9945   -2.2938   28.9162 C   0  0  0  0  0  0  0  0  0  0  0  0
   42.9486   -1.0899   29.6173 C   0  0  0  0  0  0  0  0  0  0  0  0
   42.4002   -1.1309   30.8563 C   0  0  0  0  0  0  0  0  0  0  0  0
   41.9172   -2.2401   31.4241 C   0  0  0  0  0  0  0  0  0  0  0  0
   41.9344   -3.4747   30.7668 C   0  0  0  0  0  0  0  0  0  0  0  0
   42.2590   -0.1753   31.7009 N   0  0  0  0  0  0  0  0  0  0  0  0
   41.4514   -2.0125   32.6467 C   0  0  0  0  0  0  0  0  0  0  0  0
   41.7015   -0.7198   32.7377 C   0  0  0  0  0  0  0  0  0  0  0  0
   42.5179    0.7677   31.5866 H   0  0  0  0  0  0  0  0  0  0  0  0
   42.5798   -4.7096   28.7006 C   0  0  0  0  0  0  0  0  0  0  0  0
   42.1229   -5.8434   29.1804 N   0  0  0  0  0  0  0  0  0  0  0  0
   43.1228   -4.6786   27.4993 N   0  0  0  0  0  0  0  0  0  0  0  0
   41.7168   -5.8705   30.0768 H   0  0  0  0  0  0  0  0  0  0  0  0
   42.1864   -6.6663   28.6436 H   0  0  0  0  0  0  0  0  0  0  0  0
   43.4664   -3.8305   27.1361 H   0  0  0  0  0  0  0  0  0  0  0  0
   43.1845   -5.5036   26.9655 H   0  0  0  0  0  0  0  0  0  0  0  0
   41.3304    0.0122   33.8675 C   0  0  0  0  0  0  0  0  0  0  0  0
   39.9980    0.1218   34.2507 C   0  0  0  0  0  0  0  0  0  0  0  0
   39.6189    0.8448   35.3584 C   0  0  0  0  0  0  0  0  0  0  0  0
   40.5712    1.4847   36.1154 C   0  0  0  0  0  0  0  0  0  0  0  0
   41.9456    1.4240   35.7927 C   0  0  0  0  0  0  0  0  0  0  0  0
   42.2862    0.6764   34.6642 C   0  0  0  0  0  0  0  0  0  0  0  0
   43.6181    0.5685   34.3231 O   0  0  0  0  0  0  0  0  0  0  0  0
   42.8964    2.1171   36.5789 C   0  0  0  0  0  0  0  0  0  0  0  0
   43.5393    1.5400   37.6648 C   0  0  0  0  0  0  0  0  0  0  0  0
   44.4418    2.2341   38.4421 C   0  0  0  0  0  0  0  0  0  0  0  0
   44.7446    3.5425   38.1601 C   0  0  0  0  0  0  0  0  0  0  0  0
   44.1356    4.1735   37.0828 C   0  0  0  0  0  0  0  0  0  0  0  0
   43.2253    3.4605   36.3066 C   0  0  0  0  0  0  0  0  0  0  0  0
  1  2  2  0  0  0
  1  6  1  0  0  0
  1 11  1  0  0  0
  2  3  1  0  0  0
  3  4  2  0  0  0
  4  5  1  0  0  0
  4  7  1  0  0  0
  5  6  2  0  0  0
  5  8  1  0  0  0
 11 12  1  0  0  0
 11 13  2  0  0  0
  7  9  1  0  0  0
  8  9  2  0  0  0
  9 18  1  0  0  0
 18 19  2  0  0  0
 18 23  1  0  0  0
 19 20  1  0  0  0
 20 21  2  0  0  0
 21 22  1  0  0  0
 22 23  2  0  0  0
 22 25  1  0  0  0
 23 24  1  0  0  0
 25 26  2  0  0  0
 25 30  1  0  0  0
 26 27  1  0  0  0
 27 28  2  0  0  0
 28 29  1  0  0  0
 29 30  2  0  0  0
 12 14  1  0  0  0
 12 15  1  0  0  0
 13 16  1  0  0  0
 13 17  1  0  0  0
  7 10  1  0  0  0
M  CHG 1  13   1
M  CHG 1  24  -1
M  END
> <minimizedAffinity>
-6.54095

$$$$
1O3F_696_A_246


 30 33  0  0  0  0  0  0  0  0999 V2000
   41.4802   -1.9200   30.9215 C   0  0  0  0  0  0  0  0  0  0  0  0
   40.3347   -1.8028   31.7806 C   0  0  0  0  0  0  0  0  0  0  0  0
   40.3654   -1.0981   32.9829 C   0  0  0  0  0  0  0  0  0  0  0  0
   41.5439   -0.5159   33.3140 C   0  0  0  0  0  0  0  0  0  0  0  0
   42.6472   -0.5804   32.5625 C   0  0  0  0  0  0  0  0  0  0  0  0
   42.6754   -1.2753   31.3489 C   0  0  0  0  0  0  0  0  0  0  0  0
   41.8235    0.1947   34.3451 N   0  0  0  0  0  0  0  0  0  0  0  0
   43.6594    0.0872   33.1041 C   0  0  0  0  0  0  0  0  0  0  0  0
   43.0667    0.5331   34.1957 C   0  0  0  0  0  0  0  0  0  0  0  0
   41.2239    0.4319   35.0891 H   0  0  0  0  0  0  0  0  0  0  0  0
   41.3779   -2.6373   29.7141 C   0  0  0  0  0  0  0  0  0  0  0  0
   42.3909   -2.6863   28.8799 N   0  0  0  0  0  0  0  0  0  0  0  0
   40.2569   -3.2665   29.4203 N   0  0  0  0  0  0  0  0  0  0  0  0
   43.2295   -2.2178   29.0958 H   0  0  0  0  0  0  0  0  0  0  0  0
   42.3119   -3.1916   28.0387 H   0  0  0  0  0  0  0  0  0  0  0  0
   39.4953   -3.2321   30.0431 H   0  0  0  0  0  0  0  0  0  0  0  0
   40.1816   -3.7707   28.5781 H   0  0  0  0  0  0  0  0  0  0  0  0
   43.7670    1.2759   35.1486 C   0  0  0  0  0  0  0  0  0  0  0  0
   43.5404    2.6385   35.3106 C   0  0  0  0  0  0  0  0  0  0  0  0
   44.2278    3.3824   36.2418 C   0  0  0  0  0  0  0  0  0  0  0  0
   45.1699    2.7774   37.0393 C   0  0  0  0  0  0  0  0  0  0  0  0
   45.4603    1.3984   36.9363 C   0  0  0  0  0  0  0  0  0  0  0  0
   44.7369    0.6809   35.9822 C   0  0  0  0  0  0  0  0  0  0  0  0
   44.9687   -0.6732   35.8612 O   0  0  0  0  0  0  0  0  0  0  0  0
   46.4555    0.8138   37.7549 C   0  0  0  0  0  0  0  0  0  0  0  0
   46.2374    0.4832   39.0849 C   0  0  0  0  0  0  0  0  0  0  0  0
   47.2234   -0.0584   39.8817 C   0  0  0  0  0  0  0  0  0  0  0  0
   48.4763   -0.2984   39.3759 C   0  0  0  0  0  0  0  0  0  0  0  0
   48.7539    0.0082   38.0497 C   0  0  0  0  0  0  0  0  0  0  0  0
   47.7486    0.5557   37.2566 C   0  0  0  0  0  0  0  0  0  0  0  0
  1  2  2  0  0  0
  1  6  1  0  0  0
  1 11  1  0  0  0
  2  3  1  0  0  0
  3  4  2  0  0  0
  4  5  1  0  0  0
  4  7  1  0  0  0
  5  6  2  0  0  0
  5  8  1  0  0  0
 11 12  1  0  0  0
 11 13  2  0  0  0
  7  9  1  0  0  0
  8  9  2  0  0  0
  9 18  1  0  0  0
 18 19  2  0  0  0
 18 23  1  0  0  0
 19 20  1  0  0  0
 20 21  2  0  0  0
 21 22  1  0  0  0
 22 23  2  0  0  0
 22 25  1  0  0  0
 23 24  1  0  0  0
 25 26  2  0  0  0
 25 30  1  0  0  0
 26 27  1  0  0  0
 27 28  2  0  0  0
 28 29  1  0  0  0
 29 30  2  0  0  0
 12 14  1  0  0  0
 12 15  1  0  0  0
 13 16  1  0  0  0
 13 17  1  0  0  0
  7 10  1  0  0  0
M  CHG 1  13   1
M  CHG 1  24  -1
M  END
> <minimizedAffinity>
-6.40546

$$$$
