3F8C_HT1_A_127


 36 41  0  0  0  0  0  0  0  0999 V2000
   -3.8134    0.1089   -4.5772 C   0  0  0  0  0  0  0  0  0  0  0  0
   -3.8162   -0.6970   -3.4958 N   0  0  0  0  0  0  0  0  0  0  0  0
   -2.7650   -0.3986   -2.7392 C   0  0  0  0  0  0  0  0  0  0  0  0
   -2.0785    0.6385   -3.3981 C   0  0  0  0  0  0  0  0  0  0  0  0
   -2.7452    0.9184   -4.5175 N   0  0  0  0  0  0  0  0  0  0  0  0
   -0.9169    1.1716   -2.8530 C   0  0  0  0  0  0  0  0  0  0  0  0
   -0.4420    0.6695   -1.6494 C   0  0  0  0  0  0  0  0  0  0  0  0
   -1.1114   -0.3700   -0.9871 C   0  0  0  0  0  0  0  0  0  0  0  0
   -2.2977   -0.9155   -1.5153 C   0  0  0  0  0  0  0  0  0  0  0  0
   -4.4860   -1.3914   -3.2994 H   0  0  0  0  0  0  0  0  0  0  0  0
   -0.5946   -0.8212    0.2311 C   0  0  0  0  0  0  0  0  0  0  0  0
    0.4822   -0.3297    0.8628 N   0  0  0  0  0  0  0  0  0  0  0  0
    0.6699   -1.0363    1.9835 C   0  0  0  0  0  0  0  0  0  0  0  0
   -0.3251   -2.0147    2.0260 C   0  0  0  0  0  0  0  0  0  0  0  0
   -1.0780   -1.8613    0.9392 N   0  0  0  0  0  0  0  0  0  0  0  0
   -0.3773   -2.9203    3.0858 C   0  0  0  0  0  0  0  0  0  0  0  0
    0.5690   -2.8454    4.1165 C   0  0  0  0  0  0  0  0  0  0  0  0
    1.5620   -1.8624    4.0937 C   0  0  0  0  0  0  0  0  0  0  0  0
    1.6203   -0.9587    3.0128 C   0  0  0  0  0  0  0  0  0  0  0  0
    1.0386    0.4217    0.5547 H   0  0  0  0  0  0  0  0  0  0  0  0
    2.4961   -1.8212    5.0768 N   0  0  0  0  0  0  0  0  0  0  0  0
    2.3787   -2.8968    6.0802 C   0  0  0  0  0  0  0  0  0  0  0  0
    3.5799   -2.8130    7.0574 C   0  0  0  0  0  0  0  0  0  0  0  0
    3.6537   -1.4699    7.6895 N   0  0  0  0  0  0  0  0  0  0  0  0
    3.7205   -0.4164    6.6588 C   0  0  0  0  0  0  0  0  0  0  0  0
    2.4834   -0.5191    5.7525 C   0  0  0  0  0  0  0  0  0  0  0  0
    4.8444   -1.3580    8.5456 C   0  0  0  0  0  0  0  0  0  0  0  0
   -6.6591    0.0960   -7.6524 C   0  0  0  0  0  0  0  0  0  0  0  0
   -5.4844    0.8294   -7.7765 C   0  0  0  0  0  0  0  0  0  0  0  0
   -4.5390    0.8293   -6.7526 C   0  0  0  0  0  0  0  0  0  0  0  0
   -4.7687    0.0914   -5.5975 C   0  0  0  0  0  0  0  0  0  0  0  0
   -5.9565   -0.6472   -5.4620 C   0  0  0  0  0  0  0  0  0  0  0  0
   -6.9026   -0.6424   -6.4921 C   0  0  0  0  0  0  0  0  0  0  0  0
   -7.5746    0.1086   -8.6664 O   0  0  0  0  0  0  0  0  0  0  0  0
   -8.7470   -0.6336   -8.2999 C   0  0  0  0  0  0  0  0  0  0  0  0
   -9.0850   -1.6282   -9.4183 C   0  0  0  0  0  0  0  0  0  0  0  0
 28 34  1  0  0  0
 28 29  2  0  0  0
 28 33  1  0  0  0
 34 35  1  0  0  0
 29 30  1  0  0  0
 30 31  2  0  0  0
 31 32  1  0  0  0
 31  1  1  0  0  0
 32 33  2  0  0  0
  1  2  1  0  0  0
  1  5  2  0  0  0
  2  3  1  0  0  0
  3  4  2  0  0  0
  3  9  1  0  0  0
  4  5  1  0  0  0
  4  6  1  0  0  0
  6  7  2  0  0  0
  7  8  1  0  0  0
  8  9  2  0  0  0
  8 11  1  0  0  0
 11 12  1  0  0  0
 11 15  2  0  0  0
 12 13  1  0  0  0
 13 14  2  0  0  0
 13 19  1  0  0  0
 14 15  1  0  0  0
 14 16  1  0  0  0
 16 17  2  0  0  0
 17 18  1  0  0  0
 18 19  2  0  0  0
 18 21  1  0  0  0
 21 22  1  0  0  0
 21 26  1  0  0  0
 22 23  1  0  0  0
 23 24  1  0  0  0
 24 25  1  0  0  0
 24 27  1  0  0  0
 25 26  1  0  0  0
 35 36  1  0  0  0
  2 10  1  0  0  0
 12 20  1  0  0  0
M  END
> <minimizedAffinity>
-11.85900

$$$$
3F8C_HT1_A_127


 36 41  0  0  0  0  0  0  0  0999 V2000
   -1.1954    0.4751   -1.9536 C   0  0  0  0  0  0  0  0  0  0  0  0
   -1.5733   -0.5825   -1.2069 N   0  0  0  0  0  0  0  0  0  0  0  0
   -0.7822   -0.6561   -0.1413 C   0  0  0  0  0  0  0  0  0  0  0  0
    0.1332    0.4077   -0.2476 C   0  0  0  0  0  0  0  0  0  0  0  0
   -0.1470    1.0730   -1.3677 N   0  0  0  0  0  0  0  0  0  0  0  0
    1.1074    0.5982    0.7247 C   0  0  0  0  0  0  0  0  0  0  0  0
    1.1662   -0.2732    1.8035 C   0  0  0  0  0  0  0  0  0  0  0  0
    0.2658   -1.3427    1.9167 C   0  0  0  0  0  0  0  0  0  0  0  0
   -0.7378   -1.5459    0.9495 C   0  0  0  0  0  0  0  0  0  0  0  0
   -2.3125   -1.1980   -1.4164 H   0  0  0  0  0  0  0  0  0  0  0  0
    0.3631   -2.1757    3.0353 C   0  0  0  0  0  0  0  0  0  0  0  0
   -0.3268   -3.3083    3.2389 N   0  0  0  0  0  0  0  0  0  0  0  0
    0.0269   -3.8066    4.4293 C   0  0  0  0  0  0  0  0  0  0  0  0
    0.9589   -2.9275    4.9843 C   0  0  0  0  0  0  0  0  0  0  0  0
    1.1388   -1.9387    4.1118 N   0  0  0  0  0  0  0  0  0  0  0  0
    1.5043   -3.1820    6.2427 C   0  0  0  0  0  0  0  0  0  0  0  0
    1.1207   -4.3278    6.9522 C   0  0  0  0  0  0  0  0  0  0  0  0
    0.1992   -5.2233    6.4028 C   0  0  0  0  0  0  0  0  0  0  0  0
   -0.3611   -4.9544    5.1370 C   0  0  0  0  0  0  0  0  0  0  0  0
   -0.9808   -3.7047    2.6190 H   0  0  0  0  0  0  0  0  0  0  0  0
   -0.1940   -6.3104    7.1129 N   0  0  0  0  0  0  0  0  0  0  0  0
    0.8432   -7.3480    7.2710 C   0  0  0  0  0  0  0  0  0  0  0  0
    0.3100   -8.4600    8.2114 C   0  0  0  0  0  0  0  0  0  0  0  0
   -0.9642   -9.0231    7.6938 N   0  0  0  0  0  0  0  0  0  0  0  0
   -1.9618   -7.9534    7.5011 C   0  0  0  0  0  0  0  0  0  0  0  0
   -1.3978   -6.9084    6.5253 C   0  0  0  0  0  0  0  0  0  0  0  0
   -1.5190  -10.0122    8.6303 C   0  0  0  0  0  0  0  0  0  0  0  0
   -3.0283    1.6285   -5.5405 C   0  0  0  0  0  0  0  0  0  0  0  0
   -3.6214    0.6806   -4.7140 C   0  0  0  0  0  0  0  0  0  0  0  0
   -3.0100    0.3013   -3.5205 C   0  0  0  0  0  0  0  0  0  0  0  0
   -1.7986    0.8730   -3.1502 C   0  0  0  0  0  0  0  0  0  0  0  0
   -1.1899    1.8269   -3.9834 C   0  0  0  0  0  0  0  0  0  0  0  0
   -1.8071    2.2030   -5.1809 C   0  0  0  0  0  0  0  0  0  0  0  0
   -3.6423    1.9874   -6.7070 O   0  0  0  0  0  0  0  0  0  0  0  0
   -4.7621    1.1306   -6.9747 C   0  0  0  0  0  0  0  0  0  0  0  0
   -4.5290    0.3946   -8.3007 C   0  0  0  0  0  0  0  0  0  0  0  0
 28 34  1  0  0  0
 28 29  2  0  0  0
 28 33  1  0  0  0
 34 35  1  0  0  0
 29 30  1  0  0  0
 30 31  2  0  0  0
 31 32  1  0  0  0
 31  1  1  0  0  0
 32 33  2  0  0  0
  1  2  1  0  0  0
  1  5  2  0  0  0
  2  3  1  0  0  0
  3  4  2  0  0  0
  3  9  1  0  0  0
  4  5  1  0  0  0
  4  6  1  0  0  0
  6  7  2  0  0  0
  7  8  1  0  0  0
  8  9  2  0  0  0
  8 11  1  0  0  0
 11 12  1  0  0  0
 11 15  2  0  0  0
 12 13  1  0  0  0
 13 14  2  0  0  0
 13 19  1  0  0  0
 14 15  1  0  0  0
 14 16  1  0  0  0
 16 17  2  0  0  0
 17 18  1  0  0  0
 18 19  2  0  0  0
 18 21  1  0  0  0
 21 22  1  0  0  0
 21 26  1  0  0  0
 22 23  1  0  0  0
 23 24  1  0  0  0
 24 25  1  0  0  0
 24 27  1  0  0  0
 25 26  1  0  0  0
 35 36  1  0  0  0
  2 10  1  0  0  0
 12 20  1  0  0  0
M  END
> <minimizedAffinity>
-11.85823

$$$$
3F8C_HT1_A_127


 36 41  0  0  0  0  0  0  0  0999 V2000
    0.0133   -3.8724    4.5351 C   0  0  0  0  0  0  0  0  0  0  0  0
   -0.8012   -3.8548    3.4603 N   0  0  0  0  0  0  0  0  0  0  0  0
   -0.4823   -2.8116    2.7010 C   0  0  0  0  0  0  0  0  0  0  0  0
    0.5774   -2.1518    3.3513 C   0  0  0  0  0  0  0  0  0  0  0  0
    0.8492   -2.8253    4.4685 N   0  0  0  0  0  0  0  0  0  0  0  0
    1.1354   -1.0041    2.8015 C   0  0  0  0  0  0  0  0  0  0  0  0
    0.6358   -0.5166    1.6018 C   0  0  0  0  0  0  0  0  0  0  0  0
   -0.4258   -1.1594    0.9483 C   0  0  0  0  0  0  0  0  0  0  0  0
   -0.9970   -2.3314    1.4812 C   0  0  0  0  0  0  0  0  0  0  0  0
   -1.5140   -4.5067    3.2698 H   0  0  0  0  0  0  0  0  0  0  0  0
   -0.8737   -0.6314   -0.2664 C   0  0  0  0  0  0  0  0  0  0  0  0
   -0.3658    0.4379   -0.8979 N   0  0  0  0  0  0  0  0  0  0  0  0
   -1.0744    0.6413   -2.0145 C   0  0  0  0  0  0  0  0  0  0  0  0
   -2.0710   -0.3356   -2.0546 C   0  0  0  0  0  0  0  0  0  0  0  0
   -1.9259   -1.0939   -0.9704 N   0  0  0  0  0  0  0  0  0  0  0  0
   -2.9827   -0.3686   -3.1099 C   0  0  0  0  0  0  0  0  0  0  0  0
   -2.8957    0.5789   -4.1386 C   0  0  0  0  0  0  0  0  0  0  0  0
   -1.8947    1.5538   -4.1183 C   0  0  0  0  0  0  0  0  0  0  0  0
   -0.9847    1.5929   -3.0419 C   0  0  0  0  0  0  0  0  0  0  0  0
    0.3972    0.9798   -0.5922 H   0  0  0  0  0  0  0  0  0  0  0  0
   -1.8414    2.4894   -5.0992 N   0  0  0  0  0  0  0  0  0  0  0  0
   -2.9117    2.3812   -6.1093 C   0  0  0  0  0  0  0  0  0  0  0  0
   -2.8141    3.5837   -7.0837 C   0  0  0  0  0  0  0  0  0  0  0  0
   -1.4668    3.6498   -7.7075 N   0  0  0  0  0  0  0  0  0  0  0  0
   -0.4191    3.7076   -6.6704 C   0  0  0  0  0  0  0  0  0  0  0  0
   -0.5354    2.4694   -5.7672 C   0  0  0  0  0  0  0  0  0  0  0  0
   -1.3419    4.8414   -8.5606 C   0  0  0  0  0  0  0  0  0  0  0  0
   -0.1289   -6.7479    7.5792 C   0  0  0  0  0  0  0  0  0  0  0  0
   -0.9170   -6.8804    6.4414 C   0  0  0  0  0  0  0  0  0  0  0  0
   -0.8652   -5.9232    5.4298 C   0  0  0  0  0  0  0  0  0  0  0  0
   -0.0202   -4.8270    5.5558 C   0  0  0  0  0  0  0  0  0  0  0  0
    0.7745   -4.6829    6.7056 C   0  0  0  0  0  0  0  0  0  0  0  0
    0.7176   -5.6458    7.7185 C   0  0  0  0  0  0  0  0  0  0  0  0
   -0.1935   -7.6961    8.5607 O   0  0  0  0  0  0  0  0  0  0  0  0
   -1.1760   -8.6917    8.2395 C   0  0  0  0  0  0  0  0  0  0  0  0
   -1.9351   -9.0818    9.5146 C   0  0  0  0  0  0  0  0  0  0  0  0
 28 34  1  0  0  0
 28 29  2  0  0  0
 28 33  1  0  0  0
 34 35  1  0  0  0
 29 30  1  0  0  0
 30 31  2  0  0  0
 31 32  1  0  0  0
 31  1  1  0  0  0
 32 33  2  0  0  0
  1  2  1  0  0  0
  1  5  2  0  0  0
  2  3  1  0  0  0
  3  4  2  0  0  0
  3  9  1  0  0  0
  4  5  1  0  0  0
  4  6  1  0  0  0
  6  7  2  0  0  0
  7  8  1  0  0  0
  8  9  2  0  0  0
  8 11  1  0  0  0
 11 12  1  0  0  0
 11 15  2  0  0  0
 12 13  1  0  0  0
 13 14  2  0  0  0
 13 19  1  0  0  0
 14 15  1  0  0  0
 14 16  1  0  0  0
 16 17  2  0  0  0
 17 18  1  0  0  0
 18 19  2  0  0  0
 18 21  1  0  0  0
 21 22  1  0  0  0
 21 26  1  0  0  0
 22 23  1  0  0  0
 23 24  1  0  0  0
 24 25  1  0  0  0
 24 27  1  0  0  0
 25 26  1  0  0  0
 35 36  1  0  0  0
  2 10  1  0  0  0
 12 20  1  0  0  0
M  END
> <minimizedAffinity>
-11.82514

$$$$
3F8C_HT1_A_127


 36 41  0  0  0  0  0  0  0  0999 V2000
    0.7026   -0.8280    1.5280 C   0  0  0  0  0  0  0  0  0  0  0  0
   -0.4185   -1.2407    0.9022 N   0  0  0  0  0  0  0  0  0  0  0  0
   -0.5856   -0.5126   -0.1971 C   0  0  0  0  0  0  0  0  0  0  0  0
    0.4856    0.3995   -0.2402 C   0  0  0  0  0  0  0  0  0  0  0  0
    1.2479    0.1800    0.8305 N   0  0  0  0  0  0  0  0  0  0  0  0
    0.5903    1.3140   -1.2811 C   0  0  0  0  0  0  0  0  0  0  0  0
   -0.3741    1.3163   -2.2793 C   0  0  0  0  0  0  0  0  0  0  0  0
   -1.4514    0.4189   -2.2435 C   0  0  0  0  0  0  0  0  0  0  0  0
   -1.5694   -0.5250   -1.2048 C   0  0  0  0  0  0  0  0  0  0  0  0
   -1.0145   -1.9619    1.2089 H   0  0  0  0  0  0  0  0  0  0  0  0
   -2.3811    0.4572   -3.2870 C   0  0  0  0  0  0  0  0  0  0  0  0
   -3.4891   -0.2931   -3.3856 N   0  0  0  0  0  0  0  0  0  0  0  0
   -4.1053    0.0174   -4.5319 C   0  0  0  0  0  0  0  0  0  0  0  0
   -3.3274    0.9856   -5.1696 C   0  0  0  0  0  0  0  0  0  0  0  0
   -2.2783    1.2288   -4.3874 N   0  0  0  0  0  0  0  0  0  0  0  0
   -3.7170    1.4993   -6.4066 C   0  0  0  0  0  0  0  0  0  0  0  0
   -4.8975    1.0469   -7.0109 C   0  0  0  0  0  0  0  0  0  0  0  0
   -5.6929    0.0883   -6.3775 C   0  0  0  0  0  0  0  0  0  0  0  0
   -5.2875   -0.4394   -5.1342 C   0  0  0  0  0  0  0  0  0  0  0  0
   -3.7959   -0.9580   -2.7275 H   0  0  0  0  0  0  0  0  0  0  0  0
   -6.8145   -0.3707   -6.9874 N   0  0  0  0  0  0  0  0  0  0  0  0
   -7.5618    0.6506   -7.7463 C   0  0  0  0  0  0  0  0  0  0  0  0
   -8.7326   -0.0323   -8.4999 C   0  0  0  0  0  0  0  0  0  0  0  0
   -9.6084   -0.7728   -7.5547 N   0  0  0  0  0  0  0  0  0  0  0  0
   -8.8218   -1.7500   -6.7784 C   0  0  0  0  0  0  0  0  0  0  0  0
   -7.7097   -1.0108   -6.0173 C   0  0  0  0  0  0  0  0  0  0  0  0
  -10.6656   -1.4966   -8.2770 C   0  0  0  0  0  0  0  0  0  0  0  0
    2.1641   -2.4385    5.1092 C   0  0  0  0  0  0  0  0  0  0  0  0
    0.8576   -2.6846    4.7023 C   0  0  0  0  0  0  0  0  0  0  0  0
    0.3757   -2.1493    3.5092 C   0  0  0  0  0  0  0  0  0  0  0  0
    1.2048   -1.3634    2.7176 C   0  0  0  0  0  0  0  0  0  0  0  0
    2.5244   -1.1049    3.1254 C   0  0  0  0  0  0  0  0  0  0  0  0
    3.0025   -1.6435    4.3245 C   0  0  0  0  0  0  0  0  0  0  0  0
    2.6188   -2.9713    6.2822 O   0  0  0  0  0  0  0  0  0  0  0  0
    3.1438   -1.9438    7.1357 C   0  0  0  0  0  0  0  0  0  0  0  0
    4.4326   -2.4477    7.7986 C   0  0  0  0  0  0  0  0  0  0  0  0
 28 34  1  0  0  0
 28 29  2  0  0  0
 28 33  1  0  0  0
 34 35  1  0  0  0
 29 30  1  0  0  0
 30 31  2  0  0  0
 31 32  1  0  0  0
 31  1  1  0  0  0
 32 33  2  0  0  0
  1  2  1  0  0  0
  1  5  2  0  0  0
  2  3  1  0  0  0
  3  4  2  0  0  0
  3  9  1  0  0  0
  4  5  1  0  0  0
  4  6  1  0  0  0
  6  7  2  0  0  0
  7  8  1  0  0  0
  8  9  2  0  0  0
  8 11  1  0  0  0
 11 12  1  0  0  0
 11 15  2  0  0  0
 12 13  1  0  0  0
 13 14  2  0  0  0
 13 19  1  0  0  0
 14 15  1  0  0  0
 14 16  1  0  0  0
 16 17  2  0  0  0
 17 18  1  0  0  0
 18 19  2  0  0  0
 18 21  1  0  0  0
 21 22  1  0  0  0
 21 26  1  0  0  0
 22 23  1  0  0  0
 23 24  1  0  0  0
 24 25  1  0  0  0
 24 27  1  0  0  0
 25 26  1  0  0  0
 35 36  1  0  0  0
  2 10  1  0  0  0
 12 20  1  0  0  0
M  END
> <minimizedAffinity>
-11.71329

$$$$
3F8C_HT1_A_127


 36 41  0  0  0  0  0  0  0  0999 V2000
   -2.6536   -0.1611   -2.9092 C   0  0  0  0  0  0  0  0  0  0  0  0
   -2.8577   -1.1734   -2.0417 N   0  0  0  0  0  0  0  0  0  0  0  0
   -1.9645   -1.0813   -1.0617 C   0  0  0  0  0  0  0  0  0  0  0  0
   -1.1665    0.0414   -1.3510 C   0  0  0  0  0  0  0  0  0  0  0  0
   -1.6140    0.5744   -2.4875 N   0  0  0  0  0  0  0  0  0  0  0  0
   -0.1253    0.4023   -0.5046 C   0  0  0  0  0  0  0  0  0  0  0  0
    0.1178   -0.3577    0.6311 C   0  0  0  0  0  0  0  0  0  0  0  0
   -0.6641   -1.4842    0.9262 C   0  0  0  0  0  0  0  0  0  0  0  0
   -1.7327   -1.8597    0.0889 C   0  0  0  0  0  0  0  0  0  0  0  0
   -3.5531   -1.8657   -2.1211 H   0  0  0  0  0  0  0  0  0  0  0  0
   -0.3825   -2.1992    2.0941 C   0  0  0  0  0  0  0  0  0  0  0  0
   -1.0176   -3.3029    2.5170 N   0  0  0  0  0  0  0  0  0  0  0  0
   -0.4758   -3.6784    3.6814 C   0  0  0  0  0  0  0  0  0  0  0  0
    0.5202   -2.7504    3.9915 C   0  0  0  0  0  0  0  0  0  0  0  0
    0.5489   -1.8563    3.0060 N   0  0  0  0  0  0  0  0  0  0  0  0
    1.2589   -2.8771    5.1681 C   0  0  0  0  0  0  0  0  0  0  0  0
    1.0055   -3.9434    6.0412 C   0  0  0  0  0  0  0  0  0  0  0  0
    0.0209   -4.8872    5.7365 C   0  0  0  0  0  0  0  0  0  0  0  0
   -0.7338   -4.7468    4.5537 C   0  0  0  0  0  0  0  0  0  0  0  0
   -1.7554   -3.7582    2.0506 H   0  0  0  0  0  0  0  0  0  0  0  0
   -0.2426   -5.8949    6.6058 N   0  0  0  0  0  0  0  0  0  0  0  0
    0.9538   -6.5163    7.2057 C   0  0  0  0  0  0  0  0  0  0  0  0
    0.5085   -7.5486    8.2739 C   0  0  0  0  0  0  0  0  0  0  0  0
   -0.4049   -8.5605    7.6818 N   0  0  0  0  0  0  0  0  0  0  0  0
   -1.5639   -7.9032    7.0486 C   0  0  0  0  0  0  0  0  0  0  0  0
   -1.0637   -6.9304    5.9689 C   0  0  0  0  0  0  0  0  0  0  0  0
   -0.9012   -9.4854    8.7120 C   0  0  0  0  0  0  0  0  0  0  0  0
   -4.9196    0.4960   -6.3717 C   0  0  0  0  0  0  0  0  0  0  0  0
   -5.2891   -0.4848   -5.4580 C   0  0  0  0  0  0  0  0  0  0  0  0
   -4.5343   -0.6988   -4.3062 C   0  0  0  0  0  0  0  0  0  0  0  0
   -3.4034    0.0723   -4.0656 C   0  0  0  0  0  0  0  0  0  0  0  0
   -3.0200    1.0611   -4.9875 C   0  0  0  0  0  0  0  0  0  0  0  0
   -3.7804    1.2708   -6.1427 C   0  0  0  0  0  0  0  0  0  0  0  0
   -5.6716    0.6910   -7.4955 O   0  0  0  0  0  0  0  0  0  0  0  0
   -7.0410    0.9474   -7.1507 C   0  0  0  0  0  0  0  0  0  0  0  0
   -7.9423    0.5351   -8.3220 C   0  0  0  0  0  0  0  0  0  0  0  0
 28 34  1  0  0  0
 28 29  2  0  0  0
 28 33  1  0  0  0
 34 35  1  0  0  0
 29 30  1  0  0  0
 30 31  2  0  0  0
 31 32  1  0  0  0
 31  1  1  0  0  0
 32 33  2  0  0  0
  1  2  1  0  0  0
  1  5  2  0  0  0
  2  3  1  0  0  0
  3  4  2  0  0  0
  3  9  1  0  0  0
  4  5  1  0  0  0
  4  6  1  0  0  0
  6  7  2  0  0  0
  7  8  1  0  0  0
  8  9  2  0  0  0
  8 11  1  0  0  0
 11 12  1  0  0  0
 11 15  2  0  0  0
 12 13  1  0  0  0
 13 14  2  0  0  0
 13 19  1  0  0  0
 14 15  1  0  0  0
 14 16  1  0  0  0
 16 17  2  0  0  0
 17 18  1  0  0  0
 18 19  2  0  0  0
 18 21  1  0  0  0
 21 22  1  0  0  0
 21 26  1  0  0  0
 22 23  1  0  0  0
 23 24  1  0  0  0
 24 25  1  0  0  0
 24 27  1  0  0  0
 25 26  1  0  0  0
 35 36  1  0  0  0
  2 10  1  0  0  0
 12 20  1  0  0  0
M  END
> <minimizedAffinity>
-11.51244

$$$$
3F8C_HT1_A_127


 36 41  0  0  0  0  0  0  0  0999 V2000
   -3.4719    0.2030   -4.2844 C   0  0  0  0  0  0  0  0  0  0  0  0
   -3.5322   -0.6634   -3.2526 N   0  0  0  0  0  0  0  0  0  0  0  0
   -2.5157   -0.4196   -2.4316 C   0  0  0  0  0  0  0  0  0  0  0  0
   -1.7908    0.6463   -2.9968 C   0  0  0  0  0  0  0  0  0  0  0  0
   -2.4015    0.9966   -4.1282 N   0  0  0  0  0  0  0  0  0  0  0  0
   -0.6523    1.1352   -2.3680 C   0  0  0  0  0  0  0  0  0  0  0  0
   -0.2388    0.5603   -1.1744 C   0  0  0  0  0  0  0  0  0  0  0  0
   -0.9468   -0.5084   -0.6052 C   0  0  0  0  0  0  0  0  0  0  0  0
   -2.1109   -1.0104   -1.2189 C   0  0  0  0  0  0  0  0  0  0  0  0
   -4.2158   -1.3608   -3.1281 H   0  0  0  0  0  0  0  0  0  0  0  0
   -0.4918   -1.0339    0.6079 C   0  0  0  0  0  0  0  0  0  0  0  0
   -1.0354   -2.0624    1.2765 N   0  0  0  0  0  0  0  0  0  0  0  0
   -0.3320   -2.2517    2.3988 C   0  0  0  0  0  0  0  0  0  0  0  0
    0.6726   -1.2824    2.4248 C   0  0  0  0  0  0  0  0  0  0  0  0
    0.5450   -0.5504    1.3206 N   0  0  0  0  0  0  0  0  0  0  0  0
    1.5663   -1.2232    3.4942 C   0  0  0  0  0  0  0  0  0  0  0  0
    1.4606   -2.1436    4.5454 C   0  0  0  0  0  0  0  0  0  0  0  0
    0.4686   -3.1277    4.5256 C   0  0  0  0  0  0  0  0  0  0  0  0
   -0.4422   -3.1745    3.4501 C   0  0  0  0  0  0  0  0  0  0  0  0
   -1.8175   -2.5875    0.9904 H   0  0  0  0  0  0  0  0  0  0  0  0
    0.3509   -3.9909    5.5656 N   0  0  0  0  0  0  0  0  0  0  0  0
    1.5836   -4.1704    6.3566 C   0  0  0  0  0  0  0  0  0  0  0  0
    1.2735   -5.0659    7.5842 C   0  0  0  0  0  0  0  0  0  0  0  0
    0.6942   -6.3660    7.1565 N   0  0  0  0  0  0  0  0  0  0  0  0
   -0.5070   -6.1492    6.3279 C   0  0  0  0  0  0  0  0  0  0  0  0
   -0.1287   -5.2985    5.1049 C   0  0  0  0  0  0  0  0  0  0  0  0
    0.3142   -7.1793    8.3214 C   0  0  0  0  0  0  0  0  0  0  0  0
   -6.2043    0.3135   -7.4588 C   0  0  0  0  0  0  0  0  0  0  0  0
   -6.4191   -0.5204   -6.3672 C   0  0  0  0  0  0  0  0  0  0  0  0
   -5.5092   -0.5527   -5.3120 C   0  0  0  0  0  0  0  0  0  0  0  0
   -4.3779    0.2538   -5.3476 C   0  0  0  0  0  0  0  0  0  0  0  0
   -4.1507    1.0945   -6.4505 C   0  0  0  0  0  0  0  0  0  0  0  0
   -5.0664    1.1219   -7.5075 C   0  0  0  0  0  0  0  0  0  0  0  0
   -7.1070    0.3312   -8.4842 O   0  0  0  0  0  0  0  0  0  0  0  0
   -8.4356    0.0988   -7.9936 C   0  0  0  0  0  0  0  0  0  0  0  0
   -9.2215   -0.7146   -9.0305 C   0  0  0  0  0  0  0  0  0  0  0  0
 28 34  1  0  0  0
 28 29  2  0  0  0
 28 33  1  0  0  0
 34 35  1  0  0  0
 29 30  1  0  0  0
 30 31  2  0  0  0
 31 32  1  0  0  0
 31  1  1  0  0  0
 32 33  2  0  0  0
  1  2  1  0  0  0
  1  5  2  0  0  0
  2  3  1  0  0  0
  3  4  2  0  0  0
  3  9  1  0  0  0
  4  5  1  0  0  0
  4  6  1  0  0  0
  6  7  2  0  0  0
  7  8  1  0  0  0
  8  9  2  0  0  0
  8 11  1  0  0  0
 11 12  1  0  0  0
 11 15  2  0  0  0
 12 13  1  0  0  0
 13 14  2  0  0  0
 13 19  1  0  0  0
 14 15  1  0  0  0
 14 16  1  0  0  0
 16 17  2  0  0  0
 17 18  1  0  0  0
 18 19  2  0  0  0
 18 21  1  0  0  0
 21 22  1  0  0  0
 21 26  1  0  0  0
 22 23  1  0  0  0
 23 24  1  0  0  0
 24 25  1  0  0  0
 24 27  1  0  0  0
 25 26  1  0  0  0
 35 36  1  0  0  0
  2 10  1  0  0  0
 12 20  1  0  0  0
M  END
> <minimizedAffinity>
-11.46901

$$$$
3F8C_HT1_A_127


 36 41  0  0  0  0  0  0  0  0999 V2000
    0.0392   -5.1224    5.9231 C   0  0  0  0  0  0  0  0  0  0  0  0
   -0.5124   -4.8815    4.7161 N   0  0  0  0  0  0  0  0  0  0  0  0
   -0.0181   -3.7427    4.2414 C   0  0  0  0  0  0  0  0  0  0  0  0
    0.8760   -3.2576    5.2141 C   0  0  0  0  0  0  0  0  0  0  0  0
    0.8813   -4.1233    6.2272 N   0  0  0  0  0  0  0  0  0  0  0  0
    1.5574   -2.0637    5.0113 C   0  0  0  0  0  0  0  0  0  0  0  0
    1.3465   -1.3555    3.8364 C   0  0  0  0  0  0  0  0  0  0  0  0
    0.4515   -1.8232    2.8630 C   0  0  0  0  0  0  0  0  0  0  0  0
   -0.2393   -3.0375    3.0425 C   0  0  0  0  0  0  0  0  0  0  0  0
   -1.1719   -5.4543    4.2620 H   0  0  0  0  0  0  0  0  0  0  0  0
    0.2949   -1.0752    1.6923 C   0  0  0  0  0  0  0  0  0  0  0  0
   -0.6667   -1.2416    0.7714 N   0  0  0  0  0  0  0  0  0  0  0  0
   -0.4677   -0.3521   -0.2082 C   0  0  0  0  0  0  0  0  0  0  0  0
    0.6778    0.3751    0.1209 C   0  0  0  0  0  0  0  0  0  0  0  0
    1.1238   -0.0939    1.2840 N   0  0  0  0  0  0  0  0  0  0  0  0
    1.1440    1.3776   -0.7297 C   0  0  0  0  0  0  0  0  0  0  0  0
    0.4574    1.6615   -1.9177 C   0  0  0  0  0  0  0  0  0  0  0  0
   -0.6983    0.9509   -2.2528 C   0  0  0  0  0  0  0  0  0  0  0  0
   -1.1575   -0.0719   -1.3976 C   0  0  0  0  0  0  0  0  0  0  0  0
   -1.3937   -1.9043    0.8099 H   0  0  0  0  0  0  0  0  0  0  0  0
   -1.3352    1.2076   -3.4229 N   0  0  0  0  0  0  0  0  0  0  0  0
   -1.2453    2.6092   -3.8757 C   0  0  0  0  0  0  0  0  0  0  0  0
   -1.8908    2.7314   -5.2805 C   0  0  0  0  0  0  0  0  0  0  0  0
   -3.2944    2.2432   -5.2610 N   0  0  0  0  0  0  0  0  0  0  0  0
   -3.3530    0.8577   -4.7576 C   0  0  0  0  0  0  0  0  0  0  0  0
   -2.7447    0.8081   -3.3469 C   0  0  0  0  0  0  0  0  0  0  0  0
   -3.8783    2.2720   -6.6105 C   0  0  0  0  0  0  0  0  0  0  0  0
   -0.8251   -8.4342    8.3397 C   0  0  0  0  0  0  0  0  0  0  0  0
   -1.8490   -7.6889    7.7657 C   0  0  0  0  0  0  0  0  0  0  0  0
   -1.5576   -6.5894    6.9604 C   0  0  0  0  0  0  0  0  0  0  0  0
   -0.2348   -6.2327    6.7269 C   0  0  0  0  0  0  0  0  0  0  0  0
    0.8052   -6.9771    7.3088 C   0  0  0  0  0  0  0  0  0  0  0  0
    0.5072   -8.0789    8.1174 C   0  0  0  0  0  0  0  0  0  0  0  0
   -1.1301   -9.5084    9.1268 O   0  0  0  0  0  0  0  0  0  0  0  0
   -2.5348   -9.5394    9.4198 C   0  0  0  0  0  0  0  0  0  0  0  0
   -3.0979  -10.9172    9.0473 C   0  0  0  0  0  0  0  0  0  0  0  0
 28 34  1  0  0  0
 28 29  2  0  0  0
 28 33  1  0  0  0
 34 35  1  0  0  0
 29 30  1  0  0  0
 30 31  2  0  0  0
 31 32  1  0  0  0
 31  1  1  0  0  0
 32 33  2  0  0  0
  1  2  1  0  0  0
  1  5  2  0  0  0
  2  3  1  0  0  0
  3  4  2  0  0  0
  3  9  1  0  0  0
  4  5  1  0  0  0
  4  6  1  0  0  0
  6  7  2  0  0  0
  7  8  1  0  0  0
  8  9  2  0  0  0
  8 11  1  0  0  0
 11 12  1  0  0  0
 11 15  2  0  0  0
 12 13  1  0  0  0
 13 14  2  0  0  0
 13 19  1  0  0  0
 14 15  1  0  0  0
 14 16  1  0  0  0
 16 17  2  0  0  0
 17 18  1  0  0  0
 18 19  2  0  0  0
 18 21  1  0  0  0
 21 22  1  0  0  0
 21 26  1  0  0  0
 22 23  1  0  0  0
 23 24  1  0  0  0
 24 25  1  0  0  0
 24 27  1  0  0  0
 25 26  1  0  0  0
 35 36  1  0  0  0
  2 10  1  0  0  0
 12 20  1  0  0  0
M  END
> <minimizedAffinity>
-11.34352

$$$$
3F8C_HT1_A_127


 36 41  0  0  0  0  0  0  0  0999 V2000
   -5.1165    0.0051   -5.9319 C   0  0  0  0  0  0  0  0  0  0  0  0
   -4.8444   -0.5664   -4.7410 N   0  0  0  0  0  0  0  0  0  0  0  0
   -3.7323   -0.0260   -4.2532 C   0  0  0  0  0  0  0  0  0  0  0  0
   -3.2971    0.9193   -5.2008 C   0  0  0  0  0  0  0  0  0  0  0  0
   -4.1640    0.9071   -6.2129 N   0  0  0  0  0  0  0  0  0  0  0  0
   -2.1405    1.6570   -4.9797 C   0  0  0  0  0  0  0  0  0  0  0  0
   -1.4197    1.4511   -3.8116 C   0  0  0  0  0  0  0  0  0  0  0  0
   -1.8374    0.5057   -2.8634 C   0  0  0  0  0  0  0  0  0  0  0  0
   -3.0139   -0.2430   -3.0615 C   0  0  0  0  0  0  0  0  0  0  0  0
   -5.3806   -1.2677   -4.3052 H   0  0  0  0  0  0  0  0  0  0  0  0
   -1.0798    0.3563   -1.6979 C   0  0  0  0  0  0  0  0  0  0  0  0
   -1.1949   -0.6367   -0.8030 N   0  0  0  0  0  0  0  0  0  0  0  0
   -0.3145   -0.4189    0.1808 C   0  0  0  0  0  0  0  0  0  0  0  0
    0.3526    0.7706   -0.1182 C   0  0  0  0  0  0  0  0  0  0  0  0
   -0.1411    1.2230   -1.2685 N   0  0  0  0  0  0  0  0  0  0  0  0
    1.3320    1.2644    0.7437 C   0  0  0  0  0  0  0  0  0  0  0  0
    1.6532    0.5617    1.9127 C   0  0  0  0  0  0  0  0  0  0  0  0
    1.0032   -0.6372    2.2173 C   0  0  0  0  0  0  0  0  0  0  0  0
    0.0031   -1.1250    1.3511 C   0  0  0  0  0  0  0  0  0  0  0  0
   -1.8198   -1.3953   -0.8603 H   0  0  0  0  0  0  0  0  0  0  0  0
    1.2946   -1.2911    3.3698 N   0  0  0  0  0  0  0  0  0  0  0  0
    2.7363   -1.4052    3.6628 C   0  0  0  0  0  0  0  0  0  0  0  0
    2.9209   -2.0448    5.0634 C   0  0  0  0  0  0  0  0  0  0  0  0
    2.2335   -3.3604    5.1378 N   0  0  0  0  0  0  0  0  0  0  0  0
    0.8064   -3.2185    4.7919 C   0  0  0  0  0  0  0  0  0  0  0  0
    0.6871   -2.6264    3.3785 C   0  0  0  0  0  0  0  0  0  0  0  0
    2.3290   -3.9260    6.4921 C   0  0  0  0  0  0  0  0  0  0  0  0
   -8.4167   -0.8796   -8.3571 C   0  0  0  0  0  0  0  0  0  0  0  0
   -8.0006    0.4349   -8.1778 C   0  0  0  0  0  0  0  0  0  0  0  0
   -6.9009    0.7252   -7.3724 C   0  0  0  0  0  0  0  0  0  0  0  0
   -6.2124   -0.3047   -6.7424 C   0  0  0  0  0  0  0  0  0  0  0  0
   -6.6308   -1.6352   -6.9136 C   0  0  0  0  0  0  0  0  0  0  0  0
   -7.7361   -1.9208   -7.7219 C   0  0  0  0  0  0  0  0  0  0  0  0
   -9.4972   -1.1447   -9.1499 O   0  0  0  0  0  0  0  0  0  0  0  0
  -10.3905   -2.0606   -8.4994 C   0  0  0  0  0  0  0  0  0  0  0  0
  -11.4068   -1.2688   -7.6661 C   0  0  0  0  0  0  0  0  0  0  0  0
 28 34  1  0  0  0
 28 29  2  0  0  0
 28 33  1  0  0  0
 34 35  1  0  0  0
 29 30  1  0  0  0
 30 31  2  0  0  0
 31 32  1  0  0  0
 31  1  1  0  0  0
 32 33  2  0  0  0
  1  2  1  0  0  0
  1  5  2  0  0  0
  2  3  1  0  0  0
  3  4  2  0  0  0
  3  9  1  0  0  0
  4  5  1  0  0  0
  4  6  1  0  0  0
  6  7  2  0  0  0
  7  8  1  0  0  0
  8  9  2  0  0  0
  8 11  1  0  0  0
 11 12  1  0  0  0
 11 15  2  0  0  0
 12 13  1  0  0  0
 13 14  2  0  0  0
 13 19  1  0  0  0
 14 15  1  0  0  0
 14 16  1  0  0  0
 16 17  2  0  0  0
 17 18  1  0  0  0
 18 19  2  0  0  0
 18 21  1  0  0  0
 21 22  1  0  0  0
 21 26  1  0  0  0
 22 23  1  0  0  0
 23 24  1  0  0  0
 24 25  1  0  0  0
 24 27  1  0  0  0
 25 26  1  0  0  0
 35 36  1  0  0  0
  2 10  1  0  0  0
 12 20  1  0  0  0
M  END
> <minimizedAffinity>
-11.32802

$$$$
3F8C_HT1_A_127


 36 41  0  0  0  0  0  0  0  0999 V2000
    0.2828   -0.9908    1.4017 C   0  0  0  0  0  0  0  0  0  0  0  0
   -0.8016   -1.6642    0.9665 N   0  0  0  0  0  0  0  0  0  0  0  0
   -1.2081   -1.1234   -0.1776 C   0  0  0  0  0  0  0  0  0  0  0  0
   -0.3308   -0.0573   -0.4510 C   0  0  0  0  0  0  0  0  0  0  0  0
    0.5625   -0.0044    0.5364 N   0  0  0  0  0  0  0  0  0  0  0  0
   -0.4995    0.7189   -1.5910 C   0  0  0  0  0  0  0  0  0  0  0  0
   -1.5437    0.4293   -2.4584 C   0  0  0  0  0  0  0  0  0  0  0  0
   -2.4305   -0.6245   -2.1931 C   0  0  0  0  0  0  0  0  0  0  0  0
   -2.2696   -1.4321   -1.0503 C   0  0  0  0  0  0  0  0  0  0  0  0
   -1.2224   -2.4294    1.4209 H   0  0  0  0  0  0  0  0  0  0  0  0
   -3.4518   -0.8792   -3.1133 C   0  0  0  0  0  0  0  0  0  0  0  0
   -4.0514   -2.0614   -3.3205 N   0  0  0  0  0  0  0  0  0  0  0  0
   -4.9587   -1.9070   -4.2918 C   0  0  0  0  0  0  0  0  0  0  0  0
   -4.8946   -0.5760   -4.7087 C   0  0  0  0  0  0  0  0  0  0  0  0
   -3.9610    0.0243   -3.9742 N   0  0  0  0  0  0  0  0  0  0  0  0
   -5.7257   -0.1175   -5.7309 C   0  0  0  0  0  0  0  0  0  0  0  0
   -6.6339   -0.9940   -6.3395 C   0  0  0  0  0  0  0  0  0  0  0  0
   -6.7183   -2.3252   -5.9229 C   0  0  0  0  0  0  0  0  0  0  0  0
   -5.8657   -2.7884   -4.8996 C   0  0  0  0  0  0  0  0  0  0  0  0
   -3.8573   -2.8987   -2.8404 H   0  0  0  0  0  0  0  0  0  0  0  0
   -7.5743   -3.1755   -6.5433 N   0  0  0  0  0  0  0  0  0  0  0  0
   -7.4256   -4.5903   -6.1511 C   0  0  0  0  0  0  0  0  0  0  0  0
   -8.5466   -5.4244   -6.8240 C   0  0  0  0  0  0  0  0  0  0  0  0
   -8.5197   -5.2516   -8.2999 N   0  0  0  0  0  0  0  0  0  0  0  0
   -8.6209   -3.8234   -8.6552 C   0  0  0  0  0  0  0  0  0  0  0  0
   -7.4596   -3.0579   -8.0010 C   0  0  0  0  0  0  0  0  0  0  0  0
   -9.6380   -5.9678   -8.9320 C   0  0  0  0  0  0  0  0  0  0  0  0
    2.4459   -1.8391    4.8884 C   0  0  0  0  0  0  0  0  0  0  0  0
    3.0547   -1.1998    3.8142 C   0  0  0  0  0  0  0  0  0  0  0  0
    2.3314   -0.9170    2.6570 C   0  0  0  0  0  0  0  0  0  0  0  0
    0.9911   -1.2750    2.5728 C   0  0  0  0  0  0  0  0  0  0  0  0
    0.3706   -1.9271    3.6518 C   0  0  0  0  0  0  0  0  0  0  0  0
    1.1016   -2.2098    4.8103 C   0  0  0  0  0  0  0  0  0  0  0  0
    3.1712   -2.1085    6.0144 O   0  0  0  0  0  0  0  0  0  0  0  0
    2.8802   -1.1531    7.0452 C   0  0  0  0  0  0  0  0  0  0  0  0
    4.0470   -0.1633    7.1600 C   0  0  0  0  0  0  0  0  0  0  0  0
 28 34  1  0  0  0
 28 29  2  0  0  0
 28 33  1  0  0  0
 34 35  1  0  0  0
 29 30  1  0  0  0
 30 31  2  0  0  0
 31 32  1  0  0  0
 31  1  1  0  0  0
 32 33  2  0  0  0
  1  2  1  0  0  0
  1  5  2  0  0  0
  2  3  1  0  0  0
  3  4  2  0  0  0
  3  9  1  0  0  0
  4  5  1  0  0  0
  4  6  1  0  0  0
  6  7  2  0  0  0
  7  8  1  0  0  0
  8  9  2  0  0  0
  8 11  1  0  0  0
 11 12  1  0  0  0
 11 15  2  0  0  0
 12 13  1  0  0  0
 13 14  2  0  0  0
 13 19  1  0  0  0
 14 15  1  0  0  0
 14 16  1  0  0  0
 16 17  2  0  0  0
 17 18  1  0  0  0
 18 19  2  0  0  0
 18 21  1  0  0  0
 21 22  1  0  0  0
 21 26  1  0  0  0
 22 23  1  0  0  0
 23 24  1  0  0  0
 24 25  1  0  0  0
 24 27  1  0  0  0
 25 26  1  0  0  0
 35 36  1  0  0  0
  2 10  1  0  0  0
 12 20  1  0  0  0
M  END
> <minimizedAffinity>
-11.08272

$$$$
3F8C_HT1_A_127


 36 41  0  0  0  0  0  0  0  0999 V2000
   -0.3536   -0.4598    0.2597 C   0  0  0  0  0  0  0  0  0  0  0  0
   -0.8793   -1.6248    0.6903 N   0  0  0  0  0  0  0  0  0  0  0  0
   -0.3259   -1.9362    1.8579 C   0  0  0  0  0  0  0  0  0  0  0  0
    0.5934   -0.9117    2.1516 C   0  0  0  0  0  0  0  0  0  0  0  0
    0.5519   -0.0314    1.1521 N   0  0  0  0  0  0  0  0  0  0  0  0
    1.3458   -0.9541    3.3191 C   0  0  0  0  0  0  0  0  0  0  0  0
    1.1788   -2.0190    4.1934 C   0  0  0  0  0  0  0  0  0  0  0  0
    0.2727   -3.0510    3.9083 C   0  0  0  0  0  0  0  0  0  0  0  0
   -0.5094   -3.0209    2.7373 C   0  0  0  0  0  0  0  0  0  0  0  0
   -1.5602   -2.1564    0.2180 H   0  0  0  0  0  0  0  0  0  0  0  0
    0.1352   -4.0878    4.8362 C   0  0  0  0  0  0  0  0  0  0  0  0
   -0.7006   -5.1324    4.7352 N   0  0  0  0  0  0  0  0  0  0  0  0
   -0.5555   -5.8928    5.8266 C   0  0  0  0  0  0  0  0  0  0  0  0
    0.3967   -5.2728    6.6379 C   0  0  0  0  0  0  0  0  0  0  0  0
    0.7954   -4.1699    6.0085 N   0  0  0  0  0  0  0  0  0  0  0  0
    0.7508   -5.8357    7.8642 C   0  0  0  0  0  0  0  0  0  0  0  0
    0.1532   -7.0320    8.2828 C   0  0  0  0  0  0  0  0  0  0  0  0
   -0.7912   -7.6704    7.4745 C   0  0  0  0  0  0  0  0  0  0  0  0
   -1.1573   -7.0901    6.2426 C   0  0  0  0  0  0  0  0  0  0  0  0
   -1.3152   -5.3092    3.9866 H   0  0  0  0  0  0  0  0  0  0  0  0
   -1.3915   -8.8084    7.9049 N   0  0  0  0  0  0  0  0  0  0  0  0
   -1.6652   -9.7968    6.8439 C   0  0  0  0  0  0  0  0  0  0  0  0
   -2.2199  -11.0936    7.4886 C   0  0  0  0  0  0  0  0  0  0  0  0
   -3.4294  -10.8032    8.3021 N   0  0  0  0  0  0  0  0  0  0  0  0
   -3.1338   -9.7769    9.3198 C   0  0  0  0  0  0  0  0  0  0  0  0
   -2.6353   -8.5024    8.6201 C   0  0  0  0  0  0  0  0  0  0  0  0
   -3.9029  -12.0148    8.9883 C   0  0  0  0  0  0  0  0  0  0  0  0
   -1.3596    1.5179   -3.2944 C   0  0  0  0  0  0  0  0  0  0  0  0
   -0.3655    2.0187   -2.4613 C   0  0  0  0  0  0  0  0  0  0  0  0
   -0.0318    1.3568   -1.2811 C   0  0  0  0  0  0  0  0  0  0  0  0
   -0.6955    0.1868   -0.9315 C   0  0  0  0  0  0  0  0  0  0  0  0
   -1.7058   -0.3220   -1.7651 C   0  0  0  0  0  0  0  0  0  0  0  0
   -2.0377    0.3471   -2.9477 C   0  0  0  0  0  0  0  0  0  0  0  0
   -1.6734    2.1807   -4.4471 O   0  0  0  0  0  0  0  0  0  0  0  0
   -3.0964    2.2474   -4.6220 C   0  0  0  0  0  0  0  0  0  0  0  0
   -3.4478    1.8432   -6.0598 C   0  0  0  0  0  0  0  0  0  0  0  0
 28 34  1  0  0  0
 28 29  2  0  0  0
 28 33  1  0  0  0
 34 35  1  0  0  0
 29 30  1  0  0  0
 30 31  2  0  0  0
 31 32  1  0  0  0
 31  1  1  0  0  0
 32 33  2  0  0  0
  1  2  1  0  0  0
  1  5  2  0  0  0
  2  3  1  0  0  0
  3  4  2  0  0  0
  3  9  1  0  0  0
  4  5  1  0  0  0
  4  6  1  0  0  0
  6  7  2  0  0  0
  7  8  1  0  0  0
  8  9  2  0  0  0
  8 11  1  0  0  0
 11 12  1  0  0  0
 11 15  2  0  0  0
 12 13  1  0  0  0
 13 14  2  0  0  0
 13 19  1  0  0  0
 14 15  1  0  0  0
 14 16  1  0  0  0
 16 17  2  0  0  0
 17 18  1  0  0  0
 18 19  2  0  0  0
 18 21  1  0  0  0
 21 22  1  0  0  0
 21 26  1  0  0  0
 22 23  1  0  0  0
 23 24  1  0  0  0
 24 25  1  0  0  0
 24 27  1  0  0  0
 25 26  1  0  0  0
 35 36  1  0  0  0
  2 10  1  0  0  0
 12 20  1  0  0  0
M  END
> <minimizedAffinity>
-11.02604

$$$$
