1MUE_CDD_B_248


 34 36  0  0  0  0  0  0  0  0999 V2000
   17.3993  -14.2956   22.1068 C   0  0  0  0  0  0  0  0  0  0  0  0
   16.1245  -14.4527   21.2546 C   0  0  0  0  0  0  0  0  0  0  0  0
   16.1963  -13.9726   19.9875 N   0  0  0  0  0  0  0  0  0  0  0  0
   17.4225  -13.3142   19.4927 C   0  0  0  0  0  0  0  0  0  0  0  0
   18.5418  -13.1133   20.3953 C   0  0  0  0  0  0  0  0  0  0  0  0
   18.4676  -13.5904   21.6543 N   0  0  0  0  0  0  0  0  0  0  0  0
   15.1317  -15.0167   21.7271 O   0  0  0  0  0  0  0  0  0  0  0  0
   17.5199  -12.7726   17.8729 Cl  0  0  0  0  0  0  0  0  0  0  0  0
   17.3912  -14.8496   23.3921 N   0  0  0  0  0  0  0  0  0  0  0  0
   16.9770  -14.4352   24.1833 H   0  0  0  0  0  0  0  0  0  0  0  0
   18.0902  -16.1374   23.3865 C   0  0  0  0  0  0  0  0  0  0  0  0
   18.7188  -16.4085   24.7238 C   0  0  0  0  0  0  0  0  0  0  0  0
   19.1693  -17.6738   24.7615 F   0  0  0  0  0  0  0  0  0  0  0  0
   17.7801  -16.2470   25.6955 F   0  0  0  0  0  0  0  0  0  0  0  0
   22.0085  -14.7273   24.4487 C   0  0  0  0  0  0  0  0  0  0  0  0
   20.9353  -15.4560   24.1596 N   0  0  0  0  0  0  0  0  0  0  0  0
   19.8924  -15.5037   25.0040 C   0  0  0  0  0  0  0  0  0  0  0  0
   19.8793  -14.7713   26.1782 C   0  0  0  0  0  0  0  0  0  0  0  0
   20.9545  -13.9853   26.4782 C   0  0  0  0  0  0  0  0  0  0  0  0
   22.0517  -13.9796   25.6180 C   0  0  0  0  0  0  0  0  0  0  0  0
   20.9319  -16.1822   22.9910 O   0  0  0  0  0  0  0  0  0  0  0  0
   15.0636  -14.0295   19.0523 C   0  0  0  0  0  0  0  0  0  0  0  0
   14.1595  -12.8036   19.1386 C   0  0  0  0  0  0  0  0  0  0  0  0
   13.5938  -12.6293   20.3590 N   0  0  0  0  0  0  0  0  0  0  0  0
   13.9768  -12.0699   18.1613 O   0  0  0  0  0  0  0  0  0  0  0  0
   13.7167  -13.2888   21.0796 H   0  0  0  0  0  0  0  0  0  0  0  0
   12.7927  -11.4201   20.5610 C   0  0  0  0  0  0  0  0  0  0  0  0
   12.2642  -11.2446   21.9844 C   0  0  0  0  0  0  0  0  0  0  0  0
   12.5780  -10.1045   22.7427 C   0  0  0  0  0  0  0  0  0  0  0  0
   12.0892   -9.9889   24.0650 C   0  0  0  0  0  0  0  0  0  0  0  0
   11.2384  -10.9626   24.6025 C   0  0  0  0  0  0  0  0  0  0  0  0
   10.9250  -12.0909   23.8491 C   0  0  0  0  0  0  0  0  0  0  0  0
   11.4541  -12.2267   22.5547 C   0  0  0  0  0  0  0  0  0  0  0  0
   11.2960  -13.3440   21.8256 F   0  0  0  0  0  0  0  0  0  0  0  0
 15 16  2  0  0  0
 15 20  1  0  0  0
 16 17  1  0  0  0
 16 21  1  0  0  0
 17 18  2  0  0  0
 17 12  1  0  0  0
 18 19  1  0  0  0
 19 20  2  0  0  0
 12 11  1  0  0  0
 12 13  1  0  0  0
 12 14  1  0  0  0
 11  9  1  0  0  0
  9  1  1  0  0  0
  1  2  1  0  0  0
  1  6  2  0  0  0
  2  3  1  0  0  0
  2  7  2  0  0  0
  3  4  1  0  0  0
  3 22  1  0  0  0
  4  5  2  0  0  0
  4  8  1  0  0  0
  5  6  1  0  0  0
 22 23  1  0  0  0
 23 24  1  0  0  0
 23 25  2  0  0  0
 24 27  1  0  0  0
 27 28  1  0  0  0
 28 29  1  0  0  0
 28 33  2  0  0  0
 29 30  2  0  0  0
 30 31  1  0  0  0
 31 32  2  0  0  0
 32 33  1  0  0  0
 33 34  1  0  0  0
  9 10  1  0  0  0
 24 26  1  0  0  0
M  CHG 1  16   1
M  CHG 1  21  -1
M  END
> <minimizedAffinity>
-9.29470

$$$$
1MUE_CDD_B_248


 34 36  0  0  0  0  0  0  0  0999 V2000
   15.9189  -13.3102   21.3382 C   0  0  0  0  0  0  0  0  0  0  0  0
   16.2775  -14.8012   21.4936 C   0  0  0  0  0  0  0  0  0  0  0  0
   17.5929  -15.1102   21.3687 N   0  0  0  0  0  0  0  0  0  0  0  0
   18.5936  -14.0658   21.0686 C   0  0  0  0  0  0  0  0  0  0  0  0
   18.1565  -12.7016   20.8330 C   0  0  0  0  0  0  0  0  0  0  0  0
   16.8487  -12.3973   20.9568 N   0  0  0  0  0  0  0  0  0  0  0  0
   15.3929  -15.6257   21.7480 O   0  0  0  0  0  0  0  0  0  0  0  0
   20.2556  -14.4609   20.9786 Cl  0  0  0  0  0  0  0  0  0  0  0  0
   14.5839  -12.9410   21.5395 N   0  0  0  0  0  0  0  0  0  0  0  0
   13.8643  -13.5529   21.8170 H   0  0  0  0  0  0  0  0  0  0  0  0
   14.4154  -11.5094   21.2763 C   0  0  0  0  0  0  0  0  0  0  0  0
   12.9589  -11.1511   21.1913 C   0  0  0  0  0  0  0  0  0  0  0  0
   12.3236  -12.0324   20.4007 F   0  0  0  0  0  0  0  0  0  0  0  0
   12.8391   -9.9086   20.6496 F   0  0  0  0  0  0  0  0  0  0  0  0
   10.9355  -12.2690   24.0862 C   0  0  0  0  0  0  0  0  0  0  0  0
   11.6100  -12.2725   22.9410 N   0  0  0  0  0  0  0  0  0  0  0  0
   12.2779  -11.1800   22.5367 C   0  0  0  0  0  0  0  0  0  0  0  0
   12.3212  -10.0324   23.3090 C   0  0  0  0  0  0  0  0  0  0  0  0
   11.6675  -10.0181   24.5076 C   0  0  0  0  0  0  0  0  0  0  0  0
   10.9382  -11.1410   24.8960 C   0  0  0  0  0  0  0  0  0  0  0  0
   11.5822  -13.4101   22.1677 O   0  0  0  0  0  0  0  0  0  0  0  0
   18.0979  -16.4867   21.4731 C   0  0  0  0  0  0  0  0  0  0  0  0
   18.5002  -16.8659   22.8952 C   0  0  0  0  0  0  0  0  0  0  0  0
   19.8304  -17.0857   23.0442 N   0  0  0  0  0  0  0  0  0  0  0  0
   17.6602  -16.9643   23.7959 O   0  0  0  0  0  0  0  0  0  0  0  0
   20.4426  -17.0657   22.2735 H   0  0  0  0  0  0  0  0  0  0  0  0
   20.3187  -17.3540   24.3987 C   0  0  0  0  0  0  0  0  0  0  0  0
   20.6702  -16.1019   25.2015 C   0  0  0  0  0  0  0  0  0  0  0  0
   21.7483  -15.2796   24.8343 C   0  0  0  0  0  0  0  0  0  0  0  0
   22.0570  -14.1419   25.6160 C   0  0  0  0  0  0  0  0  0  0  0  0
   21.2583  -13.7854   26.7095 C   0  0  0  0  0  0  0  0  0  0  0  0
   20.1877  -14.5990   27.0712 C   0  0  0  0  0  0  0  0  0  0  0  0
   19.9154  -15.7563   26.3227 C   0  0  0  0  0  0  0  0  0  0  0  0
   18.9811  -16.6488   26.6908 F   0  0  0  0  0  0  0  0  0  0  0  0
 15 16  2  0  0  0
 15 20  1  0  0  0
 16 17  1  0  0  0
 16 21  1  0  0  0
 17 18  2  0  0  0
 17 12  1  0  0  0
 18 19  1  0  0  0
 19 20  2  0  0  0
 12 11  1  0  0  0
 12 13  1  0  0  0
 12 14  1  0  0  0
 11  9  1  0  0  0
  9  1  1  0  0  0
  1  2  1  0  0  0
  1  6  2  0  0  0
  2  3  1  0  0  0
  2  7  2  0  0  0
  3  4  1  0  0  0
  3 22  1  0  0  0
  4  5  2  0  0  0
  4  8  1  0  0  0
  5  6  1  0  0  0
 22 23  1  0  0  0
 23 24  1  0  0  0
 23 25  2  0  0  0
 24 27  1  0  0  0
 27 28  1  0  0  0
 28 29  1  0  0  0
 28 33  2  0  0  0
 29 30  2  0  0  0
 30 31  1  0  0  0
 31 32  2  0  0  0
 32 33  1  0  0  0
 33 34  1  0  0  0
  9 10  1  0  0  0
 24 26  1  0  0  0
M  CHG 1  16   1
M  CHG 1  21  -1
M  END
> <minimizedAffinity>
-9.18381

$$$$
1MUE_CDD_B_248


 34 36  0  0  0  0  0  0  0  0999 V2000
   16.7063  -15.0743   22.0212 C   0  0  0  0  0  0  0  0  0  0  0  0
   16.6497  -13.9177   21.0039 C   0  0  0  0  0  0  0  0  0  0  0  0
   16.1164  -14.2194   19.7932 N   0  0  0  0  0  0  0  0  0  0  0  0
   15.6574  -15.5892   19.4850 C   0  0  0  0  0  0  0  0  0  0  0  0
   15.8442  -16.6445   20.4643 C   0  0  0  0  0  0  0  0  0  0  0  0
   16.3752  -16.3424   21.6664 N   0  0  0  0  0  0  0  0  0  0  0  0
   17.0473  -12.7927   21.3254 O   0  0  0  0  0  0  0  0  0  0  0  0
   14.9281  -15.9382   17.9774 Cl  0  0  0  0  0  0  0  0  0  0  0  0
   17.1757  -14.7831   23.3073 N   0  0  0  0  0  0  0  0  0  0  0  0
   16.8748  -14.0264   23.8605 H   0  0  0  0  0  0  0  0  0  0  0  0
   18.1809  -15.7707   23.7088 C   0  0  0  0  0  0  0  0  0  0  0  0
   19.5651  -15.2830   23.3877 C   0  0  0  0  0  0  0  0  0  0  0  0
   19.4885  -14.1936   22.6048 F   0  0  0  0  0  0  0  0  0  0  0  0
   20.2348  -16.2597   22.7175 F   0  0  0  0  0  0  0  0  0  0  0  0
   22.3420  -14.2803   25.6256 C   0  0  0  0  0  0  0  0  0  0  0  0
   21.6316  -14.5345   24.5315 N   0  0  0  0  0  0  0  0  0  0  0  0
   20.3420  -14.8975   24.6216 C   0  0  0  0  0  0  0  0  0  0  0  0
   19.6987  -14.9816   25.8441 C   0  0  0  0  0  0  0  0  0  0  0  0
   20.3975  -14.6878   26.9796 C   0  0  0  0  0  0  0  0  0  0  0  0
   21.7484  -14.3580   26.8785 C   0  0  0  0  0  0  0  0  0  0  0  0
   22.2569  -14.4462   23.3092 O   0  0  0  0  0  0  0  0  0  0  0  0
   16.0053  -13.2344   18.7076 C   0  0  0  0  0  0  0  0  0  0  0  0
   14.6975  -12.4498   18.7487 C   0  0  0  0  0  0  0  0  0  0  0  0
   14.1855  -12.3102   19.9970 N   0  0  0  0  0  0  0  0  0  0  0  0
   14.1797  -12.0095   17.7168 O   0  0  0  0  0  0  0  0  0  0  0  0
   14.6033  -12.7472   20.7740 H   0  0  0  0  0  0  0  0  0  0  0  0
   12.9857  -11.4828   20.1417 C   0  0  0  0  0  0  0  0  0  0  0  0
   12.4109  -11.4483   21.5575 C   0  0  0  0  0  0  0  0  0  0  0  0
   12.6206  -10.3458   22.4023 C   0  0  0  0  0  0  0  0  0  0  0  0
   12.0923  -10.3608   23.7144 C   0  0  0  0  0  0  0  0  0  0  0  0
   11.3030  -11.4293   24.1572 C   0  0  0  0  0  0  0  0  0  0  0  0
   11.0927  -12.5205   23.3181 C   0  0  0  0  0  0  0  0  0  0  0  0
   11.6621  -12.5246   22.0337 C   0  0  0  0  0  0  0  0  0  0  0  0
   11.6051  -13.5954   21.2242 F   0  0  0  0  0  0  0  0  0  0  0  0
 15 16  2  0  0  0
 15 20  1  0  0  0
 16 17  1  0  0  0
 16 21  1  0  0  0
 17 18  2  0  0  0
 17 12  1  0  0  0
 18 19  1  0  0  0
 19 20  2  0  0  0
 12 11  1  0  0  0
 12 13  1  0  0  0
 12 14  1  0  0  0
 11  9  1  0  0  0
  9  1  1  0  0  0
  1  2  1  0  0  0
  1  6  2  0  0  0
  2  3  1  0  0  0
  2  7  2  0  0  0
  3  4  1  0  0  0
  3 22  1  0  0  0
  4  5  2  0  0  0
  4  8  1  0  0  0
  5  6  1  0  0  0
 22 23  1  0  0  0
 23 24  1  0  0  0
 23 25  2  0  0  0
 24 27  1  0  0  0
 27 28  1  0  0  0
 28 29  1  0  0  0
 28 33  2  0  0  0
 29 30  2  0  0  0
 30 31  1  0  0  0
 31 32  2  0  0  0
 32 33  1  0  0  0
 33 34  1  0  0  0
  9 10  1  0  0  0
 24 26  1  0  0  0
M  CHG 1  16   1
M  CHG 1  21  -1
M  END
> <minimizedAffinity>
-9.17082

$$$$
1MUE_CDD_B_248


 34 36  0  0  0  0  0  0  0  0999 V2000
   18.1249  -15.8278   22.8323 C   0  0  0  0  0  0  0  0  0  0  0  0
   17.5371  -14.4496   22.4704 C   0  0  0  0  0  0  0  0  0  0  0  0
   18.2096  -13.7494   21.5223 N   0  0  0  0  0  0  0  0  0  0  0  0
   19.4453  -14.2851   20.9156 C   0  0  0  0  0  0  0  0  0  0  0  0
   19.9884  -15.5451   21.3902 C   0  0  0  0  0  0  0  0  0  0  0  0
   19.3188  -16.2385   22.3330 N   0  0  0  0  0  0  0  0  0  0  0  0
   16.4972  -14.0602   23.0126 O   0  0  0  0  0  0  0  0  0  0  0  0
   20.2454  -13.4198   19.6755 Cl  0  0  0  0  0  0  0  0  0  0  0  0
   17.4155  -16.6141   23.7475 N   0  0  0  0  0  0  0  0  0  0  0  0
   16.4341  -16.6578   23.8132 H   0  0  0  0  0  0  0  0  0  0  0  0
   18.3488  -17.3625   24.5935 C   0  0  0  0  0  0  0  0  0  0  0  0
   18.5862  -16.6433   25.8910 C   0  0  0  0  0  0  0  0  0  0  0  0
   18.6759  -17.5362   26.8911 F   0  0  0  0  0  0  0  0  0  0  0  0
   17.5365  -15.8129   26.1358 F   0  0  0  0  0  0  0  0  0  0  0  0
   22.1826  -15.7622   26.0115 C   0  0  0  0  0  0  0  0  0  0  0  0
   21.0571  -16.4643   25.9292 N   0  0  0  0  0  0  0  0  0  0  0  0
   19.8662  -15.8457   25.8829 C   0  0  0  0  0  0  0  0  0  0  0  0
   19.7687  -14.4652   25.8797 C   0  0  0  0  0  0  0  0  0  0  0  0
   20.9132  -13.7222   25.9250 C   0  0  0  0  0  0  0  0  0  0  0  0
   22.1419  -14.3743   26.0204 C   0  0  0  0  0  0  0  0  0  0  0  0
   21.1406  -17.8375   25.9229 O   0  0  0  0  0  0  0  0  0  0  0  0
   17.7903  -12.4129   21.0765 C   0  0  0  0  0  0  0  0  0  0  0  0
   16.3735  -12.3926   20.5106 C   0  0  0  0  0  0  0  0  0  0  0  0
   15.4532  -11.8809   21.3655 N   0  0  0  0  0  0  0  0  0  0  0  0
   16.1276  -12.8227   19.3786 O   0  0  0  0  0  0  0  0  0  0  0  0
   15.6951  -11.6225   22.2842 H   0  0  0  0  0  0  0  0  0  0  0  0
   14.0848  -11.7284   20.8662 C   0  0  0  0  0  0  0  0  0  0  0  0
   13.0305  -11.5560   21.9592 C   0  0  0  0  0  0  0  0  0  0  0  0
   12.1199  -12.5820   22.2614 C   0  0  0  0  0  0  0  0  0  0  0  0
   11.1434  -12.3763   23.2639 C   0  0  0  0  0  0  0  0  0  0  0  0
   11.1183  -11.1900   24.0075 C   0  0  0  0  0  0  0  0  0  0  0  0
   12.0233  -10.1746   23.7097 C   0  0  0  0  0  0  0  0  0  0  0  0
   12.9588  -10.3629   22.6785 C   0  0  0  0  0  0  0  0  0  0  0  0
   13.7729   -9.3810   22.2565 F   0  0  0  0  0  0  0  0  0  0  0  0
 15 16  2  0  0  0
 15 20  1  0  0  0
 16 17  1  0  0  0
 16 21  1  0  0  0
 17 18  2  0  0  0
 17 12  1  0  0  0
 18 19  1  0  0  0
 19 20  2  0  0  0
 12 11  1  0  0  0
 12 13  1  0  0  0
 12 14  1  0  0  0
 11  9  1  0  0  0
  9  1  1  0  0  0
  1  2  1  0  0  0
  1  6  2  0  0  0
  2  3  1  0  0  0
  2  7  2  0  0  0
  3  4  1  0  0  0
  3 22  1  0  0  0
  4  5  2  0  0  0
  4  8  1  0  0  0
  5  6  1  0  0  0
 22 23  1  0  0  0
 23 24  1  0  0  0
 23 25  2  0  0  0
 24 27  1  0  0  0
 27 28  1  0  0  0
 28 29  1  0  0  0
 28 33  2  0  0  0
 29 30  2  0  0  0
 30 31  1  0  0  0
 31 32  2  0  0  0
 32 33  1  0  0  0
 33 34  1  0  0  0
  9 10  1  0  0  0
 24 26  1  0  0  0
M  CHG 1  16   1
M  CHG 1  21  -1
M  END
> <minimizedAffinity>
-9.15204

$$$$
1MUE_CDD_B_248


 34 36  0  0  0  0  0  0  0  0999 V2000
   16.5822  -16.7479   21.9058 C   0  0  0  0  0  0  0  0  0  0  0  0
   15.9325  -16.0679   20.6845 C   0  0  0  0  0  0  0  0  0  0  0  0
   14.5938  -16.2447   20.5507 N   0  0  0  0  0  0  0  0  0  0  0  0
   13.8366  -17.0712   21.5127 C   0  0  0  0  0  0  0  0  0  0  0  0
   14.5440  -17.7628   22.5753 C   0  0  0  0  0  0  0  0  0  0  0  0
   15.8744  -17.5862   22.7056 N   0  0  0  0  0  0  0  0  0  0  0  0
   16.6218  -15.3863   19.9181 O   0  0  0  0  0  0  0  0  0  0  0  0
   12.1396  -17.2312   21.3674 Cl  0  0  0  0  0  0  0  0  0  0  0  0
   17.9466  -16.5228   22.1225 N   0  0  0  0  0  0  0  0  0  0  0  0
   18.6330  -16.4923   21.4174 H   0  0  0  0  0  0  0  0  0  0  0  0
   18.2025  -16.3394   23.5535 C   0  0  0  0  0  0  0  0  0  0  0  0
   18.4468  -14.8912   23.8699 C   0  0  0  0  0  0  0  0  0  0  0  0
   17.5674  -14.4784   24.7982 F   0  0  0  0  0  0  0  0  0  0  0  0
   18.2708  -14.1548   22.7393 F   0  0  0  0  0  0  0  0  0  0  0  0
   22.1335  -14.6369   24.1311 C   0  0  0  0  0  0  0  0  0  0  0  0
   20.9095  -14.7657   23.6294 N   0  0  0  0  0  0  0  0  0  0  0  0
   19.8300  -14.6457   24.4188 C   0  0  0  0  0  0  0  0  0  0  0  0
   19.9487  -14.3471   25.7649 C   0  0  0  0  0  0  0  0  0  0  0  0
   21.1946  -14.1724   26.2951 C   0  0  0  0  0  0  0  0  0  0  0  0
   22.3103  -14.3456   25.4773 C   0  0  0  0  0  0  0  0  0  0  0  0
   20.7773  -15.0541   22.2907 O   0  0  0  0  0  0  0  0  0  0  0  0
   13.8265  -15.6770   19.4328 C   0  0  0  0  0  0  0  0  0  0  0  0
   13.7472  -14.1541   19.4793 C   0  0  0  0  0  0  0  0  0  0  0  0
   13.0778  -13.6766   20.5581 N   0  0  0  0  0  0  0  0  0  0  0  0
   14.2490  -13.4571   18.5909 O   0  0  0  0  0  0  0  0  0  0  0  0
   12.6340  -14.2821   21.1949 H   0  0  0  0  0  0  0  0  0  0  0  0
   13.0423  -12.2234   20.7368 C   0  0  0  0  0  0  0  0  0  0  0  0
   12.4019  -11.7649   22.0466 C   0  0  0  0  0  0  0  0  0  0  0  0
   11.4597  -12.5635   22.7156 C   0  0  0  0  0  0  0  0  0  0  0  0
   10.8714  -12.0945   23.9135 C   0  0  0  0  0  0  0  0  0  0  0  0
   11.2689  -10.8763   24.4782 C   0  0  0  0  0  0  0  0  0  0  0  0
   12.2054  -10.0866   23.8163 C   0  0  0  0  0  0  0  0  0  0  0  0
   12.7495  -10.5325   22.6001 C   0  0  0  0  0  0  0  0  0  0  0  0
   13.5582   -9.7663   21.8491 F   0  0  0  0  0  0  0  0  0  0  0  0
 15 16  2  0  0  0
 15 20  1  0  0  0
 16 17  1  0  0  0
 16 21  1  0  0  0
 17 18  2  0  0  0
 17 12  1  0  0  0
 18 19  1  0  0  0
 19 20  2  0  0  0
 12 11  1  0  0  0
 12 13  1  0  0  0
 12 14  1  0  0  0
 11  9  1  0  0  0
  9  1  1  0  0  0
  1  2  1  0  0  0
  1  6  2  0  0  0
  2  3  1  0  0  0
  2  7  2  0  0  0
  3  4  1  0  0  0
  3 22  1  0  0  0
  4  5  2  0  0  0
  4  8  1  0  0  0
  5  6  1  0  0  0
 22 23  1  0  0  0
 23 24  1  0  0  0
 23 25  2  0  0  0
 24 27  1  0  0  0
 27 28  1  0  0  0
 28 29  1  0  0  0
 28 33  2  0  0  0
 29 30  2  0  0  0
 30 31  1  0  0  0
 31 32  2  0  0  0
 32 33  1  0  0  0
 33 34  1  0  0  0
  9 10  1  0  0  0
 24 26  1  0  0  0
M  CHG 1  16   1
M  CHG 1  21  -1
M  END
> <minimizedAffinity>
-8.90817

$$$$
1MUE_CDD_B_248


 34 36  0  0  0  0  0  0  0  0999 V2000
   14.8598  -14.2659   20.0214 C   0  0  0  0  0  0  0  0  0  0  0  0
   16.1122  -13.6697   20.6938 C   0  0  0  0  0  0  0  0  0  0  0  0
   17.0619  -13.1862   19.8538 N   0  0  0  0  0  0  0  0  0  0  0  0
   16.8942  -13.2699   18.3886 C   0  0  0  0  0  0  0  0  0  0  0  0
   15.7314  -13.9424   17.8379 C   0  0  0  0  0  0  0  0  0  0  0  0
   14.7896  -14.4229   18.6746 N   0  0  0  0  0  0  0  0  0  0  0  0
   16.1897  -13.6263   21.9263 O   0  0  0  0  0  0  0  0  0  0  0  0
   18.0703  -12.5975   17.3438 Cl  0  0  0  0  0  0  0  0  0  0  0  0
   13.8231  -14.7019   20.8547 N   0  0  0  0  0  0  0  0  0  0  0  0
   13.3395  -15.5537   20.7561 H   0  0  0  0  0  0  0  0  0  0  0  0
   13.5639  -13.7035   21.8954 C   0  0  0  0  0  0  0  0  0  0  0  0
   12.3443  -12.8916   21.5631 C   0  0  0  0  0  0  0  0  0  0  0  0
   11.2554  -13.6779   21.6025 F   0  0  0  0  0  0  0  0  0  0  0  0
   12.4768  -12.3869   20.3065 F   0  0  0  0  0  0  0  0  0  0  0  0
   12.7394   -9.6956   23.3944 C   0  0  0  0  0  0  0  0  0  0  0  0
   12.8757  -10.6534   22.4831 N   0  0  0  0  0  0  0  0  0  0  0  0
   12.1200  -11.7620   22.5369 C   0  0  0  0  0  0  0  0  0  0  0  0
   11.1520  -11.9301   23.5116 C   0  0  0  0  0  0  0  0  0  0  0  0
   10.9673  -10.9426   24.4361 C   0  0  0  0  0  0  0  0  0  0  0  0
   11.7891   -9.8169   24.3996 C   0  0  0  0  0  0  0  0  0  0  0  0
   13.8286  -10.4948   21.5035 O   0  0  0  0  0  0  0  0  0  0  0  0
   18.3218  -12.6006   20.3339 C   0  0  0  0  0  0  0  0  0  0  0  0
   19.3103  -13.6483   20.8369 C   0  0  0  0  0  0  0  0  0  0  0  0
   19.1458  -13.9682   22.1448 N   0  0  0  0  0  0  0  0  0  0  0  0
   20.1729  -14.1272   20.0931 O   0  0  0  0  0  0  0  0  0  0  0  0
   18.4892  -13.4988   22.7084 H   0  0  0  0  0  0  0  0  0  0  0  0
   19.9849  -15.0405   22.6842 C   0  0  0  0  0  0  0  0  0  0  0  0
   20.5936  -14.7367   24.0528 C   0  0  0  0  0  0  0  0  0  0  0  0
   21.9824  -14.6086   24.2203 C   0  0  0  0  0  0  0  0  0  0  0  0
   22.5099  -14.3501   25.5071 C   0  0  0  0  0  0  0  0  0  0  0  0
   21.6611  -14.1498   26.6027 C   0  0  0  0  0  0  0  0  0  0  0  0
   20.2843  -14.2736   26.4354 C   0  0  0  0  0  0  0  0  0  0  0  0
   19.7672  -14.5812   25.1658 C   0  0  0  0  0  0  0  0  0  0  0  0
   18.4645  -14.8391   24.9620 F   0  0  0  0  0  0  0  0  0  0  0  0
 15 16  2  0  0  0
 15 20  1  0  0  0
 16 17  1  0  0  0
 16 21  1  0  0  0
 17 18  2  0  0  0
 17 12  1  0  0  0
 18 19  1  0  0  0
 19 20  2  0  0  0
 12 11  1  0  0  0
 12 13  1  0  0  0
 12 14  1  0  0  0
 11  9  1  0  0  0
  9  1  1  0  0  0
  1  2  1  0  0  0
  1  6  2  0  0  0
  2  3  1  0  0  0
  2  7  2  0  0  0
  3  4  1  0  0  0
  3 22  1  0  0  0
  4  5  2  0  0  0
  4  8  1  0  0  0
  5  6  1  0  0  0
 22 23  1  0  0  0
 23 24  1  0  0  0
 23 25  2  0  0  0
 24 27  1  0  0  0
 27 28  1  0  0  0
 28 29  1  0  0  0
 28 33  2  0  0  0
 29 30  2  0  0  0
 30 31  1  0  0  0
 31 32  2  0  0  0
 32 33  1  0  0  0
 33 34  1  0  0  0
  9 10  1  0  0  0
 24 26  1  0  0  0
M  CHG 1  16   1
M  CHG 1  21  -1
M  END
> <minimizedAffinity>
-8.67647

$$$$
1MUE_CDD_B_248


 34 36  0  0  0  0  0  0  0  0999 V2000
   16.1182  -13.7982   21.5761 C   0  0  0  0  0  0  0  0  0  0  0  0
   17.6377  -13.5396   21.5588 C   0  0  0  0  0  0  0  0  0  0  0  0
   18.4265  -14.6437   21.5705 N   0  0  0  0  0  0  0  0  0  0  0  0
   17.8382  -15.9973   21.6304 C   0  0  0  0  0  0  0  0  0  0  0  0
   16.3993  -16.1483   21.7507 C   0  0  0  0  0  0  0  0  0  0  0  0
   15.6176  -15.0496   21.7397 N   0  0  0  0  0  0  0  0  0  0  0  0
   18.0663  -12.3819   21.5049 O   0  0  0  0  0  0  0  0  0  0  0  0
   18.8438  -17.3804   21.5790 Cl  0  0  0  0  0  0  0  0  0  0  0  0
   15.2714  -12.6876   21.4840 N   0  0  0  0  0  0  0  0  0  0  0  0
   14.9957  -12.1231   22.2420 H   0  0  0  0  0  0  0  0  0  0  0  0
   14.8556  -12.4890   20.0931 C   0  0  0  0  0  0  0  0  0  0  0  0
   13.3590  -12.4076   19.9906 C   0  0  0  0  0  0  0  0  0  0  0  0
   12.8592  -13.6252   19.7201 F   0  0  0  0  0  0  0  0  0  0  0  0
   13.0296  -11.5621   18.9767 F   0  0  0  0  0  0  0  0  0  0  0  0
   12.5470  -10.3560   22.9665 C   0  0  0  0  0  0  0  0  0  0  0  0
   13.0435  -10.7389   21.7946 N   0  0  0  0  0  0  0  0  0  0  0  0
   12.7179  -11.9313   21.2700 C   0  0  0  0  0  0  0  0  0  0  0  0
   11.8303  -12.7822   21.9051 C   0  0  0  0  0  0  0  0  0  0  0  0
   11.2776  -12.3940   23.0916 C   0  0  0  0  0  0  0  0  0  0  0  0
   11.6585  -11.1749   23.6507 C   0  0  0  0  0  0  0  0  0  0  0  0
   13.9205   -9.8985   21.1486 O   0  0  0  0  0  0  0  0  0  0  0  0
   19.8946  -14.5697   21.5735 C   0  0  0  0  0  0  0  0  0  0  0  0
   20.4897  -14.6287   22.9772 C   0  0  0  0  0  0  0  0  0  0  0  0
   19.5582  -14.6995   23.9607 N   0  0  0  0  0  0  0  0  0  0  0  0
   21.7116  -14.6003   23.1588 O   0  0  0  0  0  0  0  0  0  0  0  0
   18.5960  -14.6430   23.7602 H   0  0  0  0  0  0  0  0  0  0  0  0
   20.0424  -14.8633   25.3332 C   0  0  0  0  0  0  0  0  0  0  0  0
   19.9584  -16.2939   25.8646 C   0  0  0  0  0  0  0  0  0  0  0  0
   21.0478  -17.1746   25.7617 C   0  0  0  0  0  0  0  0  0  0  0  0
   20.9238  -18.4984   26.2443 C   0  0  0  0  0  0  0  0  0  0  0  0
   19.7536  -18.9203   26.8873 C   0  0  0  0  0  0  0  0  0  0  0  0
   18.6751  -18.0458   26.9920 C   0  0  0  0  0  0  0  0  0  0  0  0
   18.7841  -16.7478   26.4656 C   0  0  0  0  0  0  0  0  0  0  0  0
   17.7432  -15.8996   26.4196 F   0  0  0  0  0  0  0  0  0  0  0  0
 15 16  2  0  0  0
 15 20  1  0  0  0
 16 17  1  0  0  0
 16 21  1  0  0  0
 17 18  2  0  0  0
 17 12  1  0  0  0
 18 19  1  0  0  0
 19 20  2  0  0  0
 12 11  1  0  0  0
 12 13  1  0  0  0
 12 14  1  0  0  0
 11  9  1  0  0  0
  9  1  1  0  0  0
  1  2  1  0  0  0
  1  6  2  0  0  0
  2  3  1  0  0  0
  2  7  2  0  0  0
  3  4  1  0  0  0
  3 22  1  0  0  0
  4  5  2  0  0  0
  4  8  1  0  0  0
  5  6  1  0  0  0
 22 23  1  0  0  0
 23 24  1  0  0  0
 23 25  2  0  0  0
 24 27  1  0  0  0
 27 28  1  0  0  0
 28 29  1  0  0  0
 28 33  2  0  0  0
 29 30  2  0  0  0
 30 31  1  0  0  0
 31 32  2  0  0  0
 32 33  1  0  0  0
 33 34  1  0  0  0
  9 10  1  0  0  0
 24 26  1  0  0  0
M  CHG 1  16   1
M  CHG 1  21  -1
M  END
> <minimizedAffinity>
-8.43327

$$$$
1MUE_CDD_B_248


 34 36  0  0  0  0  0  0  0  0999 V2000
   15.3860  -13.3969   20.0398 C   0  0  0  0  0  0  0  0  0  0  0  0
   15.8428  -14.2895   21.2105 C   0  0  0  0  0  0  0  0  0  0  0  0
   16.0154  -15.6039   20.9208 N   0  0  0  0  0  0  0  0  0  0  0  0
   15.7424  -16.1256   19.5660 C   0  0  0  0  0  0  0  0  0  0  0  0
   15.2137  -15.2351   18.5486 C   0  0  0  0  0  0  0  0  0  0  0  0
   15.0421  -13.9296   18.8392 N   0  0  0  0  0  0  0  0  0  0  0  0
   16.0577  -13.7902   22.3202 O   0  0  0  0  0  0  0  0  0  0  0  0
   16.0269  -17.7723   19.1999 Cl  0  0  0  0  0  0  0  0  0  0  0  0
   15.2742  -12.0224   20.2790 N   0  0  0  0  0  0  0  0  0  0  0  0
   15.5545  -11.3155   19.6537 H   0  0  0  0  0  0  0  0  0  0  0  0
   14.6782  -11.7906   21.5974 C   0  0  0  0  0  0  0  0  0  0  0  0
   13.5336  -10.8222   21.5021 C   0  0  0  0  0  0  0  0  0  0  0  0
   12.7968  -11.1015   20.4136 F   0  0  0  0  0  0  0  0  0  0  0  0
   14.0292   -9.5604   21.3855 F   0  0  0  0  0  0  0  0  0  0  0  0
   11.0553  -12.0512   23.9662 C   0  0  0  0  0  0  0  0  0  0  0  0
   11.9302  -12.0153   22.9664 N   0  0  0  0  0  0  0  0  0  0  0  0
   12.6165  -10.8931   22.6974 C   0  0  0  0  0  0  0  0  0  0  0  0
   12.4692   -9.7535   23.4687 C   0  0  0  0  0  0  0  0  0  0  0  0
   11.6045   -9.7783   24.5249 C   0  0  0  0  0  0  0  0  0  0  0  0
   10.8620  -10.9332   24.7667 C   0  0  0  0  0  0  0  0  0  0  0  0
   12.0924  -13.1443   22.1970 O   0  0  0  0  0  0  0  0  0  0  0  0
   16.4315  -16.5903   21.9281 C   0  0  0  0  0  0  0  0  0  0  0  0
   17.9474  -16.7058   22.0560 C   0  0  0  0  0  0  0  0  0  0  0  0
   18.5138  -15.6900   22.7541 N   0  0  0  0  0  0  0  0  0  0  0  0
   18.5654  -17.6467   21.5463 O   0  0  0  0  0  0  0  0  0  0  0  0
   17.9794  -14.9272   23.0732 H   0  0  0  0  0  0  0  0  0  0  0  0
   19.9527  -15.7744   23.0137 C   0  0  0  0  0  0  0  0  0  0  0  0
   20.3796  -15.2350   24.3785 C   0  0  0  0  0  0  0  0  0  0  0  0
   19.5765  -15.4153   25.5169 C   0  0  0  0  0  0  0  0  0  0  0  0
   19.9945  -14.8812   26.7582 C   0  0  0  0  0  0  0  0  0  0  0  0
   21.2317  -14.2371   26.8813 C   0  0  0  0  0  0  0  0  0  0  0  0
   22.0289  -14.0616   25.7532 C   0  0  0  0  0  0  0  0  0  0  0  0
   21.5867  -14.5486   24.5118 C   0  0  0  0  0  0  0  0  0  0  0  0
   22.2441  -14.3026   23.3662 F   0  0  0  0  0  0  0  0  0  0  0  0
 15 16  2  0  0  0
 15 20  1  0  0  0
 16 17  1  0  0  0
 16 21  1  0  0  0
 17 18  2  0  0  0
 17 12  1  0  0  0
 18 19  1  0  0  0
 19 20  2  0  0  0
 12 11  1  0  0  0
 12 13  1  0  0  0
 12 14  1  0  0  0
 11  9  1  0  0  0
  9  1  1  0  0  0
  1  2  1  0  0  0
  1  6  2  0  0  0
  2  3  1  0  0  0
  2  7  2  0  0  0
  3  4  1  0  0  0
  3 22  1  0  0  0
  4  5  2  0  0  0
  4  8  1  0  0  0
  5  6  1  0  0  0
 22 23  1  0  0  0
 23 24  1  0  0  0
 23 25  2  0  0  0
 24 27  1  0  0  0
 27 28  1  0  0  0
 28 29  1  0  0  0
 28 33  2  0  0  0
 29 30  2  0  0  0
 30 31  1  0  0  0
 31 32  2  0  0  0
 32 33  1  0  0  0
 33 34  1  0  0  0
  9 10  1  0  0  0
 24 26  1  0  0  0
M  CHG 1  16   1
M  CHG 1  21  -1
M  END
> <minimizedAffinity>
-8.41128

$$$$
1MUE_CDD_B_248


 34 36  0  0  0  0  0  0  0  0999 V2000
   16.9637  -15.5444   21.6008 C   0  0  0  0  0  0  0  0  0  0  0  0
   15.9081  -14.6472   20.9249 C   0  0  0  0  0  0  0  0  0  0  0  0
   15.1163  -15.2542   20.0052 N   0  0  0  0  0  0  0  0  0  0  0  0
   15.2995  -16.6806   19.6678 C   0  0  0  0  0  0  0  0  0  0  0  0
   16.3870  -17.4264   20.2750 C   0  0  0  0  0  0  0  0  0  0  0  0
   17.1731  -16.8207   21.1880 N   0  0  0  0  0  0  0  0  0  0  0  0
   15.8036  -13.4609   21.2548 O   0  0  0  0  0  0  0  0  0  0  0  0
   14.2514  -17.4474   18.5542 Cl  0  0  0  0  0  0  0  0  0  0  0  0
   17.7459  -14.9746   22.6121 N   0  0  0  0  0  0  0  0  0  0  0  0
   17.5445  -15.0192   23.5748 H   0  0  0  0  0  0  0  0  0  0  0  0
   18.9085  -14.3019   22.0267 C   0  0  0  0  0  0  0  0  0  0  0  0
   20.1858  -14.8677   22.5793 C   0  0  0  0  0  0  0  0  0  0  0  0
   21.2085  -14.0505   22.2766 F   0  0  0  0  0  0  0  0  0  0  0  0
   20.4129  -16.0842   22.0135 F   0  0  0  0  0  0  0  0  0  0  0  0
   19.5795  -16.2309   25.9702 C   0  0  0  0  0  0  0  0  0  0  0  0
   19.6930  -16.1367   24.6494 N   0  0  0  0  0  0  0  0  0  0  0  0
   20.1520  -15.0105   24.0804 C   0  0  0  0  0  0  0  0  0  0  0  0
   20.5576  -13.9290   24.8428 C   0  0  0  0  0  0  0  0  0  0  0  0
   20.4863  -14.0165   26.2034 C   0  0  0  0  0  0  0  0  0  0  0  0
   19.9642  -15.1723   26.7824 C   0  0  0  0  0  0  0  0  0  0  0  0
   19.3012  -17.2080   23.8802 O   0  0  0  0  0  0  0  0  0  0  0  0
   14.0729  -14.5362   19.2592 C   0  0  0  0  0  0  0  0  0  0  0  0
   12.7931  -14.3406   20.0666 C   0  0  0  0  0  0  0  0  0  0  0  0
   12.9060  -13.4125   21.0493 N   0  0  0  0  0  0  0  0  0  0  0  0
   11.7737  -14.9953   19.8235 O   0  0  0  0  0  0  0  0  0  0  0  0
   13.7662  -12.9757   21.2451 H   0  0  0  0  0  0  0  0  0  0  0  0
   11.6958  -13.0867   21.8070 C   0  0  0  0  0  0  0  0  0  0  0  0
   11.8230  -11.8508   22.6972 C   0  0  0  0  0  0  0  0  0  0  0  0
   12.7376  -10.8277   22.3970 C   0  0  0  0  0  0  0  0  0  0  0  0
   12.8429   -9.7103   23.2579 C   0  0  0  0  0  0  0  0  0  0  0  0
   11.9975   -9.5770   24.3661 C   0  0  0  0  0  0  0  0  0  0  0  0
   11.0887  -10.5899   24.6614 C   0  0  0  0  0  0  0  0  0  0  0  0
   11.0228  -11.7225   23.8326 C   0  0  0  0  0  0  0  0  0  0  0  0
   10.2621  -12.7892   24.1302 F   0  0  0  0  0  0  0  0  0  0  0  0
 15 16  2  0  0  0
 15 20  1  0  0  0
 16 17  1  0  0  0
 16 21  1  0  0  0
 17 18  2  0  0  0
 17 12  1  0  0  0
 18 19  1  0  0  0
 19 20  2  0  0  0
 12 11  1  0  0  0
 12 13  1  0  0  0
 12 14  1  0  0  0
 11  9  1  0  0  0
  9  1  1  0  0  0
  1  2  1  0  0  0
  1  6  2  0  0  0
  2  3  1  0  0  0
  2  7  2  0  0  0
  3  4  1  0  0  0
  3 22  1  0  0  0
  4  5  2  0  0  0
  4  8  1  0  0  0
  5  6  1  0  0  0
 22 23  1  0  0  0
 23 24  1  0  0  0
 23 25  2  0  0  0
 24 27  1  0  0  0
 27 28  1  0  0  0
 28 29  1  0  0  0
 28 33  2  0  0  0
 29 30  2  0  0  0
 30 31  1  0  0  0
 31 32  2  0  0  0
 32 33  1  0  0  0
 33 34  1  0  0  0
  9 10  1  0  0  0
 24 26  1  0  0  0
M  CHG 1  16   1
M  CHG 1  21  -1
M  END
> <minimizedAffinity>
-8.38572

$$$$
1MUE_CDD_B_248


 34 36  0  0  0  0  0  0  0  0999 V2000
   17.4268  -15.4100   22.8960 C   0  0  0  0  0  0  0  0  0  0  0  0
   17.0130  -14.4805   21.7381 C   0  0  0  0  0  0  0  0  0  0  0  0
   16.4893  -15.0922   20.6459 N   0  0  0  0  0  0  0  0  0  0  0  0
   16.3663  -16.5629   20.5845 C   0  0  0  0  0  0  0  0  0  0  0  0
   16.8779  -17.3708   21.6768 C   0  0  0  0  0  0  0  0  0  0  0  0
   17.3988  -16.7607   22.7606 N   0  0  0  0  0  0  0  0  0  0  0  0
   17.1388  -13.2566   21.8537 O   0  0  0  0  0  0  0  0  0  0  0  0
   15.6444  -17.3144   19.2277 Cl  0  0  0  0  0  0  0  0  0  0  0  0
   17.8967  -14.8112   24.0707 N   0  0  0  0  0  0  0  0  0  0  0  0
   17.3984  -14.7626   24.9183 H   0  0  0  0  0  0  0  0  0  0  0  0
   19.2397  -14.2672   23.8526 C   0  0  0  0  0  0  0  0  0  0  0  0
   20.0800  -14.4104   25.0897 C   0  0  0  0  0  0  0  0  0  0  0  0
   19.3760  -15.0463   26.0412 F   0  0  0  0  0  0  0  0  0  0  0  0
   20.4146  -13.1722   25.5439 F   0  0  0  0  0  0  0  0  0  0  0  0
   22.3937  -17.2638   24.6104 C   0  0  0  0  0  0  0  0  0  0  0  0
   21.2804  -16.5489   24.7366 N   0  0  0  0  0  0  0  0  0  0  0  0
   21.3343  -15.2117   24.8458 C   0  0  0  0  0  0  0  0  0  0  0  0
   22.5376  -14.5301   24.7921 C   0  0  0  0  0  0  0  0  0  0  0  0
   23.6917  -15.2401   24.6245 C   0  0  0  0  0  0  0  0  0  0  0  0
   23.6288  -16.6314   24.5596 C   0  0  0  0  0  0  0  0  0  0  0  0
   20.0767  -17.2136   24.7827 O   0  0  0  0  0  0  0  0  0  0  0  0
   16.0610  -14.3512   19.4507 C   0  0  0  0  0  0  0  0  0  0  0  0
   14.6284  -13.8364   19.5524 C   0  0  0  0  0  0  0  0  0  0  0  0
   14.5435  -12.5290   19.9039 N   0  0  0  0  0  0  0  0  0  0  0  0
   13.6628  -14.5770   19.3381 O   0  0  0  0  0  0  0  0  0  0  0  0
   15.3458  -12.0076   20.1355 H   0  0  0  0  0  0  0  0  0  0  0  0
   13.2095  -11.9249   19.9247 C   0  0  0  0  0  0  0  0  0  0  0  0
   12.6467  -11.6880   21.3258 C   0  0  0  0  0  0  0  0  0  0  0  0
   11.7546  -12.5984   21.9162 C   0  0  0  0  0  0  0  0  0  0  0  0
   11.2369  -12.3329   23.2055 C   0  0  0  0  0  0  0  0  0  0  0  0
   11.6572  -11.2104   23.9295 C   0  0  0  0  0  0  0  0  0  0  0  0
   12.5441  -10.3099   23.3451 C   0  0  0  0  0  0  0  0  0  0  0  0
   13.0165  -10.5507   22.0440 C   0  0  0  0  0  0  0  0  0  0  0  0
   13.7706   -9.6620   21.3757 F   0  0  0  0  0  0  0  0  0  0  0  0
 15 16  2  0  0  0
 15 20  1  0  0  0
 16 17  1  0  0  0
 16 21  1  0  0  0
 17 18  2  0  0  0
 17 12  1  0  0  0
 18 19  1  0  0  0
 19 20  2  0  0  0
 12 11  1  0  0  0
 12 13  1  0  0  0
 12 14  1  0  0  0
 11  9  1  0  0  0
  9  1  1  0  0  0
  1  2  1  0  0  0
  1  6  2  0  0  0
  2  3  1  0  0  0
  2  7  2  0  0  0
  3  4  1  0  0  0
  3 22  1  0  0  0
  4  5  2  0  0  0
  4  8  1  0  0  0
  5  6  1  0  0  0
 22 23  1  0  0  0
 23 24  1  0  0  0
 23 25  2  0  0  0
 24 27  1  0  0  0
 27 28  1  0  0  0
 28 29  1  0  0  0
 28 33  2  0  0  0
 29 30  2  0  0  0
 30 31  1  0  0  0
 31 32  2  0  0  0
 32 33  1  0  0  0
 33 34  1  0  0  0
  9 10  1  0  0  0
 24 26  1  0  0  0
M  CHG 1  16   1
M  CHG 1  21  -1
M  END
> <minimizedAffinity>
-8.20289

$$$$
