4BQG_50Q_A_1225


 19 20  0  0  0  0  0  0  0  0999 V2000
   -0.7315   10.1355   26.9462 O   0  0  0  0  0  0  0  0  0  0  0  0
   -0.5668   10.7890   25.7567 C   0  0  0  0  0  0  0  0  0  0  0  0
   -1.6467   11.3352   25.0632 C   0  0  0  0  0  0  0  0  0  0  0  0
   -1.4305   11.9808   23.8325 C   0  0  0  0  0  0  0  0  0  0  0  0
   -2.4552   12.5218   23.1511 O   0  0  0  0  0  0  0  0  0  0  0  0
   -0.1741   12.0522   23.2783 C   0  0  0  0  0  0  0  0  0  0  0  0
    0.8875   11.4795   23.9659 C   0  0  0  0  0  0  0  0  0  0  0  0
    0.6985   10.8629   25.1991 C   0  0  0  0  0  0  0  0  0  0  0  0
   -1.5820   10.0778   27.3351 H   0  0  0  0  0  0  0  0  0  0  0  0
   -3.3224   12.4881   23.5042 H   0  0  0  0  0  0  0  0  0  0  0  0
    2.1530   11.4862   23.4305 O   0  0  0  0  0  0  0  0  0  0  0  0
    5.6285   12.1513   24.3005 C   0  0  0  0  0  0  0  0  0  0  0  0
    4.2545   14.0517   24.9346 C   0  0  0  0  0  0  0  0  0  0  0  0
    3.0928   13.4541   24.4656 C   0  0  0  0  0  0  0  0  0  0  0  0
    4.4775   11.5476   23.8320 C   0  0  0  0  0  0  0  0  0  0  0  0
    5.4781   13.4235   24.8507 C   0  0  0  0  0  0  0  0  0  0  0  0
    3.2374   12.1735   23.9064 C   0  0  0  0  0  0  0  0  0  0  0  0
    6.8820   14.2975   25.5305 Cl  0  0  0  0  0  0  0  0  0  0  0  0
    4.2761   15.6700   25.7047 Cl  0  0  0  0  0  0  0  0  0  0  0  0
 12 15  1  0  0  0
 12 16  2  0  0  0
 13 14  2  0  0  0
 13 16  1  0  0  0
 13 19  1  0  0  0
 14 17  1  0  0  0
  5  4  1  0  0  0
  4  3  2  0  0  0
  4  6  1  0  0  0
  3  2  1  0  0  0
  2  1  1  0  0  0
  2  8  2  0  0  0
  8  7  1  0  0  0
 15 17  2  0  0  0
 16 18  1  0  0  0
 17 11  1  0  0  0
 11  7  1  0  0  0
  7  6  2  0  0  0
  1  9  1  0  0  0
  5 10  1  0  0  0
M  END
> <minimizedAffinity>
-8.71872

$$$$
4BQG_50Q_A_1225


 19 20  0  0  0  0  0  0  0  0999 V2000
   -2.2486   12.7012   23.6141 O   0  0  0  0  0  0  0  0  0  0  0  0
   -1.2199   11.9799   24.1530 C   0  0  0  0  0  0  0  0  0  0  0  0
   -1.3751   11.2446   25.3281 C   0  0  0  0  0  0  0  0  0  0  0  0
   -0.2818   10.5344   25.8559 C   0  0  0  0  0  0  0  0  0  0  0  0
   -0.4107    9.8123   26.9823 O   0  0  0  0  0  0  0  0  0  0  0  0
    0.9534   10.5807   25.2536 C   0  0  0  0  0  0  0  0  0  0  0  0
    1.1008   11.3394   24.1002 C   0  0  0  0  0  0  0  0  0  0  0  0
    0.0238   12.0247   23.5459 C   0  0  0  0  0  0  0  0  0  0  0  0
   -3.0956   12.6804   24.0144 H   0  0  0  0  0  0  0  0  0  0  0  0
   -1.2406    9.7626   27.4145 H   0  0  0  0  0  0  0  0  0  0  0  0
    2.3262   11.4524   23.4887 O   0  0  0  0  0  0  0  0  0  0  0  0
    5.7978   12.1500   24.3488 C   0  0  0  0  0  0  0  0  0  0  0  0
    4.4162   14.0604   24.9346 C   0  0  0  0  0  0  0  0  0  0  0  0
    3.2574   13.4478   24.4780 C   0  0  0  0  0  0  0  0  0  0  0  0
    4.6498   11.5314   23.8927 C   0  0  0  0  0  0  0  0  0  0  0  0
    5.6421   13.4345   24.8680 C   0  0  0  0  0  0  0  0  0  0  0  0
    3.4074   12.1546   23.9499 C   0  0  0  0  0  0  0  0  0  0  0  0
    7.0417   14.3294   25.5292 Cl  0  0  0  0  0  0  0  0  0  0  0  0
    4.4309   15.6967   25.6657 Cl  0  0  0  0  0  0  0  0  0  0  0  0
 12 15  1  0  0  0
 12 16  2  0  0  0
 13 14  2  0  0  0
 13 16  1  0  0  0
 13 19  1  0  0  0
 14 17  1  0  0  0
  5  4  1  0  0  0
  4  3  2  0  0  0
  4  6  1  0  0  0
  3  2  1  0  0  0
  2  1  1  0  0  0
  2  8  2  0  0  0
  8  7  1  0  0  0
 15 17  2  0  0  0
 16 18  1  0  0  0
 17 11  1  0  0  0
 11  7  1  0  0  0
  7  6  2  0  0  0
  1  9  1  0  0  0
  5 10  1  0  0  0
M  END
> <minimizedAffinity>
-8.62019

$$$$
4BQG_50Q_A_1225


 19 20  0  0  0  0  0  0  0  0999 V2000
   -2.0988   11.2488   25.8987 O   0  0  0  0  0  0  0  0  0  0  0  0
   -1.4811   11.6814   24.7584 C   0  0  0  0  0  0  0  0  0  0  0  0
   -2.2038   12.1911   23.6798 C   0  0  0  0  0  0  0  0  0  0  0  0
   -1.5256   12.6049   22.5192 C   0  0  0  0  0  0  0  0  0  0  0  0
   -2.2010   13.1070   21.4710 O   0  0  0  0  0  0  0  0  0  0  0  0
   -0.1604   12.4819   22.4117 C   0  0  0  0  0  0  0  0  0  0  0  0
    0.5436   11.9466   23.4820 C   0  0  0  0  0  0  0  0  0  0  0  0
   -0.1060   11.5595   24.6504 C   0  0  0  0  0  0  0  0  0  0  0  0
   -3.0287   11.3250   25.9856 H   0  0  0  0  0  0  0  0  0  0  0  0
   -3.1321   13.2023   21.5157 H   0  0  0  0  0  0  0  0  0  0  0  0
    1.9030   11.7624   23.4035 O   0  0  0  0  0  0  0  0  0  0  0  0
    3.3593   14.5870   25.1865 C   0  0  0  0  0  0  0  0  0  0  0  0
    5.1134   13.0225   24.5724 C   0  0  0  0  0  0  0  0  0  0  0  0
    4.2179   12.1520   23.9667 C   0  0  0  0  0  0  0  0  0  0  0  0
    2.4603   13.7276   24.5849 C   0  0  0  0  0  0  0  0  0  0  0  0
    4.6972   14.1953   25.1641 C   0  0  0  0  0  0  0  0  0  0  0  0
    2.8674   12.5384   23.9887 C   0  0  0  0  0  0  0  0  0  0  0  0
    5.9668   15.2368   25.8715 Cl  0  0  0  0  0  0  0  0  0  0  0  0
    6.8795   12.7224   24.6268 Cl  0  0  0  0  0  0  0  0  0  0  0  0
 12 15  1  0  0  0
 12 16  2  0  0  0
 13 14  2  0  0  0
 13 16  1  0  0  0
 13 19  1  0  0  0
 14 17  1  0  0  0
  5  4  1  0  0  0
  4  3  2  0  0  0
  4  6  1  0  0  0
  3  2  1  0  0  0
  2  1  1  0  0  0
  2  8  2  0  0  0
  8  7  1  0  0  0
 15 17  2  0  0  0
 16 18  1  0  0  0
 17 11  1  0  0  0
 11  7  1  0  0  0
  7  6  2  0  0  0
  1  9  1  0  0  0
  5 10  1  0  0  0
M  END
> <minimizedAffinity>
-8.47943

$$$$
4BQG_50Q_A_1225


 19 20  0  0  0  0  0  0  0  0999 V2000
   -2.3340   10.9552   24.7646 O   0  0  0  0  0  0  0  0  0  0  0  0
   -1.5338   11.8191   24.0699 C   0  0  0  0  0  0  0  0  0  0  0  0
   -1.7606   12.1096   22.7247 C   0  0  0  0  0  0  0  0  0  0  0  0
   -0.8980   12.9892   22.0461 C   0  0  0  0  0  0  0  0  0  0  0  0
   -1.1025   13.2901   20.7521 O   0  0  0  0  0  0  0  0  0  0  0  0
    0.1920   13.5425   22.6758 C   0  0  0  0  0  0  0  0  0  0  0  0
    0.4220   13.2224   24.0071 C   0  0  0  0  0  0  0  0  0  0  0  0
   -0.4371   12.3780   24.7040 C   0  0  0  0  0  0  0  0  0  0  0  0
   -3.0795   10.5694   24.3482 H   0  0  0  0  0  0  0  0  0  0  0  0
   -1.8372   12.9277   20.2972 H   0  0  0  0  0  0  0  0  0  0  0  0
    1.5233   13.7149   24.6650 O   0  0  0  0  0  0  0  0  0  0  0  0
    4.2880   11.4818   23.8596 C   0  0  0  0  0  0  0  0  0  0  0  0
    5.1620   13.5797   24.7180 C   0  0  0  0  0  0  0  0  0  0  0  0
    3.8933   14.1173   24.8859 C   0  0  0  0  0  0  0  0  0  0  0  0
    3.0211   12.0076   24.0243 C   0  0  0  0  0  0  0  0  0  0  0  0
    5.3510   12.3092   24.2189 C   0  0  0  0  0  0  0  0  0  0  0  0
    2.8173   13.2905   24.5223 C   0  0  0  0  0  0  0  0  0  0  0  0
    7.0397   11.7349   24.0935 Cl  0  0  0  0  0  0  0  0  0  0  0  0
    6.6604   14.4645   25.1470 Cl  0  0  0  0  0  0  0  0  0  0  0  0
 12 15  1  0  0  0
 12 16  2  0  0  0
 13 14  2  0  0  0
 13 16  1  0  0  0
 13 19  1  0  0  0
 14 17  1  0  0  0
  5  4  1  0  0  0
  4  3  2  0  0  0
  4  6  1  0  0  0
  3  2  1  0  0  0
  2  1  1  0  0  0
  2  8  2  0  0  0
  8  7  1  0  0  0
 15 17  2  0  0  0
 16 18  1  0  0  0
 17 11  1  0  0  0
 11  7  1  0  0  0
  7  6  2  0  0  0
  1  9  1  0  0  0
  5 10  1  0  0  0
M  END
> <minimizedAffinity>
-8.30043

$$$$
4BQG_50Q_A_1225


 19 20  0  0  0  0  0  0  0  0999 V2000
    4.8839    8.9403   20.2574 O   0  0  0  0  0  0  0  0  0  0  0  0
    5.4519    9.0258   21.4980 C   0  0  0  0  0  0  0  0  0  0  0  0
    5.3766    7.9767   22.4141 C   0  0  0  0  0  0  0  0  0  0  0  0
    5.9589    8.1187   23.6865 C   0  0  0  0  0  0  0  0  0  0  0  0
    5.9057    7.1177   24.5820 O   0  0  0  0  0  0  0  0  0  0  0  0
    6.5720    9.2911   24.0606 C   0  0  0  0  0  0  0  0  0  0  0  0
    6.6150   10.3374   23.1489 C   0  0  0  0  0  0  0  0  0  0  0  0
    6.0712   10.2056   21.8747 C   0  0  0  0  0  0  0  0  0  0  0  0
    4.4615    8.1481   19.9891 H   0  0  0  0  0  0  0  0  0  0  0  0
    5.4940    6.3072   24.3548 H   0  0  0  0  0  0  0  0  0  0  0  0
    7.1768   11.5431   23.4934 O   0  0  0  0  0  0  0  0  0  0  0  0
    6.8034   14.6082   25.4284 C   0  0  0  0  0  0  0  0  0  0  0  0
    4.6125   13.7932   24.7671 C   0  0  0  0  0  0  0  0  0  0  0  0
    5.1467   12.7025   24.0951 C   0  0  0  0  0  0  0  0  0  0  0  0
    7.3446   13.5250   24.7632 C   0  0  0  0  0  0  0  0  0  0  0  0
    5.4134   14.7142   25.4067 C   0  0  0  0  0  0  0  0  0  0  0  0
    6.5470   12.5913   24.1095 C   0  0  0  0  0  0  0  0  0  0  0  0
    4.5845   16.0467   26.2638 Cl  0  0  0  0  0  0  0  0  0  0  0  0
    2.8503   14.0976   24.8861 Cl  0  0  0  0  0  0  0  0  0  0  0  0
 12 15  1  0  0  0
 12 16  2  0  0  0
 13 14  2  0  0  0
 13 16  1  0  0  0
 13 19  1  0  0  0
 14 17  1  0  0  0
  5  4  1  0  0  0
  4  3  2  0  0  0
  4  6  1  0  0  0
  3  2  1  0  0  0
  2  1  1  0  0  0
  2  8  2  0  0  0
  8  7  1  0  0  0
 15 17  2  0  0  0
 16 18  1  0  0  0
 17 11  1  0  0  0
 11  7  1  0  0  0
  7  6  2  0  0  0
  1  9  1  0  0  0
  5 10  1  0  0  0
M  END
> <minimizedAffinity>
-8.20213

$$$$
4BQG_50Q_A_1225


 19 20  0  0  0  0  0  0  0  0999 V2000
   -0.7922   10.0155   25.9753 O   0  0  0  0  0  0  0  0  0  0  0  0
   -0.7635   11.0375   25.0677 C   0  0  0  0  0  0  0  0  0  0  0  0
   -1.6330   11.0764   23.9777 C   0  0  0  0  0  0  0  0  0  0  0  0
   -1.5522   12.1381   23.0587 C   0  0  0  0  0  0  0  0  0  0  0  0
   -2.3856   12.2004   22.0059 O   0  0  0  0  0  0  0  0  0  0  0  0
   -0.6036   13.1243   23.1936 C   0  0  0  0  0  0  0  0  0  0  0  0
    0.2740   13.0579   24.2675 C   0  0  0  0  0  0  0  0  0  0  0  0
    0.1904   12.0319   25.2040 C   0  0  0  0  0  0  0  0  0  0  0  0
   -1.4322    9.3358   25.8953 H   0  0  0  0  0  0  0  0  0  0  0  0
   -3.0420   11.5421   21.8884 H   0  0  0  0  0  0  0  0  0  0  0  0
    1.2673   13.9954   24.4184 O   0  0  0  0  0  0  0  0  0  0  0  0
    4.7548   14.5982   25.2856 C   0  0  0  0  0  0  0  0  0  0  0  0
    4.5432   12.4148   24.2418 C   0  0  0  0  0  0  0  0  0  0  0  0
    3.1711   12.5499   24.0811 C   0  0  0  0  0  0  0  0  0  0  0  0
    3.3898   14.7426   25.1289 C   0  0  0  0  0  0  0  0  0  0  0  0
    5.3056   13.4024   24.8268 C   0  0  0  0  0  0  0  0  0  0  0  0
    2.6086   13.7509   24.5446 C   0  0  0  0  0  0  0  0  0  0  0  0
    7.0658   13.1065   24.9324 Cl  0  0  0  0  0  0  0  0  0  0  0  0
    5.4515   10.9704   23.6933 Cl  0  0  0  0  0  0  0  0  0  0  0  0
 12 15  1  0  0  0
 12 16  2  0  0  0
 13 14  2  0  0  0
 13 16  1  0  0  0
 13 19  1  0  0  0
 14 17  1  0  0  0
  5  4  1  0  0  0
  4  3  2  0  0  0
  4  6  1  0  0  0
  3  2  1  0  0  0
  2  1  1  0  0  0
  2  8  2  0  0  0
  8  7  1  0  0  0
 15 17  2  0  0  0
 16 18  1  0  0  0
 17 11  1  0  0  0
 11  7  1  0  0  0
  7  6  2  0  0  0
  1  9  1  0  0  0
  5 10  1  0  0  0
M  END
> <minimizedAffinity>
-8.03706

$$$$
4BQG_50Q_A_1225


 19 20  0  0  0  0  0  0  0  0999 V2000
   -2.5729   11.4912   25.8548 O   0  0  0  0  0  0  0  0  0  0  0  0
   -1.2902   11.0322   25.7414 C   0  0  0  0  0  0  0  0  0  0  0  0
   -0.8165    9.9763   26.5200 C   0  0  0  0  0  0  0  0  0  0  0  0
    0.5174    9.5520   26.3826 C   0  0  0  0  0  0  0  0  0  0  0  0
    0.9928    8.5311   27.1164 O   0  0  0  0  0  0  0  0  0  0  0  0
    1.3791   10.1851   25.5180 C   0  0  0  0  0  0  0  0  0  0  0  0
    0.9021   11.2530   24.7698 C   0  0  0  0  0  0  0  0  0  0  0  0
   -0.4225   11.6681   24.8696 C   0  0  0  0  0  0  0  0  0  0  0  0
   -3.1709   11.0707   26.4408 H   0  0  0  0  0  0  0  0  0  0  0  0
    0.4285    8.0810   27.7140 H   0  0  0  0  0  0  0  0  0  0  0  0
    1.7376   11.9450   23.9265 O   0  0  0  0  0  0  0  0  0  0  0  0
    3.8255   14.6670   25.1552 C   0  0  0  0  0  0  0  0  0  0  0  0
    5.2328   12.8073   24.4748 C   0  0  0  0  0  0  0  0  0  0  0  0
    4.1435   12.0307   24.1048 C   0  0  0  0  0  0  0  0  0  0  0  0
    2.7350   13.9021   24.7886 C   0  0  0  0  0  0  0  0  0  0  0  0
    5.0777   14.0779   24.9852 C   0  0  0  0  0  0  0  0  0  0  0  0
    2.8782   12.6165   24.2769 C   0  0  0  0  0  0  0  0  0  0  0  0
    6.5721   14.9757   25.3823 Cl  0  0  0  0  0  0  0  0  0  0  0  0
    6.9283   12.2508   24.3086 Cl  0  0  0  0  0  0  0  0  0  0  0  0
 12 15  1  0  0  0
 12 16  2  0  0  0
 13 14  2  0  0  0
 13 16  1  0  0  0
 13 19  1  0  0  0
 14 17  1  0  0  0
  5  4  1  0  0  0
  4  3  2  0  0  0
  4  6  1  0  0  0
  3  2  1  0  0  0
  2  1  1  0  0  0
  2  8  2  0  0  0
  8  7  1  0  0  0
 15 17  2  0  0  0
 16 18  1  0  0  0
 17 11  1  0  0  0
 11  7  1  0  0  0
  7  6  2  0  0  0
  1  9  1  0  0  0
  5 10  1  0  0  0
M  END
> <minimizedAffinity>
-7.93040

$$$$
4BQG_50Q_A_1225


 19 20  0  0  0  0  0  0  0  0999 V2000
    4.4116   16.0151   26.0978 O   0  0  0  0  0  0  0  0  0  0  0  0
    4.9693   14.8844   25.5692 C   0  0  0  0  0  0  0  0  0  0  0  0
    6.3457   14.6605   25.6008 C   0  0  0  0  0  0  0  0  0  0  0  0
    6.8755   13.4914   25.0258 C   0  0  0  0  0  0  0  0  0  0  0  0
    8.1978   13.2510   25.0522 O   0  0  0  0  0  0  0  0  0  0  0  0
    6.0631   12.5775   24.3969 C   0  0  0  0  0  0  0  0  0  0  0  0
    4.6981   12.8268   24.3480 C   0  0  0  0  0  0  0  0  0  0  0  0
    4.1515   13.9628   24.9375 C   0  0  0  0  0  0  0  0  0  0  0  0
    4.9529   16.6474   26.5281 H   0  0  0  0  0  0  0  0  0  0  0  0
    8.7756   13.8563   25.4737 H   0  0  0  0  0  0  0  0  0  0  0  0
    3.8526   11.9653   23.6913 O   0  0  0  0  0  0  0  0  0  0  0  0
    0.9011   10.5150   25.2610 C   0  0  0  0  0  0  0  0  0  0  0  0
    0.2173   12.1627   23.6121 C   0  0  0  0  0  0  0  0  0  0  0  0
    1.5285   12.4657   23.2720 C   0  0  0  0  0  0  0  0  0  0  0  0
    2.2096   10.8087   24.9287 C   0  0  0  0  0  0  0  0  0  0  0  0
   -0.0839   11.2240   24.5749 C   0  0  0  0  0  0  0  0  0  0  0  0
    2.5266   11.7577   23.9622 C   0  0  0  0  0  0  0  0  0  0  0  0
   -1.8173   10.9100   24.8809 Cl  0  0  0  0  0  0  0  0  0  0  0  0
   -1.1968   12.9369   22.8288 Cl  0  0  0  0  0  0  0  0  0  0  0  0
 12 15  1  0  0  0
 12 16  2  0  0  0
 13 14  2  0  0  0
 13 16  1  0  0  0
 13 19  1  0  0  0
 14 17  1  0  0  0
  5  4  1  0  0  0
  4  3  2  0  0  0
  4  6  1  0  0  0
  3  2  1  0  0  0
  2  1  1  0  0  0
  2  8  2  0  0  0
  8  7  1  0  0  0
 15 17  2  0  0  0
 16 18  1  0  0  0
 17 11  1  0  0  0
 11  7  1  0  0  0
  7  6  2  0  0  0
  1  9  1  0  0  0
  5 10  1  0  0  0
M  END
> <minimizedAffinity>
-7.86572

$$$$
4BQG_50Q_A_1225


 19 20  0  0  0  0  0  0  0  0999 V2000
    4.4484   16.0494   26.2089 O   0  0  0  0  0  0  0  0  0  0  0  0
    4.9523   14.9204   25.6255 C   0  0  0  0  0  0  0  0  0  0  0  0
    6.3204   14.6486   25.6122 C   0  0  0  0  0  0  0  0  0  0  0  0
    6.7939   13.4839   24.9817 C   0  0  0  0  0  0  0  0  0  0  0  0
    8.1072   13.1977   24.9640 O   0  0  0  0  0  0  0  0  0  0  0  0
    5.9341   12.6221   24.3424 C   0  0  0  0  0  0  0  0  0  0  0  0
    4.5779   12.9195   24.3390 C   0  0  0  0  0  0  0  0  0  0  0  0
    4.0868   14.0511   24.9833 C   0  0  0  0  0  0  0  0  0  0  0  0
    5.0225   16.6466   26.6469 H   0  0  0  0  0  0  0  0  0  0  0  0
    8.7165   13.7670   25.3913 H   0  0  0  0  0  0  0  0  0  0  0  0
    3.6862   12.1122   23.6748 O   0  0  0  0  0  0  0  0  0  0  0  0
    0.0643   12.5066   23.7480 C   0  0  0  0  0  0  0  0  0  0  0  0
    0.7172   10.7183   25.2571 C   0  0  0  0  0  0  0  0  0  0  0  0
    2.0645   10.8666   24.9580 C   0  0  0  0  0  0  0  0  0  0  0  0
    1.4031   12.6628   23.4447 C   0  0  0  0  0  0  0  0  0  0  0  0
   -0.2473   11.5078   24.6694 C   0  0  0  0  0  0  0  0  0  0  0  0
    2.3857   11.8688   24.0273 C   0  0  0  0  0  0  0  0  0  0  0  0
   -1.9383   11.2296   25.1795 Cl  0  0  0  0  0  0  0  0  0  0  0  0
    0.1071    9.5152   26.4371 Cl  0  0  0  0  0  0  0  0  0  0  0  0
 12 15  1  0  0  0
 12 16  2  0  0  0
 13 14  2  0  0  0
 13 16  1  0  0  0
 13 19  1  0  0  0
 14 17  1  0  0  0
  5  4  1  0  0  0
  4  3  2  0  0  0
  4  6  1  0  0  0
  3  2  1  0  0  0
  2  1  1  0  0  0
  2  8  2  0  0  0
  8  7  1  0  0  0
 15 17  2  0  0  0
 16 18  1  0  0  0
 17 11  1  0  0  0
 11  7  1  0  0  0
  7  6  2  0  0  0
  1  9  1  0  0  0
  5 10  1  0  0  0
M  END
> <minimizedAffinity>
-7.85588

$$$$
4BQG_50Q_A_1225


 19 20  0  0  0  0  0  0  0  0999 V2000
    4.4197   16.1555   26.2839 O   0  0  0  0  0  0  0  0  0  0  0  0
    4.8054   15.0058   25.6527 C   0  0  0  0  0  0  0  0  0  0  0  0
    6.1496   14.6621   25.5096 C   0  0  0  0  0  0  0  0  0  0  0  0
    6.4989   13.4788   24.8343 C   0  0  0  0  0  0  0  0  0  0  0  0
    7.7875   13.1236   24.6921 O   0  0  0  0  0  0  0  0  0  0  0  0
    5.5380   12.6685   24.2769 C   0  0  0  0  0  0  0  0  0  0  0  0
    4.2053   13.0373   24.4022 C   0  0  0  0  0  0  0  0  0  0  0  0
    3.8381   14.1885   25.0928 C   0  0  0  0  0  0  0  0  0  0  0  0
    5.0634   16.7181   26.6673 H   0  0  0  0  0  0  0  0  0  0  0  0
    8.4639   13.6566   25.0614 H   0  0  0  0  0  0  0  0  0  0  0  0
    3.2131   12.2834   23.8231 O   0  0  0  0  0  0  0  0  0  0  0  0
    2.1182    9.3525   25.6910 C   0  0  0  0  0  0  0  0  0  0  0  0
    0.2002   10.7531   25.1800 C   0  0  0  0  0  0  0  0  0  0  0  0
    0.9785   11.6953   24.5219 C   0  0  0  0  0  0  0  0  0  0  0  0
    2.9012   10.2839   25.0369 C   0  0  0  0  0  0  0  0  0  0  0  0
    0.7520    9.6250   25.7472 C   0  0  0  0  0  0  0  0  0  0  0  0
    2.3568   11.4291   24.4647 C   0  0  0  0  0  0  0  0  0  0  0  0
   -0.3773    8.4802   26.5290 Cl  0  0  0  0  0  0  0  0  0  0  0  0
   -1.5793   10.8972   25.3381 Cl  0  0  0  0  0  0  0  0  0  0  0  0
 12 15  1  0  0  0
 12 16  2  0  0  0
 13 14  2  0  0  0
 13 16  1  0  0  0
 13 19  1  0  0  0
 14 17  1  0  0  0
  5  4  1  0  0  0
  4  3  2  0  0  0
  4  6  1  0  0  0
  3  2  1  0  0  0
  2  1  1  0  0  0
  2  8  2  0  0  0
  8  7  1  0  0  0
 15 17  2  0  0  0
 16 18  1  0  0  0
 17 11  1  0  0  0
 11  7  1  0  0  0
  7  6  2  0  0  0
  1  9  1  0  0  0
  5 10  1  0  0  0
M  END
> <minimizedAffinity>
-7.43223

$$$$
