5D6J_ATP_A_702


 39 41  0  0  0  0  0  0  0  0999 V2000
  -31.4999    6.3513   11.8253 C   0  0  0  0  0  0  0  0  0  0  0  0
  -30.1460    6.1807   11.3843 O   0  0  0  0  0  0  0  0  0  0  0  0
  -31.6479    7.8572   12.0045 C   0  0  0  0  0  0  0  0  0  0  0  0
  -32.7086    8.2173   12.8979 O   0  0  0  0  0  0  0  0  0  0  0  0
  -30.2909    8.2195   12.5639 C   0  0  0  0  0  0  0  0  0  0  0  0
  -30.2636    7.9139   13.9582 O   0  0  0  0  0  0  0  0  0  0  0  0
  -29.3393    7.2629   11.8665 C   0  0  0  0  0  0  0  0  0  0  0  0
  -32.5624    7.7965   13.7596 H   0  0  0  0  0  0  0  0  0  0  0  0
  -30.4812    6.9776   14.0883 H   0  0  0  0  0  0  0  0  0  0  0  0
  -28.7694    8.0365   10.7465 N   0  0  0  0  0  0  0  0  0  0  0  0
  -29.2521    8.0878    9.4870 C   0  0  0  0  0  0  0  0  0  0  0  0
  -28.5033    8.9160    8.7175 N   0  0  0  0  0  0  0  0  0  0  0  0
  -27.5224    9.4173    9.4956 C   0  0  0  0  0  0  0  0  0  0  0  0
  -26.3945   10.3588    9.3217 C   0  0  0  0  0  0  0  0  0  0  0  0
  -26.1433   10.9424    8.1254 N   0  0  0  0  0  0  0  0  0  0  0  0
  -25.6184   10.6081   10.3965 N   0  0  0  0  0  0  0  0  0  0  0  0
  -25.8520   10.0477   11.5993 C   0  0  0  0  0  0  0  0  0  0  0  0
  -26.8574    9.1925   11.8343 N   0  0  0  0  0  0  0  0  0  0  0  0
  -27.7086    8.8415   10.8369 C   0  0  0  0  0  0  0  0  0  0  0  0
  -26.7207   10.7483    7.3520 H   0  0  0  0  0  0  0  0  0  0  0  0
  -25.3831   11.5606    8.0292 H   0  0  0  0  0  0  0  0  0  0  0  0
  -32.4785    5.7318   10.8255 C   0  0  0  0  0  0  0  0  0  0  0  0
  -33.7694    5.7753   11.4264 O   0  0  0  0  0  0  0  0  0  0  0  0
  -34.9023    4.6827   11.1159 P   0  0  0  0  0  0  0  0  0  0  0  0
  -34.5989    4.1124    9.7548 O   0  0  0  0  0  0  0  0  0  0  0  0
  -36.2680    5.2701   11.3848 O   0  0  0  0  0  0  0  0  0  0  0  0
  -36.9488    4.6056   11.1955 H   0  0  0  0  0  0  0  0  0  0  0  0
  -34.6658    3.5208   12.2223 O   0  0  0  0  0  0  0  0  0  0  0  0
  -33.7780    3.6292   13.5748 P   0  0  0  0  0  0  0  0  0  0  0  0
  -32.4419    2.9947   13.2902 O   0  0  0  0  0  0  0  0  0  0  0  0
  -33.8434    5.0239   14.1396 O   0  0  0  0  0  0  0  0  0  0  0  0
  -33.3079    5.0712   14.9469 H   0  0  0  0  0  0  0  0  0  0  0  0
  -34.6398    2.6372   14.5269 O   0  0  0  0  0  0  0  0  0  0  0  0
  -35.5692    3.1036   15.7714 P   0  0  0  0  0  0  0  0  0  0  0  0
  -36.4588    4.2068   15.2466 O   0  0  0  0  0  0  0  0  0  0  0  0
  -34.5606    3.5125   16.8205 O   0  0  0  0  0  0  0  0  0  0  0  0
  -36.3733    1.8790   16.1439 O   0  0  0  0  0  0  0  0  0  0  0  0
  -35.0260    3.8122   17.6170 H   0  0  0  0  0  0  0  0  0  0  0  0
  -36.9567    2.0897   16.8896 H   0  0  0  0  0  0  0  0  0  0  0  0
 34 35  2  0  0  0
 34 36  1  0  0  0
 34 37  1  0  0  0
 34 33  1  0  0  0
 29 30  2  0  0  0
 29 31  1  0  0  0
 29 33  1  0  0  0
 29 28  1  0  0  0
 24 25  2  0  0  0
 24 26  1  0  0  0
 24 28  1  0  0  0
 24 23  1  0  0  0
 23 22  1  0  0  0
 22  1  1  0  0  0
  1  2  1  0  0  0
  1  3  1  0  0  0
  2  7  1  0  0  0
  3  4  1  0  0  0
  3  5  1  0  0  0
  5  6  1  0  0  0
  5  7  1  0  0  0
  7 10  1  0  0  0
 10 11  1  0  0  0
 10 19  1  0  0  0
 11 12  2  0  0  0
 12 13  1  0  0  0
 13 14  1  0  0  0
 13 19  2  0  0  0
 14 15  1  0  0  0
 14 16  2  0  0  0
 16 17  1  0  0  0
 17 18  2  0  0  0
 18 19  1  0  0  0
 36 38  1  0  0  0
 37 39  1  0  0  0
 31 32  1  0  0  0
 26 27  1  0  0  0
  4  8  1  0  0  0
  6  9  1  0  0  0
 15 20  1  0  0  0
 15 21  1  0  0  0
M  END
> <minimizedAffinity>
-12.41547

$$$$
5D6J_ATP_A_702


 39 41  0  0  0  0  0  0  0  0999 V2000
  -31.4823    6.1700   12.3305 C   0  0  0  0  0  0  0  0  0  0  0  0
  -30.1650    6.0179   11.7843 O   0  0  0  0  0  0  0  0  0  0  0  0
  -31.6391    7.6744   12.5152 C   0  0  0  0  0  0  0  0  0  0  0  0
  -32.6313    8.0228   13.4885 O   0  0  0  0  0  0  0  0  0  0  0  0
  -30.2479    8.0601   12.9641 C   0  0  0  0  0  0  0  0  0  0  0  0
  -30.1057    7.7619   14.3529 O   0  0  0  0  0  0  0  0  0  0  0  0
  -29.3397    7.1146   12.1971 C   0  0  0  0  0  0  0  0  0  0  0  0
  -32.4109    7.6085   14.3374 H   0  0  0  0  0  0  0  0  0  0  0  0
  -30.2977    6.8230   14.5033 H   0  0  0  0  0  0  0  0  0  0  0  0
  -28.8723    7.8912   11.0326 N   0  0  0  0  0  0  0  0  0  0  0  0
  -29.4566    7.9329    9.8165 C   0  0  0  0  0  0  0  0  0  0  0  0
  -28.7830    8.7673    8.9867 N   0  0  0  0  0  0  0  0  0  0  0  0
  -27.7480    9.2824    9.6811 C   0  0  0  0  0  0  0  0  0  0  0  0
  -26.6493   10.2365    9.4135 C   0  0  0  0  0  0  0  0  0  0  0  0
  -26.5034   10.8191    8.1994 N   0  0  0  0  0  0  0  0  0  0  0  0
  -25.7911   10.4982   10.4209 N   0  0  0  0  0  0  0  0  0  0  0  0
  -25.9191    9.9390   11.6400 C   0  0  0  0  0  0  0  0  0  0  0  0
  -26.8918    9.0728   11.9582 N   0  0  0  0  0  0  0  0  0  0  0  0
  -27.8173    8.7087   11.0343 C   0  0  0  0  0  0  0  0  0  0  0  0
  -27.1397   10.6158    7.4762 H   0  0  0  0  0  0  0  0  0  0  0  0
  -25.7610   11.4458    8.0402 H   0  0  0  0  0  0  0  0  0  0  0  0
  -32.5272    5.5308   11.4136 C   0  0  0  0  0  0  0  0  0  0  0  0
  -33.6615    5.2315   12.2219 O   0  0  0  0  0  0  0  0  0  0  0  0
  -33.6825    4.0076   13.2590 P   0  0  0  0  0  0  0  0  0  0  0  0
  -32.2701    3.4925   13.3565 O   0  0  0  0  0  0  0  0  0  0  0  0
  -34.7962    3.0517   12.9008 O   0  0  0  0  0  0  0  0  0  0  0  0
  -34.8043    2.3141   13.5307 H   0  0  0  0  0  0  0  0  0  0  0  0
  -34.0814    4.6806   14.6795 O   0  0  0  0  0  0  0  0  0  0  0  0
  -35.1507    4.1155   15.7596 P   0  0  0  0  0  0  0  0  0  0  0  0
  -36.5284    4.3659   15.2049 O   0  0  0  0  0  0  0  0  0  0  0  0
  -34.7624    2.7331   16.2140 O   0  0  0  0  0  0  0  0  0  0  0  0
  -35.4114    2.4105   16.8586 H   0  0  0  0  0  0  0  0  0  0  0  0
  -34.8714    5.1621   16.9679 O   0  0  0  0  0  0  0  0  0  0  0  0
  -35.2852    6.7301   16.9660 P   0  0  0  0  0  0  0  0  0  0  0  0
  -35.0048    7.2448   18.3590 O   0  0  0  0  0  0  0  0  0  0  0  0
  -36.7392    6.7024   16.5535 O   0  0  0  0  0  0  0  0  0  0  0  0
  -34.3751    7.3770   15.9471 O   0  0  0  0  0  0  0  0  0  0  0  0
  -37.0839    7.6085   16.5226 H   0  0  0  0  0  0  0  0  0  0  0  0
  -34.5709    8.3256   15.8946 H   0  0  0  0  0  0  0  0  0  0  0  0
 34 35  2  0  0  0
 34 36  1  0  0  0
 34 37  1  0  0  0
 34 33  1  0  0  0
 29 30  2  0  0  0
 29 31  1  0  0  0
 29 33  1  0  0  0
 29 28  1  0  0  0
 24 25  2  0  0  0
 24 26  1  0  0  0
 24 28  1  0  0  0
 24 23  1  0  0  0
 23 22  1  0  0  0
 22  1  1  0  0  0
  1  2  1  0  0  0
  1  3  1  0  0  0
  2  7  1  0  0  0
  3  4  1  0  0  0
  3  5  1  0  0  0
  5  6  1  0  0  0
  5  7  1  0  0  0
  7 10  1  0  0  0
 10 11  1  0  0  0
 10 19  1  0  0  0
 11 12  2  0  0  0
 12 13  1  0  0  0
 13 14  1  0  0  0
 13 19  2  0  0  0
 14 15  1  0  0  0
 14 16  2  0  0  0
 16 17  1  0  0  0
 17 18  2  0  0  0
 18 19  1  0  0  0
 36 38  1  0  0  0
 37 39  1  0  0  0
 31 32  1  0  0  0
 26 27  1  0  0  0
  4  8  1  0  0  0
  6  9  1  0  0  0
 15 20  1  0  0  0
 15 21  1  0  0  0
M  END
> <minimizedAffinity>
-10.60096

$$$$
5D6J_ATP_A_702


 39 41  0  0  0  0  0  0  0  0999 V2000
  -31.5261    6.3705   11.9663 C   0  0  0  0  0  0  0  0  0  0  0  0
  -30.1889    6.1707   11.4881 O   0  0  0  0  0  0  0  0  0  0  0  0
  -31.6378    7.8796   12.1449 C   0  0  0  0  0  0  0  0  0  0  0  0
  -32.6653    8.2639   13.0666 O   0  0  0  0  0  0  0  0  0  0  0  0
  -30.2584    8.2151   12.6650 C   0  0  0  0  0  0  0  0  0  0  0  0
  -30.1984    7.9126   14.0588 O   0  0  0  0  0  0  0  0  0  0  0  0
  -29.3468    7.2372   11.9441 C   0  0  0  0  0  0  0  0  0  0  0  0
  -32.5038    7.8424   13.9251 H   0  0  0  0  0  0  0  0  0  0  0  0
  -30.4315    6.9813   14.1979 H   0  0  0  0  0  0  0  0  0  0  0  0
  -28.7927    7.9959   10.8062 N   0  0  0  0  0  0  0  0  0  0  0  0
  -29.2886    8.0248    9.5511 C   0  0  0  0  0  0  0  0  0  0  0  0
  -28.5523    8.8446    8.7609 N   0  0  0  0  0  0  0  0  0  0  0  0
  -27.5662    9.3632    9.5208 C   0  0  0  0  0  0  0  0  0  0  0  0
  -26.4453   10.3079    9.3203 C   0  0  0  0  0  0  0  0  0  0  0  0
  -26.2095   10.8737    8.1123 N   0  0  0  0  0  0  0  0  0  0  0  0
  -25.6595   10.5782   10.3829 N   0  0  0  0  0  0  0  0  0  0  0  0
  -25.8775   10.0357   11.5967 C   0  0  0  0  0  0  0  0  0  0  0  0
  -26.8759    9.1790   11.8557 N   0  0  0  0  0  0  0  0  0  0  0  0
  -27.7354    8.8078   10.8728 C   0  0  0  0  0  0  0  0  0  0  0  0
  -26.7939   10.6643    7.3482 H   0  0  0  0  0  0  0  0  0  0  0  0
  -25.4538   11.4943    7.9985 H   0  0  0  0  0  0  0  0  0  0  0  0
  -32.5450    5.7690   10.9963 C   0  0  0  0  0  0  0  0  0  0  0  0
  -32.7875    4.4322   11.4248 O   0  0  0  0  0  0  0  0  0  0  0  0
  -34.2521    3.9024   11.8098 P   0  0  0  0  0  0  0  0  0  0  0  0
  -35.2112    5.0323   11.5391 O   0  0  0  0  0  0  0  0  0  0  0  0
  -34.2234    3.2679   13.1806 O   0  0  0  0  0  0  0  0  0  0  0  0
  -35.1109    2.9496   13.4082 H   0  0  0  0  0  0  0  0  0  0  0  0
  -34.5498    2.7126   10.7489 O   0  0  0  0  0  0  0  0  0  0  0  0
  -34.7388    2.8614    9.1453 P   0  0  0  0  0  0  0  0  0  0  0  0
  -36.0072    2.1404    8.7710 O   0  0  0  0  0  0  0  0  0  0  0  0
  -34.5326    4.2912    8.7193 O   0  0  0  0  0  0  0  0  0  0  0  0
  -34.6490    4.3625    7.7590 H   0  0  0  0  0  0  0  0  0  0  0  0
  -33.4678    1.9799    8.6548 O   0  0  0  0  0  0  0  0  0  0  0  0
  -32.0031    2.5697    8.2849 P   0  0  0  0  0  0  0  0  0  0  0  0
  -32.2416    3.8687    7.5504 O   0  0  0  0  0  0  0  0  0  0  0  0
  -31.3789    1.4578    7.4728 O   0  0  0  0  0  0  0  0  0  0  0  0
  -31.3257    2.8065    9.6154 O   0  0  0  0  0  0  0  0  0  0  0  0
  -30.4855    1.7191    7.1999 H   0  0  0  0  0  0  0  0  0  0  0  0
  -30.4359    3.1629    9.4663 H   0  0  0  0  0  0  0  0  0  0  0  0
 34 35  2  0  0  0
 34 36  1  0  0  0
 34 37  1  0  0  0
 34 33  1  0  0  0
 29 30  2  0  0  0
 29 31  1  0  0  0
 29 33  1  0  0  0
 29 28  1  0  0  0
 24 25  2  0  0  0
 24 26  1  0  0  0
 24 28  1  0  0  0
 24 23  1  0  0  0
 23 22  1  0  0  0
 22  1  1  0  0  0
  1  2  1  0  0  0
  1  3  1  0  0  0
  2  7  1  0  0  0
  3  4  1  0  0  0
  3  5  1  0  0  0
  5  6  1  0  0  0
  5  7  1  0  0  0
  7 10  1  0  0  0
 10 11  1  0  0  0
 10 19  1  0  0  0
 11 12  2  0  0  0
 12 13  1  0  0  0
 13 14  1  0  0  0
 13 19  2  0  0  0
 14 15  1  0  0  0
 14 16  2  0  0  0
 16 17  1  0  0  0
 17 18  2  0  0  0
 18 19  1  0  0  0
 36 38  1  0  0  0
 37 39  1  0  0  0
 31 32  1  0  0  0
 26 27  1  0  0  0
  4  8  1  0  0  0
  6  9  1  0  0  0
 15 20  1  0  0  0
 15 21  1  0  0  0
M  END
> <minimizedAffinity>
-10.40083

$$$$
5D6J_ATP_A_702


 39 41  0  0  0  0  0  0  0  0999 V2000
  -29.7269    6.9488   12.0963 C   0  0  0  0  0  0  0  0  0  0  0  0
  -28.3313    7.1910   11.8719 O   0  0  0  0  0  0  0  0  0  0  0  0
  -30.4098    8.2226   11.6135 C   0  0  0  0  0  0  0  0  0  0  0  0
  -31.7069    8.4201   12.1894 O   0  0  0  0  0  0  0  0  0  0  0  0
  -29.4235    9.2737   12.0696 C   0  0  0  0  0  0  0  0  0  0  0  0
  -29.6206    9.5269   13.4607 O   0  0  0  0  0  0  0  0  0  0  0  0
  -28.0712    8.6000   11.9137 C   0  0  0  0  0  0  0  0  0  0  0  0
  -31.6328    8.4331   13.1564 H   0  0  0  0  0  0  0  0  0  0  0  0
  -29.5348    8.6972   13.9557 H   0  0  0  0  0  0  0  0  0  0  0  0
  -27.5503    9.0792   10.6189 N   0  0  0  0  0  0  0  0  0  0  0  0
  -28.0427    8.7735    9.3998 C   0  0  0  0  0  0  0  0  0  0  0  0
  -27.3439    9.4066    8.4253 N   0  0  0  0  0  0  0  0  0  0  0  0
  -26.3864   10.1430    9.0251 C   0  0  0  0  0  0  0  0  0  0  0  0
  -25.3114   11.0608    8.5879 C   0  0  0  0  0  0  0  0  0  0  0  0
  -25.0990   11.3211    7.2757 N   0  0  0  0  0  0  0  0  0  0  0  0
  -24.5431   11.6223    9.5441 N   0  0  0  0  0  0  0  0  0  0  0  0
  -24.7391   11.3868   10.8561 C   0  0  0  0  0  0  0  0  0  0  0  0
  -25.6960   10.5744   11.3272 N   0  0  0  0  0  0  0  0  0  0  0  0
  -26.5334    9.9315   10.4739 C   0  0  0  0  0  0  0  0  0  0  0  0
  -25.6701   10.9019    6.5920 H   0  0  0  0  0  0  0  0  0  0  0  0
  -24.3735   11.9294    7.0057 H   0  0  0  0  0  0  0  0  0  0  0  0
  -30.1790    5.6752   11.3789 C   0  0  0  0  0  0  0  0  0  0  0  0
  -31.2869    6.0321   10.5576 O   0  0  0  0  0  0  0  0  0  0  0  0
  -32.4081    4.9736   10.1147 P   0  0  0  0  0  0  0  0  0  0  0  0
  -31.9206    3.6143   10.5440 O   0  0  0  0  0  0  0  0  0  0  0  0
  -32.7863    5.2023    8.6699 O   0  0  0  0  0  0  0  0  0  0  0  0
  -33.4642    4.5599    8.4076 H   0  0  0  0  0  0  0  0  0  0  0  0
  -33.7081    5.3563   11.0055 O   0  0  0  0  0  0  0  0  0  0  0  0
  -34.8824    4.3522   11.4975 P   0  0  0  0  0  0  0  0  0  0  0  0
  -36.1910    4.9110   11.0035 O   0  0  0  0  0  0  0  0  0  0  0  0
  -34.5145    2.9225   11.1993 O   0  0  0  0  0  0  0  0  0  0  0  0
  -35.2265    2.3361   11.4995 H   0  0  0  0  0  0  0  0  0  0  0  0
  -34.7757    4.5981   13.0979 O   0  0  0  0  0  0  0  0  0  0  0  0
  -33.9306    3.6805   14.1342 P   0  0  0  0  0  0  0  0  0  0  0  0
  -33.9998    4.3784   15.4729 O   0  0  0  0  0  0  0  0  0  0  0  0
  -32.5618    3.6118   13.4964 O   0  0  0  0  0  0  0  0  0  0  0  0
  -34.6545    2.3540   14.1674 O   0  0  0  0  0  0  0  0  0  0  0  0
  -31.9734    3.0755   14.0505 H   0  0  0  0  0  0  0  0  0  0  0  0
  -34.1973    1.7512   14.7745 H   0  0  0  0  0  0  0  0  0  0  0  0
 34 35  2  0  0  0
 34 36  1  0  0  0
 34 37  1  0  0  0
 34 33  1  0  0  0
 29 30  2  0  0  0
 29 31  1  0  0  0
 29 33  1  0  0  0
 29 28  1  0  0  0
 24 25  2  0  0  0
 24 26  1  0  0  0
 24 28  1  0  0  0
 24 23  1  0  0  0
 23 22  1  0  0  0
 22  1  1  0  0  0
  1  2  1  0  0  0
  1  3  1  0  0  0
  2  7  1  0  0  0
  3  4  1  0  0  0
  3  5  1  0  0  0
  5  6  1  0  0  0
  5  7  1  0  0  0
  7 10  1  0  0  0
 10 11  1  0  0  0
 10 19  1  0  0  0
 11 12  2  0  0  0
 12 13  1  0  0  0
 13 14  1  0  0  0
 13 19  2  0  0  0
 14 15  1  0  0  0
 14 16  2  0  0  0
 16 17  1  0  0  0
 17 18  2  0  0  0
 18 19  1  0  0  0
 36 38  1  0  0  0
 37 39  1  0  0  0
 31 32  1  0  0  0
 26 27  1  0  0  0
  4  8  1  0  0  0
  6  9  1  0  0  0
 15 20  1  0  0  0
 15 21  1  0  0  0
M  END
> <minimizedAffinity>
-10.39916

$$$$
5D6J_ATP_A_702


 39 41  0  0  0  0  0  0  0  0999 V2000
  -29.9340    7.0545   11.8344 C   0  0  0  0  0  0  0  0  0  0  0  0
  -28.5217    7.1550   11.6061 O   0  0  0  0  0  0  0  0  0  0  0  0
  -30.4691    8.4370   11.4821 C   0  0  0  0  0  0  0  0  0  0  0  0
  -31.7296    8.7277   12.0982 O   0  0  0  0  0  0  0  0  0  0  0  0
  -29.3639    9.3218   12.0123 C   0  0  0  0  0  0  0  0  0  0  0  0
  -29.5184    9.4668   13.4241 O   0  0  0  0  0  0  0  0  0  0  0  0
  -28.1001    8.5151   11.7701 C   0  0  0  0  0  0  0  0  0  0  0  0
  -31.6461    8.6431   13.0609 H   0  0  0  0  0  0  0  0  0  0  0  0
  -29.5248    8.5906   13.8403 H   0  0  0  0  0  0  0  0  0  0  0  0
  -27.5384    9.0488   10.5142 N   0  0  0  0  0  0  0  0  0  0  0  0
  -27.9802    8.7813    9.2670 C   0  0  0  0  0  0  0  0  0  0  0  0
  -27.2552    9.4594    8.3433 N   0  0  0  0  0  0  0  0  0  0  0  0
  -26.3322   10.1865    9.0053 C   0  0  0  0  0  0  0  0  0  0  0  0
  -25.2557   11.1345    8.6427 C   0  0  0  0  0  0  0  0  0  0  0  0
  -24.9983   11.4458    7.3497 N   0  0  0  0  0  0  0  0  0  0  0  0
  -24.5323   11.6711    9.6470 N   0  0  0  0  0  0  0  0  0  0  0  0
  -24.7736   11.3849   10.9412 C   0  0  0  0  0  0  0  0  0  0  0  0
  -25.7350   10.5425   11.3460 N   0  0  0  0  0  0  0  0  0  0  0  0
  -26.5300    9.9199   10.4388 C   0  0  0  0  0  0  0  0  0  0  0  0
  -25.5369   11.0442    6.6301 H   0  0  0  0  0  0  0  0  0  0  0  0
  -24.2726   12.0736    7.1296 H   0  0  0  0  0  0  0  0  0  0  0  0
  -30.5365    5.9124   11.0136 C   0  0  0  0  0  0  0  0  0  0  0  0
  -31.2395    5.0723   11.9243 O   0  0  0  0  0  0  0  0  0  0  0  0
  -31.2266    3.4723   11.8070 P   0  0  0  0  0  0  0  0  0  0  0  0
  -29.7982    3.0313   11.9945 O   0  0  0  0  0  0  0  0  0  0  0  0
  -31.9773    3.0434   10.5680 O   0  0  0  0  0  0  0  0  0  0  0  0
  -31.9664    2.0757   10.5021 H   0  0  0  0  0  0  0  0  0  0  0  0
  -32.0917    2.9608   13.0797 O   0  0  0  0  0  0  0  0  0  0  0  0
  -33.5765    3.4510   13.5093 P   0  0  0  0  0  0  0  0  0  0  0  0
  -34.1215    2.4404   14.4841 O   0  0  0  0  0  0  0  0  0  0  0  0
  -33.5667    4.9136   13.8687 O   0  0  0  0  0  0  0  0  0  0  0  0
  -34.4610    5.1901   14.1228 H   0  0  0  0  0  0  0  0  0  0  0  0
  -34.3294    3.2666   12.0837 O   0  0  0  0  0  0  0  0  0  0  0  0
  -35.0759    4.4454   11.2570 P   0  0  0  0  0  0  0  0  0  0  0  0
  -36.0655    5.0723   12.2118 O   0  0  0  0  0  0  0  0  0  0  0  0
  -35.6718    3.7138   10.0760 O   0  0  0  0  0  0  0  0  0  0  0  0
  -33.9814    5.4182   10.8820 O   0  0  0  0  0  0  0  0  0  0  0  0
  -36.1472    4.3436    9.5118 H   0  0  0  0  0  0  0  0  0  0  0  0
  -34.3624    6.1558   10.3802 H   0  0  0  0  0  0  0  0  0  0  0  0
 34 35  2  0  0  0
 34 36  1  0  0  0
 34 37  1  0  0  0
 34 33  1  0  0  0
 29 30  2  0  0  0
 29 31  1  0  0  0
 29 33  1  0  0  0
 29 28  1  0  0  0
 24 25  2  0  0  0
 24 26  1  0  0  0
 24 28  1  0  0  0
 24 23  1  0  0  0
 23 22  1  0  0  0
 22  1  1  0  0  0
  1  2  1  0  0  0
  1  3  1  0  0  0
  2  7  1  0  0  0
  3  4  1  0  0  0
  3  5  1  0  0  0
  5  6  1  0  0  0
  5  7  1  0  0  0
  7 10  1  0  0  0
 10 11  1  0  0  0
 10 19  1  0  0  0
 11 12  2  0  0  0
 12 13  1  0  0  0
 13 14  1  0  0  0
 13 19  2  0  0  0
 14 15  1  0  0  0
 14 16  2  0  0  0
 16 17  1  0  0  0
 17 18  2  0  0  0
 18 19  1  0  0  0
 36 38  1  0  0  0
 37 39  1  0  0  0
 31 32  1  0  0  0
 26 27  1  0  0  0
  4  8  1  0  0  0
  6  9  1  0  0  0
 15 20  1  0  0  0
 15 21  1  0  0  0
M  END
> <minimizedAffinity>
-10.31551

$$$$
5D6J_ATP_A_702


 39 41  0  0  0  0  0  0  0  0999 V2000
  -30.6117    7.8725   12.3823 C   0  0  0  0  0  0  0  0  0  0  0  0
  -29.9026    7.9613   13.6257 O   0  0  0  0  0  0  0  0  0  0  0  0
  -29.5280    7.5718   11.3543 C   0  0  0  0  0  0  0  0  0  0  0  0
  -29.9002    7.9355   10.0194 O   0  0  0  0  0  0  0  0  0  0  0  0
  -28.3892    8.4197   11.8739 C   0  0  0  0  0  0  0  0  0  0  0  0
  -28.5934    9.7739   11.4709 O   0  0  0  0  0  0  0  0  0  0  0  0
  -28.5479    8.3619   13.3833 C   0  0  0  0  0  0  0  0  0  0  0  0
  -30.1264    8.8784    9.9923 H   0  0  0  0  0  0  0  0  0  0  0  0
  -29.4581   10.0786   11.7877 H   0  0  0  0  0  0  0  0  0  0  0  0
  -27.6017    7.3213   13.8296 N   0  0  0  0  0  0  0  0  0  0  0  0
  -27.2693    6.2029   13.1507 C   0  0  0  0  0  0  0  0  0  0  0  0
  -26.3508    5.4783   13.8363 N   0  0  0  0  0  0  0  0  0  0  0  0
  -26.0768    6.1442   14.9765 C   0  0  0  0  0  0  0  0  0  0  0  0
  -25.1901    5.9465   16.1443 C   0  0  0  0  0  0  0  0  0  0  0  0
  -24.3948    4.8547   16.2470 N   0  0  0  0  0  0  0  0  0  0  0  0
  -25.2094    6.8891   17.1091 N   0  0  0  0  0  0  0  0  0  0  0  0
  -25.9845    7.9881   17.0271 C   0  0  0  0  0  0  0  0  0  0  0  0
  -26.8064    8.2387   15.9979 N   0  0  0  0  0  0  0  0  0  0  0  0
  -26.8975    7.3654   14.9626 C   0  0  0  0  0  0  0  0  0  0  0  0
  -24.3942    4.1772   15.5327 H   0  0  0  0  0  0  0  0  0  0  0  0
  -23.8175    4.7388   17.0360 H   0  0  0  0  0  0  0  0  0  0  0  0
  -31.7195    6.8203   12.4631 C   0  0  0  0  0  0  0  0  0  0  0  0
  -31.2406    5.6603   11.7889 O   0  0  0  0  0  0  0  0  0  0  0  0
  -32.0689    4.9391   10.6195 P   0  0  0  0  0  0  0  0  0  0  0  0
  -31.9098    3.4546   10.8219 O   0  0  0  0  0  0  0  0  0  0  0  0
  -31.7066    5.5474    9.2848 O   0  0  0  0  0  0  0  0  0  0  0  0
  -32.2100    5.1078    8.5818 H   0  0  0  0  0  0  0  0  0  0  0  0
  -33.6152    5.3326   10.9095 O   0  0  0  0  0  0  0  0  0  0  0  0
  -34.7750    4.3614   11.4936 P   0  0  0  0  0  0  0  0  0  0  0  0
  -36.0994    4.9121   11.0339 O   0  0  0  0  0  0  0  0  0  0  0  0
  -34.4320    2.9170   11.2399 O   0  0  0  0  0  0  0  0  0  0  0  0
  -35.1349    2.3506   11.5950 H   0  0  0  0  0  0  0  0  0  0  0  0
  -34.5962    4.6724   13.0762 O   0  0  0  0  0  0  0  0  0  0  0  0
  -33.9273    3.6688   14.1603 P   0  0  0  0  0  0  0  0  0  0  0  0
  -34.7243    2.3862   14.0997 O   0  0  0  0  0  0  0  0  0  0  0  0
  -34.0242    4.4448   15.4540 O   0  0  0  0  0  0  0  0  0  0  0  0
  -32.5093    3.4584   13.6808 O   0  0  0  0  0  0  0  0  0  0  0  0
  -33.6438    3.9197   16.1754 H   0  0  0  0  0  0  0  0  0  0  0  0
  -32.0472    2.8616   14.2900 H   0  0  0  0  0  0  0  0  0  0  0  0
 34 35  2  0  0  0
 34 36  1  0  0  0
 34 37  1  0  0  0
 34 33  1  0  0  0
 29 30  2  0  0  0
 29 31  1  0  0  0
 29 33  1  0  0  0
 29 28  1  0  0  0
 24 25  2  0  0  0
 24 26  1  0  0  0
 24 28  1  0  0  0
 24 23  1  0  0  0
 23 22  1  0  0  0
 22  1  1  0  0  0
  1  2  1  0  0  0
  1  3  1  0  0  0
  2  7  1  0  0  0
  3  4  1  0  0  0
  3  5  1  0  0  0
  5  6  1  0  0  0
  5  7  1  0  0  0
  7 10  1  0  0  0
 10 11  1  0  0  0
 10 19  1  0  0  0
 11 12  2  0  0  0
 12 13  1  0  0  0
 13 14  1  0  0  0
 13 19  2  0  0  0
 14 15  1  0  0  0
 14 16  2  0  0  0
 16 17  1  0  0  0
 17 18  2  0  0  0
 18 19  1  0  0  0
 36 38  1  0  0  0
 37 39  1  0  0  0
 31 32  1  0  0  0
 26 27  1  0  0  0
  4  8  1  0  0  0
  6  9  1  0  0  0
 15 20  1  0  0  0
 15 21  1  0  0  0
M  END
> <minimizedAffinity>
-10.24117

$$$$
5D6J_ATP_A_702


 39 41  0  0  0  0  0  0  0  0999 V2000
  -29.8593    7.8069   12.0593 C   0  0  0  0  0  0  0  0  0  0  0  0
  -29.4030    8.1145   13.3837 O   0  0  0  0  0  0  0  0  0  0  0  0
  -28.5795    7.6898   11.2407 C   0  0  0  0  0  0  0  0  0  0  0  0
  -28.7872    7.8907    9.8373 O   0  0  0  0  0  0  0  0  0  0  0  0
  -27.7409    8.7900   11.8506 C   0  0  0  0  0  0  0  0  0  0  0  0
  -28.1448   10.0442   11.3015 O   0  0  0  0  0  0  0  0  0  0  0  0
  -28.1368    8.7829   13.3169 C   0  0  0  0  0  0  0  0  0  0  0  0
  -29.1922    8.7600    9.6916 H   0  0  0  0  0  0  0  0  0  0  0  0
  -29.0941   10.1730   11.4535 H   0  0  0  0  0  0  0  0  0  0  0  0
  -27.0881    7.9962   13.9943 N   0  0  0  0  0  0  0  0  0  0  0  0
  -27.1008    6.6621   14.1996 C   0  0  0  0  0  0  0  0  0  0  0  0
  -25.9680    6.2605   14.8275 N   0  0  0  0  0  0  0  0  0  0  0  0
  -25.2034    7.3539   15.0246 C   0  0  0  0  0  0  0  0  0  0  0  0
  -23.8793    7.6404   15.6191 C   0  0  0  0  0  0  0  0  0  0  0  0
  -23.1221    6.6552   16.1586 N   0  0  0  0  0  0  0  0  0  0  0  0
  -23.4567    8.9215   15.6133 N   0  0  0  0  0  0  0  0  0  0  0  0
  -24.1864    9.9183   15.0755 C   0  0  0  0  0  0  0  0  0  0  0  0
  -25.3896    9.7343   14.5134 N   0  0  0  0  0  0  0  0  0  0  0  0
  -25.9428    8.4957   14.4636 C   0  0  0  0  0  0  0  0  0  0  0  0
  -23.4472    5.7259   16.1537 H   0  0  0  0  0  0  0  0  0  0  0  0
  -22.2469    6.8684   16.5556 H   0  0  0  0  0  0  0  0  0  0  0  0
  -30.7278    6.5473   12.0633 C   0  0  0  0  0  0  0  0  0  0  0  0
  -31.8156    6.7955   12.9490 O   0  0  0  0  0  0  0  0  0  0  0  0
  -33.3332    6.4363   12.5727 P   0  0  0  0  0  0  0  0  0  0  0  0
  -33.3100    5.8282   11.1944 O   0  0  0  0  0  0  0  0  0  0  0  0
  -34.2233    7.6270   12.8418 O   0  0  0  0  0  0  0  0  0  0  0  0
  -35.1392    7.4043   12.6126 H   0  0  0  0  0  0  0  0  0  0  0  0
  -33.7572    5.2850   13.6333 O   0  0  0  0  0  0  0  0  0  0  0  0
  -33.5747    3.6834   13.4579 P   0  0  0  0  0  0  0  0  0  0  0  0
  -34.7015    3.1929   12.5871 O   0  0  0  0  0  0  0  0  0  0  0  0
  -32.1495    3.3497   13.1029 O   0  0  0  0  0  0  0  0  0  0  0  0
  -32.0579    2.3893   13.0019 H   0  0  0  0  0  0  0  0  0  0  0  0
  -33.8545    3.2247   14.9891 O   0  0  0  0  0  0  0  0  0  0  0  0
  -35.0330    3.8026   15.9416 P   0  0  0  0  0  0  0  0  0  0  0  0
  -35.2831    2.7479   16.9947 O   0  0  0  0  0  0  0  0  0  0  0  0
  -36.1677    4.0504   14.9741 O   0  0  0  0  0  0  0  0  0  0  0  0
  -34.4650    5.0641   16.5506 O   0  0  0  0  0  0  0  0  0  0  0  0
  -36.9322    4.4030   15.4558 H   0  0  0  0  0  0  0  0  0  0  0  0
  -35.1248    5.4652   17.1377 H   0  0  0  0  0  0  0  0  0  0  0  0
 34 35  2  0  0  0
 34 36  1  0  0  0
 34 37  1  0  0  0
 34 33  1  0  0  0
 29 30  2  0  0  0
 29 31  1  0  0  0
 29 33  1  0  0  0
 29 28  1  0  0  0
 24 25  2  0  0  0
 24 26  1  0  0  0
 24 28  1  0  0  0
 24 23  1  0  0  0
 23 22  1  0  0  0
 22  1  1  0  0  0
  1  2  1  0  0  0
  1  3  1  0  0  0
  2  7  1  0  0  0
  3  4  1  0  0  0
  3  5  1  0  0  0
  5  6  1  0  0  0
  5  7  1  0  0  0
  7 10  1  0  0  0
 10 11  1  0  0  0
 10 19  1  0  0  0
 11 12  2  0  0  0
 12 13  1  0  0  0
 13 14  1  0  0  0
 13 19  2  0  0  0
 14 15  1  0  0  0
 14 16  2  0  0  0
 16 17  1  0  0  0
 17 18  2  0  0  0
 18 19  1  0  0  0
 36 38  1  0  0  0
 37 39  1  0  0  0
 31 32  1  0  0  0
 26 27  1  0  0  0
  4  8  1  0  0  0
  6  9  1  0  0  0
 15 20  1  0  0  0
 15 21  1  0  0  0
M  END
> <minimizedAffinity>
-10.01848

$$$$
5D6J_ATP_A_702


 39 41  0  0  0  0  0  0  0  0999 V2000
  -29.6088    7.6153   12.1183 C   0  0  0  0  0  0  0  0  0  0  0  0
  -28.4226    7.6219   11.3123 O   0  0  0  0  0  0  0  0  0  0  0  0
  -29.2062    8.3649   13.3823 C   0  0  0  0  0  0  0  0  0  0  0  0
  -30.0325    8.0528   14.5105 O   0  0  0  0  0  0  0  0  0  0  0  0
  -27.7869    7.8794   13.5704 C   0  0  0  0  0  0  0  0  0  0  0  0
  -27.8118    6.5866   14.1755 O   0  0  0  0  0  0  0  0  0  0  0  0
  -27.2656    7.7122   12.1536 C   0  0  0  0  0  0  0  0  0  0  0  0
  -30.0092    7.0969   14.6738 H   0  0  0  0  0  0  0  0  0  0  0  0
  -28.3412    5.9843   13.6298 H   0  0  0  0  0  0  0  0  0  0  0  0
  -26.5058    8.9463   11.8757 N   0  0  0  0  0  0  0  0  0  0  0  0
  -25.6362    9.5516   12.7120 C   0  0  0  0  0  0  0  0  0  0  0  0
  -25.0929   10.6493   12.1302 N   0  0  0  0  0  0  0  0  0  0  0  0
  -25.6139   10.7519   10.8905 C   0  0  0  0  0  0  0  0  0  0  0  0
  -25.4641   11.6693    9.7395 C   0  0  0  0  0  0  0  0  0  0  0  0
  -24.6350   12.7391    9.7957 N   0  0  0  0  0  0  0  0  0  0  0  0
  -26.1913   11.4073    8.6339 N   0  0  0  0  0  0  0  0  0  0  0  0
  -27.0162   10.3454    8.5492 C   0  0  0  0  0  0  0  0  0  0  0  0
  -27.1977    9.4681    9.5467 N   0  0  0  0  0  0  0  0  0  0  0  0
  -26.5384    9.6193   10.7236 C   0  0  0  0  0  0  0  0  0  0  0  0
  -24.1122   12.9143   10.6113 H   0  0  0  0  0  0  0  0  0  0  0  0
  -24.5553   13.3413    9.0210 H   0  0  0  0  0  0  0  0  0  0  0  0
  -30.7840    8.2352   11.3597 C   0  0  0  0  0  0  0  0  0  0  0  0
  -31.6312    7.1627   10.9579 O   0  0  0  0  0  0  0  0  0  0  0  0
  -32.3659    6.2027   12.0127 P   0  0  0  0  0  0  0  0  0  0  0  0
  -32.7649    7.0630   13.1833 O   0  0  0  0  0  0  0  0  0  0  0  0
  -31.5280    4.9686   12.2523 O   0  0  0  0  0  0  0  0  0  0  0  0
  -31.9767    4.3920   12.8904 H   0  0  0  0  0  0  0  0  0  0  0  0
  -33.7131    5.7143   11.2534 O   0  0  0  0  0  0  0  0  0  0  0  0
  -34.6611    4.4629   11.6590 P   0  0  0  0  0  0  0  0  0  0  0  0
  -36.0437    4.7560   11.1381 O   0  0  0  0  0  0  0  0  0  0  0  0
  -33.9895    3.1587   11.3177 O   0  0  0  0  0  0  0  0  0  0  0  0
  -34.5691    2.4217   11.5663 H   0  0  0  0  0  0  0  0  0  0  0  0
  -34.6554    4.6492   13.2710 O   0  0  0  0  0  0  0  0  0  0  0  0
  -34.1869    3.5270   14.3440 P   0  0  0  0  0  0  0  0  0  0  0  0
  -34.3596    4.1484   15.7107 O   0  0  0  0  0  0  0  0  0  0  0  0
  -32.7639    3.2278   13.9306 O   0  0  0  0  0  0  0  0  0  0  0  0
  -35.1363    2.3681   14.1427 O   0  0  0  0  0  0  0  0  0  0  0  0
  -32.3898    2.5563   14.5221 H   0  0  0  0  0  0  0  0  0  0  0  0
  -34.9104    1.6542   14.7593 H   0  0  0  0  0  0  0  0  0  0  0  0
 34 35  2  0  0  0
 34 36  1  0  0  0
 34 37  1  0  0  0
 34 33  1  0  0  0
 29 30  2  0  0  0
 29 31  1  0  0  0
 29 33  1  0  0  0
 29 28  1  0  0  0
 24 25  2  0  0  0
 24 26  1  0  0  0
 24 28  1  0  0  0
 24 23  1  0  0  0
 23 22  1  0  0  0
 22  1  1  0  0  0
  1  2  1  0  0  0
  1  3  1  0  0  0
  2  7  1  0  0  0
  3  4  1  0  0  0
  3  5  1  0  0  0
  5  6  1  0  0  0
  5  7  1  0  0  0
  7 10  1  0  0  0
 10 11  1  0  0  0
 10 19  1  0  0  0
 11 12  2  0  0  0
 12 13  1  0  0  0
 13 14  1  0  0  0
 13 19  2  0  0  0
 14 15  1  0  0  0
 14 16  2  0  0  0
 16 17  1  0  0  0
 17 18  2  0  0  0
 18 19  1  0  0  0
 36 38  1  0  0  0
 37 39  1  0  0  0
 31 32  1  0  0  0
 26 27  1  0  0  0
  4  8  1  0  0  0
  6  9  1  0  0  0
 15 20  1  0  0  0
 15 21  1  0  0  0
M  END
> <minimizedAffinity>
-9.89448

$$$$
5D6J_ATP_A_702


 39 41  0  0  0  0  0  0  0  0999 V2000
  -29.7692    7.7021   12.2735 C   0  0  0  0  0  0  0  0  0  0  0  0
  -28.6644    7.6972   11.3591 O   0  0  0  0  0  0  0  0  0  0  0  0
  -29.2138    8.3662   13.5275 C   0  0  0  0  0  0  0  0  0  0  0  0
  -29.9459    8.0333   14.7133 O   0  0  0  0  0  0  0  0  0  0  0  0
  -27.8090    7.8081   13.5558 C   0  0  0  0  0  0  0  0  0  0  0  0
  -27.8417    6.4881   14.0985 O   0  0  0  0  0  0  0  0  0  0  0  0
  -27.4310    7.6915   12.0894 C   0  0  0  0  0  0  0  0  0  0  0  0
  -29.9551    7.0702   14.8281 H   0  0  0  0  0  0  0  0  0  0  0  0
  -28.4489    5.9394   13.5778 H   0  0  0  0  0  0  0  0  0  0  0  0
  -26.6399    8.9029   11.7991 N   0  0  0  0  0  0  0  0  0  0  0  0
  -25.7745    9.5093   12.6389 C   0  0  0  0  0  0  0  0  0  0  0  0
  -25.1968   10.5819   12.0435 N   0  0  0  0  0  0  0  0  0  0  0  0
  -25.6909   10.6665   10.7915 C   0  0  0  0  0  0  0  0  0  0  0  0
  -25.4990   11.5539    9.6233 C   0  0  0  0  0  0  0  0  0  0  0  0
  -24.6488   12.6073    9.6721 N   0  0  0  0  0  0  0  0  0  0  0  0
  -26.2095   11.2814    8.5094 N   0  0  0  0  0  0  0  0  0  0  0  0
  -27.0548   10.2352    8.4321 C   0  0  0  0  0  0  0  0  0  0  0  0
  -27.2744    9.3850    9.4453 N   0  0  0  0  0  0  0  0  0  0  0  0
  -26.6356    9.5497   10.6316 C   0  0  0  0  0  0  0  0  0  0  0  0
  -24.1386   12.7905   10.4939 H   0  0  0  0  0  0  0  0  0  0  0  0
  -24.5411   13.1898    8.8857 H   0  0  0  0  0  0  0  0  0  0  0  0
  -30.9776    8.4129   11.6609 C   0  0  0  0  0  0  0  0  0  0  0  0
  -32.0097    7.4396   11.5303 O   0  0  0  0  0  0  0  0  0  0  0  0
  -32.9728    7.0354   12.7480 P   0  0  0  0  0  0  0  0  0  0  0  0
  -34.3766    6.9990   12.2023 O   0  0  0  0  0  0  0  0  0  0  0  0
  -32.6680    7.8980   13.9504 O   0  0  0  0  0  0  0  0  0  0  0  0
  -33.2528    7.6495   14.6832 H   0  0  0  0  0  0  0  0  0  0  0  0
  -32.5338    5.5225   13.1334 O   0  0  0  0  0  0  0  0  0  0  0  0
  -33.3352    4.1566   12.7851 P   0  0  0  0  0  0  0  0  0  0  0  0
  -32.4900    3.0035   13.2591 O   0  0  0  0  0  0  0  0  0  0  0  0
  -34.7737    4.2628   13.2183 O   0  0  0  0  0  0  0  0  0  0  0  0
  -35.2379    3.4387   13.0029 H   0  0  0  0  0  0  0  0  0  0  0  0
  -33.2690    4.2269   11.1652 O   0  0  0  0  0  0  0  0  0  0  0  0
  -34.4841    3.8513   10.1590 P   0  0  0  0  0  0  0  0  0  0  0  0
  -35.7110    4.5525   10.6947 O   0  0  0  0  0  0  0  0  0  0  0  0
  -34.5151    2.3407   10.2049 O   0  0  0  0  0  0  0  0  0  0  0  0
  -34.0723    4.4117    8.8168 O   0  0  0  0  0  0  0  0  0  0  0  0
  -35.2210    2.0140    9.6254 H   0  0  0  0  0  0  0  0  0  0  0  0
  -34.7614    4.2206    8.1614 H   0  0  0  0  0  0  0  0  0  0  0  0
 34 35  2  0  0  0
 34 36  1  0  0  0
 34 37  1  0  0  0
 34 33  1  0  0  0
 29 30  2  0  0  0
 29 31  1  0  0  0
 29 33  1  0  0  0
 29 28  1  0  0  0
 24 25  2  0  0  0
 24 26  1  0  0  0
 24 28  1  0  0  0
 24 23  1  0  0  0
 23 22  1  0  0  0
 22  1  1  0  0  0
  1  2  1  0  0  0
  1  3  1  0  0  0
  2  7  1  0  0  0
  3  4  1  0  0  0
  3  5  1  0  0  0
  5  6  1  0  0  0
  5  7  1  0  0  0
  7 10  1  0  0  0
 10 11  1  0  0  0
 10 19  1  0  0  0
 11 12  2  0  0  0
 12 13  1  0  0  0
 13 14  1  0  0  0
 13 19  2  0  0  0
 14 15  1  0  0  0
 14 16  2  0  0  0
 16 17  1  0  0  0
 17 18  2  0  0  0
 18 19  1  0  0  0
 36 38  1  0  0  0
 37 39  1  0  0  0
 31 32  1  0  0  0
 26 27  1  0  0  0
  4  8  1  0  0  0
  6  9  1  0  0  0
 15 20  1  0  0  0
 15 21  1  0  0  0
M  END
> <minimizedAffinity>
-9.85370

$$$$
5D6J_ATP_A_702


 39 41  0  0  0  0  0  0  0  0999 V2000
  -32.7802    6.2435   11.5490 C   0  0  0  0  0  0  0  0  0  0  0  0
  -32.2926    7.5831   11.3928 O   0  0  0  0  0  0  0  0  0  0  0  0
  -31.5502    5.3703   11.3340 C   0  0  0  0  0  0  0  0  0  0  0  0
  -31.8715    4.0296   10.9434 O   0  0  0  0  0  0  0  0  0  0  0  0
  -30.8447    6.1261   10.2309 C   0  0  0  0  0  0  0  0  0  0  0  0
  -31.4603    5.8120    8.9817 O   0  0  0  0  0  0  0  0  0  0  0  0
  -31.1439    7.5837   10.5355 C   0  0  0  0  0  0  0  0  0  0  0  0
  -32.4070    4.0480   10.1348 H   0  0  0  0  0  0  0  0  0  0  0  0
  -32.4070    6.0184    9.0269 H   0  0  0  0  0  0  0  0  0  0  0  0
  -29.9519    8.0793   11.2503 N   0  0  0  0  0  0  0  0  0  0  0  0
  -29.7450    8.0306   12.5833 C   0  0  0  0  0  0  0  0  0  0  0  0
  -28.5328    8.5482   12.9019 N   0  0  0  0  0  0  0  0  0  0  0  0
  -27.9399    8.9312   11.7528 C   0  0  0  0  0  0  0  0  0  0  0  0
  -26.6485    9.5414   11.3668 C   0  0  0  0  0  0  0  0  0  0  0  0
  -25.7200    9.8704   12.2966 N   0  0  0  0  0  0  0  0  0  0  0  0
  -26.4327    9.7675   10.0546 N   0  0  0  0  0  0  0  0  0  0  0  0
  -27.3358    9.4417    9.1093 C   0  0  0  0  0  0  0  0  0  0  0  0
  -28.5224    8.8802    9.3820 N   0  0  0  0  0  0  0  0  0  0  0  0
  -28.8766    8.6101   10.6643 C   0  0  0  0  0  0  0  0  0  0  0  0
  -25.8953    9.6977   13.2499 H   0  0  0  0  0  0  0  0  0  0  0  0
  -24.8699   10.2821   12.0192 H   0  0  0  0  0  0  0  0  0  0  0  0
  -33.4540    6.0665   12.9113 C   0  0  0  0  0  0  0  0  0  0  0  0
  -34.1886    4.8472   12.8560 O   0  0  0  0  0  0  0  0  0  0  0  0
  -33.8770    3.6081   13.8263 P   0  0  0  0  0  0  0  0  0  0  0  0
  -32.4309    3.2411   13.6167 O   0  0  0  0  0  0  0  0  0  0  0  0
  -34.9412    2.5483   13.6617 O   0  0  0  0  0  0  0  0  0  0  0  0
  -34.7479    1.8019   14.2503 H   0  0  0  0  0  0  0  0  0  0  0  0
  -34.0412    4.2084   15.3238 O   0  0  0  0  0  0  0  0  0  0  0  0
  -35.3922    4.2356   16.2202 P   0  0  0  0  0  0  0  0  0  0  0  0
  -36.5578    4.3745   15.2765 O   0  0  0  0  0  0  0  0  0  0  0  0
  -35.3750    3.1235   17.2358 O   0  0  0  0  0  0  0  0  0  0  0  0
  -36.1888    3.1542   17.7626 H   0  0  0  0  0  0  0  0  0  0  0  0
  -35.1632    5.6480   16.9856 O   0  0  0  0  0  0  0  0  0  0  0  0
  -36.3396    6.6439   17.4898 P   0  0  0  0  0  0  0  0  0  0  0  0
  -35.6646    7.7136   18.3169 O   0  0  0  0  0  0  0  0  0  0  0  0
  -37.2738    5.7219   18.2396 O   0  0  0  0  0  0  0  0  0  0  0  0
  -36.9367    7.2205   16.2265 O   0  0  0  0  0  0  0  0  0  0  0  0
  -38.0227    6.2321   18.5858 H   0  0  0  0  0  0  0  0  0  0  0  0
  -37.6540    7.8313   16.4574 H   0  0  0  0  0  0  0  0  0  0  0  0
 34 35  2  0  0  0
 34 36  1  0  0  0
 34 37  1  0  0  0
 34 33  1  0  0  0
 29 30  2  0  0  0
 29 31  1  0  0  0
 29 33  1  0  0  0
 29 28  1  0  0  0
 24 25  2  0  0  0
 24 26  1  0  0  0
 24 28  1  0  0  0
 24 23  1  0  0  0
 23 22  1  0  0  0
 22  1  1  0  0  0
  1  2  1  0  0  0
  1  3  1  0  0  0
  2  7  1  0  0  0
  3  4  1  0  0  0
  3  5  1  0  0  0
  5  6  1  0  0  0
  5  7  1  0  0  0
  7 10  1  0  0  0
 10 11  1  0  0  0
 10 19  1  0  0  0
 11 12  2  0  0  0
 12 13  1  0  0  0
 13 14  1  0  0  0
 13 19  2  0  0  0
 14 15  1  0  0  0
 14 16  2  0  0  0
 16 17  1  0  0  0
 17 18  2  0  0  0
 18 19  1  0  0  0
 36 38  1  0  0  0
 37 39  1  0  0  0
 31 32  1  0  0  0
 26 27  1  0  0  0
  4  8  1  0  0  0
  6  9  1  0  0  0
 15 20  1  0  0  0
 15 21  1  0  0  0
M  END
> <minimizedAffinity>
-9.57873

$$$$
