2BAJ_1PP_A_401


 29 31  0  0  0  0  0  0  0  0999 V2000
   11.4014    0.0483   30.1444 C   0  0  0  0  0  0  0  0  0  0  0  0
   11.2384    0.6516   28.8911 C   0  0  0  0  0  0  0  0  0  0  0  0
   10.2623    1.6207   29.1677 C   0  0  0  0  0  0  0  0  0  0  0  0
    9.7987    1.6340   30.4265 N   0  0  0  0  0  0  0  0  0  0  0  0
   10.5401    0.6006   31.0296 N   0  0  0  0  0  0  0  0  0  0  0  0
   13.7886   -0.6529   29.0161 O   0  0  0  0  0  0  0  0  0  0  0  0
   13.3264   -1.3105   29.9385 C   0  0  0  0  0  0  0  0  0  0  0  0
   13.9636   -2.3834   30.4150 N   0  0  0  0  0  0  0  0  0  0  0  0
   12.1680   -0.9902   30.5204 N   0  0  0  0  0  0  0  0  0  0  0  0
   13.5537   -2.8709   31.1656 H   0  0  0  0  0  0  0  0  0  0  0  0
   11.8567   -1.5479   31.2696 H   0  0  0  0  0  0  0  0  0  0  0  0
   15.1431   -2.8400   29.9242 C   0  0  0  0  0  0  0  0  0  0  0  0
   15.2253   -4.1744   29.6374 C   0  0  0  0  0  0  0  0  0  0  0  0
   13.8287   -5.2303   29.8907 Cl  0  0  0  0  0  0  0  0  0  0  0  0
   16.4663   -4.7686   29.0806 C   0  0  0  0  0  0  0  0  0  0  0  0
   16.4774   -6.5321   28.7713 Cl  0  0  0  0  0  0  0  0  0  0  0  0
   17.5739   -3.9465   28.8669 C   0  0  0  0  0  0  0  0  0  0  0  0
   17.4492   -2.5778   29.1793 C   0  0  0  0  0  0  0  0  0  0  0  0
   16.2601   -2.0305   29.6845 C   0  0  0  0  0  0  0  0  0  0  0  0
   10.3746    0.3603   32.3806 C   0  0  0  0  0  0  0  0  0  0  0  0
   11.4258    0.1521   33.2746 C   0  0  0  0  0  0  0  0  0  0  0  0
    9.1163    0.3219   33.0147 C   0  0  0  0  0  0  0  0  0  0  0  0
    8.9017    0.1070   34.4168 C   0  0  0  0  0  0  0  0  0  0  0  0
    9.9991   -0.0666   35.2807 C   0  0  0  0  0  0  0  0  0  0  0  0
   11.2787   -0.0042   34.6867 C   0  0  0  0  0  0  0  0  0  0  0  0
    9.6954    2.5760   28.1367 C   0  0  0  0  0  0  0  0  0  0  0  0
    9.0274    1.7048   27.0726 C   0  0  0  0  0  0  0  0  0  0  0  0
   10.8221    3.4421   27.5739 C   0  0  0  0  0  0  0  0  0  0  0  0
    8.6558    3.4754   28.8051 C   0  0  0  0  0  0  0  0  0  0  0  0
  6  7  2  0  0  0
  7  8  1  0  0  0
  7  9  1  0  0  0
  8 12  1  0  0  0
 12 13  2  0  0  0
 12 19  1  0  0  0
 13 14  1  0  0  0
 13 15  1  0  0  0
 15 16  1  0  0  0
 15 17  2  0  0  0
 17 18  1  0  0  0
 18 19  2  0  0  0
  9  1  1  0  0  0
  1  2  2  0  0  0
  1  5  1  0  0  0
  2  3  1  0  0  0
  3 26  1  0  0  0
  3  4  2  0  0  0
 26 27  1  0  0  0
 26 28  1  0  0  0
 26 29  1  0  0  0
  4  5  1  0  0  0
  5 20  1  0  0  0
 20 21  1  0  0  0
 20 22  2  0  0  0
 21 25  2  0  0  0
 22 23  1  0  0  0
 23 24  2  0  0  0
 24 25  1  0  0  0
  8 10  1  0  0  0
  9 11  1  0  0  0
M  END
> <minimizedAffinity>
-11.99428

$$$$
2BAJ_1PP_A_401


 29 31  0  0  0  0  0  0  0  0999 V2000
   11.5324    0.1753   30.2387 C   0  0  0  0  0  0  0  0  0  0  0  0
   11.3780    0.6891   28.9452 C   0  0  0  0  0  0  0  0  0  0  0  0
   10.2516    1.5113   29.0993 C   0  0  0  0  0  0  0  0  0  0  0  0
    9.6968    1.5118   30.3207 N   0  0  0  0  0  0  0  0  0  0  0  0
   10.5344    0.6309   31.0304 N   0  0  0  0  0  0  0  0  0  0  0  0
   12.7905   -1.7656   28.7848 O   0  0  0  0  0  0  0  0  0  0  0  0
   13.0019   -1.6608   29.9853 C   0  0  0  0  0  0  0  0  0  0  0  0
   13.8407   -2.4854   30.6180 N   0  0  0  0  0  0  0  0  0  0  0  0
   12.4129   -0.7173   30.7242 N   0  0  0  0  0  0  0  0  0  0  0  0
   13.9838   -2.3509   31.5827 H   0  0  0  0  0  0  0  0  0  0  0  0
   12.6368   -0.6726   31.6819 H   0  0  0  0  0  0  0  0  0  0  0  0
   14.5068   -3.4977   30.0080 C   0  0  0  0  0  0  0  0  0  0  0  0
   15.7453   -3.2147   29.5023 C   0  0  0  0  0  0  0  0  0  0  0  0
   16.4286   -1.5915   29.6686 Cl  0  0  0  0  0  0  0  0  0  0  0  0
   16.5613   -4.2577   28.8318 C   0  0  0  0  0  0  0  0  0  0  0  0
   18.1556   -3.7724   28.1772 Cl  0  0  0  0  0  0  0  0  0  0  0  0
   16.0393   -5.5456   28.7009 C   0  0  0  0  0  0  0  0  0  0  0  0
   14.7578   -5.7948   29.2320 C   0  0  0  0  0  0  0  0  0  0  0  0
   14.0105   -4.8009   29.8820 C   0  0  0  0  0  0  0  0  0  0  0  0
   10.3040    0.4303   32.3783 C   0  0  0  0  0  0  0  0  0  0  0  0
    9.0408    0.4591   32.9709 C   0  0  0  0  0  0  0  0  0  0  0  0
   11.3256    0.1486   33.3078 C   0  0  0  0  0  0  0  0  0  0  0  0
   11.1273   -0.0967   34.7073 C   0  0  0  0  0  0  0  0  0  0  0  0
    9.8284   -0.0868   35.2490 C   0  0  0  0  0  0  0  0  0  0  0  0
    8.7746    0.1620   34.3424 C   0  0  0  0  0  0  0  0  0  0  0  0
    9.6301    2.3220   27.9796 C   0  0  0  0  0  0  0  0  0  0  0  0
   10.7853    3.0466   27.2884 C   0  0  0  0  0  0  0  0  0  0  0  0
    8.5918    3.2800   28.5628 C   0  0  0  0  0  0  0  0  0  0  0  0
    8.9435    1.3742   26.9964 C   0  0  0  0  0  0  0  0  0  0  0  0
  6  7  2  0  0  0
  7  8  1  0  0  0
  7  9  1  0  0  0
  8 12  1  0  0  0
 12 13  2  0  0  0
 12 19  1  0  0  0
 13 14  1  0  0  0
 13 15  1  0  0  0
 15 16  1  0  0  0
 15 17  2  0  0  0
 17 18  1  0  0  0
 18 19  2  0  0  0
  9  1  1  0  0  0
  1  2  2  0  0  0
  1  5  1  0  0  0
  2  3  1  0  0  0
  3 26  1  0  0  0
  3  4  2  0  0  0
 26 27  1  0  0  0
 26 28  1  0  0  0
 26 29  1  0  0  0
  4  5  1  0  0  0
  5 20  1  0  0  0
 20 21  1  0  0  0
 20 22  2  0  0  0
 21 25  2  0  0  0
 22 23  1  0  0  0
 23 24  2  0  0  0
 24 25  1  0  0  0
  8 10  1  0  0  0
  9 11  1  0  0  0
M  END
> <minimizedAffinity>
-11.27171

$$$$
2BAJ_1PP_A_401


 29 31  0  0  0  0  0  0  0  0999 V2000
   11.2278    0.2964   30.6350 C   0  0  0  0  0  0  0  0  0  0  0  0
   11.0464   -0.0158   31.9880 C   0  0  0  0  0  0  0  0  0  0  0  0
   10.0248    0.8751   32.3501 C   0  0  0  0  0  0  0  0  0  0  0  0
    9.6098    1.7059   31.3820 N   0  0  0  0  0  0  0  0  0  0  0  0
   10.4125    1.3201   30.2920 N   0  0  0  0  0  0  0  0  0  0  0  0
   12.4703   -2.1327   30.7744 O   0  0  0  0  0  0  0  0  0  0  0  0
   12.7043   -1.3736   29.8439 C   0  0  0  0  0  0  0  0  0  0  0  0
   13.5687   -1.7013   28.8798 N   0  0  0  0  0  0  0  0  0  0  0  0
   12.1071   -0.1839   29.7384 N   0  0  0  0  0  0  0  0  0  0  0  0
   13.7125   -1.0590   28.1477 H   0  0  0  0  0  0  0  0  0  0  0  0
   12.3237    0.3751   28.9574 H   0  0  0  0  0  0  0  0  0  0  0  0
   14.2599   -2.8684   28.8513 C   0  0  0  0  0  0  0  0  0  0  0  0
   15.6094   -2.7999   29.0604 C   0  0  0  0  0  0  0  0  0  0  0  0
   16.3877   -1.2417   29.3697 Cl  0  0  0  0  0  0  0  0  0  0  0  0
   16.4521   -4.0219   29.0656 C   0  0  0  0  0  0  0  0  0  0  0  0
   18.2129   -3.8164   29.3171 Cl  0  0  0  0  0  0  0  0  0  0  0  0
   15.8510   -5.2598   28.8317 C   0  0  0  0  0  0  0  0  0  0  0  0
   14.4584   -5.2865   28.6166 C   0  0  0  0  0  0  0  0  0  0  0  0
   13.6752   -4.1225   28.6372 C   0  0  0  0  0  0  0  0  0  0  0  0
   10.2137    1.9292   29.0673 C   0  0  0  0  0  0  0  0  0  0  0  0
    9.1928    1.5890   28.1787 C   0  0  0  0  0  0  0  0  0  0  0  0
   11.0127    2.9863   28.5863 C   0  0  0  0  0  0  0  0  0  0  0  0
   10.8224    3.6662   27.3375 C   0  0  0  0  0  0  0  0  0  0  0  0
    9.7573    3.3045   26.4916 C   0  0  0  0  0  0  0  0  0  0  0  0
    8.9158    2.2688   26.9534 C   0  0  0  0  0  0  0  0  0  0  0  0
    9.4333    0.9713   33.7422 C   0  0  0  0  0  0  0  0  0  0  0  0
    7.9521    0.6202   33.5993 C   0  0  0  0  0  0  0  0  0  0  0  0
    9.6598    2.3786   34.2936 C   0  0  0  0  0  0  0  0  0  0  0  0
   10.1262   -0.0429   34.6521 C   0  0  0  0  0  0  0  0  0  0  0  0
  6  7  2  0  0  0
  7  8  1  0  0  0
  7  9  1  0  0  0
  8 12  1  0  0  0
 12 13  2  0  0  0
 12 19  1  0  0  0
 13 14  1  0  0  0
 13 15  1  0  0  0
 15 16  1  0  0  0
 15 17  2  0  0  0
 17 18  1  0  0  0
 18 19  2  0  0  0
  9  1  1  0  0  0
  1  2  2  0  0  0
  1  5  1  0  0  0
  2  3  1  0  0  0
  3 26  1  0  0  0
  3  4  2  0  0  0
 26 27  1  0  0  0
 26 28  1  0  0  0
 26 29  1  0  0  0
  4  5  1  0  0  0
  5 20  1  0  0  0
 20 21  1  0  0  0
 20 22  2  0  0  0
 21 25  2  0  0  0
 22 23  1  0  0  0
 23 24  2  0  0  0
 24 25  1  0  0  0
  8 10  1  0  0  0
  9 11  1  0  0  0
M  END
> <minimizedAffinity>
-10.33094

$$$$
2BAJ_1PP_A_401


 29 31  0  0  0  0  0  0  0  0999 V2000
   11.2020    0.1187   30.5956 C   0  0  0  0  0  0  0  0  0  0  0  0
   11.0244   -0.2262   31.9412 C   0  0  0  0  0  0  0  0  0  0  0  0
   10.0521    0.7009   32.3455 C   0  0  0  0  0  0  0  0  0  0  0  0
    9.6642    1.5801   31.4094 N   0  0  0  0  0  0  0  0  0  0  0  0
   10.4323    1.1903   30.2961 N   0  0  0  0  0  0  0  0  0  0  0  0
   13.4232   -1.3846   31.1150 O   0  0  0  0  0  0  0  0  0  0  0  0
   13.1287   -1.0985   29.9625 C   0  0  0  0  0  0  0  0  0  0  0  0
   13.8775   -1.5024   28.9329 N   0  0  0  0  0  0  0  0  0  0  0  0
   12.0447   -0.3751   29.6716 N   0  0  0  0  0  0  0  0  0  0  0  0
   13.5900   -1.2543   28.0247 H   0  0  0  0  0  0  0  0  0  0  0  0
   11.8509   -0.1923   28.7238 H   0  0  0  0  0  0  0  0  0  0  0  0
   15.0116   -2.2350   29.0666 C   0  0  0  0  0  0  0  0  0  0  0  0
   14.9006   -3.5899   28.9197 C   0  0  0  0  0  0  0  0  0  0  0  0
   13.3330   -4.3234   28.5539 Cl  0  0  0  0  0  0  0  0  0  0  0  0
   16.0853   -4.4773   29.0304 C   0  0  0  0  0  0  0  0  0  0  0  0
   15.8233   -6.2396   28.8529 Cl  0  0  0  0  0  0  0  0  0  0  0  0
   17.3307   -3.9124   29.3100 C   0  0  0  0  0  0  0  0  0  0  0  0
   17.4015   -2.5126   29.4582 C   0  0  0  0  0  0  0  0  0  0  0  0
   16.2737   -1.6880   29.3282 C   0  0  0  0  0  0  0  0  0  0  0  0
   10.2463    1.8457   29.0936 C   0  0  0  0  0  0  0  0  0  0  0  0
   11.0284    2.9146   28.6538 C   0  0  0  0  0  0  0  0  0  0  0  0
    9.2525    1.4890   28.1597 C   0  0  0  0  0  0  0  0  0  0  0  0
    9.0453    2.1212   26.8887 C   0  0  0  0  0  0  0  0  0  0  0  0
    9.8830    3.1755   26.4794 C   0  0  0  0  0  0  0  0  0  0  0  0
   10.9107    3.5418   27.3760 C   0  0  0  0  0  0  0  0  0  0  0  0
    9.4851    0.7821   33.7488 C   0  0  0  0  0  0  0  0  0  0  0  0
   10.3234   -0.1708   34.6012 C   0  0  0  0  0  0  0  0  0  0  0  0
    8.0038    0.4065   33.7200 C   0  0  0  0  0  0  0  0  0  0  0  0
    9.6310    2.2130   34.2661 C   0  0  0  0  0  0  0  0  0  0  0  0
  6  7  2  0  0  0
  7  8  1  0  0  0
  7  9  1  0  0  0
  8 12  1  0  0  0
 12 13  2  0  0  0
 12 19  1  0  0  0
 13 14  1  0  0  0
 13 15  1  0  0  0
 15 16  1  0  0  0
 15 17  2  0  0  0
 17 18  1  0  0  0
 18 19  2  0  0  0
  9  1  1  0  0  0
  1  2  2  0  0  0
  1  5  1  0  0  0
  2  3  1  0  0  0
  3 26  1  0  0  0
  3  4  2  0  0  0
 26 27  1  0  0  0
 26 28  1  0  0  0
 26 29  1  0  0  0
  4  5  1  0  0  0
  5 20  1  0  0  0
 20 21  1  0  0  0
 20 22  2  0  0  0
 21 25  2  0  0  0
 22 23  1  0  0  0
 23 24  2  0  0  0
 24 25  1  0  0  0
  8 10  1  0  0  0
  9 11  1  0  0  0
M  END
> <minimizedAffinity>
-9.94741

$$$$
2BAJ_1PP_A_401


 29 31  0  0  0  0  0  0  0  0999 V2000
   11.1688   -0.3475   30.6632 C   0  0  0  0  0  0  0  0  0  0  0  0
   12.1549   -1.3140   30.8967 C   0  0  0  0  0  0  0  0  0  0  0  0
   12.9262   -1.2202   29.7285 C   0  0  0  0  0  0  0  0  0  0  0  0
   12.4885   -0.3420   28.8136 N   0  0  0  0  0  0  0  0  0  0  0  0
   11.3465    0.1952   29.4366 N   0  0  0  0  0  0  0  0  0  0  0  0
   11.2359    0.4654   33.2705 O   0  0  0  0  0  0  0  0  0  0  0  0
   10.1690    0.3883   32.6765 C   0  0  0  0  0  0  0  0  0  0  0  0
    9.0153    0.6903   33.2778 N   0  0  0  0  0  0  0  0  0  0  0  0
   10.1004    0.0053   31.3991 N   0  0  0  0  0  0  0  0  0  0  0  0
    8.1861    0.6222   32.7513 H   0  0  0  0  0  0  0  0  0  0  0  0
    9.2144   -0.0203   30.9707 H   0  0  0  0  0  0  0  0  0  0  0  0
    8.9200    1.0857   34.5721 C   0  0  0  0  0  0  0  0  0  0  0  0
    8.8572    2.4305   34.8111 C   0  0  0  0  0  0  0  0  0  0  0  0
    8.8837    3.5792   33.4660 Cl  0  0  0  0  0  0  0  0  0  0  0  0
    8.7345    2.9637   36.1910 C   0  0  0  0  0  0  0  0  0  0  0  0
    8.6924    4.7421   36.3942 Cl  0  0  0  0  0  0  0  0  0  0  0  0
    8.7034    2.0693   37.2621 C   0  0  0  0  0  0  0  0  0  0  0  0
    8.7747    0.6917   36.9732 C   0  0  0  0  0  0  0  0  0  0  0  0
    8.8684    0.2060   35.6602 C   0  0  0  0  0  0  0  0  0  0  0  0
   10.6528    1.2079   28.8013 C   0  0  0  0  0  0  0  0  0  0  0  0
   11.1343    2.5080   28.6418 C   0  0  0  0  0  0  0  0  0  0  0  0
    9.3815    1.0320   28.2184 C   0  0  0  0  0  0  0  0  0  0  0  0
    8.6416    2.0459   27.5236 C   0  0  0  0  0  0  0  0  0  0  0  0
    9.1869    3.3334   27.3635 C   0  0  0  0  0  0  0  0  0  0  0  0
   10.4733    3.5399   27.9081 C   0  0  0  0  0  0  0  0  0  0  0  0
   14.1488   -2.0700   29.4454 C   0  0  0  0  0  0  0  0  0  0  0  0
   15.0894   -1.1972   28.6142 C   0  0  0  0  0  0  0  0  0  0  0  0
   13.7231   -3.3450   28.7177 C   0  0  0  0  0  0  0  0  0  0  0  0
   14.8155   -2.4452   30.7687 C   0  0  0  0  0  0  0  0  0  0  0  0
  6  7  2  0  0  0
  7  8  1  0  0  0
  7  9  1  0  0  0
  8 12  1  0  0  0
 12 13  2  0  0  0
 12 19  1  0  0  0
 13 14  1  0  0  0
 13 15  1  0  0  0
 15 16  1  0  0  0
 15 17  2  0  0  0
 17 18  1  0  0  0
 18 19  2  0  0  0
  9  1  1  0  0  0
  1  2  2  0  0  0
  1  5  1  0  0  0
  2  3  1  0  0  0
  3 26  1  0  0  0
  3  4  2  0  0  0
 26 27  1  0  0  0
 26 28  1  0  0  0
 26 29  1  0  0  0
  4  5  1  0  0  0
  5 20  1  0  0  0
 20 21  1  0  0  0
 20 22  2  0  0  0
 21 25  2  0  0  0
 22 23  1  0  0  0
 23 24  2  0  0  0
 24 25  1  0  0  0
  8 10  1  0  0  0
  9 11  1  0  0  0
M  END
> <minimizedAffinity>
-9.57096

$$$$
2BAJ_1PP_A_401


 29 31  0  0  0  0  0  0  0  0999 V2000
   10.9316   -0.3813   30.5099 C   0  0  0  0  0  0  0  0  0  0  0  0
   11.9095   -1.3477   30.7758 C   0  0  0  0  0  0  0  0  0  0  0  0
   12.7776   -1.1798   29.6865 C   0  0  0  0  0  0  0  0  0  0  0  0
   12.4067   -0.2570   28.7861 N   0  0  0  0  0  0  0  0  0  0  0  0
   11.2061    0.2312   29.3351 N   0  0  0  0  0  0  0  0  0  0  0  0
   10.6628    1.5663   32.4068 O   0  0  0  0  0  0  0  0  0  0  0  0
    9.7048    0.8707   32.0980 C   0  0  0  0  0  0  0  0  0  0  0  0
    8.5116    1.0352   32.6752 N   0  0  0  0  0  0  0  0  0  0  0  0
    9.7976   -0.0826   31.1676 N   0  0  0  0  0  0  0  0  0  0  0  0
    7.7710    0.4564   32.3823 H   0  0  0  0  0  0  0  0  0  0  0  0
    8.9872   -0.5976   30.9503 H   0  0  0  0  0  0  0  0  0  0  0  0
    8.2613    1.9537   33.6417 C   0  0  0  0  0  0  0  0  0  0  0  0
    8.5278    1.5902   34.9326 C   0  0  0  0  0  0  0  0  0  0  0  0
    9.1873   -0.0116   35.2916 Cl  0  0  0  0  0  0  0  0  0  0  0  0
    8.3043    2.5293   36.0602 C   0  0  0  0  0  0  0  0  0  0  0  0
    8.6559    1.9408   37.7142 Cl  0  0  0  0  0  0  0  0  0  0  0  0
    7.7927    3.7999   35.7918 C   0  0  0  0  0  0  0  0  0  0  0  0
    7.5275    4.1338   34.4484 C   0  0  0  0  0  0  0  0  0  0  0  0
    7.7661    3.2397   33.3937 C   0  0  0  0  0  0  0  0  0  0  0  0
   10.5536    1.2696   28.6978 C   0  0  0  0  0  0  0  0  0  0  0  0
    9.3540    1.1305   27.9984 C   0  0  0  0  0  0  0  0  0  0  0  0
   11.0194    2.6001   28.7034 C   0  0  0  0  0  0  0  0  0  0  0  0
   10.3583    3.7115   28.0823 C   0  0  0  0  0  0  0  0  0  0  0  0
    9.1334    3.5220   27.4156 C   0  0  0  0  0  0  0  0  0  0  0  0
    8.6189    2.2069   27.4144 C   0  0  0  0  0  0  0  0  0  0  0  0
   14.0341   -1.9982   29.4656 C   0  0  0  0  0  0  0  0  0  0  0  0
   14.5530   -2.3633   30.8566 C   0  0  0  0  0  0  0  0  0  0  0  0
   15.0368   -1.1790   28.6535 C   0  0  0  0  0  0  0  0  0  0  0  0
   13.6762   -3.2663   28.6909 C   0  0  0  0  0  0  0  0  0  0  0  0
  6  7  2  0  0  0
  7  8  1  0  0  0
  7  9  1  0  0  0
  8 12  1  0  0  0
 12 13  2  0  0  0
 12 19  1  0  0  0
 13 14  1  0  0  0
 13 15  1  0  0  0
 15 16  1  0  0  0
 15 17  2  0  0  0
 17 18  1  0  0  0
 18 19  2  0  0  0
  9  1  1  0  0  0
  1  2  2  0  0  0
  1  5  1  0  0  0
  2  3  1  0  0  0
  3 26  1  0  0  0
  3  4  2  0  0  0
 26 27  1  0  0  0
 26 28  1  0  0  0
 26 29  1  0  0  0
  4  5  1  0  0  0
  5 20  1  0  0  0
 20 21  1  0  0  0
 20 22  2  0  0  0
 21 25  2  0  0  0
 22 23  1  0  0  0
 23 24  2  0  0  0
 24 25  1  0  0  0
  8 10  1  0  0  0
  9 11  1  0  0  0
M  END
> <minimizedAffinity>
-9.30447

$$$$
2BAJ_1PP_A_401


 29 31  0  0  0  0  0  0  0  0999 V2000
    9.5530    4.5000   35.5029 C   0  0  0  0  0  0  0  0  0  0  0  0
    8.9241    5.4927   36.2646 C   0  0  0  0  0  0  0  0  0  0  0  0
    8.5829    4.7848   37.4268 C   0  0  0  0  0  0  0  0  0  0  0  0
    8.8982    3.4809   37.4253 N   0  0  0  0  0  0  0  0  0  0  0  0
    9.5092    3.3221   36.1672 N   0  0  0  0  0  0  0  0  0  0  0  0
    8.1921    3.8971   33.2120 O   0  0  0  0  0  0  0  0  0  0  0  0
    9.3677    4.2323   33.1601 C   0  0  0  0  0  0  0  0  0  0  0  0
   10.0181    4.3083   31.9961 N   0  0  0  0  0  0  0  0  0  0  0  0
   10.0600    4.5443   34.2585 N   0  0  0  0  0  0  0  0  0  0  0  0
   10.9602    4.5939   32.0089 H   0  0  0  0  0  0  0  0  0  0  0  0
   10.9979    4.8236   34.1506 H   0  0  0  0  0  0  0  0  0  0  0  0
    9.4555    4.0148   30.7969 C   0  0  0  0  0  0  0  0  0  0  0  0
    9.4010    2.6963   30.4389 C   0  0  0  0  0  0  0  0  0  0  0  0
   10.0307    1.4491   31.5241 Cl  0  0  0  0  0  0  0  0  0  0  0  0
    8.7898    2.2703   29.1551 C   0  0  0  0  0  0  0  0  0  0  0  0
    8.7993    0.5218   28.7696 Cl  0  0  0  0  0  0  0  0  0  0  0  0
    8.2806    3.2421   28.2922 C   0  0  0  0  0  0  0  0  0  0  0  0
    8.3600    4.5899   28.6967 C   0  0  0  0  0  0  0  0  0  0  0  0
    8.9220    4.9712   29.9245 C   0  0  0  0  0  0  0  0  0  0  0  0
   10.0363    2.0895   35.8312 C   0  0  0  0  0  0  0  0  0  0  0  0
    9.3409    0.8841   35.9361 C   0  0  0  0  0  0  0  0  0  0  0  0
   11.3378    1.9144   35.3188 C   0  0  0  0  0  0  0  0  0  0  0  0
   11.9123    0.6590   34.9287 C   0  0  0  0  0  0  0  0  0  0  0  0
   11.1562   -0.5241   35.0255 C   0  0  0  0  0  0  0  0  0  0  0  0
    9.8358   -0.3850   35.5065 C   0  0  0  0  0  0  0  0  0  0  0  0
    7.8567    5.3918   38.6106 C   0  0  0  0  0  0  0  0  0  0  0  0
    8.9145    6.1463   39.4163 C   0  0  0  0  0  0  0  0  0  0  0  0
    7.1784    4.2819   39.4132 C   0  0  0  0  0  0  0  0  0  0  0  0
    6.7940    6.3652   38.1010 C   0  0  0  0  0  0  0  0  0  0  0  0
  6  7  2  0  0  0
  7  8  1  0  0  0
  7  9  1  0  0  0
  8 12  1  0  0  0
 12 13  2  0  0  0
 12 19  1  0  0  0
 13 14  1  0  0  0
 13 15  1  0  0  0
 15 16  1  0  0  0
 15 17  2  0  0  0
 17 18  1  0  0  0
 18 19  2  0  0  0
  9  1  1  0  0  0
  1  2  2  0  0  0
  1  5  1  0  0  0
  2  3  1  0  0  0
  3 26  1  0  0  0
  3  4  2  0  0  0
 26 27  1  0  0  0
 26 28  1  0  0  0
 26 29  1  0  0  0
  4  5  1  0  0  0
  5 20  1  0  0  0
 20 21  1  0  0  0
 20 22  2  0  0  0
 21 25  2  0  0  0
 22 23  1  0  0  0
 23 24  2  0  0  0
 24 25  1  0  0  0
  8 10  1  0  0  0
  9 11  1  0  0  0
M  END
> <minimizedAffinity>
-9.06974

$$$$
