4IBD_1DL_A_401


 33 36  0  0  0  0  0  0  0  0999 V2000
    1.7221   20.3163   -0.1140 N   0  0  0  0  0  0  0  0  0  0  0  0
    2.5326   21.1247    0.5731 C   0  0  0  0  0  0  0  0  0  0  0  0
    2.2357   19.0860   -0.1688 C   0  0  0  0  0  0  0  0  0  0  0  0
    1.6336   18.0248   -0.7741 O   0  0  0  0  0  0  0  0  0  0  0  0
    3.4693   19.0998    0.4799 C   0  0  0  0  0  0  0  0  0  0  0  0
    4.3213   18.0335    0.6230 O   0  0  0  0  0  0  0  0  0  0  0  0
    3.6702   20.4052    0.9284 C   0  0  0  0  0  0  0  0  0  0  0  0
    4.0835   17.1945    0.2802 H   0  0  0  0  0  0  0  0  0  0  0  0
   -1.9068   20.6302   -0.9501 C   0  0  0  0  0  0  0  0  0  0  0  0
   -0.7215   20.2410   -0.3405 C   0  0  0  0  0  0  0  0  0  0  0  0
   -1.8508   21.5501   -2.0074 C   0  0  0  0  0  0  0  0  0  0  0  0
   -3.0551   22.0563   -2.7432 C   0  0  0  0  0  0  0  0  0  0  0  0
   -0.6220   22.0400   -2.4201 C   0  0  0  0  0  0  0  0  0  0  0  0
    0.5550   21.6379   -1.8102 C   0  0  0  0  0  0  0  0  0  0  0  0
    0.5087   20.7331   -0.7603 C   0  0  0  0  0  0  0  0  0  0  0  0
   -3.6581   19.0239   -0.9842 O   0  0  0  0  0  0  0  0  0  0  0  0
   -3.1614   20.0176   -0.3960 C   0  0  0  0  0  0  0  0  0  0  0  0
   -3.7559   20.4376    0.6236 O   0  0  0  0  0  0  0  0  0  0  0  0
   -3.2446   18.6782   -1.7507 H   0  0  0  0  0  0  0  0  0  0  0  0
    1.8979   21.8195    1.7067 C   0  0  0  0  0  0  0  0  0  0  0  0
    1.2827   20.9674    3.0165 S   0  0  0  0  0  0  0  0  0  0  0  0
    0.7151   22.2587    3.9290 C   0  0  0  0  0  0  0  0  0  0  0  0
    1.0186   23.3915    3.1687 C   0  0  0  0  0  0  0  0  0  0  0  0
    0.5728   25.1531    3.7847 Br  0  0  0  0  0  0  0  0  0  0  0  0
    1.6837   23.1804    1.9261 C   0  0  0  0  0  0  0  0  0  0  0  0
    4.8262   21.0429    1.6275 C   0  0  0  0  0  0  0  0  0  0  0  0
    5.2624   22.0790    1.1334 O   0  0  0  0  0  0  0  0  0  0  0  0
    5.4601   20.5077    2.8703 C   0  0  0  0  0  0  0  0  0  0  0  0
    6.7560   20.8979    3.1713 C   0  0  0  0  0  0  0  0  0  0  0  0
    7.3795   20.4286    4.3229 C   0  0  0  0  0  0  0  0  0  0  0  0
    6.7046   19.5641    5.1760 C   0  0  0  0  0  0  0  0  0  0  0  0
    5.4014   19.1757    4.8835 C   0  0  0  0  0  0  0  0  0  0  0  0
    4.7771   19.6468    3.7307 C   0  0  0  0  0  0  0  0  0  0  0  0
 12 11  1  0  0  0
 13 11  2  0  0  0
 13 14  1  0  0  0
 11  9  1  0  0  0
 14 15  2  0  0  0
 18 17  2  0  0  0
  9 17  1  0  0  0
  9 10  2  0  0  0
 17 16  1  0  0  0
 15 10  1  0  0  0
 15  1  1  0  0  0
  1  3  1  0  0  0
  1  2  1  0  0  0
  4  3  2  0  0  0
  3  5  1  0  0  0
  2  7  1  0  0  0
  2 20  1  0  0  0
  5  7  2  0  0  0
  5  6  1  0  0  0
  7 26  1  0  0  0
 25 20  2  0  0  0
 25 23  1  0  0  0
 20 21  1  0  0  0
 27 26  2  0  0  0
 26 28  1  0  0  0
 23 24  1  0  0  0
 23 22  2  0  0  0
 28 29  2  0  0  0
 28 33  1  0  0  0
 29 30  1  0  0  0
 21 22  1  0  0  0
 33 32  2  0  0  0
 30 31  2  0  0  0
 32 31  1  0  0  0
 16 19  1  0  0  0
  6  8  1  0  0  0
M  END
> <minimizedAffinity>
-7.18776

$$$$
4IBD_1DL_A_401


 33 36  0  0  0  0  0  0  0  0999 V2000
    5.1457   19.5499    0.7697 N   0  0  0  0  0  0  0  0  0  0  0  0
    6.4697   19.6110    0.9299 C   0  0  0  0  0  0  0  0  0  0  0  0
    4.8365   18.6674   -0.1821 C   0  0  0  0  0  0  0  0  0  0  0  0
    3.5661   18.3546   -0.5610 O   0  0  0  0  0  0  0  0  0  0  0  0
    6.0234   18.1549   -0.7032 C   0  0  0  0  0  0  0  0  0  0  0  0
    6.1330   17.2339   -1.7146 O   0  0  0  0  0  0  0  0  0  0  0  0
    7.0638   18.7767   -0.0130 C   0  0  0  0  0  0  0  0  0  0  0  0
    5.3616   16.8784   -2.1103 H   0  0  0  0  0  0  0  0  0  0  0  0
    3.0276   22.4799    1.7156 C   0  0  0  0  0  0  0  0  0  0  0  0
    3.9386   21.6691    1.0517 C   0  0  0  0  0  0  0  0  0  0  0  0
    2.3522   21.9626    2.8307 C   0  0  0  0  0  0  0  0  0  0  0  0
    1.3409   22.7296    3.6289 C   0  0  0  0  0  0  0  0  0  0  0  0
    2.6132   20.6661    3.2445 C   0  0  0  0  0  0  0  0  0  0  0  0
    3.5308   19.8691    2.5796 C   0  0  0  0  0  0  0  0  0  0  0  0
    4.1991   20.3705    1.4727 C   0  0  0  0  0  0  0  0  0  0  0  0
    1.7575   24.1471    0.5950 O   0  0  0  0  0  0  0  0  0  0  0  0
    2.8469   23.8609    1.1532 C   0  0  0  0  0  0  0  0  0  0  0  0
    3.7209   24.7572    1.2000 O   0  0  0  0  0  0  0  0  0  0  0  0
    1.0772   23.5053    0.5387 H   0  0  0  0  0  0  0  0  0  0  0  0
    6.9382   19.3710    2.3059 C   0  0  0  0  0  0  0  0  0  0  0  0
    7.7555   20.5586    3.1674 S   0  0  0  0  0  0  0  0  0  0  0  0
    8.0149   19.7165    4.5977 C   0  0  0  0  0  0  0  0  0  0  0  0
    7.4420   18.4605    4.3794 C   0  0  0  0  0  0  0  0  0  0  0  0
    7.4680   17.1046    5.7367 Br  0  0  0  0  0  0  0  0  0  0  0  0
    6.8282   18.2381    3.1126 C   0  0  0  0  0  0  0  0  0  0  0  0
    8.5467   18.6851   -0.1692 C   0  0  0  0  0  0  0  0  0  0  0  0
    9.1515   18.0562    0.6949 O   0  0  0  0  0  0  0  0  0  0  0  0
    9.3155   19.2940   -1.2966 C   0  0  0  0  0  0  0  0  0  0  0  0
    9.6685   18.4868   -2.3672 C   0  0  0  0  0  0  0  0  0  0  0  0
   10.3773   19.0165   -3.4404 C   0  0  0  0  0  0  0  0  0  0  0  0
   10.7362   20.3588   -3.4421 C   0  0  0  0  0  0  0  0  0  0  0  0
   10.3777   21.1755   -2.3747 C   0  0  0  0  0  0  0  0  0  0  0  0
    9.6668   20.6447   -1.3007 C   0  0  0  0  0  0  0  0  0  0  0  0
 12 11  1  0  0  0
 13 11  2  0  0  0
 13 14  1  0  0  0
 11  9  1  0  0  0
 14 15  2  0  0  0
 18 17  2  0  0  0
  9 17  1  0  0  0
  9 10  2  0  0  0
 17 16  1  0  0  0
 15 10  1  0  0  0
 15  1  1  0  0  0
  1  3  1  0  0  0
  1  2  1  0  0  0
  4  3  2  0  0  0
  3  5  1  0  0  0
  2  7  1  0  0  0
  2 20  1  0  0  0
  5  7  2  0  0  0
  5  6  1  0  0  0
  7 26  1  0  0  0
 25 20  2  0  0  0
 25 23  1  0  0  0
 20 21  1  0  0  0
 27 26  2  0  0  0
 26 28  1  0  0  0
 23 24  1  0  0  0
 23 22  2  0  0  0
 28 29  2  0  0  0
 28 33  1  0  0  0
 29 30  1  0  0  0
 21 22  1  0  0  0
 33 32  2  0  0  0
 30 31  2  0  0  0
 32 31  1  0  0  0
 16 19  1  0  0  0
  6  8  1  0  0  0
M  END
> <minimizedAffinity>
-7.13644

$$$$
4IBD_1DL_A_401


 33 36  0  0  0  0  0  0  0  0999 V2000
    3.1022   19.7647    1.2847 N   0  0  0  0  0  0  0  0  0  0  0  0
    1.8651   20.2326    1.4667 C   0  0  0  0  0  0  0  0  0  0  0  0
    3.1732   19.0807    0.1413 C   0  0  0  0  0  0  0  0  0  0  0  0
    4.3075   18.5026   -0.3428 O   0  0  0  0  0  0  0  0  0  0  0  0
    1.9042   19.0628   -0.4350 C   0  0  0  0  0  0  0  0  0  0  0  0
    1.5563   18.4431   -1.6090 O   0  0  0  0  0  0  0  0  0  0  0  0
    1.0656   19.7735    0.4235 C   0  0  0  0  0  0  0  0  0  0  0  0
    2.2059   17.9904   -2.1102 H   0  0  0  0  0  0  0  0  0  0  0  0
    5.2250   19.3224    4.3284 C   0  0  0  0  0  0  0  0  0  0  0  0
    4.1941   19.1911    3.4076 C   0  0  0  0  0  0  0  0  0  0  0  0
    6.2770   20.2046    4.0415 C   0  0  0  0  0  0  0  0  0  0  0  0
    7.4512   20.4320    4.9458 C   0  0  0  0  0  0  0  0  0  0  0  0
    6.2592   20.9242    2.8574 C   0  0  0  0  0  0  0  0  0  0  0  0
    5.2209   20.7916    1.9499 C   0  0  0  0  0  0  0  0  0  0  0  0
    4.1795   19.9175    2.2228 C   0  0  0  0  0  0  0  0  0  0  0  0
    4.4532   18.9237    6.5406 O   0  0  0  0  0  0  0  0  0  0  0  0
    5.1107   18.4788    5.5660 C   0  0  0  0  0  0  0  0  0  0  0  0
    5.6362   17.3490    5.6956 O   0  0  0  0  0  0  0  0  0  0  0  0
    4.0441   19.7648    6.4849 H   0  0  0  0  0  0  0  0  0  0  0  0
    1.7787   21.6881    1.6775 C   0  0  0  0  0  0  0  0  0  0  0  0
    2.3918   22.7696    0.5484 S   0  0  0  0  0  0  0  0  0  0  0  0
    2.0106   24.2088    1.3268 C   0  0  0  0  0  0  0  0  0  0  0  0
    1.3867   23.8161    2.5142 C   0  0  0  0  0  0  0  0  0  0  0  0
    0.7454   25.1101    3.7774 Br  0  0  0  0  0  0  0  0  0  0  0  0
    1.2369   22.4164    2.7368 C   0  0  0  0  0  0  0  0  0  0  0  0
   -0.4038   20.0383    0.3743 C   0  0  0  0  0  0  0  0  0  0  0  0
   -1.0588   19.6802    1.3493 O   0  0  0  0  0  0  0  0  0  0  0  0
   -1.1029   20.7070   -0.7647 C   0  0  0  0  0  0  0  0  0  0  0  0
   -2.4812   20.5881   -0.8549 C   0  0  0  0  0  0  0  0  0  0  0  0
   -3.1709   21.2020   -1.8953 C   0  0  0  0  0  0  0  0  0  0  0  0
   -2.4788   21.9366   -2.8504 C   0  0  0  0  0  0  0  0  0  0  0  0
   -1.0968   22.0663   -2.7603 C   0  0  0  0  0  0  0  0  0  0  0  0
   -0.4068   21.4522   -1.7176 C   0  0  0  0  0  0  0  0  0  0  0  0
 12 11  1  0  0  0
 13 11  2  0  0  0
 13 14  1  0  0  0
 11  9  1  0  0  0
 14 15  2  0  0  0
 18 17  2  0  0  0
  9 17  1  0  0  0
  9 10  2  0  0  0
 17 16  1  0  0  0
 15 10  1  0  0  0
 15  1  1  0  0  0
  1  3  1  0  0  0
  1  2  1  0  0  0
  4  3  2  0  0  0
  3  5  1  0  0  0
  2  7  1  0  0  0
  2 20  1  0  0  0
  5  7  2  0  0  0
  5  6  1  0  0  0
  7 26  1  0  0  0
 25 20  2  0  0  0
 25 23  1  0  0  0
 20 21  1  0  0  0
 27 26  2  0  0  0
 26 28  1  0  0  0
 23 24  1  0  0  0
 23 22  2  0  0  0
 28 29  2  0  0  0
 28 33  1  0  0  0
 29 30  1  0  0  0
 21 22  1  0  0  0
 33 32  2  0  0  0
 30 31  2  0  0  0
 32 31  1  0  0  0
 16 19  1  0  0  0
  6  8  1  0  0  0
M  END
> <minimizedAffinity>
-7.11697

$$$$
4IBD_1DL_A_401


 33 36  0  0  0  0  0  0  0  0999 V2000
    1.8975   20.0708   -0.0593 N   0  0  0  0  0  0  0  0  0  0  0  0
    2.8221   20.9074    0.4179 C   0  0  0  0  0  0  0  0  0  0  0  0
    2.2413   18.8076    0.1986 C   0  0  0  0  0  0  0  0  0  0  0  0
    1.4912   17.7206   -0.1341 O   0  0  0  0  0  0  0  0  0  0  0  0
    3.4785   18.8153    0.8407 C   0  0  0  0  0  0  0  0  0  0  0  0
    4.1833   17.7129    1.2544 O   0  0  0  0  0  0  0  0  0  0  0  0
    3.8605   20.1519    0.9556 C   0  0  0  0  0  0  0  0  0  0  0  0
    3.8290   16.8550    1.1262 H   0  0  0  0  0  0  0  0  0  0  0  0
   -0.3392   20.9030   -2.9351 C   0  0  0  0  0  0  0  0  0  0  0  0
    0.7696   20.5166   -2.1940 C   0  0  0  0  0  0  0  0  0  0  0  0
   -1.5174   21.2472   -2.2564 C   0  0  0  0  0  0  0  0  0  0  0  0
   -2.7836   21.6729   -2.9371 C   0  0  0  0  0  0  0  0  0  0  0  0
   -1.5446   21.2003   -0.8717 C   0  0  0  0  0  0  0  0  0  0  0  0
   -0.4295   20.8216   -0.1421 C   0  0  0  0  0  0  0  0  0  0  0  0
    0.7379   20.4742   -0.8051 C   0  0  0  0  0  0  0  0  0  0  0  0
   -0.8106   20.0742   -5.1121 O   0  0  0  0  0  0  0  0  0  0  0  0
   -0.1628   20.9054   -4.4268 C   0  0  0  0  0  0  0  0  0  0  0  0
    0.5988   21.6872   -5.0418 O   0  0  0  0  0  0  0  0  0  0  0  0
   -1.3914   19.4713   -4.6912 H   0  0  0  0  0  0  0  0  0  0  0  0
    2.3085   21.9389    1.3359 C   0  0  0  0  0  0  0  0  0  0  0  0
    1.6401   21.5286    2.8209 S   0  0  0  0  0  0  0  0  0  0  0  0
    1.2554   23.0682    3.3721 C   0  0  0  0  0  0  0  0  0  0  0  0
    1.6642   23.9252    2.3466 C   0  0  0  0  0  0  0  0  0  0  0  0
    1.4456   25.8260    2.4907 Br  0  0  0  0  0  0  0  0  0  0  0  0
    2.2608   23.3264    1.1992 C   0  0  0  0  0  0  0  0  0  0  0  0
    5.1049   20.7813    1.4913 C   0  0  0  0  0  0  0  0  0  0  0  0
    5.5894   21.6922    0.8254 O   0  0  0  0  0  0  0  0  0  0  0  0
    5.7717   20.3795    2.7668 C   0  0  0  0  0  0  0  0  0  0  0  0
    7.1272   20.6328    2.9116 C   0  0  0  0  0  0  0  0  0  0  0  0
    7.7840   20.2817    4.0864 C   0  0  0  0  0  0  0  0  0  0  0  0
    7.0826   19.6732    5.1200 C   0  0  0  0  0  0  0  0  0  0  0  0
    5.7210   19.4241    4.9838 C   0  0  0  0  0  0  0  0  0  0  0  0
    5.0634   19.7770    3.8074 C   0  0  0  0  0  0  0  0  0  0  0  0
 12 11  1  0  0  0
 13 11  2  0  0  0
 13 14  1  0  0  0
 11  9  1  0  0  0
 14 15  2  0  0  0
 18 17  2  0  0  0
  9 17  1  0  0  0
  9 10  2  0  0  0
 17 16  1  0  0  0
 15 10  1  0  0  0
 15  1  1  0  0  0
  1  3  1  0  0  0
  1  2  1  0  0  0
  4  3  2  0  0  0
  3  5  1  0  0  0
  2  7  1  0  0  0
  2 20  1  0  0  0
  5  7  2  0  0  0
  5  6  1  0  0  0
  7 26  1  0  0  0
 25 20  2  0  0  0
 25 23  1  0  0  0
 20 21  1  0  0  0
 27 26  2  0  0  0
 26 28  1  0  0  0
 23 24  1  0  0  0
 23 22  2  0  0  0
 28 29  2  0  0  0
 28 33  1  0  0  0
 29 30  1  0  0  0
 21 22  1  0  0  0
 33 32  2  0  0  0
 30 31  2  0  0  0
 32 31  1  0  0  0
 16 19  1  0  0  0
  6  8  1  0  0  0
M  END
> <minimizedAffinity>
-7.08729

$$$$
4IBD_1DL_A_401


 33 36  0  0  0  0  0  0  0  0999 V2000
    7.3605   19.5150    1.6335 N   0  0  0  0  0  0  0  0  0  0  0  0
    6.0411   19.5994    1.4477 C   0  0  0  0  0  0  0  0  0  0  0  0
    7.6505   19.6101    2.9324 C   0  0  0  0  0  0  0  0  0  0  0  0
    8.9078   19.5309    3.4501 O   0  0  0  0  0  0  0  0  0  0  0  0
    6.4609   19.8109    3.6307 C   0  0  0  0  0  0  0  0  0  0  0  0
    6.3360   19.9772    4.9872 O   0  0  0  0  0  0  0  0  0  0  0  0
    5.4392   19.8313    2.6814 C   0  0  0  0  0  0  0  0  0  0  0  0
    7.0954   19.9445    5.5351 H   0  0  0  0  0  0  0  0  0  0  0  0
    9.6454   20.4542   -1.1706 C   0  0  0  0  0  0  0  0  0  0  0  0
    8.7111   20.5326   -0.1465 C   0  0  0  0  0  0  0  0  0  0  0  0
   10.2185   19.2088   -1.4666 C   0  0  0  0  0  0  0  0  0  0  0  0
   11.2422   18.9904   -2.5401 C   0  0  0  0  0  0  0  0  0  0  0  0
    9.8364   18.0927   -0.7395 C   0  0  0  0  0  0  0  0  0  0  0  0
    8.8967   18.1812    0.2745 C   0  0  0  0  0  0  0  0  0  0  0  0
    8.3290   19.4096    0.5777 C   0  0  0  0  0  0  0  0  0  0  0  0
    9.2382   22.1026   -2.8337 O   0  0  0  0  0  0  0  0  0  0  0  0
    9.9620   21.7453   -1.8700 C   0  0  0  0  0  0  0  0  0  0  0  0
   10.9131   22.4980   -1.5563 O   0  0  0  0  0  0  0  0  0  0  0  0
    8.5163   21.5682   -3.1006 H   0  0  0  0  0  0  0  0  0  0  0  0
    5.4474   18.4735    0.7058 C   0  0  0  0  0  0  0  0  0  0  0  0
    5.4580   16.9154    1.3323 S   0  0  0  0  0  0  0  0  0  0  0  0
    4.6749   16.1203    0.0765 C   0  0  0  0  0  0  0  0  0  0  0  0
    4.4053   17.1191   -0.8632 C   0  0  0  0  0  0  0  0  0  0  0  0
    3.5016   16.7210   -2.5082 Br  0  0  0  0  0  0  0  0  0  0  0  0
    4.8187   18.4439   -0.5392 C   0  0  0  0  0  0  0  0  0  0  0  0
    3.9708   20.0716    2.8152 C   0  0  0  0  0  0  0  0  0  0  0  0
    3.3007   19.1421    3.2565 O   0  0  0  0  0  0  0  0  0  0  0  0
    3.2898   21.3532    2.4589 C   0  0  0  0  0  0  0  0  0  0  0  0
    2.1708   21.7305    3.1854 C   0  0  0  0  0  0  0  0  0  0  0  0
    1.5125   22.9200    2.8909 C   0  0  0  0  0  0  0  0  0  0  0  0
    1.9743   23.7345    1.8643 C   0  0  0  0  0  0  0  0  0  0  0  0
    3.1013   23.3653    1.1374 C   0  0  0  0  0  0  0  0  0  0  0  0
    3.7608   22.1745    1.4336 C   0  0  0  0  0  0  0  0  0  0  0  0
 12 11  1  0  0  0
 13 11  2  0  0  0
 13 14  1  0  0  0
 11  9  1  0  0  0
 14 15  2  0  0  0
 18 17  2  0  0  0
  9 17  1  0  0  0
  9 10  2  0  0  0
 17 16  1  0  0  0
 15 10  1  0  0  0
 15  1  1  0  0  0
  1  3  1  0  0  0
  1  2  1  0  0  0
  4  3  2  0  0  0
  3  5  1  0  0  0
  2  7  1  0  0  0
  2 20  1  0  0  0
  5  7  2  0  0  0
  5  6  1  0  0  0
  7 26  1  0  0  0
 25 20  2  0  0  0
 25 23  1  0  0  0
 20 21  1  0  0  0
 27 26  2  0  0  0
 26 28  1  0  0  0
 23 24  1  0  0  0
 23 22  2  0  0  0
 28 29  2  0  0  0
 28 33  1  0  0  0
 29 30  1  0  0  0
 21 22  1  0  0  0
 33 32  2  0  0  0
 30 31  2  0  0  0
 32 31  1  0  0  0
 16 19  1  0  0  0
  6  8  1  0  0  0
M  END
> <minimizedAffinity>
-6.99887

$$$$
4IBD_1DL_A_401


 33 36  0  0  0  0  0  0  0  0999 V2000
   -1.1523   20.5426   -1.1574 N   0  0  0  0  0  0  0  0  0  0  0  0
   -0.3755   20.7197   -0.0860 C   0  0  0  0  0  0  0  0  0  0  0  0
   -0.6181   21.1480   -2.2197 C   0  0  0  0  0  0  0  0  0  0  0  0
   -1.1558   21.1273   -3.4709 O   0  0  0  0  0  0  0  0  0  0  0  0
    0.5488   21.7925   -1.8126 C   0  0  0  0  0  0  0  0  0  0  0  0
    1.3787   22.5435   -2.6068 O   0  0  0  0  0  0  0  0  0  0  0  0
    0.6881   21.5420   -0.4476 C   0  0  0  0  0  0  0  0  0  0  0  0
    1.1881   22.6460   -3.5185 H   0  0  0  0  0  0  0  0  0  0  0  0
   -4.7758   19.8266   -0.5887 C   0  0  0  0  0  0  0  0  0  0  0  0
   -3.5445   20.4679   -0.6098 C   0  0  0  0  0  0  0  0  0  0  0  0
   -4.8742   18.5377   -1.1333 C   0  0  0  0  0  0  0  0  0  0  0  0
   -6.1438   17.7415   -1.1796 C   0  0  0  0  0  0  0  0  0  0  0  0
   -3.7466   17.9366   -1.6694 C   0  0  0  0  0  0  0  0  0  0  0  0
   -2.5212   18.5826   -1.6772 C   0  0  0  0  0  0  0  0  0  0  0  0
   -2.4159   19.8593   -1.1461 C   0  0  0  0  0  0  0  0  0  0  0  0
   -6.3315   20.2571    1.1557 O   0  0  0  0  0  0  0  0  0  0  0  0
   -5.9084   20.6008    0.0230 C   0  0  0  0  0  0  0  0  0  0  0  0
   -6.4695   21.5760   -0.5280 O   0  0  0  0  0  0  0  0  0  0  0  0
   -5.9394   19.5327    1.6023 H   0  0  0  0  0  0  0  0  0  0  0  0
    0.0433   19.4778    0.5868 C   0  0  0  0  0  0  0  0  0  0  0  0
    0.9865   18.3346   -0.2032 S   0  0  0  0  0  0  0  0  0  0  0  0
    1.1180   17.2021    1.0308 C   0  0  0  0  0  0  0  0  0  0  0  0
    0.3892   17.7464    2.0918 C   0  0  0  0  0  0  0  0  0  0  0  0
    0.2315   16.8256    3.7677 Br  0  0  0  0  0  0  0  0  0  0  0  0
   -0.2180   19.0179    1.8777 C   0  0  0  0  0  0  0  0  0  0  0  0
    1.6976   22.0166    0.5461 C   0  0  0  0  0  0  0  0  0  0  0  0
    2.7754   21.4284    0.5569 O   0  0  0  0  0  0  0  0  0  0  0  0
    1.4769   23.1465    1.4988 C   0  0  0  0  0  0  0  0  0  0  0  0
    0.7240   22.9114    2.6390 C   0  0  0  0  0  0  0  0  0  0  0  0
    0.5018   23.9343    3.5552 C   0  0  0  0  0  0  0  0  0  0  0  0
    1.0335   25.1979    3.3291 C   0  0  0  0  0  0  0  0  0  0  0  0
    1.7966   25.4376    2.1912 C   0  0  0  0  0  0  0  0  0  0  0  0
    2.0197   24.4125    1.2746 C   0  0  0  0  0  0  0  0  0  0  0  0
 12 11  1  0  0  0
 13 11  2  0  0  0
 13 14  1  0  0  0
 11  9  1  0  0  0
 14 15  2  0  0  0
 18 17  2  0  0  0
  9 17  1  0  0  0
  9 10  2  0  0  0
 17 16  1  0  0  0
 15 10  1  0  0  0
 15  1  1  0  0  0
  1  3  1  0  0  0
  1  2  1  0  0  0
  4  3  2  0  0  0
  3  5  1  0  0  0
  2  7  1  0  0  0
  2 20  1  0  0  0
  5  7  2  0  0  0
  5  6  1  0  0  0
  7 26  1  0  0  0
 25 20  2  0  0  0
 25 23  1  0  0  0
 20 21  1  0  0  0
 27 26  2  0  0  0
 26 28  1  0  0  0
 23 24  1  0  0  0
 23 22  2  0  0  0
 28 29  2  0  0  0
 28 33  1  0  0  0
 29 30  1  0  0  0
 21 22  1  0  0  0
 33 32  2  0  0  0
 30 31  2  0  0  0
 32 31  1  0  0  0
 16 19  1  0  0  0
  6  8  1  0  0  0
M  END
> <minimizedAffinity>
-6.90529

$$$$
4IBD_1DL_A_401


 33 36  0  0  0  0  0  0  0  0999 V2000
    1.5117   20.1307    0.7068 N   0  0  0  0  0  0  0  0  0  0  0  0
    2.5381   20.8877    1.1019 C   0  0  0  0  0  0  0  0  0  0  0  0
    1.5614   18.9383    1.3034 C   0  0  0  0  0  0  0  0  0  0  0  0
    0.6393   17.9507    1.1318 O   0  0  0  0  0  0  0  0  0  0  0  0
    2.7055   18.8964    2.0985 C   0  0  0  0  0  0  0  0  0  0  0  0
    3.1248   17.8340    2.8593 O   0  0  0  0  0  0  0  0  0  0  0  0
    3.3416   20.1286    1.9483 C   0  0  0  0  0  0  0  0  0  0  0  0
    2.6155   17.0480    2.8875 H   0  0  0  0  0  0  0  0  0  0  0  0
   -0.0419   20.9875   -2.5823 C   0  0  0  0  0  0  0  0  0  0  0  0
    0.8829   20.6114   -1.6173 C   0  0  0  0  0  0  0  0  0  0  0  0
   -1.3557   21.2727   -2.1822 C   0  0  0  0  0  0  0  0  0  0  0  0
   -2.4490   21.6813   -3.1234 C   0  0  0  0  0  0  0  0  0  0  0  0
   -1.6953   21.1796   -0.8420 C   0  0  0  0  0  0  0  0  0  0  0  0
   -0.7620   20.8117    0.1133 C   0  0  0  0  0  0  0  0  0  0  0  0
    0.5378   20.5225   -0.2739 C   0  0  0  0  0  0  0  0  0  0  0  0
    1.4735   21.7575   -4.2434 O   0  0  0  0  0  0  0  0  0  0  0  0
    0.4689   21.0443   -3.9937 C   0  0  0  0  0  0  0  0  0  0  0  0
   -0.0473   20.4239   -4.9519 O   0  0  0  0  0  0  0  0  0  0  0  0
    1.8897   22.2380   -3.5550 H   0  0  0  0  0  0  0  0  0  0  0  0
    2.1615   22.1959    1.6650 C   0  0  0  0  0  0  0  0  0  0  0  0
    2.7756   23.6256    1.0331 S   0  0  0  0  0  0  0  0  0  0  0  0
    2.0113   24.7168    2.0566 C   0  0  0  0  0  0  0  0  0  0  0  0
    1.2556   23.9220    2.9229 C   0  0  0  0  0  0  0  0  0  0  0  0
    0.1749   24.7024    4.3029 Br  0  0  0  0  0  0  0  0  0  0  0  0
    1.3136   22.5115    2.7269 C   0  0  0  0  0  0  0  0  0  0  0  0
    4.6311   20.6480    2.4951 C   0  0  0  0  0  0  0  0  0  0  0  0
    4.5621   21.3124    3.5255 O   0  0  0  0  0  0  0  0  0  0  0  0
    5.9694   20.4021    1.8775 C   0  0  0  0  0  0  0  0  0  0  0  0
    7.0907   20.4465    2.6918 C   0  0  0  0  0  0  0  0  0  0  0  0
    8.3541   20.2153    2.1576 C   0  0  0  0  0  0  0  0  0  0  0  0
    8.4968   19.9404    0.8031 C   0  0  0  0  0  0  0  0  0  0  0  0
    7.3747   19.8864   -0.0171 C   0  0  0  0  0  0  0  0  0  0  0  0
    6.1096   20.1168    0.5186 C   0  0  0  0  0  0  0  0  0  0  0  0
 12 11  1  0  0  0
 13 11  2  0  0  0
 13 14  1  0  0  0
 11  9  1  0  0  0
 14 15  2  0  0  0
 18 17  2  0  0  0
  9 17  1  0  0  0
  9 10  2  0  0  0
 17 16  1  0  0  0
 15 10  1  0  0  0
 15  1  1  0  0  0
  1  3  1  0  0  0
  1  2  1  0  0  0
  4  3  2  0  0  0
  3  5  1  0  0  0
  2  7  1  0  0  0
  2 20  1  0  0  0
  5  7  2  0  0  0
  5  6  1  0  0  0
  7 26  1  0  0  0
 25 20  2  0  0  0
 25 23  1  0  0  0
 20 21  1  0  0  0
 27 26  2  0  0  0
 26 28  1  0  0  0
 23 24  1  0  0  0
 23 22  2  0  0  0
 28 29  2  0  0  0
 28 33  1  0  0  0
 29 30  1  0  0  0
 21 22  1  0  0  0
 33 32  2  0  0  0
 30 31  2  0  0  0
 32 31  1  0  0  0
 16 19  1  0  0  0
  6  8  1  0  0  0
M  END
> <minimizedAffinity>
-6.58510

$$$$
4IBD_1DL_A_401


 33 36  0  0  0  0  0  0  0  0999 V2000
    3.6964   18.6861    0.3710 N   0  0  0  0  0  0  0  0  0  0  0  0
    2.4069   18.9927    0.5314 C   0  0  0  0  0  0  0  0  0  0  0  0
    3.9489   18.4089   -0.9095 C   0  0  0  0  0  0  0  0  0  0  0  0
    5.1777   18.0881   -1.4017 O   0  0  0  0  0  0  0  0  0  0  0  0
    2.7518   18.4964   -1.6183 C   0  0  0  0  0  0  0  0  0  0  0  0
    2.5863   18.2636   -2.9606 O   0  0  0  0  0  0  0  0  0  0  0  0
    1.7652   18.8416   -0.6948 C   0  0  0  0  0  0  0  0  0  0  0  0
    3.3244   18.0365   -3.4912 H   0  0  0  0  0  0  0  0  0  0  0  0
    6.4086   19.6151    2.7683 C   0  0  0  0  0  0  0  0  0  0  0  0
    5.4764   19.6772    1.7411 C   0  0  0  0  0  0  0  0  0  0  0  0
    6.5075   18.4342    3.5185 C   0  0  0  0  0  0  0  0  0  0  0  0
    7.4649   18.2410    4.6562 C   0  0  0  0  0  0  0  0  0  0  0  0
    5.6831   17.3626    3.2145 C   0  0  0  0  0  0  0  0  0  0  0  0
    4.7626   17.4328    2.1816 C   0  0  0  0  0  0  0  0  0  0  0  0
    4.6540   18.5985    1.4383 C   0  0  0  0  0  0  0  0  0  0  0  0
    8.4244   20.8609    2.5859 O   0  0  0  0  0  0  0  0  0  0  0  0
    7.2317   20.8531    2.9830 C   0  0  0  0  0  0  0  0  0  0  0  0
    6.8057   21.8905    3.5414 O   0  0  0  0  0  0  0  0  0  0  0  0
    8.7823   20.1052    2.1632 H   0  0  0  0  0  0  0  0  0  0  0  0
    2.1556   20.2962    1.1702 C   0  0  0  0  0  0  0  0  0  0  0  0
    1.3543   20.4048    2.6422 S   0  0  0  0  0  0  0  0  0  0  0  0
    1.3739   22.0740    2.8313 C   0  0  0  0  0  0  0  0  0  0  0  0
    2.0285   22.5529    1.6931 C   0  0  0  0  0  0  0  0  0  0  0  0
    2.3173   24.4309    1.4265 Br  0  0  0  0  0  0  0  0  0  0  0  0
    2.4821   21.5857    0.7497 C   0  0  0  0  0  0  0  0  0  0  0  0
    0.2890   19.0154   -0.8445 C   0  0  0  0  0  0  0  0  0  0  0  0
   -0.4211   18.1962   -0.2681 O   0  0  0  0  0  0  0  0  0  0  0  0
   -0.3560   20.1104   -1.6307 C   0  0  0  0  0  0  0  0  0  0  0  0
   -1.7396   20.1347   -1.7168 C   0  0  0  0  0  0  0  0  0  0  0  0
   -2.3795   21.1414   -2.4322 C   0  0  0  0  0  0  0  0  0  0  0  0
   -1.6325   22.1269   -3.0657 C   0  0  0  0  0  0  0  0  0  0  0  0
   -0.2445   22.1124   -2.9760 C   0  0  0  0  0  0  0  0  0  0  0  0
    0.3958   21.1046   -2.2584 C   0  0  0  0  0  0  0  0  0  0  0  0
 12 11  1  0  0  0
 13 11  2  0  0  0
 13 14  1  0  0  0
 11  9  1  0  0  0
 14 15  2  0  0  0
 18 17  2  0  0  0
  9 17  1  0  0  0
  9 10  2  0  0  0
 17 16  1  0  0  0
 15 10  1  0  0  0
 15  1  1  0  0  0
  1  3  1  0  0  0
  1  2  1  0  0  0
  4  3  2  0  0  0
  3  5  1  0  0  0
  2  7  1  0  0  0
  2 20  1  0  0  0
  5  7  2  0  0  0
  5  6  1  0  0  0
  7 26  1  0  0  0
 25 20  2  0  0  0
 25 23  1  0  0  0
 20 21  1  0  0  0
 27 26  2  0  0  0
 26 28  1  0  0  0
 23 24  1  0  0  0
 23 22  2  0  0  0
 28 29  2  0  0  0
 28 33  1  0  0  0
 29 30  1  0  0  0
 21 22  1  0  0  0
 33 32  2  0  0  0
 30 31  2  0  0  0
 32 31  1  0  0  0
 16 19  1  0  0  0
  6  8  1  0  0  0
M  END
> <minimizedAffinity>
-6.53504

$$$$
4IBD_1DL_A_401


 33 36  0  0  0  0  0  0  0  0999 V2000
    1.0442   23.9224    3.2813 N   0  0  0  0  0  0  0  0  0  0  0  0
    1.5023   22.6756    3.1467 C   0  0  0  0  0  0  0  0  0  0  0  0
    1.6942   24.7443    2.4552 C   0  0  0  0  0  0  0  0  0  0  0  0
    1.4384   26.0765    2.3332 O   0  0  0  0  0  0  0  0  0  0  0  0
    2.6593   24.0040    1.7745 C   0  0  0  0  0  0  0  0  0  0  0  0
    3.5486   24.4893    0.8488 O   0  0  0  0  0  0  0  0  0  0  0  0
    2.5547   22.6917    2.2355 C   0  0  0  0  0  0  0  0  0  0  0  0
    3.5298   25.3955    0.6112 H   0  0  0  0  0  0  0  0  0  0  0  0
   -1.7875   25.7899    4.8496 C   0  0  0  0  0  0  0  0  0  0  0  0
   -0.8149   25.3814    3.9468 C   0  0  0  0  0  0  0  0  0  0  0  0
   -1.9023   25.1095    6.0708 C   0  0  0  0  0  0  0  0  0  0  0  0
   -2.9130   25.4452    7.1262 C   0  0  0  0  0  0  0  0  0  0  0  0
   -1.0438   24.0576    6.3481 C   0  0  0  0  0  0  0  0  0  0  0  0
   -0.0713   23.6643    5.4434 C   0  0  0  0  0  0  0  0  0  0  0  0
    0.0457   24.3277    4.2312 C   0  0  0  0  0  0  0  0  0  0  0  0
   -3.5441   26.7360    3.5582 O   0  0  0  0  0  0  0  0  0  0  0  0
   -2.6456   26.9427    4.4126 C   0  0  0  0  0  0  0  0  0  0  0  0
   -2.5224   28.1121    4.8449 O   0  0  0  0  0  0  0  0  0  0  0  0
   -3.6696   25.8756    3.2091 H   0  0  0  0  0  0  0  0  0  0  0  0
    0.4727   21.6679    2.8386 C   0  0  0  0  0  0  0  0  0  0  0  0
    0.1694   20.3858    3.8800 S   0  0  0  0  0  0  0  0  0  0  0  0
   -1.0500   19.6230    3.0120 C   0  0  0  0  0  0  0  0  0  0  0  0
   -1.2131   20.4055    1.8655 C   0  0  0  0  0  0  0  0  0  0  0  0
   -2.5132   19.9546    0.5285 Br  0  0  0  0  0  0  0  0  0  0  0  0
   -0.3822   21.5569    1.7418 C   0  0  0  0  0  0  0  0  0  0  0  0
    3.3560   21.4693    1.9270 C   0  0  0  0  0  0  0  0  0  0  0  0
    3.1961   20.9748    0.8145 O   0  0  0  0  0  0  0  0  0  0  0  0
    4.3251   20.8352    2.8714 C   0  0  0  0  0  0  0  0  0  0  0  0
    5.6256   21.3147    2.9037 C   0  0  0  0  0  0  0  0  0  0  0  0
    6.5565   20.7574    3.7742 C   0  0  0  0  0  0  0  0  0  0  0  0
    6.1856   19.7150    4.6146 C   0  0  0  0  0  0  0  0  0  0  0  0
    4.8801   19.2352    4.5926 C   0  0  0  0  0  0  0  0  0  0  0  0
    3.9480   19.7946    3.7214 C   0  0  0  0  0  0  0  0  0  0  0  0
 12 11  1  0  0  0
 13 11  2  0  0  0
 13 14  1  0  0  0
 11  9  1  0  0  0
 14 15  2  0  0  0
 18 17  2  0  0  0
  9 17  1  0  0  0
  9 10  2  0  0  0
 17 16  1  0  0  0
 15 10  1  0  0  0
 15  1  1  0  0  0
  1  3  1  0  0  0
  1  2  1  0  0  0
  4  3  2  0  0  0
  3  5  1  0  0  0
  2  7  1  0  0  0
  2 20  1  0  0  0
  5  7  2  0  0  0
  5  6  1  0  0  0
  7 26  1  0  0  0
 25 20  2  0  0  0
 25 23  1  0  0  0
 20 21  1  0  0  0
 27 26  2  0  0  0
 26 28  1  0  0  0
 23 24  1  0  0  0
 23 22  2  0  0  0
 28 29  2  0  0  0
 28 33  1  0  0  0
 29 30  1  0  0  0
 21 22  1  0  0  0
 33 32  2  0  0  0
 30 31  2  0  0  0
 32 31  1  0  0  0
 16 19  1  0  0  0
  6  8  1  0  0  0
M  END
> <minimizedAffinity>
-6.36752

$$$$
4IBD_1DL_A_401


 33 36  0  0  0  0  0  0  0  0999 V2000
    2.1572   19.1633    1.5467 N   0  0  0  0  0  0  0  0  0  0  0  0
    1.0639   19.9275    1.6036 C   0  0  0  0  0  0  0  0  0  0  0  0
    2.1078   18.3662    0.4778 C   0  0  0  0  0  0  0  0  0  0  0  0
    3.0872   17.4884    0.1240 O   0  0  0  0  0  0  0  0  0  0  0  0
    0.8974   18.5896   -0.1764 C   0  0  0  0  0  0  0  0  0  0  0  0
    0.4589   17.9508   -1.3092 O   0  0  0  0  0  0  0  0  0  0  0  0
    0.2211   19.5646    0.5567 C   0  0  0  0  0  0  0  0  0  0  0  0
    0.9996   17.3072   -1.7232 H   0  0  0  0  0  0  0  0  0  0  0  0
    5.3720   19.9143    3.2980 C   0  0  0  0  0  0  0  0  0  0  0  0
    4.3523   19.9083    2.3556 C   0  0  0  0  0  0  0  0  0  0  0  0
    5.2202   19.1443    4.4605 C   0  0  0  0  0  0  0  0  0  0  0  0
    6.2408   19.0701    5.5565 C   0  0  0  0  0  0  0  0  0  0  0  0
    4.0674   18.3958    4.6364 C   0  0  0  0  0  0  0  0  0  0  0  0
    3.0602   18.3907    3.6853 C   0  0  0  0  0  0  0  0  0  0  0  0
    3.1993   19.1534    2.5355 C   0  0  0  0  0  0  0  0  0  0  0  0
    7.4840   20.2852    2.2732 O   0  0  0  0  0  0  0  0  0  0  0  0
    6.5607   20.7731    2.9730 C   0  0  0  0  0  0  0  0  0  0  0  0
    6.6978   21.9567    3.3600 O   0  0  0  0  0  0  0  0  0  0  0  0
    7.4209   19.4032    1.9633 H   0  0  0  0  0  0  0  0  0  0  0  0
    1.3243   21.3758    1.6743 C   0  0  0  0  0  0  0  0  0  0  0  0
    2.2664   22.1488    0.5188 S   0  0  0  0  0  0  0  0  0  0  0  0
    2.1964   23.7142    1.1247 C   0  0  0  0  0  0  0  0  0  0  0  0
    1.4095   23.6149    2.2755 C   0  0  0  0  0  0  0  0  0  0  0  0
    1.0167   25.1556    3.3493 Br  0  0  0  0  0  0  0  0  0  0  0  0
    0.9029   22.3245    2.6063 C   0  0  0  0  0  0  0  0  0  0  0  0
   -1.1369   20.1635    0.3872 C   0  0  0  0  0  0  0  0  0  0  0  0
   -1.8983   20.0771    1.3467 O   0  0  0  0  0  0  0  0  0  0  0  0
   -1.6058   20.8537   -0.8525 C   0  0  0  0  0  0  0  0  0  0  0  0
   -0.6598   21.4361   -1.6821 C   0  0  0  0  0  0  0  0  0  0  0  0
   -1.0541   22.0812   -2.8497 C   0  0  0  0  0  0  0  0  0  0  0  0
   -2.4002   22.1457   -3.1881 C   0  0  0  0  0  0  0  0  0  0  0  0
   -3.3530   21.5561   -2.3640 C   0  0  0  0  0  0  0  0  0  0  0  0
   -2.9575   20.9091   -1.1953 C   0  0  0  0  0  0  0  0  0  0  0  0
 12 11  1  0  0  0
 13 11  2  0  0  0
 13 14  1  0  0  0
 11  9  1  0  0  0
 14 15  2  0  0  0
 18 17  2  0  0  0
  9 17  1  0  0  0
  9 10  2  0  0  0
 17 16  1  0  0  0
 15 10  1  0  0  0
 15  1  1  0  0  0
  1  3  1  0  0  0
  1  2  1  0  0  0
  4  3  2  0  0  0
  3  5  1  0  0  0
  2  7  1  0  0  0
  2 20  1  0  0  0
  5  7  2  0  0  0
  5  6  1  0  0  0
  7 26  1  0  0  0
 25 20  2  0  0  0
 25 23  1  0  0  0
 20 21  1  0  0  0
 27 26  2  0  0  0
 26 28  1  0  0  0
 23 24  1  0  0  0
 23 22  2  0  0  0
 28 29  2  0  0  0
 28 33  1  0  0  0
 29 30  1  0  0  0
 21 22  1  0  0  0
 33 32  2  0  0  0
 30 31  2  0  0  0
 32 31  1  0  0  0
 16 19  1  0  0  0
  6  8  1  0  0  0
M  END
> <minimizedAffinity>
-6.27262

$$$$
