3IP8_B85_A_249


 13 13  0  0  0  0  0  0  0  0999 V2000
    0.6053   13.8690   18.4432 C   0  0  0  0  0  0  0  0  0  0  0  0
    1.3018   15.9873   19.5267 C   0  0  0  0  0  0  0  0  0  0  0  0
    1.9169   17.2706   19.5244 C   0  0  0  0  0  0  0  0  0  0  0  0
    2.3526   17.8198   18.3406 C   0  0  0  0  0  0  0  0  0  0  0  0
    2.2167   17.0811   17.0668 C   0  0  0  0  0  0  0  0  0  0  0  0
    1.6308   15.8281   17.0642 C   0  0  0  0  0  0  0  0  0  0  0  0
    1.1731   15.2722   18.3016 C   0  0  0  0  0  0  0  0  0  0  0  0
    0.1173   12.9568   16.9257 P   0  0  0  0  0  0  0  0  0  0  0  0
   -1.2936   13.4279   16.3617 O   0  0  0  0  0  0  0  0  0  0  0  0
    1.2617   13.0864   15.7999 O   0  0  0  0  0  0  0  0  0  0  0  0
    0.0439   11.5155   17.2938 O   0  0  0  0  0  0  0  0  0  0  0  0
    1.3448   14.0140   15.5286 H   0  0  0  0  0  0  0  0  0  0  0  0
   -0.6366   11.3895   17.9734 H   0  0  0  0  0  0  0  0  0  0  0  0
  7  2  2  0  0  0
  3  2  1  0  0  0
  4  3  2  0  0  0
  5  4  1  0  0  0
  5  6  2  0  0  0
  6  7  1  0  0  0
  7  1  1  0  0  0
  8  1  1  0  0  0
  9  8  2  0  0  0
 11  8  1  0  0  0
  8 10  1  0  0  0
 10 12  1  0  0  0
 11 13  1  0  0  0
M  END
> <minimizedAffinity>
-6.99196

$$$$
3IP8_B85_A_249


 13 13  0  0  0  0  0  0  0  0999 V2000
    0.9523   14.3046   16.5473 C   0  0  0  0  0  0  0  0  0  0  0  0
    1.9760   16.5372   16.8846 C   0  0  0  0  0  0  0  0  0  0  0  0
    2.3249   17.6656   17.6783 C   0  0  0  0  0  0  0  0  0  0  0  0
    2.1179   17.6376   19.0382 C   0  0  0  0  0  0  0  0  0  0  0  0
    1.5088   16.4573   19.6881 C   0  0  0  0  0  0  0  0  0  0  0  0
    1.1562   15.3621   18.9204 C   0  0  0  0  0  0  0  0  0  0  0  0
    1.3857   15.4005   17.5078 C   0  0  0  0  0  0  0  0  0  0  0  0
   -0.2509   13.0452   17.1298 P   0  0  0  0  0  0  0  0  0  0  0  0
   -0.4910   13.1162   18.7008 O   0  0  0  0  0  0  0  0  0  0  0  0
   -1.6401   13.1817   16.3266 O   0  0  0  0  0  0  0  0  0  0  0  0
    0.3147   11.7131   16.7780 O   0  0  0  0  0  0  0  0  0  0  0  0
   -2.0464   14.0395   16.5267 H   0  0  0  0  0  0  0  0  0  0  0  0
    1.1572   11.5868   17.2419 H   0  0  0  0  0  0  0  0  0  0  0  0
  7  2  2  0  0  0
  3  2  1  0  0  0
  4  3  2  0  0  0
  5  4  1  0  0  0
  5  6  2  0  0  0
  6  7  1  0  0  0
  7  1  1  0  0  0
  8  1  1  0  0  0
  9  8  2  0  0  0
 11  8  1  0  0  0
  8 10  1  0  0  0
 10 12  1  0  0  0
 11 13  1  0  0  0
M  END
> <minimizedAffinity>
-6.98428

$$$$
3IP8_B85_A_249


 13 13  0  0  0  0  0  0  0  0999 V2000
    3.0899   18.3562   16.1715 C   0  0  0  0  0  0  0  0  0  0  0  0
    1.9906   16.1902   16.6681 C   0  0  0  0  0  0  0  0  0  0  0  0
    1.4207   15.2300   17.5504 C   0  0  0  0  0  0  0  0  0  0  0  0
    1.2357   15.5431   18.8773 C   0  0  0  0  0  0  0  0  0  0  0  0
    1.6483   16.8593   19.4103 C   0  0  0  0  0  0  0  0  0  0  0  0
    2.2141   17.7924   18.5604 C   0  0  0  0  0  0  0  0  0  0  0  0
    2.3922   17.4573   17.1799 C   0  0  0  0  0  0  0  0  0  0  0  0
    4.5311   19.3513   16.7245 P   0  0  0  0  0  0  0  0  0  0  0  0
    4.6109   19.4755   18.3084 O   0  0  0  0  0  0  0  0  0  0  0  0
    5.8965   18.7446   16.1233 O   0  0  0  0  0  0  0  0  0  0  0  0
    4.3712   20.7082   16.1317 O   0  0  0  0  0  0  0  0  0  0  0  0
    6.0420   17.8561   16.4842 H   0  0  0  0  0  0  0  0  0  0  0  0
    3.5567   21.1139   16.4677 H   0  0  0  0  0  0  0  0  0  0  0  0
  7  2  2  0  0  0
  3  2  1  0  0  0
  4  3  2  0  0  0
  5  4  1  0  0  0
  5  6  2  0  0  0
  6  7  1  0  0  0
  7  1  1  0  0  0
  8  1  1  0  0  0
  9  8  2  0  0  0
 11  8  1  0  0  0
  8 10  1  0  0  0
 10 12  1  0  0  0
 11 13  1  0  0  0
M  END
> <minimizedAffinity>
-5.39467

$$$$
3IP8_B85_A_249


 13 13  0  0  0  0  0  0  0  0999 V2000
    3.0670   18.4061   16.0275 C   0  0  0  0  0  0  0  0  0  0  0  0
    2.2068   17.7776   18.2662 C   0  0  0  0  0  0  0  0  0  0  0  0
    1.5275   16.9093   19.1659 C   0  0  0  0  0  0  0  0  0  0  0  0
    1.1264   15.6627   18.7441 C   0  0  0  0  0  0  0  0  0  0  0  0
    1.3663   15.2192   17.3540 C   0  0  0  0  0  0  0  0  0  0  0  0
    2.0152   16.0634   16.4712 C   0  0  0  0  0  0  0  0  0  0  0  0
    2.4358   17.3542   16.9256 C   0  0  0  0  0  0  0  0  0  0  0  0
    4.5075   19.3555   16.6573 P   0  0  0  0  0  0  0  0  0  0  0  0
    4.5533   19.4057   18.2466 O   0  0  0  0  0  0  0  0  0  0  0  0
    5.8785   18.7590   16.0587 O   0  0  0  0  0  0  0  0  0  0  0  0
    4.3777   20.7402   16.1245 O   0  0  0  0  0  0  0  0  0  0  0  0
    6.0050   17.8530   16.3811 H   0  0  0  0  0  0  0  0  0  0  0  0
    3.5609   21.1409   16.4611 H   0  0  0  0  0  0  0  0  0  0  0  0
  7  2  2  0  0  0
  3  2  1  0  0  0
  4  3  2  0  0  0
  5  4  1  0  0  0
  5  6  2  0  0  0
  6  7  1  0  0  0
  7  1  1  0  0  0
  8  1  1  0  0  0
  9  8  2  0  0  0
 11  8  1  0  0  0
  8 10  1  0  0  0
 10 12  1  0  0  0
 11 13  1  0  0  0
M  END
> <minimizedAffinity>
-5.20803

$$$$
3IP8_B85_A_249


 13 13  0  0  0  0  0  0  0  0999 V2000
   -0.4121   13.4989   18.6329 C   0  0  0  0  0  0  0  0  0  0  0  0
    1.5853   14.8950   19.0884 C   0  0  0  0  0  0  0  0  0  0  0  0
    2.2304   16.1304   19.3763 C   0  0  0  0  0  0  0  0  0  0  0  0
    1.4779   17.2480   19.6548 C   0  0  0  0  0  0  0  0  0  0  0  0
    0.0004   17.1922   19.6318 C   0  0  0  0  0  0  0  0  0  0  0  0
   -0.6325   15.9973   19.3406 C   0  0  0  0  0  0  0  0  0  0  0  0
    0.1623   14.8396   19.0620 C   0  0  0  0  0  0  0  0  0  0  0  0
   -0.2630   12.9971   16.8726 P   0  0  0  0  0  0  0  0  0  0  0  0
    0.6983   13.9586   16.0468 O   0  0  0  0  0  0  0  0  0  0  0  0
    0.2210   11.4649   16.7643 O   0  0  0  0  0  0  0  0  0  0  0  0
   -1.6329   13.0526   16.2907 O   0  0  0  0  0  0  0  0  0  0  0  0
    1.1140   11.3810   17.1336 H   0  0  0  0  0  0  0  0  0  0  0  0
   -1.9664   13.9624   16.3350 H   0  0  0  0  0  0  0  0  0  0  0  0
  7  2  2  0  0  0
  3  2  1  0  0  0
  4  3  2  0  0  0
  5  4  1  0  0  0
  5  6  2  0  0  0
  6  7  1  0  0  0
  7  1  1  0  0  0
  8  1  1  0  0  0
  9  8  2  0  0  0
 11  8  1  0  0  0
  8 10  1  0  0  0
 10 12  1  0  0  0
 11 13  1  0  0  0
M  END
> <minimizedAffinity>
-5.13265

$$$$
3IP8_B85_A_249


 13 13  0  0  0  0  0  0  0  0999 V2000
    3.7476   19.0563   19.0805 C   0  0  0  0  0  0  0  0  0  0  0  0
    3.0585   18.0060   16.9431 C   0  0  0  0  0  0  0  0  0  0  0  0
    2.9687   17.9598   15.5237 C   0  0  0  0  0  0  0  0  0  0  0  0
    3.6363   18.8924   14.7638 C   0  0  0  0  0  0  0  0  0  0  0  0
    4.4273   19.9656   15.4036 C   0  0  0  0  0  0  0  0  0  0  0  0
    4.5084   20.0233   16.7831 C   0  0  0  0  0  0  0  0  0  0  0  0
    3.8167   19.0409   17.5618 C   0  0  0  0  0  0  0  0  0  0  0  0
    5.1524   19.7740   20.0209 P   0  0  0  0  0  0  0  0  0  0  0  0
    5.0803   21.3610   20.1026 O   0  0  0  0  0  0  0  0  0  0  0  0
    5.2346   19.1232   21.4918 O   0  0  0  0  0  0  0  0  0  0  0  0
    6.3977   19.3738   19.3085 O   0  0  0  0  0  0  0  0  0  0  0  0
    4.4394   19.3591   21.9946 H   0  0  0  0  0  0  0  0  0  0  0  0
    6.3914   19.7457   18.4127 H   0  0  0  0  0  0  0  0  0  0  0  0
  7  2  2  0  0  0
  3  2  1  0  0  0
  4  3  2  0  0  0
  5  4  1  0  0  0
  5  6  2  0  0  0
  6  7  1  0  0  0
  7  1  1  0  0  0
  8  1  1  0  0  0
  9  8  2  0  0  0
 11  8  1  0  0  0
  8 10  1  0  0  0
 10 12  1  0  0  0
 11 13  1  0  0  0
M  END
> <minimizedAffinity>
-5.12529

$$$$
3IP8_B85_A_249


 13 13  0  0  0  0  0  0  0  0999 V2000
    1.8283   17.6136   18.7099 C   0  0  0  0  0  0  0  0  0  0  0  0
    2.4328   17.5313   16.3069 C   0  0  0  0  0  0  0  0  0  0  0  0
    3.1979   17.9351   15.1770 C   0  0  0  0  0  0  0  0  0  0  0  0
    4.2816   18.7660   15.3445 C   0  0  0  0  0  0  0  0  0  0  0  0
    4.6490   19.2720   16.6845 C   0  0  0  0  0  0  0  0  0  0  0  0
    3.9018   18.8930   17.7851 C   0  0  0  0  0  0  0  0  0  0  0  0
    2.7824   18.0203   17.5982 C   0  0  0  0  0  0  0  0  0  0  0  0
    1.2833   15.8626   18.8089 P   0  0  0  0  0  0  0  0  0  0  0  0
   -0.2665   15.6907   18.4944 O   0  0  0  0  0  0  0  0  0  0  0  0
    2.1758   14.9406   17.8357 O   0  0  0  0  0  0  0  0  0  0  0  0
    1.5574   15.4035   20.1990 O   0  0  0  0  0  0  0  0  0  0  0  0
    2.0284   15.2056   16.9143 H   0  0  0  0  0  0  0  0  0  0  0  0
    1.0379   15.9342   20.8231 H   0  0  0  0  0  0  0  0  0  0  0  0
  7  2  2  0  0  0
  3  2  1  0  0  0
  4  3  2  0  0  0
  5  4  1  0  0  0
  5  6  2  0  0  0
  6  7  1  0  0  0
  7  1  1  0  0  0
  8  1  1  0  0  0
  9  8  2  0  0  0
 11  8  1  0  0  0
  8 10  1  0  0  0
 10 12  1  0  0  0
 11 13  1  0  0  0
M  END
> <minimizedAffinity>
-4.85632

$$$$
3IP8_B85_A_249


 13 13  0  0  0  0  0  0  0  0999 V2000
    2.9655   19.2177   19.7706 C   0  0  0  0  0  0  0  0  0  0  0  0
    2.0267   16.9248   19.6824 C   0  0  0  0  0  0  0  0  0  0  0  0
    1.5370   15.7805   18.9926 C   0  0  0  0  0  0  0  0  0  0  0  0
    1.6295   15.7150   17.6214 C   0  0  0  0  0  0  0  0  0  0  0  0
    2.2075   16.8339   16.8463 C   0  0  0  0  0  0  0  0  0  0  0  0
    2.6740   17.9541   17.5101 C   0  0  0  0  0  0  0  0  0  0  0  0
    2.5804   18.0054   18.9378 C   0  0  0  0  0  0  0  0  0  0  0  0
    4.7465   19.6108   19.9866 P   0  0  0  0  0  0  0  0  0  0  0  0
    5.5686   19.4652   18.6325 O   0  0  0  0  0  0  0  0  0  0  0  0
    4.9246   21.0830   20.6148 O   0  0  0  0  0  0  0  0  0  0  0  0
    5.2810   18.6515   20.9926 O   0  0  0  0  0  0  0  0  0  0  0  0
    4.5877   21.7441   19.9900 H   0  0  0  0  0  0  0  0  0  0  0  0
    5.1937   17.7465   20.6547 H   0  0  0  0  0  0  0  0  0  0  0  0
  7  2  2  0  0  0
  3  2  1  0  0  0
  4  3  2  0  0  0
  5  4  1  0  0  0
  5  6  2  0  0  0
  6  7  1  0  0  0
  7  1  1  0  0  0
  8  1  1  0  0  0
  9  8  2  0  0  0
 11  8  1  0  0  0
  8 10  1  0  0  0
 10 12  1  0  0  0
 11 13  1  0  0  0
M  END
> <minimizedAffinity>
-4.74798

$$$$
3IP8_B85_A_249


 13 13  0  0  0  0  0  0  0  0999 V2000
    1.5213   15.5557   19.3831 C   0  0  0  0  0  0  0  0  0  0  0  0
   -0.7807   15.0161   18.6375 C   0  0  0  0  0  0  0  0  0  0  0  0
   -1.7188   14.3862   17.7725 C   0  0  0  0  0  0  0  0  0  0  0  0
   -1.2812   13.4986   16.8167 C   0  0  0  0  0  0  0  0  0  0  0  0
    0.1597   13.2086   16.6544 C   0  0  0  0  0  0  0  0  0  0  0  0
    1.0775   13.8271   17.4840 C   0  0  0  0  0  0  0  0  0  0  0  0
    0.6080   14.7414   18.4808 C   0  0  0  0  0  0  0  0  0  0  0  0
    1.9560   17.2690   18.8845 P   0  0  0  0  0  0  0  0  0  0  0  0
    2.7046   17.3214   17.4819 O   0  0  0  0  0  0  0  0  0  0  0  0
    0.6427   18.2011   18.8733 O   0  0  0  0  0  0  0  0  0  0  0  0
    2.8535   17.8114   19.9421 O   0  0  0  0  0  0  0  0  0  0  0  0
    0.0262   17.8830   18.1953 H   0  0  0  0  0  0  0  0  0  0  0  0
    3.6623   17.2776   19.9848 H   0  0  0  0  0  0  0  0  0  0  0  0
  7  2  2  0  0  0
  3  2  1  0  0  0
  4  3  2  0  0  0
  5  4  1  0  0  0
  5  6  2  0  0  0
  6  7  1  0  0  0
  7  1  1  0  0  0
  8  1  1  0  0  0
  9  8  2  0  0  0
 11  8  1  0  0  0
  8 10  1  0  0  0
 10 12  1  0  0  0
 11 13  1  0  0  0
M  END
> <minimizedAffinity>
-4.73575

$$$$
3IP8_B85_A_249


 13 13  0  0  0  0  0  0  0  0999 V2000
    1.8530   17.3186   17.5480 C   0  0  0  0  0  0  0  0  0  0  0  0
    3.8339   18.6986   16.9838 C   0  0  0  0  0  0  0  0  0  0  0  0
    4.8842   19.6022   17.3085 C   0  0  0  0  0  0  0  0  0  0  0  0
    5.1127   19.9445   18.6213 C   0  0  0  0  0  0  0  0  0  0  0  0
    4.2611   19.4070   19.7041 C   0  0  0  0  0  0  0  0  0  0  0  0
    3.2308   18.5379   19.3938 C   0  0  0  0  0  0  0  0  0  0  0  0
    3.0098   18.1824   18.0246 C   0  0  0  0  0  0  0  0  0  0  0  0
    1.4312   15.8050   18.4989 P   0  0  0  0  0  0  0  0  0  0  0  0
    2.0612   15.8107   19.9596 O   0  0  0  0  0  0  0  0  0  0  0  0
   -0.1659   15.6066   18.5596 O   0  0  0  0  0  0  0  0  0  0  0  0
    1.9747   14.6491   17.7329 O   0  0  0  0  0  0  0  0  0  0  0  0
   -0.5644   16.3410   19.0522 H   0  0  0  0  0  0  0  0  0  0  0  0
    2.9395   14.7272   17.6709 H   0  0  0  0  0  0  0  0  0  0  0  0
  7  2  2  0  0  0
  3  2  1  0  0  0
  4  3  2  0  0  0
  5  4  1  0  0  0
  5  6  2  0  0  0
  6  7  1  0  0  0
  7  1  1  0  0  0
  8  1  1  0  0  0
  9  8  2  0  0  0
 11  8  1  0  0  0
  8 10  1  0  0  0
 10 12  1  0  0  0
 11 13  1  0  0  0
M  END
> <minimizedAffinity>
-4.59836

$$$$
