5ORG_6DB_A_321


 24 23  0  0  0  0  0  0  0  0999 V2000
  -16.2233  -24.8286   23.7012 C   0  0  0  0  0  0  0  0  0  0  0  0
  -17.3576  -23.8772   23.4430 C   0  0  0  0  0  0  0  0  0  0  0  0
  -17.1056  -22.6497   23.2216 O   0  0  0  0  0  0  0  0  0  0  0  0
  -18.5508  -24.2890   23.4176 O   0  0  0  0  0  0  0  0  0  0  0  0
  -18.7381  -25.1925   23.5804 H   0  0  0  0  0  0  0  0  0  0  0  0
  -16.7733  -26.0924   24.2409 N   0  0  0  0  0  0  0  0  0  0  0  0
  -17.2991  -25.8637   25.0845 H   0  0  0  0  0  0  0  0  0  0  0  0
  -15.8182  -27.1340   24.5879 C   0  0  0  0  0  0  0  0  0  0  0  0
  -16.5395  -28.3427   25.2157 C   0  0  0  0  0  0  0  0  0  0  0  0
  -13.5673  -26.6791   25.0017 O   0  0  0  0  0  0  0  0  0  0  0  0
  -14.7427  -26.6994   25.4835 C   0  0  0  0  0  0  0  0  0  0  0  0
  -14.9520  -26.3755   26.6873 O   0  0  0  0  0  0  0  0  0  0  0  0
  -15.8227  -26.3939   27.0329 H   0  0  0  0  0  0  0  0  0  0  0  0
  -15.3719  -24.9556   22.4263 C   0  0  0  0  0  0  0  0  0  0  0  0
  -16.1922  -25.4743   21.2033 C   0  0  0  0  0  0  0  0  0  0  0  0
  -15.5731  -25.2324   19.8304 C   0  0  0  0  0  0  0  0  0  0  0  0
  -16.1105  -26.2990   19.0490 N   0  0  0  0  0  0  0  0  0  0  0  0
  -16.5937  -27.0150   19.5214 H   0  0  0  0  0  0  0  0  0  0  0  0
  -15.9993  -26.3960   17.6755 C   0  0  0  0  0  0  0  0  0  0  0  0
  -15.1674  -25.5958   17.0470 N   0  0  0  0  0  0  0  0  0  0  0  0
  -16.7350  -27.2742   17.0650 N   0  0  0  0  0  0  0  0  0  0  0  0
  -14.6307  -24.9458   17.5556 H   0  0  0  0  0  0  0  0  0  0  0  0
  -17.3433  -27.8511   17.5812 H   0  0  0  0  0  0  0  0  0  0  0  0
  -16.6846  -27.3634   16.0859 H   0  0  0  0  0  0  0  0  0  0  0  0
 10 11  2  0  0  0
  9  8  1  0  0  0
 11 12  1  0  0  0
 11  8  1  0  0  0
  8  6  1  0  0  0
  6  1  1  0  0  0
  3  2  2  0  0  0
  1  2  1  0  0  0
  1 14  1  0  0  0
  2  4  1  0  0  0
 14 15  1  0  0  0
 15 16  1  0  0  0
 16 17  1  0  0  0
 17 19  1  0  0  0
 19 20  2  0  0  0
 19 21  1  0  0  0
  6  7  1  0  0  0
  4  5  1  0  0  0
 17 18  1  0  0  0
 20 22  1  0  0  0
 21 23  1  0  0  0
 21 24  1  0  0  0
 12 13  1  0  0  0
M  END
> <minimizedAffinity>
-8.99202

$$$$
5ORG_6DB_A_321


 24 23  0  0  0  0  0  0  0  0999 V2000
  -16.4308  -25.0487   23.2832 C   0  0  0  0  0  0  0  0  0  0  0  0
  -17.4247  -23.9249   23.1946 C   0  0  0  0  0  0  0  0  0  0  0  0
  -18.6383  -24.1847   22.9140 O   0  0  0  0  0  0  0  0  0  0  0  0
  -17.0724  -22.7339   23.4215 O   0  0  0  0  0  0  0  0  0  0  0  0
  -16.1791  -22.5409   23.6282 H   0  0  0  0  0  0  0  0  0  0  0  0
  -16.8235  -25.9472   24.3922 N   0  0  0  0  0  0  0  0  0  0  0  0
  -16.9246  -25.3750   25.2305 H   0  0  0  0  0  0  0  0  0  0  0  0
  -15.9151  -27.0380   24.7122 C   0  0  0  0  0  0  0  0  0  0  0  0
  -16.6600  -28.1615   25.4592 C   0  0  0  0  0  0  0  0  0  0  0  0
  -13.6218  -26.6440   24.8876 O   0  0  0  0  0  0  0  0  0  0  0  0
  -14.7393  -26.6416   25.4921 C   0  0  0  0  0  0  0  0  0  0  0  0
  -14.8105  -26.3282   26.7147 O   0  0  0  0  0  0  0  0  0  0  0  0
  -15.6397  -26.3296   27.1512 H   0  0  0  0  0  0  0  0  0  0  0  0
  -16.2910  -25.7082   21.9005 C   0  0  0  0  0  0  0  0  0  0  0  0
  -15.7696  -24.7186   20.8111 C   0  0  0  0  0  0  0  0  0  0  0  0
  -14.3015  -24.8626   20.4230 C   0  0  0  0  0  0  0  0  0  0  0  0
  -13.6333  -24.7907   21.6822 N   0  0  0  0  0  0  0  0  0  0  0  0
  -14.1884  -24.7219   22.4923 H   0  0  0  0  0  0  0  0  0  0  0  0
  -12.2614  -24.8110   21.8423 C   0  0  0  0  0  0  0  0  0  0  0  0
  -11.7477  -25.4998   22.8369 N   0  0  0  0  0  0  0  0  0  0  0  0
  -11.5395  -24.1354   21.0011 N   0  0  0  0  0  0  0  0  0  0  0  0
  -12.3381  -25.9963   23.4486 H   0  0  0  0  0  0  0  0  0  0  0  0
  -11.9723  -23.6350   20.2721 H   0  0  0  0  0  0  0  0  0  0  0  0
  -10.5593  -24.1235   21.0922 H   0  0  0  0  0  0  0  0  0  0  0  0
 10 11  2  0  0  0
  9  8  1  0  0  0
 11 12  1  0  0  0
 11  8  1  0  0  0
  8  6  1  0  0  0
  6  1  1  0  0  0
  3  2  2  0  0  0
  1  2  1  0  0  0
  1 14  1  0  0  0
  2  4  1  0  0  0
 14 15  1  0  0  0
 15 16  1  0  0  0
 16 17  1  0  0  0
 17 19  1  0  0  0
 19 20  2  0  0  0
 19 21  1  0  0  0
  6  7  1  0  0  0
  4  5  1  0  0  0
 17 18  1  0  0  0
 20 22  1  0  0  0
 21 23  1  0  0  0
 21 24  1  0  0  0
 12 13  1  0  0  0
M  END
> <minimizedAffinity>
-7.95054

$$$$
5ORG_6DB_A_321


 24 23  0  0  0  0  0  0  0  0999 V2000
  -14.9170  -25.1309   21.3995 C   0  0  0  0  0  0  0  0  0  0  0  0
  -15.8070  -25.5023   20.2469 C   0  0  0  0  0  0  0  0  0  0  0  0
  -15.6243  -24.9526   19.1139 O   0  0  0  0  0  0  0  0  0  0  0  0
  -16.7128  -26.3707   20.3862 O   0  0  0  0  0  0  0  0  0  0  0  0
  -16.8487  -26.7764   21.2198 H   0  0  0  0  0  0  0  0  0  0  0  0
  -13.6044  -24.6983   20.8693 N   0  0  0  0  0  0  0  0  0  0  0  0
  -13.2709  -25.4286   20.2402 H   0  0  0  0  0  0  0  0  0  0  0  0
  -12.5516  -24.4410   21.8403 C   0  0  0  0  0  0  0  0  0  0  0  0
  -11.4755  -23.5155   21.2398 C   0  0  0  0  0  0  0  0  0  0  0  0
  -12.1600  -25.9471   23.5791 O   0  0  0  0  0  0  0  0  0  0  0  0
  -11.9064  -25.6449   22.3714 C   0  0  0  0  0  0  0  0  0  0  0  0
  -11.1160  -26.3509   21.6822 O   0  0  0  0  0  0  0  0  0  0  0  0
  -10.9357  -26.1193   20.7924 H   0  0  0  0  0  0  0  0  0  0  0  0
  -15.6485  -24.1160   22.2946 C   0  0  0  0  0  0  0  0  0  0  0  0
  -16.2010  -24.7581   23.6063 C   0  0  0  0  0  0  0  0  0  0  0  0
  -16.1350  -26.2799   23.6864 C   0  0  0  0  0  0  0  0  0  0  0  0
  -16.2078  -26.5259   25.0904 N   0  0  0  0  0  0  0  0  0  0  0  0
  -17.1012  -26.6144   25.4945 H   0  0  0  0  0  0  0  0  0  0  0  0
  -15.1112  -26.6483   25.9214 C   0  0  0  0  0  0  0  0  0  0  0  0
  -13.9684  -27.0494   25.4108 N   0  0  0  0  0  0  0  0  0  0  0  0
  -15.2654  -26.3677   27.1794 N   0  0  0  0  0  0  0  0  0  0  0  0
  -13.9023  -27.2501   24.4492 H   0  0  0  0  0  0  0  0  0  0  0  0
  -16.1425  -26.0708   27.5136 H   0  0  0  0  0  0  0  0  0  0  0  0
  -14.5052  -26.4518   27.7993 H   0  0  0  0  0  0  0  0  0  0  0  0
 10 11  2  0  0  0
  9  8  1  0  0  0
 11 12  1  0  0  0
 11  8  1  0  0  0
  8  6  1  0  0  0
  6  1  1  0  0  0
  3  2  2  0  0  0
  1  2  1  0  0  0
  1 14  1  0  0  0
  2  4  1  0  0  0
 14 15  1  0  0  0
 15 16  1  0  0  0
 16 17  1  0  0  0
 17 19  1  0  0  0
 19 20  2  0  0  0
 19 21  1  0  0  0
  6  7  1  0  0  0
  4  5  1  0  0  0
 17 18  1  0  0  0
 20 22  1  0  0  0
 21 23  1  0  0  0
 21 24  1  0  0  0
 12 13  1  0  0  0
M  END
> <minimizedAffinity>
-6.80826

$$$$
5ORG_6DB_A_321


 24 23  0  0  0  0  0  0  0  0999 V2000
  -15.9249  -25.6124   22.7908 C   0  0  0  0  0  0  0  0  0  0  0  0
  -14.7429  -24.7326   23.0867 C   0  0  0  0  0  0  0  0  0  0  0  0
  -14.9231  -23.6250   23.6868 O   0  0  0  0  0  0  0  0  0  0  0  0
  -13.5754  -25.0941   22.7703 O   0  0  0  0  0  0  0  0  0  0  0  0
  -13.4410  -25.9094   22.3284 H   0  0  0  0  0  0  0  0  0  0  0  0
  -16.5115  -26.0706   24.0703 N   0  0  0  0  0  0  0  0  0  0  0  0
  -16.4905  -25.2829   24.7179 H   0  0  0  0  0  0  0  0  0  0  0  0
  -15.8655  -27.1967   24.7278 C   0  0  0  0  0  0  0  0  0  0  0  0
  -16.9010  -28.0435   25.4932 C   0  0  0  0  0  0  0  0  0  0  0  0
  -15.1157  -26.3610   26.7734 O   0  0  0  0  0  0  0  0  0  0  0  0
  -14.7798  -26.8272   25.6402 C   0  0  0  0  0  0  0  0  0  0  0  0
  -13.5609  -26.9409   25.3252 O   0  0  0  0  0  0  0  0  0  0  0  0
  -13.3239  -27.2859   24.4870 H   0  0  0  0  0  0  0  0  0  0  0  0
  -16.8801  -24.8704   21.8403 C   0  0  0  0  0  0  0  0  0  0  0  0
  -16.2228  -24.5395   20.4632 C   0  0  0  0  0  0  0  0  0  0  0  0
  -15.3223  -25.6204   19.8739 C   0  0  0  0  0  0  0  0  0  0  0  0
  -16.2084  -26.3352   19.0130 N   0  0  0  0  0  0  0  0  0  0  0  0
  -16.9837  -26.7826   19.4227 H   0  0  0  0  0  0  0  0  0  0  0  0
  -16.0529  -26.4424   17.6447 C   0  0  0  0  0  0  0  0  0  0  0  0
  -15.2172  -25.6320   17.0344 N   0  0  0  0  0  0  0  0  0  0  0  0
  -16.7526  -27.3400   17.0203 N   0  0  0  0  0  0  0  0  0  0  0  0
  -14.7088  -24.9673   17.5530 H   0  0  0  0  0  0  0  0  0  0  0  0
  -17.3656  -27.9238   17.5230 H   0  0  0  0  0  0  0  0  0  0  0  0
  -16.6703  -27.4370   16.0440 H   0  0  0  0  0  0  0  0  0  0  0  0
 10 11  2  0  0  0
  9  8  1  0  0  0
 11 12  1  0  0  0
 11  8  1  0  0  0
  8  6  1  0  0  0
  6  1  1  0  0  0
  3  2  2  0  0  0
  1  2  1  0  0  0
  1 14  1  0  0  0
  2  4  1  0  0  0
 14 15  1  0  0  0
 15 16  1  0  0  0
 16 17  1  0  0  0
 17 19  1  0  0  0
 19 20  2  0  0  0
 19 21  1  0  0  0
  6  7  1  0  0  0
  4  5  1  0  0  0
 17 18  1  0  0  0
 20 22  1  0  0  0
 21 23  1  0  0  0
 21 24  1  0  0  0
 12 13  1  0  0  0
M  END
> <minimizedAffinity>
-6.72328

$$$$
5ORG_6DB_A_321


 24 23  0  0  0  0  0  0  0  0999 V2000
  -14.3239  -25.0212   22.3507 C   0  0  0  0  0  0  0  0  0  0  0  0
  -12.8602  -24.8318   22.0672 C   0  0  0  0  0  0  0  0  0  0  0  0
  -12.0004  -25.3953   22.8171 O   0  0  0  0  0  0  0  0  0  0  0  0
  -12.4791  -24.1435   21.0798 O   0  0  0  0  0  0  0  0  0  0  0  0
  -13.1109  -23.7279   20.5266 H   0  0  0  0  0  0  0  0  0  0  0  0
  -14.7387  -24.0510   23.3889 N   0  0  0  0  0  0  0  0  0  0  0  0
  -13.9542  -23.9322   24.0300 H   0  0  0  0  0  0  0  0  0  0  0  0
  -15.9077  -24.3940   24.1847 C   0  0  0  0  0  0  0  0  0  0  0  0
  -16.0011  -25.9199   24.3800 C   0  0  0  0  0  0  0  0  0  0  0  0
  -17.1901  -22.7100   23.2024 O   0  0  0  0  0  0  0  0  0  0  0  0
  -17.1776  -23.9013   23.6440 C   0  0  0  0  0  0  0  0  0  0  0  0
  -18.2268  -24.6063   23.6274 O   0  0  0  0  0  0  0  0  0  0  0  0
  -18.2068  -25.4837   23.9554 H   0  0  0  0  0  0  0  0  0  0  0  0
  -15.1052  -24.9649   21.0268 C   0  0  0  0  0  0  0  0  0  0  0  0
  -16.3846  -25.8597   21.0439 C   0  0  0  0  0  0  0  0  0  0  0  0
  -16.6880  -26.6190   19.7562 C   0  0  0  0  0  0  0  0  0  0  0  0
  -15.7831  -26.0312   18.8220 N   0  0  0  0  0  0  0  0  0  0  0  0
  -15.0263  -25.5135   19.1806 H   0  0  0  0  0  0  0  0  0  0  0  0
  -15.8960  -26.1386   17.4495 C   0  0  0  0  0  0  0  0  0  0  0  0
  -15.2765  -25.2626   16.6903 N   0  0  0  0  0  0  0  0  0  0  0  0
  -16.6223  -27.1024   16.9713 N   0  0  0  0  0  0  0  0  0  0  0  0
  -14.7370  -24.5491   17.1015 H   0  0  0  0  0  0  0  0  0  0  0  0
  -17.0666  -27.7337   17.5822 H   0  0  0  0  0  0  0  0  0  0  0  0
  -16.7288  -27.2020   15.9977 H   0  0  0  0  0  0  0  0  0  0  0  0
 10 11  2  0  0  0
  9  8  1  0  0  0
 11 12  1  0  0  0
 11  8  1  0  0  0
  8  6  1  0  0  0
  6  1  1  0  0  0
  3  2  2  0  0  0
  1  2  1  0  0  0
  1 14  1  0  0  0
  2  4  1  0  0  0
 14 15  1  0  0  0
 15 16  1  0  0  0
 16 17  1  0  0  0
 17 19  1  0  0  0
 19 20  2  0  0  0
 19 21  1  0  0  0
  6  7  1  0  0  0
  4  5  1  0  0  0
 17 18  1  0  0  0
 20 22  1  0  0  0
 21 23  1  0  0  0
 21 24  1  0  0  0
 12 13  1  0  0  0
M  END
> <minimizedAffinity>
-6.47099

$$$$
