4Q4O_2YM_A_406


 29 32  0  0  0  0  0  0  0  0999 V2000
  108.4478   18.3036   23.7636 O   0  0  0  0  0  0  0  0  0  0  0  0
  107.3507   17.9546   23.3365 C   0  0  0  0  0  0  0  0  0  0  0  0
  106.2778   17.6754   24.1719 N   0  0  0  0  0  0  0  0  0  0  0  0
  107.0734   17.8155   21.9049 C   0  0  0  0  0  0  0  0  0  0  0  0
  105.7795   17.4298   21.4929 C   0  0  0  0  0  0  0  0  0  0  0  0
  104.8117   17.1379   22.4499 N   0  0  0  0  0  0  0  0  0  0  0  0
  105.0607   17.2694   23.7668 C   0  0  0  0  0  0  0  0  0  0  0  0
  104.1239   16.9815   24.6503 N   0  0  0  0  0  0  0  0  0  0  0  0
  105.4488   17.4373   20.1310 C   0  0  0  0  0  0  0  0  0  0  0  0
  106.3978   17.8421   19.1915 C   0  0  0  0  0  0  0  0  0  0  0  0
  107.6793   18.1993   19.6134 C   0  0  0  0  0  0  0  0  0  0  0  0
  108.0137   18.1864   20.9502 C   0  0  0  0  0  0  0  0  0  0  0  0
  106.2910   18.0196   17.8127 N   0  0  0  0  0  0  0  0  0  0  0  0
  107.4786   18.4645   17.4439 C   0  0  0  0  0  0  0  0  0  0  0  0
  108.3579   18.5728   18.4669 N   0  0  0  0  0  0  0  0  0  0  0  0
  103.9243   16.8280   22.1571 H   0  0  0  0  0  0  0  0  0  0  0  0
  103.2355   16.6850   24.3469 H   0  0  0  0  0  0  0  0  0  0  0  0
  104.3133   17.0633   25.6129 H   0  0  0  0  0  0  0  0  0  0  0  0
  105.5065   17.8511   17.2422 H   0  0  0  0  0  0  0  0  0  0  0  0
  107.8355   18.8237   16.2107 N   0  0  0  0  0  0  0  0  0  0  0  0
  108.7395   18.5962   15.8941 H   0  0  0  0  0  0  0  0  0  0  0  0
  106.9397   19.5391   15.3151 C   0  0  0  0  0  0  0  0  0  0  0  0
  106.6398   18.7648   14.0503 C   0  0  0  0  0  0  0  0  0  0  0  0
  105.2376   18.2359   14.0068 N   0  0  0  0  0  0  0  0  0  0  0  0
  104.3264   19.0479   14.8679 C   0  0  0  0  0  0  0  0  0  0  0  0
  102.9021   18.5611   14.7510 C   0  0  0  0  0  0  0  0  0  0  0  0
  102.7913   17.0957   15.1200 C   0  0  0  0  0  0  0  0  0  0  0  0
  103.7675   16.2620   14.3088 C   0  0  0  0  0  0  0  0  0  0  0  0
  105.1784   16.7981   14.4138 C   0  0  0  0  0  0  0  0  0  0  0  0
 27 26  1  0  0  0
 27 28  1  0  0  0
 26 25  1  0  0  0
 28 29  1  0  0  0
 25 24  1  0  0  0
 29 24  1  0  0  0
 24 23  1  0  0  0
 23 22  1  0  0  0
 22 20  1  0  0  0
 20 14  1  0  0  0
 14 13  1  0  0  0
 14 15  2  0  0  0
 13 10  1  0  0  0
 15 11  1  0  0  0
 10 11  2  0  0  0
 10  9  1  0  0  0
 11 12  1  0  0  0
  9  5  2  0  0  0
 12  4  2  0  0  0
  5  4  1  0  0  0
  5  6  1  0  0  0
  4  2  1  0  0  0
  6  7  1  0  0  0
  2  1  2  0  0  0
  2  3  1  0  0  0
  7  3  2  0  0  0
  7  8  1  0  0  0
  6 16  1  0  0  0
  8 17  1  0  0  0
  8 18  1  0  0  0
 13 19  1  0  0  0
 20 21  1  0  0  0
M  END
> <minimizedAffinity>
-9.23029

$$$$
4Q4O_2YM_A_406


 29 32  0  0  0  0  0  0  0  0999 V2000
  108.7291   18.2607   22.7423 O   0  0  0  0  0  0  0  0  0  0  0  0
  107.5637   17.9255   22.5491 C   0  0  0  0  0  0  0  0  0  0  0  0
  106.6798   17.6630   23.5867 N   0  0  0  0  0  0  0  0  0  0  0  0
  106.9992   17.7864   21.2046 C   0  0  0  0  0  0  0  0  0  0  0  0
  105.6438   17.4171   21.0664 C   0  0  0  0  0  0  0  0  0  0  0  0
  104.8873   17.1409   22.2018 N   0  0  0  0  0  0  0  0  0  0  0  0
  105.4006   17.2725   23.4398 C   0  0  0  0  0  0  0  0  0  0  0  0
  104.6595   16.9997   24.4969 N   0  0  0  0  0  0  0  0  0  0  0  0
  105.0430   17.4255   19.8002 C   0  0  0  0  0  0  0  0  0  0  0  0
  105.7862   17.8149   18.6852 C   0  0  0  0  0  0  0  0  0  0  0  0
  107.1311   18.1559   18.8357 C   0  0  0  0  0  0  0  0  0  0  0  0
  107.7303   18.1419   20.0766 C   0  0  0  0  0  0  0  0  0  0  0  0
  105.4034   17.9902   17.3560 N   0  0  0  0  0  0  0  0  0  0  0  0
  106.4967   18.4180   16.7510 C   0  0  0  0  0  0  0  0  0  0  0  0
  107.5670   18.5170   17.5732 N   0  0  0  0  0  0  0  0  0  0  0  0
  103.9550   16.8422   22.0973 H   0  0  0  0  0  0  0  0  0  0  0  0
  103.7243   16.7144   24.3821 H   0  0  0  0  0  0  0  0  0  0  0  0
  105.0418   17.0814   25.4004 H   0  0  0  0  0  0  0  0  0  0  0  0
  104.5172   17.8308   16.9579 H   0  0  0  0  0  0  0  0  0  0  0  0
  106.5998   18.7690   15.4691 N   0  0  0  0  0  0  0  0  0  0  0  0
  107.3903   18.4769   14.9601 H   0  0  0  0  0  0  0  0  0  0  0  0
  105.5885   19.5674   14.7938 C   0  0  0  0  0  0  0  0  0  0  0  0
  104.6516   18.7296   13.9514 C   0  0  0  0  0  0  0  0  0  0  0  0
  103.4265   18.2931   14.6973 N   0  0  0  0  0  0  0  0  0  0  0  0
  103.3437   16.8038   14.7767 C   0  0  0  0  0  0  0  0  0  0  0  0
  102.1543   16.3755   15.6021 C   0  0  0  0  0  0  0  0  0  0  0  0
  100.8646   16.9349   15.0370 C   0  0  0  0  0  0  0  0  0  0  0  0
  100.9578   18.4420   14.8754 C   0  0  0  0  0  0  0  0  0  0  0  0
  102.1804   18.8418   14.0789 C   0  0  0  0  0  0  0  0  0  0  0  0
 27 26  1  0  0  0
 27 28  1  0  0  0
 26 25  1  0  0  0
 28 29  1  0  0  0
 25 24  1  0  0  0
 29 24  1  0  0  0
 24 23  1  0  0  0
 23 22  1  0  0  0
 22 20  1  0  0  0
 20 14  1  0  0  0
 14 13  1  0  0  0
 14 15  2  0  0  0
 13 10  1  0  0  0
 15 11  1  0  0  0
 10 11  2  0  0  0
 10  9  1  0  0  0
 11 12  1  0  0  0
  9  5  2  0  0  0
 12  4  2  0  0  0
  5  4  1  0  0  0
  5  6  1  0  0  0
  4  2  1  0  0  0
  6  7  1  0  0  0
  2  1  2  0  0  0
  2  3  1  0  0  0
  7  3  2  0  0  0
  7  8  1  0  0  0
  6 16  1  0  0  0
  8 17  1  0  0  0
  8 18  1  0  0  0
 13 19  1  0  0  0
 20 21  1  0  0  0
M  END
> <minimizedAffinity>
-8.67973

$$$$
4Q4O_2YM_A_406


 29 32  0  0  0  0  0  0  0  0999 V2000
  109.1320   18.3213   21.6189 O   0  0  0  0  0  0  0  0  0  0  0  0
  107.9471   18.0108   21.7070 C   0  0  0  0  0  0  0  0  0  0  0  0
  107.3178   17.8026   22.9266 N   0  0  0  0  0  0  0  0  0  0  0  0
  107.0891   17.8463   20.5312 C   0  0  0  0  0  0  0  0  0  0  0  0
  105.7311   17.5084   20.7172 C   0  0  0  0  0  0  0  0  0  0  0  0
  105.2478   17.2860   22.0035 N   0  0  0  0  0  0  0  0  0  0  0  0
  106.0317   17.4412   23.0874 C   0  0  0  0  0  0  0  0  0  0  0  0
  105.5457   17.2195   24.2939 N   0  0  0  0  0  0  0  0  0  0  0  0
  104.8583   17.4945   19.6207 C   0  0  0  0  0  0  0  0  0  0  0  0
  105.3353   17.8309   18.3532 C   0  0  0  0  0  0  0  0  0  0  0  0
  106.6853   18.1412   18.1827 C   0  0  0  0  0  0  0  0  0  0  0  0
  107.5507   18.1488   19.2551 C   0  0  0  0  0  0  0  0  0  0  0  0
  104.6634   17.9763   17.1402 N   0  0  0  0  0  0  0  0  0  0  0  0
  105.5981   18.3572   16.2884 C   0  0  0  0  0  0  0  0  0  0  0  0
  106.8291   18.4529   16.8425 N   0  0  0  0  0  0  0  0  0  0  0  0
  104.3109   17.0087   22.1237 H   0  0  0  0  0  0  0  0  0  0  0  0
  104.6037   16.9554   24.4043 H   0  0  0  0  0  0  0  0  0  0  0  0
  106.1250   17.3182   25.0838 H   0  0  0  0  0  0  0  0  0  0  0  0
  103.7071   17.8282   16.9593 H   0  0  0  0  0  0  0  0  0  0  0  0
  105.4133   18.6669   15.0050 N   0  0  0  0  0  0  0  0  0  0  0  0
  104.7715   19.3778   14.7770 H   0  0  0  0  0  0  0  0  0  0  0  0
  106.1242   17.9944   13.9287 C   0  0  0  0  0  0  0  0  0  0  0  0
  106.9688   18.9430   13.1063 C   0  0  0  0  0  0  0  0  0  0  0  0
  107.3908   18.3602   11.7911 N   0  0  0  0  0  0  0  0  0  0  0  0
  108.8473   18.5815   11.5439 C   0  0  0  0  0  0  0  0  0  0  0  0
  109.2807   17.9175   10.2592 C   0  0  0  0  0  0  0  0  0  0  0  0
  108.4742   18.4241    9.0808 C   0  0  0  0  0  0  0  0  0  0  0  0
  106.9861   18.2793    9.3460 C   0  0  0  0  0  0  0  0  0  0  0  0
  106.5898   18.9190   10.6587 C   0  0  0  0  0  0  0  0  0  0  0  0
 27 26  1  0  0  0
 27 28  1  0  0  0
 26 25  1  0  0  0
 28 29  1  0  0  0
 25 24  1  0  0  0
 29 24  1  0  0  0
 24 23  1  0  0  0
 23 22  1  0  0  0
 22 20  1  0  0  0
 20 14  1  0  0  0
 14 13  1  0  0  0
 14 15  2  0  0  0
 13 10  1  0  0  0
 15 11  1  0  0  0
 10 11  2  0  0  0
 10  9  1  0  0  0
 11 12  1  0  0  0
  9  5  2  0  0  0
 12  4  2  0  0  0
  5  4  1  0  0  0
  5  6  1  0  0  0
  4  2  1  0  0  0
  6  7  1  0  0  0
  2  1  2  0  0  0
  2  3  1  0  0  0
  7  3  2  0  0  0
  7  8  1  0  0  0
  6 16  1  0  0  0
  8 17  1  0  0  0
  8 18  1  0  0  0
 13 19  1  0  0  0
 20 21  1  0  0  0
M  END
> <minimizedAffinity>
-8.61102

$$$$
4Q4O_2YM_A_406


 29 32  0  0  0  0  0  0  0  0999 V2000
  108.9642   18.3658   21.3861 O   0  0  0  0  0  0  0  0  0  0  0  0
  107.7916   18.0468   21.2091 C   0  0  0  0  0  0  0  0  0  0  0  0
  106.9365   17.7321   22.2562 N   0  0  0  0  0  0  0  0  0  0  0  0
  107.1878   17.9834   19.8760 C   0  0  0  0  0  0  0  0  0  0  0  0
  105.8267   17.6282   19.7576 C   0  0  0  0  0  0  0  0  0  0  0  0
  105.1017   17.2939   20.8978 N   0  0  0  0  0  0  0  0  0  0  0  0
  105.6513   17.3558   22.1257 C   0  0  0  0  0  0  0  0  0  0  0  0
  104.9394   17.0292   23.1876 N   0  0  0  0  0  0  0  0  0  0  0  0
  105.1898   17.7080   18.5117 C   0  0  0  0  0  0  0  0  0  0  0  0
  105.9027   18.1542   17.3983 C   0  0  0  0  0  0  0  0  0  0  0  0
  107.2535   18.4806   17.5278 C   0  0  0  0  0  0  0  0  0  0  0  0
  107.8881   18.3966   18.7481 C   0  0  0  0  0  0  0  0  0  0  0  0
  105.4828   18.4032   16.0923 N   0  0  0  0  0  0  0  0  0  0  0  0
  106.5607   18.8584   15.4797 C   0  0  0  0  0  0  0  0  0  0  0  0
  107.6549   18.9079   16.2746 N   0  0  0  0  0  0  0  0  0  0  0  0
  104.1650   17.0055   20.8045 H   0  0  0  0  0  0  0  0  0  0  0  0
  103.9996   16.7547   23.0848 H   0  0  0  0  0  0  0  0  0  0  0  0
  105.3481   17.0599   24.0827 H   0  0  0  0  0  0  0  0  0  0  0  0
  104.5846   18.2696   15.7121 H   0  0  0  0  0  0  0  0  0  0  0  0
  106.6289   19.2782   14.2163 N   0  0  0  0  0  0  0  0  0  0  0  0
  106.1329   20.0888   13.9591 H   0  0  0  0  0  0  0  0  0  0  0  0
  107.4085   18.5839   13.2032 C   0  0  0  0  0  0  0  0  0  0  0  0
  108.6260   19.3685   12.7657 C   0  0  0  0  0  0  0  0  0  0  0  0
  109.1821   18.9023   11.4538 N   0  0  0  0  0  0  0  0  0  0  0  0
  108.0913   18.4937   10.5187 C   0  0  0  0  0  0  0  0  0  0  0  0
  108.6550   18.1076    9.1724 C   0  0  0  0  0  0  0  0  0  0  0  0
  109.6692   16.9894    9.3027 C   0  0  0  0  0  0  0  0  0  0  0  0
  110.7456   17.3550   10.3094 C   0  0  0  0  0  0  0  0  0  0  0  0
  110.1488   17.7757   11.6345 C   0  0  0  0  0  0  0  0  0  0  0  0
 27 26  1  0  0  0
 27 28  1  0  0  0
 26 25  1  0  0  0
 28 29  1  0  0  0
 25 24  1  0  0  0
 29 24  1  0  0  0
 24 23  1  0  0  0
 23 22  1  0  0  0
 22 20  1  0  0  0
 20 14  1  0  0  0
 14 13  1  0  0  0
 14 15  2  0  0  0
 13 10  1  0  0  0
 15 11  1  0  0  0
 10 11  2  0  0  0
 10  9  1  0  0  0
 11 12  1  0  0  0
  9  5  2  0  0  0
 12  4  2  0  0  0
  5  4  1  0  0  0
  5  6  1  0  0  0
  4  2  1  0  0  0
  6  7  1  0  0  0
  2  1  2  0  0  0
  2  3  1  0  0  0
  7  3  2  0  0  0
  7  8  1  0  0  0
  6 16  1  0  0  0
  8 17  1  0  0  0
  8 18  1  0  0  0
 13 19  1  0  0  0
 20 21  1  0  0  0
M  END
> <minimizedAffinity>
-8.36382

$$$$
4Q4O_2YM_A_406


 29 32  0  0  0  0  0  0  0  0999 V2000
  109.0969   18.3144   21.6048 O   0  0  0  0  0  0  0  0  0  0  0  0
  107.9185   17.9907   21.7254 C   0  0  0  0  0  0  0  0  0  0  0  0
  107.3235   17.7822   22.9620 N   0  0  0  0  0  0  0  0  0  0  0  0
  107.0323   17.8093   20.5732 C   0  0  0  0  0  0  0  0  0  0  0  0
  105.6837   17.4568   20.7963 C   0  0  0  0  0  0  0  0  0  0  0  0
  105.2366   17.2362   22.0959 N   0  0  0  0  0  0  0  0  0  0  0  0
  106.0464   17.4068   23.1582 C   0  0  0  0  0  0  0  0  0  0  0  0
  105.5945   17.1865   24.3782 N   0  0  0  0  0  0  0  0  0  0  0  0
  104.7829   17.4264   19.7230 C   0  0  0  0  0  0  0  0  0  0  0  0
  105.2229   17.7610   18.4417 C   0  0  0  0  0  0  0  0  0  0  0  0
  106.5642   18.0859   18.2345 C   0  0  0  0  0  0  0  0  0  0  0  0
  107.4571   18.1098   19.2839 C   0  0  0  0  0  0  0  0  0  0  0  0
  104.5181   17.8914   17.2458 N   0  0  0  0  0  0  0  0  0  0  0  0
  105.4258   18.2782   16.3678 C   0  0  0  0  0  0  0  0  0  0  0  0
  106.6696   18.3915   16.8892 N   0  0  0  0  0  0  0  0  0  0  0  0
  104.3064   16.9488   22.2420 H   0  0  0  0  0  0  0  0  0  0  0  0
  104.6589   16.9121   24.5145 H   0  0  0  0  0  0  0  0  0  0  0  0
  106.1929   17.2966   25.1522 H   0  0  0  0  0  0  0  0  0  0  0  0
  103.5592   17.7312   17.0906 H   0  0  0  0  0  0  0  0  0  0  0  0
  105.2042   18.5784   15.0880 N   0  0  0  0  0  0  0  0  0  0  0  0
  104.3585   19.0198   14.8446 H   0  0  0  0  0  0  0  0  0  0  0  0
  106.1646   18.2783   14.0375 C   0  0  0  0  0  0  0  0  0  0  0  0
  106.2851   19.3937   13.0222 C   0  0  0  0  0  0  0  0  0  0  0  0
  107.6707   19.5322   12.4668 N   0  0  0  0  0  0  0  0  0  0  0  0
  107.9514   18.4795   11.4449 C   0  0  0  0  0  0  0  0  0  0  0  0
  109.3158   18.6785   10.8300 C   0  0  0  0  0  0  0  0  0  0  0  0
  110.4003   18.6731   11.8882 C   0  0  0  0  0  0  0  0  0  0  0  0
  110.0922   19.6840   12.9786 C   0  0  0  0  0  0  0  0  0  0  0  0
  108.7042   19.4844   13.5466 C   0  0  0  0  0  0  0  0  0  0  0  0
 27 26  1  0  0  0
 27 28  1  0  0  0
 26 25  1  0  0  0
 28 29  1  0  0  0
 25 24  1  0  0  0
 29 24  1  0  0  0
 24 23  1  0  0  0
 23 22  1  0  0  0
 22 20  1  0  0  0
 20 14  1  0  0  0
 14 13  1  0  0  0
 14 15  2  0  0  0
 13 10  1  0  0  0
 15 11  1  0  0  0
 10 11  2  0  0  0
 10  9  1  0  0  0
 11 12  1  0  0  0
  9  5  2  0  0  0
 12  4  2  0  0  0
  5  4  1  0  0  0
  5  6  1  0  0  0
  4  2  1  0  0  0
  6  7  1  0  0  0
  2  1  2  0  0  0
  2  3  1  0  0  0
  7  3  2  0  0  0
  7  8  1  0  0  0
  6 16  1  0  0  0
  8 17  1  0  0  0
  8 18  1  0  0  0
 13 19  1  0  0  0
 20 21  1  0  0  0
M  END
> <minimizedAffinity>
-8.29299

$$$$
4Q4O_2YM_A_406


 29 32  0  0  0  0  0  0  0  0999 V2000
  108.3434   18.3471   24.0432 O   0  0  0  0  0  0  0  0  0  0  0  0
  107.2687   17.9949   23.5648 C   0  0  0  0  0  0  0  0  0  0  0  0
  106.1502   17.7404   24.3465 N   0  0  0  0  0  0  0  0  0  0  0  0
  107.0686   17.8254   22.1236 C   0  0  0  0  0  0  0  0  0  0  0  0
  105.7964   17.4379   21.6504 C   0  0  0  0  0  0  0  0  0  0  0  0
  104.7761   17.1729   22.5595 N   0  0  0  0  0  0  0  0  0  0  0  0
  104.9541   17.3323   23.8847 C   0  0  0  0  0  0  0  0  0  0  0  0
  103.9687   17.0696   24.7221 N   0  0  0  0  0  0  0  0  0  0  0  0
  105.5402   17.4168   20.2726 C   0  0  0  0  0  0  0  0  0  0  0  0
  106.5416   17.7952   19.3775 C   0  0  0  0  0  0  0  0  0  0  0  0
  107.8007   18.1545   19.8605 C   0  0  0  0  0  0  0  0  0  0  0  0
  108.0619   18.1695   21.2135 C   0  0  0  0  0  0  0  0  0  0  0  0
  106.5110   17.9424   17.9914 N   0  0  0  0  0  0  0  0  0  0  0  0
  107.7199   18.3722   17.6780 C   0  0  0  0  0  0  0  0  0  0  0  0
  108.5431   18.4983   18.7448 N   0  0  0  0  0  0  0  0  0  0  0  0
  103.9038   16.8615   22.2257 H   0  0  0  0  0  0  0  0  0  0  0  0
  103.0961   16.7714   24.3773 H   0  0  0  0  0  0  0  0  0  0  0  0
  104.1062   17.1717   25.6915 H   0  0  0  0  0  0  0  0  0  0  0  0
  105.7576   17.7656   17.3829 H   0  0  0  0  0  0  0  0  0  0  0  0
  108.1457   18.7018   16.4585 N   0  0  0  0  0  0  0  0  0  0  0  0
  109.0808   18.5119   16.2160 H   0  0  0  0  0  0  0  0  0  0  0  0
  107.2810   19.3313   15.4726 C   0  0  0  0  0  0  0  0  0  0  0  0
  107.9427   19.4658   14.1185 C   0  0  0  0  0  0  0  0  0  0  0  0
  106.9621   19.4553   12.9845 N   0  0  0  0  0  0  0  0  0  0  0  0
  107.6195   19.8335   11.6976 C   0  0  0  0  0  0  0  0  0  0  0  0
  106.6451   19.7371   10.5484 C   0  0  0  0  0  0  0  0  0  0  0  0
  105.4305   20.6117   10.7843 C   0  0  0  0  0  0  0  0  0  0  0  0
  104.7929   20.2954   12.1257 C   0  0  0  0  0  0  0  0  0  0  0  0
  105.8021   20.3607   13.2511 C   0  0  0  0  0  0  0  0  0  0  0  0
 27 26  1  0  0  0
 27 28  1  0  0  0
 26 25  1  0  0  0
 28 29  1  0  0  0
 25 24  1  0  0  0
 29 24  1  0  0  0
 24 23  1  0  0  0
 23 22  1  0  0  0
 22 20  1  0  0  0
 20 14  1  0  0  0
 14 13  1  0  0  0
 14 15  2  0  0  0
 13 10  1  0  0  0
 15 11  1  0  0  0
 10 11  2  0  0  0
 10  9  1  0  0  0
 11 12  1  0  0  0
  9  5  2  0  0  0
 12  4  2  0  0  0
  5  4  1  0  0  0
  5  6  1  0  0  0
  4  2  1  0  0  0
  6  7  1  0  0  0
  2  1  2  0  0  0
  2  3  1  0  0  0
  7  3  2  0  0  0
  7  8  1  0  0  0
  6 16  1  0  0  0
  8 17  1  0  0  0
  8 18  1  0  0  0
 13 19  1  0  0  0
 20 21  1  0  0  0
M  END
> <minimizedAffinity>
-8.17928

$$$$
4Q4O_2YM_A_406


 29 32  0  0  0  0  0  0  0  0999 V2000
  109.0912   18.3145   21.5789 O   0  0  0  0  0  0  0  0  0  0  0  0
  107.9139   17.9922   21.7129 C   0  0  0  0  0  0  0  0  0  0  0  0
  107.3336   17.7813   22.9562 N   0  0  0  0  0  0  0  0  0  0  0  0
  107.0134   17.8150   20.5712 C   0  0  0  0  0  0  0  0  0  0  0  0
  105.6671   17.4638   20.8097 C   0  0  0  0  0  0  0  0  0  0  0  0
  105.2355   17.2405   22.1141 N   0  0  0  0  0  0  0  0  0  0  0  0
  106.0585   17.4072   23.1669 C   0  0  0  0  0  0  0  0  0  0  0  0
  105.6211   17.1844   24.3917 N   0  0  0  0  0  0  0  0  0  0  0  0
  104.7533   17.4374   19.7473 C   0  0  0  0  0  0  0  0  0  0  0  0
  105.1782   17.7747   18.4617 C   0  0  0  0  0  0  0  0  0  0  0  0
  106.5173   18.0983   18.2390 C   0  0  0  0  0  0  0  0  0  0  0  0
  107.4229   18.1182   19.2775 C   0  0  0  0  0  0  0  0  0  0  0  0
  104.4591   17.9093   17.2748 N   0  0  0  0  0  0  0  0  0  0  0  0
  105.3566   18.2971   16.3869 C   0  0  0  0  0  0  0  0  0  0  0  0
  106.6068   18.4073   16.8933 N   0  0  0  0  0  0  0  0  0  0  0  0
  104.3067   16.9540   22.2707 H   0  0  0  0  0  0  0  0  0  0  0  0
  104.6868   16.9109   24.5387 H   0  0  0  0  0  0  0  0  0  0  0  0
  106.2291   17.2916   25.1586 H   0  0  0  0  0  0  0  0  0  0  0  0
  103.4981   17.7508   17.1309 H   0  0  0  0  0  0  0  0  0  0  0  0
  105.1198   18.6008   15.1106 N   0  0  0  0  0  0  0  0  0  0  0  0
  104.3528   18.1810   14.6582 H   0  0  0  0  0  0  0  0  0  0  0  0
  105.9520   19.5292   14.3610 C   0  0  0  0  0  0  0  0  0  0  0  0
  105.2751   20.8627   14.1305 C   0  0  0  0  0  0  0  0  0  0  0  0
  103.8341   20.8666   14.5443 N   0  0  0  0  0  0  0  0  0  0  0  0
  102.9446   20.4765   13.4095 C   0  0  0  0  0  0  0  0  0  0  0  0
  101.5049   20.3999   13.8577 C   0  0  0  0  0  0  0  0  0  0  0  0
  101.0431   21.7175   14.4463 C   0  0  0  0  0  0  0  0  0  0  0  0
  101.9810   22.1705   15.5513 C   0  0  0  0  0  0  0  0  0  0  0  0
  103.4197   22.1983   15.0838 C   0  0  0  0  0  0  0  0  0  0  0  0
 27 26  1  0  0  0
 27 28  1  0  0  0
 26 25  1  0  0  0
 28 29  1  0  0  0
 25 24  1  0  0  0
 29 24  1  0  0  0
 24 23  1  0  0  0
 23 22  1  0  0  0
 22 20  1  0  0  0
 20 14  1  0  0  0
 14 13  1  0  0  0
 14 15  2  0  0  0
 13 10  1  0  0  0
 15 11  1  0  0  0
 10 11  2  0  0  0
 10  9  1  0  0  0
 11 12  1  0  0  0
  9  5  2  0  0  0
 12  4  2  0  0  0
  5  4  1  0  0  0
  5  6  1  0  0  0
  4  2  1  0  0  0
  6  7  1  0  0  0
  2  1  2  0  0  0
  2  3  1  0  0  0
  7  3  2  0  0  0
  7  8  1  0  0  0
  6 16  1  0  0  0
  8 17  1  0  0  0
  8 18  1  0  0  0
 13 19  1  0  0  0
 20 21  1  0  0  0
M  END
> <minimizedAffinity>
-8.09165

$$$$
4Q4O_2YM_A_406


 29 32  0  0  0  0  0  0  0  0999 V2000
  104.3112   17.4036   19.7392 O   0  0  0  0  0  0  0  0  0  0  0  0
  105.5081   17.6510   19.6202 C   0  0  0  0  0  0  0  0  0  0  0  0
  106.4090   17.5056   20.6662 N   0  0  0  0  0  0  0  0  0  0  0  0
  106.0935   18.1090   18.3578 C   0  0  0  0  0  0  0  0  0  0  0  0
  107.4827   18.3522   18.2964 C   0  0  0  0  0  0  0  0  0  0  0  0
  108.2578   18.2056   19.4433 N   0  0  0  0  0  0  0  0  0  0  0  0
  107.7248   17.7799   20.6044 C   0  0  0  0  0  0  0  0  0  0  0  0
  108.4847   17.6543   21.6757 N   0  0  0  0  0  0  0  0  0  0  0  0
  108.0871   18.6433   17.0658 C   0  0  0  0  0  0  0  0  0  0  0  0
  107.3125   18.6749   15.9056 C   0  0  0  0  0  0  0  0  0  0  0  0
  105.9369   18.4539   15.9868 C   0  0  0  0  0  0  0  0  0  0  0  0
  105.3348   18.1752   17.1946 C   0  0  0  0  0  0  0  0  0  0  0  0
  107.6820   18.8491   14.5726 N   0  0  0  0  0  0  0  0  0  0  0  0
  106.5518   18.7356   13.8988 C   0  0  0  0  0  0  0  0  0  0  0  0
  105.4717   18.5213   14.6855 N   0  0  0  0  0  0  0  0  0  0  0  0
  109.2183   18.4182   19.4047 H   0  0  0  0  0  0  0  0  0  0  0  0
  109.4467   17.8567   21.6234 H   0  0  0  0  0  0  0  0  0  0  0  0
  108.0896   17.3581   22.5274 H   0  0  0  0  0  0  0  0  0  0  0  0
  108.5831   19.0187   14.2141 H   0  0  0  0  0  0  0  0  0  0  0  0
  106.4186   18.7819   12.5732 N   0  0  0  0  0  0  0  0  0  0  0  0
  105.6495   18.3283   12.1583 H   0  0  0  0  0  0  0  0  0  0  0  0
  107.3665   19.4774   11.7164 C   0  0  0  0  0  0  0  0  0  0  0  0
  108.4008   18.5491   11.1181 C   0  0  0  0  0  0  0  0  0  0  0  0
  109.6535   18.4633   11.9373 N   0  0  0  0  0  0  0  0  0  0  0  0
  110.4027   19.7554   11.9166 C   0  0  0  0  0  0  0  0  0  0  0  0
  111.6162   19.6867   12.8122 C   0  0  0  0  0  0  0  0  0  0  0  0
  112.5337   18.5513   12.4062 C   0  0  0  0  0  0  0  0  0  0  0  0
  111.7711   17.2396   12.3455 C   0  0  0  0  0  0  0  0  0  0  0  0
  110.5396   17.3515   11.4737 C   0  0  0  0  0  0  0  0  0  0  0  0
 27 26  1  0  0  0
 27 28  1  0  0  0
 26 25  1  0  0  0
 28 29  1  0  0  0
 25 24  1  0  0  0
 29 24  1  0  0  0
 24 23  1  0  0  0
 23 22  1  0  0  0
 22 20  1  0  0  0
 20 14  1  0  0  0
 14 13  1  0  0  0
 14 15  2  0  0  0
 13 10  1  0  0  0
 15 11  1  0  0  0
 10 11  2  0  0  0
 10  9  1  0  0  0
 11 12  1  0  0  0
  9  5  2  0  0  0
 12  4  2  0  0  0
  5  4  1  0  0  0
  5  6  1  0  0  0
  4  2  1  0  0  0
  6  7  1  0  0  0
  2  1  2  0  0  0
  2  3  1  0  0  0
  7  3  2  0  0  0
  7  8  1  0  0  0
  6 16  1  0  0  0
  8 17  1  0  0  0
  8 18  1  0  0  0
 13 19  1  0  0  0
 20 21  1  0  0  0
M  END
> <minimizedAffinity>
-7.89256

$$$$
4Q4O_2YM_A_406


 29 32  0  0  0  0  0  0  0  0999 V2000
  101.7975   16.7862   16.2163 O   0  0  0  0  0  0  0  0  0  0  0  0
  102.7293   16.5939   16.9927 C   0  0  0  0  0  0  0  0  0  0  0  0
  102.7182   15.5754   17.9358 N   0  0  0  0  0  0  0  0  0  0  0  0
  103.9421   17.4153   16.9825 C   0  0  0  0  0  0  0  0  0  0  0  0
  104.9781   17.1171   17.8939 C   0  0  0  0  0  0  0  0  0  0  0  0
  104.8074   16.0887   18.8163 N   0  0  0  0  0  0  0  0  0  0  0  0
  103.6964   15.3278   18.8258 C   0  0  0  0  0  0  0  0  0  0  0  0
  103.5621   14.3622   19.7151 N   0  0  0  0  0  0  0  0  0  0  0  0
  106.2045   17.7892   17.8017 C   0  0  0  0  0  0  0  0  0  0  0  0
  106.3985   18.7387   16.7978 C   0  0  0  0  0  0  0  0  0  0  0  0
  105.3567   19.0377   15.9185 C   0  0  0  0  0  0  0  0  0  0  0  0
  104.1456   18.3866   16.0086 C   0  0  0  0  0  0  0  0  0  0  0  0
  107.5341   19.4668   16.4450 N   0  0  0  0  0  0  0  0  0  0  0  0
  107.1609   20.1713   15.3920 C   0  0  0  0  0  0  0  0  0  0  0  0
  105.8683   19.9773   15.0412 N   0  0  0  0  0  0  0  0  0  0  0  0
  105.5156   15.9135   19.4774 H   0  0  0  0  0  0  0  0  0  0  0  0
  104.2818   14.1865   20.3634 H   0  0  0  0  0  0  0  0  0  0  0  0
  102.7421   13.8176   19.7303 H   0  0  0  0  0  0  0  0  0  0  0  0
  108.4160   19.4577   16.8825 H   0  0  0  0  0  0  0  0  0  0  0  0
  107.9362   20.9857   14.6759 N   0  0  0  0  0  0  0  0  0  0  0  0
  108.2189   21.8410   15.0730 H   0  0  0  0  0  0  0  0  0  0  0  0
  108.3802   20.6583   13.3298 C   0  0  0  0  0  0  0  0  0  0  0  0
  109.0736   19.3155   13.2555 C   0  0  0  0  0  0  0  0  0  0  0  0
  109.5192   18.9632   11.8681 N   0  0  0  0  0  0  0  0  0  0  0  0
  108.3687   18.5126   11.0286 C   0  0  0  0  0  0  0  0  0  0  0  0
  108.8119   18.2423    9.6110 C   0  0  0  0  0  0  0  0  0  0  0  0
  109.9176   17.2072    9.5700 C   0  0  0  0  0  0  0  0  0  0  0  0
  111.0650   17.6101   10.4795 C   0  0  0  0  0  0  0  0  0  0  0  0
  110.5839   17.9132   11.8816 C   0  0  0  0  0  0  0  0  0  0  0  0
 27 26  1  0  0  0
 27 28  1  0  0  0
 26 25  1  0  0  0
 28 29  1  0  0  0
 25 24  1  0  0  0
 29 24  1  0  0  0
 24 23  1  0  0  0
 23 22  1  0  0  0
 22 20  1  0  0  0
 20 14  1  0  0  0
 14 13  1  0  0  0
 14 15  2  0  0  0
 13 10  1  0  0  0
 15 11  1  0  0  0
 10 11  2  0  0  0
 10  9  1  0  0  0
 11 12  1  0  0  0
  9  5  2  0  0  0
 12  4  2  0  0  0
  5  4  1  0  0  0
  5  6  1  0  0  0
  4  2  1  0  0  0
  6  7  1  0  0  0
  2  1  2  0  0  0
  2  3  1  0  0  0
  7  3  2  0  0  0
  7  8  1  0  0  0
  6 16  1  0  0  0
  8 17  1  0  0  0
  8 18  1  0  0  0
 13 19  1  0  0  0
 20 21  1  0  0  0
M  END
> <minimizedAffinity>
-7.53790

$$$$
4Q4O_2YM_A_406


 29 32  0  0  0  0  0  0  0  0999 V2000
  109.5009   18.4315   21.1830 O   0  0  0  0  0  0  0  0  0  0  0  0
  108.3507   18.0956   21.4515 C   0  0  0  0  0  0  0  0  0  0  0  0
  107.9175   17.8877   22.7538 N   0  0  0  0  0  0  0  0  0  0  0  0
  107.3294   17.8979   20.4202 C   0  0  0  0  0  0  0  0  0  0  0  0
  106.0234   17.5319   20.8118 C   0  0  0  0  0  0  0  0  0  0  0  0
  105.7451   17.3138   22.1581 N   0  0  0  0  0  0  0  0  0  0  0  0
  106.6795   17.4994   23.1099 C   0  0  0  0  0  0  0  0  0  0  0  0
  106.3863   17.2811   24.3778 N   0  0  0  0  0  0  0  0  0  0  0  0
  104.9959   17.4854   19.8598 C   0  0  0  0  0  0  0  0  0  0  0  0
  105.2682   17.8175   18.5321 C   0  0  0  0  0  0  0  0  0  0  0  0
  106.5692   18.1560   18.1572 C   0  0  0  0  0  0  0  0  0  0  0  0
  107.5860   18.1957   19.0865 C   0  0  0  0  0  0  0  0  0  0  0  0
  104.4178   17.9334   17.4333 N   0  0  0  0  0  0  0  0  0  0  0  0
  105.2040   18.3252   16.4470 C   0  0  0  0  0  0  0  0  0  0  0  0
  106.5018   18.4551   16.8080 N   0  0  0  0  0  0  0  0  0  0  0  0
  104.8439   17.0170   22.4207 H   0  0  0  0  0  0  0  0  0  0  0  0
  105.4784   16.9971   24.6313 H   0  0  0  0  0  0  0  0  0  0  0  0
  107.0756   17.4021   25.0703 H   0  0  0  0  0  0  0  0  0  0  0  0
  103.4490   17.7617   17.4001 H   0  0  0  0  0  0  0  0  0  0  0  0
  104.8205   18.6155   15.2037 N   0  0  0  0  0  0  0  0  0  0  0  0
  105.4725   18.5197   14.4724 H   0  0  0  0  0  0  0  0  0  0  0  0
  103.4750   19.0687   14.8868 C   0  0  0  0  0  0  0  0  0  0  0  0
  103.2788   20.5447   15.1556 C   0  0  0  0  0  0  0  0  0  0  0  0
  103.4535   21.3908   13.9303 N   0  0  0  0  0  0  0  0  0  0  0  0
  104.7870   22.0638   13.9235 C   0  0  0  0  0  0  0  0  0  0  0  0
  104.9879   22.8442   12.6468 C   0  0  0  0  0  0  0  0  0  0  0  0
  103.8905   23.8707   12.4530 C   0  0  0  0  0  0  0  0  0  0  0  0
  102.5224   23.2168   12.5349 C   0  0  0  0  0  0  0  0  0  0  0  0
  102.3663   22.4098   13.8052 C   0  0  0  0  0  0  0  0  0  0  0  0
 27 26  1  0  0  0
 27 28  1  0  0  0
 26 25  1  0  0  0
 28 29  1  0  0  0
 25 24  1  0  0  0
 29 24  1  0  0  0
 24 23  1  0  0  0
 23 22  1  0  0  0
 22 20  1  0  0  0
 20 14  1  0  0  0
 14 13  1  0  0  0
 14 15  2  0  0  0
 13 10  1  0  0  0
 15 11  1  0  0  0
 10 11  2  0  0  0
 10  9  1  0  0  0
 11 12  1  0  0  0
  9  5  2  0  0  0
 12  4  2  0  0  0
  5  4  1  0  0  0
  5  6  1  0  0  0
  4  2  1  0  0  0
  6  7  1  0  0  0
  2  1  2  0  0  0
  2  3  1  0  0  0
  7  3  2  0  0  0
  7  8  1  0  0  0
  6 16  1  0  0  0
  8 17  1  0  0  0
  8 18  1  0  0  0
 13 19  1  0  0  0
 20 21  1  0  0  0
M  END
> <minimizedAffinity>
-7.48465

$$$$
