5EWK_P34_A_301


 24 26  0  0  0  0  0  0  0  0999 V2000
   21.7005   32.9664   21.3164 C   0  0  0  0  0  0  0  0  0  0  0  0
   23.0544   32.7911   21.0153 C   0  0  0  0  0  0  0  0  0  0  0  0
   23.8856   33.9422   20.9774 C   0  0  0  0  0  0  0  0  0  0  0  0
   25.3216   33.9114   20.6625 C   0  0  0  0  0  0  0  0  0  0  0  0
   25.9975   32.7218   20.3980 C   0  0  0  0  0  0  0  0  0  0  0  0
   27.3445   32.7420   20.1047 C   0  0  0  0  0  0  0  0  0  0  0  0
   28.0752   33.9372   20.1213 C   0  0  0  0  0  0  0  0  0  0  0  0
   27.4066   35.1340   20.3983 C   0  0  0  0  0  0  0  0  0  0  0  0
   26.0501   35.1168   20.6761 C   0  0  0  0  0  0  0  0  0  0  0  0
   25.4002   36.4094   20.9117 C   0  0  0  0  0  0  0  0  0  0  0  0
   26.0048   37.4867   20.9192 O   0  0  0  0  0  0  0  0  0  0  0  0
   24.0793   36.3870   21.1940 N   0  0  0  0  0  0  0  0  0  0  0  0
   23.3128   35.1873   21.2174 C   0  0  0  0  0  0  0  0  0  0  0  0
   21.9568   35.3351   21.5213 C   0  0  0  0  0  0  0  0  0  0  0  0
   21.1761   34.2198   21.5353 C   0  0  0  0  0  0  0  0  0  0  0  0
   23.6264   37.2383   21.3926 H   0  0  0  0  0  0  0  0  0  0  0  0
   20.0383   31.4492   20.3370 C   0  0  0  0  0  0  0  0  0  0  0  0
   19.2758   30.4772   20.4111 O   0  0  0  0  0  0  0  0  0  0  0  0
   20.8125   31.8621   21.3957 N   0  0  0  0  0  0  0  0  0  0  0  0
   20.7481   31.3701   22.2460 H   0  0  0  0  0  0  0  0  0  0  0  0
   20.1053   32.2941   19.0447 C   0  0  0  0  0  0  0  0  0  0  0  0
   18.4066   33.0291   17.5487 C   0  0  0  0  0  0  0  0  0  0  0  0
   19.3366   31.9520   17.8696 N   0  0  0  0  0  0  0  0  0  0  0  0
   20.2360   31.7897   16.7612 C   0  0  0  0  0  0  0  0  0  0  0  0
 22 23  1  0  0  0
 23 24  1  0  0  0
 23 21  1  0  0  0
 21 17  1  0  0  0
 17 18  2  0  0  0
 17 19  1  0  0  0
 19  1  1  0  0  0
  1  2  1  0  0  0
  1 15  2  0  0  0
  2  3  2  0  0  0
  3  4  1  0  0  0
  3 13  1  0  0  0
  4  5  1  0  0  0
  4  9  2  0  0  0
  5  6  2  0  0  0
  6  7  1  0  0  0
  7  8  2  0  0  0
  8  9  1  0  0  0
  9 10  1  0  0  0
 10 11  2  0  0  0
 10 12  1  0  0  0
 12 13  1  0  0  0
 13 14  2  0  0  0
 14 15  1  0  0  0
 19 20  1  0  0  0
 12 16  1  0  0  0
M  END
> <minimizedAffinity>
-8.45706

$$$$
5EWK_P34_A_301


 24 26  0  0  0  0  0  0  0  0999 V2000
   21.8549   33.0794   21.2740 C   0  0  0  0  0  0  0  0  0  0  0  0
   22.7868   34.1098   21.1184 C   0  0  0  0  0  0  0  0  0  0  0  0
   24.1631   33.7637   21.0616 C   0  0  0  0  0  0  0  0  0  0  0  0
   25.2528   34.7401   20.9144 C   0  0  0  0  0  0  0  0  0  0  0  0
   25.0118   36.1070   20.7891 C   0  0  0  0  0  0  0  0  0  0  0  0
   26.0656   36.9858   20.6558 C   0  0  0  0  0  0  0  0  0  0  0  0
   27.3887   36.5304   20.5848 C   0  0  0  0  0  0  0  0  0  0  0  0
   27.6379   35.1588   20.6970 C   0  0  0  0  0  0  0  0  0  0  0  0
   26.5812   34.2768   20.8482 C   0  0  0  0  0  0  0  0  0  0  0  0
   26.9131   32.8579   21.0072 C   0  0  0  0  0  0  0  0  0  0  0  0
   28.0665   32.4174   20.9667 O   0  0  0  0  0  0  0  0  0  0  0  0
   25.8786   31.9996   21.1424 N   0  0  0  0  0  0  0  0  0  0  0  0
   24.5204   32.4248   21.1862 C   0  0  0  0  0  0  0  0  0  0  0  0
   23.5685   31.4127   21.3359 C   0  0  0  0  0  0  0  0  0  0  0  0
   22.2565   31.7696   21.4047 C   0  0  0  0  0  0  0  0  0  0  0  0
   26.0726   31.0371   21.2139 H   0  0  0  0  0  0  0  0  0  0  0  0
   19.6244   33.1088   20.2502 C   0  0  0  0  0  0  0  0  0  0  0  0
   18.4079   33.3309   20.2994 O   0  0  0  0  0  0  0  0  0  0  0  0
   20.4612   33.3442   21.3156 N   0  0  0  0  0  0  0  0  0  0  0  0
   20.0766   33.7125   22.1437 H   0  0  0  0  0  0  0  0  0  0  0  0
   20.2758   32.6075   18.9414 C   0  0  0  0  0  0  0  0  0  0  0  0
   19.5100   30.4160   19.4652 C   0  0  0  0  0  0  0  0  0  0  0  0
   19.9999   31.2931   18.4076 N   0  0  0  0  0  0  0  0  0  0  0  0
   18.9748   31.4071   17.4076 C   0  0  0  0  0  0  0  0  0  0  0  0
 22 23  1  0  0  0
 23 24  1  0  0  0
 23 21  1  0  0  0
 21 17  1  0  0  0
 17 18  2  0  0  0
 17 19  1  0  0  0
 19  1  1  0  0  0
  1  2  1  0  0  0
  1 15  2  0  0  0
  2  3  2  0  0  0
  3  4  1  0  0  0
  3 13  1  0  0  0
  4  5  1  0  0  0
  4  9  2  0  0  0
  5  6  2  0  0  0
  6  7  1  0  0  0
  7  8  2  0  0  0
  8  9  1  0  0  0
  9 10  1  0  0  0
 10 11  2  0  0  0
 10 12  1  0  0  0
 12 13  1  0  0  0
 13 14  2  0  0  0
 14 15  1  0  0  0
 19 20  1  0  0  0
 12 16  1  0  0  0
M  END
> <minimizedAffinity>
-8.33053

$$$$
5EWK_P34_A_301


 24 26  0  0  0  0  0  0  0  0999 V2000
   21.6745   34.7816   21.2603 C   0  0  0  0  0  0  0  0  0  0  0  0
   22.8815   34.1288   20.9934 C   0  0  0  0  0  0  0  0  0  0  0  0
   24.0657   34.9108   20.9338 C   0  0  0  0  0  0  0  0  0  0  0  0
   25.4008   34.3638   20.6498 C   0  0  0  0  0  0  0  0  0  0  0  0
   25.6154   33.0030   20.4398 C   0  0  0  0  0  0  0  0  0  0  0  0
   26.8849   32.5358   20.1738 C   0  0  0  0  0  0  0  0  0  0  0  0
   27.9904   33.3966   20.1651 C   0  0  0  0  0  0  0  0  0  0  0  0
   27.7850   34.7620   20.3877 C   0  0  0  0  0  0  0  0  0  0  0  0
   26.5077   35.2347   20.6378 C   0  0  0  0  0  0  0  0  0  0  0  0
   26.3541   36.6815   20.8161 C   0  0  0  0  0  0  0  0  0  0  0  0
   27.2998   37.4761   20.7997 O   0  0  0  0  0  0  0  0  0  0  0  0
   25.1081   37.1370   21.0717 N   0  0  0  0  0  0  0  0  0  0  0  0
   23.9674   36.2862   21.1197 C   0  0  0  0  0  0  0  0  0  0  0  0
   22.7486   36.9141   21.3903 C   0  0  0  0  0  0  0  0  0  0  0  0
   21.6245   36.1469   21.4259 C   0  0  0  0  0  0  0  0  0  0  0  0
   24.9833   38.1003   21.2319 H   0  0  0  0  0  0  0  0  0  0  0  0
   20.3078   32.9411   22.1375 C   0  0  0  0  0  0  0  0  0  0  0  0
   19.2357   32.3295   22.2272 O   0  0  0  0  0  0  0  0  0  0  0  0
   20.4534   34.0649   21.3585 N   0  0  0  0  0  0  0  0  0  0  0  0
   19.6764   34.3865   20.8465 H   0  0  0  0  0  0  0  0  0  0  0  0
   21.5691   32.4194   22.8622 C   0  0  0  0  0  0  0  0  0  0  0  0
   23.3387   30.8369   22.6950 C   0  0  0  0  0  0  0  0  0  0  0  0
   21.9042   31.0138   22.8925 N   0  0  0  0  0  0  0  0  0  0  0  0
   21.5599   30.4852   24.1831 C   0  0  0  0  0  0  0  0  0  0  0  0
 22 23  1  0  0  0
 23 24  1  0  0  0
 23 21  1  0  0  0
 21 17  1  0  0  0
 17 18  2  0  0  0
 17 19  1  0  0  0
 19  1  1  0  0  0
  1  2  1  0  0  0
  1 15  2  0  0  0
  2  3  2  0  0  0
  3  4  1  0  0  0
  3 13  1  0  0  0
  4  5  1  0  0  0
  4  9  2  0  0  0
  5  6  2  0  0  0
  6  7  1  0  0  0
  7  8  2  0  0  0
  8  9  1  0  0  0
  9 10  1  0  0  0
 10 11  2  0  0  0
 10 12  1  0  0  0
 12 13  1  0  0  0
 13 14  2  0  0  0
 14 15  1  0  0  0
 19 20  1  0  0  0
 12 16  1  0  0  0
M  END
> <minimizedAffinity>
-8.05690

$$$$
5EWK_P34_A_301


 24 26  0  0  0  0  0  0  0  0999 V2000
   23.0985   31.3391   21.4297 C   0  0  0  0  0  0  0  0  0  0  0  0
   24.2629   32.0626   21.1558 C   0  0  0  0  0  0  0  0  0  0  0  0
   24.1849   33.4808   21.1575 C   0  0  0  0  0  0  0  0  0  0  0  0
   25.3223   34.3688   20.8741 C   0  0  0  0  0  0  0  0  0  0  0  0
   26.5976   33.8769   20.6030 C   0  0  0  0  0  0  0  0  0  0  0  0
   27.6335   34.7478   20.3402 C   0  0  0  0  0  0  0  0  0  0  0  0
   27.4494   36.1356   20.3950 C   0  0  0  0  0  0  0  0  0  0  0  0
   26.1751   36.6373   20.6790 C   0  0  0  0  0  0  0  0  0  0  0  0
   25.1300   35.7631   20.9261 C   0  0  0  0  0  0  0  0  0  0  0  0
   23.8103   36.3523   21.1708 C   0  0  0  0  0  0  0  0  0  0  0  0
   23.6024   37.5693   21.2116 O   0  0  0  0  0  0  0  0  0  0  0  0
   22.7961   35.4962   21.4233 N   0  0  0  0  0  0  0  0  0  0  0  0
   22.9550   34.0814   21.4075 C   0  0  0  0  0  0  0  0  0  0  0  0
   21.8063   33.3350   21.6838 C   0  0  0  0  0  0  0  0  0  0  0  0
   21.9011   31.9771   21.6600 C   0  0  0  0  0  0  0  0  0  0  0  0
   21.9073   35.8674   21.6273 H   0  0  0  0  0  0  0  0  0  0  0  0
   23.0559   29.2059   22.6429 C   0  0  0  0  0  0  0  0  0  0  0  0
   23.0472   27.9685   22.6675 O   0  0  0  0  0  0  0  0  0  0  0  0
   23.1027   29.9203   21.4690 N   0  0  0  0  0  0  0  0  0  0  0  0
   23.1407   29.4261   20.6184 H   0  0  0  0  0  0  0  0  0  0  0  0
   23.0791   30.0143   23.9599 C   0  0  0  0  0  0  0  0  0  0  0  0
   20.7327   29.6881   24.1870 C   0  0  0  0  0  0  0  0  0  0  0  0
   21.9749   29.9847   24.8919 N   0  0  0  0  0  0  0  0  0  0  0  0
   22.2081   28.9402   25.8503 C   0  0  0  0  0  0  0  0  0  0  0  0
 22 23  1  0  0  0
 23 24  1  0  0  0
 23 21  1  0  0  0
 21 17  1  0  0  0
 17 18  2  0  0  0
 17 19  1  0  0  0
 19  1  1  0  0  0
  1  2  1  0  0  0
  1 15  2  0  0  0
  2  3  2  0  0  0
  3  4  1  0  0  0
  3 13  1  0  0  0
  4  5  1  0  0  0
  4  9  2  0  0  0
  5  6  2  0  0  0
  6  7  1  0  0  0
  7  8  2  0  0  0
  8  9  1  0  0  0
  9 10  1  0  0  0
 10 11  2  0  0  0
 10 12  1  0  0  0
 12 13  1  0  0  0
 13 14  2  0  0  0
 14 15  1  0  0  0
 19 20  1  0  0  0
 12 16  1  0  0  0
M  END
> <minimizedAffinity>
-7.77295

$$$$
5EWK_P34_A_301


 24 26  0  0  0  0  0  0  0  0999 V2000
   21.1416   32.7359   21.1997 C   0  0  0  0  0  0  0  0  0  0  0  0
   20.8190   31.8046   22.1911 C   0  0  0  0  0  0  0  0  0  0  0  0
   21.8770   31.0645   22.7830 C   0  0  0  0  0  0  0  0  0  0  0  0
   21.6865   30.0446   23.8251 C   0  0  0  0  0  0  0  0  0  0  0  0
   20.4293   29.7388   24.3425 C   0  0  0  0  0  0  0  0  0  0  0  0
   20.2987   28.7728   25.3174 C   0  0  0  0  0  0  0  0  0  0  0  0
   21.4183   28.1207   25.8506 C   0  0  0  0  0  0  0  0  0  0  0  0
   22.6850   28.4312   25.3455 C   0  0  0  0  0  0  0  0  0  0  0  0
   22.8154   29.3890   24.3540 C   0  0  0  0  0  0  0  0  0  0  0  0
   24.1643   29.6339   23.8353 C   0  0  0  0  0  0  0  0  0  0  0  0
   25.1749   29.0692   24.2663 O   0  0  0  0  0  0  0  0  0  0  0  0
   24.2885   30.5776   22.8766 N   0  0  0  0  0  0  0  0  0  0  0  0
   23.1761   31.2823   22.3350 C   0  0  0  0  0  0  0  0  0  0  0  0
   23.4728   32.2234   21.3454 C   0  0  0  0  0  0  0  0  0  0  0  0
   22.4410   32.9089   20.7806 C   0  0  0  0  0  0  0  0  0  0  0  0
   25.1885   30.7874   22.5372 H   0  0  0  0  0  0  0  0  0  0  0  0
   19.3253   33.0544   19.5798 C   0  0  0  0  0  0  0  0  0  0  0  0
   18.4478   33.7496   19.0524 O   0  0  0  0  0  0  0  0  0  0  0  0
   20.1422   33.5296   20.5787 N   0  0  0  0  0  0  0  0  0  0  0  0
   20.0288   34.4612   20.8761 H   0  0  0  0  0  0  0  0  0  0  0  0
   19.5862   31.6143   19.0832 C   0  0  0  0  0  0  0  0  0  0  0  0
   20.0340   31.5156   16.7479 C   0  0  0  0  0  0  0  0  0  0  0  0
   19.0980   31.1487   17.8050 N   0  0  0  0  0  0  0  0  0  0  0  0
   19.0015   29.7159   17.8422 C   0  0  0  0  0  0  0  0  0  0  0  0
 22 23  1  0  0  0
 23 24  1  0  0  0
 23 21  1  0  0  0
 21 17  1  0  0  0
 17 18  2  0  0  0
 17 19  1  0  0  0
 19  1  1  0  0  0
  1  2  1  0  0  0
  1 15  2  0  0  0
  2  3  2  0  0  0
  3  4  1  0  0  0
  3 13  1  0  0  0
  4  5  1  0  0  0
  4  9  2  0  0  0
  5  6  2  0  0  0
  6  7  1  0  0  0
  7  8  2  0  0  0
  8  9  1  0  0  0
  9 10  1  0  0  0
 10 11  2  0  0  0
 10 12  1  0  0  0
 12 13  1  0  0  0
 13 14  2  0  0  0
 14 15  1  0  0  0
 19 20  1  0  0  0
 12 16  1  0  0  0
M  END
> <minimizedAffinity>
-7.23642

$$$$
5EWK_P34_A_301


 24 26  0  0  0  0  0  0  0  0999 V2000
   22.3960   33.6695   21.1011 C   0  0  0  0  0  0  0  0  0  0  0  0
   21.6398   32.9038   21.9934 C   0  0  0  0  0  0  0  0  0  0  0  0
   22.2651   31.7906   22.6158 C   0  0  0  0  0  0  0  0  0  0  0  0
   21.5909   30.8903   23.5630 C   0  0  0  0  0  0  0  0  0  0  0  0
   20.2663   31.0802   23.9520 C   0  0  0  0  0  0  0  0  0  0  0  0
   19.6746   30.2085   24.8412 C   0  0  0  0  0  0  0  0  0  0  0  0
   20.3963   29.1544   25.4166 C   0  0  0  0  0  0  0  0  0  0  0  0
   21.7301   28.9647   25.0409 C   0  0  0  0  0  0  0  0  0  0  0  0
   22.3202   29.8296   24.1346 C   0  0  0  0  0  0  0  0  0  0  0  0
   23.7056   29.5479   23.7475 C   0  0  0  0  0  0  0  0  0  0  0  0
   24.3715   28.6202   24.2187 O   0  0  0  0  0  0  0  0  0  0  0  0
   24.2812   30.4011   22.8723 N   0  0  0  0  0  0  0  0  0  0  0  0
   23.5872   31.5011   22.2929 C   0  0  0  0  0  0  0  0  0  0  0  0
   24.3231   32.2858   21.4010 C   0  0  0  0  0  0  0  0  0  0  0  0
   23.6981   33.3375   20.8038 C   0  0  0  0  0  0  0  0  0  0  0  0
   25.2227   30.2557   22.6240 H   0  0  0  0  0  0  0  0  0  0  0  0
   21.7347   36.0330   21.0768 C   0  0  0  0  0  0  0  0  0  0  0  0
   21.2670   37.0258   20.5046 O   0  0  0  0  0  0  0  0  0  0  0  0
   21.8480   34.8101   20.4584 N   0  0  0  0  0  0  0  0  0  0  0  0
   21.5352   34.7218   19.5291 H   0  0  0  0  0  0  0  0  0  0  0  0
   22.1604   36.1134   22.5603 C   0  0  0  0  0  0  0  0  0  0  0  0
   20.8104   35.7771   24.4911 C   0  0  0  0  0  0  0  0  0  0  0  0
   21.3381   36.7637   23.5551 N   0  0  0  0  0  0  0  0  0  0  0  0
   22.1514   37.6914   24.2911 C   0  0  0  0  0  0  0  0  0  0  0  0
 22 23  1  0  0  0
 23 24  1  0  0  0
 23 21  1  0  0  0
 21 17  1  0  0  0
 17 18  2  0  0  0
 17 19  1  0  0  0
 19  1  1  0  0  0
  1  2  1  0  0  0
  1 15  2  0  0  0
  2  3  2  0  0  0
  3  4  1  0  0  0
  3 13  1  0  0  0
  4  5  1  0  0  0
  4  9  2  0  0  0
  5  6  2  0  0  0
  6  7  1  0  0  0
  7  8  2  0  0  0
  8  9  1  0  0  0
  9 10  1  0  0  0
 10 11  2  0  0  0
 10 12  1  0  0  0
 12 13  1  0  0  0
 13 14  2  0  0  0
 14 15  1  0  0  0
 19 20  1  0  0  0
 12 16  1  0  0  0
M  END
> <minimizedAffinity>
-7.14825

$$$$
5EWK_P34_A_301


 24 26  0  0  0  0  0  0  0  0999 V2000
   20.5022   32.0661   22.5644 C   0  0  0  0  0  0  0  0  0  0  0  0
   20.6557   33.2367   23.3130 C   0  0  0  0  0  0  0  0  0  0  0  0
   21.1106   34.4038   22.6434 C   0  0  0  0  0  0  0  0  0  0  0  0
   21.3305   35.6993   23.3034 C   0  0  0  0  0  0  0  0  0  0  0  0
   21.0782   35.8927   24.6602 C   0  0  0  0  0  0  0  0  0  0  0  0
   21.3019   37.1249   25.2367 C   0  0  0  0  0  0  0  0  0  0  0  0
   21.7281   38.2194   24.4727 C   0  0  0  0  0  0  0  0  0  0  0  0
   21.9714   38.0365   23.1076 C   0  0  0  0  0  0  0  0  0  0  0  0
   21.7636   36.7948   22.5312 C   0  0  0  0  0  0  0  0  0  0  0  0
   22.0819   36.6579   21.1069 C   0  0  0  0  0  0  0  0  0  0  0  0
   22.4750   37.5931   20.4019 O   0  0  0  0  0  0  0  0  0  0  0  0
   21.8663   35.4480   20.5459 N   0  0  0  0  0  0  0  0  0  0  0  0
   21.4031   34.3230   21.2855 C   0  0  0  0  0  0  0  0  0  0  0  0
   21.2362   33.1412   20.5586 C   0  0  0  0  0  0  0  0  0  0  0  0
   20.8154   32.0310   21.2248 C   0  0  0  0  0  0  0  0  0  0  0  0
   22.0371   35.3394   19.5824 H   0  0  0  0  0  0  0  0  0  0  0  0
   20.8548   29.9827   23.8133 C   0  0  0  0  0  0  0  0  0  0  0  0
   20.4325   28.9449   24.3390 O   0  0  0  0  0  0  0  0  0  0  0  0
   20.0299   30.8664   23.1580 N   0  0  0  0  0  0  0  0  0  0  0  0
   19.0697   30.6579   23.0980 H   0  0  0  0  0  0  0  0  0  0  0  0
   22.3669   30.3022   23.8171 C   0  0  0  0  0  0  0  0  0  0  0  0
   23.8807   28.4725   23.9723 C   0  0  0  0  0  0  0  0  0  0  0  0
   23.3191   29.4916   23.0925 N   0  0  0  0  0  0  0  0  0  0  0  0
   22.6362   28.8291   22.0161 C   0  0  0  0  0  0  0  0  0  0  0  0
 22 23  1  0  0  0
 23 24  1  0  0  0
 23 21  1  0  0  0
 21 17  1  0  0  0
 17 18  2  0  0  0
 17 19  1  0  0  0
 19  1  1  0  0  0
  1  2  1  0  0  0
  1 15  2  0  0  0
  2  3  2  0  0  0
  3  4  1  0  0  0
  3 13  1  0  0  0
  4  5  1  0  0  0
  4  9  2  0  0  0
  5  6  2  0  0  0
  6  7  1  0  0  0
  7  8  2  0  0  0
  8  9  1  0  0  0
  9 10  1  0  0  0
 10 11  2  0  0  0
 10 12  1  0  0  0
 12 13  1  0  0  0
 13 14  2  0  0  0
 14 15  1  0  0  0
 19 20  1  0  0  0
 12 16  1  0  0  0
M  END
> <minimizedAffinity>
-6.72958

$$$$
5EWK_P34_A_301


 24 26  0  0  0  0  0  0  0  0999 V2000
   21.6597   32.4752   21.1310 C   0  0  0  0  0  0  0  0  0  0  0  0
   21.3240   33.8300   21.2075 C   0  0  0  0  0  0  0  0  0  0  0  0
   22.3777   34.7822   21.1863 C   0  0  0  0  0  0  0  0  0  0  0  0
   22.1760   36.2363   21.2727 C   0  0  0  0  0  0  0  0  0  0  0  0
   20.9066   36.8052   21.3564 C   0  0  0  0  0  0  0  0  0  0  0  0
   20.7662   38.1742   21.4383 C   0  0  0  0  0  0  0  0  0  0  0  0
   21.8781   39.0247   21.3816 C   0  0  0  0  0  0  0  0  0  0  0  0
   23.1548   38.4619   21.2848 C   0  0  0  0  0  0  0  0  0  0  0  0
   23.2980   37.0861   21.2198 C   0  0  0  0  0  0  0  0  0  0  0  0
   24.6646   36.5587   21.1668 C   0  0  0  0  0  0  0  0  0  0  0  0
   25.6717   37.2731   21.1314 O   0  0  0  0  0  0  0  0  0  0  0  0
   24.7993   35.2165   21.0915 N   0  0  0  0  0  0  0  0  0  0  0  0
   23.6897   34.3245   21.1141 C   0  0  0  0  0  0  0  0  0  0  0  0
   23.9985   32.9640   21.0334 C   0  0  0  0  0  0  0  0  0  0  0  0
   22.9734   32.0690   21.0725 C   0  0  0  0  0  0  0  0  0  0  0  0
   25.7052   34.8383   21.0177 H   0  0  0  0  0  0  0  0  0  0  0  0
   19.9292   31.1495   20.0030 C   0  0  0  0  0  0  0  0  0  0  0  0
   19.0692   30.2595   20.0016 O   0  0  0  0  0  0  0  0  0  0  0  0
   20.6615   31.4663   21.1230 N   0  0  0  0  0  0  0  0  0  0  0  0
   20.4856   30.9716   21.9558 H   0  0  0  0  0  0  0  0  0  0  0  0
   20.1756   32.0011   18.7372 C   0  0  0  0  0  0  0  0  0  0  0  0
   18.4042   32.5354   17.2405 C   0  0  0  0  0  0  0  0  0  0  0  0
   19.2516   33.0309   18.3196 N   0  0  0  0  0  0  0  0  0  0  0  0
   18.4089   33.3731   19.4316 C   0  0  0  0  0  0  0  0  0  0  0  0
 22 23  1  0  0  0
 23 24  1  0  0  0
 23 21  1  0  0  0
 21 17  1  0  0  0
 17 18  2  0  0  0
 17 19  1  0  0  0
 19  1  1  0  0  0
  1  2  1  0  0  0
  1 15  2  0  0  0
  2  3  2  0  0  0
  3  4  1  0  0  0
  3 13  1  0  0  0
  4  5  1  0  0  0
  4  9  2  0  0  0
  5  6  2  0  0  0
  6  7  1  0  0  0
  7  8  2  0  0  0
  8  9  1  0  0  0
  9 10  1  0  0  0
 10 11  2  0  0  0
 10 12  1  0  0  0
 12 13  1  0  0  0
 13 14  2  0  0  0
 14 15  1  0  0  0
 19 20  1  0  0  0
 12 16  1  0  0  0
M  END
> <minimizedAffinity>
-6.70414

$$$$
5EWK_P34_A_301


 24 26  0  0  0  0  0  0  0  0999 V2000
   21.1776   30.3936   21.6141 C   0  0  0  0  0  0  0  0  0  0  0  0
   22.3227   31.1597   21.3772 C   0  0  0  0  0  0  0  0  0  0  0  0
   22.2096   32.5733   21.4560 C   0  0  0  0  0  0  0  0  0  0  0  0
   23.3235   33.5035   21.2186 C   0  0  0  0  0  0  0  0  0  0  0  0
   24.6096   33.0589   20.9183 C   0  0  0  0  0  0  0  0  0  0  0  0
   25.6227   33.9683   20.7007 C   0  0  0  0  0  0  0  0  0  0  0  0
   25.4045   35.3461   20.8311 C   0  0  0  0  0  0  0  0  0  0  0  0
   24.1192   35.7998   21.1447 C   0  0  0  0  0  0  0  0  0  0  0  0
   23.0970   34.8877   21.3464 C   0  0  0  0  0  0  0  0  0  0  0  0
   21.7639   35.4296   21.6258 C   0  0  0  0  0  0  0  0  0  0  0  0
   21.5260   36.6371   21.7329 O   0  0  0  0  0  0  0  0  0  0  0  0
   20.7722   34.5361   21.8337 N   0  0  0  0  0  0  0  0  0  0  0  0
   20.9660   33.1286   21.7409 C   0  0  0  0  0  0  0  0  0  0  0  0
   19.8371   32.3399   21.9789 C   0  0  0  0  0  0  0  0  0  0  0  0
   19.9655   30.9881   21.8813 C   0  0  0  0  0  0  0  0  0  0  0  0
   19.8752   34.8734   22.0595 H   0  0  0  0  0  0  0  0  0  0  0  0
   21.8413   28.2200   22.5411 C   0  0  0  0  0  0  0  0  0  0  0  0
   21.8601   26.9830   22.5070 O   0  0  0  0  0  0  0  0  0  0  0  0
   21.2170   28.9753   21.5764 N   0  0  0  0  0  0  0  0  0  0  0  0
   20.7782   28.5121   20.8267 H   0  0  0  0  0  0  0  0  0  0  0  0
   22.5884   28.9832   23.6581 C   0  0  0  0  0  0  0  0  0  0  0  0
   23.5420   28.6299   25.8097 C   0  0  0  0  0  0  0  0  0  0  0  0
   22.2995   28.7622   25.0568 N   0  0  0  0  0  0  0  0  0  0  0  0
   21.5849   29.8999   25.5656 C   0  0  0  0  0  0  0  0  0  0  0  0
 22 23  1  0  0  0
 23 24  1  0  0  0
 23 21  1  0  0  0
 21 17  1  0  0  0
 17 18  2  0  0  0
 17 19  1  0  0  0
 19  1  1  0  0  0
  1  2  1  0  0  0
  1 15  2  0  0  0
  2  3  2  0  0  0
  3  4  1  0  0  0
  3 13  1  0  0  0
  4  5  1  0  0  0
  4  9  2  0  0  0
  5  6  2  0  0  0
  6  7  1  0  0  0
  7  8  2  0  0  0
  8  9  1  0  0  0
  9 10  1  0  0  0
 10 11  2  0  0  0
 10 12  1  0  0  0
 12 13  1  0  0  0
 13 14  2  0  0  0
 14 15  1  0  0  0
 19 20  1  0  0  0
 12 16  1  0  0  0
M  END
> <minimizedAffinity>
-6.50013

$$$$
5EWK_P34_A_301


 24 26  0  0  0  0  0  0  0  0999 V2000
   22.0243   32.1181   21.2598 C   0  0  0  0  0  0  0  0  0  0  0  0
   21.5838   33.4447   21.2793 C   0  0  0  0  0  0  0  0  0  0  0  0
   22.5586   34.4743   21.1959 C   0  0  0  0  0  0  0  0  0  0  0  0
   22.2439   35.9106   21.2183 C   0  0  0  0  0  0  0  0  0  0  0  0
   20.9348   36.3818   21.2972 C   0  0  0  0  0  0  0  0  0  0  0  0
   20.6878   37.7380   21.3180 C   0  0  0  0  0  0  0  0  0  0  0  0
   21.7283   38.6692   21.2029 C   0  0  0  0  0  0  0  0  0  0  0  0
   23.0440   38.2040   21.1105 C   0  0  0  0  0  0  0  0  0  0  0  0
   23.2945   36.8421   21.1070 C   0  0  0  0  0  0  0  0  0  0  0  0
   24.6976   36.4212   21.0551 C   0  0  0  0  0  0  0  0  0  0  0  0
   25.6446   37.2098   20.9694 O   0  0  0  0  0  0  0  0  0  0  0  0
   24.9368   35.0917   21.0398 N   0  0  0  0  0  0  0  0  0  0  0  0
   23.9015   34.1177   21.1226 C   0  0  0  0  0  0  0  0  0  0  0  0
   24.3156   32.7832   21.0998 C   0  0  0  0  0  0  0  0  0  0  0  0
   23.3650   31.8136   21.1978 C   0  0  0  0  0  0  0  0  0  0  0  0
   25.8687   34.7824   20.9681 H   0  0  0  0  0  0  0  0  0  0  0  0
   20.7220   30.4446   22.4957 C   0  0  0  0  0  0  0  0  0  0  0  0
   19.9133   29.5086   22.5362 O   0  0  0  0  0  0  0  0  0  0  0  0
   21.1088   31.0350   21.3157 N   0  0  0  0  0  0  0  0  0  0  0  0
   20.7343   30.6914   20.4725 H   0  0  0  0  0  0  0  0  0  0  0  0
   21.3917   30.9563   23.7911 C   0  0  0  0  0  0  0  0  0  0  0  0
   21.4081   29.2891   25.4893 C   0  0  0  0  0  0  0  0  0  0  0  0
   22.2310   30.1047   24.6029 N   0  0  0  0  0  0  0  0  0  0  0  0
   22.9686   29.2252   23.7391 C   0  0  0  0  0  0  0  0  0  0  0  0
 22 23  1  0  0  0
 23 24  1  0  0  0
 23 21  1  0  0  0
 21 17  1  0  0  0
 17 18  2  0  0  0
 17 19  1  0  0  0
 19  1  1  0  0  0
  1  2  1  0  0  0
  1 15  2  0  0  0
  2  3  2  0  0  0
  3  4  1  0  0  0
  3 13  1  0  0  0
  4  5  1  0  0  0
  4  9  2  0  0  0
  5  6  2  0  0  0
  6  7  1  0  0  0
  7  8  2  0  0  0
  8  9  1  0  0  0
  9 10  1  0  0  0
 10 11  2  0  0  0
 10 12  1  0  0  0
 12 13  1  0  0  0
 13 14  2  0  0  0
 14 15  1  0  0  0
 19 20  1  0  0  0
 12 16  1  0  0  0
M  END
> <minimizedAffinity>
-6.45780

$$$$
