3NZK_C90_A_501


 36 38  0  0  0  0  0  0  0  0999 V2000
   -3.9994  -23.0704   -8.6160 C   0  0  0  0  0  0  0  0  0  0  0  0
   -5.4102  -24.0513   -6.2957 C   0  0  0  0  0  0  0  0  0  0  0  0
   -3.2964  -23.2136   -7.3666 C   0  0  0  0  0  0  0  0  0  0  0  0
   -5.3962  -23.4191   -8.7260 C   0  0  0  0  0  0  0  0  0  0  0  0
   -3.9941  -23.7058   -6.2136 C   0  0  0  0  0  0  0  0  0  0  0  0
   -6.1178  -23.9070   -7.5711 C   0  0  0  0  0  0  0  0  0  0  0  0
   -6.0713  -24.5601   -5.1330 C   0  0  0  0  0  0  0  0  0  0  0  0
   -5.4117  -25.0939   -4.2309 O   0  0  0  0  0  0  0  0  0  0  0  0
   -7.3594  -24.2846   -4.9896 N   0  0  0  0  0  0  0  0  0  0  0  0
   -7.7959  -23.7385   -5.6828 H   0  0  0  0  0  0  0  0  0  0  0  0
   -8.1767  -24.7463   -3.8559 C   0  0  0  0  0  0  0  0  0  0  0  0
   -8.7685  -26.1124   -4.2419 C   0  0  0  0  0  0  0  0  0  0  0  0
   -7.9078  -27.0787   -4.4346 N   0  0  0  0  0  0  0  0  0  0  0  0
   -9.9368  -26.3359   -3.9966 O   0  0  0  0  0  0  0  0  0  0  0  0
   -8.3142  -28.3356   -4.5190 O   0  0  0  0  0  0  0  0  0  0  0  0
   -6.9494  -26.8692   -4.5174 H   0  0  0  0  0  0  0  0  0  0  0  0
   -9.2783  -28.3712   -4.4177 H   0  0  0  0  0  0  0  0  0  0  0  0
   -9.2195  -23.6223   -3.4940 C   0  0  0  0  0  0  0  0  0  0  0  0
   -8.8996  -22.7903   -2.2424 C   0  0  0  0  0  0  0  0  0  0  0  0
   -9.2887  -22.6876   -4.5720 O   0  0  0  0  0  0  0  0  0  0  0  0
   -8.4295  -22.2494   -4.6756 H   0  0  0  0  0  0  0  0  0  0  0  0
   -2.6572  -22.1978  -10.7021 C   0  0  0  0  0  0  0  0  0  0  0  0
   -3.2749  -22.6397   -9.7610 C   0  0  0  0  0  0  0  0  0  0  0  0
   -0.4459  -20.6487  -14.0393 C   0  0  0  0  0  0  0  0  0  0  0  0
   -1.9380  -21.6823  -11.8001 C   0  0  0  0  0  0  0  0  0  0  0  0
   -1.6932  -20.0248  -13.6525 C   0  0  0  0  0  0  0  0  0  0  0  0
    0.0605  -21.7924  -13.3037 C   0  0  0  0  0  0  0  0  0  0  0  0
   -2.4412  -20.5476  -12.5317 C   0  0  0  0  0  0  0  0  0  0  0  0
   -0.6910  -22.3116  -12.1776 C   0  0  0  0  0  0  0  0  0  0  0  0
    0.3174  -20.0936  -15.2386 C   0  0  0  0  0  0  0  0  0  0  0  0
   -0.9463  -20.2944  -19.3258 O   0  0  0  0  0  0  0  0  0  0  0  0
   -0.6160  -21.5065  -18.6410 C   0  0  0  0  0  0  0  0  0  0  0  0
   -1.7178  -19.4419  -18.4843 C   0  0  0  0  0  0  0  0  0  0  0  0
    0.2132  -21.1880  -17.3594 C   0  0  0  0  0  0  0  0  0  0  0  0
   -0.8038  -19.0558  -17.3124 C   0  0  0  0  0  0  0  0  0  0  0  0
   -0.5099  -20.2492  -16.4875 N   0  0  0  0  0  0  0  0  0  0  0  0
 35 33  1  0  0  0
 35 36  1  0  0  0
 27 29  2  0  0  0
 27 24  1  0  0  0
 33 31  1  0  0  0
 30 36  1  0  0  0
 30 24  1  0  0  0
 29 25  1  0  0  0
 36 34  1  0  0  0
 24 26  2  0  0  0
 31 32  1  0  0  0
 25 22  1  0  0  0
 25 28  2  0  0  0
 34 32  1  0  0  0
 14 12  2  0  0  0
 26 28  1  0  0  0
 22 23  3  0  0  0
  3  5  2  0  0  0
  3  1  1  0  0  0
 23  1  1  0  0  0
 19 18  1  0  0  0
  5  2  1  0  0  0
  1  4  2  0  0  0
 15 13  1  0  0  0
 12 13  1  0  0  0
 12 11  1  0  0  0
  9 11  1  0  0  0
  9  7  1  0  0  0
  2  7  1  0  0  0
  2  6  2  0  0  0
  4  6  1  0  0  0
 11 18  1  0  0  0
 18 20  1  0  0  0
  7  8  2  0  0  0
  9 10  1  0  0  0
 20 21  1  0  0  0
 13 16  1  0  0  0
 15 17  1  0  0  0
M  END
> <minimizedAffinity>
-10.57848

$$$$
3NZK_C90_A_501


 36 38  0  0  0  0  0  0  0  0999 V2000
   -4.0791  -22.9874   -8.6816 C   0  0  0  0  0  0  0  0  0  0  0  0
   -5.4611  -24.0077   -6.3610 C   0  0  0  0  0  0  0  0  0  0  0  0
   -3.3437  -23.2245   -7.4655 C   0  0  0  0  0  0  0  0  0  0  0  0
   -5.4946  -23.2614   -8.7585 C   0  0  0  0  0  0  0  0  0  0  0  0
   -4.0274  -23.7365   -6.3127 C   0  0  0  0  0  0  0  0  0  0  0  0
   -6.2018  -23.7680   -7.6028 C   0  0  0  0  0  0  0  0  0  0  0  0
   -6.1087  -24.5386   -5.2005 C   0  0  0  0  0  0  0  0  0  0  0  0
   -5.4366  -25.0700   -4.3064 O   0  0  0  0  0  0  0  0  0  0  0  0
   -7.4006  -24.2859   -5.0492 N   0  0  0  0  0  0  0  0  0  0  0  0
   -7.8490  -23.7405   -5.7353 H   0  0  0  0  0  0  0  0  0  0  0  0
   -8.2053  -24.7719   -3.9167 C   0  0  0  0  0  0  0  0  0  0  0  0
   -8.7673  -26.1487   -4.3093 C   0  0  0  0  0  0  0  0  0  0  0  0
   -7.8926  -27.1140   -4.4306 N   0  0  0  0  0  0  0  0  0  0  0  0
   -9.9472  -26.3734   -4.1295 O   0  0  0  0  0  0  0  0  0  0  0  0
   -8.2880  -28.3745   -4.5134 O   0  0  0  0  0  0  0  0  0  0  0  0
   -6.9319  -26.9010   -4.4605 H   0  0  0  0  0  0  0  0  0  0  0  0
   -9.2563  -28.4132   -4.4690 H   0  0  0  0  0  0  0  0  0  0  0  0
   -9.2722  -23.6734   -3.5466 C   0  0  0  0  0  0  0  0  0  0  0  0
   -9.0895  -22.9966   -2.1793 C   0  0  0  0  0  0  0  0  0  0  0  0
   -9.2091  -22.6207   -4.5103 O   0  0  0  0  0  0  0  0  0  0  0  0
   -8.3398  -22.1929   -4.4654 H   0  0  0  0  0  0  0  0  0  0  0  0
   -2.7330  -22.1004  -10.7592 C   0  0  0  0  0  0  0  0  0  0  0  0
   -3.3715  -22.5384   -9.8302 C   0  0  0  0  0  0  0  0  0  0  0  0
   -0.4478  -20.5632  -14.0517 C   0  0  0  0  0  0  0  0  0  0  0  0
   -1.9896  -21.5890  -11.8427 C   0  0  0  0  0  0  0  0  0  0  0  0
   -1.7109  -19.9477  -13.7048 C   0  0  0  0  0  0  0  0  0  0  0  0
    0.0495  -21.6947  -13.2913 C   0  0  0  0  0  0  0  0  0  0  0  0
   -2.4837  -20.4665  -12.5990 C   0  0  0  0  0  0  0  0  0  0  0  0
   -0.7270  -22.2099  -12.1803 C   0  0  0  0  0  0  0  0  0  0  0  0
    0.3422  -20.0128  -15.2358 C   0  0  0  0  0  0  0  0  0  0  0  0
    2.4163  -16.2752  -14.9683 O   0  0  0  0  0  0  0  0  0  0  0  0
    1.6120  -16.5418  -16.1212 C   0  0  0  0  0  0  0  0  0  0  0  0
    1.7417  -16.6908  -13.7841 C   0  0  0  0  0  0  0  0  0  0  0  0
    1.3164  -18.0693  -16.2258 C   0  0  0  0  0  0  0  0  0  0  0  0
    1.6003  -18.2165  -13.8847 C   0  0  0  0  0  0  0  0  0  0  0  0
    0.6844  -18.5661  -14.9937 N   0  0  0  0  0  0  0  0  0  0  0  0
 35 33  1  0  0  0
 35 36  1  0  0  0
 27 29  2  0  0  0
 27 24  1  0  0  0
 33 31  1  0  0  0
 30 36  1  0  0  0
 30 24  1  0  0  0
 29 25  1  0  0  0
 36 34  1  0  0  0
 24 26  2  0  0  0
 31 32  1  0  0  0
 25 22  1  0  0  0
 25 28  2  0  0  0
 34 32  1  0  0  0
 14 12  2  0  0  0
 26 28  1  0  0  0
 22 23  3  0  0  0
  3  5  2  0  0  0
  3  1  1  0  0  0
 23  1  1  0  0  0
 19 18  1  0  0  0
  5  2  1  0  0  0
  1  4  2  0  0  0
 15 13  1  0  0  0
 12 13  1  0  0  0
 12 11  1  0  0  0
  9 11  1  0  0  0
  9  7  1  0  0  0
  2  7  1  0  0  0
  2  6  2  0  0  0
  4  6  1  0  0  0
 11 18  1  0  0  0
 18 20  1  0  0  0
  7  8  2  0  0  0
  9 10  1  0  0  0
 20 21  1  0  0  0
 13 16  1  0  0  0
 15 17  1  0  0  0
M  END
> <minimizedAffinity>
-10.36196

$$$$
3NZK_C90_A_501


 36 38  0  0  0  0  0  0  0  0999 V2000
   -4.0074  -23.5385   -8.7773 C   0  0  0  0  0  0  0  0  0  0  0  0
   -5.6258  -24.6534   -6.6621 C   0  0  0  0  0  0  0  0  0  0  0  0
   -5.4435  -23.4779   -8.8760 C   0  0  0  0  0  0  0  0  0  0  0  0
   -3.3668  -24.1405   -7.6318 C   0  0  0  0  0  0  0  0  0  0  0  0
   -6.2496  -24.0265   -7.8237 C   0  0  0  0  0  0  0  0  0  0  0  0
   -4.1643  -24.7078   -6.5665 C   0  0  0  0  0  0  0  0  0  0  0  0
   -6.4581  -25.1715   -5.6197 C   0  0  0  0  0  0  0  0  0  0  0  0
   -6.4719  -26.3877   -5.3867 O   0  0  0  0  0  0  0  0  0  0  0  0
   -7.0598  -24.2992   -4.8242 N   0  0  0  0  0  0  0  0  0  0  0  0
   -6.8994  -23.3409   -4.9827 H   0  0  0  0  0  0  0  0  0  0  0  0
   -7.9536  -24.6774   -3.7176 C   0  0  0  0  0  0  0  0  0  0  0  0
   -9.2139  -25.3035   -4.3379 C   0  0  0  0  0  0  0  0  0  0  0  0
   -9.3099  -26.6057   -4.2552 N   0  0  0  0  0  0  0  0  0  0  0  0
  -10.1869  -24.6009   -4.5243 O   0  0  0  0  0  0  0  0  0  0  0  0
  -10.4538  -27.2150   -4.5244 O   0  0  0  0  0  0  0  0  0  0  0  0
   -8.5245  -27.1371   -3.9905 H   0  0  0  0  0  0  0  0  0  0  0  0
  -11.1222  -26.5553   -4.7672 H   0  0  0  0  0  0  0  0  0  0  0  0
   -8.1902  -23.4151   -2.8052 C   0  0  0  0  0  0  0  0  0  0  0  0
   -6.9276  -22.7746   -2.2080 C   0  0  0  0  0  0  0  0  0  0  0  0
   -8.8130  -22.3903   -3.5817 O   0  0  0  0  0  0  0  0  0  0  0  0
   -8.2135  -22.1136   -4.2922 H   0  0  0  0  0  0  0  0  0  0  0  0
   -2.5307  -22.3717  -10.6139 C   0  0  0  0  0  0  0  0  0  0  0  0
   -3.2270  -22.9345   -9.8009 C   0  0  0  0  0  0  0  0  0  0  0  0
   -0.0450  -20.3961  -13.5025 C   0  0  0  0  0  0  0  0  0  0  0  0
   -1.7199  -21.7146  -11.5621 C   0  0  0  0  0  0  0  0  0  0  0  0
   -1.1331  -19.6744  -12.8781 C   0  0  0  0  0  0  0  0  0  0  0  0
    0.2099  -21.7818  -13.1553 C   0  0  0  0  0  0  0  0  0  0  0  0
   -1.9737  -20.3392  -11.9083 C   0  0  0  0  0  0  0  0  0  0  0  0
   -0.6333  -22.4441  -12.1792 C   0  0  0  0  0  0  0  0  0  0  0  0
    0.8173  -19.6813  -14.5392 C   0  0  0  0  0  0  0  0  0  0  0  0
    5.0957  -19.5772  -14.3742 O   0  0  0  0  0  0  0  0  0  0  0  0
    4.3487  -19.3325  -13.1786 C   0  0  0  0  0  0  0  0  0  0  0  0
    4.5341  -20.6691  -15.0970 C   0  0  0  0  0  0  0  0  0  0  0  0
    2.8698  -18.9879  -13.5328 C   0  0  0  0  0  0  0  0  0  0  0  0
    3.1322  -20.2186  -15.5327 C   0  0  0  0  0  0  0  0  0  0  0  0
    2.2637  -20.0541  -14.3455 N   0  0  0  0  0  0  0  0  0  0  0  0
 35 33  1  0  0  0
 35 36  1  0  0  0
 27 29  2  0  0  0
 27 24  1  0  0  0
 33 31  1  0  0  0
 30 36  1  0  0  0
 30 24  1  0  0  0
 29 25  1  0  0  0
 36 34  1  0  0  0
 24 26  2  0  0  0
 31 32  1  0  0  0
 25 22  1  0  0  0
 25 28  2  0  0  0
 34 32  1  0  0  0
 14 12  2  0  0  0
 26 28  1  0  0  0
 22 23  3  0  0  0
  3  5  2  0  0  0
  3  1  1  0  0  0
 23  1  1  0  0  0
 19 18  1  0  0  0
  5  2  1  0  0  0
  1  4  2  0  0  0
 15 13  1  0  0  0
 12 13  1  0  0  0
 12 11  1  0  0  0
  9 11  1  0  0  0
  9  7  1  0  0  0
  2  7  1  0  0  0
  2  6  2  0  0  0
  4  6  1  0  0  0
 11 18  1  0  0  0
 18 20  1  0  0  0
  7  8  2  0  0  0
  9 10  1  0  0  0
 20 21  1  0  0  0
 13 16  1  0  0  0
 15 17  1  0  0  0
M  END
> <minimizedAffinity>
-9.62724

$$$$
3NZK_C90_A_501


 36 38  0  0  0  0  0  0  0  0999 V2000
   -3.8998  -23.3528   -8.6649 C   0  0  0  0  0  0  0  0  0  0  0  0
   -5.4576  -24.3625   -6.4536 C   0  0  0  0  0  0  0  0  0  0  0  0
   -5.3372  -23.2664   -8.7120 C   0  0  0  0  0  0  0  0  0  0  0  0
   -3.2278  -23.9285   -7.5240 C   0  0  0  0  0  0  0  0  0  0  0  0
   -6.1131  -23.7627   -7.6120 C   0  0  0  0  0  0  0  0  0  0  0  0
   -3.9948  -24.4433   -6.4108 C   0  0  0  0  0  0  0  0  0  0  0  0
   -6.2593  -24.8281   -5.3635 C   0  0  0  0  0  0  0  0  0  0  0  0
   -6.0197  -25.9271   -4.8453 O   0  0  0  0  0  0  0  0  0  0  0  0
   -7.1294  -23.9797   -4.8355 N   0  0  0  0  0  0  0  0  0  0  0  0
   -7.1764  -23.0711   -5.2115 H   0  0  0  0  0  0  0  0  0  0  0  0
   -8.0298  -24.3146   -3.7203 C   0  0  0  0  0  0  0  0  0  0  0  0
   -9.2179  -25.0952   -4.3071 C   0  0  0  0  0  0  0  0  0  0  0  0
   -9.1809  -26.3949   -4.1613 N   0  0  0  0  0  0  0  0  0  0  0  0
  -10.2568  -24.5054   -4.5254 O   0  0  0  0  0  0  0  0  0  0  0  0
  -10.2559  -27.1300   -4.3983 O   0  0  0  0  0  0  0  0  0  0  0  0
   -8.3462  -26.8300   -3.8727 H   0  0  0  0  0  0  0  0  0  0  0  0
  -10.9874  -26.5544   -4.6714 H   0  0  0  0  0  0  0  0  0  0  0  0
   -8.3911  -22.9902   -2.9475 C   0  0  0  0  0  0  0  0  0  0  0  0
   -9.0134  -23.1763   -1.5549 C   0  0  0  0  0  0  0  0  0  0  0  0
   -7.1978  -22.2330   -2.7394 O   0  0  0  0  0  0  0  0  0  0  0  0
   -6.5927  -22.7332   -2.1698 H   0  0  0  0  0  0  0  0  0  0  0  0
   -2.5781  -22.2978  -10.6786 C   0  0  0  0  0  0  0  0  0  0  0  0
   -3.1476  -22.7996   -9.7372 C   0  0  0  0  0  0  0  0  0  0  0  0
   -0.5335  -20.5385  -14.0179 C   0  0  0  0  0  0  0  0  0  0  0  0
   -1.9141  -21.7137  -11.7770 C   0  0  0  0  0  0  0  0  0  0  0  0
   -1.8096  -20.0031  -13.5940 C   0  0  0  0  0  0  0  0  0  0  0  0
    0.0576  -21.6643  -13.3187 C   0  0  0  0  0  0  0  0  0  0  0  0
   -2.5014  -20.5968  -12.4724 C   0  0  0  0  0  0  0  0  0  0  0  0
   -0.6379  -22.2548  -12.1917 C   0  0  0  0  0  0  0  0  0  0  0  0
    0.1701  -19.9099  -15.2174 C   0  0  0  0  0  0  0  0  0  0  0  0
    2.9112  -21.8647  -17.8646 O   0  0  0  0  0  0  0  0  0  0  0  0
    3.4193  -21.2138  -16.6962 C   0  0  0  0  0  0  0  0  0  0  0  0
    1.7294  -22.5967  -17.5523 C   0  0  0  0  0  0  0  0  0  0  0  0
    2.3554  -20.2246  -16.1294 C   0  0  0  0  0  0  0  0  0  0  0  0
    0.6807  -21.5572  -17.1307 C   0  0  0  0  0  0  0  0  0  0  0  0
    1.0867  -20.9185  -15.8586 N   0  0  0  0  0  0  0  0  0  0  0  0
 35 33  1  0  0  0
 35 36  1  0  0  0
 27 29  2  0  0  0
 27 24  1  0  0  0
 33 31  1  0  0  0
 30 36  1  0  0  0
 30 24  1  0  0  0
 29 25  1  0  0  0
 36 34  1  0  0  0
 24 26  2  0  0  0
 31 32  1  0  0  0
 25 22  1  0  0  0
 25 28  2  0  0  0
 34 32  1  0  0  0
 14 12  2  0  0  0
 26 28  1  0  0  0
 22 23  3  0  0  0
  3  5  2  0  0  0
  3  1  1  0  0  0
 23  1  1  0  0  0
 19 18  1  0  0  0
  5  2  1  0  0  0
  1  4  2  0  0  0
 15 13  1  0  0  0
 12 13  1  0  0  0
 12 11  1  0  0  0
  9 11  1  0  0  0
  9  7  1  0  0  0
  2  7  1  0  0  0
  2  6  2  0  0  0
  4  6  1  0  0  0
 11 18  1  0  0  0
 18 20  1  0  0  0
  7  8  2  0  0  0
  9 10  1  0  0  0
 20 21  1  0  0  0
 13 16  1  0  0  0
 15 17  1  0  0  0
M  END
> <minimizedAffinity>
-9.53703

$$$$
3NZK_C90_A_501


 36 38  0  0  0  0  0  0  0  0999 V2000
   -4.1692  -23.4149   -8.5567 C   0  0  0  0  0  0  0  0  0  0  0  0
   -5.6458  -24.3613   -6.2631 C   0  0  0  0  0  0  0  0  0  0  0  0
   -5.6076  -23.4744   -8.6144 C   0  0  0  0  0  0  0  0  0  0  0  0
   -3.4570  -23.8130   -7.3654 C   0  0  0  0  0  0  0  0  0  0  0  0
   -6.3436  -23.9394   -7.4741 C   0  0  0  0  0  0  0  0  0  0  0  0
   -4.1826  -24.2941   -6.2102 C   0  0  0  0  0  0  0  0  0  0  0  0
   -6.4104  -24.7993   -5.1357 C   0  0  0  0  0  0  0  0  0  0  0  0
   -6.3962  -25.9928   -4.8053 O   0  0  0  0  0  0  0  0  0  0  0  0
   -6.9757  -23.8699   -4.3791 N   0  0  0  0  0  0  0  0  0  0  0  0
   -6.8362  -22.9264   -4.6233 H   0  0  0  0  0  0  0  0  0  0  0  0
   -7.7998  -24.1637   -3.1955 C   0  0  0  0  0  0  0  0  0  0  0  0
   -9.2270  -23.6759   -3.4963 C   0  0  0  0  0  0  0  0  0  0  0  0
  -10.0988  -23.8169   -2.5309 N   0  0  0  0  0  0  0  0  0  0  0  0
   -9.3977  -22.8849   -4.4019 O   0  0  0  0  0  0  0  0  0  0  0  0
  -11.2728  -23.2084   -2.5898 O   0  0  0  0  0  0  0  0  0  0  0  0
   -9.8796  -24.3804   -1.7540 H   0  0  0  0  0  0  0  0  0  0  0  0
  -11.3311  -22.6969   -3.4119 H   0  0  0  0  0  0  0  0  0  0  0  0
   -7.1090  -23.5308   -1.9291 C   0  0  0  0  0  0  0  0  0  0  0  0
   -6.9583  -22.0017   -1.9427 C   0  0  0  0  0  0  0  0  0  0  0  0
   -7.8925  -23.8315   -0.7730 O   0  0  0  0  0  0  0  0  0  0  0  0
   -8.7637  -23.4130   -0.8551 H   0  0  0  0  0  0  0  0  0  0  0  0
   -2.8038  -22.4228  -10.5732 C   0  0  0  0  0  0  0  0  0  0  0  0
   -3.4625  -22.8933   -9.6747 C   0  0  0  0  0  0  0  0  0  0  0  0
   -0.4899  -20.7293  -13.7676 C   0  0  0  0  0  0  0  0  0  0  0  0
   -2.0366  -21.8731  -11.6209 C   0  0  0  0  0  0  0  0  0  0  0  0
   -0.0033  -21.9011  -13.0713 C   0  0  0  0  0  0  0  0  0  0  0  0
   -1.7555  -20.1267  -13.3923 C   0  0  0  0  0  0  0  0  0  0  0  0
   -0.7791  -22.4703  -11.9928 C   0  0  0  0  0  0  0  0  0  0  0  0
   -2.5326  -20.7028  -12.3122 C   0  0  0  0  0  0  0  0  0  0  0  0
    0.3550  -20.1322  -14.8896 C   0  0  0  0  0  0  0  0  0  0  0  0
    2.7950  -16.6212  -14.6412 O   0  0  0  0  0  0  0  0  0  0  0  0
    1.4153  -16.4841  -14.9944 C   0  0  0  0  0  0  0  0  0  0  0  0
    2.9450  -17.5517  -13.5727 C   0  0  0  0  0  0  0  0  0  0  0  0
    0.8396  -17.8606  -15.4475 C   0  0  0  0  0  0  0  0  0  0  0  0
    2.4892  -18.9114  -14.1217 C   0  0  0  0  0  0  0  0  0  0  0  0
    1.0367  -18.8796  -14.4048 N   0  0  0  0  0  0  0  0  0  0  0  0
 35 33  1  0  0  0
 35 36  1  0  0  0
 27 29  2  0  0  0
 27 24  1  0  0  0
 33 31  1  0  0  0
 30 36  1  0  0  0
 30 24  1  0  0  0
 29 25  1  0  0  0
 36 34  1  0  0  0
 24 26  2  0  0  0
 31 32  1  0  0  0
 25 22  1  0  0  0
 25 28  2  0  0  0
 34 32  1  0  0  0
 14 12  2  0  0  0
 26 28  1  0  0  0
 22 23  3  0  0  0
  3  5  2  0  0  0
  3  1  1  0  0  0
 23  1  1  0  0  0
 19 18  1  0  0  0
  5  2  1  0  0  0
  1  4  2  0  0  0
 15 13  1  0  0  0
 12 13  1  0  0  0
 12 11  1  0  0  0
  9 11  1  0  0  0
  9  7  1  0  0  0
  2  7  1  0  0  0
  2  6  2  0  0  0
  4  6  1  0  0  0
 11 18  1  0  0  0
 18 20  1  0  0  0
  7  8  2  0  0  0
  9 10  1  0  0  0
 20 21  1  0  0  0
 13 16  1  0  0  0
 15 17  1  0  0  0
M  END
> <minimizedAffinity>
-9.08122

$$$$
3NZK_C90_A_501


 36 38  0  0  0  0  0  0  0  0999 V2000
   -1.8393  -22.0797  -11.4358 C   0  0  0  0  0  0  0  0  0  0  0  0
   -0.4310  -21.1118  -13.7630 C   0  0  0  0  0  0  0  0  0  0  0  0
   -0.6559  -22.7674  -11.8855 C   0  0  0  0  0  0  0  0  0  0  0  0
   -2.3252  -20.9086  -12.1268 C   0  0  0  0  0  0  0  0  0  0  0  0
    0.0485  -22.2851  -13.0386 C   0  0  0  0  0  0  0  0  0  0  0  0
   -1.6333  -20.4148  -13.2972 C   0  0  0  0  0  0  0  0  0  0  0  0
    0.3068  -20.6435  -14.8962 C   0  0  0  0  0  0  0  0  0  0  0  0
    1.4747  -20.2558  -14.7561 O   0  0  0  0  0  0  0  0  0  0  0  0
   -0.2389  -20.8042  -16.0929 N   0  0  0  0  0  0  0  0  0  0  0  0
   -1.1183  -21.2436  -16.1453 H   0  0  0  0  0  0  0  0  0  0  0  0
    0.3911  -20.3650  -17.3485 C   0  0  0  0  0  0  0  0  0  0  0  0
   -0.5510  -19.3396  -18.0015 C   0  0  0  0  0  0  0  0  0  0  0  0
   -1.7218  -19.7893  -18.3740 N   0  0  0  0  0  0  0  0  0  0  0  0
   -0.3500  -18.1564  -17.8148 O   0  0  0  0  0  0  0  0  0  0  0  0
   -2.6900  -18.9508  -18.7083 O   0  0  0  0  0  0  0  0  0  0  0  0
   -1.8841  -20.7598  -18.4060 H   0  0  0  0  0  0  0  0  0  0  0  0
   -2.3711  -18.0386  -18.6240 H   0  0  0  0  0  0  0  0  0  0  0  0
    0.7312  -21.6360  -18.2148 C   0  0  0  0  0  0  0  0  0  0  0  0
    1.9367  -22.4643  -17.7437 C   0  0  0  0  0  0  0  0  0  0  0  0
   -0.3842  -22.5282  -18.1893 O   0  0  0  0  0  0  0  0  0  0  0  0
   -0.5293  -22.8386  -17.2818 H   0  0  0  0  0  0  0  0  0  0  0  0
   -3.1095  -22.9010   -9.2847 C   0  0  0  0  0  0  0  0  0  0  0  0
   -2.4871  -22.5370  -10.2556 C   0  0  0  0  0  0  0  0  0  0  0  0
   -5.2919  -24.1923   -5.8212 C   0  0  0  0  0  0  0  0  0  0  0  0
   -3.8349  -23.3243   -8.1520 C   0  0  0  0  0  0  0  0  0  0  0  0
   -5.9950  -23.9438   -7.0616 C   0  0  0  0  0  0  0  0  0  0  0  0
   -3.8545  -24.0090   -5.7441 C   0  0  0  0  0  0  0  0  0  0  0  0
   -5.2624  -23.5050   -8.2277 C   0  0  0  0  0  0  0  0  0  0  0  0
   -3.1226  -23.5722   -6.9172 C   0  0  0  0  0  0  0  0  0  0  0  0
   -6.0876  -24.6350   -4.5964 C   0  0  0  0  0  0  0  0  0  0  0  0
   -9.4117  -27.3294   -4.7785 O   0  0  0  0  0  0  0  0  0  0  0  0
   -9.6136  -26.0121   -4.2579 C   0  0  0  0  0  0  0  0  0  0  0  0
   -8.5919  -27.2840   -5.9429 C   0  0  0  0  0  0  0  0  0  0  0  0
   -8.2438  -25.3709   -3.8784 C   0  0  0  0  0  0  0  0  0  0  0  0
   -7.2194  -26.7731   -5.4809 C   0  0  0  0  0  0  0  0  0  0  0  0
   -7.3299  -25.3671   -5.0314 N   0  0  0  0  0  0  0  0  0  0  0  0
 35 33  1  0  0  0
 35 36  1  0  0  0
 27 29  2  0  0  0
 27 24  1  0  0  0
 33 31  1  0  0  0
 30 36  1  0  0  0
 30 24  1  0  0  0
 29 25  1  0  0  0
 36 34  1  0  0  0
 24 26  2  0  0  0
 31 32  1  0  0  0
 25 22  1  0  0  0
 25 28  2  0  0  0
 34 32  1  0  0  0
 14 12  2  0  0  0
 26 28  1  0  0  0
 22 23  3  0  0  0
  3  5  2  0  0  0
  3  1  1  0  0  0
 23  1  1  0  0  0
 19 18  1  0  0  0
  5  2  1  0  0  0
  1  4  2  0  0  0
 15 13  1  0  0  0
 12 13  1  0  0  0
 12 11  1  0  0  0
  9 11  1  0  0  0
  9  7  1  0  0  0
  2  7  1  0  0  0
  2  6  2  0  0  0
  4  6  1  0  0  0
 11 18  1  0  0  0
 18 20  1  0  0  0
  7  8  2  0  0  0
  9 10  1  0  0  0
 20 21  1  0  0  0
 13 16  1  0  0  0
 15 17  1  0  0  0
M  END
> <minimizedAffinity>
-9.01980

$$$$
3NZK_C90_A_501


 36 38  0  0  0  0  0  0  0  0999 V2000
   -4.1317  -23.3453   -8.7173 C   0  0  0  0  0  0  0  0  0  0  0  0
   -5.6737  -24.7029   -6.6887 C   0  0  0  0  0  0  0  0  0  0  0  0
   -3.4560  -24.1577   -7.7379 C   0  0  0  0  0  0  0  0  0  0  0  0
   -5.5690  -23.2082   -8.7040 C   0  0  0  0  0  0  0  0  0  0  0  0
   -4.2207  -24.8374   -6.7322 C   0  0  0  0  0  0  0  0  0  0  0  0
   -6.3547  -23.8781   -7.6908 C   0  0  0  0  0  0  0  0  0  0  0  0
   -6.4089  -25.4114   -5.6861 C   0  0  0  0  0  0  0  0  0  0  0  0
   -5.8735  -26.3422   -5.0691 O   0  0  0  0  0  0  0  0  0  0  0  0
   -7.5914  -24.9274   -5.3353 N   0  0  0  0  0  0  0  0  0  0  0  0
   -7.9024  -24.1024   -5.7735 H   0  0  0  0  0  0  0  0  0  0  0  0
   -8.4679  -25.5493   -4.3296 C   0  0  0  0  0  0  0  0  0  0  0  0
   -7.6683  -25.6457   -3.0193 C   0  0  0  0  0  0  0  0  0  0  0  0
   -6.9011  -24.6242   -2.7369 N   0  0  0  0  0  0  0  0  0  0  0  0
   -8.0362  -26.4252   -2.1638 O   0  0  0  0  0  0  0  0  0  0  0  0
   -6.3736  -24.4916   -1.5301 O   0  0  0  0  0  0  0  0  0  0  0  0
   -6.7145  -23.9483   -3.4279 H   0  0  0  0  0  0  0  0  0  0  0  0
   -6.6523  -25.2344   -0.9720 H   0  0  0  0  0  0  0  0  0  0  0  0
   -9.0112  -26.9111   -4.9057 C   0  0  0  0  0  0  0  0  0  0  0  0
   -9.0006  -27.0421   -6.4366 C   0  0  0  0  0  0  0  0  0  0  0  0
   -8.1961  -27.9794   -4.4208 O   0  0  0  0  0  0  0  0  0  0  0  0
   -7.2921  -27.8743   -4.7565 H   0  0  0  0  0  0  0  0  0  0  0  0
   -2.7185  -22.2745  -10.6593 C   0  0  0  0  0  0  0  0  0  0  0  0
   -3.3616  -22.7302   -9.7420 C   0  0  0  0  0  0  0  0  0  0  0  0
   -0.4112  -20.6785  -13.9082 C   0  0  0  0  0  0  0  0  0  0  0  0
   -1.9677  -21.7435  -11.7283 C   0  0  0  0  0  0  0  0  0  0  0  0
   -1.6606  -20.0490  -13.5374 C   0  0  0  0  0  0  0  0  0  0  0  0
    0.0649  -21.8437  -13.1863 C   0  0  0  0  0  0  0  0  0  0  0  0
   -2.4409  -20.5874  -12.4464 C   0  0  0  0  0  0  0  0  0  0  0  0
   -0.7190  -22.3787  -12.0900 C   0  0  0  0  0  0  0  0  0  0  0  0
    0.3866  -20.1062  -15.0766 C   0  0  0  0  0  0  0  0  0  0  0  0
    0.6674  -21.7591  -19.0176 O   0  0  0  0  0  0  0  0  0  0  0  0
    1.5437  -22.2459  -17.9967 C   0  0  0  0  0  0  0  0  0  0  0  0
   -0.6540  -21.6055  -18.5075 C   0  0  0  0  0  0  0  0  0  0  0  0
    1.5836  -21.2433  -16.8030 C   0  0  0  0  0  0  0  0  0  0  0  0
   -0.5735  -20.5123  -17.4320 C   0  0  0  0  0  0  0  0  0  0  0  0
    0.2298  -20.9916  -16.2849 N   0  0  0  0  0  0  0  0  0  0  0  0
 35 33  1  0  0  0
 35 36  1  0  0  0
 27 29  2  0  0  0
 27 24  1  0  0  0
 33 31  1  0  0  0
 30 36  1  0  0  0
 30 24  1  0  0  0
 29 25  1  0  0  0
 36 34  1  0  0  0
 24 26  2  0  0  0
 31 32  1  0  0  0
 25 22  1  0  0  0
 25 28  2  0  0  0
 34 32  1  0  0  0
 14 12  2  0  0  0
 26 28  1  0  0  0
 22 23  3  0  0  0
  3  5  2  0  0  0
  3  1  1  0  0  0
 23  1  1  0  0  0
 19 18  1  0  0  0
  5  2  1  0  0  0
  1  4  2  0  0  0
 15 13  1  0  0  0
 12 13  1  0  0  0
 12 11  1  0  0  0
  9 11  1  0  0  0
  9  7  1  0  0  0
  2  7  1  0  0  0
  2  6  2  0  0  0
  4  6  1  0  0  0
 11 18  1  0  0  0
 18 20  1  0  0  0
  7  8  2  0  0  0
  9 10  1  0  0  0
 20 21  1  0  0  0
 13 16  1  0  0  0
 15 17  1  0  0  0
M  END
> <minimizedAffinity>
-8.96859

$$$$
3NZK_C90_A_501


 36 38  0  0  0  0  0  0  0  0999 V2000
   -4.2454  -23.5238   -8.7217 C   0  0  0  0  0  0  0  0  0  0  0  0
   -5.6859  -24.5850   -6.4557 C   0  0  0  0  0  0  0  0  0  0  0  0
   -5.6629  -23.2913   -8.6103 C   0  0  0  0  0  0  0  0  0  0  0  0
   -3.5342  -24.2717   -7.7119 C   0  0  0  0  0  0  0  0  0  0  0  0
   -6.3798  -23.8132   -7.4824 C   0  0  0  0  0  0  0  0  0  0  0  0
   -4.2431  -24.8140   -6.5735 C   0  0  0  0  0  0  0  0  0  0  0  0
   -6.4260  -25.0729   -5.3323 C   0  0  0  0  0  0  0  0  0  0  0  0
   -6.7017  -26.2775   -5.2498 O   0  0  0  0  0  0  0  0  0  0  0  0
   -6.6430  -24.2346   -4.3294 N   0  0  0  0  0  0  0  0  0  0  0  0
   -6.2790  -23.3227   -4.4014 H   0  0  0  0  0  0  0  0  0  0  0  0
   -7.3957  -24.5852   -3.1141 C   0  0  0  0  0  0  0  0  0  0  0  0
   -8.5696  -23.5983   -2.9996 C   0  0  0  0  0  0  0  0  0  0  0  0
   -9.7651  -24.1283   -2.9583 N   0  0  0  0  0  0  0  0  0  0  0  0
   -8.3537  -22.4747   -2.5921 O   0  0  0  0  0  0  0  0  0  0  0  0
  -10.8133  -23.3991   -2.6094 O   0  0  0  0  0  0  0  0  0  0  0  0
   -9.8861  -25.0778   -3.1888 H   0  0  0  0  0  0  0  0  0  0  0  0
  -10.5267  -22.4930   -2.4153 H   0  0  0  0  0  0  0  0  0  0  0  0
   -6.3998  -24.6143   -1.8938 C   0  0  0  0  0  0  0  0  0  0  0  0
   -5.4292  -25.8047   -1.8500 C   0  0  0  0  0  0  0  0  0  0  0  0
   -5.5777  -23.4468   -1.9365 O   0  0  0  0  0  0  0  0  0  0  0  0
   -5.0355  -23.4625   -2.7407 H   0  0  0  0  0  0  0  0  0  0  0  0
   -2.8941  -22.4208  -10.6896 C   0  0  0  0  0  0  0  0  0  0  0  0
   -3.5431  -22.9460   -9.8146 C   0  0  0  0  0  0  0  0  0  0  0  0
   -0.5703  -20.5725  -13.7895 C   0  0  0  0  0  0  0  0  0  0  0  0
   -2.1383  -21.8074  -11.7097 C   0  0  0  0  0  0  0  0  0  0  0  0
   -1.8762  -20.0435  -13.4586 C   0  0  0  0  0  0  0  0  0  0  0  0
   -0.0434  -21.7219  -13.0777 C   0  0  0  0  0  0  0  0  0  0  0  0
   -2.6618  -20.6670  -12.4179 C   0  0  0  0  0  0  0  0  0  0  0  0
   -0.8330  -22.3424  -12.0317 C   0  0  0  0  0  0  0  0  0  0  0  0
    0.2336  -19.9117  -14.9058 C   0  0  0  0  0  0  0  0  0  0  0  0
   -0.4273  -20.3935  -19.1098 O   0  0  0  0  0  0  0  0  0  0  0  0
    0.0732  -21.5008  -18.3545 C   0  0  0  0  0  0  0  0  0  0  0  0
   -1.4680  -19.7333  -18.3950 C   0  0  0  0  0  0  0  0  0  0  0  0
    0.6427  -21.0042  -16.9904 C   0  0  0  0  0  0  0  0  0  0  0  0
   -0.8176  -19.1520  -17.1313 C   0  0  0  0  0  0  0  0  0  0  0  0
   -0.3742  -20.2490  -16.2420 N   0  0  0  0  0  0  0  0  0  0  0  0
 35 33  1  0  0  0
 35 36  1  0  0  0
 27 29  2  0  0  0
 27 24  1  0  0  0
 33 31  1  0  0  0
 30 36  1  0  0  0
 30 24  1  0  0  0
 29 25  1  0  0  0
 36 34  1  0  0  0
 24 26  2  0  0  0
 31 32  1  0  0  0
 25 22  1  0  0  0
 25 28  2  0  0  0
 34 32  1  0  0  0
 14 12  2  0  0  0
 26 28  1  0  0  0
 22 23  3  0  0  0
  3  5  2  0  0  0
  3  1  1  0  0  0
 23  1  1  0  0  0
 19 18  1  0  0  0
  5  2  1  0  0  0
  1  4  2  0  0  0
 15 13  1  0  0  0
 12 13  1  0  0  0
 12 11  1  0  0  0
  9 11  1  0  0  0
  9  7  1  0  0  0
  2  7  1  0  0  0
  2  6  2  0  0  0
  4  6  1  0  0  0
 11 18  1  0  0  0
 18 20  1  0  0  0
  7  8  2  0  0  0
  9 10  1  0  0  0
 20 21  1  0  0  0
 13 16  1  0  0  0
 15 17  1  0  0  0
M  END
> <minimizedAffinity>
-8.89206

$$$$
3NZK_C90_A_501


 36 38  0  0  0  0  0  0  0  0999 V2000
   -4.1870  -23.3687   -8.6376 C   0  0  0  0  0  0  0  0  0  0  0  0
   -5.7224  -24.7046   -6.5896 C   0  0  0  0  0  0  0  0  0  0  0  0
   -3.5084  -24.1733   -7.6538 C   0  0  0  0  0  0  0  0  0  0  0  0
   -5.6240  -23.2288   -8.6191 C   0  0  0  0  0  0  0  0  0  0  0  0
   -4.2698  -24.8423   -6.6384 C   0  0  0  0  0  0  0  0  0  0  0  0
   -6.4063  -23.8878   -7.5962 C   0  0  0  0  0  0  0  0  0  0  0  0
   -6.4543  -25.4025   -5.5772 C   0  0  0  0  0  0  0  0  0  0  0  0
   -5.9125  -26.3178   -4.9428 O   0  0  0  0  0  0  0  0  0  0  0  0
   -7.6422  -24.9232   -5.2383 N   0  0  0  0  0  0  0  0  0  0  0  0
   -7.9592  -24.1088   -5.6915 H   0  0  0  0  0  0  0  0  0  0  0  0
   -8.5162  -25.5357   -4.2247 C   0  0  0  0  0  0  0  0  0  0  0  0
   -7.7101  -25.6290   -2.9182 C   0  0  0  0  0  0  0  0  0  0  0  0
   -6.9551  -24.5993   -2.6331 N   0  0  0  0  0  0  0  0  0  0  0  0
   -8.0644  -26.4181   -2.0656 O   0  0  0  0  0  0  0  0  0  0  0  0
   -6.4245  -24.4665   -1.4277 O   0  0  0  0  0  0  0  0  0  0  0  0
   -6.7801  -23.9171   -3.3210 H   0  0  0  0  0  0  0  0  0  0  0  0
   -6.6913  -25.2160   -0.8726 H   0  0  0  0  0  0  0  0  0  0  0  0
   -9.0690  -26.8980   -4.7908 C   0  0  0  0  0  0  0  0  0  0  0  0
   -9.1210  -27.0148   -6.3220 C   0  0  0  0  0  0  0  0  0  0  0  0
   -8.2232  -27.9618   -4.3506 O   0  0  0  0  0  0  0  0  0  0  0  0
   -7.3352  -27.8439   -4.7227 H   0  0  0  0  0  0  0  0  0  0  0  0
   -2.7808  -22.3184  -10.5958 C   0  0  0  0  0  0  0  0  0  0  0  0
   -3.4204  -22.7645   -9.6714 C   0  0  0  0  0  0  0  0  0  0  0  0
   -0.4853  -20.7562  -13.8693 C   0  0  0  0  0  0  0  0  0  0  0  0
   -2.0339  -21.7987  -11.6730 C   0  0  0  0  0  0  0  0  0  0  0  0
   -1.7450  -20.1375  -13.5158 C   0  0  0  0  0  0  0  0  0  0  0  0
    0.0051  -21.8991  -13.1218 C   0  0  0  0  0  0  0  0  0  0  0  0
   -2.5213  -20.6647  -12.4164 C   0  0  0  0  0  0  0  0  0  0  0  0
   -0.7748  -22.4228  -12.0173 C   0  0  0  0  0  0  0  0  0  0  0  0
    0.3083  -20.1965  -15.0466 C   0  0  0  0  0  0  0  0  0  0  0  0
    3.3188  -17.1554  -14.8690 O   0  0  0  0  0  0  0  0  0  0  0  0
    1.9458  -16.7675  -14.9760 C   0  0  0  0  0  0  0  0  0  0  0  0
    3.4636  -18.2200  -13.9333 C   0  0  0  0  0  0  0  0  0  0  0  0
    1.0846  -17.9750  -15.4576 C   0  0  0  0  0  0  0  0  0  0  0  0
    2.7080  -19.4178  -14.5269 C   0  0  0  0  0  0  0  0  0  0  0  0
    1.2564  -19.1306  -14.5633 N   0  0  0  0  0  0  0  0  0  0  0  0
 35 33  1  0  0  0
 35 36  1  0  0  0
 27 29  2  0  0  0
 27 24  1  0  0  0
 33 31  1  0  0  0
 30 36  1  0  0  0
 30 24  1  0  0  0
 29 25  1  0  0  0
 36 34  1  0  0  0
 24 26  2  0  0  0
 31 32  1  0  0  0
 25 22  1  0  0  0
 25 28  2  0  0  0
 34 32  1  0  0  0
 14 12  2  0  0  0
 26 28  1  0  0  0
 22 23  3  0  0  0
  3  5  2  0  0  0
  3  1  1  0  0  0
 23  1  1  0  0  0
 19 18  1  0  0  0
  5  2  1  0  0  0
  1  4  2  0  0  0
 15 13  1  0  0  0
 12 13  1  0  0  0
 12 11  1  0  0  0
  9 11  1  0  0  0
  9  7  1  0  0  0
  2  7  1  0  0  0
  2  6  2  0  0  0
  4  6  1  0  0  0
 11 18  1  0  0  0
 18 20  1  0  0  0
  7  8  2  0  0  0
  9 10  1  0  0  0
 20 21  1  0  0  0
 13 16  1  0  0  0
 15 17  1  0  0  0
M  END
> <minimizedAffinity>
-8.85054

$$$$
3NZK_C90_A_501


 36 38  0  0  0  0  0  0  0  0999 V2000
   -2.5812  -22.3941  -10.6739 C   0  0  0  0  0  0  0  0  0  0  0  0
   -1.0176  -21.1504  -12.7583 C   0  0  0  0  0  0  0  0  0  0  0  0
   -1.3053  -22.9573  -11.0352 C   0  0  0  0  0  0  0  0  0  0  0  0
   -3.0842  -21.2119  -11.3328 C   0  0  0  0  0  0  0  0  0  0  0  0
   -0.5243  -22.3379  -12.0670 C   0  0  0  0  0  0  0  0  0  0  0  0
   -2.3147  -20.5806  -12.3825 C   0  0  0  0  0  0  0  0  0  0  0  0
   -0.2044  -20.5440  -13.7676 C   0  0  0  0  0  0  0  0  0  0  0  0
   -0.3672  -20.8474  -14.9572 O   0  0  0  0  0  0  0  0  0  0  0  0
    0.5848  -19.5447  -13.4014 N   0  0  0  0  0  0  0  0  0  0  0  0
    0.5677  -19.2632  -12.4581 H   0  0  0  0  0  0  0  0  0  0  0  0
    1.4855  -18.8303  -14.3205 C   0  0  0  0  0  0  0  0  0  0  0  0
    2.9276  -19.1517  -13.8933 C   0  0  0  0  0  0  0  0  0  0  0  0
    3.2303  -18.8915  -12.6474 N   0  0  0  0  0  0  0  0  0  0  0  0
    3.5762  -19.9332  -14.5594 O   0  0  0  0  0  0  0  0  0  0  0  0
    4.3486  -19.3582  -12.1145 O   0  0  0  0  0  0  0  0  0  0  0  0
    2.6211  -18.3438  -12.1013 H   0  0  0  0  0  0  0  0  0  0  0  0
    4.8324  -19.8739  -12.7784 H   0  0  0  0  0  0  0  0  0  0  0  0
    1.0939  -17.3044  -14.3274 C   0  0  0  0  0  0  0  0  0  0  0  0
    0.1953  -16.8386  -13.1713 C   0  0  0  0  0  0  0  0  0  0  0  0
    2.2833  -16.5187  -14.2330 O   0  0  0  0  0  0  0  0  0  0  0  0
    2.7187  -16.6920  -13.3838 H   0  0  0  0  0  0  0  0  0  0  0  0
   -3.8606  -23.4985   -8.6593 C   0  0  0  0  0  0  0  0  0  0  0  0
   -3.3111  -22.9866   -9.6072 C   0  0  0  0  0  0  0  0  0  0  0  0
   -5.8374  -25.3075   -5.3059 C   0  0  0  0  0  0  0  0  0  0  0  0
   -4.5013  -24.0965   -7.5547 C   0  0  0  0  0  0  0  0  0  0  0  0
   -4.3996  -25.4119   -5.4338 C   0  0  0  0  0  0  0  0  0  0  0  0
   -6.6121  -24.5935   -6.3037 C   0  0  0  0  0  0  0  0  0  0  0  0
   -3.7327  -24.8069   -6.5644 C   0  0  0  0  0  0  0  0  0  0  0  0
   -5.9389  -23.9848   -7.4346 C   0  0  0  0  0  0  0  0  0  0  0  0
   -6.5236  -25.9714   -4.1153 C   0  0  0  0  0  0  0  0  0  0  0  0
   -8.9579  -24.0210   -1.1805 O   0  0  0  0  0  0  0  0  0  0  0  0
   -7.5379  -23.8540   -1.1267 C   0  0  0  0  0  0  0  0  0  0  0  0
   -9.4196  -23.9253   -2.5250 C   0  0  0  0  0  0  0  0  0  0  0  0
   -6.8367  -24.9591   -1.9743 C   0  0  0  0  0  0  0  0  0  0  0  0
   -8.8030  -25.1149   -3.2752 C   0  0  0  0  0  0  0  0  0  0  0  0
   -7.3342  -24.9519   -3.3588 N   0  0  0  0  0  0  0  0  0  0  0  0
 35 33  1  0  0  0
 35 36  1  0  0  0
 27 29  2  0  0  0
 27 24  1  0  0  0
 33 31  1  0  0  0
 30 36  1  0  0  0
 30 24  1  0  0  0
 29 25  1  0  0  0
 36 34  1  0  0  0
 24 26  2  0  0  0
 31 32  1  0  0  0
 25 22  1  0  0  0
 25 28  2  0  0  0
 34 32  1  0  0  0
 14 12  2  0  0  0
 26 28  1  0  0  0
 22 23  3  0  0  0
  3  5  2  0  0  0
  3  1  1  0  0  0
 23  1  1  0  0  0
 19 18  1  0  0  0
  5  2  1  0  0  0
  1  4  2  0  0  0
 15 13  1  0  0  0
 12 13  1  0  0  0
 12 11  1  0  0  0
  9 11  1  0  0  0
  9  7  1  0  0  0
  2  7  1  0  0  0
  2  6  2  0  0  0
  4  6  1  0  0  0
 11 18  1  0  0  0
 18 20  1  0  0  0
  7  8  2  0  0  0
  9 10  1  0  0  0
 20 21  1  0  0  0
 13 16  1  0  0  0
 15 17  1  0  0  0
M  END
> <minimizedAffinity>
-8.82535

$$$$
