4J3L_AJ5_A_1204


 28 30  0  0  0  0  0  0  0  0999 V2000
    2.6304  -11.2419   -5.5147 C   0  0  0  0  0  0  0  0  0  0  0  0
    3.4330  -10.3456   -7.6104 C   0  0  0  0  0  0  0  0  0  0  0  0
    3.2952  -10.2448   -6.2324 C   0  0  0  0  0  0  0  0  0  0  0  0
    2.9023  -11.4251   -8.3463 C   0  0  0  0  0  0  0  0  0  0  0  0
    2.2203  -12.4620   -7.6132 C   0  0  0  0  0  0  0  0  0  0  0  0
    1.4933  -13.9030   -8.3321 Cl  0  0  0  0  0  0  0  0  0  0  0  0
    2.1060  -12.3512   -6.2226 C   0  0  0  0  0  0  0  0  0  0  0  0
    4.4880  -11.7712  -10.2062 C   0  0  0  0  0  0  0  0  0  0  0  0
    3.8690  -11.9911  -12.5438 C   0  0  0  0  0  0  0  0  0  0  0  0
    5.5847  -12.5079  -14.4594 C   0  0  0  0  0  0  0  0  0  0  0  0
    2.1554  -11.5914  -10.8051 C   0  0  0  0  0  0  0  0  0  0  0  0
    3.1523  -11.5488   -9.8232 C   0  0  0  0  0  0  0  0  0  0  0  0
    4.8704  -11.9644  -11.5198 C   0  0  0  0  0  0  0  0  0  0  0  0
    4.1497  -12.2370  -13.9933 C   0  0  0  0  0  0  0  0  0  0  0  0
    3.0997  -12.2805  -14.9088 C   0  0  0  0  0  0  0  0  0  0  0  0
    1.7747  -12.0688  -14.4217 C   0  0  0  0  0  0  0  0  0  0  0  0
    0.7871  -12.1098  -15.1756 O   0  0  0  0  0  0  0  0  0  0  0  0
    1.5461  -11.8267  -13.0987 N   0  0  0  0  0  0  0  0  0  0  0  0
    2.5123  -11.7881  -12.1370 C   0  0  0  0  0  0  0  0  0  0  0  0
    0.6159  -11.6683  -12.8178 H   0  0  0  0  0  0  0  0  0  0  0  0
    2.5167  -11.1744   -4.0106 C   0  0  0  0  0  0  0  0  0  0  0  0
    2.2230  -10.0390   -3.3620 N   0  0  0  0  0  0  0  0  0  0  0  0
    2.7909  -12.1745   -3.3600 O   0  0  0  0  0  0  0  0  0  0  0  0
    2.0340   -9.2347   -3.8974 H   0  0  0  0  0  0  0  0  0  0  0  0
    2.1669   -9.9253   -1.9021 C   0  0  0  0  0  0  0  0  0  0  0  0
    2.8629   -8.5945   -1.5276 C   0  0  0  0  0  0  0  0  0  0  0  0
    3.5191   -6.4074   -2.5381 C   0  0  0  0  0  0  0  0  0  0  0  0
    3.1837   -7.8014   -2.7043 O   0  0  0  0  0  0  0  0  0  0  0  0
 17 16  2  0  0  0
 15 16  1  0  0  0
 15 14  2  0  0  0
 10 14  1  0  0  0
 16 18  1  0  0  0
 14  9  1  0  0  0
 18 19  1  0  0  0
  9 19  2  0  0  0
  9 13  1  0  0  0
 19 11  1  0  0  0
 13  8  2  0  0  0
 11 12  2  0  0  0
  8 12  1  0  0  0
 12  4  1  0  0  0
  6  5  1  0  0  0
  4  5  2  0  0  0
  4  2  1  0  0  0
  5  7  1  0  0  0
  2  3  2  0  0  0
  7  1  2  0  0  0
  3  1  1  0  0  0
  1 21  1  0  0  0
 21 23  2  0  0  0
 21 22  1  0  0  0
 22 25  1  0  0  0
 25 26  1  0  0  0
 28 26  1  0  0  0
 28 27  1  0  0  0
 22 24  1  0  0  0
 18 20  1  0  0  0
M  END
> <minimizedAffinity>
-11.73023

$$$$
4J3L_AJ5_A_1204


 28 30  0  0  0  0  0  0  0  0999 V2000
    2.6514  -11.2657   -5.5716 C   0  0  0  0  0  0  0  0  0  0  0  0
    3.5104  -10.3978   -7.6569 C   0  0  0  0  0  0  0  0  0  0  0  0
    3.3787  -10.3047   -6.2777 C   0  0  0  0  0  0  0  0  0  0  0  0
    2.9122  -11.4326   -8.4053 C   0  0  0  0  0  0  0  0  0  0  0  0
    2.1651  -12.4323   -7.6842 C   0  0  0  0  0  0  0  0  0  0  0  0
    1.3478  -13.8154   -8.4198 Cl  0  0  0  0  0  0  0  0  0  0  0  0
    2.0575  -12.3309   -6.2924 C   0  0  0  0  0  0  0  0  0  0  0  0
    4.4812  -11.8176  -10.2716 C   0  0  0  0  0  0  0  0  0  0  0  0
    3.8496  -12.0018  -12.6090 C   0  0  0  0  0  0  0  0  0  0  0  0
    5.5428  -12.5613  -14.5325 C   0  0  0  0  0  0  0  0  0  0  0  0
    2.1542  -11.5582  -10.8631 C   0  0  0  0  0  0  0  0  0  0  0  0
    3.1543  -11.5545   -9.8836 C   0  0  0  0  0  0  0  0  0  0  0  0
    4.8539  -12.0143  -11.5875 C   0  0  0  0  0  0  0  0  0  0  0  0
    4.1186  -12.2470  -14.0608 C   0  0  0  0  0  0  0  0  0  0  0  0
    3.0654  -12.2504  -14.9737 C   0  0  0  0  0  0  0  0  0  0  0  0
    1.7492  -11.9991  -14.4817 C   0  0  0  0  0  0  0  0  0  0  0  0
    0.7590  -12.0030  -15.2332 O   0  0  0  0  0  0  0  0  0  0  0  0
    1.5319  -11.7585  -13.1565 N   0  0  0  0  0  0  0  0  0  0  0  0
    2.5012  -11.7576  -12.1972 C   0  0  0  0  0  0  0  0  0  0  0  0
    0.6080  -11.5719  -12.8721 H   0  0  0  0  0  0  0  0  0  0  0  0
    2.5416  -11.2089   -4.0667 C   0  0  0  0  0  0  0  0  0  0  0  0
    2.5636  -12.3094   -3.3022 N   0  0  0  0  0  0  0  0  0  0  0  0
    2.3359  -10.1241   -3.5380 O   0  0  0  0  0  0  0  0  0  0  0  0
    2.6999  -13.1784   -3.7442 H   0  0  0  0  0  0  0  0  0  0  0  0
    2.3966  -12.2941   -1.8464 C   0  0  0  0  0  0  0  0  0  0  0  0
    1.4683  -13.4796   -1.4878 C   0  0  0  0  0  0  0  0  0  0  0  0
    0.2786  -15.4078   -2.5374 C   0  0  0  0  0  0  0  0  0  0  0  0
    0.9405  -14.1326   -2.6759 O   0  0  0  0  0  0  0  0  0  0  0  0
 17 16  2  0  0  0
 15 16  1  0  0  0
 15 14  2  0  0  0
 10 14  1  0  0  0
 16 18  1  0  0  0
 14  9  1  0  0  0
 18 19  1  0  0  0
  9 19  2  0  0  0
  9 13  1  0  0  0
 19 11  1  0  0  0
 13  8  2  0  0  0
 11 12  2  0  0  0
  8 12  1  0  0  0
 12  4  1  0  0  0
  6  5  1  0  0  0
  4  5  2  0  0  0
  4  2  1  0  0  0
  5  7  1  0  0  0
  2  3  2  0  0  0
  7  1  2  0  0  0
  3  1  1  0  0  0
  1 21  1  0  0  0
 21 23  2  0  0  0
 21 22  1  0  0  0
 22 25  1  0  0  0
 25 26  1  0  0  0
 28 26  1  0  0  0
 28 27  1  0  0  0
 22 24  1  0  0  0
 18 20  1  0  0  0
M  END
> <minimizedAffinity>
-11.44392

$$$$
4J3L_AJ5_A_1204


 28 30  0  0  0  0  0  0  0  0999 V2000
    2.6456  -10.8516   -5.8286 C   0  0  0  0  0  0  0  0  0  0  0  0
    3.4963  -10.2319   -8.0040 C   0  0  0  0  0  0  0  0  0  0  0  0
    3.3266   -9.9538   -6.6542 C   0  0  0  0  0  0  0  0  0  0  0  0
    2.9830  -11.3994   -8.6057 C   0  0  0  0  0  0  0  0  0  0  0  0
    2.2844  -12.3346   -7.7601 C   0  0  0  0  0  0  0  0  0  0  0  0
    1.5744  -13.8590   -8.3026 Cl  0  0  0  0  0  0  0  0  0  0  0  0
    2.1379  -12.0449   -6.3986 C   0  0  0  0  0  0  0  0  0  0  0  0
    2.1609  -11.6738  -10.9169 C   0  0  0  0  0  0  0  0  0  0  0  0
    3.5621  -12.0970  -12.8544 C   0  0  0  0  0  0  0  0  0  0  0  0
    2.6470  -12.2301  -15.3090 C   0  0  0  0  0  0  0  0  0  0  0  0
    4.5430  -11.9021  -10.5919 C   0  0  0  0  0  0  0  0  0  0  0  0
    3.2671  -11.7127  -10.0479 C   0  0  0  0  0  0  0  0  0  0  0  0
    2.2682  -11.8807  -12.2788 C   0  0  0  0  0  0  0  0  0  0  0  0
    3.8146  -12.2869  -14.3174 C   0  0  0  0  0  0  0  0  0  0  0  0
    5.1174  -12.4539  -14.7838 C   0  0  0  0  0  0  0  0  0  0  0  0
    6.1780  -12.4535  -13.8284 C   0  0  0  0  0  0  0  0  0  0  0  0
    7.3662  -12.5801  -14.1712 O   0  0  0  0  0  0  0  0  0  0  0  0
    5.9207  -12.2984  -12.4976 N   0  0  0  0  0  0  0  0  0  0  0  0
    4.6807  -12.1094  -11.9622 C   0  0  0  0  0  0  0  0  0  0  0  0
    6.6859  -12.3247  -11.8787 H   0  0  0  0  0  0  0  0  0  0  0  0
    2.4971  -10.5901   -4.3490 C   0  0  0  0  0  0  0  0  0  0  0  0
    2.6875   -9.3778   -3.8105 N   0  0  0  0  0  0  0  0  0  0  0  0
    2.2825  -11.5406   -3.6079 O   0  0  0  0  0  0  0  0  0  0  0  0
    2.8891   -8.6280   -4.4158 H   0  0  0  0  0  0  0  0  0  0  0  0
    2.6130   -9.1035   -2.3729 C   0  0  0  0  0  0  0  0  0  0  0  0
    4.0653   -9.1112   -1.8377 C   0  0  0  0  0  0  0  0  0  0  0  0
    6.1306   -9.9608   -2.9548 C   0  0  0  0  0  0  0  0  0  0  0  0
    5.0395   -9.0168   -2.9141 O   0  0  0  0  0  0  0  0  0  0  0  0
 17 16  2  0  0  0
 15 16  1  0  0  0
 15 14  2  0  0  0
 10 14  1  0  0  0
 16 18  1  0  0  0
 14  9  1  0  0  0
 18 19  1  0  0  0
  9 19  2  0  0  0
  9 13  1  0  0  0
 19 11  1  0  0  0
 13  8  2  0  0  0
 11 12  2  0  0  0
  8 12  1  0  0  0
 12  4  1  0  0  0
  6  5  1  0  0  0
  4  5  2  0  0  0
  4  2  1  0  0  0
  5  7  1  0  0  0
  2  3  2  0  0  0
  7  1  2  0  0  0
  3  1  1  0  0  0
  1 21  1  0  0  0
 21 23  2  0  0  0
 21 22  1  0  0  0
 22 25  1  0  0  0
 25 26  1  0  0  0
 28 26  1  0  0  0
 28 27  1  0  0  0
 22 24  1  0  0  0
 18 20  1  0  0  0
M  END
> <minimizedAffinity>
-10.53108

$$$$
4J3L_AJ5_A_1204


 28 30  0  0  0  0  0  0  0  0999 V2000
    3.0160  -11.1394   -5.2970 C   0  0  0  0  0  0  0  0  0  0  0  0
    3.7316  -10.4639   -7.5041 C   0  0  0  0  0  0  0  0  0  0  0  0
    3.7119  -10.2608   -6.1306 C   0  0  0  0  0  0  0  0  0  0  0  0
    3.0474  -11.5320   -8.1203 C   0  0  0  0  0  0  0  0  0  0  0  0
    2.3319  -12.4474   -7.2672 C   0  0  0  0  0  0  0  0  0  0  0  0
    1.4207  -13.8542   -7.8264 Cl  0  0  0  0  0  0  0  0  0  0  0  0
    2.3374  -12.2359   -5.8836 C   0  0  0  0  0  0  0  0  0  0  0  0
    1.9658  -11.7481  -10.3285 C   0  0  0  0  0  0  0  0  0  0  0  0
    3.1401  -12.0343  -12.4345 C   0  0  0  0  0  0  0  0  0  0  0  0
    1.9439  -12.1075  -14.7677 C   0  0  0  0  0  0  0  0  0  0  0  0
    4.3764  -11.8890  -10.2969 C   0  0  0  0  0  0  0  0  0  0  0  0
    3.1685  -11.7751   -9.5984 C   0  0  0  0  0  0  0  0  0  0  0  0
    1.9172  -11.8957  -11.7015 C   0  0  0  0  0  0  0  0  0  0  0  0
    3.2229  -12.1549  -13.9241 C   0  0  0  0  0  0  0  0  0  0  0  0
    4.4659  -12.2483  -14.5477 C   0  0  0  0  0  0  0  0  0  0  0  0
    5.6323  -12.2415  -13.7248 C   0  0  0  0  0  0  0  0  0  0  0  0
    6.7749  -12.3043  -14.2105 O   0  0  0  0  0  0  0  0  0  0  0  0
    5.5303  -12.1506  -12.3674 N   0  0  0  0  0  0  0  0  0  0  0  0
    4.3570  -12.0354  -11.6818 C   0  0  0  0  0  0  0  0  0  0  0  0
    6.3644  -12.1695  -11.8447 H   0  0  0  0  0  0  0  0  0  0  0  0
    3.0270  -10.9636   -3.7974 C   0  0  0  0  0  0  0  0  0  0  0  0
    1.9302  -11.1314   -3.0458 N   0  0  0  0  0  0  0  0  0  0  0  0
    4.0554  -10.5670   -3.2647 O   0  0  0  0  0  0  0  0  0  0  0  0
    1.1022  -11.4218   -3.4922 H   0  0  0  0  0  0  0  0  0  0  0  0
    1.8920  -10.9076   -1.5981 C   0  0  0  0  0  0  0  0  0  0  0  0
    1.9245  -12.3018   -0.9265 C   0  0  0  0  0  0  0  0  0  0  0  0
    1.6369  -14.7148   -1.5008 C   0  0  0  0  0  0  0  0  0  0  0  0
    1.3500  -13.3285   -1.7823 O   0  0  0  0  0  0  0  0  0  0  0  0
 17 16  2  0  0  0
 15 16  1  0  0  0
 15 14  2  0  0  0
 10 14  1  0  0  0
 16 18  1  0  0  0
 14  9  1  0  0  0
 18 19  1  0  0  0
  9 19  2  0  0  0
  9 13  1  0  0  0
 19 11  1  0  0  0
 13  8  2  0  0  0
 11 12  2  0  0  0
  8 12  1  0  0  0
 12  4  1  0  0  0
  6  5  1  0  0  0
  4  5  2  0  0  0
  4  2  1  0  0  0
  5  7  1  0  0  0
  2  3  2  0  0  0
  7  1  2  0  0  0
  3  1  1  0  0  0
  1 21  1  0  0  0
 21 23  2  0  0  0
 21 22  1  0  0  0
 22 25  1  0  0  0
 25 26  1  0  0  0
 28 26  1  0  0  0
 28 27  1  0  0  0
 22 24  1  0  0  0
 18 20  1  0  0  0
M  END
> <minimizedAffinity>
-9.34600

$$$$
4J3L_AJ5_A_1204


 28 30  0  0  0  0  0  0  0  0999 V2000
    2.8962  -11.6758  -10.5751 C   0  0  0  0  0  0  0  0  0  0  0  0
    3.6465  -10.6781   -8.5060 C   0  0  0  0  0  0  0  0  0  0  0  0
    3.7449  -10.8070   -9.8851 C   0  0  0  0  0  0  0  0  0  0  0  0
    2.7198  -11.4168   -7.7418 C   0  0  0  0  0  0  0  0  0  0  0  0
    1.8356  -12.3111   -8.4462 C   0  0  0  0  0  0  0  0  0  0  0  0
    0.5970  -13.3184   -7.6893 Cl  0  0  0  0  0  0  0  0  0  0  0  0
    1.9385  -12.4151   -9.8382 C   0  0  0  0  0  0  0  0  0  0  0  0
    2.5083  -12.3349   -5.4603 C   0  0  0  0  0  0  0  0  0  0  0  0
    2.4800  -11.0144   -3.4228 C   0  0  0  0  0  0  0  0  0  0  0  0
    2.4043  -12.0557   -1.0165 C   0  0  0  0  0  0  0  0  0  0  0  0
    2.6431   -9.9305   -5.6403 C   0  0  0  0  0  0  0  0  0  0  0  0
    2.5774  -11.1820   -6.2642 C   0  0  0  0  0  0  0  0  0  0  0  0
    2.4352  -12.2858   -4.0814 C   0  0  0  0  0  0  0  0  0  0  0  0
    2.4555  -10.8314   -1.9374 C   0  0  0  0  0  0  0  0  0  0  0  0
    2.5411   -9.5519   -1.3915 C   0  0  0  0  0  0  0  0  0  0  0  0
    2.6343   -8.4443   -2.2872 C   0  0  0  0  0  0  0  0  0  0  0  0
    2.7309   -7.2759   -1.8737 O   0  0  0  0  0  0  0  0  0  0  0  0
    2.6348   -8.6352   -3.6380 N   0  0  0  0  0  0  0  0  0  0  0  0
    2.5751   -9.8518   -4.2514 C   0  0  0  0  0  0  0  0  0  0  0  0
    2.6816   -7.8365   -4.2118 H   0  0  0  0  0  0  0  0  0  0  0  0
    2.9543  -11.7898  -12.0796 C   0  0  0  0  0  0  0  0  0  0  0  0
    1.8712  -11.6386  -12.8543 N   0  0  0  0  0  0  0  0  0  0  0  0
    4.0127  -12.1200  -12.5986 O   0  0  0  0  0  0  0  0  0  0  0  0
    1.0198  -11.4024  -12.4201 H   0  0  0  0  0  0  0  0  0  0  0  0
    1.8809  -11.8046  -14.3103 C   0  0  0  0  0  0  0  0  0  0  0  0
    2.0435  -13.3184  -14.5893 C   0  0  0  0  0  0  0  0  0  0  0  0
    4.0188  -12.5473  -15.9079 C   0  0  0  0  0  0  0  0  0  0  0  0
    3.0534  -13.5764  -15.6043 O   0  0  0  0  0  0  0  0  0  0  0  0
 17 16  2  0  0  0
 15 16  1  0  0  0
 15 14  2  0  0  0
 10 14  1  0  0  0
 16 18  1  0  0  0
 14  9  1  0  0  0
 18 19  1  0  0  0
  9 19  2  0  0  0
  9 13  1  0  0  0
 19 11  1  0  0  0
 13  8  2  0  0  0
 11 12  2  0  0  0
  8 12  1  0  0  0
 12  4  1  0  0  0
  6  5  1  0  0  0
  4  5  2  0  0  0
  4  2  1  0  0  0
  5  7  1  0  0  0
  2  3  2  0  0  0
  7  1  2  0  0  0
  3  1  1  0  0  0
  1 21  1  0  0  0
 21 23  2  0  0  0
 21 22  1  0  0  0
 22 25  1  0  0  0
 25 26  1  0  0  0
 28 26  1  0  0  0
 28 27  1  0  0  0
 22 24  1  0  0  0
 18 20  1  0  0  0
M  END
> <minimizedAffinity>
-9.02406

$$$$
