5YZ2_AMP_A_301


 29 31  0  0  0  0  0  0  0  0999 V2000
   16.8498    9.1478    7.9750 C   0  0  0  0  0  0  0  0  0  0  0  0
   17.6299    9.1797    6.7540 O   0  0  0  0  0  0  0  0  0  0  0  0
   15.4797    9.7013    7.6112 C   0  0  0  0  0  0  0  0  0  0  0  0
   15.4969   11.1215    7.7660 O   0  0  0  0  0  0  0  0  0  0  0  0
   15.3518    9.3355    6.1387 C   0  0  0  0  0  0  0  0  0  0  0  0
   14.4693   10.1568    5.4099 O   0  0  0  0  0  0  0  0  0  0  0  0
   16.7965    9.4943    5.6531 C   0  0  0  0  0  0  0  0  0  0  0  0
   16.2154   11.4962    7.2329 H   0  0  0  0  0  0  0  0  0  0  0  0
   14.7624   11.0795    5.4699 H   0  0  0  0  0  0  0  0  0  0  0  0
   17.1865    8.6048    4.5617 N   0  0  0  0  0  0  0  0  0  0  0  0
   18.0732    7.5896    4.6223 C   0  0  0  0  0  0  0  0  0  0  0  0
   18.2043    7.0031    3.4110 N   0  0  0  0  0  0  0  0  0  0  0  0
   17.3935    7.6683    2.5606 C   0  0  0  0  0  0  0  0  0  0  0  0
   17.0485    7.5716    1.1398 C   0  0  0  0  0  0  0  0  0  0  0  0
   17.6328    6.6202    0.4068 N   0  0  0  0  0  0  0  0  0  0  0  0
   16.1568    8.4477    0.6148 N   0  0  0  0  0  0  0  0  0  0  0  0
   15.5839    9.3944    1.3697 C   0  0  0  0  0  0  0  0  0  0  0  0
   15.8521    9.5408    2.6839 N   0  0  0  0  0  0  0  0  0  0  0  0
   16.7278    8.7186    3.3197 C   0  0  0  0  0  0  0  0  0  0  0  0
   18.2756    6.0022    0.8243 H   0  0  0  0  0  0  0  0  0  0  0  0
   17.4208    6.5368   -0.5510 H   0  0  0  0  0  0  0  0  0  0  0  0
   16.8778    7.7493    8.5478 C   0  0  0  0  0  0  0  0  0  0  0  0
   18.1336    7.4314    9.1398 O   0  0  0  0  0  0  0  0  0  0  0  0
   19.1917    6.5265    8.3642 P   0  0  0  0  0  0  0  0  0  0  0  0
   18.3286    5.5967    7.5397 O   0  0  0  0  0  0  0  0  0  0  0  0
   19.9941    7.5195    7.5576 O   0  0  0  0  0  0  0  0  0  0  0  0
   19.9735    5.8541    9.4676 O   0  0  0  0  0  0  0  0  0  0  0  0
   20.6715    7.0491    7.0469 H   0  0  0  0  0  0  0  0  0  0  0  0
   20.6490    5.2762    9.0793 H   0  0  0  0  0  0  0  0  0  0  0  0
 24 25  2  0  0  0
 24 26  1  0  0  0
 24 27  1  0  0  0
 24 23  1  0  0  0
 23 22  1  0  0  0
 22  1  1  0  0  0
  1  2  1  0  0  0
  1  3  1  0  0  0
  2  7  1  0  0  0
  3  4  1  0  0  0
  3  5  1  0  0  0
  5  6  1  0  0  0
  5  7  1  0  0  0
  7 10  1  0  0  0
 10 11  1  0  0  0
 10 19  1  0  0  0
 11 12  2  0  0  0
 12 13  1  0  0  0
 13 14  1  0  0  0
 13 19  2  0  0  0
 14 15  1  0  0  0
 14 16  2  0  0  0
 16 17  1  0  0  0
 17 18  2  0  0  0
 18 19  1  0  0  0
 26 28  1  0  0  0
 27 29  1  0  0  0
  4  8  1  0  0  0
  6  9  1  0  0  0
 15 20  1  0  0  0
 15 21  1  0  0  0
M  END
> <minimizedAffinity>
-8.23492

$$$$
5YZ2_AMP_A_301


 29 31  0  0  0  0  0  0  0  0999 V2000
   16.6315    9.1977    8.0407 C   0  0  0  0  0  0  0  0  0  0  0  0
   17.4768    9.1801    6.8637 O   0  0  0  0  0  0  0  0  0  0  0  0
   15.2997    9.7811    7.5913 C   0  0  0  0  0  0  0  0  0  0  0  0
   15.3500   11.2033    7.7169 O   0  0  0  0  0  0  0  0  0  0  0  0
   15.2406    9.3857    6.1220 C   0  0  0  0  0  0  0  0  0  0  0  0
   14.4230   10.2148    5.3291 O   0  0  0  0  0  0  0  0  0  0  0  0
   16.7134    9.4930    5.7126 C   0  0  0  0  0  0  0  0  0  0  0  0
   16.1068   11.5456    7.2159 H   0  0  0  0  0  0  0  0  0  0  0  0
   14.7392   11.1301    5.3856 H   0  0  0  0  0  0  0  0  0  0  0  0
   17.1354    8.5685    4.6630 N   0  0  0  0  0  0  0  0  0  0  0  0
   17.9992    7.5398    4.7897 C   0  0  0  0  0  0  0  0  0  0  0  0
   18.1737    6.9194    3.6010 N   0  0  0  0  0  0  0  0  0  0  0  0
   17.4148    7.5763    2.6979 C   0  0  0  0  0  0  0  0  0  0  0  0
   17.1323    7.4485    1.2657 C   0  0  0  0  0  0  0  0  0  0  0  0
   17.7312    6.4680    0.5845 N   0  0  0  0  0  0  0  0  0  0  0  0
   16.2819    8.3261    0.6786 N   0  0  0  0  0  0  0  0  0  0  0  0
   15.6934    9.3022    1.3824 C   0  0  0  0  0  0  0  0  0  0  0  0
   15.9048    9.4782    2.7032 N   0  0  0  0  0  0  0  0  0  0  0  0
   16.7354    8.6577    3.3989 C   0  0  0  0  0  0  0  0  0  0  0  0
   18.3427    5.8500    1.0464 H   0  0  0  0  0  0  0  0  0  0  0  0
   17.5610    6.3633   -0.3795 H   0  0  0  0  0  0  0  0  0  0  0  0
   16.5877    7.8123    8.6435 C   0  0  0  0  0  0  0  0  0  0  0  0
   15.2646    7.2883    8.7016 O   0  0  0  0  0  0  0  0  0  0  0  0
   14.9573    5.8020    8.2154 P   0  0  0  0  0  0  0  0  0  0  0  0
   16.0303    5.5361    7.1824 O   0  0  0  0  0  0  0  0  0  0  0  0
   15.0791    4.9772    9.4747 O   0  0  0  0  0  0  0  0  0  0  0  0
   13.5532    5.8822    7.6650 O   0  0  0  0  0  0  0  0  0  0  0  0
   14.9053    4.0454    9.2689 H   0  0  0  0  0  0  0  0  0  0  0  0
   13.2820    5.0085    7.3424 H   0  0  0  0  0  0  0  0  0  0  0  0
 24 25  2  0  0  0
 24 26  1  0  0  0
 24 27  1  0  0  0
 24 23  1  0  0  0
 23 22  1  0  0  0
 22  1  1  0  0  0
  1  2  1  0  0  0
  1  3  1  0  0  0
  2  7  1  0  0  0
  3  4  1  0  0  0
  3  5  1  0  0  0
  5  6  1  0  0  0
  5  7  1  0  0  0
  7 10  1  0  0  0
 10 11  1  0  0  0
 10 19  1  0  0  0
 11 12  2  0  0  0
 12 13  1  0  0  0
 13 14  1  0  0  0
 13 19  2  0  0  0
 14 15  1  0  0  0
 14 16  2  0  0  0
 16 17  1  0  0  0
 17 18  2  0  0  0
 18 19  1  0  0  0
 26 28  1  0  0  0
 27 29  1  0  0  0
  4  8  1  0  0  0
  6  9  1  0  0  0
 15 20  1  0  0  0
 15 21  1  0  0  0
M  END
> <minimizedAffinity>
-7.82988

$$$$
5YZ2_AMP_A_301


 29 31  0  0  0  0  0  0  0  0999 V2000
   17.7480    6.5278    7.7451 C   0  0  0  0  0  0  0  0  0  0  0  0
   17.1462    6.5425    6.4268 O   0  0  0  0  0  0  0  0  0  0  0  0
   19.1958    6.9542    7.5495 C   0  0  0  0  0  0  0  0  0  0  0  0
   19.9872    5.7970    7.2741 O   0  0  0  0  0  0  0  0  0  0  0  0
   19.1185    7.8429    6.3154 C   0  0  0  0  0  0  0  0  0  0  0  0
   20.3241    7.9419    5.5935 O   0  0  0  0  0  0  0  0  0  0  0  0
   18.0297    7.1417    5.4962 C   0  0  0  0  0  0  0  0  0  0  0  0
   19.6191    5.3282    6.5089 H   0  0  0  0  0  0  0  0  0  0  0  0
   20.6073    7.0571    5.3142 H   0  0  0  0  0  0  0  0  0  0  0  0
   17.2219    8.0214    4.6546 N   0  0  0  0  0  0  0  0  0  0  0  0
   16.3868    8.9964    5.0699 C   0  0  0  0  0  0  0  0  0  0  0  0
   15.7845    9.5857    4.0124 N   0  0  0  0  0  0  0  0  0  0  0  0
   16.2368    8.9628    2.9031 C   0  0  0  0  0  0  0  0  0  0  0  0
   16.0138    9.0851    1.4601 C   0  0  0  0  0  0  0  0  0  0  0  0
   15.1599   10.0155    1.0252 N   0  0  0  0  0  0  0  0  0  0  0  0
   16.6722    8.2526    0.6163 N   0  0  0  0  0  0  0  0  0  0  0  0
   17.5237    7.3263    1.0760 C   0  0  0  0  0  0  0  0  0  0  0  0
   17.7793    7.1586    2.3901 N   0  0  0  0  0  0  0  0  0  0  0  0
   17.1796    7.9370    3.3290 C   0  0  0  0  0  0  0  0  0  0  0  0
   14.7006   10.6016    1.6692 H   0  0  0  0  0  0  0  0  0  0  0  0
   14.9898   10.1152    0.0606 H   0  0  0  0  0  0  0  0  0  0  0  0
   16.9191    7.3775    8.6807 C   0  0  0  0  0  0  0  0  0  0  0  0
   15.6826    7.7770    8.0977 O   0  0  0  0  0  0  0  0  0  0  0  0
   14.3228    7.0483    8.4976 P   0  0  0  0  0  0  0  0  0  0  0  0
   13.2928    8.1547    8.4310 O   0  0  0  0  0  0  0  0  0  0  0  0
   14.1634    5.9772    7.4450 O   0  0  0  0  0  0  0  0  0  0  0  0
   14.5905    6.5140    9.8846 O   0  0  0  0  0  0  0  0  0  0  0  0
   13.3494    5.4772    7.6131 H   0  0  0  0  0  0  0  0  0  0  0  0
   13.8036    6.0491   10.2095 H   0  0  0  0  0  0  0  0  0  0  0  0
 24 25  2  0  0  0
 24 26  1  0  0  0
 24 27  1  0  0  0
 24 23  1  0  0  0
 23 22  1  0  0  0
 22  1  1  0  0  0
  1  2  1  0  0  0
  1  3  1  0  0  0
  2  7  1  0  0  0
  3  4  1  0  0  0
  3  5  1  0  0  0
  5  6  1  0  0  0
  5  7  1  0  0  0
  7 10  1  0  0  0
 10 11  1  0  0  0
 10 19  1  0  0  0
 11 12  2  0  0  0
 12 13  1  0  0  0
 13 14  1  0  0  0
 13 19  2  0  0  0
 14 15  1  0  0  0
 14 16  2  0  0  0
 16 17  1  0  0  0
 17 18  2  0  0  0
 18 19  1  0  0  0
 26 28  1  0  0  0
 27 29  1  0  0  0
  4  8  1  0  0  0
  6  9  1  0  0  0
 15 20  1  0  0  0
 15 21  1  0  0  0
M  END
> <minimizedAffinity>
-7.70480

$$$$
5YZ2_AMP_A_301


 29 31  0  0  0  0  0  0  0  0999 V2000
   15.8251    9.0903    5.1395 C   0  0  0  0  0  0  0  0  0  0  0  0
   16.2065    8.0637    6.0887 O   0  0  0  0  0  0  0  0  0  0  0  0
   15.7807   10.3924    5.9260 C   0  0  0  0  0  0  0  0  0  0  0  0
   14.4759   10.5521    6.4857 O   0  0  0  0  0  0  0  0  0  0  0  0
   16.7997   10.1501    7.0312 C   0  0  0  0  0  0  0  0  0  0  0  0
   16.5959   10.9243    8.1902 O   0  0  0  0  0  0  0  0  0  0  0  0
   16.6031    8.6566    7.3122 C   0  0  0  0  0  0  0  0  0  0  0  0
   14.2561    9.7735    7.0209 H   0  0  0  0  0  0  0  0  0  0  0  0
   15.7117   10.7458    8.5470 H   0  0  0  0  0  0  0  0  0  0  0  0
   17.7993    7.9452    7.7568 N   0  0  0  0  0  0  0  0  0  0  0  0
   18.9904    7.8909    7.1254 C   0  0  0  0  0  0  0  0  0  0  0  0
   19.8568    7.1154    7.8156 N   0  0  0  0  0  0  0  0  0  0  0  0
   19.1977    6.6572    8.9012 C   0  0  0  0  0  0  0  0  0  0  0  0
   19.5172    5.7966   10.0434 C   0  0  0  0  0  0  0  0  0  0  0  0
   20.7450    5.2769   10.1241 N   0  0  0  0  0  0  0  0  0  0  0  0
   18.5623    5.5516   10.9742 N   0  0  0  0  0  0  0  0  0  0  0  0
   17.3373    6.0837   10.8716 C   0  0  0  0  0  0  0  0  0  0  0  0
   16.9738    6.8859    9.8495 N   0  0  0  0  0  0  0  0  0  0  0  0
   17.8480    7.2039    8.8587 C   0  0  0  0  0  0  0  0  0  0  0  0
   21.4115    5.4782    9.4281 H   0  0  0  0  0  0  0  0  0  0  0  0
   20.9834    4.6924   10.8797 H   0  0  0  0  0  0  0  0  0  0  0  0
   16.7676    9.0518    3.9585 C   0  0  0  0  0  0  0  0  0  0  0  0
   16.2287    8.3250    2.8586 O   0  0  0  0  0  0  0  0  0  0  0  0
   17.1397    7.9554    1.6043 P   0  0  0  0  0  0  0  0  0  0  0  0
   18.5370    8.3137    2.0610 O   0  0  0  0  0  0  0  0  0  0  0  0
   16.9024    6.4770    1.4081 O   0  0  0  0  0  0  0  0  0  0  0  0
   16.5953    8.8197    0.4919 O   0  0  0  0  0  0  0  0  0  0  0  0
   17.4255    6.1628    0.6541 H   0  0  0  0  0  0  0  0  0  0  0  0
   17.0992    8.6563   -0.3207 H   0  0  0  0  0  0  0  0  0  0  0  0
 24 25  2  0  0  0
 24 26  1  0  0  0
 24 27  1  0  0  0
 24 23  1  0  0  0
 23 22  1  0  0  0
 22  1  1  0  0  0
  1  2  1  0  0  0
  1  3  1  0  0  0
  2  7  1  0  0  0
  3  4  1  0  0  0
  3  5  1  0  0  0
  5  6  1  0  0  0
  5  7  1  0  0  0
  7 10  1  0  0  0
 10 11  1  0  0  0
 10 19  1  0  0  0
 11 12  2  0  0  0
 12 13  1  0  0  0
 13 14  1  0  0  0
 13 19  2  0  0  0
 14 15  1  0  0  0
 14 16  2  0  0  0
 16 17  1  0  0  0
 17 18  2  0  0  0
 18 19  1  0  0  0
 26 28  1  0  0  0
 27 29  1  0  0  0
  4  8  1  0  0  0
  6  9  1  0  0  0
 15 20  1  0  0  0
 15 21  1  0  0  0
M  END
> <minimizedAffinity>
-6.82449

$$$$
5YZ2_AMP_A_301


 29 31  0  0  0  0  0  0  0  0999 V2000
   18.0480    8.7609    4.5955 C   0  0  0  0  0  0  0  0  0  0  0  0
   17.3554    9.3345    5.7320 O   0  0  0  0  0  0  0  0  0  0  0  0
   18.8306    7.5736    5.1375 C   0  0  0  0  0  0  0  0  0  0  0  0
   20.1131    8.0247    5.5767 O   0  0  0  0  0  0  0  0  0  0  0  0
   17.9912    7.1366    6.3304 C   0  0  0  0  0  0  0  0  0  0  0  0
   18.7079    6.4366    7.3207 O   0  0  0  0  0  0  0  0  0  0  0  0
   17.4753    8.4806    6.8554 C   0  0  0  0  0  0  0  0  0  0  0  0
   20.0006    8.7375    6.2249 H   0  0  0  0  0  0  0  0  0  0  0  0
   19.4344    6.9906    7.6464 H   0  0  0  0  0  0  0  0  0  0  0  0
   16.1613    8.4358    7.4927 N   0  0  0  0  0  0  0  0  0  0  0  0
   14.9892    8.8393    6.9600 C   0  0  0  0  0  0  0  0  0  0  0  0
   13.9840    8.6752    7.8494 N   0  0  0  0  0  0  0  0  0  0  0  0
   14.5317    8.1691    8.9750 C   0  0  0  0  0  0  0  0  0  0  0  0
   14.0420    7.7592   10.2938 C   0  0  0  0  0  0  0  0  0  0  0  0
   12.7376    7.8810   10.5539 N   0  0  0  0  0  0  0  0  0  0  0  0
   14.9222    7.2769   11.2054 N   0  0  0  0  0  0  0  0  0  0  0  0
   16.2266    7.1645   10.9220 C   0  0  0  0  0  0  0  0  0  0  0  0
   16.7470    7.5200    9.7290 N   0  0  0  0  0  0  0  0  0  0  0  0
   15.9605    8.0138    8.7367 C   0  0  0  0  0  0  0  0  0  0  0  0
   12.1295    8.2357    9.8657 H   0  0  0  0  0  0  0  0  0  0  0  0
   12.3843    7.6161   11.4338 H   0  0  0  0  0  0  0  0  0  0  0  0
   17.0485    8.4625    3.5016 C   0  0  0  0  0  0  0  0  0  0  0  0
   17.4665    7.3892    2.6639 O   0  0  0  0  0  0  0  0  0  0  0  0
   17.2402    7.4533    1.0876 P   0  0  0  0  0  0  0  0  0  0  0  0
   18.5165    8.0796    0.5697 O   0  0  0  0  0  0  0  0  0  0  0  0
   17.0432    6.0093    0.6916 O   0  0  0  0  0  0  0  0  0  0  0  0
   16.0055    8.3088    0.9317 O   0  0  0  0  0  0  0  0  0  0  0  0
   16.8968    5.9536   -0.2656 H   0  0  0  0  0  0  0  0  0  0  0  0
   15.7930    8.4013   -0.0103 H   0  0  0  0  0  0  0  0  0  0  0  0
 24 25  2  0  0  0
 24 26  1  0  0  0
 24 27  1  0  0  0
 24 23  1  0  0  0
 23 22  1  0  0  0
 22  1  1  0  0  0
  1  2  1  0  0  0
  1  3  1  0  0  0
  2  7  1  0  0  0
  3  4  1  0  0  0
  3  5  1  0  0  0
  5  6  1  0  0  0
  5  7  1  0  0  0
  7 10  1  0  0  0
 10 11  1  0  0  0
 10 19  1  0  0  0
 11 12  2  0  0  0
 12 13  1  0  0  0
 13 14  1  0  0  0
 13 19  2  0  0  0
 14 15  1  0  0  0
 14 16  2  0  0  0
 16 17  1  0  0  0
 17 18  2  0  0  0
 18 19  1  0  0  0
 26 28  1  0  0  0
 27 29  1  0  0  0
  4  8  1  0  0  0
  6  9  1  0  0  0
 15 20  1  0  0  0
 15 21  1  0  0  0
M  END
> <minimizedAffinity>
-6.59716

$$$$
5YZ2_AMP_A_301


 29 31  0  0  0  0  0  0  0  0999 V2000
   15.7500    9.0317    6.5136 C   0  0  0  0  0  0  0  0  0  0  0  0
   14.6007    8.3512    7.0760 O   0  0  0  0  0  0  0  0  0  0  0  0
   16.0991   10.1434    7.4925 C   0  0  0  0  0  0  0  0  0  0  0  0
   15.3530   11.3131    7.1514 O   0  0  0  0  0  0  0  0  0  0  0  0
   15.6152    9.5816    8.8225 C   0  0  0  0  0  0  0  0  0  0  0  0
   15.3126   10.5587    9.7910 O   0  0  0  0  0  0  0  0  0  0  0  0
   14.3631    8.8083    8.3952 C   0  0  0  0  0  0  0  0  0  0  0  0
   14.4069   11.0999    7.1353 H   0  0  0  0  0  0  0  0  0  0  0  0
   14.6299   11.1553    9.4462 H   0  0  0  0  0  0  0  0  0  0  0  0
   14.0561    7.6288    9.2009 N   0  0  0  0  0  0  0  0  0  0  0  0
   14.2431    6.3390    8.8518 C   0  0  0  0  0  0  0  0  0  0  0  0
   13.8174    5.5159    9.8365 N   0  0  0  0  0  0  0  0  0  0  0  0
   13.3380    6.2994   10.8261 C   0  0  0  0  0  0  0  0  0  0  0  0
   12.7412    6.0833   12.1468 C   0  0  0  0  0  0  0  0  0  0  0  0
   12.5809    4.8282   12.5745 N   0  0  0  0  0  0  0  0  0  0  0  0
   12.3678    7.1560   12.8872 N   0  0  0  0  0  0  0  0  0  0  0  0
   12.5379    8.4061   12.4369 C   0  0  0  0  0  0  0  0  0  0  0  0
   13.0821    8.6799   11.2330 N   0  0  0  0  0  0  0  0  0  0  0  0
   13.4964    7.6850   10.4048 C   0  0  0  0  0  0  0  0  0  0  0  0
   12.8647    4.0750   12.0077 H   0  0  0  0  0  0  0  0  0  0  0  0
   12.1788    4.6563   13.4566 H   0  0  0  0  0  0  0  0  0  0  0  0
   16.8379    8.0213    6.2304 C   0  0  0  0  0  0  0  0  0  0  0  0
   18.0972    8.4168    6.7654 O   0  0  0  0  0  0  0  0  0  0  0  0
   19.3213    7.3967    6.8013 P   0  0  0  0  0  0  0  0  0  0  0  0
   19.8590    7.5349    8.2088 O   0  0  0  0  0  0  0  0  0  0  0  0
   18.6868    6.0599    6.4995 O   0  0  0  0  0  0  0  0  0  0  0  0
   20.2453    7.8989    5.7175 O   0  0  0  0  0  0  0  0  0  0  0  0
   19.3691    5.3704    6.5012 H   0  0  0  0  0  0  0  0  0  0  0  0
   21.0279    7.3278    5.6696 H   0  0  0  0  0  0  0  0  0  0  0  0
 24 25  2  0  0  0
 24 26  1  0  0  0
 24 27  1  0  0  0
 24 23  1  0  0  0
 23 22  1  0  0  0
 22  1  1  0  0  0
  1  2  1  0  0  0
  1  3  1  0  0  0
  2  7  1  0  0  0
  3  4  1  0  0  0
  3  5  1  0  0  0
  5  6  1  0  0  0
  5  7  1  0  0  0
  7 10  1  0  0  0
 10 11  1  0  0  0
 10 19  1  0  0  0
 11 12  2  0  0  0
 12 13  1  0  0  0
 13 14  1  0  0  0
 13 19  2  0  0  0
 14 15  1  0  0  0
 14 16  2  0  0  0
 16 17  1  0  0  0
 17 18  2  0  0  0
 18 19  1  0  0  0
 26 28  1  0  0  0
 27 29  1  0  0  0
  4  8  1  0  0  0
  6  9  1  0  0  0
 15 20  1  0  0  0
 15 21  1  0  0  0
M  END
> <minimizedAffinity>
-6.48508

$$$$
5YZ2_AMP_A_301


 29 31  0  0  0  0  0  0  0  0999 V2000
   13.6815    8.5099   10.0264 C   0  0  0  0  0  0  0  0  0  0  0  0
   14.6272    8.8783    8.9919 O   0  0  0  0  0  0  0  0  0  0  0  0
   13.0262    7.2199    9.5547 C   0  0  0  0  0  0  0  0  0  0  0  0
   11.8875    7.5434    8.7549 O   0  0  0  0  0  0  0  0  0  0  0  0
   14.1114    6.5898    8.6922 C   0  0  0  0  0  0  0  0  0  0  0  0
   13.6318    5.6955    7.7152 O   0  0  0  0  0  0  0  0  0  0  0  0
   14.7564    7.8248    8.0543 C   0  0  0  0  0  0  0  0  0  0  0  0
   12.1583    8.1241    8.0267 H   0  0  0  0  0  0  0  0  0  0  0  0
   13.0092    6.1573    7.1320 H   0  0  0  0  0  0  0  0  0  0  0  0
   16.1812    7.6980    7.7567 N   0  0  0  0  0  0  0  0  0  0  0  0
   17.1543    7.3101    8.6070 C   0  0  0  0  0  0  0  0  0  0  0  0
   18.3583    7.3378    7.9923 N   0  0  0  0  0  0  0  0  0  0  0  0
   18.1468    7.7647    6.7290 C   0  0  0  0  0  0  0  0  0  0  0  0
   18.9773    8.0193    5.5489 C   0  0  0  0  0  0  0  0  0  0  0  0
   20.2937    7.8128    5.6412 N   0  0  0  0  0  0  0  0  0  0  0  0
   18.3894    8.4586    4.4088 N   0  0  0  0  0  0  0  0  0  0  0  0
   17.0667    8.6592    4.3402 C   0  0  0  0  0  0  0  0  0  0  0  0
   16.2412    8.4436    5.3853 N   0  0  0  0  0  0  0  0  0  0  0  0
   16.7169    8.0001    6.5787 C   0  0  0  0  0  0  0  0  0  0  0  0
   20.6837    7.4933    6.4868 H   0  0  0  0  0  0  0  0  0  0  0  0
   20.8739    7.9802    4.8637 H   0  0  0  0  0  0  0  0  0  0  0  0
   14.3961    8.4516   11.3570 C   0  0  0  0  0  0  0  0  0  0  0  0
   14.9730    9.7029   11.7174 O   0  0  0  0  0  0  0  0  0  0  0  0
   14.1043   10.8148   12.4585 P   0  0  0  0  0  0  0  0  0  0  0  0
   13.2619   10.0188   13.4312 O   0  0  0  0  0  0  0  0  0  0  0  0
   15.1360   11.7079   13.1054 O   0  0  0  0  0  0  0  0  0  0  0  0
   13.3303   11.4755   11.3426 O   0  0  0  0  0  0  0  0  0  0  0  0
   14.6895   12.4229   13.5853 H   0  0  0  0  0  0  0  0  0  0  0  0
   12.7673   12.1749   11.7096 H   0  0  0  0  0  0  0  0  0  0  0  0
 24 25  2  0  0  0
 24 26  1  0  0  0
 24 27  1  0  0  0
 24 23  1  0  0  0
 23 22  1  0  0  0
 22  1  1  0  0  0
  1  2  1  0  0  0
  1  3  1  0  0  0
  2  7  1  0  0  0
  3  4  1  0  0  0
  3  5  1  0  0  0
  5  6  1  0  0  0
  5  7  1  0  0  0
  7 10  1  0  0  0
 10 11  1  0  0  0
 10 19  1  0  0  0
 11 12  2  0  0  0
 12 13  1  0  0  0
 13 14  1  0  0  0
 13 19  2  0  0  0
 14 15  1  0  0  0
 14 16  2  0  0  0
 16 17  1  0  0  0
 17 18  2  0  0  0
 18 19  1  0  0  0
 26 28  1  0  0  0
 27 29  1  0  0  0
  4  8  1  0  0  0
  6  9  1  0  0  0
 15 20  1  0  0  0
 15 21  1  0  0  0
M  END
> <minimizedAffinity>
-6.44112

$$$$
5YZ2_AMP_A_301


 29 31  0  0  0  0  0  0  0  0999 V2000
   19.3378    5.0431    4.6867 C   0  0  0  0  0  0  0  0  0  0  0  0
   19.1322    6.3561    4.1088 O   0  0  0  0  0  0  0  0  0  0  0  0
   19.1223    5.2062    6.1844 C   0  0  0  0  0  0  0  0  0  0  0  0
   20.3618    5.5697    6.7947 O   0  0  0  0  0  0  0  0  0  0  0  0
   18.1412    6.3685    6.2561 C   0  0  0  0  0  0  0  0  0  0  0  0
   18.1718    7.0813    7.4708 O   0  0  0  0  0  0  0  0  0  0  0  0
   18.6051    7.2385    5.0830 C   0  0  0  0  0  0  0  0  0  0  0  0
   20.7101    6.3684    6.3686 H   0  0  0  0  0  0  0  0  0  0  0  0
   19.0655    7.4276    7.6201 H   0  0  0  0  0  0  0  0  0  0  0  0
   17.5519    8.0099    4.4270 N   0  0  0  0  0  0  0  0  0  0  0  0
   16.5844    8.7333    5.0280 C   0  0  0  0  0  0  0  0  0  0  0  0
   15.7677    9.2898    4.1052 N   0  0  0  0  0  0  0  0  0  0  0  0
   16.2184    8.9010    2.8934 C   0  0  0  0  0  0  0  0  0  0  0  0
   15.8254    9.1267    1.4999 C   0  0  0  0  0  0  0  0  0  0  0  0
   14.7596    9.8939    1.2561 N   0  0  0  0  0  0  0  0  0  0  0  0
   16.5471    8.5499    0.5076 N   0  0  0  0  0  0  0  0  0  0  0  0
   17.6123    7.7835    0.7766 C   0  0  0  0  0  0  0  0  0  0  0  0
   18.0328    7.5345    2.0342 N   0  0  0  0  0  0  0  0  0  0  0  0
   17.3891    8.0611    3.1091 C   0  0  0  0  0  0  0  0  0  0  0  0
   14.2607   10.2955    2.0039 H   0  0  0  0  0  0  0  0  0  0  0  0
   14.4728   10.0577    0.3287 H   0  0  0  0  0  0  0  0  0  0  0  0
   18.4456    4.0448    3.9854 C   0  0  0  0  0  0  0  0  0  0  0  0
   18.1095    4.4537    2.6632 O   0  0  0  0  0  0  0  0  0  0  0  0
   18.3778    3.4908    1.4219 P   0  0  0  0  0  0  0  0  0  0  0  0
   17.9133    2.1375    1.9140 O   0  0  0  0  0  0  0  0  0  0  0  0
   17.5342    4.0813    0.3173 O   0  0  0  0  0  0  0  0  0  0  0  0
   19.8656    3.6040    1.1885 O   0  0  0  0  0  0  0  0  0  0  0  0
   17.6382    3.5504   -0.4879 H   0  0  0  0  0  0  0  0  0  0  0  0
   20.1192    3.0419    0.4397 H   0  0  0  0  0  0  0  0  0  0  0  0
 24 25  2  0  0  0
 24 26  1  0  0  0
 24 27  1  0  0  0
 24 23  1  0  0  0
 23 22  1  0  0  0
 22  1  1  0  0  0
  1  2  1  0  0  0
  1  3  1  0  0  0
  2  7  1  0  0  0
  3  4  1  0  0  0
  3  5  1  0  0  0
  5  6  1  0  0  0
  5  7  1  0  0  0
  7 10  1  0  0  0
 10 11  1  0  0  0
 10 19  1  0  0  0
 11 12  2  0  0  0
 12 13  1  0  0  0
 13 14  1  0  0  0
 13 19  2  0  0  0
 14 15  1  0  0  0
 14 16  2  0  0  0
 16 17  1  0  0  0
 17 18  2  0  0  0
 18 19  1  0  0  0
 26 28  1  0  0  0
 27 29  1  0  0  0
  4  8  1  0  0  0
  6  9  1  0  0  0
 15 20  1  0  0  0
 15 21  1  0  0  0
M  END
> <minimizedAffinity>
-6.39641

$$$$
5YZ2_AMP_A_301


 29 31  0  0  0  0  0  0  0  0999 V2000
   17.3882    6.2218    7.8836 C   0  0  0  0  0  0  0  0  0  0  0  0
   17.5738    5.6911    6.5478 O   0  0  0  0  0  0  0  0  0  0  0  0
   18.6253    7.0578    8.1778 C   0  0  0  0  0  0  0  0  0  0  0  0
   19.6289    6.2166    8.7490 O   0  0  0  0  0  0  0  0  0  0  0  0
   19.0541    7.5193    6.7915 C   0  0  0  0  0  0  0  0  0  0  0  0
   20.4211    7.8419    6.6828 O   0  0  0  0  0  0  0  0  0  0  0  0
   18.6951    6.3008    5.9344 C   0  0  0  0  0  0  0  0  0  0  0  0
   19.8030    5.4709    8.1535 H   0  0  0  0  0  0  0  0  0  0  0  0
   20.9557    7.0698    6.9256 H   0  0  0  0  0  0  0  0  0  0  0  0
   18.3105    6.6013    4.5573 N   0  0  0  0  0  0  0  0  0  0  0  0
   18.7599    5.9927    3.4401 C   0  0  0  0  0  0  0  0  0  0  0  0
   18.2063    6.5528    2.3410 N   0  0  0  0  0  0  0  0  0  0  0  0
   17.3986    7.5466    2.7687 C   0  0  0  0  0  0  0  0  0  0  0  0
   16.5164    8.5330    2.1395 C   0  0  0  0  0  0  0  0  0  0  0  0
   16.4179    8.5400    0.8075 N   0  0  0  0  0  0  0  0  0  0  0  0
   15.8357    9.4060    2.9225 N   0  0  0  0  0  0  0  0  0  0  0  0
   15.9510    9.3804    4.2568 C   0  0  0  0  0  0  0  0  0  0  0  0
   16.7420    8.4994    4.9038 N   0  0  0  0  0  0  0  0  0  0  0  0
   17.4700    7.5751    4.2235 C   0  0  0  0  0  0  0  0  0  0  0  0
   16.9283    7.8897    0.2728 H   0  0  0  0  0  0  0  0  0  0  0  0
   15.8349    9.1953    0.3604 H   0  0  0  0  0  0  0  0  0  0  0  0
   16.0605    6.9406    7.9541 C   0  0  0  0  0  0  0  0  0  0  0  0
   16.1087    8.0859    8.7995 O   0  0  0  0  0  0  0  0  0  0  0  0
   15.5359    9.4875    8.3022 P   0  0  0  0  0  0  0  0  0  0  0  0
   15.0625   10.1513    9.5768 O   0  0  0  0  0  0  0  0  0  0  0  0
   16.7248   10.1533    7.6510 O   0  0  0  0  0  0  0  0  0  0  0  0
   14.4366    9.1100    7.3379 O   0  0  0  0  0  0  0  0  0  0  0  0
   16.4633   11.0249    7.3149 H   0  0  0  0  0  0  0  0  0  0  0  0
   14.0279    9.9146    6.9824 H   0  0  0  0  0  0  0  0  0  0  0  0
 24 25  2  0  0  0
 24 26  1  0  0  0
 24 27  1  0  0  0
 24 23  1  0  0  0
 23 22  1  0  0  0
 22  1  1  0  0  0
  1  2  1  0  0  0
  1  3  1  0  0  0
  2  7  1  0  0  0
  3  4  1  0  0  0
  3  5  1  0  0  0
  5  6  1  0  0  0
  5  7  1  0  0  0
  7 10  1  0  0  0
 10 11  1  0  0  0
 10 19  1  0  0  0
 11 12  2  0  0  0
 12 13  1  0  0  0
 13 14  1  0  0  0
 13 19  2  0  0  0
 14 15  1  0  0  0
 14 16  2  0  0  0
 16 17  1  0  0  0
 17 18  2  0  0  0
 18 19  1  0  0  0
 26 28  1  0  0  0
 27 29  1  0  0  0
  4  8  1  0  0  0
  6  9  1  0  0  0
 15 20  1  0  0  0
 15 21  1  0  0  0
M  END
> <minimizedAffinity>
-6.36406

$$$$
5YZ2_AMP_A_301


 29 31  0  0  0  0  0  0  0  0999 V2000
   16.5798    8.4084    6.2436 C   0  0  0  0  0  0  0  0  0  0  0  0
   15.6240    7.9125    7.2136 O   0  0  0  0  0  0  0  0  0  0  0  0
   16.1257    9.8173    5.8905 C   0  0  0  0  0  0  0  0  0  0  0  0
   15.1979    9.7477    4.8063 O   0  0  0  0  0  0  0  0  0  0  0  0
   15.4163   10.2677    7.1603 C   0  0  0  0  0  0  0  0  0  0  0  0
   14.4534   11.2767    6.9619 O   0  0  0  0  0  0  0  0  0  0  0  0
   14.7708    8.9614    7.6348 C   0  0  0  0  0  0  0  0  0  0  0  0
   14.4658    9.1576    5.0446 H   0  0  0  0  0  0  0  0  0  0  0  0
   13.7836   10.9652    6.3331 H   0  0  0  0  0  0  0  0  0  0  0  0
   14.6252    8.8304    9.0826 N   0  0  0  0  0  0  0  0  0  0  0  0
   15.4494    9.3289   10.0275 C   0  0  0  0  0  0  0  0  0  0  0  0
   15.0163    8.9860   11.2617 N   0  0  0  0  0  0  0  0  0  0  0  0
   13.9010    8.2433   11.0963 C   0  0  0  0  0  0  0  0  0  0  0  0
   12.9447    7.5665   11.9765 C   0  0  0  0  0  0  0  0  0  0  0  0
   13.1364    7.6355   13.2965 N   0  0  0  0  0  0  0  0  0  0  0  0
   11.9046    6.8914   11.4281 N   0  0  0  0  0  0  0  0  0  0  0  0
   11.7331    6.8355   10.1007 C   0  0  0  0  0  0  0  0  0  0  0  0
   12.5719    7.4359    9.2311 N   0  0  0  0  0  0  0  0  0  0  0  0
   13.6480    8.1435    9.6651 C   0  0  0  0  0  0  0  0  0  0  0  0
   13.9039    8.1358   13.6570 H   0  0  0  0  0  0  0  0  0  0  0  0
   12.5102    7.1861   13.9090 H   0  0  0  0  0  0  0  0  0  0  0  0
   17.9761    8.2750    6.8068 C   0  0  0  0  0  0  0  0  0  0  0  0
   18.4903    6.9535    6.6733 O   0  0  0  0  0  0  0  0  0  0  0  0
   19.6965    6.6477    5.6776 P   0  0  0  0  0  0  0  0  0  0  0  0
   19.0055    6.2053    4.4063 O   0  0  0  0  0  0  0  0  0  0  0  0
   20.4216    7.9682    5.5718 O   0  0  0  0  0  0  0  0  0  0  0  0
   20.4835    5.5672    6.3804 O   0  0  0  0  0  0  0  0  0  0  0  0
   21.1815    7.8730    4.9765 H   0  0  0  0  0  0  0  0  0  0  0  0
   21.2469    5.3175    5.8365 H   0  0  0  0  0  0  0  0  0  0  0  0
 24 25  2  0  0  0
 24 26  1  0  0  0
 24 27  1  0  0  0
 24 23  1  0  0  0
 23 22  1  0  0  0
 22  1  1  0  0  0
  1  2  1  0  0  0
  1  3  1  0  0  0
  2  7  1  0  0  0
  3  4  1  0  0  0
  3  5  1  0  0  0
  5  6  1  0  0  0
  5  7  1  0  0  0
  7 10  1  0  0  0
 10 11  1  0  0  0
 10 19  1  0  0  0
 11 12  2  0  0  0
 12 13  1  0  0  0
 13 14  1  0  0  0
 13 19  2  0  0  0
 14 15  1  0  0  0
 14 16  2  0  0  0
 16 17  1  0  0  0
 17 18  2  0  0  0
 18 19  1  0  0  0
 26 28  1  0  0  0
 27 29  1  0  0  0
  4  8  1  0  0  0
  6  9  1  0  0  0
 15 20  1  0  0  0
 15 21  1  0  0  0
M  END
> <minimizedAffinity>
-6.28077

$$$$
