2BT9_MFU_A_1091


 15 15  0  0  0  0  0  0  0  0999 V2000
   -2.3166   36.6946   -2.4015 C   0  0  0  0  0  0  0  0  0  0  0  0
   -2.8287   36.6774   -0.9563 C   0  0  0  0  0  0  0  0  0  0  0  0
   -4.2244   37.2404   -0.8862 C   0  0  0  0  0  0  0  0  0  0  0  0
   -5.1272   36.4614   -1.8623 C   0  0  0  0  0  0  0  0  0  0  0  0
   -4.5401   36.5430   -3.2478 C   0  0  0  0  0  0  0  0  0  0  0  0
   -5.3222   35.7807   -4.2857 C   0  0  0  0  0  0  0  0  0  0  0  0
   -1.9601   37.4489   -0.0584 O   0  0  0  0  0  0  0  0  0  0  0  0
   -4.7267   37.2851    0.4426 O   0  0  0  0  0  0  0  0  0  0  0  0
   -5.1978   35.0901   -1.5082 O   0  0  0  0  0  0  0  0  0  0  0  0
   -3.1997   35.9869   -3.2198 O   0  0  0  0  0  0  0  0  0  0  0  0
   -1.9515   38.3782   -0.3363 H   0  0  0  0  0  0  0  0  0  0  0  0
   -4.7733   36.3850    0.8011 H   0  0  0  0  0  0  0  0  0  0  0  0
   -4.3100   34.7010   -1.5433 H   0  0  0  0  0  0  0  0  0  0  0  0
   -2.1764   38.0534   -2.7720 O   0  0  0  0  0  0  0  0  0  0  0  0
   -1.1946   38.2408   -3.7023 C   0  0  0  0  0  0  0  0  0  0  0  0
  1  2  1  0  0  0
  1 14  1  0  0  0
  1 10  1  0  0  0
  2  3  1  0  0  0
  2  7  1  0  0  0
  3  4  1  0  0  0
  3  8  1  0  0  0
  4  5  1  0  0  0
  4  9  1  0  0  0
  5  6  1  0  0  0
  5 10  1  0  0  0
 14 15  1  0  0  0
  7 11  1  0  0  0
  8 12  1  0  0  0
  9 13  1  0  0  0
M  END
> <minimizedAffinity>
-6.58770

$$$$
2BT9_MFU_A_1091


 15 15  0  0  0  0  0  0  0  0999 V2000
   -2.5571   36.7261   -3.6450 C   0  0  0  0  0  0  0  0  0  0  0  0
   -1.7345   36.7505   -2.3512 C   0  0  0  0  0  0  0  0  0  0  0  0
   -2.5066   37.4291   -1.2498 C   0  0  0  0  0  0  0  0  0  0  0  0
   -3.8709   36.7301   -1.0917 C   0  0  0  0  0  0  0  0  0  0  0  0
   -4.5970   36.7635   -2.4118 C   0  0  0  0  0  0  0  0  0  0  0  0
   -5.9349   36.0711   -2.3877 C   0  0  0  0  0  0  0  0  0  0  0  0
   -0.4532   37.4450   -2.5300 O   0  0  0  0  0  0  0  0  0  0  0  0
   -1.7663   37.5146   -0.0395 O   0  0  0  0  0  0  0  0  0  0  0  0
   -3.7079   35.3693   -0.7279 O   0  0  0  0  0  0  0  0  0  0  0  0
   -3.7812   36.0963   -3.4098 O   0  0  0  0  0  0  0  0  0  0  0  0
   -0.6177   38.3705   -2.7692 H   0  0  0  0  0  0  0  0  0  0  0  0
   -1.5602   36.6212    0.2772 H   0  0  0  0  0  0  0  0  0  0  0  0
   -3.2109   34.9068   -1.4207 H   0  0  0  0  0  0  0  0  0  0  0  0
   -2.6910   38.0686   -4.0726 O   0  0  0  0  0  0  0  0  0  0  0  0
   -2.4383   38.2178   -5.4062 C   0  0  0  0  0  0  0  0  0  0  0  0
  1  2  1  0  0  0
  1 14  1  0  0  0
  1 10  1  0  0  0
  2  3  1  0  0  0
  2  7  1  0  0  0
  3  4  1  0  0  0
  3  8  1  0  0  0
  4  5  1  0  0  0
  4  9  1  0  0  0
  5  6  1  0  0  0
  5 10  1  0  0  0
 14 15  1  0  0  0
  7 11  1  0  0  0
  8 12  1  0  0  0
  9 13  1  0  0  0
M  END
> <minimizedAffinity>
-5.37080

$$$$
2BT9_MFU_A_1091


 15 15  0  0  0  0  0  0  0  0999 V2000
   -2.1742   37.4993   -3.3444 C   0  0  0  0  0  0  0  0  0  0  0  0
   -3.4727   36.8732   -2.8220 C   0  0  0  0  0  0  0  0  0  0  0  0
   -3.1801   35.9234   -1.6897 C   0  0  0  0  0  0  0  0  0  0  0  0
   -2.3835   36.6712   -0.6030 C   0  0  0  0  0  0  0  0  0  0  0  0
   -1.1311   37.2426   -1.2163 C   0  0  0  0  0  0  0  0  0  0  0  0
   -0.2870   38.0330   -0.2504 C   0  0  0  0  0  0  0  0  0  0  0  0
   -4.1936   36.1480   -3.8756 O   0  0  0  0  0  0  0  0  0  0  0  0
   -4.3512   35.2842   -1.1996 O   0  0  0  0  0  0  0  0  0  0  0  0
   -3.1326   37.7530   -0.0747 O   0  0  0  0  0  0  0  0  0  0  0  0
   -1.5066   38.1366   -2.2962 O   0  0  0  0  0  0  0  0  0  0  0  0
   -3.6450   35.4156   -4.1975 H   0  0  0  0  0  0  0  0  0  0  0  0
   -4.9616   35.9519   -0.8496 H   0  0  0  0  0  0  0  0  0  0  0  0
   -3.3373   38.3817   -0.7845 H   0  0  0  0  0  0  0  0  0  0  0  0
   -1.4227   36.4553   -3.9346 O   0  0  0  0  0  0  0  0  0  0  0  0
   -0.8347   36.8354   -5.1070 C   0  0  0  0  0  0  0  0  0  0  0  0
  1  2  1  0  0  0
  1 14  1  0  0  0
  1 10  1  0  0  0
  2  3  1  0  0  0
  2  7  1  0  0  0
  3  4  1  0  0  0
  3  8  1  0  0  0
  4  5  1  0  0  0
  4  9  1  0  0  0
  5  6  1  0  0  0
  5 10  1  0  0  0
 14 15  1  0  0  0
  7 11  1  0  0  0
  8 12  1  0  0  0
  9 13  1  0  0  0
M  END
> <minimizedAffinity>
-5.04420

$$$$
2BT9_MFU_A_1091


 15 15  0  0  0  0  0  0  0  0999 V2000
   -4.4404   36.9007   -3.2239 C   0  0  0  0  0  0  0  0  0  0  0  0
   -4.3508   36.9998   -1.6964 C   0  0  0  0  0  0  0  0  0  0  0  0
   -3.0973   36.3285   -1.1985 C   0  0  0  0  0  0  0  0  0  0  0  0
   -1.8816   36.9402   -1.9214 C   0  0  0  0  0  0  0  0  0  0  0  0
   -2.0663   36.7887   -3.4094 C   0  0  0  0  0  0  0  0  0  0  0  0
   -0.9505   37.3887   -4.2248 C   0  0  0  0  0  0  0  0  0  0  0  0
   -5.5112   36.3859   -1.0388 O   0  0  0  0  0  0  0  0  0  0  0  0
   -2.9913   36.3569    0.2187 O   0  0  0  0  0  0  0  0  0  0  0  0
   -1.7671   38.3261   -1.6439 O   0  0  0  0  0  0  0  0  0  0  0  0
   -3.2949   37.4570   -3.7973 O   0  0  0  0  0  0  0  0  0  0  0  0
   -5.5408   35.4401   -1.2520 H   0  0  0  0  0  0  0  0  0  0  0  0
   -2.9509   37.2776    0.5215 H   0  0  0  0  0  0  0  0  0  0  0  0
   -2.5638   38.7847   -1.9535 H   0  0  0  0  0  0  0  0  0  0  0  0
   -4.6154   35.5317   -3.5376 O   0  0  0  0  0  0  0  0  0  0  0  0
   -5.4514   35.3440   -4.6009 C   0  0  0  0  0  0  0  0  0  0  0  0
  1  2  1  0  0  0
  1 14  1  0  0  0
  1 10  1  0  0  0
  2  3  1  0  0  0
  2  7  1  0  0  0
  3  4  1  0  0  0
  3  8  1  0  0  0
  4  5  1  0  0  0
  4  9  1  0  0  0
  5  6  1  0  0  0
  5 10  1  0  0  0
 14 15  1  0  0  0
  7 11  1  0  0  0
  8 12  1  0  0  0
  9 13  1  0  0  0
M  END
> <minimizedAffinity>
-5.03879

$$$$
2BT9_MFU_A_1091


 15 15  0  0  0  0  0  0  0  0999 V2000
   -1.1165   37.2206   -0.5443 C   0  0  0  0  0  0  0  0  0  0  0  0
   -2.5081   36.7115   -0.9387 C   0  0  0  0  0  0  0  0  0  0  0  0
   -3.0807   37.5532   -2.0493 C   0  0  0  0  0  0  0  0  0  0  0  0
   -2.0840   37.5756   -3.2244 C   0  0  0  0  0  0  0  0  0  0  0  0
   -0.7560   38.0920   -2.7337 C   0  0  0  0  0  0  0  0  0  0  0  0
    0.3141   38.1219   -3.7939 C   0  0  0  0  0  0  0  0  0  0  0  0
   -3.4390   36.7269    0.1967 O   0  0  0  0  0  0  0  0  0  0  0  0
   -4.3907   37.1455   -2.4207 O   0  0  0  0  0  0  0  0  0  0  0  0
   -1.8718   36.2712   -3.7384 O   0  0  0  0  0  0  0  0  0  0  0  0
   -0.2853   37.2283   -1.6665 O   0  0  0  0  0  0  0  0  0  0  0  0
   -3.5569   37.6387    0.5058 H   0  0  0  0  0  0  0  0  0  0  0  0
   -4.3643   36.2337   -2.7504 H   0  0  0  0  0  0  0  0  0  0  0  0
   -1.5037   35.7052   -3.0420 H   0  0  0  0  0  0  0  0  0  0  0  0
   -1.2949   38.5019    0.0296 O   0  0  0  0  0  0  0  0  0  0  0  0
   -0.1936   38.9212    0.7197 C   0  0  0  0  0  0  0  0  0  0  0  0
  1  2  1  0  0  0
  1 14  1  0  0  0
  1 10  1  0  0  0
  2  3  1  0  0  0
  2  7  1  0  0  0
  3  4  1  0  0  0
  3  8  1  0  0  0
  4  5  1  0  0  0
  4  9  1  0  0  0
  5  6  1  0  0  0
  5 10  1  0  0  0
 14 15  1  0  0  0
  7 11  1  0  0  0
  8 12  1  0  0  0
  9 13  1  0  0  0
M  END
> <minimizedAffinity>
-4.51829

$$$$
2BT9_MFU_A_1091


 15 15  0  0  0  0  0  0  0  0999 V2000
   -3.6159   36.5457   -5.6975 C   0  0  0  0  0  0  0  0  0  0  0  0
   -2.3122   37.0540   -5.0706 C   0  0  0  0  0  0  0  0  0  0  0  0
   -2.6047   37.8743   -3.8412 C   0  0  0  0  0  0  0  0  0  0  0  0
   -3.4606   37.0354   -2.8724 C   0  0  0  0  0  0  0  0  0  0  0  0
   -4.7135   36.5902   -3.5818 C   0  0  0  0  0  0  0  0  0  0  0  0
   -5.6146   35.7252   -2.7393 C   0  0  0  0  0  0  0  0  0  0  0  0
   -1.5338   37.8696   -6.0112 O   0  0  0  0  0  0  0  0  0  0  0  0
   -1.4268   38.4045   -3.2481 O   0  0  0  0  0  0  0  0  0  0  0  0
   -2.7674   35.8700   -2.4575 O   0  0  0  0  0  0  0  0  0  0  0  0
   -4.3376   35.8159   -4.7504 O   0  0  0  0  0  0  0  0  0  0  0  0
   -2.0455   38.6559   -6.2576 H   0  0  0  0  0  0  0  0  0  0  0  0
   -0.8518   37.6766   -2.9645 H   0  0  0  0  0  0  0  0  0  0  0  0
   -2.5640   35.3220   -3.2316 H   0  0  0  0  0  0  0  0  0  0  0  0
   -4.3109   37.6809   -6.1784 O   0  0  0  0  0  0  0  0  0  0  0  0
   -4.6307   37.5737   -7.5016 C   0  0  0  0  0  0  0  0  0  0  0  0
  1  2  1  0  0  0
  1 14  1  0  0  0
  1 10  1  0  0  0
  2  3  1  0  0  0
  2  7  1  0  0  0
  3  4  1  0  0  0
  3  8  1  0  0  0
  4  5  1  0  0  0
  4  9  1  0  0  0
  5  6  1  0  0  0
  5 10  1  0  0  0
 14 15  1  0  0  0
  7 11  1  0  0  0
  8 12  1  0  0  0
  9 13  1  0  0  0
M  END
> <minimizedAffinity>
-4.46726

$$$$
2BT9_MFU_A_1091


 15 15  0  0  0  0  0  0  0  0999 V2000
   -3.7242   37.3335   -2.3828 C   0  0  0  0  0  0  0  0  0  0  0  0
   -2.9823   37.5671   -1.0614 C   0  0  0  0  0  0  0  0  0  0  0  0
   -1.6098   36.9477   -1.1122 C   0  0  0  0  0  0  0  0  0  0  0  0
   -0.8578   37.4986   -2.3393 C   0  0  0  0  0  0  0  0  0  0  0  0
   -1.6658   37.2157   -3.5795 C   0  0  0  0  0  0  0  0  0  0  0  0
   -1.0434   37.7463   -4.8449 C   0  0  0  0  0  0  0  0  0  0  0  0
   -3.7130   37.0086    0.0832 O   0  0  0  0  0  0  0  0  0  0  0  0
   -0.8983   37.1013    0.1086 O   0  0  0  0  0  0  0  0  0  0  0  0
   -0.6928   38.9040   -2.2480 O   0  0  0  0  0  0  0  0  0  0  0  0
   -2.9678   37.8420   -3.4409 O   0  0  0  0  0  0  0  0  0  0  0  0
   -3.7924   36.0475   -0.0217 H   0  0  0  0  0  0  0  0  0  0  0  0
   -0.7690   38.0452    0.2910 H   0  0  0  0  0  0  0  0  0  0  0  0
   -1.5634   39.3301   -2.2120 H   0  0  0  0  0  0  0  0  0  0  0  0
   -3.9602   35.9414   -2.4812 O   0  0  0  0  0  0  0  0  0  0  0  0
   -5.1461   35.6566   -3.0955 C   0  0  0  0  0  0  0  0  0  0  0  0
  1  2  1  0  0  0
  1 14  1  0  0  0
  1 10  1  0  0  0
  2  3  1  0  0  0
  2  7  1  0  0  0
  3  4  1  0  0  0
  3  8  1  0  0  0
  4  5  1  0  0  0
  4  9  1  0  0  0
  5  6  1  0  0  0
  5 10  1  0  0  0
 14 15  1  0  0  0
  7 11  1  0  0  0
  8 12  1  0  0  0
  9 13  1  0  0  0
M  END
> <minimizedAffinity>
-4.27811

$$$$
2BT9_MFU_A_1091


 15 15  0  0  0  0  0  0  0  0999 V2000
   -0.5331   38.5853   -1.8662 C   0  0  0  0  0  0  0  0  0  0  0  0
   -1.0831   37.7222   -0.7245 C   0  0  0  0  0  0  0  0  0  0  0  0
   -2.5636   37.5028   -0.8973 C   0  0  0  0  0  0  0  0  0  0  0  0
   -2.8205   36.9029   -2.2933 C   0  0  0  0  0  0  0  0  0  0  0  0
   -2.2470   37.8249   -3.3384 C   0  0  0  0  0  0  0  0  0  0  0  0
   -2.4058   37.3190   -4.7487 C   0  0  0  0  0  0  0  0  0  0  0  0
   -0.8442   38.3341    0.5887 O   0  0  0  0  0  0  0  0  0  0  0  0
   -3.1281   36.7423    0.1626 O   0  0  0  0  0  0  0  0  0  0  0  0
   -2.1796   35.6459   -2.4343 O   0  0  0  0  0  0  0  0  0  0  0  0
   -0.8255   37.9826   -3.0916 O   0  0  0  0  0  0  0  0  0  0  0  0
   -1.3081   39.1845    0.6384 H   0  0  0  0  0  0  0  0  0  0  0  0
   -2.7189   35.8631    0.1833 H   0  0  0  0  0  0  0  0  0  0  0  0
   -1.2221   35.7571   -2.3258 H   0  0  0  0  0  0  0  0  0  0  0  0
   -1.1074   39.8710   -1.7232 O   0  0  0  0  0  0  0  0  0  0  0  0
   -0.2751   40.8639   -2.1546 C   0  0  0  0  0  0  0  0  0  0  0  0
  1  2  1  0  0  0
  1 14  1  0  0  0
  1 10  1  0  0  0
  2  3  1  0  0  0
  2  7  1  0  0  0
  3  4  1  0  0  0
  3  8  1  0  0  0
  4  5  1  0  0  0
  4  9  1  0  0  0
  5  6  1  0  0  0
  5 10  1  0  0  0
 14 15  1  0  0  0
  7 11  1  0  0  0
  8 12  1  0  0  0
  9 13  1  0  0  0
M  END
> <minimizedAffinity>
-4.24192

$$$$
2BT9_MFU_A_1091


 15 15  0  0  0  0  0  0  0  0999 V2000
   -2.4858   37.5788   -3.6379 C   0  0  0  0  0  0  0  0  0  0  0  0
   -3.3028   37.0747   -2.4422 C   0  0  0  0  0  0  0  0  0  0  0  0
   -2.4500   37.0375   -1.2008 C   0  0  0  0  0  0  0  0  0  0  0  0
   -1.8353   38.4324   -0.9746 C   0  0  0  0  0  0  0  0  0  0  0  0
   -1.0545   38.8309   -2.2004 C   0  0  0  0  0  0  0  0  0  0  0  0
   -0.4366   40.2020   -2.1087 C   0  0  0  0  0  0  0  0  0  0  0  0
   -3.8525   35.7342   -2.6807 O   0  0  0  0  0  0  0  0  0  0  0  0
   -3.1534   36.5349   -0.0726 O   0  0  0  0  0  0  0  0  0  0  0  0
   -2.8444   39.4084   -0.7747 O   0  0  0  0  0  0  0  0  0  0  0  0
   -1.9496   38.8341   -3.3429 O   0  0  0  0  0  0  0  0  0  0  0  0
   -3.1256   35.1037   -2.8028 H   0  0  0  0  0  0  0  0  0  0  0  0
   -3.9046   37.1158    0.1252 H   0  0  0  0  0  0  0  0  0  0  0  0
   -3.4114   39.4529   -1.5605 H   0  0  0  0  0  0  0  0  0  0  0  0
   -1.5012   36.5980   -3.9059 O   0  0  0  0  0  0  0  0  0  0  0  0
   -0.9648   36.7266   -5.1551 C   0  0  0  0  0  0  0  0  0  0  0  0
  1  2  1  0  0  0
  1 14  1  0  0  0
  1 10  1  0  0  0
  2  3  1  0  0  0
  2  7  1  0  0  0
  3  4  1  0  0  0
  3  8  1  0  0  0
  4  5  1  0  0  0
  4  9  1  0  0  0
  5  6  1  0  0  0
  5 10  1  0  0  0
 14 15  1  0  0  0
  7 11  1  0  0  0
  8 12  1  0  0  0
  9 13  1  0  0  0
M  END
> <minimizedAffinity>
-4.23664

$$$$
2BT9_MFU_A_1091


 15 15  0  0  0  0  0  0  0  0999 V2000
   -3.9373   36.0644   -3.0616 C   0  0  0  0  0  0  0  0  0  0  0  0
   -3.4387   36.6968   -4.3664 C   0  0  0  0  0  0  0  0  0  0  0  0
   -2.7740   38.0201   -4.0891 C   0  0  0  0  0  0  0  0  0  0  0  0
   -1.6576   37.8103   -3.0477 C   0  0  0  0  0  0  0  0  0  0  0  0
   -2.2504   37.1904   -1.8086 C   0  0  0  0  0  0  0  0  0  0  0  0
   -1.2393   36.9020   -0.7296 C   0  0  0  0  0  0  0  0  0  0  0  0
   -4.5304   36.9059   -5.3258 O   0  0  0  0  0  0  0  0  0  0  0  0
   -2.3325   38.6663   -5.2756 O   0  0  0  0  0  0  0  0  0  0  0  0
   -0.6645   36.9236   -3.5360 O   0  0  0  0  0  0  0  0  0  0  0  0
   -2.8713   35.9291   -2.1695 O   0  0  0  0  0  0  0  0  0  0  0  0
   -5.1771   37.5236   -4.9501 H   0  0  0  0  0  0  0  0  0  0  0  0
   -1.6711   38.1121   -5.7187 H   0  0  0  0  0  0  0  0  0  0  0  0
   -1.0660   36.0611   -3.7251 H   0  0  0  0  0  0  0  0  0  0  0  0
   -4.9748   36.8938   -2.5729 O   0  0  0  0  0  0  0  0  0  0  0  0
   -5.9768   36.1797   -1.9806 C   0  0  0  0  0  0  0  0  0  0  0  0
  1  2  1  0  0  0
  1 14  1  0  0  0
  1 10  1  0  0  0
  2  3  1  0  0  0
  2  7  1  0  0  0
  3  4  1  0  0  0
  3  8  1  0  0  0
  4  5  1  0  0  0
  4  9  1  0  0  0
  5  6  1  0  0  0
  5 10  1  0  0  0
 14 15  1  0  0  0
  7 11  1  0  0  0
  8 12  1  0  0  0
  9 13  1  0  0  0
M  END
> <minimizedAffinity>
-4.11906

$$$$
