5EQY_5RA_A_501


 32 35  0  0  0  0  0  0  0  0999 V2000
   16.9838   77.7383   59.0220 C   0  0  0  0  0  0  0  0  0  0  0  0
   15.6691   77.4827   58.5466 C   0  0  0  0  0  0  0  0  0  0  0  0
   15.2346   77.8912   57.2565 C   0  0  0  0  0  0  0  0  0  0  0  0
   16.1402   78.6166   56.3588 C   0  0  0  0  0  0  0  0  0  0  0  0
   17.4552   78.8559   56.8778 C   0  0  0  0  0  0  0  0  0  0  0  0
   17.8693   78.4338   58.1719 C   0  0  0  0  0  0  0  0  0  0  0  0
   15.8541   79.1284   54.9272 C   0  0  0  0  0  0  0  0  0  0  0  0
   15.5671   80.4827   54.6503 C   0  0  0  0  0  0  0  0  0  0  0  0
   15.2908   80.9539   53.3405 C   0  0  0  0  0  0  0  0  0  0  0  0
   15.2963   80.0696   52.2438 C   0  0  0  0  0  0  0  0  0  0  0  0
   15.5810   78.7061   52.5096 C   0  0  0  0  0  0  0  0  0  0  0  0
   15.8503   78.2503   53.7995 C   0  0  0  0  0  0  0  0  0  0  0  0
   15.0025   80.5428   50.8283 C   0  0  0  0  0  0  0  0  0  0  0  0
   13.4179   83.7398   50.1667 C   0  0  0  0  0  0  0  0  0  0  0  0
   13.7240   81.2900   50.6077 N   0  0  0  0  0  0  0  0  0  0  0  0
   13.7285   82.3556   49.5924 C   0  0  0  0  0  0  0  0  0  0  0  0
   13.2728   83.6413   51.6209 N   0  0  0  0  0  0  0  0  0  0  0  0
   11.9404   83.2587   52.1020 C   0  0  0  0  0  0  0  0  0  0  0  0
   11.3984   81.8802   51.6795 C   0  0  0  0  0  0  0  0  0  0  0  0
   12.4171   80.8237   51.1710 C   0  0  0  0  0  0  0  0  0  0  0  0
   13.9481   84.6753   52.4053 C   0  0  0  0  0  0  0  0  0  0  0  0
   13.8677   77.5137   56.9659 C   0  0  0  0  0  0  0  0  0  0  0  0
   12.7798   77.1960   56.6953 N   0  0  0  0  0  0  0  0  0  0  0  0
   17.4382   77.2875   60.4035 C   0  0  0  0  0  0  0  0  0  0  0  0
   19.7467   72.1283   60.1200 C   0  0  0  0  0  0  0  0  0  0  0  0
   19.2349   73.2373   61.7823 C   0  0  0  0  0  0  0  0  0  0  0  0
   17.7336   75.3531   61.9198 C   0  0  0  0  0  0  0  0  0  0  0  0
   17.8205   74.9526   59.3775 C   0  0  0  0  0  0  0  0  0  0  0  0
   18.2881   72.8483   60.6934 N   0  0  0  0  0  0  0  0  0  0  0  0
   18.9008   74.5599   62.5383 C   0  0  0  0  0  0  0  0  0  0  0  0
   17.9932   75.8896   60.5584 N   0  0  0  0  0  0  0  0  0  0  0  0
   18.4350   73.5461   59.4037 C   0  0  0  0  0  0  0  0  0  0  0  0
 14 16  1  0  0  0
 14 17  1  0  0  0
 26 29  1  0  0  0
 26 30  1  0  0  0
 27 30  1  0  0  0
 27 31  1  0  0  0
 28 31  1  0  0  0
 28 32  1  0  0  0
 29 32  1  0  0  0
 31 24  1  0  0  0
 24  1  1  0  0  0
  1  2  2  0  0  0
  1  6  1  0  0  0
  2  3  1  0  0  0
  3  4  2  0  0  0
  3 22  1  0  0  0
  4  5  1  0  0  0
  4  7  1  0  0  0
  5  6  2  0  0  0
  7  8  2  0  0  0
  7 12  1  0  0  0
  8  9  1  0  0  0
  9 10  2  0  0  0
 10 11  1  0  0  0
 10 13  1  0  0  0
 11 12  2  0  0  0
 22 23  3  0  0  0
 13 15  1  0  0  0
 15 16  1  0  0  0
 15 20  1  0  0  0
 17 18  1  0  0  0
 17 21  1  0  0  0
 18 19  1  0  0  0
 19 20  1  0  0  0
 29 25  1  0  0  0
M  END
> <minimizedAffinity>
-9.30834

$$$$
5EQY_5RA_A_501


 32 35  0  0  0  0  0  0  0  0999 V2000
   16.9919   77.7985   58.9520 C   0  0  0  0  0  0  0  0  0  0  0  0
   15.6697   77.5556   58.4911 C   0  0  0  0  0  0  0  0  0  0  0  0
   15.2393   77.9243   57.1877 C   0  0  0  0  0  0  0  0  0  0  0  0
   16.1575   78.5935   56.2598 C   0  0  0  0  0  0  0  0  0  0  0  0
   17.4800   78.8218   56.7648 C   0  0  0  0  0  0  0  0  0  0  0  0
   17.8897   78.4400   58.0727 C   0  0  0  0  0  0  0  0  0  0  0  0
   15.8774   79.0565   54.8105 C   0  0  0  0  0  0  0  0  0  0  0  0
   15.5335   80.3888   54.4942 C   0  0  0  0  0  0  0  0  0  0  0  0
   15.2623   80.8147   53.1679 C   0  0  0  0  0  0  0  0  0  0  0  0
   15.3314   79.9054   52.0941 C   0  0  0  0  0  0  0  0  0  0  0  0
   15.6737   78.5636   52.3994 C   0  0  0  0  0  0  0  0  0  0  0  0
   15.9374   78.1522   53.7054 C   0  0  0  0  0  0  0  0  0  0  0  0
   15.0449   80.3300   50.6618 C   0  0  0  0  0  0  0  0  0  0  0  0
   16.3649   82.9872   48.5724 C   0  0  0  0  0  0  0  0  0  0  0  0
   16.1988   80.8383   49.8545 N   0  0  0  0  0  0  0  0  0  0  0  0
   16.4913   82.2792   49.9232 C   0  0  0  0  0  0  0  0  0  0  0  0
   15.8996   82.0318   47.5643 N   0  0  0  0  0  0  0  0  0  0  0  0
   16.9442   81.2242   46.9244 C   0  0  0  0  0  0  0  0  0  0  0  0
   17.7742   80.2893   47.8243 C   0  0  0  0  0  0  0  0  0  0  0  0
   17.1961   79.9203   49.2179 C   0  0  0  0  0  0  0  0  0  0  0  0
   14.8396   82.5036   46.6731 C   0  0  0  0  0  0  0  0  0  0  0  0
   13.8628   77.5680   56.9165 C   0  0  0  0  0  0  0  0  0  0  0  0
   12.7677   77.2575   56.6670 N   0  0  0  0  0  0  0  0  0  0  0  0
   17.4416   77.3905   60.3482 C   0  0  0  0  0  0  0  0  0  0  0  0
   19.7127   72.2080   60.2414 C   0  0  0  0  0  0  0  0  0  0  0  0
   19.1984   73.3723   61.8648 C   0  0  0  0  0  0  0  0  0  0  0  0
   17.7124   75.5023   61.9261 C   0  0  0  0  0  0  0  0  0  0  0  0
   17.8128   75.0220   59.3982 C   0  0  0  0  0  0  0  0  0  0  0  0
   18.2558   72.9564   60.7822 N   0  0  0  0  0  0  0  0  0  0  0  0
   18.8695   74.7202   62.5768 C   0  0  0  0  0  0  0  0  0  0  0  0
   17.9850   75.9941   60.5504 N   0  0  0  0  0  0  0  0  0  0  0  0
   18.4164   73.6124   59.4724 C   0  0  0  0  0  0  0  0  0  0  0  0
 14 16  1  0  0  0
 14 17  1  0  0  0
 26 29  1  0  0  0
 26 30  1  0  0  0
 27 30  1  0  0  0
 27 31  1  0  0  0
 28 31  1  0  0  0
 28 32  1  0  0  0
 29 32  1  0  0  0
 31 24  1  0  0  0
 24  1  1  0  0  0
  1  2  2  0  0  0
  1  6  1  0  0  0
  2  3  1  0  0  0
  3  4  2  0  0  0
  3 22  1  0  0  0
  4  5  1  0  0  0
  4  7  1  0  0  0
  5  6  2  0  0  0
  7  8  2  0  0  0
  7 12  1  0  0  0
  8  9  1  0  0  0
  9 10  2  0  0  0
 10 11  1  0  0  0
 10 13  1  0  0  0
 11 12  2  0  0  0
 22 23  3  0  0  0
 13 15  1  0  0  0
 15 16  1  0  0  0
 15 20  1  0  0  0
 17 18  1  0  0  0
 17 21  1  0  0  0
 18 19  1  0  0  0
 19 20  1  0  0  0
 29 25  1  0  0  0
M  END
> <minimizedAffinity>
-9.22018

$$$$
5EQY_5RA_A_501


 32 35  0  0  0  0  0  0  0  0999 V2000
   16.9519   77.7625   58.9151 C   0  0  0  0  0  0  0  0  0  0  0  0
   15.6331   77.4349   58.4988 C   0  0  0  0  0  0  0  0  0  0  0  0
   15.1137   77.8320   57.2369 C   0  0  0  0  0  0  0  0  0  0  0  0
   15.9306   78.6206   56.3081 C   0  0  0  0  0  0  0  0  0  0  0  0
   17.2529   78.9315   56.7675 C   0  0  0  0  0  0  0  0  0  0  0  0
   17.7530   78.5194   58.0342 C   0  0  0  0  0  0  0  0  0  0  0  0
   15.5463   79.1314   54.8992 C   0  0  0  0  0  0  0  0  0  0  0  0
   15.0786   78.2701   53.8830 C   0  0  0  0  0  0  0  0  0  0  0  0
   14.7380   78.7324   52.5852 C   0  0  0  0  0  0  0  0  0  0  0  0
   14.8527   80.0975   52.2567 C   0  0  0  0  0  0  0  0  0  0  0  0
   15.3237   80.9723   53.2686 C   0  0  0  0  0  0  0  0  0  0  0  0
   15.6577   80.5105   54.5411 C   0  0  0  0  0  0  0  0  0  0  0  0
   14.4974   80.6243   50.8746 C   0  0  0  0  0  0  0  0  0  0  0  0
   15.5609   77.8367   48.8090 C   0  0  0  0  0  0  0  0  0  0  0  0
   15.3397   80.1598   49.7274 N   0  0  0  0  0  0  0  0  0  0  0  0
   14.7643   79.1431   48.8321 C   0  0  0  0  0  0  0  0  0  0  0  0
   16.6656   77.9239   49.7669 N   0  0  0  0  0  0  0  0  0  0  0  0
   17.8913   78.5572   49.2673 C   0  0  0  0  0  0  0  0  0  0  0  0
   17.8019   80.0281   48.8188 C   0  0  0  0  0  0  0  0  0  0  0  0
   16.5942   80.8677   49.3175 C   0  0  0  0  0  0  0  0  0  0  0  0
   16.8695   76.7533   50.6205 C   0  0  0  0  0  0  0  0  0  0  0  0
   13.7589   77.3775   57.0060 C   0  0  0  0  0  0  0  0  0  0  0  0
   12.6556   77.0365   56.8504 N   0  0  0  0  0  0  0  0  0  0  0  0
   17.4981   77.3231   60.2666 C   0  0  0  0  0  0  0  0  0  0  0  0
   19.7416   72.1393   59.9186 C   0  0  0  0  0  0  0  0  0  0  0  0
   19.2361   73.2306   61.5946 C   0  0  0  0  0  0  0  0  0  0  0  0
   17.7615   75.3633   61.7560 C   0  0  0  0  0  0  0  0  0  0  0  0
   17.8553   74.9987   59.2086 C   0  0  0  0  0  0  0  0  0  0  0  0
   18.2896   72.8696   60.4959 N   0  0  0  0  0  0  0  0  0  0  0  0
   18.9154   74.5463   62.3682 C   0  0  0  0  0  0  0  0  0  0  0  0
   18.0344   75.9161   60.4037 N   0  0  0  0  0  0  0  0  0  0  0  0
   18.4515   73.5841   59.2171 C   0  0  0  0  0  0  0  0  0  0  0  0
 14 16  1  0  0  0
 14 17  1  0  0  0
 26 29  1  0  0  0
 26 30  1  0  0  0
 27 30  1  0  0  0
 27 31  1  0  0  0
 28 31  1  0  0  0
 28 32  1  0  0  0
 29 32  1  0  0  0
 31 24  1  0  0  0
 24  1  1  0  0  0
  1  2  2  0  0  0
  1  6  1  0  0  0
  2  3  1  0  0  0
  3  4  2  0  0  0
  3 22  1  0  0  0
  4  5  1  0  0  0
  4  7  1  0  0  0
  5  6  2  0  0  0
  7  8  2  0  0  0
  7 12  1  0  0  0
  8  9  1  0  0  0
  9 10  2  0  0  0
 10 11  1  0  0  0
 10 13  1  0  0  0
 11 12  2  0  0  0
 22 23  3  0  0  0
 13 15  1  0  0  0
 15 16  1  0  0  0
 15 20  1  0  0  0
 17 18  1  0  0  0
 17 21  1  0  0  0
 18 19  1  0  0  0
 19 20  1  0  0  0
 29 25  1  0  0  0
M  END
> <minimizedAffinity>
-9.08548

$$$$
5EQY_5RA_A_501


 32 35  0  0  0  0  0  0  0  0999 V2000
   16.3770   77.3231   59.1860 C   0  0  0  0  0  0  0  0  0  0  0  0
   15.1951   76.5571   58.9962 C   0  0  0  0  0  0  0  0  0  0  0  0
   14.3148   76.7762   57.9020 C   0  0  0  0  0  0  0  0  0  0  0  0
   14.5931   77.8294   56.9195 C   0  0  0  0  0  0  0  0  0  0  0  0
   15.7932   78.5798   57.1491 C   0  0  0  0  0  0  0  0  0  0  0  0
   16.6619   78.3397   58.2501 C   0  0  0  0  0  0  0  0  0  0  0  0
   13.7661   78.2068   55.6677 C   0  0  0  0  0  0  0  0  0  0  0  0
   14.2928   78.1282   54.3601 C   0  0  0  0  0  0  0  0  0  0  0  0
   13.5423   78.4865   53.2102 C   0  0  0  0  0  0  0  0  0  0  0  0
   12.2141   78.9399   53.3329 C   0  0  0  0  0  0  0  0  0  0  0  0
   11.6746   79.0253   54.6415 C   0  0  0  0  0  0  0  0  0  0  0  0
   12.4187   78.6729   55.7668 C   0  0  0  0  0  0  0  0  0  0  0  0
   11.3838   79.3331   52.1204 C   0  0  0  0  0  0  0  0  0  0  0  0
   11.7930   82.9137   52.5458 C   0  0  0  0  0  0  0  0  0  0  0  0
   10.7278   80.6786   52.1470 N   0  0  0  0  0  0  0  0  0  0  0  0
   11.4631   81.8030   51.5460 C   0  0  0  0  0  0  0  0  0  0  0  0
   11.3452   82.5137   53.8819 N   0  0  0  0  0  0  0  0  0  0  0  0
    9.9392   82.7967   54.1920 C   0  0  0  0  0  0  0  0  0  0  0  0
    8.8660   82.1092   53.3270 C   0  0  0  0  0  0  0  0  0  0  0  0
    9.2853   80.8586   52.5069 C   0  0  0  0  0  0  0  0  0  0  0  0
   12.2877   82.7557   54.9743 C   0  0  0  0  0  0  0  0  0  0  0  0
   13.1831   75.8739   57.8874 C   0  0  0  0  0  0  0  0  0  0  0  0
   12.2860   75.1317   57.8402 N   0  0  0  0  0  0  0  0  0  0  0  0
   17.3153   77.0717   60.3584 C   0  0  0  0  0  0  0  0  0  0  0  0
   19.9159   72.0502   60.1376 C   0  0  0  0  0  0  0  0  0  0  0  0
   19.1081   73.0290   61.7639 C   0  0  0  0  0  0  0  0  0  0  0  0
   17.4907   75.0618   61.7930 C   0  0  0  0  0  0  0  0  0  0  0  0
   17.9686   74.8252   59.2737 C   0  0  0  0  0  0  0  0  0  0  0  0
   18.3525   72.6662   60.5266 N   0  0  0  0  0  0  0  0  0  0  0  0
   18.5964   74.2853   62.5334 C   0  0  0  0  0  0  0  0  0  0  0  0
   17.9166   75.6935   60.5169 N   0  0  0  0  0  0  0  0  0  0  0  0
   18.6478   73.4491   59.3135 C   0  0  0  0  0  0  0  0  0  0  0  0
 14 16  1  0  0  0
 14 17  1  0  0  0
 26 29  1  0  0  0
 26 30  1  0  0  0
 27 30  1  0  0  0
 27 31  1  0  0  0
 28 31  1  0  0  0
 28 32  1  0  0  0
 29 32  1  0  0  0
 31 24  1  0  0  0
 24  1  1  0  0  0
  1  2  2  0  0  0
  1  6  1  0  0  0
  2  3  1  0  0  0
  3  4  2  0  0  0
  3 22  1  0  0  0
  4  5  1  0  0  0
  4  7  1  0  0  0
  5  6  2  0  0  0
  7  8  2  0  0  0
  7 12  1  0  0  0
  8  9  1  0  0  0
  9 10  2  0  0  0
 10 11  1  0  0  0
 10 13  1  0  0  0
 11 12  2  0  0  0
 22 23  3  0  0  0
 13 15  1  0  0  0
 15 16  1  0  0  0
 15 20  1  0  0  0
 17 18  1  0  0  0
 17 21  1  0  0  0
 18 19  1  0  0  0
 19 20  1  0  0  0
 29 25  1  0  0  0
M  END
> <minimizedAffinity>
-8.84384

$$$$
5EQY_5RA_A_501


 32 35  0  0  0  0  0  0  0  0999 V2000
   17.0115   77.8193   58.9583 C   0  0  0  0  0  0  0  0  0  0  0  0
   15.6900   77.5569   58.5061 C   0  0  0  0  0  0  0  0  0  0  0  0
   15.2560   77.8880   57.1939 C   0  0  0  0  0  0  0  0  0  0  0  0
   16.1694   78.5368   56.2469 C   0  0  0  0  0  0  0  0  0  0  0  0
   17.4913   78.7857   56.7436 C   0  0  0  0  0  0  0  0  0  0  0  0
   17.9047   78.4416   58.0608 C   0  0  0  0  0  0  0  0  0  0  0  0
   15.8849   78.9590   54.7860 C   0  0  0  0  0  0  0  0  0  0  0  0
   15.4769   80.2659   54.4412 C   0  0  0  0  0  0  0  0  0  0  0  0
   15.2017   80.6537   53.1041 C   0  0  0  0  0  0  0  0  0  0  0  0
   15.3317   79.7304   52.0481 C   0  0  0  0  0  0  0  0  0  0  0  0
   15.7387   78.4137   52.3821 C   0  0  0  0  0  0  0  0  0  0  0  0
   16.0060   78.0397   53.6985 C   0  0  0  0  0  0  0  0  0  0  0  0
   15.0426   80.1141   50.6048 C   0  0  0  0  0  0  0  0  0  0  0  0
   13.1548   82.8144   49.0837 C   0  0  0  0  0  0  0  0  0  0  0  0
   14.9741   81.5752   50.2854 N   0  0  0  0  0  0  0  0  0  0  0  0
   13.6635   82.2343   50.4053 C   0  0  0  0  0  0  0  0  0  0  0  0
   14.0964   82.4814   48.0122 N   0  0  0  0  0  0  0  0  0  0  0  0
   15.2315   83.3981   47.8562 C   0  0  0  0  0  0  0  0  0  0  0  0
   16.2048   83.5361   49.0421 C   0  0  0  0  0  0  0  0  0  0  0  0
   16.2018   82.4164   50.1185 C   0  0  0  0  0  0  0  0  0  0  0  0
   13.5047   82.0002   46.7637 C   0  0  0  0  0  0  0  0  0  0  0  0
   13.8810   77.5172   56.9343 C   0  0  0  0  0  0  0  0  0  0  0  0
   12.7789   77.1865   56.7508 N   0  0  0  0  0  0  0  0  0  0  0  0
   17.4652   77.4515   60.3644 C   0  0  0  0  0  0  0  0  0  0  0  0
   19.6305   72.2236   60.4498 C   0  0  0  0  0  0  0  0  0  0  0  0
   19.0603   73.4238   62.0277 C   0  0  0  0  0  0  0  0  0  0  0  0
   17.6177   75.5839   61.9822 C   0  0  0  0  0  0  0  0  0  0  0  0
   17.8340   75.0611   59.4700 C   0  0  0  0  0  0  0  0  0  0  0  0
   18.1644   73.0095   60.9055 N   0  0  0  0  0  0  0  0  0  0  0  0
   18.7243   74.7894   62.7019 C   0  0  0  0  0  0  0  0  0  0  0  0
   17.9687   76.0479   60.6146 N   0  0  0  0  0  0  0  0  0  0  0  0
   18.4037   73.6411   59.5957 C   0  0  0  0  0  0  0  0  0  0  0  0
 14 16  1  0  0  0
 14 17  1  0  0  0
 26 29  1  0  0  0
 26 30  1  0  0  0
 27 30  1  0  0  0
 27 31  1  0  0  0
 28 31  1  0  0  0
 28 32  1  0  0  0
 29 32  1  0  0  0
 31 24  1  0  0  0
 24  1  1  0  0  0
  1  2  2  0  0  0
  1  6  1  0  0  0
  2  3  1  0  0  0
  3  4  2  0  0  0
  3 22  1  0  0  0
  4  5  1  0  0  0
  4  7  1  0  0  0
  5  6  2  0  0  0
  7  8  2  0  0  0
  7 12  1  0  0  0
  8  9  1  0  0  0
  9 10  2  0  0  0
 10 11  1  0  0  0
 10 13  1  0  0  0
 11 12  2  0  0  0
 22 23  3  0  0  0
 13 15  1  0  0  0
 15 16  1  0  0  0
 15 20  1  0  0  0
 17 18  1  0  0  0
 17 21  1  0  0  0
 18 19  1  0  0  0
 19 20  1  0  0  0
 29 25  1  0  0  0
M  END
> <minimizedAffinity>
-8.81426

$$$$
5EQY_5RA_A_501


 32 35  0  0  0  0  0  0  0  0999 V2000
   14.4295   81.0708   52.1597 C   0  0  0  0  0  0  0  0  0  0  0  0
   15.0331   79.7893   52.0464 C   0  0  0  0  0  0  0  0  0  0  0  0
   15.5909   79.1103   53.1635 C   0  0  0  0  0  0  0  0  0  0  0  0
   15.5753   79.7257   54.4950 C   0  0  0  0  0  0  0  0  0  0  0  0
   14.9598   81.0189   54.5650 C   0  0  0  0  0  0  0  0  0  0  0  0
   14.4040   81.6779   53.4331 C   0  0  0  0  0  0  0  0  0  0  0  0
   16.1184   79.1417   55.8207 C   0  0  0  0  0  0  0  0  0  0  0  0
   15.2707   78.7541   56.8810 C   0  0  0  0  0  0  0  0  0  0  0  0
   15.7654   78.2308   58.1039 C   0  0  0  0  0  0  0  0  0  0  0  0
   17.1502   78.0717   58.3083 C   0  0  0  0  0  0  0  0  0  0  0  0
   18.0121   78.4597   57.2512 C   0  0  0  0  0  0  0  0  0  0  0  0
   17.5187   78.9744   56.0530 C   0  0  0  0  0  0  0  0  0  0  0  0
   17.7121   77.5155   59.6078 C   0  0  0  0  0  0  0  0  0  0  0  0
   17.2010   74.9321   62.1045 C   0  0  0  0  0  0  0  0  0  0  0  0
   17.4881   76.0612   59.8836 N   0  0  0  0  0  0  0  0  0  0  0  0
   16.5483   75.7128   60.9614 C   0  0  0  0  0  0  0  0  0  0  0  0
   18.6377   74.8058   61.8486 N   0  0  0  0  0  0  0  0  0  0  0  0
   19.0345   73.6809   60.9941 C   0  0  0  0  0  0  0  0  0  0  0  0
   18.4970   73.6577   59.5508 C   0  0  0  0  0  0  0  0  0  0  0  0
   17.9623   74.9878   58.9531 C   0  0  0  0  0  0  0  0  0  0  0  0
   19.5182   75.0675   62.9873 C   0  0  0  0  0  0  0  0  0  0  0  0
   16.1360   77.8112   52.8309 C   0  0  0  0  0  0  0  0  0  0  0  0
   16.5988   76.7678   52.5966 N   0  0  0  0  0  0  0  0  0  0  0  0
   13.8284   81.7829   50.9557 C   0  0  0  0  0  0  0  0  0  0  0  0
    9.7642   85.5455   52.1190 C   0  0  0  0  0  0  0  0  0  0  0  0
   11.7840   85.8547   51.8355 C   0  0  0  0  0  0  0  0  0  0  0  0
   13.5439   84.2382   50.8163 C   0  0  0  0  0  0  0  0  0  0  0  0
   11.4411   82.7519   50.8451 C   0  0  0  0  0  0  0  0  0  0  0  0
   10.8727   85.2127   50.8401 N   0  0  0  0  0  0  0  0  0  0  0  0
   13.2776   85.4094   51.7813 C   0  0  0  0  0  0  0  0  0  0  0  0
   12.9026   82.9533   51.1994 N   0  0  0  0  0  0  0  0  0  0  0  0
   10.4091   83.8477   51.1465 C   0  0  0  0  0  0  0  0  0  0  0  0
 14 16  1  0  0  0
 14 17  1  0  0  0
 26 29  1  0  0  0
 26 30  1  0  0  0
 27 30  1  0  0  0
 27 31  1  0  0  0
 28 31  1  0  0  0
 28 32  1  0  0  0
 29 32  1  0  0  0
 31 24  1  0  0  0
 24  1  1  0  0  0
  1  2  2  0  0  0
  1  6  1  0  0  0
  2  3  1  0  0  0
  3  4  2  0  0  0
  3 22  1  0  0  0
  4  5  1  0  0  0
  4  7  1  0  0  0
  5  6  2  0  0  0
  7  8  2  0  0  0
  7 12  1  0  0  0
  8  9  1  0  0  0
  9 10  2  0  0  0
 10 11  1  0  0  0
 10 13  1  0  0  0
 11 12  2  0  0  0
 22 23  3  0  0  0
 13 15  1  0  0  0
 15 16  1  0  0  0
 15 20  1  0  0  0
 17 18  1  0  0  0
 17 21  1  0  0  0
 18 19  1  0  0  0
 19 20  1  0  0  0
 29 25  1  0  0  0
M  END
> <minimizedAffinity>
-8.64481

$$$$
5EQY_5RA_A_501


 32 35  0  0  0  0  0  0  0  0999 V2000
   16.9767   77.6637   59.0360 C   0  0  0  0  0  0  0  0  0  0  0  0
   15.6526   77.4503   58.5661 C   0  0  0  0  0  0  0  0  0  0  0  0
   15.2398   77.8270   57.2592 C   0  0  0  0  0  0  0  0  0  0  0  0
   16.1795   78.4739   56.3371 C   0  0  0  0  0  0  0  0  0  0  0  0
   17.5033   78.6729   56.8511 C   0  0  0  0  0  0  0  0  0  0  0  0
   17.8950   78.2835   58.1624 C   0  0  0  0  0  0  0  0  0  0  0  0
   15.9202   78.9413   54.8853 C   0  0  0  0  0  0  0  0  0  0  0  0
   15.4405   80.2336   54.5801 C   0  0  0  0  0  0  0  0  0  0  0  0
   15.1882   80.6618   53.2508 C   0  0  0  0  0  0  0  0  0  0  0  0
   15.4155   79.7962   52.1628 C   0  0  0  0  0  0  0  0  0  0  0  0
   15.8952   78.4946   52.4569 C   0  0  0  0  0  0  0  0  0  0  0  0
   16.1395   78.0805   53.7657 C   0  0  0  0  0  0  0  0  0  0  0  0
   15.1535   80.2242   50.7268 C   0  0  0  0  0  0  0  0  0  0  0  0
   14.4169   78.8781   47.4383 C   0  0  0  0  0  0  0  0  0  0  0  0
   14.2728   79.3407   49.8989 N   0  0  0  0  0  0  0  0  0  0  0  0
   14.9156   78.5393   48.8449 C   0  0  0  0  0  0  0  0  0  0  0  0
   13.4668   79.9904   47.5141 N   0  0  0  0  0  0  0  0  0  0  0  0
   12.0768   79.6202   47.8037 C   0  0  0  0  0  0  0  0  0  0  0  0
   11.7896   78.9236   49.1472 C   0  0  0  0  0  0  0  0  0  0  0  0
   12.8521   79.0501   50.2730 C   0  0  0  0  0  0  0  0  0  0  0  0
   13.6379   81.0500   46.5200 C   0  0  0  0  0  0  0  0  0  0  0  0
   13.8575   77.5016   56.9787 C   0  0  0  0  0  0  0  0  0  0  0  0
   12.7482   77.2070   56.7777 N   0  0  0  0  0  0  0  0  0  0  0  0
   17.4071   77.2474   60.4358 C   0  0  0  0  0  0  0  0  0  0  0  0
   19.7772   72.1102   60.2971 C   0  0  0  0  0  0  0  0  0  0  0  0
   19.2687   73.2672   61.9275 C   0  0  0  0  0  0  0  0  0  0  0  0
   17.7425   75.3678   62.0116 C   0  0  0  0  0  0  0  0  0  0  0  0
   17.8081   74.8848   59.4830 C   0  0  0  0  0  0  0  0  0  0  0  0
   18.3157   72.8309   60.8622 N   0  0  0  0  0  0  0  0  0  0  0  0
   18.9259   74.6098   62.6431 C   0  0  0  0  0  0  0  0  0  0  0  0
   17.9813   75.8623   60.6305 N   0  0  0  0  0  0  0  0  0  0  0  0
   18.4404   73.4875   59.5488 C   0  0  0  0  0  0  0  0  0  0  0  0
 14 16  1  0  0  0
 14 17  1  0  0  0
 26 29  1  0  0  0
 26 30  1  0  0  0
 27 30  1  0  0  0
 27 31  1  0  0  0
 28 31  1  0  0  0
 28 32  1  0  0  0
 29 32  1  0  0  0
 31 24  1  0  0  0
 24  1  1  0  0  0
  1  2  2  0  0  0
  1  6  1  0  0  0
  2  3  1  0  0  0
  3  4  2  0  0  0
  3 22  1  0  0  0
  4  5  1  0  0  0
  4  7  1  0  0  0
  5  6  2  0  0  0
  7  8  2  0  0  0
  7 12  1  0  0  0
  8  9  1  0  0  0
  9 10  2  0  0  0
 10 11  1  0  0  0
 10 13  1  0  0  0
 11 12  2  0  0  0
 22 23  3  0  0  0
 13 15  1  0  0  0
 15 16  1  0  0  0
 15 20  1  0  0  0
 17 18  1  0  0  0
 17 21  1  0  0  0
 18 19  1  0  0  0
 19 20  1  0  0  0
 29 25  1  0  0  0
M  END
> <minimizedAffinity>
-8.62288

$$$$
5EQY_5RA_A_501


 32 35  0  0  0  0  0  0  0  0999 V2000
   16.6538   77.6766   58.9765 C   0  0  0  0  0  0  0  0  0  0  0  0
   15.3730   77.3076   58.4837 C   0  0  0  0  0  0  0  0  0  0  0  0
   14.9389   77.6393   57.1716 C   0  0  0  0  0  0  0  0  0  0  0  0
   15.8084   78.4003   56.2678 C   0  0  0  0  0  0  0  0  0  0  0  0
   17.0899   78.7546   56.8046 C   0  0  0  0  0  0  0  0  0  0  0  0
   17.5046   78.4078   58.1207 C   0  0  0  0  0  0  0  0  0  0  0  0
   15.5179   78.8414   54.8136 C   0  0  0  0  0  0  0  0  0  0  0  0
   14.6924   79.9450   54.5076 C   0  0  0  0  0  0  0  0  0  0  0  0
   14.4123   80.3447   53.1750 C   0  0  0  0  0  0  0  0  0  0  0  0
   14.9624   79.6424   52.0847 C   0  0  0  0  0  0  0  0  0  0  0  0
   15.7916   78.5305   52.3793 C   0  0  0  0  0  0  0  0  0  0  0  0
   16.0611   78.1429   53.6913 C   0  0  0  0  0  0  0  0  0  0  0  0
   14.6803   80.0444   50.6449 C   0  0  0  0  0  0  0  0  0  0  0  0
   11.6339   81.9050   49.9920 C   0  0  0  0  0  0  0  0  0  0  0  0
   13.2549   80.0017   50.1889 N   0  0  0  0  0  0  0  0  0  0  0  0
   12.7775   81.1144   49.3522 C   0  0  0  0  0  0  0  0  0  0  0  0
   11.3676   81.3766   51.3319 N   0  0  0  0  0  0  0  0  0  0  0  0
   10.4630   80.2228   51.3917 C   0  0  0  0  0  0  0  0  0  0  0  0
   10.9030   78.9339   50.6722 C   0  0  0  0  0  0  0  0  0  0  0  0
   12.4081   78.7739   50.3236 C   0  0  0  0  0  0  0  0  0  0  0  0
   11.1844   82.3706   52.3896 C   0  0  0  0  0  0  0  0  0  0  0  0
   13.6108   77.1512   56.8667 C   0  0  0  0  0  0  0  0  0  0  0  0
   12.5450   76.7315   56.6525 N   0  0  0  0  0  0  0  0  0  0  0  0
   17.1088   77.3072   60.3817 C   0  0  0  0  0  0  0  0  0  0  0  0
   19.6692   72.2609   60.4616 C   0  0  0  0  0  0  0  0  0  0  0  0
   18.7501   73.2804   62.0015 C   0  0  0  0  0  0  0  0  0  0  0  0
   17.1552   75.3266   61.8662 C   0  0  0  0  0  0  0  0  0  0  0  0
   17.8204   75.0331   59.3958 C   0  0  0  0  0  0  0  0  0  0  0  0
   18.0869   72.8978   60.7180 N   0  0  0  0  0  0  0  0  0  0  0  0
   18.1939   74.5568   62.7042 C   0  0  0  0  0  0  0  0  0  0  0  0
   17.6828   75.9277   60.6135 N   0  0  0  0  0  0  0  0  0  0  0  0
   18.4810   73.6525   59.5151 C   0  0  0  0  0  0  0  0  0  0  0  0
 14 16  1  0  0  0
 14 17  1  0  0  0
 26 29  1  0  0  0
 26 30  1  0  0  0
 27 30  1  0  0  0
 27 31  1  0  0  0
 28 31  1  0  0  0
 28 32  1  0  0  0
 29 32  1  0  0  0
 31 24  1  0  0  0
 24  1  1  0  0  0
  1  2  2  0  0  0
  1  6  1  0  0  0
  2  3  1  0  0  0
  3  4  2  0  0  0
  3 22  1  0  0  0
  4  5  1  0  0  0
  4  7  1  0  0  0
  5  6  2  0  0  0
  7  8  2  0  0  0
  7 12  1  0  0  0
  8  9  1  0  0  0
  9 10  2  0  0  0
 10 11  1  0  0  0
 10 13  1  0  0  0
 11 12  2  0  0  0
 22 23  3  0  0  0
 13 15  1  0  0  0
 15 16  1  0  0  0
 15 20  1  0  0  0
 17 18  1  0  0  0
 17 21  1  0  0  0
 18 19  1  0  0  0
 19 20  1  0  0  0
 29 25  1  0  0  0
M  END
> <minimizedAffinity>
-8.27111

$$$$
5EQY_5RA_A_501


 32 35  0  0  0  0  0  0  0  0999 V2000
   16.3904   77.3560   59.0852 C   0  0  0  0  0  0  0  0  0  0  0  0
   15.2017   76.5915   58.9359 C   0  0  0  0  0  0  0  0  0  0  0  0
   14.3166   76.7691   57.8381 C   0  0  0  0  0  0  0  0  0  0  0  0
   14.5968   77.7759   56.8087 C   0  0  0  0  0  0  0  0  0  0  0  0
   15.8037   78.5265   56.9984 C   0  0  0  0  0  0  0  0  0  0  0  0
   16.6771   78.3284   58.1039 C   0  0  0  0  0  0  0  0  0  0  0  0
   13.7652   78.1043   55.5461 C   0  0  0  0  0  0  0  0  0  0  0  0
   13.9242   77.4031   54.3311 C   0  0  0  0  0  0  0  0  0  0  0  0
   13.1732   77.7102   53.1667 C   0  0  0  0  0  0  0  0  0  0  0  0
   12.2180   78.7455   53.1813 C   0  0  0  0  0  0  0  0  0  0  0  0
   12.0508   79.4587   54.3955 C   0  0  0  0  0  0  0  0  0  0  0  0
   12.7934   79.1522   55.5351 C   0  0  0  0  0  0  0  0  0  0  0  0
   11.3983   79.1003   51.9500 C   0  0  0  0  0  0  0  0  0  0  0  0
    8.0940   79.3814   53.4236 C   0  0  0  0  0  0  0  0  0  0  0  0
    9.9696   78.6534   51.9265 N   0  0  0  0  0  0  0  0  0  0  0  0
    8.9369   79.6711   52.1796 C   0  0  0  0  0  0  0  0  0  0  0  0
    8.6050   78.1802   54.0882 N   0  0  0  0  0  0  0  0  0  0  0  0
    8.0948   76.9041   53.5743 C   0  0  0  0  0  0  0  0  0  0  0  0
    8.3992   76.5541   52.1054 C   0  0  0  0  0  0  0  0  0  0  0  0
    9.5594   77.3114   51.4034 C   0  0  0  0  0  0  0  0  0  0  0  0
    8.7409   78.2595   55.5427 C   0  0  0  0  0  0  0  0  0  0  0  0
   13.1782   75.8756   57.8695 C   0  0  0  0  0  0  0  0  0  0  0  0
   12.2402   75.1843   57.8733 N   0  0  0  0  0  0  0  0  0  0  0  0
   17.3337   77.1492   60.2622 C   0  0  0  0  0  0  0  0  0  0  0  0
   19.8778   72.0941   60.2480 C   0  0  0  0  0  0  0  0  0  0  0  0
   19.1121   73.1631   61.8374 C   0  0  0  0  0  0  0  0  0  0  0  0
   17.5165   75.2128   61.7937 C   0  0  0  0  0  0  0  0  0  0  0  0
   17.9426   74.8434   59.2811 C   0  0  0  0  0  0  0  0  0  0  0  0
   18.3287   72.7465   60.6348 N   0  0  0  0  0  0  0  0  0  0  0  0
   18.6285   74.4625   62.5516 C   0  0  0  0  0  0  0  0  0  0  0  0
   17.9238   75.7742   60.4792 N   0  0  0  0  0  0  0  0  0  0  0  0
   18.6083   73.4635   59.3780 C   0  0  0  0  0  0  0  0  0  0  0  0
 14 16  1  0  0  0
 14 17  1  0  0  0
 26 29  1  0  0  0
 26 30  1  0  0  0
 27 30  1  0  0  0
 27 31  1  0  0  0
 28 31  1  0  0  0
 28 32  1  0  0  0
 29 32  1  0  0  0
 31 24  1  0  0  0
 24  1  1  0  0  0
  1  2  2  0  0  0
  1  6  1  0  0  0
  2  3  1  0  0  0
  3  4  2  0  0  0
  3 22  1  0  0  0
  4  5  1  0  0  0
  4  7  1  0  0  0
  5  6  2  0  0  0
  7  8  2  0  0  0
  7 12  1  0  0  0
  8  9  1  0  0  0
  9 10  2  0  0  0
 10 11  1  0  0  0
 10 13  1  0  0  0
 11 12  2  0  0  0
 22 23  3  0  0  0
 13 15  1  0  0  0
 15 16  1  0  0  0
 15 20  1  0  0  0
 17 18  1  0  0  0
 17 21  1  0  0  0
 18 19  1  0  0  0
 19 20  1  0  0  0
 29 25  1  0  0  0
M  END
> <minimizedAffinity>
-8.21745

$$$$
5EQY_5RA_A_501


 32 35  0  0  0  0  0  0  0  0999 V2000
   17.1442   76.5877   56.9183 C   0  0  0  0  0  0  0  0  0  0  0  0
   15.7959   76.4299   56.4977 C   0  0  0  0  0  0  0  0  0  0  0  0
   15.0473   77.4960   55.9293 C   0  0  0  0  0  0  0  0  0  0  0  0
   15.6464   78.8251   55.7667 C   0  0  0  0  0  0  0  0  0  0  0  0
   17.0064   78.9419   56.2058 C   0  0  0  0  0  0  0  0  0  0  0  0
   17.7377   77.8589   56.7684 C   0  0  0  0  0  0  0  0  0  0  0  0
   14.9991   80.0946   55.1643 C   0  0  0  0  0  0  0  0  0  0  0  0
   15.3505   80.5925   53.8908 C   0  0  0  0  0  0  0  0  0  0  0  0
   14.7691   81.7642   53.3404 C   0  0  0  0  0  0  0  0  0  0  0  0
   13.7961   82.4875   54.0578 C   0  0  0  0  0  0  0  0  0  0  0  0
   13.4363   81.9985   55.3393 C   0  0  0  0  0  0  0  0  0  0  0  0
   14.0130   80.8472   55.8742 C   0  0  0  0  0  0  0  0  0  0  0  0
   13.1554   83.7478   53.4965 C   0  0  0  0  0  0  0  0  0  0  0  0
    9.6391   83.0239   54.0264 C   0  0  0  0  0  0  0  0  0  0  0  0
   11.7947   83.6109   52.8871 N   0  0  0  0  0  0  0  0  0  0  0  0
   10.6504   84.1139   53.6642 C   0  0  0  0  0  0  0  0  0  0  0  0
   10.1331   81.7272   53.5573 N   0  0  0  0  0  0  0  0  0  0  0  0
    9.8281   81.3986   52.1602 C   0  0  0  0  0  0  0  0  0  0  0  0
   10.4033   82.3211   51.0689 C   0  0  0  0  0  0  0  0  0  0  0  0
   11.5952   83.2414   51.4495 C   0  0  0  0  0  0  0  0  0  0  0  0
   10.0159   80.6156   54.5013 C   0  0  0  0  0  0  0  0  0  0  0  0
   13.7026   77.1150   55.5526 C   0  0  0  0  0  0  0  0  0  0  0  0
   12.6203   76.7803   55.2796 N   0  0  0  0  0  0  0  0  0  0  0  0
   17.9368   75.4343   57.5180 C   0  0  0  0  0  0  0  0  0  0  0  0
   18.2128   73.9045   62.9596 C   0  0  0  0  0  0  0  0  0  0  0  0
   17.6331   75.7068   62.1404 C   0  0  0  0  0  0  0  0  0  0  0  0
   17.0258   76.2449   59.6724 C   0  0  0  0  0  0  0  0  0  0  0  0
   17.7636   73.7843   59.4922 C   0  0  0  0  0  0  0  0  0  0  0  0
   17.0066   74.3872   61.8251 N   0  0  0  0  0  0  0  0  0  0  0  0
   17.5726   76.7796   61.0100 C   0  0  0  0  0  0  0  0  0  0  0  0
   17.8764   75.2197   59.0134 N   0  0  0  0  0  0  0  0  0  0  0  0
   17.7930   73.4597   60.9924 C   0  0  0  0  0  0  0  0  0  0  0  0
 14 16  1  0  0  0
 14 17  1  0  0  0
 26 29  1  0  0  0
 26 30  1  0  0  0
 27 30  1  0  0  0
 27 31  1  0  0  0
 28 31  1  0  0  0
 28 32  1  0  0  0
 29 32  1  0  0  0
 31 24  1  0  0  0
 24  1  1  0  0  0
  1  2  2  0  0  0
  1  6  1  0  0  0
  2  3  1  0  0  0
  3  4  2  0  0  0
  3 22  1  0  0  0
  4  5  1  0  0  0
  4  7  1  0  0  0
  5  6  2  0  0  0
  7  8  2  0  0  0
  7 12  1  0  0  0
  8  9  1  0  0  0
  9 10  2  0  0  0
 10 11  1  0  0  0
 10 13  1  0  0  0
 11 12  2  0  0  0
 22 23  3  0  0  0
 13 15  1  0  0  0
 15 16  1  0  0  0
 15 20  1  0  0  0
 17 18  1  0  0  0
 17 21  1  0  0  0
 18 19  1  0  0  0
 19 20  1  0  0  0
 29 25  1  0  0  0
M  END
> <minimizedAffinity>
-8.17553

$$$$
