4YRD_3IT_A_402


 13 13  0  0  0  0  0  0  0  0999 V2000
   21.7448    7.1243  -36.4870 C   0  0  0  0  0  0  0  0  0  0  0  0
   22.3882    7.4984  -37.6872 C   0  0  0  0  0  0  0  0  0  0  0  0
   22.0117    7.2345  -39.0032 C   0  0  0  0  0  0  0  0  0  0  0  0
   20.9070    6.5320  -39.5079 C   0  0  0  0  0  0  0  0  0  0  0  0
   19.8349    5.9435  -38.8389 C   0  0  0  0  0  0  0  0  0  0  0  0
   19.6930    5.8389  -37.4707 C   0  0  0  0  0  0  0  0  0  0  0  0
   18.6732    5.2756  -37.0654 O   0  0  0  0  0  0  0  0  0  0  0  0
   20.5546    6.3546  -36.4816 C   0  0  0  0  0  0  0  0  0  0  0  0
   20.1261    6.0325  -35.2776 O   0  0  0  0  0  0  0  0  0  0  0  0
   19.3453    5.5240  -35.1787 H   0  0  0  0  0  0  0  0  0  0  0  0
   23.6257    6.9219  -34.6020 C   0  0  0  0  0  0  0  0  0  0  0  0
   22.3222    7.5210  -35.2229 C   0  0  0  0  0  0  0  0  0  0  0  0
   21.7722    8.6647  -34.4041 C   0  0  0  0  0  0  0  0  0  0  0  0
  4  3  1  0  0  0
  4  5  2  0  0  0
  3  2  2  0  0  0
  5  6  1  0  0  0
  2  1  1  0  0  0
  6  7  2  0  0  0
  6  8  1  0  0  0
  8  1  2  0  0  0
  8  9  1  0  0  0
  1 12  1  0  0  0
 12 13  1  0  0  0
 12 11  2  0  0  0
  9 10  1  0  0  0
M  END
> <minimizedAffinity>
-6.16705

$$$$
4YRD_3IT_A_402


 13 13  0  0  0  0  0  0  0  0999 V2000
   22.3923    9.0113  -32.4407 C   0  0  0  0  0  0  0  0  0  0  0  0
   23.4261    9.9730  -32.4661 C   0  0  0  0  0  0  0  0  0  0  0  0
   24.6212    9.9950  -31.7489 C   0  0  0  0  0  0  0  0  0  0  0  0
   25.1332    9.0869  -30.8099 C   0  0  0  0  0  0  0  0  0  0  0  0
   24.6197    7.8696  -30.3651 C   0  0  0  0  0  0  0  0  0  0  0  0
   23.3915    7.3380  -30.6996 C   0  0  0  0  0  0  0  0  0  0  0  0
   23.1096    6.2471  -30.1976 O   0  0  0  0  0  0  0  0  0  0  0  0
   22.4455    7.8740  -31.5965 C   0  0  0  0  0  0  0  0  0  0  0  0
   21.3679    7.1166  -31.6434 O   0  0  0  0  0  0  0  0  0  0  0  0
   21.3158    6.3429  -31.1174 H   0  0  0  0  0  0  0  0  0  0  0  0
   20.1484   10.3035  -33.0946 C   0  0  0  0  0  0  0  0  0  0  0  0
   21.2349    9.1962  -33.2864 C   0  0  0  0  0  0  0  0  0  0  0  0
   21.0110    8.3868  -34.5417 C   0  0  0  0  0  0  0  0  0  0  0  0
  4  3  1  0  0  0
  4  5  2  0  0  0
  3  2  2  0  0  0
  5  6  1  0  0  0
  2  1  1  0  0  0
  6  7  2  0  0  0
  6  8  1  0  0  0
  8  1  2  0  0  0
  8  9  1  0  0  0
  1 12  1  0  0  0
 12 13  1  0  0  0
 12 11  2  0  0  0
  9 10  1  0  0  0
M  END
> <minimizedAffinity>
-6.04789

$$$$
4YRD_3IT_A_402


 13 13  0  0  0  0  0  0  0  0999 V2000
   22.8799    7.9520  -32.3016 C   0  0  0  0  0  0  0  0  0  0  0  0
   21.5593    7.9331  -32.8015 C   0  0  0  0  0  0  0  0  0  0  0  0
   20.7566    9.0014  -33.1985 C   0  0  0  0  0  0  0  0  0  0  0  0
   21.0214   10.3792  -33.2142 C   0  0  0  0  0  0  0  0  0  0  0  0
   22.1860   11.0736  -32.8907 C   0  0  0  0  0  0  0  0  0  0  0  0
   23.3366   10.5244  -32.3639 C   0  0  0  0  0  0  0  0  0  0  0  0
   24.2641   11.3051  -32.1366 O   0  0  0  0  0  0  0  0  0  0  0  0
   23.5928    9.1619  -32.1097 C   0  0  0  0  0  0  0  0  0  0  0  0
   24.7846    9.0058  -31.5691 O   0  0  0  0  0  0  0  0  0  0  0  0
   25.3265    9.7526  -31.4057 H   0  0  0  0  0  0  0  0  0  0  0  0
   24.4415    5.8729  -32.9111 C   0  0  0  0  0  0  0  0  0  0  0  0
   23.5227    6.7040  -31.9578 C   0  0  0  0  0  0  0  0  0  0  0  0
   23.4614    6.1170  -30.5676 C   0  0  0  0  0  0  0  0  0  0  0  0
  4  3  1  0  0  0
  4  5  2  0  0  0
  3  2  2  0  0  0
  5  6  1  0  0  0
  2  1  1  0  0  0
  6  7  2  0  0  0
  6  8  1  0  0  0
  8  1  2  0  0  0
  8  9  1  0  0  0
  1 12  1  0  0  0
 12 13  1  0  0  0
 12 11  2  0  0  0
  9 10  1  0  0  0
M  END
> <minimizedAffinity>
-5.82515

$$$$
4YRD_3IT_A_402


 13 13  0  0  0  0  0  0  0  0999 V2000
   23.0035    8.0928  -31.8591 C   0  0  0  0  0  0  0  0  0  0  0  0
   21.9844    7.2521  -32.3581 C   0  0  0  0  0  0  0  0  0  0  0  0
   20.8874    7.5806  -33.1530 C   0  0  0  0  0  0  0  0  0  0  0  0
   20.4835    8.8183  -33.6760 C   0  0  0  0  0  0  0  0  0  0  0  0
   21.0951   10.0686  -33.5991 C   0  0  0  0  0  0  0  0  0  0  0  0
   22.2239   10.3743  -32.8674 C   0  0  0  0  0  0  0  0  0  0  0  0
   22.6127   11.5438  -32.9196 O   0  0  0  0  0  0  0  0  0  0  0  0
   23.0174    9.4874  -32.1122 C   0  0  0  0  0  0  0  0  0  0  0  0
   23.9974   10.1344  -31.5139 O   0  0  0  0  0  0  0  0  0  0  0  0
   24.0838   11.0608  -31.6252 H   0  0  0  0  0  0  0  0  0  0  0  0
   24.0514    7.4434  -29.4900 C   0  0  0  0  0  0  0  0  0  0  0  0
   24.0573    7.5221  -31.0512 C   0  0  0  0  0  0  0  0  0  0  0  0
   25.2527    6.8235  -31.6544 C   0  0  0  0  0  0  0  0  0  0  0  0
  4  3  1  0  0  0
  4  5  2  0  0  0
  3  2  2  0  0  0
  5  6  1  0  0  0
  2  1  1  0  0  0
  6  7  2  0  0  0
  6  8  1  0  0  0
  8  1  2  0  0  0
  8  9  1  0  0  0
  1 12  1  0  0  0
 12 13  1  0  0  0
 12 11  2  0  0  0
  9 10  1  0  0  0
M  END
> <minimizedAffinity>
-5.78420

$$$$
4YRD_3IT_A_402


 13 13  0  0  0  0  0  0  0  0999 V2000
   23.6107    9.2464  -31.9754 C   0  0  0  0  0  0  0  0  0  0  0  0
   23.3100   10.5866  -32.3036 C   0  0  0  0  0  0  0  0  0  0  0  0
   22.1627   11.1071  -32.9004 C   0  0  0  0  0  0  0  0  0  0  0  0
   20.9971   10.4629  -33.3419 C   0  0  0  0  0  0  0  0  0  0  0  0
   20.6257    9.1218  -33.2588 C   0  0  0  0  0  0  0  0  0  0  0  0
   21.4155    8.0899  -32.7958 C   0  0  0  0  0  0  0  0  0  0  0  0
   20.9107    6.9645  -32.8056 O   0  0  0  0  0  0  0  0  0  0  0  0
   22.7150    8.1850  -32.2583 C   0  0  0  0  0  0  0  0  0  0  0  0
   23.1805    6.9905  -31.9528 O   0  0  0  0  0  0  0  0  0  0  0  0
   22.6554    6.2297  -32.1060 H   0  0  0  0  0  0  0  0  0  0  0  0
   25.0859    8.7018  -29.8168 C   0  0  0  0  0  0  0  0  0  0  0  0
   24.8759    8.9400  -31.3474 C   0  0  0  0  0  0  0  0  0  0  0  0
   26.1381    8.7014  -32.1416 C   0  0  0  0  0  0  0  0  0  0  0  0
  4  3  1  0  0  0
  4  5  2  0  0  0
  3  2  2  0  0  0
  5  6  1  0  0  0
  2  1  1  0  0  0
  6  7  2  0  0  0
  6  8  1  0  0  0
  8  1  2  0  0  0
  8  9  1  0  0  0
  1 12  1  0  0  0
 12 13  1  0  0  0
 12 11  2  0  0  0
  9 10  1  0  0  0
M  END
> <minimizedAffinity>
-5.72647

$$$$
4YRD_3IT_A_402


 13 13  0  0  0  0  0  0  0  0999 V2000
   21.9706    7.1795  -34.4732 C   0  0  0  0  0  0  0  0  0  0  0  0
   23.3617    7.4025  -34.5718 C   0  0  0  0  0  0  0  0  0  0  0  0
   24.2374    7.0408  -35.5943 C   0  0  0  0  0  0  0  0  0  0  0  0
   23.9966    6.3613  -36.7979 C   0  0  0  0  0  0  0  0  0  0  0  0
   22.8000    5.9016  -37.3459 C   0  0  0  0  0  0  0  0  0  0  0  0
   21.5642    5.9324  -36.7336 C   0  0  0  0  0  0  0  0  0  0  0  0
   20.6197    5.4703  -37.3785 O   0  0  0  0  0  0  0  0  0  0  0  0
   21.2486    6.4854  -35.4762 C   0  0  0  0  0  0  0  0  0  0  0  0
   19.9743    6.3018  -35.1940 O   0  0  0  0  0  0  0  0  0  0  0  0
   19.4202    5.8517  -35.8009 H   0  0  0  0  0  0  0  0  0  0  0  0
   21.0473    6.8448  -31.9897 C   0  0  0  0  0  0  0  0  0  0  0  0
   21.2598    7.6565  -33.3087 C   0  0  0  0  0  0  0  0  0  0  0  0
   20.7327    9.0678  -33.2028 C   0  0  0  0  0  0  0  0  0  0  0  0
  4  3  1  0  0  0
  4  5  2  0  0  0
  3  2  2  0  0  0
  5  6  1  0  0  0
  2  1  1  0  0  0
  6  7  2  0  0  0
  6  8  1  0  0  0
  8  1  2  0  0  0
  8  9  1  0  0  0
  1 12  1  0  0  0
 12 13  1  0  0  0
 12 11  2  0  0  0
  9 10  1  0  0  0
M  END
> <minimizedAffinity>
-5.36964

$$$$
4YRD_3IT_A_402


 13 13  0  0  0  0  0  0  0  0999 V2000
   21.9793    7.7681  -33.2396 C   0  0  0  0  0  0  0  0  0  0  0  0
   22.8335    8.7468  -32.6858 C   0  0  0  0  0  0  0  0  0  0  0  0
   23.6016    8.6845  -31.5242 C   0  0  0  0  0  0  0  0  0  0  0  0
   23.7445    7.6523  -30.5847 C   0  0  0  0  0  0  0  0  0  0  0  0
   23.2030    6.3678  -30.5722 C   0  0  0  0  0  0  0  0  0  0  0  0
   22.2883    5.8658  -31.4745 C   0  0  0  0  0  0  0  0  0  0  0  0
   21.9196    4.7026  -31.2938 O   0  0  0  0  0  0  0  0  0  0  0  0
   21.7705    6.5133  -32.6143 C   0  0  0  0  0  0  0  0  0  0  0  0
   20.8892    5.7465  -33.2247 O   0  0  0  0  0  0  0  0  0  0  0  0
   20.6883    4.8984  -32.8808 H   0  0  0  0  0  0  0  0  0  0  0  0
   21.7314    7.5824  -35.8922 C   0  0  0  0  0  0  0  0  0  0  0  0
   21.2813    8.0557  -34.4720 C   0  0  0  0  0  0  0  0  0  0  0  0
   19.9492    8.7668  -34.5019 C   0  0  0  0  0  0  0  0  0  0  0  0
  4  3  1  0  0  0
  4  5  2  0  0  0
  3  2  2  0  0  0
  5  6  1  0  0  0
  2  1  1  0  0  0
  6  7  2  0  0  0
  6  8  1  0  0  0
  8  1  2  0  0  0
  8  9  1  0  0  0
  1 12  1  0  0  0
 12 13  1  0  0  0
 12 11  2  0  0  0
  9 10  1  0  0  0
M  END
> <minimizedAffinity>
-5.34397

$$$$
4YRD_3IT_A_402


 13 13  0  0  0  0  0  0  0  0999 V2000
   23.0167    7.6690  -32.4402 C   0  0  0  0  0  0  0  0  0  0  0  0
   24.0750    6.7741  -32.1692 C   0  0  0  0  0  0  0  0  0  0  0  0
   25.3953    7.0566  -31.8225 C   0  0  0  0  0  0  0  0  0  0  0  0
   26.0443    8.2882  -31.6477 C   0  0  0  0  0  0  0  0  0  0  0  0
   25.5406    9.5863  -31.7145 C   0  0  0  0  0  0  0  0  0  0  0  0
   24.2606    9.9401  -32.0877 C   0  0  0  0  0  0  0  0  0  0  0  0
   24.0030   11.1464  -32.0921 O   0  0  0  0  0  0  0  0  0  0  0  0
   23.1956    9.0747  -32.4093 C   0  0  0  0  0  0  0  0  0  0  0  0
   22.1261    9.7623  -32.7563 O   0  0  0  0  0  0  0  0  0  0  0  0
   22.1535   10.6988  -32.7645 H   0  0  0  0  0  0  0  0  0  0  0  0
   21.1903    6.8954  -34.2285 C   0  0  0  0  0  0  0  0  0  0  0  0
   21.7140    7.1409  -32.7763 C   0  0  0  0  0  0  0  0  0  0  0  0
   20.7419    6.6539  -31.7280 C   0  0  0  0  0  0  0  0  0  0  0  0
  4  3  1  0  0  0
  4  5  2  0  0  0
  3  2  2  0  0  0
  5  6  1  0  0  0
  2  1  1  0  0  0
  6  7  2  0  0  0
  6  8  1  0  0  0
  8  1  2  0  0  0
  8  9  1  0  0  0
  1 12  1  0  0  0
 12 13  1  0  0  0
 12 11  2  0  0  0
  9 10  1  0  0  0
M  END
> <minimizedAffinity>
-5.26998

$$$$
4YRD_3IT_A_402


 13 13  0  0  0  0  0  0  0  0999 V2000
   22.5056    6.4702  -33.9493 C   0  0  0  0  0  0  0  0  0  0  0  0
   23.8354    6.7600  -34.3263 C   0  0  0  0  0  0  0  0  0  0  0  0
   24.3609    6.9631  -35.6013 C   0  0  0  0  0  0  0  0  0  0  0  0
   23.7341    6.9369  -36.8563 C   0  0  0  0  0  0  0  0  0  0  0  0
   22.3918    6.7563  -37.1863 C   0  0  0  0  0  0  0  0  0  0  0  0
   21.3758    6.4478  -36.3057 C   0  0  0  0  0  0  0  0  0  0  0  0
   20.2485    6.3201  -36.7900 O   0  0  0  0  0  0  0  0  0  0  0  0
   21.4703    6.3185  -34.9053 C   0  0  0  0  0  0  0  0  0  0  0  0
   20.3057    5.9791  -34.3899 O   0  0  0  0  0  0  0  0  0  0  0  0
   19.5637    5.8570  -34.9489 H   0  0  0  0  0  0  0  0  0  0  0  0
   22.2336    4.9510  -31.7697 C   0  0  0  0  0  0  0  0  0  0  0  0
   22.1886    6.3054  -32.5488 C   0  0  0  0  0  0  0  0  0  0  0  0
   21.8823    7.4754  -31.6443 C   0  0  0  0  0  0  0  0  0  0  0  0
  4  3  1  0  0  0
  4  5  2  0  0  0
  3  2  2  0  0  0
  5  6  1  0  0  0
  2  1  1  0  0  0
  6  7  2  0  0  0
  6  8  1  0  0  0
  8  1  2  0  0  0
  8  9  1  0  0  0
  1 12  1  0  0  0
 12 13  1  0  0  0
 12 11  2  0  0  0
  9 10  1  0  0  0
M  END
> <minimizedAffinity>
-5.15946

$$$$
4YRD_3IT_A_402


 13 13  0  0  0  0  0  0  0  0999 V2000
   22.5259    8.1341  -32.5994 C   0  0  0  0  0  0  0  0  0  0  0  0
   22.5417    7.8496  -31.2162 C   0  0  0  0  0  0  0  0  0  0  0  0
   23.1413    6.7839  -30.5470 C   0  0  0  0  0  0  0  0  0  0  0  0
   23.8866    5.7039  -31.0436 C   0  0  0  0  0  0  0  0  0  0  0  0
   24.2918    5.4156  -32.3459 C   0  0  0  0  0  0  0  0  0  0  0  0
   23.9338    6.1159  -33.4792 C   0  0  0  0  0  0  0  0  0  0  0  0
   24.3897    5.7018  -34.5480 O   0  0  0  0  0  0  0  0  0  0  0  0
   23.1516    7.2864  -33.5475 C   0  0  0  0  0  0  0  0  0  0  0  0
   22.9809    7.6594  -34.8000 O   0  0  0  0  0  0  0  0  0  0  0  0
   23.3600    7.1570  -35.4942 H   0  0  0  0  0  0  0  0  0  0  0  0
   20.3861    9.3394  -33.6486 C   0  0  0  0  0  0  0  0  0  0  0  0
   21.8379    9.3150  -33.0696 C   0  0  0  0  0  0  0  0  0  0  0  0
   22.4258   10.7002  -32.9417 C   0  0  0  0  0  0  0  0  0  0  0  0
  4  3  1  0  0  0
  4  5  2  0  0  0
  3  2  2  0  0  0
  5  6  1  0  0  0
  2  1  1  0  0  0
  6  7  2  0  0  0
  6  8  1  0  0  0
  8  1  2  0  0  0
  8  9  1  0  0  0
  1 12  1  0  0  0
 12 13  1  0  0  0
 12 11  2  0  0  0
  9 10  1  0  0  0
M  END
> <minimizedAffinity>
-5.11810

$$$$
