3PB8_AHN_X_390


 13 13  0  0  0  0  0  0  0  0999 V2000
  -18.3241  -15.1490   15.3465 C   0  0  0  0  0  0  0  0  0  0  0  0
  -18.2936  -13.7751   14.6574 C   0  0  0  0  0  0  0  0  0  0  0  0
  -18.9478  -12.6407   14.9958 C   0  0  0  0  0  0  0  0  0  0  0  0
  -17.6601  -13.4929   13.5203 N   0  0  0  0  0  0  0  0  0  0  0  0
  -17.8525  -12.2437   13.2192 C   0  0  0  0  0  0  0  0  0  0  0  0
  -18.6763  -11.6702   14.0957 N   0  0  0  0  0  0  0  0  0  0  0  0
  -19.0123  -10.7448   14.0890 H   0  0  0  0  0  0  0  0  0  0  0  0
  -16.8806  -15.7742   15.2668 C   0  0  0  0  0  0  0  0  0  0  0  0
  -15.3620  -15.4484   17.0318 C   0  0  0  0  0  0  0  0  0  0  0  0
  -15.7737  -16.5348   17.5426 O   0  0  0  0  0  0  0  0  0  0  0  0
  -14.2018  -14.5718   17.6180 C   0  0  0  0  0  0  0  0  0  0  0  0
  -15.9132  -14.9718   15.9302 N   0  0  0  0  0  0  0  0  0  0  0  0
  -15.6614  -14.0872   15.5792 H   0  0  0  0  0  0  0  0  0  0  0  0
  9 10  2  0  0  0
  9 11  1  0  0  0
  9 12  1  0  0  0
 12  8  1  0  0  0
  8  1  1  0  0  0
  1  2  1  0  0  0
  2  3  2  0  0  0
  2  4  1  0  0  0
  3  6  1  0  0  0
  4  5  2  0  0  0
  5  6  1  0  0  0
 12 13  1  0  0  0
  6  7  1  0  0  0
M  END
> <minimizedAffinity>
-5.11624

$$$$
3PB8_AHN_X_390


 13 13  0  0  0  0  0  0  0  0999 V2000
  -17.8503  -14.0509   16.6759 C   0  0  0  0  0  0  0  0  0  0  0  0
  -18.0321  -13.1831   15.4201 C   0  0  0  0  0  0  0  0  0  0  0  0
  -18.7354  -12.0369   15.2745 C   0  0  0  0  0  0  0  0  0  0  0  0
  -17.5793  -13.4778   14.2028 N   0  0  0  0  0  0  0  0  0  0  0  0
  -17.9199  -12.5343   13.3769 C   0  0  0  0  0  0  0  0  0  0  0  0
  -18.6707  -11.6204   13.9908 N   0  0  0  0  0  0  0  0  0  0  0  0
  -19.0859  -10.8196   13.5965 H   0  0  0  0  0  0  0  0  0  0  0  0
  -16.5356  -14.9011   16.5032 C   0  0  0  0  0  0  0  0  0  0  0  0
  -15.8810  -16.5651   14.9767 C   0  0  0  0  0  0  0  0  0  0  0  0
  -14.8916  -15.8369   14.6580 O   0  0  0  0  0  0  0  0  0  0  0  0
  -16.1514  -18.0001   14.4060 C   0  0  0  0  0  0  0  0  0  0  0  0
  -16.7803  -16.1359   15.8435 N   0  0  0  0  0  0  0  0  0  0  0  0
  -17.5959  -16.6558   16.0272 H   0  0  0  0  0  0  0  0  0  0  0  0
  9 10  2  0  0  0
  9 11  1  0  0  0
  9 12  1  0  0  0
 12  8  1  0  0  0
  8  1  1  0  0  0
  1  2  1  0  0  0
  2  3  2  0  0  0
  2  4  1  0  0  0
  3  6  1  0  0  0
  4  5  2  0  0  0
  5  6  1  0  0  0
 12 13  1  0  0  0
  6  7  1  0  0  0
M  END
> <minimizedAffinity>
-4.91154

$$$$
3PB8_AHN_X_390


 13 13  0  0  0  0  0  0  0  0999 V2000
  -17.9392  -16.2510   15.5747 C   0  0  0  0  0  0  0  0  0  0  0  0
  -16.4651  -16.6771   15.4808 C   0  0  0  0  0  0  0  0  0  0  0  0
  -15.9002  -17.8599   15.8145 C   0  0  0  0  0  0  0  0  0  0  0  0
  -15.4526  -15.8896   15.1225 N   0  0  0  0  0  0  0  0  0  0  0  0
  -14.3450  -16.5677   15.1624 C   0  0  0  0  0  0  0  0  0  0  0  0
  -14.5647  -17.8008   15.6174 N   0  0  0  0  0  0  0  0  0  0  0  0
  -13.9014  -18.5110   15.7749 H   0  0  0  0  0  0  0  0  0  0  0  0
  -17.9889  -14.7054   15.8741 C   0  0  0  0  0  0  0  0  0  0  0  0
  -18.4233  -13.0840   14.2279 C   0  0  0  0  0  0  0  0  0  0  0  0
  -19.6288  -13.0529   14.6238 O   0  0  0  0  0  0  0  0  0  0  0  0
  -17.8307  -12.1649   13.1045 C   0  0  0  0  0  0  0  0  0  0  0  0
  -17.5620  -13.9314   14.7612 N   0  0  0  0  0  0  0  0  0  0  0  0
  -16.6514  -14.0241   14.3987 H   0  0  0  0  0  0  0  0  0  0  0  0
  9 10  2  0  0  0
  9 11  1  0  0  0
  9 12  1  0  0  0
 12  8  1  0  0  0
  8  1  1  0  0  0
  1  2  1  0  0  0
  2  3  2  0  0  0
  2  4  1  0  0  0
  3  6  1  0  0  0
  4  5  2  0  0  0
  5  6  1  0  0  0
 12 13  1  0  0  0
  6  7  1  0  0  0
M  END
> <minimizedAffinity>
-4.66202

$$$$
3PB8_AHN_X_390


 13 13  0  0  0  0  0  0  0  0999 V2000
  -15.0907  -16.3252   15.0551 C   0  0  0  0  0  0  0  0  0  0  0  0
  -14.5826  -16.0259   16.4748 C   0  0  0  0  0  0  0  0  0  0  0  0
  -14.6066  -16.8191   17.5701 C   0  0  0  0  0  0  0  0  0  0  0  0
  -14.0958  -14.8589   16.8932 N   0  0  0  0  0  0  0  0  0  0  0  0
  -13.7722  -14.9527   18.1480 C   0  0  0  0  0  0  0  0  0  0  0  0
  -14.0981  -16.1518   18.6294 N   0  0  0  0  0  0  0  0  0  0  0  0
  -13.9920  -16.4789   19.5519 H   0  0  0  0  0  0  0  0  0  0  0  0
  -16.6354  -16.0203   15.0084 C   0  0  0  0  0  0  0  0  0  0  0  0
  -17.9060  -14.1066   14.5075 C   0  0  0  0  0  0  0  0  0  0  0  0
  -18.6168  -14.3515   15.5301 O   0  0  0  0  0  0  0  0  0  0  0  0
  -18.0784  -12.8528   13.5822 C   0  0  0  0  0  0  0  0  0  0  0  0
  -16.9395  -14.9315   14.1472 N   0  0  0  0  0  0  0  0  0  0  0  0
  -16.4445  -14.7961   13.3070 H   0  0  0  0  0  0  0  0  0  0  0  0
  9 10  2  0  0  0
  9 11  1  0  0  0
  9 12  1  0  0  0
 12  8  1  0  0  0
  8  1  1  0  0  0
  1  2  1  0  0  0
  2  3  2  0  0  0
  2  4  1  0  0  0
  3  6  1  0  0  0
  4  5  2  0  0  0
  5  6  1  0  0  0
 12 13  1  0  0  0
  6  7  1  0  0  0
M  END
> <minimizedAffinity>
-4.60163

$$$$
3PB8_AHN_X_390


 13 13  0  0  0  0  0  0  0  0999 V2000
  -16.6972  -16.3282   15.8030 C   0  0  0  0  0  0  0  0  0  0  0  0
  -15.6220  -15.8322   16.7834 C   0  0  0  0  0  0  0  0  0  0  0  0
  -15.1917  -16.4029   17.9317 C   0  0  0  0  0  0  0  0  0  0  0  0
  -14.9761  -14.6703   16.7016 N   0  0  0  0  0  0  0  0  0  0  0  0
  -14.1473  -14.5678   17.6970 C   0  0  0  0  0  0  0  0  0  0  0  0
  -14.2625  -15.6138   18.5145 N   0  0  0  0  0  0  0  0  0  0  0  0
  -13.7781  -15.7756   19.3562 H   0  0  0  0  0  0  0  0  0  0  0  0
  -17.2467  -15.0877   15.0028 C   0  0  0  0  0  0  0  0  0  0  0  0
  -17.9553  -12.8834   15.4112 C   0  0  0  0  0  0  0  0  0  0  0  0
  -17.4391  -12.5471   14.3016 O   0  0  0  0  0  0  0  0  0  0  0  0
  -18.7540  -11.9162   16.3517 C   0  0  0  0  0  0  0  0  0  0  0  0
  -17.8421  -14.1212   15.8579 N   0  0  0  0  0  0  0  0  0  0  0  0
  -18.1606  -14.3669   16.7565 H   0  0  0  0  0  0  0  0  0  0  0  0
  9 10  2  0  0  0
  9 11  1  0  0  0
  9 12  1  0  0  0
 12  8  1  0  0  0
  8  1  1  0  0  0
  1  2  1  0  0  0
  2  3  2  0  0  0
  2  4  1  0  0  0
  3  6  1  0  0  0
  4  5  2  0  0  0
  5  6  1  0  0  0
 12 13  1  0  0  0
  6  7  1  0  0  0
M  END
> <minimizedAffinity>
-4.36591

$$$$
3PB8_AHN_X_390


 13 13  0  0  0  0  0  0  0  0999 V2000
  -15.5996  -15.6241   18.6591 C   0  0  0  0  0  0  0  0  0  0  0  0
  -15.1111  -15.8163   17.2141 C   0  0  0  0  0  0  0  0  0  0  0  0
  -13.9786  -15.3593   16.6328 C   0  0  0  0  0  0  0  0  0  0  0  0
  -15.7931  -16.4148   16.2392 N   0  0  0  0  0  0  0  0  0  0  0  0
  -15.0910  -16.3918   15.1462 C   0  0  0  0  0  0  0  0  0  0  0  0
  -13.9568  -15.7168   15.3299 N   0  0  0  0  0  0  0  0  0  0  0  0
  -13.2582  -15.5219   14.6642 H   0  0  0  0  0  0  0  0  0  0  0  0
  -17.1230  -15.2259   18.6170 C   0  0  0  0  0  0  0  0  0  0  0  0
  -18.6078  -13.7186   17.5918 C   0  0  0  0  0  0  0  0  0  0  0  0
  -19.5456  -14.2252   18.2810 O   0  0  0  0  0  0  0  0  0  0  0  0
  -18.7758  -12.5030   16.6161 C   0  0  0  0  0  0  0  0  0  0  0  0
  -17.3836  -14.2097   17.6582 N   0  0  0  0  0  0  0  0  0  0  0  0
  -16.6727  -13.8817   17.0613 H   0  0  0  0  0  0  0  0  0  0  0  0
  9 10  2  0  0  0
  9 11  1  0  0  0
  9 12  1  0  0  0
 12  8  1  0  0  0
  8  1  1  0  0  0
  1  2  1  0  0  0
  2  3  2  0  0  0
  2  4  1  0  0  0
  3  6  1  0  0  0
  4  5  2  0  0  0
  5  6  1  0  0  0
 12 13  1  0  0  0
  6  7  1  0  0  0
M  END
> <minimizedAffinity>
-4.30623

$$$$
3PB8_AHN_X_390


 13 13  0  0  0  0  0  0  0  0999 V2000
  -18.1104  -15.2270   15.7637 C   0  0  0  0  0  0  0  0  0  0  0  0
  -17.9207  -13.7627   15.3356 C   0  0  0  0  0  0  0  0  0  0  0  0
  -17.9708  -13.2276   14.0944 C   0  0  0  0  0  0  0  0  0  0  0  0
  -17.5771  -12.7588   16.1405 N   0  0  0  0  0  0  0  0  0  0  0  0
  -17.4941  -11.6619   15.4490 C   0  0  0  0  0  0  0  0  0  0  0  0
  -17.7033  -11.9045   14.1555 N   0  0  0  0  0  0  0  0  0  0  0  0
  -17.6704  -11.2624   13.4100 H   0  0  0  0  0  0  0  0  0  0  0  0
  -17.0180  -16.0996   15.0382 C   0  0  0  0  0  0  0  0  0  0  0  0
  -16.3903  -18.3338   14.6612 C   0  0  0  0  0  0  0  0  0  0  0  0
  -15.4165  -17.9084   13.9673 O   0  0  0  0  0  0  0  0  0  0  0  0
  -16.6633  -19.8440   14.9815 C   0  0  0  0  0  0  0  0  0  0  0  0
  -17.2696  -17.4918   15.1735 N   0  0  0  0  0  0  0  0  0  0  0  0
  -18.0752  -17.8189   15.6353 H   0  0  0  0  0  0  0  0  0  0  0  0
  9 10  2  0  0  0
  9 11  1  0  0  0
  9 12  1  0  0  0
 12  8  1  0  0  0
  8  1  1  0  0  0
  1  2  1  0  0  0
  2  3  2  0  0  0
  2  4  1  0  0  0
  3  6  1  0  0  0
  4  5  2  0  0  0
  5  6  1  0  0  0
 12 13  1  0  0  0
  6  7  1  0  0  0
M  END
> <minimizedAffinity>
-4.14142

$$$$
3PB8_AHN_X_390


 13 13  0  0  0  0  0  0  0  0999 V2000
  -17.9209  -14.9972   15.1172 C   0  0  0  0  0  0  0  0  0  0  0  0
  -16.6942  -15.9237   15.1002 C   0  0  0  0  0  0  0  0  0  0  0  0
  -16.6476  -17.2726   15.1883 C   0  0  0  0  0  0  0  0  0  0  0  0
  -15.4233  -15.5258   15.0819 N   0  0  0  0  0  0  0  0  0  0  0  0
  -14.6463  -16.5672   15.0837 C   0  0  0  0  0  0  0  0  0  0  0  0
  -15.3617  -17.6875   15.1788 N   0  0  0  0  0  0  0  0  0  0  0  0
  -15.0275  -18.6121   15.2306 H   0  0  0  0  0  0  0  0  0  0  0  0
  -17.6429  -13.8278   16.1352 C   0  0  0  0  0  0  0  0  0  0  0  0
  -18.1285  -14.4273   18.3561 C   0  0  0  0  0  0  0  0  0  0  0  0
  -19.3119  -14.0053   18.1764 O   0  0  0  0  0  0  0  0  0  0  0  0
  -17.6150  -15.1057   19.6729 C   0  0  0  0  0  0  0  0  0  0  0  0
  -17.2213  -14.3117   17.4032 N   0  0  0  0  0  0  0  0  0  0  0  0
  -16.2810  -14.5536   17.5664 H   0  0  0  0  0  0  0  0  0  0  0  0
  9 10  2  0  0  0
  9 11  1  0  0  0
  9 12  1  0  0  0
 12  8  1  0  0  0
  8  1  1  0  0  0
  1  2  1  0  0  0
  2  3  2  0  0  0
  2  4  1  0  0  0
  3  6  1  0  0  0
  4  5  2  0  0  0
  5  6  1  0  0  0
 12 13  1  0  0  0
  6  7  1  0  0  0
M  END
> <minimizedAffinity>
-4.13199

$$$$
3PB8_AHN_X_390


 13 13  0  0  0  0  0  0  0  0999 V2000
  -14.7080  -16.6788   15.1098 C   0  0  0  0  0  0  0  0  0  0  0  0
  -15.5185  -15.6862   15.9590 C   0  0  0  0  0  0  0  0  0  0  0  0
  -15.3164  -15.3020   17.2400 C   0  0  0  0  0  0  0  0  0  0  0  0
  -16.6464  -15.0859   15.5829 N   0  0  0  0  0  0  0  0  0  0  0  0
  -17.0698  -14.3234   16.5460 C   0  0  0  0  0  0  0  0  0  0  0  0
  -16.2886  -14.4434   17.6189 N   0  0  0  0  0  0  0  0  0  0  0  0
  -16.3959  -14.0041   18.4934 H   0  0  0  0  0  0  0  0  0  0  0  0
  -15.2445  -18.1310   15.4003 C   0  0  0  0  0  0  0  0  0  0  0  0
  -17.3688  -18.9855   14.8663 C   0  0  0  0  0  0  0  0  0  0  0  0
  -16.8279  -19.6576   13.9355 O   0  0  0  0  0  0  0  0  0  0  0  0
  -18.8880  -19.0538   15.2476 C   0  0  0  0  0  0  0  0  0  0  0  0
  -16.6518  -18.1515   15.5976 N   0  0  0  0  0  0  0  0  0  0  0  0
  -17.0795  -17.5615   16.2596 H   0  0  0  0  0  0  0  0  0  0  0  0
  9 10  2  0  0  0
  9 11  1  0  0  0
  9 12  1  0  0  0
 12  8  1  0  0  0
  8  1  1  0  0  0
  1  2  1  0  0  0
  2  3  2  0  0  0
  2  4  1  0  0  0
  3  6  1  0  0  0
  4  5  2  0  0  0
  5  6  1  0  0  0
 12 13  1  0  0  0
  6  7  1  0  0  0
M  END
> <minimizedAffinity>
-4.08533

$$$$
3PB8_AHN_X_390


 13 13  0  0  0  0  0  0  0  0999 V2000
  -17.2798  -15.0271   14.6312 C   0  0  0  0  0  0  0  0  0  0  0  0
  -17.8503  -14.1412   15.7507 C   0  0  0  0  0  0  0  0  0  0  0  0
  -17.9344  -12.7924   15.8065 C   0  0  0  0  0  0  0  0  0  0  0  0
  -18.2925  -14.5728   16.9305 N   0  0  0  0  0  0  0  0  0  0  0  0
  -18.6921  -13.5586   17.6375 C   0  0  0  0  0  0  0  0  0  0  0  0
  -18.4635  -12.4158   16.9914 N   0  0  0  0  0  0  0  0  0  0  0  0
  -18.6408  -11.5003   17.3073 H   0  0  0  0  0  0  0  0  0  0  0  0
  -16.1691  -15.9550   15.2527 C   0  0  0  0  0  0  0  0  0  0  0  0
  -14.8164  -15.8949   17.1748 C   0  0  0  0  0  0  0  0  0  0  0  0
  -15.1899  -17.0797   17.4344 O   0  0  0  0  0  0  0  0  0  0  0  0
  -13.7680  -15.0870   18.0151 C   0  0  0  0  0  0  0  0  0  0  0  0
  -15.3132  -15.2451   16.1377 N   0  0  0  0  0  0  0  0  0  0  0  0
  -15.0970  -14.2973   15.9824 H   0  0  0  0  0  0  0  0  0  0  0  0
  9 10  2  0  0  0
  9 11  1  0  0  0
  9 12  1  0  0  0
 12  8  1  0  0  0
  8  1  1  0  0  0
  1  2  1  0  0  0
  2  3  2  0  0  0
  2  4  1  0  0  0
  3  6  1  0  0  0
  4  5  2  0  0  0
  5  6  1  0  0  0
 12 13  1  0  0  0
  6  7  1  0  0  0
M  END
> <minimizedAffinity>
-4.07696

$$$$
