5VSJ_9HV_A_701


 37 38  0  0  0  0  0  0  0  0999 V2000
   24.4018  -30.2193  283.1737 C   0  0  0  0  0  0  0  0  0  0  0  0
   26.0041  -31.9849  283.1252 C   0  0  0  0  0  0  0  0  0  0  0  0
   25.5675  -31.7123  281.6802 C   0  0  0  0  0  0  0  0  0  0  0  0
   24.2282  -30.9720  281.8383 C   0  0  0  0  0  0  0  0  0  0  0  0
   25.3237  -31.0094  283.9878 N   0  0  0  0  0  0  0  0  0  0  0  0
   23.9365  -30.0621  280.7553 O   0  0  0  0  0  0  0  0  0  0  0  0
   24.6438  -29.4017  280.6884 H   0  0  0  0  0  0  0  0  0  0  0  0
   23.0657  -29.8811  283.8686 C   0  0  0  0  0  0  0  0  0  0  0  0
   22.3224  -29.0134  283.0107 O   0  0  0  0  0  0  0  0  0  0  0  0
   22.8340  -28.2060  282.8456 H   0  0  0  0  0  0  0  0  0  0  0  0
   27.5431  -31.8799  283.2561 C   0  0  0  0  0  0  0  0  0  0  0  0
   27.9722  -32.2016  284.5691 O   0  0  0  0  0  0  0  0  0  0  0  0
   27.7179  -33.1141  284.7779 H   0  0  0  0  0  0  0  0  0  0  0  0
   24.4716  -31.7477  284.9316 C   0  0  0  0  0  0  0  0  0  0  0  0
   24.6446  -33.2836  284.8986 C   0  0  0  0  0  0  0  0  0  0  0  0
   24.7200  -35.2991  286.8070 O   0  0  0  0  0  0  0  0  0  0  0  0
   26.7818  -33.9173  286.4487 O   0  0  0  0  0  0  0  0  0  0  0  0
   24.8512  -32.8499  287.6592 O   0  0  0  0  0  0  0  0  0  0  0  0
   25.2967  -33.8534  286.5113 P   0  0  0  0  0  0  0  0  0  0  0  0
   23.7517  -35.2588  286.8480 H   0  0  0  0  0  0  0  0  0  0  0  0
   27.1361  -33.0326  286.2677 H   0  0  0  0  0  0  0  0  0  0  0  0
   25.3854  -32.9782  281.0513 O   0  0  0  0  0  0  0  0  0  0  0  0
   23.9907  -35.0285  280.1622 O   0  0  0  0  0  0  0  0  0  0  0  0
   26.9108  -32.5784  278.5644 C   0  0  0  0  0  0  0  0  0  0  0  0
   24.8211  -32.8135  279.7753 C   0  0  0  0  0  0  0  0  0  0  0  0
   24.5874  -34.2135  279.1702 C   0  0  0  0  0  0  0  0  0  0  0  0
   25.9070  -34.8608  278.6913 C   0  0  0  0  0  0  0  0  0  0  0  0
   26.6668  -33.8840  277.7760 C   0  0  0  0  0  0  0  0  0  0  0  0
   25.6667  -31.9857  278.9620 O   0  0  0  0  0  0  0  0  0  0  0  0
   25.6486  -36.0584  277.9763 O   0  0  0  0  0  0  0  0  0  0  0  0
   27.8901  -34.4755  277.3471 O   0  0  0  0  0  0  0  0  0  0  0  0
   23.8350  -35.9153  279.8014 H   0  0  0  0  0  0  0  0  0  0  0  0
   25.1119  -35.8583  277.1936 H   0  0  0  0  0  0  0  0  0  0  0  0
   28.4338  -34.6911  278.1209 H   0  0  0  0  0  0  0  0  0  0  0  0
   27.7276  -31.5760  277.7313 C   0  0  0  0  0  0  0  0  0  0  0  0
   29.0932  -31.9995  277.7435 O   0  0  0  0  0  0  0  0  0  0  0  0
   29.1585  -32.8915  277.3679 H   0  0  0  0  0  0  0  0  0  0  0  0
 31 28  1  0  0  0
 35 36  1  0  0  0
 35 24  1  0  0  0
 28 24  1  0  0  0
 28 27  1  0  0  0
 30 27  1  0  0  0
 24 29  1  0  0  0
 27 26  1  0  0  0
 29 25  1  0  0  0
 26 25  1  0  0  0
 26 23  1  0  0  0
 25 22  1  0  0  0
 22  3  1  0  0  0
  6  4  1  0  0  0
  3  4  1  0  0  0
  3  2  1  0  0  0
  4  1  1  0  0  0
 12 11  1  0  0  0
 11  2  1  0  0  0
  2  5  1  0  0  0
  1  5  1  0  0  0
  1  8  1  0  0  0
 18 19  2  0  0  0
  5 14  1  0  0  0
  9  8  1  0  0  0
 15 14  1  0  0  0
 15 19  1  0  0  0
 19 17  1  0  0  0
 19 16  1  0  0  0
 16 20  1  0  0  0
 23 32  1  0  0  0
 36 37  1  0  0  0
  6  7  1  0  0  0
  9 10  1  0  0  0
 17 21  1  0  0  0
 12 13  1  0  0  0
 30 33  1  0  0  0
 31 34  1  0  0  0
M  END
> <minimizedAffinity>
-9.15574

$$$$
5VSJ_9HV_A_701


 37 38  0  0  0  0  0  0  0  0999 V2000
   24.3207  -31.3948  282.1377 C   0  0  0  0  0  0  0  0  0  0  0  0
   24.8023  -33.7122  282.4281 C   0  0  0  0  0  0  0  0  0  0  0  0
   24.1788  -33.1991  283.7323 C   0  0  0  0  0  0  0  0  0  0  0  0
   24.3740  -31.6751  283.6538 C   0  0  0  0  0  0  0  0  0  0  0  0
   24.8038  -32.6006  281.4675 N   0  0  0  0  0  0  0  0  0  0  0  0
   23.3656  -30.9234  284.3638 O   0  0  0  0  0  0  0  0  0  0  0  0
   22.4902  -31.1376  284.0050 H   0  0  0  0  0  0  0  0  0  0  0  0
   25.0505  -30.0989  281.7247 C   0  0  0  0  0  0  0  0  0  0  0  0
   24.5025  -29.0168  282.4796 O   0  0  0  0  0  0  0  0  0  0  0  0
   23.5523  -28.9447  282.2984 H   0  0  0  0  0  0  0  0  0  0  0  0
   24.0080  -34.9263  281.8879 C   0  0  0  0  0  0  0  0  0  0  0  0
   23.0626  -35.3887  282.8387 O   0  0  0  0  0  0  0  0  0  0  0  0
   22.4279  -34.6816  283.0338 H   0  0  0  0  0  0  0  0  0  0  0  0
   26.1988  -32.3099  281.1050 C   0  0  0  0  0  0  0  0  0  0  0  0
   26.6699  -32.9419  279.7751 C   0  0  0  0  0  0  0  0  0  0  0  0
   24.1811  -33.7222  278.8229 O   0  0  0  0  0  0  0  0  0  0  0  0
   24.8627  -31.3238  278.5554 O   0  0  0  0  0  0  0  0  0  0  0  0
   25.9617  -33.0277  277.0652 O   0  0  0  0  0  0  0  0  0  0  0  0
   25.3685  -32.7221  278.5068 P   0  0  0  0  0  0  0  0  0  0  0  0
   24.5096  -34.6343  278.7915 H   0  0  0  0  0  0  0  0  0  0  0  0
   25.5889  -30.7104  278.3620 H   0  0  0  0  0  0  0  0  0  0  0  0
   24.9304  -33.7602  284.8055 O   0  0  0  0  0  0  0  0  0  0  0  0
   26.9600  -33.7473  286.4847 O   0  0  0  0  0  0  0  0  0  0  0  0
   22.8840  -34.3297  286.8449 C   0  0  0  0  0  0  0  0  0  0  0  0
   24.7332  -33.0170  285.9813 C   0  0  0  0  0  0  0  0  0  0  0  0
   25.6803  -33.5738  287.0648 C   0  0  0  0  0  0  0  0  0  0  0  0
   25.1789  -34.9228  287.6289 C   0  0  0  0  0  0  0  0  0  0  0  0
   23.7087  -34.7931  288.0659 C   0  0  0  0  0  0  0  0  0  0  0  0
   23.3514  -33.0597  286.3694 O   0  0  0  0  0  0  0  0  0  0  0  0
   25.9592  -35.3221  288.7443 O   0  0  0  0  0  0  0  0  0  0  0  0
   23.2427  -36.0410  288.5719 O   0  0  0  0  0  0  0  0  0  0  0  0
   27.5722  -34.0975  287.1507 H   0  0  0  0  0  0  0  0  0  0  0  0
   25.8836  -34.6571  289.4464 H   0  0  0  0  0  0  0  0  0  0  0  0
   23.3222  -36.7192  287.8831 H   0  0  0  0  0  0  0  0  0  0  0  0
   21.3879  -34.2424  287.1914 C   0  0  0  0  0  0  0  0  0  0  0  0
   20.7718  -35.4738  286.8059 O   0  0  0  0  0  0  0  0  0  0  0  0
   21.1918  -36.2080  287.2807 H   0  0  0  0  0  0  0  0  0  0  0  0
 31 28  1  0  0  0
 35 36  1  0  0  0
 35 24  1  0  0  0
 28 24  1  0  0  0
 28 27  1  0  0  0
 30 27  1  0  0  0
 24 29  1  0  0  0
 27 26  1  0  0  0
 29 25  1  0  0  0
 26 25  1  0  0  0
 26 23  1  0  0  0
 25 22  1  0  0  0
 22  3  1  0  0  0
  6  4  1  0  0  0
  3  4  1  0  0  0
  3  2  1  0  0  0
  4  1  1  0  0  0
 12 11  1  0  0  0
 11  2  1  0  0  0
  2  5  1  0  0  0
  1  5  1  0  0  0
  1  8  1  0  0  0
 18 19  2  0  0  0
  5 14  1  0  0  0
  9  8  1  0  0  0
 15 14  1  0  0  0
 15 19  1  0  0  0
 19 17  1  0  0  0
 19 16  1  0  0  0
 16 20  1  0  0  0
 23 32  1  0  0  0
 36 37  1  0  0  0
  6  7  1  0  0  0
  9 10  1  0  0  0
 17 21  1  0  0  0
 12 13  1  0  0  0
 30 33  1  0  0  0
 31 34  1  0  0  0
M  END
> <minimizedAffinity>
-8.70645

$$$$
5VSJ_9HV_A_701


 37 38  0  0  0  0  0  0  0  0999 V2000
   26.8107  -31.2019  282.2494 C   0  0  0  0  0  0  0  0  0  0  0  0
   24.5620  -31.1106  283.0379 C   0  0  0  0  0  0  0  0  0  0  0  0
   25.4514  -31.5319  284.2145 C   0  0  0  0  0  0  0  0  0  0  0  0
   26.7313  -32.0496  283.5359 C   0  0  0  0  0  0  0  0  0  0  0  0
   25.4380  -30.8541  281.8867 N   0  0  0  0  0  0  0  0  0  0  0  0
   27.9194  -31.8948  284.3425 O   0  0  0  0  0  0  0  0  0  0  0  0
   28.0453  -30.9570  284.5559 H   0  0  0  0  0  0  0  0  0  0  0  0
   27.6195  -31.8724  281.1186 C   0  0  0  0  0  0  0  0  0  0  0  0
   28.3202  -30.8524  280.4044 O   0  0  0  0  0  0  0  0  0  0  0  0
   27.6837  -30.2188  280.0379 H   0  0  0  0  0  0  0  0  0  0  0  0
   23.7310  -29.8577  283.4072 C   0  0  0  0  0  0  0  0  0  0  0  0
   23.0742  -30.0233  284.6533 O   0  0  0  0  0  0  0  0  0  0  0  0
   23.7342  -30.1582  285.3513 H   0  0  0  0  0  0  0  0  0  0  0  0
   25.0717  -31.7907  280.8141 C   0  0  0  0  0  0  0  0  0  0  0  0
   24.8799  -31.1432  279.4234 C   0  0  0  0  0  0  0  0  0  0  0  0
   26.2168  -32.7617  277.6060 O   0  0  0  0  0  0  0  0  0  0  0  0
   24.1998  -33.6898  278.7718 O   0  0  0  0  0  0  0  0  0  0  0  0
   23.8254  -31.9787  276.9653 O   0  0  0  0  0  0  0  0  0  0  0  0
   24.7621  -32.4581  278.1554 P   0  0  0  0  0  0  0  0  0  0  0  0
   26.5845  -31.9593  277.2038 H   0  0  0  0  0  0  0  0  0  0  0  0
   23.3091  -33.5052  279.1086 H   0  0  0  0  0  0  0  0  0  0  0  0
   24.7713  -32.5804  284.8997 O   0  0  0  0  0  0  0  0  0  0  0  0
   26.4443  -33.9258  286.4262 O   0  0  0  0  0  0  0  0  0  0  0  0
   22.4085  -33.0497  286.5934 C   0  0  0  0  0  0  0  0  0  0  0  0
   24.6930  -32.2964  286.2734 C   0  0  0  0  0  0  0  0  0  0  0  0
   25.2400  -33.5144  287.0466 C   0  0  0  0  0  0  0  0  0  0  0  0
   24.2342  -34.6882  287.0570 C   0  0  0  0  0  0  0  0  0  0  0  0
   22.8563  -34.1923  287.5312 C   0  0  0  0  0  0  0  0  0  0  0  0
   23.3439  -31.9631  286.6349 O   0  0  0  0  0  0  0  0  0  0  0  0
   24.6768  -35.7214  287.9226 O   0  0  0  0  0  0  0  0  0  0  0  0
   21.9260  -35.2716  287.5262 O   0  0  0  0  0  0  0  0  0  0  0  0
   26.8057  -34.6924  286.8981 H   0  0  0  0  0  0  0  0  0  0  0  0
   24.7457  -35.3780  288.8271 H   0  0  0  0  0  0  0  0  0  0  0  0
   21.8544  -35.6326  286.6288 H   0  0  0  0  0  0  0  0  0  0  0  0
   21.0036  -32.5478  286.9680 C   0  0  0  0  0  0  0  0  0  0  0  0
   20.8448  -31.2333  286.4284 O   0  0  0  0  0  0  0  0  0  0  0  0
   20.9526  -31.2641  285.4649 H   0  0  0  0  0  0  0  0  0  0  0  0
 31 28  1  0  0  0
 35 36  1  0  0  0
 35 24  1  0  0  0
 28 24  1  0  0  0
 28 27  1  0  0  0
 30 27  1  0  0  0
 24 29  1  0  0  0
 27 26  1  0  0  0
 29 25  1  0  0  0
 26 25  1  0  0  0
 26 23  1  0  0  0
 25 22  1  0  0  0
 22  3  1  0  0  0
  6  4  1  0  0  0
  3  4  1  0  0  0
  3  2  1  0  0  0
  4  1  1  0  0  0
 12 11  1  0  0  0
 11  2  1  0  0  0
  2  5  1  0  0  0
  1  5  1  0  0  0
  1  8  1  0  0  0
 18 19  2  0  0  0
  5 14  1  0  0  0
  9  8  1  0  0  0
 15 14  1  0  0  0
 15 19  1  0  0  0
 19 17  1  0  0  0
 19 16  1  0  0  0
 16 20  1  0  0  0
 23 32  1  0  0  0
 36 37  1  0  0  0
  6  7  1  0  0  0
  9 10  1  0  0  0
 17 21  1  0  0  0
 12 13  1  0  0  0
 30 33  1  0  0  0
 31 34  1  0  0  0
M  END
> <minimizedAffinity>
-8.52047

$$$$
5VSJ_9HV_A_701


 37 38  0  0  0  0  0  0  0  0999 V2000
   25.1617  -32.3105  284.4246 C   0  0  0  0  0  0  0  0  0  0  0  0
   26.0484  -31.4729  282.3754 C   0  0  0  0  0  0  0  0  0  0  0  0
   25.0307  -32.5672  282.0297 C   0  0  0  0  0  0  0  0  0  0  0  0
   24.9041  -33.3717  283.3349 C   0  0  0  0  0  0  0  0  0  0  0  0
   26.0427  -31.3041  283.8349 N   0  0  0  0  0  0  0  0  0  0  0  0
   23.6152  -34.0004  283.5066 O   0  0  0  0  0  0  0  0  0  0  0  0
   22.9212  -33.3228  283.4976 H   0  0  0  0  0  0  0  0  0  0  0  0
   25.6714  -32.9045  285.7550 C   0  0  0  0  0  0  0  0  0  0  0  0
   25.0173  -32.2248  286.8280 O   0  0  0  0  0  0  0  0  0  0  0  0
   25.2171  -31.2769  286.7799 H   0  0  0  0  0  0  0  0  0  0  0  0
   25.6919  -30.1518  281.6513 C   0  0  0  0  0  0  0  0  0  0  0  0
   24.7663  -29.3846  282.4038 O   0  0  0  0  0  0  0  0  0  0  0  0
   25.1573  -29.1568  283.2618 H   0  0  0  0  0  0  0  0  0  0  0  0
   27.3868  -31.6229  284.3386 C   0  0  0  0  0  0  0  0  0  0  0  0
   28.5369  -31.3424  283.3443 C   0  0  0  0  0  0  0  0  0  0  0  0
   31.3093  -31.4929  283.3210 O   0  0  0  0  0  0  0  0  0  0  0  0
   30.2231  -29.7015  284.6994 O   0  0  0  0  0  0  0  0  0  0  0  0
   30.1066  -32.0670  285.5495 O   0  0  0  0  0  0  0  0  0  0  0  0
   30.0987  -31.1214  284.2731 P   0  0  0  0  0  0  0  0  0  0  0  0
   31.2293  -32.4186  283.0424 H   0  0  0  0  0  0  0  0  0  0  0  0
   29.4824  -29.4729  285.2824 H   0  0  0  0  0  0  0  0  0  0  0  0
   25.6019  -33.3578  280.9905 O   0  0  0  0  0  0  0  0  0  0  0  0
   24.1413  -35.3156  280.0040 O   0  0  0  0  0  0  0  0  0  0  0  0
   27.0010  -32.7558  278.4702 C   0  0  0  0  0  0  0  0  0  0  0  0
   24.9742  -33.0807  279.7644 C   0  0  0  0  0  0  0  0  0  0  0  0
   24.6946  -34.4223  279.0552 C   0  0  0  0  0  0  0  0  0  0  0  0
   25.9807  -35.0343  278.4545 C   0  0  0  0  0  0  0  0  0  0  0  0
   26.7027  -33.9874  277.5873 C   0  0  0  0  0  0  0  0  0  0  0  0
   25.7855  -32.1915  278.9815 O   0  0  0  0  0  0  0  0  0  0  0  0
   25.6730  -36.1647  277.6545 O   0  0  0  0  0  0  0  0  0  0  0  0
   27.8958  -34.5476  277.0460 O   0  0  0  0  0  0  0  0  0  0  0  0
   23.9576  -36.1672  279.5775 H   0  0  0  0  0  0  0  0  0  0  0  0
   25.0987  -35.8948  276.9208 H   0  0  0  0  0  0  0  0  0  0  0  0
   28.4764  -34.8322  277.7691 H   0  0  0  0  0  0  0  0  0  0  0  0
   27.7844  -31.6908  277.6841 C   0  0  0  0  0  0  0  0  0  0  0  0
   29.1712  -32.0357  277.7328 O   0  0  0  0  0  0  0  0  0  0  0  0
   29.2997  -32.9142  277.3422 H   0  0  0  0  0  0  0  0  0  0  0  0
 31 28  1  0  0  0
 35 36  1  0  0  0
 35 24  1  0  0  0
 28 24  1  0  0  0
 28 27  1  0  0  0
 30 27  1  0  0  0
 24 29  1  0  0  0
 27 26  1  0  0  0
 29 25  1  0  0  0
 26 25  1  0  0  0
 26 23  1  0  0  0
 25 22  1  0  0  0
 22  3  1  0  0  0
  6  4  1  0  0  0
  3  4  1  0  0  0
  3  2  1  0  0  0
  4  1  1  0  0  0
 12 11  1  0  0  0
 11  2  1  0  0  0
  2  5  1  0  0  0
  1  5  1  0  0  0
  1  8  1  0  0  0
 18 19  2  0  0  0
  5 14  1  0  0  0
  9  8  1  0  0  0
 15 14  1  0  0  0
 15 19  1  0  0  0
 19 17  1  0  0  0
 19 16  1  0  0  0
 16 20  1  0  0  0
 23 32  1  0  0  0
 36 37  1  0  0  0
  6  7  1  0  0  0
  9 10  1  0  0  0
 17 21  1  0  0  0
 12 13  1  0  0  0
 30 33  1  0  0  0
 31 34  1  0  0  0
M  END
> <minimizedAffinity>
-8.48151

$$$$
5VSJ_9HV_A_701


 37 38  0  0  0  0  0  0  0  0999 V2000
   24.5598  -30.0841  282.4027 C   0  0  0  0  0  0  0  0  0  0  0  0
   25.9571  -31.8900  283.0903 C   0  0  0  0  0  0  0  0  0  0  0  0
   25.8051  -31.9729  281.5662 C   0  0  0  0  0  0  0  0  0  0  0  0
   24.5415  -31.1431  281.2810 C   0  0  0  0  0  0  0  0  0  0  0  0
   25.2425  -30.6895  283.5447 N   0  0  0  0  0  0  0  0  0  0  0  0
   24.5346  -30.5263  279.9750 O   0  0  0  0  0  0  0  0  0  0  0  0
   25.3068  -29.9458  279.8874 H   0  0  0  0  0  0  0  0  0  0  0  0
   23.1660  -29.5047  282.7259 C   0  0  0  0  0  0  0  0  0  0  0  0
   22.2659  -29.8999  281.6891 O   0  0  0  0  0  0  0  0  0  0  0  0
   22.5855  -29.5627  280.8376 H   0  0  0  0  0  0  0  0  0  0  0  0
   27.4534  -31.8414  283.4846 C   0  0  0  0  0  0  0  0  0  0  0  0
   27.9499  -30.5131  283.4622 O   0  0  0  0  0  0  0  0  0  0  0  0
   27.4571  -29.9730  284.0997 H   0  0  0  0  0  0  0  0  0  0  0  0
   24.1701  -31.1122  284.4576 C   0  0  0  0  0  0  0  0  0  0  0  0
   24.0907  -32.6362  284.7052 C   0  0  0  0  0  0  0  0  0  0  0  0
   24.6300  -32.2245  287.3977 O   0  0  0  0  0  0  0  0  0  0  0  0
   22.2350  -32.3764  286.6701 O   0  0  0  0  0  0  0  0  0  0  0  0
   23.5784  -34.5031  286.7311 O   0  0  0  0  0  0  0  0  0  0  0  0
   23.5917  -32.9416  286.4397 P   0  0  0  0  0  0  0  0  0  0  0  0
   25.5151  -32.5923  287.2484 H   0  0  0  0  0  0  0  0  0  0  0  0
   21.5983  -32.8147  286.0841 H   0  0  0  0  0  0  0  0  0  0  0  0
   25.6048  -33.3455  281.2389 O   0  0  0  0  0  0  0  0  0  0  0  0
   23.5325  -34.9421  281.5487 O   0  0  0  0  0  0  0  0  0  0  0  0
   26.4095  -34.4363  278.6247 C   0  0  0  0  0  0  0  0  0  0  0  0
   24.7640  -33.4635  280.1195 C   0  0  0  0  0  0  0  0  0  0  0  0
   24.0128  -34.8072  280.2237 C   0  0  0  0  0  0  0  0  0  0  0  0
   24.9265  -36.0053  279.8784 C   0  0  0  0  0  0  0  0  0  0  0  0
   25.6212  -35.7609  278.5267 C   0  0  0  0  0  0  0  0  0  0  0  0
   25.5282  -33.3412  278.9100 O   0  0  0  0  0  0  0  0  0  0  0  0
   24.1738  -37.2052  279.8011 O   0  0  0  0  0  0  0  0  0  0  0  0
   26.4747  -36.8588  278.2162 O   0  0  0  0  0  0  0  0  0  0  0  0
   23.0559  -35.7824  281.6359 H   0  0  0  0  0  0  0  0  0  0  0  0
   23.5079  -37.1246  279.1004 H   0  0  0  0  0  0  0  0  0  0  0  0
   27.1404  -36.9585  278.9146 H   0  0  0  0  0  0  0  0  0  0  0  0
   27.1868  -34.1603  277.3263 C   0  0  0  0  0  0  0  0  0  0  0  0
   26.8725  -32.8335  276.8959 O   0  0  0  0  0  0  0  0  0  0  0  0
   27.1237  -32.2013  277.5873 H   0  0  0  0  0  0  0  0  0  0  0  0
 31 28  1  0  0  0
 35 36  1  0  0  0
 35 24  1  0  0  0
 28 24  1  0  0  0
 28 27  1  0  0  0
 30 27  1  0  0  0
 24 29  1  0  0  0
 27 26  1  0  0  0
 29 25  1  0  0  0
 26 25  1  0  0  0
 26 23  1  0  0  0
 25 22  1  0  0  0
 22  3  1  0  0  0
  6  4  1  0  0  0
  3  4  1  0  0  0
  3  2  1  0  0  0
  4  1  1  0  0  0
 12 11  1  0  0  0
 11  2  1  0  0  0
  2  5  1  0  0  0
  1  5  1  0  0  0
  1  8  1  0  0  0
 18 19  2  0  0  0
  5 14  1  0  0  0
  9  8  1  0  0  0
 15 14  1  0  0  0
 15 19  1  0  0  0
 19 17  1  0  0  0
 19 16  1  0  0  0
 16 20  1  0  0  0
 23 32  1  0  0  0
 36 37  1  0  0  0
  6  7  1  0  0  0
  9 10  1  0  0  0
 17 21  1  0  0  0
 12 13  1  0  0  0
 30 33  1  0  0  0
 31 34  1  0  0  0
M  END
> <minimizedAffinity>
-8.41721

$$$$
5VSJ_9HV_A_701


 37 38  0  0  0  0  0  0  0  0999 V2000
   26.4299  -32.6199  277.7553 C   0  0  0  0  0  0  0  0  0  0  0  0
   25.3697  -32.1251  279.8333 C   0  0  0  0  0  0  0  0  0  0  0  0
   26.8200  -31.6335  279.9217 C   0  0  0  0  0  0  0  0  0  0  0  0
   27.5381  -32.4167  278.8092 C   0  0  0  0  0  0  0  0  0  0  0  0
   25.1597  -32.6522  278.4781 N   0  0  0  0  0  0  0  0  0  0  0  0
   28.6745  -31.7219  278.2507 O   0  0  0  0  0  0  0  0  0  0  0  0
   28.3859  -30.8704  277.8866 H   0  0  0  0  0  0  0  0  0  0  0  0
   26.6711  -33.8344  276.8337 C   0  0  0  0  0  0  0  0  0  0  0  0
   27.8906  -34.4632  277.2324 O   0  0  0  0  0  0  0  0  0  0  0  0
   28.6208  -33.8290  277.1576 H   0  0  0  0  0  0  0  0  0  0  0  0
   24.3858  -30.9730  280.1515 C   0  0  0  0  0  0  0  0  0  0  0  0
   23.5276  -31.3104  281.2291 O   0  0  0  0  0  0  0  0  0  0  0  0
   24.0573  -31.4766  282.0245 H   0  0  0  0  0  0  0  0  0  0  0  0
   24.8132  -34.0769  278.5889 C   0  0  0  0  0  0  0  0  0  0  0  0
   24.7182  -34.6119  280.0362 C   0  0  0  0  0  0  0  0  0  0  0  0
   22.9611  -36.7194  279.6110 O   0  0  0  0  0  0  0  0  0  0  0  0
   25.3664  -37.0235  278.9702 O   0  0  0  0  0  0  0  0  0  0  0  0
   24.7942  -37.0471  281.4205 O   0  0  0  0  0  0  0  0  0  0  0  0
   24.4696  -36.4250  279.9953 P   0  0  0  0  0  0  0  0  0  0  0  0
   22.3753  -36.3296  280.2787 H   0  0  0  0  0  0  0  0  0  0  0  0
   26.2904  -36.8439  279.2045 H   0  0  0  0  0  0  0  0  0  0  0  0
   27.3095  -32.0009  281.2088 O   0  0  0  0  0  0  0  0  0  0  0  0
   29.4685  -30.8108  282.1373 O   0  0  0  0  0  0  0  0  0  0  0  0
   26.0252  -32.3400  283.8369 C   0  0  0  0  0  0  0  0  0  0  0  0
   27.0767  -30.9688  282.1332 C   0  0  0  0  0  0  0  0  0  0  0  0
   28.3442  -30.8047  282.9977 C   0  0  0  0  0  0  0  0  0  0  0  0
   28.4811  -31.9391  284.0388 C   0  0  0  0  0  0  0  0  0  0  0  0
   27.1724  -32.0773  284.8372 C   0  0  0  0  0  0  0  0  0  0  0  0
   25.9023  -31.2532  282.9089 O   0  0  0  0  0  0  0  0  0  0  0  0
   29.5450  -31.6702  284.9379 O   0  0  0  0  0  0  0  0  0  0  0  0
   27.2942  -33.1330  285.7864 O   0  0  0  0  0  0  0  0  0  0  0  0
   30.2778  -30.7085  282.6622 H   0  0  0  0  0  0  0  0  0  0  0  0
   29.3640  -30.8456  285.4155 H   0  0  0  0  0  0  0  0  0  0  0  0
   27.4860  -33.9636  285.3235 H   0  0  0  0  0  0  0  0  0  0  0  0
   24.6915  -32.5561  284.5722 C   0  0  0  0  0  0  0  0  0  0  0  0
   24.6578  -31.6731  285.6963 O   0  0  0  0  0  0  0  0  0  0  0  0
   24.7360  -30.7562  285.3897 H   0  0  0  0  0  0  0  0  0  0  0  0
 31 28  1  0  0  0
 35 36  1  0  0  0
 35 24  1  0  0  0
 28 24  1  0  0  0
 28 27  1  0  0  0
 30 27  1  0  0  0
 24 29  1  0  0  0
 27 26  1  0  0  0
 29 25  1  0  0  0
 26 25  1  0  0  0
 26 23  1  0  0  0
 25 22  1  0  0  0
 22  3  1  0  0  0
  6  4  1  0  0  0
  3  4  1  0  0  0
  3  2  1  0  0  0
  4  1  1  0  0  0
 12 11  1  0  0  0
 11  2  1  0  0  0
  2  5  1  0  0  0
  1  5  1  0  0  0
  1  8  1  0  0  0
 18 19  2  0  0  0
  5 14  1  0  0  0
  9  8  1  0  0  0
 15 14  1  0  0  0
 15 19  1  0  0  0
 19 17  1  0  0  0
 19 16  1  0  0  0
 16 20  1  0  0  0
 23 32  1  0  0  0
 36 37  1  0  0  0
  6  7  1  0  0  0
  9 10  1  0  0  0
 17 21  1  0  0  0
 12 13  1  0  0  0
 30 33  1  0  0  0
 31 34  1  0  0  0
M  END
> <minimizedAffinity>
-8.14035

$$$$
5VSJ_9HV_A_701


 37 38  0  0  0  0  0  0  0  0999 V2000
   24.5660  -30.6173  284.2947 C   0  0  0  0  0  0  0  0  0  0  0  0
   26.4239  -31.7159  283.2807 C   0  0  0  0  0  0  0  0  0  0  0  0
   26.0373  -30.5321  282.3851 C   0  0  0  0  0  0  0  0  0  0  0  0
   24.5920  -30.2146  282.8057 C   0  0  0  0  0  0  0  0  0  0  0  0
   25.5494  -31.6859  284.4609 N   0  0  0  0  0  0  0  0  0  0  0  0
   24.2271  -28.8283  282.6289 O   0  0  0  0  0  0  0  0  0  0  0  0
   24.8256  -28.2679  283.1472 H   0  0  0  0  0  0  0  0  0  0  0  0
   23.1543  -30.9621  284.8152 C   0  0  0  0  0  0  0  0  0  0  0  0
   22.3618  -29.7739  284.7794 O   0  0  0  0  0  0  0  0  0  0  0  0
   22.7729  -29.0941  285.3358 H   0  0  0  0  0  0  0  0  0  0  0  0
   27.9171  -31.6294  283.6801 C   0  0  0  0  0  0  0  0  0  0  0  0
   28.4312  -30.3236  283.4745 O   0  0  0  0  0  0  0  0  0  0  0  0
   27.9399  -29.6925  284.0235 H   0  0  0  0  0  0  0  0  0  0  0  0
   24.7681  -32.9313  284.4844 C   0  0  0  0  0  0  0  0  0  0  0  0
   25.2462  -33.9790  285.5157 C   0  0  0  0  0  0  0  0  0  0  0  0
   25.1751  -34.5446  288.2333 O   0  0  0  0  0  0  0  0  0  0  0  0
   24.7922  -32.1783  287.4965 O   0  0  0  0  0  0  0  0  0  0  0  0
   22.9438  -33.8407  287.1071 O   0  0  0  0  0  0  0  0  0  0  0  0
   24.5131  -33.5977  287.1491 P   0  0  0  0  0  0  0  0  0  0  0  0
   24.9938  -35.4704  288.0078 H   0  0  0  0  0  0  0  0  0  0  0  0
   24.3873  -31.5976  286.8334 H   0  0  0  0  0  0  0  0  0  0  0  0
   26.0927  -30.9907  281.0369 O   0  0  0  0  0  0  0  0  0  0  0  0
   28.5878  -30.5612  280.3093 O   0  0  0  0  0  0  0  0  0  0  0  0
   25.6410  -33.2293  279.1777 C   0  0  0  0  0  0  0  0  0  0  0  0
   26.8979  -32.1383  280.9436 C   0  0  0  0  0  0  0  0  0  0  0  0
   28.0594  -31.8315  279.9754 C   0  0  0  0  0  0  0  0  0  0  0  0
   27.5939  -31.8289  278.5013 C   0  0  0  0  0  0  0  0  0  0  0  0
   26.8262  -33.1268  278.1927 C   0  0  0  0  0  0  0  0  0  0  0  0
   26.1091  -33.2657  280.5330 O   0  0  0  0  0  0  0  0  0  0  0  0
   28.7043  -31.7288  277.6240 O   0  0  0  0  0  0  0  0  0  0  0  0
   26.3846  -33.1171  276.8380 O   0  0  0  0  0  0  0  0  0  0  0  0
   29.3211  -30.3486  279.7109 H   0  0  0  0  0  0  0  0  0  0  0  0
   29.2878  -32.4929  277.7525 H   0  0  0  0  0  0  0  0  0  0  0  0
   25.8076  -32.3512  276.6916 H   0  0  0  0  0  0  0  0  0  0  0  0
   24.7860  -34.4738  278.8838 C   0  0  0  0  0  0  0  0  0  0  0  0
   25.6553  -35.5066  278.4127 O   0  0  0  0  0  0  0  0  0  0  0  0
   26.3230  -35.7008  279.0890 H   0  0  0  0  0  0  0  0  0  0  0  0
 31 28  1  0  0  0
 35 36  1  0  0  0
 35 24  1  0  0  0
 28 24  1  0  0  0
 28 27  1  0  0  0
 30 27  1  0  0  0
 24 29  1  0  0  0
 27 26  1  0  0  0
 29 25  1  0  0  0
 26 25  1  0  0  0
 26 23  1  0  0  0
 25 22  1  0  0  0
 22  3  1  0  0  0
  6  4  1  0  0  0
  3  4  1  0  0  0
  3  2  1  0  0  0
  4  1  1  0  0  0
 12 11  1  0  0  0
 11  2  1  0  0  0
  2  5  1  0  0  0
  1  5  1  0  0  0
  1  8  1  0  0  0
 18 19  2  0  0  0
  5 14  1  0  0  0
  9  8  1  0  0  0
 15 14  1  0  0  0
 15 19  1  0  0  0
 19 17  1  0  0  0
 19 16  1  0  0  0
 16 20  1  0  0  0
 23 32  1  0  0  0
 36 37  1  0  0  0
  6  7  1  0  0  0
  9 10  1  0  0  0
 17 21  1  0  0  0
 12 13  1  0  0  0
 30 33  1  0  0  0
 31 34  1  0  0  0
M  END
> <minimizedAffinity>
-7.97568

$$$$
5VSJ_9HV_A_701


 37 38  0  0  0  0  0  0  0  0999 V2000
   25.4447  -33.0881  281.1748 C   0  0  0  0  0  0  0  0  0  0  0  0
   26.3103  -31.8892  283.0456 C   0  0  0  0  0  0  0  0  0  0  0  0
   25.6113  -33.1455  283.5805 C   0  0  0  0  0  0  0  0  0  0  0  0
   24.6809  -33.5623  282.4284 C   0  0  0  0  0  0  0  0  0  0  0  0
   26.2444  -31.9330  281.5786 N   0  0  0  0  0  0  0  0  0  0  0  0
   24.4180  -34.9817  282.3790 O   0  0  0  0  0  0  0  0  0  0  0  0
   25.2551  -35.4624  282.2841 H   0  0  0  0  0  0  0  0  0  0  0  0
   24.5323  -32.8380  279.9551 C   0  0  0  0  0  0  0  0  0  0  0  0
   24.1305  -34.1044  279.4299 O   0  0  0  0  0  0  0  0  0  0  0  0
   24.9160  -34.6103  279.1691 H   0  0  0  0  0  0  0  0  0  0  0  0
   27.7744  -31.8287  283.5451 C   0  0  0  0  0  0  0  0  0  0  0  0
   27.8920  -32.3429  284.8616 O   0  0  0  0  0  0  0  0  0  0  0  0
   27.6129  -33.2718  284.8721 H   0  0  0  0  0  0  0  0  0  0  0  0
   25.4888  -30.7587  281.1182 C   0  0  0  0  0  0  0  0  0  0  0  0
   25.2677  -29.6671  282.1904 C   0  0  0  0  0  0  0  0  0  0  0  0
   22.6439  -30.1854  281.4440 O   0  0  0  0  0  0  0  0  0  0  0  0
   23.2816  -30.4869  283.8505 O   0  0  0  0  0  0  0  0  0  0  0  0
   23.0589  -28.1355  282.9828 O   0  0  0  0  0  0  0  0  0  0  0  0
   23.4978  -29.6268  282.6560 P   0  0  0  0  0  0  0  0  0  0  0  0
   22.7840  -29.6253  280.6645 H   0  0  0  0  0  0  0  0  0  0  0  0
   23.8040  -30.1458  284.5933 H   0  0  0  0  0  0  0  0  0  0  0  0
   24.8648  -32.7528  284.7293 O   0  0  0  0  0  0  0  0  0  0  0  0
   22.6344  -31.9581  285.8840 O   0  0  0  0  0  0  0  0  0  0  0  0
   25.4799  -34.8382  286.7154 C   0  0  0  0  0  0  0  0  0  0  0  0
   23.9898  -33.7808  285.1185 C   0  0  0  0  0  0  0  0  0  0  0  0
   23.0953  -33.2442  286.2554 C   0  0  0  0  0  0  0  0  0  0  0  0
   23.8604  -33.1543  287.5956 C   0  0  0  0  0  0  0  0  0  0  0  0
   24.5460  -34.4989  287.8978 C   0  0  0  0  0  0  0  0  0  0  0  0
   24.7340  -34.9496  285.4953 O   0  0  0  0  0  0  0  0  0  0  0  0
   22.9763  -32.8368  288.6586 O   0  0  0  0  0  0  0  0  0  0  0  0
   25.2633  -34.4107  289.1258 O   0  0  0  0  0  0  0  0  0  0  0  0
   22.0688  -31.6018  286.5869 H   0  0  0  0  0  0  0  0  0  0  0  0
   22.3072  -33.5342  288.7419 H   0  0  0  0  0  0  0  0  0  0  0  0
   25.9301  -33.7092  289.0611 H   0  0  0  0  0  0  0  0  0  0  0  0
   26.2523  -36.1419  286.9796 C   0  0  0  0  0  0  0  0  0  0  0  0
   25.4108  -37.0073  287.7459 O   0  0  0  0  0  0  0  0  0  0  0  0
   24.5952  -37.1857  287.2520 H   0  0  0  0  0  0  0  0  0  0  0  0
 31 28  1  0  0  0
 35 36  1  0  0  0
 35 24  1  0  0  0
 28 24  1  0  0  0
 28 27  1  0  0  0
 30 27  1  0  0  0
 24 29  1  0  0  0
 27 26  1  0  0  0
 29 25  1  0  0  0
 26 25  1  0  0  0
 26 23  1  0  0  0
 25 22  1  0  0  0
 22  3  1  0  0  0
  6  4  1  0  0  0
  3  4  1  0  0  0
  3  2  1  0  0  0
  4  1  1  0  0  0
 12 11  1  0  0  0
 11  2  1  0  0  0
  2  5  1  0  0  0
  1  5  1  0  0  0
  1  8  1  0  0  0
 18 19  2  0  0  0
  5 14  1  0  0  0
  9  8  1  0  0  0
 15 14  1  0  0  0
 15 19  1  0  0  0
 19 17  1  0  0  0
 19 16  1  0  0  0
 16 20  1  0  0  0
 23 32  1  0  0  0
 36 37  1  0  0  0
  6  7  1  0  0  0
  9 10  1  0  0  0
 17 21  1  0  0  0
 12 13  1  0  0  0
 30 33  1  0  0  0
 31 34  1  0  0  0
M  END
> <minimizedAffinity>
-7.96756

$$$$
5VSJ_9HV_A_701


 37 38  0  0  0  0  0  0  0  0999 V2000
   25.1096  -33.7055  281.3570 C   0  0  0  0  0  0  0  0  0  0  0  0
   25.2618  -32.7271  283.5265 C   0  0  0  0  0  0  0  0  0  0  0  0
   24.7774  -34.1721  283.7002 C   0  0  0  0  0  0  0  0  0  0  0  0
   24.2316  -34.5423  282.3103 C   0  0  0  0  0  0  0  0  0  0  0  0
   25.5166  -32.5115  282.0957 N   0  0  0  0  0  0  0  0  0  0  0  0
   24.3217  -35.9517  282.0078 O   0  0  0  0  0  0  0  0  0  0  0  0
   25.2483  -36.2343  282.0567 H   0  0  0  0  0  0  0  0  0  0  0  0
   24.4402  -33.4172  279.9964 C   0  0  0  0  0  0  0  0  0  0  0  0
   24.0568  -34.6639  279.4134 O   0  0  0  0  0  0  0  0  0  0  0  0
   24.8422  -35.2207  279.2950 H   0  0  0  0  0  0  0  0  0  0  0  0
   26.5340  -32.4758  284.3722 C   0  0  0  0  0  0  0  0  0  0  0  0
   27.4972  -31.7300  283.6459 O   0  0  0  0  0  0  0  0  0  0  0  0
   27.1246  -30.8670  283.4065 H   0  0  0  0  0  0  0  0  0  0  0  0
   24.6226  -31.4424  281.6268 C   0  0  0  0  0  0  0  0  0  0  0  0
   24.8912  -30.0520  282.2471 C   0  0  0  0  0  0  0  0  0  0  0  0
   23.0919  -30.0865  284.3616 O   0  0  0  0  0  0  0  0  0  0  0  0
   23.4610  -27.9255  283.1440 O   0  0  0  0  0  0  0  0  0  0  0  0
   22.1225  -29.7115  281.9821 O   0  0  0  0  0  0  0  0  0  0  0  0
   23.3366  -29.3961  282.9567 P   0  0  0  0  0  0  0  0  0  0  0  0
   23.0106  -31.0455  284.2408 H   0  0  0  0  0  0  0  0  0  0  0  0
   23.6109  -27.5016  282.2845 H   0  0  0  0  0  0  0  0  0  0  0  0
   23.7366  -34.1512  284.6737 O   0  0  0  0  0  0  0  0  0  0  0  0
   25.4376  -35.1304  286.4307 O   0  0  0  0  0  0  0  0  0  0  0  0
   21.8439  -33.1030  286.6712 C   0  0  0  0  0  0  0  0  0  0  0  0
   24.0730  -33.2885  285.7303 C   0  0  0  0  0  0  0  0  0  0  0  0
   24.5421  -34.1497  286.9215 C   0  0  0  0  0  0  0  0  0  0  0  0
   23.3568  -34.8396  287.6346 C   0  0  0  0  0  0  0  0  0  0  0  0
   22.2768  -33.7988  287.9804 C   0  0  0  0  0  0  0  0  0  0  0  0
   22.9583  -32.4433  286.0547 O   0  0  0  0  0  0  0  0  0  0  0  0
   23.7883  -35.4724  288.8287 O   0  0  0  0  0  0  0  0  0  0  0  0
   21.1780  -34.4378  288.6243 O   0  0  0  0  0  0  0  0  0  0  0  0
   25.7452  -35.6840  287.1655 H   0  0  0  0  0  0  0  0  0  0  0  0
   24.1553  -34.8078  289.4324 H   0  0  0  0  0  0  0  0  0  0  0  0
   20.8067  -35.1135  288.0357 H   0  0  0  0  0  0  0  0  0  0  0  0
   20.7139  -32.0923  286.9318 C   0  0  0  0  0  0  0  0  0  0  0  0
   21.0181  -30.8937  286.2140 O   0  0  0  0  0  0  0  0  0  0  0  0
   21.0888  -31.0929  285.2673 H   0  0  0  0  0  0  0  0  0  0  0  0
 31 28  1  0  0  0
 35 36  1  0  0  0
 35 24  1  0  0  0
 28 24  1  0  0  0
 28 27  1  0  0  0
 30 27  1  0  0  0
 24 29  1  0  0  0
 27 26  1  0  0  0
 29 25  1  0  0  0
 26 25  1  0  0  0
 26 23  1  0  0  0
 25 22  1  0  0  0
 22  3  1  0  0  0
  6  4  1  0  0  0
  3  4  1  0  0  0
  3  2  1  0  0  0
  4  1  1  0  0  0
 12 11  1  0  0  0
 11  2  1  0  0  0
  2  5  1  0  0  0
  1  5  1  0  0  0
  1  8  1  0  0  0
 18 19  2  0  0  0
  5 14  1  0  0  0
  9  8  1  0  0  0
 15 14  1  0  0  0
 15 19  1  0  0  0
 19 17  1  0  0  0
 19 16  1  0  0  0
 16 20  1  0  0  0
 23 32  1  0  0  0
 36 37  1  0  0  0
  6  7  1  0  0  0
  9 10  1  0  0  0
 17 21  1  0  0  0
 12 13  1  0  0  0
 30 33  1  0  0  0
 31 34  1  0  0  0
M  END
> <minimizedAffinity>
-7.66544

$$$$
5VSJ_9HV_A_701


 37 38  0  0  0  0  0  0  0  0999 V2000
   23.9997  -33.6648  282.5707 C   0  0  0  0  0  0  0  0  0  0  0  0
   24.7412  -31.4143  282.8395 C   0  0  0  0  0  0  0  0  0  0  0  0
   24.5832  -31.6763  281.3364 C   0  0  0  0  0  0  0  0  0  0  0  0
   24.6120  -33.2107  281.2295 C   0  0  0  0  0  0  0  0  0  0  0  0
   24.3095  -32.6253  283.5506 N   0  0  0  0  0  0  0  0  0  0  0  0
   23.8646  -33.7286  280.1074 O   0  0  0  0  0  0  0  0  0  0  0  0
   22.9395  -33.4451  280.1766 H   0  0  0  0  0  0  0  0  0  0  0  0
   24.4258  -35.0872  282.9924 C   0  0  0  0  0  0  0  0  0  0  0  0
   24.2845  -35.9500  281.8624 O   0  0  0  0  0  0  0  0  0  0  0  0
   23.3611  -35.9454  281.5656 H   0  0  0  0  0  0  0  0  0  0  0  0
   23.9090  -30.1805  283.2658 C   0  0  0  0  0  0  0  0  0  0  0  0
   24.2919  -29.0241  282.5394 O   0  0  0  0  0  0  0  0  0  0  0  0
   24.1402  -29.1719  281.5928 H   0  0  0  0  0  0  0  0  0  0  0  0
   25.4552  -33.1417  284.3140 C   0  0  0  0  0  0  0  0  0  0  0  0
   25.4156  -32.8394  285.8296 C   0  0  0  0  0  0  0  0  0  0  0  0
   22.8051  -31.8937  285.7982 O   0  0  0  0  0  0  0  0  0  0  0  0
   23.1770  -34.3629  286.0293 O   0  0  0  0  0  0  0  0  0  0  0  0
   23.6738  -32.9111  288.0236 O   0  0  0  0  0  0  0  0  0  0  0  0
   23.7006  -33.0323  286.4399 P   0  0  0  0  0  0  0  0  0  0  0  0
   23.1456  -31.0255  286.0652 H   0  0  0  0  0  0  0  0  0  0  0  0
   23.7245  -35.0609  286.4216 H   0  0  0  0  0  0  0  0  0  0  0  0
   25.7109  -31.0933  280.6884 O   0  0  0  0  0  0  0  0  0  0  0  0
   28.0638  -30.0754  281.2939 O   0  0  0  0  0  0  0  0  0  0  0  0
   26.6413  -32.5482  278.3032 C   0  0  0  0  0  0  0  0  0  0  0  0
   26.7831  -32.0008  280.6630 C   0  0  0  0  0  0  0  0  0  0  0  0
   28.0827  -31.2009  280.4353 C   0  0  0  0  0  0  0  0  0  0  0  0
   28.2203  -30.7324  278.9685 C   0  0  0  0  0  0  0  0  0  0  0  0
   28.0262  -31.9270  278.0174 C   0  0  0  0  0  0  0  0  0  0  0  0
   26.5600  -33.0044  279.6606 O   0  0  0  0  0  0  0  0  0  0  0  0
   29.4995  -30.1632  278.7408 O   0  0  0  0  0  0  0  0  0  0  0  0
   28.1383  -31.4918  276.6653 O   0  0  0  0  0  0  0  0  0  0  0  0
   28.8741  -29.5576  281.1662 H   0  0  0  0  0  0  0  0  0  0  0  0
   30.1843  -30.8295  278.9079 H   0  0  0  0  0  0  0  0  0  0  0  0
   27.4654  -30.8164  276.4862 H   0  0  0  0  0  0  0  0  0  0  0  0
   26.3495  -33.7114  277.3399 C   0  0  0  0  0  0  0  0  0  0  0  0
   27.6004  -34.2345  276.8861 O   0  0  0  0  0  0  0  0  0  0  0  0
   28.1180  -34.5408  277.6472 H   0  0  0  0  0  0  0  0  0  0  0  0
 31 28  1  0  0  0
 35 36  1  0  0  0
 35 24  1  0  0  0
 28 24  1  0  0  0
 28 27  1  0  0  0
 30 27  1  0  0  0
 24 29  1  0  0  0
 27 26  1  0  0  0
 29 25  1  0  0  0
 26 25  1  0  0  0
 26 23  1  0  0  0
 25 22  1  0  0  0
 22  3  1  0  0  0
  6  4  1  0  0  0
  3  4  1  0  0  0
  3  2  1  0  0  0
  4  1  1  0  0  0
 12 11  1  0  0  0
 11  2  1  0  0  0
  2  5  1  0  0  0
  1  5  1  0  0  0
  1  8  1  0  0  0
 18 19  2  0  0  0
  5 14  1  0  0  0
  9  8  1  0  0  0
 15 14  1  0  0  0
 15 19  1  0  0  0
 19 17  1  0  0  0
 19 16  1  0  0  0
 16 20  1  0  0  0
 23 32  1  0  0  0
 36 37  1  0  0  0
  6  7  1  0  0  0
  9 10  1  0  0  0
 17 21  1  0  0  0
 12 13  1  0  0  0
 30 33  1  0  0  0
 31 34  1  0  0  0
M  END
> <minimizedAffinity>
-7.54033

$$$$
