5VYY_9QY_A_301


 29 31  0  0  0  0  0  0  0  0999 V2000
   -5.8040  -33.5789    1.6252 C   0  0  0  0  0  0  0  0  0  0  0  0
   -4.7930  -33.1585    0.7712 C   0  0  0  0  0  0  0  0  0  0  0  0
   -5.5128  -33.8180    2.9521 C   0  0  0  0  0  0  0  0  0  0  0  0
   -3.5061  -33.0023    1.2875 C   0  0  0  0  0  0  0  0  0  0  0  0
   -3.2110  -33.2490    2.6438 C   0  0  0  0  0  0  0  0  0  0  0  0
   -4.2401  -33.6388    3.4962 C   0  0  0  0  0  0  0  0  0  0  0  0
   -4.9841  -32.9620   -0.5793 O   0  0  0  0  0  0  0  0  0  0  0  0
   -6.5214  -34.1910    3.7789 O   0  0  0  0  0  0  0  0  0  0  0  0
   -2.3264  -32.4152    0.1498 Cl  0  0  0  0  0  0  0  0  0  0  0  0
   -5.8386  -33.0608   -0.9508 H   0  0  0  0  0  0  0  0  0  0  0  0
   -7.3847  -34.3176    3.4374 H   0  0  0  0  0  0  0  0  0  0  0  0
   -4.0071  -33.9042    4.8589 C   0  0  0  0  0  0  0  0  0  0  0  0
   -3.3278  -34.8656    5.2574 O   0  0  0  0  0  0  0  0  0  0  0  0
   -5.0568  -33.6315    6.8736 C   0  0  0  0  0  0  0  0  0  0  0  0
   -4.5440  -32.9810    5.6938 O   0  0  0  0  0  0  0  0  0  0  0  0
   -1.8649  -33.0753    3.1593 C   0  0  0  0  0  0  0  0  0  0  0  0
   -1.0473  -34.1891    2.5073 C   0  0  0  0  0  0  0  0  0  0  0  0
    0.7532  -36.2568    4.9057 C   0  0  0  0  0  0  0  0  0  0  0  0
    1.7535  -35.4714    4.4814 C   0  0  0  0  0  0  0  0  0  0  0  0
   -0.0528  -34.8776    3.4665 C   0  0  0  0  0  0  0  0  0  0  0  0
   -0.3714  -35.8953    4.2706 N   0  0  0  0  0  0  0  0  0  0  0  0
    1.2609  -34.6251    3.5791 N   0  0  0  0  0  0  0  0  0  0  0  0
    2.0710  -33.6103    2.9173 C   0  0  0  0  0  0  0  0  0  0  0  0
    1.5672  -29.6326    4.2936 C   0  0  0  0  0  0  0  0  0  0  0  0
    1.8547  -30.6248    5.2225 C   0  0  0  0  0  0  0  0  0  0  0  0
    1.4362  -29.9735    2.9451 C   0  0  0  0  0  0  0  0  0  0  0  0
    2.0385  -31.9585    4.8066 C   0  0  0  0  0  0  0  0  0  0  0  0
    1.6005  -31.2920    2.5333 C   0  0  0  0  0  0  0  0  0  0  0  0
    1.8947  -32.3028    3.4518 C   0  0  0  0  0  0  0  0  0  0  0  0
  7  2  1  0  0  0
  9  4  1  0  0  0
  2  1  2  0  0  0
  2  4  1  0  0  0
  1  3  1  0  0  0
  4  5  2  0  0  0
 28 26  2  0  0  0
 28 29  1  0  0  0
 26 24  1  0  0  0
 23 29  1  0  0  0
 23 22  1  0  0  0
  3  8  1  0  0  0
  3  6  2  0  0  0
  5  6  1  0  0  0
  5 16  1  0  0  0
 29 27  2  0  0  0
 17 16  1  0  0  0
 17 20  1  0  0  0
 22 20  1  0  0  0
 22 19  1  0  0  0
  6 12  1  0  0  0
 24 25  2  0  0  0
 20 21  2  0  0  0
 19 18  2  0  0  0
 27 25  1  0  0  0
 21 18  1  0  0  0
 12 15  1  0  0  0
 12 13  2  0  0  0
 15 14  1  0  0  0
  7 10  1  0  0  0
  8 11  1  0  0  0
M  END
> <minimizedAffinity>
-9.46811

$$$$
5VYY_9QY_A_301


 29 31  0  0  0  0  0  0  0  0999 V2000
   -4.6906  -34.7386    7.6202 C   0  0  0  0  0  0  0  0  0  0  0  0
   -3.6417  -35.5993    7.9154 C   0  0  0  0  0  0  0  0  0  0  0  0
   -4.7652  -34.1681    6.3666 C   0  0  0  0  0  0  0  0  0  0  0  0
   -2.6870  -35.8498    6.9290 C   0  0  0  0  0  0  0  0  0  0  0  0
   -2.7649  -35.2641    5.6490 C   0  0  0  0  0  0  0  0  0  0  0  0
   -3.8389  -34.4286    5.3556 C   0  0  0  0  0  0  0  0  0  0  0  0
   -3.4567  -36.1580    9.1614 O   0  0  0  0  0  0  0  0  0  0  0  0
   -5.8179  -33.3603    6.0848 O   0  0  0  0  0  0  0  0  0  0  0  0
   -1.4487  -36.9874    7.3798 Cl  0  0  0  0  0  0  0  0  0  0  0  0
   -4.0832  -36.0051    9.8411 H   0  0  0  0  0  0  0  0  0  0  0  0
   -6.4532  -33.1705    6.7469 H   0  0  0  0  0  0  0  0  0  0  0  0
   -3.9691  -33.8107    4.0974 C   0  0  0  0  0  0  0  0  0  0  0  0
   -3.3926  -32.7512    3.7979 O   0  0  0  0  0  0  0  0  0  0  0  0
   -5.4002  -33.5992    2.3247 C   0  0  0  0  0  0  0  0  0  0  0  0
   -4.7352  -34.5089    3.2238 O   0  0  0  0  0  0  0  0  0  0  0  0
   -1.7619  -35.5432    4.6371 C   0  0  0  0  0  0  0  0  0  0  0  0
   -0.5610  -34.6824    5.0257 C   0  0  0  0  0  0  0  0  0  0  0  0
    2.5927  -36.4210    4.4770 C   0  0  0  0  0  0  0  0  0  0  0  0
    2.5125  -35.7229    3.3353 C   0  0  0  0  0  0  0  0  0  0  0  0
    0.7934  -35.2459    4.5447 C   0  0  0  0  0  0  0  0  0  0  0  0
    1.5204  -36.1327    5.2294 N   0  0  0  0  0  0  0  0  0  0  0  0
    1.3917  -35.0045    3.3675 N   0  0  0  0  0  0  0  0  0  0  0  0
    0.9913  -34.1096    2.2892 C   0  0  0  0  0  0  0  0  0  0  0  0
    1.4594  -29.9722    3.0846 C   0  0  0  0  0  0  0  0  0  0  0  0
    2.5992  -30.7519    2.9332 C   0  0  0  0  0  0  0  0  0  0  0  0
    0.2012  -30.5716    2.9884 C   0  0  0  0  0  0  0  0  0  0  0  0
    2.4887  -32.1297    2.6591 C   0  0  0  0  0  0  0  0  0  0  0  0
    0.0886  -31.9347    2.7347 C   0  0  0  0  0  0  0  0  0  0  0  0
    1.2230  -32.7344    2.5745 C   0  0  0  0  0  0  0  0  0  0  0  0
  7  2  1  0  0  0
  9  4  1  0  0  0
  2  1  2  0  0  0
  2  4  1  0  0  0
  1  3  1  0  0  0
  4  5  2  0  0  0
 28 26  2  0  0  0
 28 29  1  0  0  0
 26 24  1  0  0  0
 23 29  1  0  0  0
 23 22  1  0  0  0
  3  8  1  0  0  0
  3  6  2  0  0  0
  5  6  1  0  0  0
  5 16  1  0  0  0
 29 27  2  0  0  0
 17 16  1  0  0  0
 17 20  1  0  0  0
 22 20  1  0  0  0
 22 19  1  0  0  0
  6 12  1  0  0  0
 24 25  2  0  0  0
 20 21  2  0  0  0
 19 18  2  0  0  0
 27 25  1  0  0  0
 21 18  1  0  0  0
 12 15  1  0  0  0
 12 13  2  0  0  0
 15 14  1  0  0  0
  7 10  1  0  0  0
  8 11  1  0  0  0
M  END
> <minimizedAffinity>
-8.55001

$$$$
5VYY_9QY_A_301


 29 31  0  0  0  0  0  0  0  0999 V2000
   -4.2471  -34.6898    7.7309 C   0  0  0  0  0  0  0  0  0  0  0  0
   -4.8511  -34.1051    6.6257 C   0  0  0  0  0  0  0  0  0  0  0  0
   -3.2015  -35.5697    7.5439 C   0  0  0  0  0  0  0  0  0  0  0  0
   -4.3822  -34.4396    5.3547 C   0  0  0  0  0  0  0  0  0  0  0  0
   -3.3143  -35.3406    5.1665 C   0  0  0  0  0  0  0  0  0  0  0  0
   -2.6966  -35.8948    6.2839 C   0  0  0  0  0  0  0  0  0  0  0  0
   -5.9421  -33.2687    6.7209 O   0  0  0  0  0  0  0  0  0  0  0  0
   -2.5995  -36.1011    8.6371 O   0  0  0  0  0  0  0  0  0  0  0  0
   -5.1663  -33.6075    4.0419 Cl  0  0  0  0  0  0  0  0  0  0  0  0
   -6.2765  -33.0288    7.5627 H   0  0  0  0  0  0  0  0  0  0  0  0
   -2.9200  -35.8978    9.4938 H   0  0  0  0  0  0  0  0  0  0  0  0
   -1.6290  -36.8041    6.1603 C   0  0  0  0  0  0  0  0  0  0  0  0
   -1.7669  -37.9580    5.7199 O   0  0  0  0  0  0  0  0  0  0  0  0
    0.6044  -37.2738    6.3226 C   0  0  0  0  0  0  0  0  0  0  0  0
   -0.4271  -36.2848    6.5117 O   0  0  0  0  0  0  0  0  0  0  0  0
   -2.8407  -35.6701    3.8342 C   0  0  0  0  0  0  0  0  0  0  0  0
   -1.8481  -34.5626    3.4845 C   0  0  0  0  0  0  0  0  0  0  0  0
    1.2080  -36.1552    2.3041 C   0  0  0  0  0  0  0  0  0  0  0  0
    1.7263  -35.2805    3.1778 C   0  0  0  0  0  0  0  0  0  0  0  0
   -0.4187  -35.0716    3.2000 C   0  0  0  0  0  0  0  0  0  0  0  0
   -0.1267  -36.0230    2.3093 N   0  0  0  0  0  0  0  0  0  0  0  0
    0.7225  -34.5973    3.7244 N   0  0  0  0  0  0  0  0  0  0  0  0
    0.9213  -33.5676    4.7364 C   0  0  0  0  0  0  0  0  0  0  0  0
    1.6750  -29.6398    3.3312 C   0  0  0  0  0  0  0  0  0  0  0  0
    0.9405  -30.5026    2.5275 C   0  0  0  0  0  0  0  0  0  0  0  0
    2.1554  -30.0924    4.5625 C   0  0  0  0  0  0  0  0  0  0  0  0
    0.6597  -31.8139    2.9601 C   0  0  0  0  0  0  0  0  0  0  0  0
    1.8944  -31.3916    4.9853 C   0  0  0  0  0  0  0  0  0  0  0  0
    1.1535  -32.2724    4.1933 C   0  0  0  0  0  0  0  0  0  0  0  0
  7  2  1  0  0  0
  9  4  1  0  0  0
  2  1  2  0  0  0
  2  4  1  0  0  0
  1  3  1  0  0  0
  4  5  2  0  0  0
 28 26  2  0  0  0
 28 29  1  0  0  0
 26 24  1  0  0  0
 23 29  1  0  0  0
 23 22  1  0  0  0
  3  8  1  0  0  0
  3  6  2  0  0  0
  5  6  1  0  0  0
  5 16  1  0  0  0
 29 27  2  0  0  0
 17 16  1  0  0  0
 17 20  1  0  0  0
 22 20  1  0  0  0
 22 19  1  0  0  0
  6 12  1  0  0  0
 24 25  2  0  0  0
 20 21  2  0  0  0
 19 18  2  0  0  0
 27 25  1  0  0  0
 21 18  1  0  0  0
 12 15  1  0  0  0
 12 13  2  0  0  0
 15 14  1  0  0  0
  7 10  1  0  0  0
  8 11  1  0  0  0
M  END
> <minimizedAffinity>
-8.54049

$$$$
5VYY_9QY_A_301


 29 31  0  0  0  0  0  0  0  0999 V2000
   -5.0990  -34.2522    3.0679 C   0  0  0  0  0  0  0  0  0  0  0  0
   -4.4888  -33.1953    2.4056 C   0  0  0  0  0  0  0  0  0  0  0  0
   -4.3593  -35.0194    3.9435 C   0  0  0  0  0  0  0  0  0  0  0  0
   -3.1354  -32.9520    2.6431 C   0  0  0  0  0  0  0  0  0  0  0  0
   -2.3813  -33.7389    3.5374 C   0  0  0  0  0  0  0  0  0  0  0  0
   -3.0131  -34.7750    4.2191 C   0  0  0  0  0  0  0  0  0  0  0  0
   -5.1371  -32.4226    1.4668 O   0  0  0  0  0  0  0  0  0  0  0  0
   -4.9824  -36.0233    4.6098 O   0  0  0  0  0  0  0  0  0  0  0  0
   -2.4822  -31.5698    1.8104 Cl  0  0  0  0  0  0  0  0  0  0  0  0
   -6.0458  -32.5659    1.2887 H   0  0  0  0  0  0  0  0  0  0  0  0
   -5.8859  -36.2068    4.4422 H   0  0  0  0  0  0  0  0  0  0  0  0
   -2.3125  -35.5983    5.1210 C   0  0  0  0  0  0  0  0  0  0  0  0
   -2.0005  -35.2374    6.2685 O   0  0  0  0  0  0  0  0  0  0  0  0
   -1.8500  -37.7521    5.7391 C   0  0  0  0  0  0  0  0  0  0  0  0
   -2.0608  -36.8412    4.6420 O   0  0  0  0  0  0  0  0  0  0  0  0
   -0.9751  -33.4638    3.7717 C   0  0  0  0  0  0  0  0  0  0  0  0
   -0.2331  -34.2812    2.7156 C   0  0  0  0  0  0  0  0  0  0  0  0
    2.4513  -36.3464    4.0567 C   0  0  0  0  0  0  0  0  0  0  0  0
    3.1624  -35.2944    3.6268 C   0  0  0  0  0  0  0  0  0  0  0  0
    1.0791  -34.9154    3.2246 C   0  0  0  0  0  0  0  0  0  0  0  0
    1.1546  -36.1178    3.8012 N   0  0  0  0  0  0  0  0  0  0  0  0
    2.3171  -34.4120    3.0977 N   0  0  0  0  0  0  0  0  0  0  0  0
    2.7471  -33.1344    2.5437 C   0  0  0  0  0  0  0  0  0  0  0  0
    1.3058  -29.6561    4.4916 C   0  0  0  0  0  0  0  0  0  0  0  0
    1.7528  -30.7159    5.2706 C   0  0  0  0  0  0  0  0  0  0  0  0
    1.3274  -29.7719    3.0995 C   0  0  0  0  0  0  0  0  0  0  0  0
    2.2481  -31.8872    4.6637 C   0  0  0  0  0  0  0  0  0  0  0  0
    1.8001  -30.9333    2.4972 C   0  0  0  0  0  0  0  0  0  0  0  0
    2.2584  -32.0078    3.2637 C   0  0  0  0  0  0  0  0  0  0  0  0
  7  2  1  0  0  0
  9  4  1  0  0  0
  2  1  2  0  0  0
  2  4  1  0  0  0
  1  3  1  0  0  0
  4  5  2  0  0  0
 28 26  2  0  0  0
 28 29  1  0  0  0
 26 24  1  0  0  0
 23 29  1  0  0  0
 23 22  1  0  0  0
  3  8  1  0  0  0
  3  6  2  0  0  0
  5  6  1  0  0  0
  5 16  1  0  0  0
 29 27  2  0  0  0
 17 16  1  0  0  0
 17 20  1  0  0  0
 22 20  1  0  0  0
 22 19  1  0  0  0
  6 12  1  0  0  0
 24 25  2  0  0  0
 20 21  2  0  0  0
 19 18  2  0  0  0
 27 25  1  0  0  0
 21 18  1  0  0  0
 12 15  1  0  0  0
 12 13  2  0  0  0
 15 14  1  0  0  0
  7 10  1  0  0  0
  8 11  1  0  0  0
M  END
> <minimizedAffinity>
-8.36204

$$$$
5VYY_9QY_A_301


 29 31  0  0  0  0  0  0  0  0999 V2000
   -4.8220  -33.8052    5.6068 C   0  0  0  0  0  0  0  0  0  0  0  0
   -4.2073  -33.7251    4.3643 C   0  0  0  0  0  0  0  0  0  0  0  0
   -4.2547  -34.5845    6.5933 C   0  0  0  0  0  0  0  0  0  0  0  0
   -3.0341  -34.4504    4.1529 C   0  0  0  0  0  0  0  0  0  0  0  0
   -2.4572  -35.2475    5.1626 C   0  0  0  0  0  0  0  0  0  0  0  0
   -3.0660  -35.2935    6.4135 C   0  0  0  0  0  0  0  0  0  0  0  0
   -4.7422  -33.0239    3.3055 O   0  0  0  0  0  0  0  0  0  0  0  0
   -4.8490  -34.6197    7.8121 O   0  0  0  0  0  0  0  0  0  0  0  0
   -2.3117  -34.2345    2.5837 Cl  0  0  0  0  0  0  0  0  0  0  0  0
   -5.5293  -32.5289    3.4212 H   0  0  0  0  0  0  0  0  0  0  0  0
   -5.6477  -34.1519    7.9576 H   0  0  0  0  0  0  0  0  0  0  0  0
   -2.5404  -36.0748    7.4601 C   0  0  0  0  0  0  0  0  0  0  0  0
   -2.7236  -37.3007    7.5508 O   0  0  0  0  0  0  0  0  0  0  0  0
   -2.0337  -35.8118    9.6757 C   0  0  0  0  0  0  0  0  0  0  0  0
   -1.7683  -35.3758    8.3276 O   0  0  0  0  0  0  0  0  0  0  0  0
   -1.2333  -35.9899    4.9206 C   0  0  0  0  0  0  0  0  0  0  0  0
   -0.1077  -35.0067    5.2374 C   0  0  0  0  0  0  0  0  0  0  0  0
    3.0286  -36.2778    3.8891 C   0  0  0  0  0  0  0  0  0  0  0  0
    2.8117  -35.2579    3.0464 C   0  0  0  0  0  0  0  0  0  0  0  0
    1.2087  -35.3009    4.4865 C   0  0  0  0  0  0  0  0  0  0  0  0
    2.0289  -36.3127    4.7826 N   0  0  0  0  0  0  0  0  0  0  0  0
    1.6776  -34.6591    3.4046 N   0  0  0  0  0  0  0  0  0  0  0  0
    1.1424  -33.4936    2.7126 C   0  0  0  0  0  0  0  0  0  0  0  0
    2.0129  -29.7277    4.4534 C   0  0  0  0  0  0  0  0  0  0  0  0
    2.0758  -30.8601    5.2557 C   0  0  0  0  0  0  0  0  0  0  0  0
    1.6507  -29.8585    3.1106 C   0  0  0  0  0  0  0  0  0  0  0  0
    1.8027  -32.1324    4.7151 C   0  0  0  0  0  0  0  0  0  0  0  0
    1.3640  -31.1110    2.5777 C   0  0  0  0  0  0  0  0  0  0  0  0
    1.4266  -32.2619    3.3673 C   0  0  0  0  0  0  0  0  0  0  0  0
  7  2  1  0  0  0
  9  4  1  0  0  0
  2  1  2  0  0  0
  2  4  1  0  0  0
  1  3  1  0  0  0
  4  5  2  0  0  0
 28 26  2  0  0  0
 28 29  1  0  0  0
 26 24  1  0  0  0
 23 29  1  0  0  0
 23 22  1  0  0  0
  3  8  1  0  0  0
  3  6  2  0  0  0
  5  6  1  0  0  0
  5 16  1  0  0  0
 29 27  2  0  0  0
 17 16  1  0  0  0
 17 20  1  0  0  0
 22 20  1  0  0  0
 22 19  1  0  0  0
  6 12  1  0  0  0
 24 25  2  0  0  0
 20 21  2  0  0  0
 19 18  2  0  0  0
 27 25  1  0  0  0
 21 18  1  0  0  0
 12 15  1  0  0  0
 12 13  2  0  0  0
 15 14  1  0  0  0
  7 10  1  0  0  0
  8 11  1  0  0  0
M  END
> <minimizedAffinity>
-8.31110

$$$$
5VYY_9QY_A_301


 29 31  0  0  0  0  0  0  0  0999 V2000
    3.3780  -32.3094    2.6196 C   0  0  0  0  0  0  0  0  0  0  0  0
    2.2189  -31.5448    2.6244 C   0  0  0  0  0  0  0  0  0  0  0  0
    3.2812  -33.6848    2.6553 C   0  0  0  0  0  0  0  0  0  0  0  0
    0.9881  -32.2002    2.6769 C   0  0  0  0  0  0  0  0  0  0  0  0
    0.8922  -33.6062    2.7150 C   0  0  0  0  0  0  0  0  0  0  0  0
    2.0607  -34.3615    2.6770 C   0  0  0  0  0  0  0  0  0  0  0  0
    2.2280  -30.1672    2.6573 O   0  0  0  0  0  0  0  0  0  0  0  0
    4.4234  -34.4152    2.6112 O   0  0  0  0  0  0  0  0  0  0  0  0
   -0.4023  -31.1541    2.6182 Cl  0  0  0  0  0  0  0  0  0  0  0  0
    3.0413  -29.7032    2.6234 H   0  0  0  0  0  0  0  0  0  0  0  0
    5.2551  -33.9839    2.5959 H   0  0  0  0  0  0  0  0  0  0  0  0
    2.0300  -35.7684    2.7172 C   0  0  0  0  0  0  0  0  0  0  0  0
    1.7951  -36.4716    1.7197 O   0  0  0  0  0  0  0  0  0  0  0  0
    3.0035  -37.5537    3.7660 C   0  0  0  0  0  0  0  0  0  0  0  0
    2.3374  -36.2861    3.9317 O   0  0  0  0  0  0  0  0  0  0  0  0
   -0.4001  -34.2660    2.7648 C   0  0  0  0  0  0  0  0  0  0  0  0
   -0.8023  -34.2324    4.2383 C   0  0  0  0  0  0  0  0  0  0  0  0
   -3.5841  -36.3727    5.2131 C   0  0  0  0  0  0  0  0  0  0  0  0
   -4.2592  -35.2897    4.8025 C   0  0  0  0  0  0  0  0  0  0  0  0
   -2.1532  -34.9192    4.5330 C   0  0  0  0  0  0  0  0  0  0  0  0
   -2.2723  -36.1432    5.0541 N   0  0  0  0  0  0  0  0  0  0  0  0
   -3.3753  -34.3815    4.3938 N   0  0  0  0  0  0  0  0  0  0  0  0
   -3.7618  -33.0802    3.8636 C   0  0  0  0  0  0  0  0  0  0  0  0
   -4.6279  -33.0912   -0.2861 C   0  0  0  0  0  0  0  0  0  0  0  0
   -5.6831  -33.1874    0.6123 C   0  0  0  0  0  0  0  0  0  0  0  0
   -3.3201  -33.0115    0.1988 C   0  0  0  0  0  0  0  0  0  0  0  0
   -5.4403  -33.1784    2.0003 C   0  0  0  0  0  0  0  0  0  0  0  0
   -3.0756  -33.0194    1.5682 C   0  0  0  0  0  0  0  0  0  0  0  0
   -4.1239  -33.1104    2.4872 C   0  0  0  0  0  0  0  0  0  0  0  0
  7  2  1  0  0  0
  9  4  1  0  0  0
  2  1  2  0  0  0
  2  4  1  0  0  0
  1  3  1  0  0  0
  4  5  2  0  0  0
 28 26  2  0  0  0
 28 29  1  0  0  0
 26 24  1  0  0  0
 23 29  1  0  0  0
 23 22  1  0  0  0
  3  8  1  0  0  0
  3  6  2  0  0  0
  5  6  1  0  0  0
  5 16  1  0  0  0
 29 27  2  0  0  0
 17 16  1  0  0  0
 17 20  1  0  0  0
 22 20  1  0  0  0
 22 19  1  0  0  0
  6 12  1  0  0  0
 24 25  2  0  0  0
 20 21  2  0  0  0
 19 18  2  0  0  0
 27 25  1  0  0  0
 21 18  1  0  0  0
 12 15  1  0  0  0
 12 13  2  0  0  0
 15 14  1  0  0  0
  7 10  1  0  0  0
  8 11  1  0  0  0
M  END
> <minimizedAffinity>
-8.26512

$$$$
5VYY_9QY_A_301


 29 31  0  0  0  0  0  0  0  0999 V2000
    2.6380  -32.4094    2.7819 C   0  0  0  0  0  0  0  0  0  0  0  0
    1.5518  -31.5606    2.6148 C   0  0  0  0  0  0  0  0  0  0  0  0
    2.4363  -33.7738    2.7841 C   0  0  0  0  0  0  0  0  0  0  0  0
    0.2834  -32.1227    2.4649 C   0  0  0  0  0  0  0  0  0  0  0  0
    0.0800  -33.5177    2.4691 C   0  0  0  0  0  0  0  0  0  0  0  0
    1.1814  -34.3578    2.6051 C   0  0  0  0  0  0  0  0  0  0  0  0
    1.6566  -30.1876    2.6667 O   0  0  0  0  0  0  0  0  0  0  0  0
    3.5146  -34.5872    2.9102 O   0  0  0  0  0  0  0  0  0  0  0  0
   -0.9999  -30.9759    2.2024 Cl  0  0  0  0  0  0  0  0  0  0  0  0
    2.4969  -29.7853    2.7670 H   0  0  0  0  0  0  0  0  0  0  0  0
    4.3676  -34.2189    3.0313 H   0  0  0  0  0  0  0  0  0  0  0  0
    1.0417  -35.7586    2.6216 C   0  0  0  0  0  0  0  0  0  0  0  0
    0.8608  -36.4354    1.5950 O   0  0  0  0  0  0  0  0  0  0  0  0
    1.7685  -37.6173    3.7405 C   0  0  0  0  0  0  0  0  0  0  0  0
    1.1806  -36.3060    3.8539 O   0  0  0  0  0  0  0  0  0  0  0  0
   -1.2489  -34.0796    2.3069 C   0  0  0  0  0  0  0  0  0  0  0  0
   -1.9587  -33.7994    3.6304 C   0  0  0  0  0  0  0  0  0  0  0  0
   -5.4413  -33.4086    2.6363 C   0  0  0  0  0  0  0  0  0  0  0  0
   -5.6057  -33.7612    3.9193 C   0  0  0  0  0  0  0  0  0  0  0  0
   -3.4925  -33.6791    3.5035 C   0  0  0  0  0  0  0  0  0  0  0  0
   -4.1272  -33.3638    2.3715 N   0  0  0  0  0  0  0  0  0  0  0  0
   -4.4009  -33.9436    4.4560 N   0  0  0  0  0  0  0  0  0  0  0  0
   -4.2015  -34.3196    5.8498 C   0  0  0  0  0  0  0  0  0  0  0  0
   -4.2555  -38.4653    6.7327 C   0  0  0  0  0  0  0  0  0  0  0  0
   -4.1250  -38.0709    5.4071 C   0  0  0  0  0  0  0  0  0  0  0  0
   -4.3815  -37.4931    7.7279 C   0  0  0  0  0  0  0  0  0  0  0  0
   -4.0936  -36.7029    5.0706 C   0  0  0  0  0  0  0  0  0  0  0  0
   -4.3679  -36.1419    7.3975 C   0  0  0  0  0  0  0  0  0  0  0  0
   -4.2326  -35.7255    6.0707 C   0  0  0  0  0  0  0  0  0  0  0  0
  7  2  1  0  0  0
  9  4  1  0  0  0
  2  1  2  0  0  0
  2  4  1  0  0  0
  1  3  1  0  0  0
  4  5  2  0  0  0
 28 26  2  0  0  0
 28 29  1  0  0  0
 26 24  1  0  0  0
 23 29  1  0  0  0
 23 22  1  0  0  0
  3  8  1  0  0  0
  3  6  2  0  0  0
  5  6  1  0  0  0
  5 16  1  0  0  0
 29 27  2  0  0  0
 17 16  1  0  0  0
 17 20  1  0  0  0
 22 20  1  0  0  0
 22 19  1  0  0  0
  6 12  1  0  0  0
 24 25  2  0  0  0
 20 21  2  0  0  0
 19 18  2  0  0  0
 27 25  1  0  0  0
 21 18  1  0  0  0
 12 15  1  0  0  0
 12 13  2  0  0  0
 15 14  1  0  0  0
  7 10  1  0  0  0
  8 11  1  0  0  0
M  END
> <minimizedAffinity>
-8.14006

$$$$
5VYY_9QY_A_301


 29 31  0  0  0  0  0  0  0  0999 V2000
    4.0552  -35.0128    2.3975 C   0  0  0  0  0  0  0  0  0  0  0  0
    3.5868  -36.2341    2.8636 C   0  0  0  0  0  0  0  0  0  0  0  0
    3.3055  -33.8748    2.6105 C   0  0  0  0  0  0  0  0  0  0  0  0
    2.3594  -36.2684    3.5265 C   0  0  0  0  0  0  0  0  0  0  0  0
    1.5944  -35.1038    3.7414 C   0  0  0  0  0  0  0  0  0  0  0  0
    2.0906  -33.8815    3.2976 C   0  0  0  0  0  0  0  0  0  0  0  0
    4.2402  -37.4256    2.6354 O   0  0  0  0  0  0  0  0  0  0  0  0
    3.7977  -32.6858    2.1816 O   0  0  0  0  0  0  0  0  0  0  0  0
    1.8920  -37.8359    4.1224 Cl  0  0  0  0  0  0  0  0  0  0  0  0
    5.0658  -37.4298    2.1923 H   0  0  0  0  0  0  0  0  0  0  0  0
    4.6115  -32.6554    1.7181 H   0  0  0  0  0  0  0  0  0  0  0  0
    1.3710  -32.6850    3.4784 C   0  0  0  0  0  0  0  0  0  0  0  0
    1.5208  -31.9447    4.4652 O   0  0  0  0  0  0  0  0  0  0  0  0
    0.0698  -31.0309    2.5808 C   0  0  0  0  0  0  0  0  0  0  0  0
    0.5420  -32.3864    2.4483 O   0  0  0  0  0  0  0  0  0  0  0  0
    0.3219  -35.1636    4.4379 C   0  0  0  0  0  0  0  0  0  0  0  0
   -0.6805  -35.6350    3.3857 C   0  0  0  0  0  0  0  0  0  0  0  0
   -3.6282  -37.1676    4.8797 C   0  0  0  0  0  0  0  0  0  0  0  0
   -4.0715  -35.9110    4.7317 C   0  0  0  0  0  0  0  0  0  0  0  0
   -2.0603  -36.0162    3.9639 C   0  0  0  0  0  0  0  0  0  0  0  0
   -2.3738  -37.2354    4.4099 N   0  0  0  0  0  0  0  0  0  0  0  0
   -3.0977  -35.1913    4.1777 N   0  0  0  0  0  0  0  0  0  0  0  0
   -3.2403  -33.7770    3.8565 C   0  0  0  0  0  0  0  0  0  0  0  0
   -4.5261  -32.9805   -0.1036 C   0  0  0  0  0  0  0  0  0  0  0  0
   -5.4865  -33.2365    0.8671 C   0  0  0  0  0  0  0  0  0  0  0  0
   -3.1739  -33.0094    0.2458 C   0  0  0  0  0  0  0  0  0  0  0  0
   -5.1028  -33.4972    2.1977 C   0  0  0  0  0  0  0  0  0  0  0  0
   -2.7909  -33.2831    1.5548 C   0  0  0  0  0  0  0  0  0  0  0  0
   -3.7420  -33.5381    2.5459 C   0  0  0  0  0  0  0  0  0  0  0  0
  7  2  1  0  0  0
  9  4  1  0  0  0
  2  1  2  0  0  0
  2  4  1  0  0  0
  1  3  1  0  0  0
  4  5  2  0  0  0
 28 26  2  0  0  0
 28 29  1  0  0  0
 26 24  1  0  0  0
 23 29  1  0  0  0
 23 22  1  0  0  0
  3  8  1  0  0  0
  3  6  2  0  0  0
  5  6  1  0  0  0
  5 16  1  0  0  0
 29 27  2  0  0  0
 17 16  1  0  0  0
 17 20  1  0  0  0
 22 20  1  0  0  0
 22 19  1  0  0  0
  6 12  1  0  0  0
 24 25  2  0  0  0
 20 21  2  0  0  0
 19 18  2  0  0  0
 27 25  1  0  0  0
 21 18  1  0  0  0
 12 15  1  0  0  0
 12 13  2  0  0  0
 15 14  1  0  0  0
  7 10  1  0  0  0
  8 11  1  0  0  0
M  END
> <minimizedAffinity>
-8.13151

$$$$
5VYY_9QY_A_301


 29 31  0  0  0  0  0  0  0  0999 V2000
   -4.5713  -35.5442    4.7185 C   0  0  0  0  0  0  0  0  0  0  0  0
   -3.8584  -34.4679    4.2070 C   0  0  0  0  0  0  0  0  0  0  0  0
   -3.9967  -36.7981    4.7174 C   0  0  0  0  0  0  0  0  0  0  0  0
   -2.5804  -34.6971    3.6960 C   0  0  0  0  0  0  0  0  0  0  0  0
   -1.9961  -35.9802    3.6946 C   0  0  0  0  0  0  0  0  0  0  0  0
   -2.7086  -37.0445    4.2397 C   0  0  0  0  0  0  0  0  0  0  0  0
   -4.3833  -33.1975    4.1100 O   0  0  0  0  0  0  0  0  0  0  0  0
   -4.6934  -37.8297    5.2562 O   0  0  0  0  0  0  0  0  0  0  0  0
   -1.7495  -33.2740    3.1347 Cl  0  0  0  0  0  0  0  0  0  0  0  0
   -5.2394  -33.0174    4.4454 H   0  0  0  0  0  0  0  0  0  0  0  0
   -5.5600  -37.6894    5.5837 H   0  0  0  0  0  0  0  0  0  0  0  0
   -2.1806  -38.3493    4.2628 C   0  0  0  0  0  0  0  0  0  0  0  0
   -2.1888  -39.1031    3.2748 O   0  0  0  0  0  0  0  0  0  0  0  0
   -1.8121  -40.0905    5.7008 C   0  0  0  0  0  0  0  0  0  0  0  0
   -1.6107  -38.6860    5.4458 O   0  0  0  0  0  0  0  0  0  0  0  0
   -0.6627  -36.1935    3.1614 C   0  0  0  0  0  0  0  0  0  0  0  0
    0.2825  -35.7515    4.2773 C   0  0  0  0  0  0  0  0  0  0  0  0
    3.8315  -35.9411    3.4782 C   0  0  0  0  0  0  0  0  0  0  0  0
    3.5133  -34.8021    2.8467 C   0  0  0  0  0  0  0  0  0  0  0  0
    1.7435  -35.5567    3.8180 C   0  0  0  0  0  0  0  0  0  0  0  0
    2.7306  -36.4181    4.0778 N   0  0  0  0  0  0  0  0  0  0  0  0
    2.2172  -34.5682    3.0430 N   0  0  0  0  0  0  0  0  0  0  0  0
    1.5321  -33.3979    2.5092 C   0  0  0  0  0  0  0  0  0  0  0  0
    2.0502  -29.8067    4.7012 C   0  0  0  0  0  0  0  0  0  0  0  0
    2.0222  -31.0097    5.3954 C   0  0  0  0  0  0  0  0  0  0  0  0
    1.8910  -29.8125    3.3133 C   0  0  0  0  0  0  0  0  0  0  0  0
    1.8609  -32.2273    4.7048 C   0  0  0  0  0  0  0  0  0  0  0  0
    1.7147  -31.0114    2.6301 C   0  0  0  0  0  0  0  0  0  0  0  0
    1.6886  -32.2315    3.3101 C   0  0  0  0  0  0  0  0  0  0  0  0
  7  2  1  0  0  0
  9  4  1  0  0  0
  2  1  2  0  0  0
  2  4  1  0  0  0
  1  3  1  0  0  0
  4  5  2  0  0  0
 28 26  2  0  0  0
 28 29  1  0  0  0
 26 24  1  0  0  0
 23 29  1  0  0  0
 23 22  1  0  0  0
  3  8  1  0  0  0
  3  6  2  0  0  0
  5  6  1  0  0  0
  5 16  1  0  0  0
 29 27  2  0  0  0
 17 16  1  0  0  0
 17 20  1  0  0  0
 22 20  1  0  0  0
 22 19  1  0  0  0
  6 12  1  0  0  0
 24 25  2  0  0  0
 20 21  2  0  0  0
 19 18  2  0  0  0
 27 25  1  0  0  0
 21 18  1  0  0  0
 12 15  1  0  0  0
 12 13  2  0  0  0
 15 14  1  0  0  0
  7 10  1  0  0  0
  8 11  1  0  0  0
M  END
> <minimizedAffinity>
-7.85857

$$$$
5VYY_9QY_A_301


 29 31  0  0  0  0  0  0  0  0999 V2000
   -3.1480  -38.9454    4.0433 C   0  0  0  0  0  0  0  0  0  0  0  0
   -1.9410  -38.8906    3.3590 C   0  0  0  0  0  0  0  0  0  0  0  0
   -3.6650  -37.7925    4.5965 C   0  0  0  0  0  0  0  0  0  0  0  0
   -1.2835  -37.6634    3.2641 C   0  0  0  0  0  0  0  0  0  0  0  0
   -1.8134  -36.4869    3.8320 C   0  0  0  0  0  0  0  0  0  0  0  0
   -3.0398  -36.5494    4.4874 C   0  0  0  0  0  0  0  0  0  0  0  0
   -1.3236  -40.0054    2.8348 O   0  0  0  0  0  0  0  0  0  0  0  0
   -4.8637  -37.8587    5.2279 O   0  0  0  0  0  0  0  0  0  0  0  0
    0.1892  -37.6910    2.3363 Cl  0  0  0  0  0  0  0  0  0  0  0  0
   -1.7441  -40.8412    2.8856 H   0  0  0  0  0  0  0  0  0  0  0  0
   -5.3031  -38.6818    5.3138 H   0  0  0  0  0  0  0  0  0  0  0  0
   -3.6178  -35.4100    5.0787 C   0  0  0  0  0  0  0  0  0  0  0  0
   -3.0990  -34.8009    6.0296 O   0  0  0  0  0  0  0  0  0  0  0  0
   -4.4497  -34.1574    3.3542 C   0  0  0  0  0  0  0  0  0  0  0  0
   -4.7631  -35.0052    4.4771 O   0  0  0  0  0  0  0  0  0  0  0  0
   -1.1132  -35.2203    3.7166 C   0  0  0  0  0  0  0  0  0  0  0  0
   -0.0832  -35.2361    4.8449 C   0  0  0  0  0  0  0  0  0  0  0  0
    3.3727  -36.1120    4.0975 C   0  0  0  0  0  0  0  0  0  0  0  0
    3.2100  -35.0789    3.2587 C   0  0  0  0  0  0  0  0  0  0  0  0
    1.3764  -35.3568    4.3569 C   0  0  0  0  0  0  0  0  0  0  0  0
    2.2310  -36.2931    4.7775 N   0  0  0  0  0  0  0  0  0  0  0  0
    1.9697  -34.6175    3.4063 N   0  0  0  0  0  0  0  0  0  0  0  0
    1.4517  -33.4796    2.6574 C   0  0  0  0  0  0  0  0  0  0  0  0
    1.8720  -29.6812    4.4918 C   0  0  0  0  0  0  0  0  0  0  0  0
    1.9925  -30.8170    5.2826 C   0  0  0  0  0  0  0  0  0  0  0  0
    1.6009  -29.8209    3.1285 C   0  0  0  0  0  0  0  0  0  0  0  0
    1.8686  -32.0992    4.7116 C   0  0  0  0  0  0  0  0  0  0  0  0
    1.4612  -31.0848    2.5646 C   0  0  0  0  0  0  0  0  0  0  0  0
    1.5838  -32.2389    3.3425 C   0  0  0  0  0  0  0  0  0  0  0  0
  7  2  1  0  0  0
  9  4  1  0  0  0
  2  1  2  0  0  0
  2  4  1  0  0  0
  1  3  1  0  0  0
  4  5  2  0  0  0
 28 26  2  0  0  0
 28 29  1  0  0  0
 26 24  1  0  0  0
 23 29  1  0  0  0
 23 22  1  0  0  0
  3  8  1  0  0  0
  3  6  2  0  0  0
  5  6  1  0  0  0
  5 16  1  0  0  0
 29 27  2  0  0  0
 17 16  1  0  0  0
 17 20  1  0  0  0
 22 20  1  0  0  0
 22 19  1  0  0  0
  6 12  1  0  0  0
 24 25  2  0  0  0
 20 21  2  0  0  0
 19 18  2  0  0  0
 27 25  1  0  0  0
 21 18  1  0  0  0
 12 15  1  0  0  0
 12 13  2  0  0  0
 15 14  1  0  0  0
  7 10  1  0  0  0
  8 11  1  0  0  0
M  END
> <minimizedAffinity>
-7.82697

$$$$
