2WGJ_VGH_A_2346


 33 36  0  0  0  0  0  0  0  0999 V2000
   21.2786   85.2000    6.6115 C   0  0  0  0  0  0  0  0  0  0  0  0
   21.5356   84.9193    5.2514 C   0  0  0  0  0  0  0  0  0  0  0  0
   22.3900   85.2004    7.4687 C   0  0  0  0  0  0  0  0  0  0  0  0
   22.2246   85.4591    8.8344 N   0  0  0  0  0  0  0  0  0  0  0  0
   23.6574   84.9648    7.0477 N   0  0  0  0  0  0  0  0  0  0  0  0
   23.8571   84.7075    5.7375 C   0  0  0  0  0  0  0  0  0  0  0  0
   22.8473   84.6704    4.7839 C   0  0  0  0  0  0  0  0  0  0  0  0
   21.3265   85.6371    9.1964 H   0  0  0  0  0  0  0  0  0  0  0  0
   23.0062   85.4631    9.4329 H   0  0  0  0  0  0  0  0  0  0  0  0
   23.1784   84.3522    3.3985 C   0  0  0  0  0  0  0  0  0  0  0  0
   24.2620   84.7090    2.5571 C   0  0  0  0  0  0  0  0  0  0  0  0
   22.3726   83.6117    2.5544 C   0  0  0  0  0  0  0  0  0  0  0  0
   22.9826   83.5420    1.3400 N   0  0  0  0  0  0  0  0  0  0  0  0
   24.1543   84.2161    1.3197 N   0  0  0  0  0  0  0  0  0  0  0  0
   22.4901   82.8343    0.1547 C   0  0  0  0  0  0  0  0  0  0  0  0
   23.2326   83.1004   -1.1691 C   0  0  0  0  0  0  0  0  0  0  0  0
   24.2391   82.0463   -1.6335 C   0  0  0  0  0  0  0  0  0  0  0  0
   23.7733   80.6456   -1.3535 N   0  0  0  0  0  0  0  0  0  0  0  0
   23.2858   80.3827    0.0385 C   0  0  0  0  0  0  0  0  0  0  0  0
   22.1557   81.3494    0.3877 C   0  0  0  0  0  0  0  0  0  0  0  0
   24.5539   80.0147   -1.5354 H   0  0  0  0  0  0  0  0  0  0  0  0
   20.0774   85.4786    7.2356 O   0  0  0  0  0  0  0  0  0  0  0  0
   18.7775   85.4486    6.6051 C   0  0  0  0  0  0  0  0  0  0  0  0
   17.8149   86.1765    7.5394 C   0  0  0  0  0  0  0  0  0  0  0  0
   18.3359   84.5802    3.5567 Cl  0  0  0  0  0  0  0  0  0  0  0  0
   18.1204   83.5783    4.9550 C   0  0  0  0  0  0  0  0  0  0  0  0
   17.7137   82.2697    4.6528 C   0  0  0  0  0  0  0  0  0  0  0  0
   17.4751   81.3464    5.6538 C   0  0  0  0  0  0  0  0  0  0  0  0
   17.6575   81.7543    6.9573 C   0  0  0  0  0  0  0  0  0  0  0  0
   17.4316   80.8639    7.9136 F   0  0  0  0  0  0  0  0  0  0  0  0
   18.3172   84.0194    6.2912 C   0  0  0  0  0  0  0  0  0  0  0  0
   18.0739   83.0500    7.2933 C   0  0  0  0  0  0  0  0  0  0  0  0
   18.2289   83.3586    8.9929 Cl  0  0  0  0  0  0  0  0  0  0  0  0
 25 26  1  0  0  0
 26 27  1  0  0  0
 26 31  2  0  0  0
 27 28  2  0  0  0
 28 29  1  0  0  0
 29 30  1  0  0  0
 29 32  2  0  0  0
 31 32  1  0  0  0
 31 23  1  0  0  0
 32 33  1  0  0  0
 23 24  1  0  0  0
 23 22  1  0  0  0
 22  1  1  0  0  0
  1  2  2  0  0  0
  1  3  1  0  0  0
  2  7  1  0  0  0
  3  4  1  0  0  0
  3  5  2  0  0  0
  5  6  1  0  0  0
  6  7  2  0  0  0
  7 10  1  0  0  0
 10 11  1  0  0  0
 10 12  2  0  0  0
 11 14  2  0  0  0
 12 13  1  0  0  0
 13 14  1  0  0  0
 13 15  1  0  0  0
 15 16  1  0  0  0
 15 20  1  0  0  0
 16 17  1  0  0  0
 17 18  1  0  0  0
 18 19  1  0  0  0
 19 20  1  0  0  0
  4  8  1  0  0  0
  4  9  1  0  0  0
 18 21  1  0  0  0
M  END
> <minimizedAffinity>
-10.47012

$$$$
2WGJ_VGH_A_2346


 33 36  0  0  0  0  0  0  0  0999 V2000
   21.3262   85.3464    6.5133 C   0  0  0  0  0  0  0  0  0  0  0  0
   21.5572   85.0670    5.1482 C   0  0  0  0  0  0  0  0  0  0  0  0
   22.4183   85.1750    7.3781 C   0  0  0  0  0  0  0  0  0  0  0  0
   22.2750   85.4200    8.7488 N   0  0  0  0  0  0  0  0  0  0  0  0
   23.6466   84.7803    6.9602 N   0  0  0  0  0  0  0  0  0  0  0  0
   23.8234   84.5306    5.6452 C   0  0  0  0  0  0  0  0  0  0  0  0
   22.8280   84.6543    4.6838 C   0  0  0  0  0  0  0  0  0  0  0  0
   21.4055   85.7091    9.1089 H   0  0  0  0  0  0  0  0  0  0  0  0
   23.0436   85.3033    9.3527 H   0  0  0  0  0  0  0  0  0  0  0  0
   23.1277   84.3284    3.2930 C   0  0  0  0  0  0  0  0  0  0  0  0
   24.1920   84.6801    2.4255 C   0  0  0  0  0  0  0  0  0  0  0  0
   22.3027   83.5837    2.4714 C   0  0  0  0  0  0  0  0  0  0  0  0
   22.8851   83.5071    1.2439 N   0  0  0  0  0  0  0  0  0  0  0  0
   24.0562   84.1806    1.1935 N   0  0  0  0  0  0  0  0  0  0  0  0
   22.3658   82.7931    0.0739 C   0  0  0  0  0  0  0  0  0  0  0  0
   23.1003   83.0243   -1.2608 C   0  0  0  0  0  0  0  0  0  0  0  0
   24.0794   81.9424   -1.7197 C   0  0  0  0  0  0  0  0  0  0  0  0
   23.5868   80.5561   -1.4148 N   0  0  0  0  0  0  0  0  0  0  0  0
   23.1079   80.3237   -0.0144 C   0  0  0  0  0  0  0  0  0  0  0  0
   22.0022   81.3193    0.3318 C   0  0  0  0  0  0  0  0  0  0  0  0
   24.3520   79.9061   -1.5951 H   0  0  0  0  0  0  0  0  0  0  0  0
   20.1672   85.7697    7.1357 O   0  0  0  0  0  0  0  0  0  0  0  0
   18.8304   85.6291    6.6054 C   0  0  0  0  0  0  0  0  0  0  0  0
   17.9132   86.4732    7.4860 C   0  0  0  0  0  0  0  0  0  0  0  0
   18.5464   83.9482    9.3139 Cl  0  0  0  0  0  0  0  0  0  0  0  0
   18.2288   83.3765    7.7084 C   0  0  0  0  0  0  0  0  0  0  0  0
   17.8078   82.0386    7.6600 C   0  0  0  0  0  0  0  0  0  0  0  0
   17.5333   81.4190    6.4550 C   0  0  0  0  0  0  0  0  0  0  0  0
   17.6807   82.1632    5.3046 C   0  0  0  0  0  0  0  0  0  0  0  0
   17.4120   81.5657    4.1517 F   0  0  0  0  0  0  0  0  0  0  0  0
   18.3847   84.1629    6.5354 C   0  0  0  0  0  0  0  0  0  0  0  0
   18.0881   83.5044    5.3182 C   0  0  0  0  0  0  0  0  0  0  0  0
   18.2221   84.2515    3.7588 Cl  0  0  0  0  0  0  0  0  0  0  0  0
 25 26  1  0  0  0
 26 27  1  0  0  0
 26 31  2  0  0  0
 27 28  2  0  0  0
 28 29  1  0  0  0
 29 30  1  0  0  0
 29 32  2  0  0  0
 31 32  1  0  0  0
 31 23  1  0  0  0
 32 33  1  0  0  0
 23 24  1  0  0  0
 23 22  1  0  0  0
 22  1  1  0  0  0
  1  2  2  0  0  0
  1  3  1  0  0  0
  2  7  1  0  0  0
  3  4  1  0  0  0
  3  5  2  0  0  0
  5  6  1  0  0  0
  6  7  2  0  0  0
  7 10  1  0  0  0
 10 11  1  0  0  0
 10 12  2  0  0  0
 11 14  2  0  0  0
 12 13  1  0  0  0
 13 14  1  0  0  0
 13 15  1  0  0  0
 15 16  1  0  0  0
 15 20  1  0  0  0
 16 17  1  0  0  0
 17 18  1  0  0  0
 18 19  1  0  0  0
 19 20  1  0  0  0
  4  8  1  0  0  0
  4  9  1  0  0  0
 18 21  1  0  0  0
M  END
> <minimizedAffinity>
-10.46038

$$$$
2WGJ_VGH_A_2346


 33 36  0  0  0  0  0  0  0  0999 V2000
   21.7168   85.0363    5.6910 C   0  0  0  0  0  0  0  0  0  0  0  0
   21.6641   84.6381    4.3370 C   0  0  0  0  0  0  0  0  0  0  0  0
   22.9695   84.9498    6.3180 C   0  0  0  0  0  0  0  0  0  0  0  0
   23.1098   85.3149    7.6620 N   0  0  0  0  0  0  0  0  0  0  0  0
   24.0927   84.5274    5.6863 N   0  0  0  0  0  0  0  0  0  0  0  0
   23.9969   84.1628    4.3899 C   0  0  0  0  0  0  0  0  0  0  0  0
   22.8197   84.1939    3.6526 C   0  0  0  0  0  0  0  0  0  0  0  0
   22.3279   85.6293    8.1709 H   0  0  0  0  0  0  0  0  0  0  0  0
   23.9905   85.2574    8.0984 H   0  0  0  0  0  0  0  0  0  0  0  0
   22.8300   83.7474    2.2630 C   0  0  0  0  0  0  0  0  0  0  0  0
   21.9376   82.9587    1.4945 C   0  0  0  0  0  0  0  0  0  0  0  0
   23.8563   83.9965    1.3715 C   0  0  0  0  0  0  0  0  0  0  0  0
   23.5389   83.4091    0.1858 N   0  0  0  0  0  0  0  0  0  0  0  0
   22.3545   82.7597    0.2406 N   0  0  0  0  0  0  0  0  0  0  0  0
   24.3342   83.4408   -1.0451 C   0  0  0  0  0  0  0  0  0  0  0  0
   23.6569   84.0417   -2.2919 C   0  0  0  0  0  0  0  0  0  0  0  0
   24.0255   85.4780   -2.6674 C   0  0  0  0  0  0  0  0  0  0  0  0
   25.4810   85.7747   -2.4414 N   0  0  0  0  0  0  0  0  0  0  0  0
   26.0294   85.3850   -1.1027 C   0  0  0  0  0  0  0  0  0  0  0  0
   25.7926   83.8965   -0.8542 C   0  0  0  0  0  0  0  0  0  0  0  0
   25.6160   86.7795   -2.5537 H   0  0  0  0  0  0  0  0  0  0  0  0
   20.7032   85.5059    6.5049 O   0  0  0  0  0  0  0  0  0  0  0  0
   19.2980   85.5254    6.1687 C   0  0  0  0  0  0  0  0  0  0  0  0
   18.6053   86.3999    7.2102 C   0  0  0  0  0  0  0  0  0  0  0  0
   18.2805   84.3955    3.3526 Cl  0  0  0  0  0  0  0  0  0  0  0  0
   18.2450   83.5604    4.8715 C   0  0  0  0  0  0  0  0  0  0  0  0
   17.7077   82.2666    4.7902 C   0  0  0  0  0  0  0  0  0  0  0  0
   17.5859   81.4716    5.9147 C   0  0  0  0  0  0  0  0  0  0  0  0
   18.0171   81.9915    7.1158 C   0  0  0  0  0  0  0  0  0  0  0  0
   17.9022   81.2234    8.1906 F   0  0  0  0  0  0  0  0  0  0  0  0
   18.6981   84.1153    6.0985 C   0  0  0  0  0  0  0  0  0  0  0  0
   18.5689   83.2750    7.2300 C   0  0  0  0  0  0  0  0  0  0  0  0
   19.0351   83.7386    8.8349 Cl  0  0  0  0  0  0  0  0  0  0  0  0
 25 26  1  0  0  0
 26 27  1  0  0  0
 26 31  2  0  0  0
 27 28  2  0  0  0
 28 29  1  0  0  0
 29 30  1  0  0  0
 29 32  2  0  0  0
 31 32  1  0  0  0
 31 23  1  0  0  0
 32 33  1  0  0  0
 23 24  1  0  0  0
 23 22  1  0  0  0
 22  1  1  0  0  0
  1  2  2  0  0  0
  1  3  1  0  0  0
  2  7  1  0  0  0
  3  4  1  0  0  0
  3  5  2  0  0  0
  5  6  1  0  0  0
  6  7  2  0  0  0
  7 10  1  0  0  0
 10 11  1  0  0  0
 10 12  2  0  0  0
 11 14  2  0  0  0
 12 13  1  0  0  0
 13 14  1  0  0  0
 13 15  1  0  0  0
 15 16  1  0  0  0
 15 20  1  0  0  0
 16 17  1  0  0  0
 17 18  1  0  0  0
 18 19  1  0  0  0
 19 20  1  0  0  0
  4  8  1  0  0  0
  4  9  1  0  0  0
 18 21  1  0  0  0
M  END
> <minimizedAffinity>
-9.23408

$$$$
2WGJ_VGH_A_2346


 33 36  0  0  0  0  0  0  0  0999 V2000
   21.5547   84.7739    4.3239 C   0  0  0  0  0  0  0  0  0  0  0  0
   21.9891   84.4504    3.0195 C   0  0  0  0  0  0  0  0  0  0  0  0
   22.5443   84.8142    5.3184 C   0  0  0  0  0  0  0  0  0  0  0  0
   22.2000   85.1168    6.6410 N   0  0  0  0  0  0  0  0  0  0  0  0
   23.8572   84.5774    5.0750 N   0  0  0  0  0  0  0  0  0  0  0  0
   24.2282   84.2784    3.8118 C   0  0  0  0  0  0  0  0  0  0  0  0
   23.3521   84.1992    2.7362 C   0  0  0  0  0  0  0  0  0  0  0  0
   21.2613   85.2977    6.8762 H   0  0  0  0  0  0  0  0  0  0  0  0
   22.8966   85.1487    7.3360 H   0  0  0  0  0  0  0  0  0  0  0  0
   23.8636   83.8382    1.4178 C   0  0  0  0  0  0  0  0  0  0  0  0
   23.3397   83.9729    0.1076 C   0  0  0  0  0  0  0  0  0  0  0  0
   25.0564   83.1754    1.1987 C   0  0  0  0  0  0  0  0  0  0  0  0
   25.1937   82.9825   -0.1413 N   0  0  0  0  0  0  0  0  0  0  0  0
   24.1404   83.4682   -0.8358 N   0  0  0  0  0  0  0  0  0  0  0  0
   26.3226   82.3396   -0.8200 C   0  0  0  0  0  0  0  0  0  0  0  0
   26.9984   81.1680   -0.0817 C   0  0  0  0  0  0  0  0  0  0  0  0
   26.6323   79.7518   -0.5291 C   0  0  0  0  0  0  0  0  0  0  0  0
   26.4641   79.6460   -2.0184 N   0  0  0  0  0  0  0  0  0  0  0  0
   25.5871   80.6810   -2.6542 C   0  0  0  0  0  0  0  0  0  0  0  0
   26.1038   82.0796   -2.3218 C   0  0  0  0  0  0  0  0  0  0  0  0
   26.0651   78.7300   -2.2233 H   0  0  0  0  0  0  0  0  0  0  0  0
   20.2805   85.0611    4.7756 O   0  0  0  0  0  0  0  0  0  0  0  0
   19.1129   84.2337    4.5755 C   0  0  0  0  0  0  0  0  0  0  0  0
   18.1235   85.0549    3.7534 C   0  0  0  0  0  0  0  0  0  0  0  0
   18.8847   86.2748    7.0299 Cl  0  0  0  0  0  0  0  0  0  0  0  0
   18.3725   84.6186    7.0161 C   0  0  0  0  0  0  0  0  0  0  0  0
   17.8098   84.1931    8.2292 C   0  0  0  0  0  0  0  0  0  0  0  0
   17.3695   82.8932    8.3956 C   0  0  0  0  0  0  0  0  0  0  0  0
   17.4961   82.0328    7.3266 C   0  0  0  0  0  0  0  0  0  0  0  0
   17.0683   80.7884    7.4898 F   0  0  0  0  0  0  0  0  0  0  0  0
   18.5102   83.7495    5.9005 C   0  0  0  0  0  0  0  0  0  0  0  0
   18.0428   82.4283    6.0979 C   0  0  0  0  0  0  0  0  0  0  0  0
   18.1216   81.1859    4.8904 Cl  0  0  0  0  0  0  0  0  0  0  0  0
 25 26  1  0  0  0
 26 27  1  0  0  0
 26 31  2  0  0  0
 27 28  2  0  0  0
 28 29  1  0  0  0
 29 30  1  0  0  0
 29 32  2  0  0  0
 31 32  1  0  0  0
 31 23  1  0  0  0
 32 33  1  0  0  0
 23 24  1  0  0  0
 23 22  1  0  0  0
 22  1  1  0  0  0
  1  2  2  0  0  0
  1  3  1  0  0  0
  2  7  1  0  0  0
  3  4  1  0  0  0
  3  5  2  0  0  0
  5  6  1  0  0  0
  6  7  2  0  0  0
  7 10  1  0  0  0
 10 11  1  0  0  0
 10 12  2  0  0  0
 11 14  2  0  0  0
 12 13  1  0  0  0
 13 14  1  0  0  0
 13 15  1  0  0  0
 15 16  1  0  0  0
 15 20  1  0  0  0
 16 17  1  0  0  0
 17 18  1  0  0  0
 18 19  1  0  0  0
 19 20  1  0  0  0
  4  8  1  0  0  0
  4  9  1  0  0  0
 18 21  1  0  0  0
M  END
> <minimizedAffinity>
-9.07434

$$$$
2WGJ_VGH_A_2346


 33 36  0  0  0  0  0  0  0  0999 V2000
   21.4064   84.0635    3.5465 C   0  0  0  0  0  0  0  0  0  0  0  0
   21.5579   83.1546    2.4761 C   0  0  0  0  0  0  0  0  0  0  0  0
   22.5053   84.8924    3.8207 C   0  0  0  0  0  0  0  0  0  0  0  0
   22.4447   85.8158    4.8710 N   0  0  0  0  0  0  0  0  0  0  0  0
   23.6591   84.8623    3.1087 N   0  0  0  0  0  0  0  0  0  0  0  0
   23.7572   83.9820    2.0897 C   0  0  0  0  0  0  0  0  0  0  0  0
   22.7497   83.1014    1.7157 C   0  0  0  0  0  0  0  0  0  0  0  0
   21.6315   85.8818    5.4221 H   0  0  0  0  0  0  0  0  0  0  0  0
   23.2152   86.3991    5.0587 H   0  0  0  0  0  0  0  0  0  0  0  0
   22.9796   82.1723    0.6138 C   0  0  0  0  0  0  0  0  0  0  0  0
   22.1086   81.4287   -0.2213 C   0  0  0  0  0  0  0  0  0  0  0  0
   24.2288   81.7669    0.1835 C   0  0  0  0  0  0  0  0  0  0  0  0
   24.0587   80.8822   -0.8363 N   0  0  0  0  0  0  0  0  0  0  0  0
   22.7524   80.6576   -1.1025 N   0  0  0  0  0  0  0  0  0  0  0  0
   25.1175   80.2189   -1.6028 C   0  0  0  0  0  0  0  0  0  0  0  0
   26.5660   80.6447   -1.2948 C   0  0  0  0  0  0  0  0  0  0  0  0
   27.3933   79.7219   -0.3982 C   0  0  0  0  0  0  0  0  0  0  0  0
   27.1262   78.2684   -0.6689 N   0  0  0  0  0  0  0  0  0  0  0  0
   25.6843   77.8640   -0.7139 C   0  0  0  0  0  0  0  0  0  0  0  0
   24.9403   78.6970   -1.7561 C   0  0  0  0  0  0  0  0  0  0  0  0
   27.5800   77.7254    0.0657 H   0  0  0  0  0  0  0  0  0  0  0  0
   20.3208   84.2623    4.3784 O   0  0  0  0  0  0  0  0  0  0  0  0
   18.9810   83.7763    4.1402 C   0  0  0  0  0  0  0  0  0  0  0  0
   18.1409   84.9797    3.7216 C   0  0  0  0  0  0  0  0  0  0  0  0
   17.6868   80.8721    3.7754 Cl  0  0  0  0  0  0  0  0  0  0  0  0
   17.8263   81.7590    5.2584 C   0  0  0  0  0  0  0  0  0  0  0  0
   17.3036   81.0819    6.3709 C   0  0  0  0  0  0  0  0  0  0  0  0
   17.3147   81.6574    7.6278 C   0  0  0  0  0  0  0  0  0  0  0  0
   17.8633   82.9155    7.7508 C   0  0  0  0  0  0  0  0  0  0  0  0
   17.8755   83.4613    8.9592 F   0  0  0  0  0  0  0  0  0  0  0  0
   18.3990   83.0552    5.3627 C   0  0  0  0  0  0  0  0  0  0  0  0
   18.4041   83.6146    6.6628 C   0  0  0  0  0  0  0  0  0  0  0  0
   19.0315   85.1883    7.0341 Cl  0  0  0  0  0  0  0  0  0  0  0  0
 25 26  1  0  0  0
 26 27  1  0  0  0
 26 31  2  0  0  0
 27 28  2  0  0  0
 28 29  1  0  0  0
 29 30  1  0  0  0
 29 32  2  0  0  0
 31 32  1  0  0  0
 31 23  1  0  0  0
 32 33  1  0  0  0
 23 24  1  0  0  0
 23 22  1  0  0  0
 22  1  1  0  0  0
  1  2  2  0  0  0
  1  3  1  0  0  0
  2  7  1  0  0  0
  3  4  1  0  0  0
  3  5  2  0  0  0
  5  6  1  0  0  0
  6  7  2  0  0  0
  7 10  1  0  0  0
 10 11  1  0  0  0
 10 12  2  0  0  0
 11 14  2  0  0  0
 12 13  1  0  0  0
 13 14  1  0  0  0
 13 15  1  0  0  0
 15 16  1  0  0  0
 15 20  1  0  0  0
 16 17  1  0  0  0
 17 18  1  0  0  0
 18 19  1  0  0  0
 19 20  1  0  0  0
  4  8  1  0  0  0
  4  9  1  0  0  0
 18 21  1  0  0  0
M  END
> <minimizedAffinity>
-9.05464

$$$$
2WGJ_VGH_A_2346


 33 36  0  0  0  0  0  0  0  0999 V2000
   21.5415   84.7745    4.3701 C   0  0  0  0  0  0  0  0  0  0  0  0
   22.0300   84.4580    3.0833 C   0  0  0  0  0  0  0  0  0  0  0  0
   22.4904   84.8194    5.4034 C   0  0  0  0  0  0  0  0  0  0  0  0
   22.0913   85.1157    6.7120 N   0  0  0  0  0  0  0  0  0  0  0  0
   23.8137   84.5933    5.2120 N   0  0  0  0  0  0  0  0  0  0  0  0
   24.2369   84.3006    3.9637 C   0  0  0  0  0  0  0  0  0  0  0  0
   23.4051   84.2179    2.8539 C   0  0  0  0  0  0  0  0  0  0  0  0
   21.1426   85.2890    6.9100 H   0  0  0  0  0  0  0  0  0  0  0  0
   22.7594   85.1509    7.4343 H   0  0  0  0  0  0  0  0  0  0  0  0
   23.9714   83.8644    1.5560 C   0  0  0  0  0  0  0  0  0  0  0  0
   25.1953   83.2651    1.1662 C   0  0  0  0  0  0  0  0  0  0  0  0
   23.3689   84.1363    0.3422 C   0  0  0  0  0  0  0  0  0  0  0  0
   24.1912   83.6929   -0.6472 N   0  0  0  0  0  0  0  0  0  0  0  0
   25.3289   83.1505   -0.1584 N   0  0  0  0  0  0  0  0  0  0  0  0
   23.9359   83.7571   -2.0892 C   0  0  0  0  0  0  0  0  0  0  0  0
   22.4615   83.7076   -2.5343 C   0  0  0  0  0  0  0  0  0  0  0  0
   21.7979   85.0327   -2.9133 C   0  0  0  0  0  0  0  0  0  0  0  0
   22.7295   85.9498   -3.6538 N   0  0  0  0  0  0  0  0  0  0  0  0
   24.0786   86.1533   -3.0348 C   0  0  0  0  0  0  0  0  0  0  0  0
   24.7738   84.8067   -2.8423 C   0  0  0  0  0  0  0  0  0  0  0  0
   22.2782   86.8617   -3.7259 H   0  0  0  0  0  0  0  0  0  0  0  0
   20.2482   85.0509    4.7715 O   0  0  0  0  0  0  0  0  0  0  0  0
   19.1013   84.1999    4.5513 C   0  0  0  0  0  0  0  0  0  0  0  0
   18.1072   85.0030    3.7170 C   0  0  0  0  0  0  0  0  0  0  0  0
   18.8164   86.2210    7.0163 Cl  0  0  0  0  0  0  0  0  0  0  0  0
   18.3266   84.5582    6.9853 C   0  0  0  0  0  0  0  0  0  0  0  0
   17.7550   84.1171    8.1886 C   0  0  0  0  0  0  0  0  0  0  0  0
   17.3302   82.8103    8.3410 C   0  0  0  0  0  0  0  0  0  0  0  0
   17.4811   81.9590    7.2679 C   0  0  0  0  0  0  0  0  0  0  0  0
   17.0680   80.7079    7.4176 F   0  0  0  0  0  0  0  0  0  0  0  0
   18.4893   83.6988    5.8657 C   0  0  0  0  0  0  0  0  0  0  0  0
   18.0372   82.3701    6.0486 C   0  0  0  0  0  0  0  0  0  0  0  0
   18.1471   81.1371    4.8339 Cl  0  0  0  0  0  0  0  0  0  0  0  0
 25 26  1  0  0  0
 26 27  1  0  0  0
 26 31  2  0  0  0
 27 28  2  0  0  0
 28 29  1  0  0  0
 29 30  1  0  0  0
 29 32  2  0  0  0
 31 32  1  0  0  0
 31 23  1  0  0  0
 32 33  1  0  0  0
 23 24  1  0  0  0
 23 22  1  0  0  0
 22  1  1  0  0  0
  1  2  2  0  0  0
  1  3  1  0  0  0
  2  7  1  0  0  0
  3  4  1  0  0  0
  3  5  2  0  0  0
  5  6  1  0  0  0
  6  7  2  0  0  0
  7 10  1  0  0  0
 10 11  1  0  0  0
 10 12  2  0  0  0
 11 14  2  0  0  0
 12 13  1  0  0  0
 13 14  1  0  0  0
 13 15  1  0  0  0
 15 16  1  0  0  0
 15 20  1  0  0  0
 16 17  1  0  0  0
 17 18  1  0  0  0
 18 19  1  0  0  0
 19 20  1  0  0  0
  4  8  1  0  0  0
  4  9  1  0  0  0
 18 21  1  0  0  0
M  END
> <minimizedAffinity>
-9.00269

$$$$
2WGJ_VGH_A_2346


 33 36  0  0  0  0  0  0  0  0999 V2000
   18.5590   83.2368    6.9202 C   0  0  0  0  0  0  0  0  0  0  0  0
   18.5805   82.8184    5.5714 C   0  0  0  0  0  0  0  0  0  0  0  0
   17.7816   82.4669    7.7994 C   0  0  0  0  0  0  0  0  0  0  0  0
   17.6961   82.8164    9.1522 N   0  0  0  0  0  0  0  0  0  0  0  0
   17.0889   81.3664    7.4148 N   0  0  0  0  0  0  0  0  0  0  0  0
   17.1436   80.9994    6.1167 C   0  0  0  0  0  0  0  0  0  0  0  0
   17.8682   81.6742    5.1419 C   0  0  0  0  0  0  0  0  0  0  0  0
   18.1784   83.6062    9.4880 H   0  0  0  0  0  0  0  0  0  0  0  0
   17.1536   82.2723    9.7678 H   0  0  0  0  0  0  0  0  0  0  0  0
   17.8296   81.2015    3.7616 C   0  0  0  0  0  0  0  0  0  0  0  0
   18.7622   81.2539    2.6954 C   0  0  0  0  0  0  0  0  0  0  0  0
   16.7311   80.6049    3.1720 C   0  0  0  0  0  0  0  0  0  0  0  0
   17.0458   80.3232    1.8784 N   0  0  0  0  0  0  0  0  0  0  0  0
   18.2994   80.7181    1.5621 N   0  0  0  0  0  0  0  0  0  0  0  0
   16.1821   79.6670    0.8926 C   0  0  0  0  0  0  0  0  0  0  0  0
   16.3239   80.1308   -0.5701 C   0  0  0  0  0  0  0  0  0  0  0  0
   17.1431   79.2455   -1.5108 C   0  0  0  0  0  0  0  0  0  0  0  0
   16.9302   77.7811   -1.2511 N   0  0  0  0  0  0  0  0  0  0  0  0
   17.0487   77.3445    0.1772 C   0  0  0  0  0  0  0  0  0  0  0  0
   16.0775   78.1387    1.0487 C   0  0  0  0  0  0  0  0  0  0  0  0
   17.6217   77.2639   -1.7941 H   0  0  0  0  0  0  0  0  0  0  0  0
   19.1988   84.3083    7.5142 O   0  0  0  0  0  0  0  0  0  0  0  0
   19.6939   85.4775    6.8243 C   0  0  0  0  0  0  0  0  0  0  0  0
   18.6707   85.8221    5.7456 C   0  0  0  0  0  0  0  0  0  0  0  0
   22.1524   85.0213    8.8218 Cl  0  0  0  0  0  0  0  0  0  0  0  0
   22.2217   85.0384    7.0896 C   0  0  0  0  0  0  0  0  0  0  0  0
   23.5097   84.8236    6.5755 C   0  0  0  0  0  0  0  0  0  0  0  0
   23.7452   84.8281    5.2132 C   0  0  0  0  0  0  0  0  0  0  0  0
   22.6700   85.0438    4.3786 C   0  0  0  0  0  0  0  0  0  0  0  0
   22.9003   85.0428    3.0728 F   0  0  0  0  0  0  0  0  0  0  0  0
   21.0988   85.2600    6.2478 C   0  0  0  0  0  0  0  0  0  0  0  0
   21.3693   85.2502    4.8586 C   0  0  0  0  0  0  0  0  0  0  0  0
   20.1652   85.5153    3.6388 Cl  0  0  0  0  0  0  0  0  0  0  0  0
 25 26  1  0  0  0
 26 27  1  0  0  0
 26 31  2  0  0  0
 27 28  2  0  0  0
 28 29  1  0  0  0
 29 30  1  0  0  0
 29 32  2  0  0  0
 31 32  1  0  0  0
 31 23  1  0  0  0
 32 33  1  0  0  0
 23 24  1  0  0  0
 23 22  1  0  0  0
 22  1  1  0  0  0
  1  2  2  0  0  0
  1  3  1  0  0  0
  2  7  1  0  0  0
  3  4  1  0  0  0
  3  5  2  0  0  0
  5  6  1  0  0  0
  6  7  2  0  0  0
  7 10  1  0  0  0
 10 11  1  0  0  0
 10 12  2  0  0  0
 11 14  2  0  0  0
 12 13  1  0  0  0
 13 14  1  0  0  0
 13 15  1  0  0  0
 15 16  1  0  0  0
 15 20  1  0  0  0
 16 17  1  0  0  0
 17 18  1  0  0  0
 18 19  1  0  0  0
 19 20  1  0  0  0
  4  8  1  0  0  0
  4  9  1  0  0  0
 18 21  1  0  0  0
M  END
> <minimizedAffinity>
-8.78204

$$$$
2WGJ_VGH_A_2346


 33 36  0  0  0  0  0  0  0  0999 V2000
   21.4940   84.7020    4.2172 C   0  0  0  0  0  0  0  0  0  0  0  0
   21.8366   84.3330    2.8976 C   0  0  0  0  0  0  0  0  0  0  0  0
   22.5513   84.7803    5.1369 C   0  0  0  0  0  0  0  0  0  0  0  0
   22.3000   85.1293    6.4690 N   0  0  0  0  0  0  0  0  0  0  0  0
   23.8448   84.5381    4.8096 N   0  0  0  0  0  0  0  0  0  0  0  0
   24.1269   84.1948    3.5347 C   0  0  0  0  0  0  0  0  0  0  0  0
   23.1773   84.0751    2.5275 C   0  0  0  0  0  0  0  0  0  0  0  0
   21.3794   85.3163    6.7636 H   0  0  0  0  0  0  0  0  0  0  0  0
   23.0438   85.1877    7.1113 H   0  0  0  0  0  0  0  0  0  0  0  0
   23.5960   83.6682    1.1898 C   0  0  0  0  0  0  0  0  0  0  0  0
   23.1390   82.6669    0.2967 C   0  0  0  0  0  0  0  0  0  0  0  0
   24.6688   84.2124    0.5092 C   0  0  0  0  0  0  0  0  0  0  0  0
   24.7787   83.5740   -0.6875 N   0  0  0  0  0  0  0  0  0  0  0  0
   23.8411   82.6119   -0.8390 N   0  0  0  0  0  0  0  0  0  0  0  0
   25.7655   83.8482   -1.7361 C   0  0  0  0  0  0  0  0  0  0  0  0
   25.9356   85.3201   -2.1593 C   0  0  0  0  0  0  0  0  0  0  0  0
   27.1376   86.0785   -1.5937 C   0  0  0  0  0  0  0  0  0  0  0  0
   28.3683   85.2210   -1.5073 N   0  0  0  0  0  0  0  0  0  0  0  0
   28.1908   83.8831   -0.8569 C   0  0  0  0  0  0  0  0  0  0  0  0
   27.0980   83.0936   -1.5752 C   0  0  0  0  0  0  0  0  0  0  0  0
   29.0708   85.7357   -0.9763 H   0  0  0  0  0  0  0  0  0  0  0  0
   20.2536   85.0021    4.7476 O   0  0  0  0  0  0  0  0  0  0  0  0
   19.0546   84.2140    4.5762 C   0  0  0  0  0  0  0  0  0  0  0  0
   18.0721   85.0691    3.7808 C   0  0  0  0  0  0  0  0  0  0  0  0
   18.8982   86.2752    7.0195 Cl  0  0  0  0  0  0  0  0  0  0  0  0
   18.3644   84.6257    7.0272 C   0  0  0  0  0  0  0  0  0  0  0  0
   17.8187   84.2162    8.2534 C   0  0  0  0  0  0  0  0  0  0  0  0
   17.3648   82.9234    8.4374 C   0  0  0  0  0  0  0  0  0  0  0  0
   17.4605   82.0539    7.3726 C   0  0  0  0  0  0  0  0  0  0  0  0
   17.0198   80.8164    7.5527 F   0  0  0  0  0  0  0  0  0  0  0  0
   18.4703   83.7471    5.9156 C   0  0  0  0  0  0  0  0  0  0  0  0
   17.9895   82.4336    6.1312 C   0  0  0  0  0  0  0  0  0  0  0  0
   18.0300   81.1817    4.9315 Cl  0  0  0  0  0  0  0  0  0  0  0  0
 25 26  1  0  0  0
 26 27  1  0  0  0
 26 31  2  0  0  0
 27 28  2  0  0  0
 28 29  1  0  0  0
 29 30  1  0  0  0
 29 32  2  0  0  0
 31 32  1  0  0  0
 31 23  1  0  0  0
 32 33  1  0  0  0
 23 24  1  0  0  0
 23 22  1  0  0  0
 22  1  1  0  0  0
  1  2  2  0  0  0
  1  3  1  0  0  0
  2  7  1  0  0  0
  3  4  1  0  0  0
  3  5  2  0  0  0
  5  6  1  0  0  0
  6  7  2  0  0  0
  7 10  1  0  0  0
 10 11  1  0  0  0
 10 12  2  0  0  0
 11 14  2  0  0  0
 12 13  1  0  0  0
 13 14  1  0  0  0
 13 15  1  0  0  0
 15 16  1  0  0  0
 15 20  1  0  0  0
 16 17  1  0  0  0
 17 18  1  0  0  0
 18 19  1  0  0  0
 19 20  1  0  0  0
  4  8  1  0  0  0
  4  9  1  0  0  0
 18 21  1  0  0  0
M  END
> <minimizedAffinity>
-8.78035

$$$$
2WGJ_VGH_A_2346


 33 36  0  0  0  0  0  0  0  0999 V2000
   18.4400   83.0125    6.5251 C   0  0  0  0  0  0  0  0  0  0  0  0
   18.5092   82.7137    5.1464 C   0  0  0  0  0  0  0  0  0  0  0  0
   17.6345   82.1691    7.3060 C   0  0  0  0  0  0  0  0  0  0  0  0
   17.5014   82.3989    8.6804 N   0  0  0  0  0  0  0  0  0  0  0  0
   16.9581   81.1069    6.8029 N   0  0  0  0  0  0  0  0  0  0  0  0
   17.0586   80.8549    5.4803 C   0  0  0  0  0  0  0  0  0  0  0  0
   17.8149   81.6119    4.5940 C   0  0  0  0  0  0  0  0  0  0  0  0
   17.9699   83.1560    9.1006 H   0  0  0  0  0  0  0  0  0  0  0  0
   16.9392   81.8034    9.2269 H   0  0  0  0  0  0  0  0  0  0  0  0
   17.8252   81.2619    3.1771 C   0  0  0  0  0  0  0  0  0  0  0  0
   17.5597   80.0585    2.4767 C   0  0  0  0  0  0  0  0  0  0  0  0
   18.1935   82.1258    2.1631 C   0  0  0  0  0  0  0  0  0  0  0  0
   18.1104   81.4533    0.9830 N   0  0  0  0  0  0  0  0  0  0  0  0
   17.7204   80.1703    1.1548 N   0  0  0  0  0  0  0  0  0  0  0  0
   18.3887   81.9929   -0.3511 C   0  0  0  0  0  0  0  0  0  0  0  0
   18.1815   81.0370   -1.5419 C   0  0  0  0  0  0  0  0  0  0  0  0
   16.8913   81.1908   -2.3491 C   0  0  0  0  0  0  0  0  0  0  0  0
   16.4881   82.6283   -2.5180 N   0  0  0  0  0  0  0  0  0  0  0  0
   16.4721   83.4559   -1.2693 C   0  0  0  0  0  0  0  0  0  0  0  0
   17.8423   83.4116   -0.5954 C   0  0  0  0  0  0  0  0  0  0  0  0
   15.5488   82.6445   -2.9155 H   0  0  0  0  0  0  0  0  0  0  0  0
   19.0563   84.0274    7.2323 O   0  0  0  0  0  0  0  0  0  0  0  0
   19.5421   85.2668    6.6702 C   0  0  0  0  0  0  0  0  0  0  0  0
   18.5997   85.6346    5.5275 C   0  0  0  0  0  0  0  0  0  0  0  0
   21.8515   84.9455    8.8624 Cl  0  0  0  0  0  0  0  0  0  0  0  0
   22.0642   85.0053    7.1429 C   0  0  0  0  0  0  0  0  0  0  0  0
   23.4030   84.8951    6.7369 C   0  0  0  0  0  0  0  0  0  0  0  0
   23.7507   84.9462    5.3999 C   0  0  0  0  0  0  0  0  0  0  0  0
   22.7363   85.1021    4.4803 C   0  0  0  0  0  0  0  0  0  0  0  0
   23.0746   85.1462    3.1989 F   0  0  0  0  0  0  0  0  0  0  0  0
   21.0024   85.1637    6.2121 C   0  0  0  0  0  0  0  0  0  0  0  0
   21.3883   85.2038    4.8510 C   0  0  0  0  0  0  0  0  0  0  0  0
   20.2744   85.4080    3.5374 Cl  0  0  0  0  0  0  0  0  0  0  0  0
 25 26  1  0  0  0
 26 27  1  0  0  0
 26 31  2  0  0  0
 27 28  2  0  0  0
 28 29  1  0  0  0
 29 30  1  0  0  0
 29 32  2  0  0  0
 31 32  1  0  0  0
 31 23  1  0  0  0
 32 33  1  0  0  0
 23 24  1  0  0  0
 23 22  1  0  0  0
 22  1  1  0  0  0
  1  2  2  0  0  0
  1  3  1  0  0  0
  2  7  1  0  0  0
  3  4  1  0  0  0
  3  5  2  0  0  0
  5  6  1  0  0  0
  6  7  2  0  0  0
  7 10  1  0  0  0
 10 11  1  0  0  0
 10 12  2  0  0  0
 11 14  2  0  0  0
 12 13  1  0  0  0
 13 14  1  0  0  0
 13 15  1  0  0  0
 15 16  1  0  0  0
 15 20  1  0  0  0
 16 17  1  0  0  0
 17 18  1  0  0  0
 18 19  1  0  0  0
 19 20  1  0  0  0
  4  8  1  0  0  0
  4  9  1  0  0  0
 18 21  1  0  0  0
M  END
> <minimizedAffinity>
-8.51109

$$$$
2WGJ_VGH_A_2346


 33 36  0  0  0  0  0  0  0  0999 V2000
   22.9437   83.2093    0.7369 C   0  0  0  0  0  0  0  0  0  0  0  0
   22.5245   83.6226    2.0208 C   0  0  0  0  0  0  0  0  0  0  0  0
   24.3268   83.2229    0.4984 C   0  0  0  0  0  0  0  0  0  0  0  0
   24.8287   82.8381   -0.7503 N   0  0  0  0  0  0  0  0  0  0  0  0
   25.2413   83.5906    1.4298 N   0  0  0  0  0  0  0  0  0  0  0  0
   24.7957   83.9720    2.6458 C   0  0  0  0  0  0  0  0  0  0  0  0
   23.4559   84.0109    3.0122 C   0  0  0  0  0  0  0  0  0  0  0  0
   24.2109   82.5612   -1.4651 H   0  0  0  0  0  0  0  0  0  0  0  0
   25.7995   82.8443   -0.9139 H   0  0  0  0  0  0  0  0  0  0  0  0
   23.0893   84.4693    4.3485 C   0  0  0  0  0  0  0  0  0  0  0  0
   23.8317   84.6700    5.5391 C   0  0  0  0  0  0  0  0  0  0  0  0
   21.7986   84.7651    4.7446 C   0  0  0  0  0  0  0  0  0  0  0  0
   21.8312   85.1301    6.0551 N   0  0  0  0  0  0  0  0  0  0  0  0
   23.0812   85.0770    6.5672 N   0  0  0  0  0  0  0  0  0  0  0  0
   20.6895   85.5479    6.8739 C   0  0  0  0  0  0  0  0  0  0  0  0
   19.3119   85.5658    6.1837 C   0  0  0  0  0  0  0  0  0  0  0  0
   18.3749   84.3879    6.4564 C   0  0  0  0  0  0  0  0  0  0  0  0
   18.4457   83.9164    7.8812 N   0  0  0  0  0  0  0  0  0  0  0  0
   19.8210   83.6785    8.4256 C   0  0  0  0  0  0  0  0  0  0  0  0
   20.6628   84.9462    8.2910 C   0  0  0  0  0  0  0  0  0  0  0  0
   17.9282   83.0398    7.9461 H   0  0  0  0  0  0  0  0  0  0  0  0
   22.1841   82.7869   -0.3376 O   0  0  0  0  0  0  0  0  0  0  0  0
   21.2607   81.6754   -0.3272 C   0  0  0  0  0  0  0  0  0  0  0  0
   21.3493   81.0129   -1.6992 C   0  0  0  0  0  0  0  0  0  0  0  0
   19.4356   83.0026   -2.5965 Cl  0  0  0  0  0  0  0  0  0  0  0  0
   18.9746   82.6919   -0.9544 C   0  0  0  0  0  0  0  0  0  0  0  0
   17.6602   83.0816   -0.6551 C   0  0  0  0  0  0  0  0  0  0  0  0
   17.1402   82.9246    0.6162 C   0  0  0  0  0  0  0  0  0  0  0  0
   17.9553   82.3657    1.5765 C   0  0  0  0  0  0  0  0  0  0  0  0
   17.4505   82.2133    2.7931 F   0  0  0  0  0  0  0  0  0  0  0  0
   19.8313   82.1113    0.0192 C   0  0  0  0  0  0  0  0  0  0  0  0
   19.2685   81.9552    1.3084 C   0  0  0  0  0  0  0  0  0  0  0  0
   20.1251   81.2892    2.6614 Cl  0  0  0  0  0  0  0  0  0  0  0  0
 25 26  1  0  0  0
 26 27  1  0  0  0
 26 31  2  0  0  0
 27 28  2  0  0  0
 28 29  1  0  0  0
 29 30  1  0  0  0
 29 32  2  0  0  0
 31 32  1  0  0  0
 31 23  1  0  0  0
 32 33  1  0  0  0
 23 24  1  0  0  0
 23 22  1  0  0  0
 22  1  1  0  0  0
  1  2  2  0  0  0
  1  3  1  0  0  0
  2  7  1  0  0  0
  3  4  1  0  0  0
  3  5  2  0  0  0
  5  6  1  0  0  0
  6  7  2  0  0  0
  7 10  1  0  0  0
 10 11  1  0  0  0
 10 12  2  0  0  0
 11 14  2  0  0  0
 12 13  1  0  0  0
 13 14  1  0  0  0
 13 15  1  0  0  0
 15 16  1  0  0  0
 15 20  1  0  0  0
 16 17  1  0  0  0
 17 18  1  0  0  0
 18 19  1  0  0  0
 19 20  1  0  0  0
  4  8  1  0  0  0
  4  9  1  0  0  0
 18 21  1  0  0  0
M  END
> <minimizedAffinity>
-8.39680

$$$$
