3QAA_G04_A_401


 43 46  0  0  0  0  0  0  0  0999 V2000
   17.5983   24.2767   18.4741 C   0  0  0  0  0  0  0  0  0  0  0  0
   18.4219   25.3244   17.8617 N   0  0  0  0  0  0  0  0  0  0  0  0
   19.3073   25.1369   16.8728 C   0  0  0  0  0  0  0  0  0  0  0  0
   19.4984   24.0209   16.3672 O   0  0  0  0  0  0  0  0  0  0  0  0
   18.3157   26.2409   18.2052 H   0  0  0  0  0  0  0  0  0  0  0  0
   19.9783   26.2568   16.4789 O   0  0  0  0  0  0  0  0  0  0  0  0
   20.3541   26.3324   15.1036 C   0  0  0  0  0  0  0  0  0  0  0  0
   19.6262   27.5357   14.4965 C   0  0  0  0  0  0  0  0  0  0  0  0
   20.3436   28.6749   14.9869 O   0  0  0  0  0  0  0  0  0  0  0  0
   21.6924   28.3190   15.2371 C   0  0  0  0  0  0  0  0  0  0  0  0
   22.0461   28.5749   16.6001 O   0  0  0  0  0  0  0  0  0  0  0  0
   22.4538   27.3754   17.2351 C   0  0  0  0  0  0  0  0  0  0  0  0
   22.7229   26.3619   16.1261 C   0  0  0  0  0  0  0  0  0  0  0  0
   21.8046   26.8267   14.9857 C   0  0  0  0  0  0  0  0  0  0  0  0
   24.0571   26.5697   15.6084 O   0  0  0  0  0  0  0  0  0  0  0  0
   25.0327   26.3693   16.6251 C   0  0  0  0  0  0  0  0  0  0  0  0
   16.1373   24.5219   18.0945 C   0  0  0  0  0  0  0  0  0  0  0  0
   15.6644   25.7209   18.7157 O   0  0  0  0  0  0  0  0  0  0  0  0
   15.6961   25.6198   19.6799 H   0  0  0  0  0  0  0  0  0  0  0  0
   15.2388   23.3154   18.3633 C   0  0  0  0  0  0  0  0  0  0  0  0
   15.6023   22.1884   17.5083 N   0  0  0  0  0  0  0  0  0  0  0  0
   16.1858   20.8294   18.2196 S   0  0  0  0  0  0  0  0  0  0  0  0
   16.8179   21.2159   19.5113 O   0  0  0  0  0  0  0  0  0  0  0  0
   17.1400   20.1568   17.2819 O   0  0  0  0  0  0  0  0  0  0  0  0
   12.8089   17.9040   19.1839 C   0  0  0  0  0  0  0  0  0  0  0  0
   12.6831   19.2562   19.4805 C   0  0  0  0  0  0  0  0  0  0  0  0
   13.7338   20.1412   19.2588 C   0  0  0  0  0  0  0  0  0  0  0  0
   14.8796   19.7124   18.5966 C   0  0  0  0  0  0  0  0  0  0  0  0
   14.9865   18.3628   18.3249 C   0  0  0  0  0  0  0  0  0  0  0  0
   13.9869   17.4381   18.6006 C   0  0  0  0  0  0  0  0  0  0  0  0
   11.7760   17.0192   19.3766 O   0  0  0  0  0  0  0  0  0  0  0  0
   11.4144   16.5029   18.0866 C   0  0  0  0  0  0  0  0  0  0  0  0
   14.6402   21.9567   16.4492 C   0  0  0  0  0  0  0  0  0  0  0  0
   15.1003   22.4064   15.0597 C   0  0  0  0  0  0  0  0  0  0  0  0
   16.5789   22.7595   14.9850 C   0  0  0  0  0  0  0  0  0  0  0  0
   14.7848   21.2923   14.0486 C   0  0  0  0  0  0  0  0  0  0  0  0
   17.8211   24.3190   19.9983 C   0  0  0  0  0  0  0  0  0  0  0  0
   20.0463   25.1521   20.9145 C   0  0  0  0  0  0  0  0  0  0  0  0
   21.4122   25.0269   21.1558 C   0  0  0  0  0  0  0  0  0  0  0  0
   22.0873   23.8374   20.8652 C   0  0  0  0  0  0  0  0  0  0  0  0
   21.3394   22.7980   20.2992 C   0  0  0  0  0  0  0  0  0  0  0  0
   19.9762   22.9344   20.0248 C   0  0  0  0  0  0  0  0  0  0  0  0
   19.3143   24.1254   20.3235 C   0  0  0  0  0  0  0  0  0  0  0  0
 26 25  2  0  0  0
 31 25  1  0  0  0
 25 30  1  0  0  0
 26 27  1  0  0  0
 27 28  2  0  0  0
 28 29  1  0  0  0
 28 22  1  0  0  0
 30 29  2  0  0  0
 23 22  2  0  0  0
 22 24  2  0  0  0
 22 21  1  0  0  0
 21 20  1  0  0  0
 21 33  1  0  0  0
 33 34  1  0  0  0
 35 34  1  0  0  0
 34 36  1  0  0  0
 20 17  1  0  0  0
  1 17  1  0  0  0
 17 18  1  0  0  0
 37  1  1  0  0  0
  1  2  1  0  0  0
  2  3  1  0  0  0
  4  3  2  0  0  0
  3  6  1  0  0  0
  6  7  1  0  0  0
 14  7  1  0  0  0
  7  8  1  0  0  0
  9  8  1  0  0  0
 10  9  1  0  0  0
 14 10  1  0  0  0
 11 10  1  0  0  0
 12 11  1  0  0  0
 13 12  1  0  0  0
 15 13  1  0  0  0
 13 14  1  0  0  0
 43 37  1  0  0  0
 39 38  2  0  0  0
 38 43  1  0  0  0
 40 39  1  0  0  0
 40 41  2  0  0  0
 41 42  1  0  0  0
 42 43  2  0  0  0
 31 32  1  0  0  0
 16 15  1  0  0  0
 18 19  1  0  0  0
  2  5  1  0  0  0
M  END
> <minimizedAffinity>
-9.67449

$$$$
3QAA_G04_A_401


 43 46  0  0  0  0  0  0  0  0999 V2000
   14.8514   21.6620   16.0593 C   0  0  0  0  0  0  0  0  0  0  0  0
   13.9692   21.1053   17.0903 N   0  0  0  0  0  0  0  0  0  0  0  0
   14.2724   20.0820   17.9014 C   0  0  0  0  0  0  0  0  0  0  0  0
   15.3719   19.5106   17.8524 O   0  0  0  0  0  0  0  0  0  0  0  0
   13.0812   21.5171   17.1953 H   0  0  0  0  0  0  0  0  0  0  0  0
   13.2836   19.7195   18.7676 O   0  0  0  0  0  0  0  0  0  0  0  0
   13.5306   18.5753   19.5850 C   0  0  0  0  0  0  0  0  0  0  0  0
   13.0427   18.9092   20.9980 C   0  0  0  0  0  0  0  0  0  0  0  0
   11.6150   18.8207   20.9158 O   0  0  0  0  0  0  0  0  0  0  0  0
   11.2506   17.8995   19.9024 C   0  0  0  0  0  0  0  0  0  0  0  0
   10.4187   18.5220   18.9182 O   0  0  0  0  0  0  0  0  0  0  0  0
   11.0307   18.4511   17.6420 C   0  0  0  0  0  0  0  0  0  0  0  0
   12.1434   17.4117   17.7466 C   0  0  0  0  0  0  0  0  0  0  0  0
   12.5374   17.4571   19.2307 C   0  0  0  0  0  0  0  0  0  0  0  0
   11.5766   16.0925   17.5747 O   0  0  0  0  0  0  0  0  0  0  0  0
   10.7076   16.0565   16.4482 C   0  0  0  0  0  0  0  0  0  0  0  0
   15.6847   22.7816   16.6845 C   0  0  0  0  0  0  0  0  0  0  0  0
   15.3769   24.0302   16.0571 O   0  0  0  0  0  0  0  0  0  0  0  0
   15.6147   23.9872   15.1177 H   0  0  0  0  0  0  0  0  0  0  0  0
   17.1816   22.4748   16.7021 C   0  0  0  0  0  0  0  0  0  0  0  0
   17.8825   23.3310   17.6554 N   0  0  0  0  0  0  0  0  0  0  0  0
   18.1548   22.7519   19.1665 S   0  0  0  0  0  0  0  0  0  0  0  0
   18.3961   21.2859   19.0658 O   0  0  0  0  0  0  0  0  0  0  0  0
   16.9864   23.0917   20.0392 O   0  0  0  0  0  0  0  0  0  0  0  0
   21.9066   24.6407   20.9689 C   0  0  0  0  0  0  0  0  0  0  0  0
   21.9741   23.4205   20.3065 C   0  0  0  0  0  0  0  0  0  0  0  0
   20.8263   22.8026   19.8198 C   0  0  0  0  0  0  0  0  0  0  0  0
   19.6056   23.4688   19.8574 C   0  0  0  0  0  0  0  0  0  0  0  0
   19.5616   24.6726   20.5324 C   0  0  0  0  0  0  0  0  0  0  0  0
   20.6752   25.2831   21.0958 C   0  0  0  0  0  0  0  0  0  0  0  0
   23.0307   25.2755   21.4380 O   0  0  0  0  0  0  0  0  0  0  0  0
   23.6834   24.3694   22.3404 C   0  0  0  0  0  0  0  0  0  0  0  0
   19.0037   24.0304   17.0597 C   0  0  0  0  0  0  0  0  0  0  0  0
   18.7797   25.5300   16.8461 C   0  0  0  0  0  0  0  0  0  0  0  0
   19.9730   26.3921   17.2325 C   0  0  0  0  0  0  0  0  0  0  0  0
   18.4248   25.7728   15.3702 C   0  0  0  0  0  0  0  0  0  0  0  0
   13.9745   22.1657   14.8965 C   0  0  0  0  0  0  0  0  0  0  0  0
   11.7941   20.8831   14.6039 C   0  0  0  0  0  0  0  0  0  0  0  0
   11.0425   19.8053   14.1422 C   0  0  0  0  0  0  0  0  0  0  0  0
   11.6129   18.8335   13.3142 C   0  0  0  0  0  0  0  0  0  0  0  0
   12.9690   18.9774   12.9974 C   0  0  0  0  0  0  0  0  0  0  0  0
   13.7328   20.0397   13.4881 C   0  0  0  0  0  0  0  0  0  0  0  0
   13.1498   21.0043   14.3100 C   0  0  0  0  0  0  0  0  0  0  0  0
 26 25  2  0  0  0
 31 25  1  0  0  0
 25 30  1  0  0  0
 26 27  1  0  0  0
 27 28  2  0  0  0
 28 29  1  0  0  0
 28 22  1  0  0  0
 30 29  2  0  0  0
 23 22  2  0  0  0
 22 24  2  0  0  0
 22 21  1  0  0  0
 21 20  1  0  0  0
 21 33  1  0  0  0
 33 34  1  0  0  0
 35 34  1  0  0  0
 34 36  1  0  0  0
 20 17  1  0  0  0
  1 17  1  0  0  0
 17 18  1  0  0  0
 37  1  1  0  0  0
  1  2  1  0  0  0
  2  3  1  0  0  0
  4  3  2  0  0  0
  3  6  1  0  0  0
  6  7  1  0  0  0
 14  7  1  0  0  0
  7  8  1  0  0  0
  9  8  1  0  0  0
 10  9  1  0  0  0
 14 10  1  0  0  0
 11 10  1  0  0  0
 12 11  1  0  0  0
 13 12  1  0  0  0
 15 13  1  0  0  0
 13 14  1  0  0  0
 43 37  1  0  0  0
 39 38  2  0  0  0
 38 43  1  0  0  0
 40 39  1  0  0  0
 40 41  2  0  0  0
 41 42  1  0  0  0
 42 43  2  0  0  0
 31 32  1  0  0  0
 16 15  1  0  0  0
 18 19  1  0  0  0
  2  5  1  0  0  0
M  END
> <minimizedAffinity>
-9.63636

$$$$
3QAA_G04_A_401


 43 46  0  0  0  0  0  0  0  0999 V2000
   16.6975   24.6003   16.5627 C   0  0  0  0  0  0  0  0  0  0  0  0
   17.8710   25.4707   16.4349 N   0  0  0  0  0  0  0  0  0  0  0  0
   19.0888   25.0780   16.0351 C   0  0  0  0  0  0  0  0  0  0  0  0
   19.3265   23.9036   15.7155 O   0  0  0  0  0  0  0  0  0  0  0  0
   17.7548   26.4217   16.6613 H   0  0  0  0  0  0  0  0  0  0  0  0
   20.0348   26.0599   16.0170 O   0  0  0  0  0  0  0  0  0  0  0  0
   20.5051   26.4778   14.7353 C   0  0  0  0  0  0  0  0  0  0  0  0
   19.7794   27.7804   14.3847 C   0  0  0  0  0  0  0  0  0  0  0  0
   20.4181   28.7766   15.1925 O   0  0  0  0  0  0  0  0  0  0  0  0
   21.7575   28.3939   15.4533 C   0  0  0  0  0  0  0  0  0  0  0  0
   22.0033   28.3132   16.8609 O   0  0  0  0  0  0  0  0  0  0  0  0
   22.4077   27.0018   17.2143 C   0  0  0  0  0  0  0  0  0  0  0  0
   22.7920   26.2967   15.9164 C   0  0  0  0  0  0  0  0  0  0  0  0
   21.9415   27.0114   14.8554 C   0  0  0  0  0  0  0  0  0  0  0  0
   24.1515   26.6488   15.5710 O   0  0  0  0  0  0  0  0  0  0  0  0
   25.0393   26.3579   16.6447 C   0  0  0  0  0  0  0  0  0  0  0  0
   16.5016   24.2614   18.0410 C   0  0  0  0  0  0  0  0  0  0  0  0
   15.3618   24.9563   18.5561 O   0  0  0  0  0  0  0  0  0  0  0  0
   15.5135   25.9127   18.4997 H   0  0  0  0  0  0  0  0  0  0  0  0
   17.7621   24.4794   18.8769 C   0  0  0  0  0  0  0  0  0  0  0  0
   17.9455   23.3995   19.8430 N   0  0  0  0  0  0  0  0  0  0  0  0
   18.0850   21.8654   19.2771 S   0  0  0  0  0  0  0  0  0  0  0  0
   18.7393   21.0397   20.3294 O   0  0  0  0  0  0  0  0  0  0  0  0
   18.8520   21.8856   17.9912 O   0  0  0  0  0  0  0  0  0  0  0  0
   13.9560   20.0510   18.5351 C   0  0  0  0  0  0  0  0  0  0  0  0
   14.9800   19.8878   17.6093 C   0  0  0  0  0  0  0  0  0  0  0  0
   16.2171   20.4983   17.7912 C   0  0  0  0  0  0  0  0  0  0  0  0
   16.4992   21.1634   18.9801 C   0  0  0  0  0  0  0  0  0  0  0  0
   15.4621   21.3238   19.8775 C   0  0  0  0  0  0  0  0  0  0  0  0
   14.1922   20.7910   19.6933 C   0  0  0  0  0  0  0  0  0  0  0  0
   12.7353   19.4397   18.3830 O   0  0  0  0  0  0  0  0  0  0  0  0
   12.2591   19.7660   17.0685 C   0  0  0  0  0  0  0  0  0  0  0  0
   18.8755   23.7461   20.8994 C   0  0  0  0  0  0  0  0  0  0  0  0
   20.2143   24.3072   20.4121 C   0  0  0  0  0  0  0  0  0  0  0  0
   20.6061   25.6232   21.0687 C   0  0  0  0  0  0  0  0  0  0  0  0
   21.3112   23.2596   20.6624 C   0  0  0  0  0  0  0  0  0  0  0  0
   16.9339   23.3443   15.7016 C   0  0  0  0  0  0  0  0  0  0  0  0
   15.5958   21.9613   14.0338 C   0  0  0  0  0  0  0  0  0  0  0  0
   14.4070   21.5512   13.4353 C   0  0  0  0  0  0  0  0  0  0  0  0
   13.1696   21.9719   13.9323 C   0  0  0  0  0  0  0  0  0  0  0  0
   13.1818   22.8393   15.0312 C   0  0  0  0  0  0  0  0  0  0  0  0
   14.3747   23.2789   15.6111 C   0  0  0  0  0  0  0  0  0  0  0  0
   15.6021   22.8480   15.1075 C   0  0  0  0  0  0  0  0  0  0  0  0
 26 25  2  0  0  0
 31 25  1  0  0  0
 25 30  1  0  0  0
 26 27  1  0  0  0
 27 28  2  0  0  0
 28 29  1  0  0  0
 28 22  1  0  0  0
 30 29  2  0  0  0
 23 22  2  0  0  0
 22 24  2  0  0  0
 22 21  1  0  0  0
 21 20  1  0  0  0
 21 33  1  0  0  0
 33 34  1  0  0  0
 35 34  1  0  0  0
 34 36  1  0  0  0
 20 17  1  0  0  0
  1 17  1  0  0  0
 17 18  1  0  0  0
 37  1  1  0  0  0
  1  2  1  0  0  0
  2  3  1  0  0  0
  4  3  2  0  0  0
  3  6  1  0  0  0
  6  7  1  0  0  0
 14  7  1  0  0  0
  7  8  1  0  0  0
  9  8  1  0  0  0
 10  9  1  0  0  0
 14 10  1  0  0  0
 11 10  1  0  0  0
 12 11  1  0  0  0
 13 12  1  0  0  0
 15 13  1  0  0  0
 13 14  1  0  0  0
 43 37  1  0  0  0
 39 38  2  0  0  0
 38 43  1  0  0  0
 40 39  1  0  0  0
 40 41  2  0  0  0
 41 42  1  0  0  0
 42 43  2  0  0  0
 31 32  1  0  0  0
 16 15  1  0  0  0
 18 19  1  0  0  0
  2  5  1  0  0  0
M  END
> <minimizedAffinity>
-9.51188

$$$$
3QAA_G04_A_401


 43 46  0  0  0  0  0  0  0  0999 V2000
   16.8931   22.9413   16.1679 C   0  0  0  0  0  0  0  0  0  0  0  0
   17.8500   24.0518   16.2111 N   0  0  0  0  0  0  0  0  0  0  0  0
   17.6912   25.1867   16.9067 C   0  0  0  0  0  0  0  0  0  0  0  0
   16.6892   25.3905   17.6082 O   0  0  0  0  0  0  0  0  0  0  0  0
   18.6772   23.9559   15.6859 H   0  0  0  0  0  0  0  0  0  0  0  0
   18.7037   26.0906   16.7753 O   0  0  0  0  0  0  0  0  0  0  0  0
   19.5687   25.9301   15.6509 C   0  0  0  0  0  0  0  0  0  0  0  0
   19.3855   27.1587   14.7545 C   0  0  0  0  0  0  0  0  0  0  0  0
   20.0912   28.2060   15.4313 O   0  0  0  0  0  0  0  0  0  0  0  0
   21.1453   27.6529   16.2002 C   0  0  0  0  0  0  0  0  0  0  0  0
   21.0145   28.0080   17.5805 O   0  0  0  0  0  0  0  0  0  0  0  0
   20.8982   26.8426   18.3784 C   0  0  0  0  0  0  0  0  0  0  0  0
   21.3408   25.6695   17.5081 C   0  0  0  0  0  0  0  0  0  0  0  0
   21.0286   26.1446   16.0810 C   0  0  0  0  0  0  0  0  0  0  0  0
   22.7836   25.5755   17.5384 O   0  0  0  0  0  0  0  0  0  0  0  0
   23.2370   25.1392   18.8149 C   0  0  0  0  0  0  0  0  0  0  0  0
   17.5024   21.7450   16.9003 C   0  0  0  0  0  0  0  0  0  0  0  0
   18.1642   20.8849   15.9678 O   0  0  0  0  0  0  0  0  0  0  0  0
   17.5172   20.5341   15.3360 H   0  0  0  0  0  0  0  0  0  0  0  0
   16.4957   21.0076   17.7825 C   0  0  0  0  0  0  0  0  0  0  0  0
   16.1635   21.7915   18.9692 N   0  0  0  0  0  0  0  0  0  0  0  0
   14.6415   21.6811   19.5730 S   0  0  0  0  0  0  0  0  0  0  0  0
   13.8365   22.8007   19.0112 O   0  0  0  0  0  0  0  0  0  0  0  0
   14.7053   21.7022   21.0688 O   0  0  0  0  0  0  0  0  0  0  0  0
   12.6651   17.7742   18.2610 C   0  0  0  0  0  0  0  0  0  0  0  0
   12.4056   18.9621   17.5876 C   0  0  0  0  0  0  0  0  0  0  0  0
   12.9441   20.1684   18.0249 C   0  0  0  0  0  0  0  0  0  0  0  0
   13.8739   20.1834   19.0596 C   0  0  0  0  0  0  0  0  0  0  0  0
   14.1044   18.9935   19.7212 C   0  0  0  0  0  0  0  0  0  0  0  0
   13.5260   17.7835   19.3581 C   0  0  0  0  0  0  0  0  0  0  0  0
   12.1593   16.5711   17.8325 O   0  0  0  0  0  0  0  0  0  0  0  0
   10.7396   16.7338   17.6937 C   0  0  0  0  0  0  0  0  0  0  0  0
   17.2168   21.7727   19.9648 C   0  0  0  0  0  0  0  0  0  0  0  0
   18.2217   22.9226   19.8522 C   0  0  0  0  0  0  0  0  0  0  0  0
   17.9353   24.0850   20.7921 C   0  0  0  0  0  0  0  0  0  0  0  0
   19.6327   22.3760   20.1235 C   0  0  0  0  0  0  0  0  0  0  0  0
   16.5863   22.6277   14.6906 C   0  0  0  0  0  0  0  0  0  0  0  0
   14.1151   22.8721   15.2551 C   0  0  0  0  0  0  0  0  0  0  0  0
   12.7814   22.4789   15.1778 C   0  0  0  0  0  0  0  0  0  0  0  0
   12.3841   21.4500   14.3182 C   0  0  0  0  0  0  0  0  0  0  0  0
   13.3840   20.8203   13.5674 C   0  0  0  0  0  0  0  0  0  0  0  0
   14.7274   21.1909   13.6697 C   0  0  0  0  0  0  0  0  0  0  0  0
   15.1092   22.2218   14.5284 C   0  0  0  0  0  0  0  0  0  0  0  0
 26 25  2  0  0  0
 31 25  1  0  0  0
 25 30  1  0  0  0
 26 27  1  0  0  0
 27 28  2  0  0  0
 28 29  1  0  0  0
 28 22  1  0  0  0
 30 29  2  0  0  0
 23 22  2  0  0  0
 22 24  2  0  0  0
 22 21  1  0  0  0
 21 20  1  0  0  0
 21 33  1  0  0  0
 33 34  1  0  0  0
 35 34  1  0  0  0
 34 36  1  0  0  0
 20 17  1  0  0  0
  1 17  1  0  0  0
 17 18  1  0  0  0
 37  1  1  0  0  0
  1  2  1  0  0  0
  2  3  1  0  0  0
  4  3  2  0  0  0
  3  6  1  0  0  0
  6  7  1  0  0  0
 14  7  1  0  0  0
  7  8  1  0  0  0
  9  8  1  0  0  0
 10  9  1  0  0  0
 14 10  1  0  0  0
 11 10  1  0  0  0
 12 11  1  0  0  0
 13 12  1  0  0  0
 15 13  1  0  0  0
 13 14  1  0  0  0
 43 37  1  0  0  0
 39 38  2  0  0  0
 38 43  1  0  0  0
 40 39  1  0  0  0
 40 41  2  0  0  0
 41 42  1  0  0  0
 42 43  2  0  0  0
 31 32  1  0  0  0
 16 15  1  0  0  0
 18 19  1  0  0  0
  2  5  1  0  0  0
M  END
> <minimizedAffinity>
-9.32644

$$$$
3QAA_G04_A_401


 43 46  0  0  0  0  0  0  0  0999 V2000
   18.2170   23.2398   18.2692 C   0  0  0  0  0  0  0  0  0  0  0  0
   18.7894   24.4945   17.7702 N   0  0  0  0  0  0  0  0  0  0  0  0
   19.3191   24.6758   16.5521 C   0  0  0  0  0  0  0  0  0  0  0  0
   19.3563   23.7648   15.7116 O   0  0  0  0  0  0  0  0  0  0  0  0
   18.7843   25.2674   18.3801 H   0  0  0  0  0  0  0  0  0  0  0  0
   19.8149   25.9244   16.3183 O   0  0  0  0  0  0  0  0  0  0  0  0
   20.2363   26.2109   14.9846 C   0  0  0  0  0  0  0  0  0  0  0  0
   19.4707   27.4538   14.5207 C   0  0  0  0  0  0  0  0  0  0  0  0
   20.1109   28.5434   15.1959 O   0  0  0  0  0  0  0  0  0  0  0  0
   21.4660   28.2171   15.4521 C   0  0  0  0  0  0  0  0  0  0  0  0
   21.7563   28.2931   16.8515 O   0  0  0  0  0  0  0  0  0  0  0  0
   22.2011   27.0355   17.3297 C   0  0  0  0  0  0  0  0  0  0  0  0
   22.5617   26.2024   16.1028 C   0  0  0  0  0  0  0  0  0  0  0  0
   21.6631   26.7821   14.9998 C   0  0  0  0  0  0  0  0  0  0  0  0
   23.9016   26.5416   15.6774 O   0  0  0  0  0  0  0  0  0  0  0  0
   24.8337   26.3494   16.7356 C   0  0  0  0  0  0  0  0  0  0  0  0
   16.7933   23.1049   17.7273 C   0  0  0  0  0  0  0  0  0  0  0  0
   15.8471   23.4379   18.7476 O   0  0  0  0  0  0  0  0  0  0  0  0
   15.9330   22.8130   19.4846 H   0  0  0  0  0  0  0  0  0  0  0  0
   16.5244   21.7450   17.0841 C   0  0  0  0  0  0  0  0  0  0  0  0
   15.1187   21.6082   16.7122 N   0  0  0  0  0  0  0  0  0  0  0  0
   14.6748   22.0169   15.1861 S   0  0  0  0  0  0  0  0  0  0  0  0
   15.8380   21.7845   14.2859 O   0  0  0  0  0  0  0  0  0  0  0  0
   14.2055   23.4388   15.1767 O   0  0  0  0  0  0  0  0  0  0  0  0
   11.2581   19.3510   13.7334 C   0  0  0  0  0  0  0  0  0  0  0  0
   12.5605   19.1364   13.2977 C   0  0  0  0  0  0  0  0  0  0  0  0
   13.5942   19.9876   13.6760 C   0  0  0  0  0  0  0  0  0  0  0  0
   13.3673   20.9849   14.6191 C   0  0  0  0  0  0  0  0  0  0  0  0
   12.0634   21.1870   15.0260 C   0  0  0  0  0  0  0  0  0  0  0  0
   10.9945   20.4027   14.6105 C   0  0  0  0  0  0  0  0  0  0  0  0
   10.2287   18.5099   13.3873 O   0  0  0  0  0  0  0  0  0  0  0  0
   10.2499   17.4118   14.3119 C   0  0  0  0  0  0  0  0  0  0  0  0
   14.5245   20.3844   17.2125 C   0  0  0  0  0  0  0  0  0  0  0  0
   13.5510   20.5781   18.3784 C   0  0  0  0  0  0  0  0  0  0  0  0
   12.3472   19.6476   18.3367 C   0  0  0  0  0  0  0  0  0  0  0  0
   14.3125   20.3768   19.6986 C   0  0  0  0  0  0  0  0  0  0  0  0
   18.2554   23.2725   19.8094 C   0  0  0  0  0  0  0  0  0  0  0  0
   19.8146   24.9664   20.8978 C   0  0  0  0  0  0  0  0  0  0  0  0
   21.0718   25.4233   21.2857 C   0  0  0  0  0  0  0  0  0  0  0  0
   22.2058   24.6185   21.1386 C   0  0  0  0  0  0  0  0  0  0  0  0
   22.0249   23.3555   20.5624 C   0  0  0  0  0  0  0  0  0  0  0  0
   20.7694   22.9094   20.1413 C   0  0  0  0  0  0  0  0  0  0  0  0
   19.6458   23.7212   20.2977 C   0  0  0  0  0  0  0  0  0  0  0  0
 26 25  2  0  0  0
 31 25  1  0  0  0
 25 30  1  0  0  0
 26 27  1  0  0  0
 27 28  2  0  0  0
 28 29  1  0  0  0
 28 22  1  0  0  0
 30 29  2  0  0  0
 23 22  2  0  0  0
 22 24  2  0  0  0
 22 21  1  0  0  0
 21 20  1  0  0  0
 21 33  1  0  0  0
 33 34  1  0  0  0
 35 34  1  0  0  0
 34 36  1  0  0  0
 20 17  1  0  0  0
  1 17  1  0  0  0
 17 18  1  0  0  0
 37  1  1  0  0  0
  1  2  1  0  0  0
  2  3  1  0  0  0
  4  3  2  0  0  0
  3  6  1  0  0  0
  6  7  1  0  0  0
 14  7  1  0  0  0
  7  8  1  0  0  0
  9  8  1  0  0  0
 10  9  1  0  0  0
 14 10  1  0  0  0
 11 10  1  0  0  0
 12 11  1  0  0  0
 13 12  1  0  0  0
 15 13  1  0  0  0
 13 14  1  0  0  0
 43 37  1  0  0  0
 39 38  2  0  0  0
 38 43  1  0  0  0
 40 39  1  0  0  0
 40 41  2  0  0  0
 41 42  1  0  0  0
 42 43  2  0  0  0
 31 32  1  0  0  0
 16 15  1  0  0  0
 18 19  1  0  0  0
  2  5  1  0  0  0
M  END
> <minimizedAffinity>
-9.22197

$$$$
3QAA_G04_A_401


 43 46  0  0  0  0  0  0  0  0999 V2000
   19.3896   24.0639   19.4379 C   0  0  0  0  0  0  0  0  0  0  0  0
   19.5681   25.2239   18.5584 N   0  0  0  0  0  0  0  0  0  0  0  0
   19.7170   25.1730   17.2271 C   0  0  0  0  0  0  0  0  0  0  0  0
   19.7011   24.0995   16.6066 O   0  0  0  0  0  0  0  0  0  0  0  0
   19.5796   26.1132   18.9805 H   0  0  0  0  0  0  0  0  0  0  0  0
   19.8936   26.3810   16.6195 O   0  0  0  0  0  0  0  0  0  0  0  0
   20.2174   26.3616   15.2292 C   0  0  0  0  0  0  0  0  0  0  0  0
   19.5093   27.5538   14.5784 C   0  0  0  0  0  0  0  0  0  0  0  0
   20.2855   28.6919   14.9724 O   0  0  0  0  0  0  0  0  0  0  0  0
   21.6296   28.3006   15.1932 C   0  0  0  0  0  0  0  0  0  0  0  0
   22.0455   28.6225   16.5244 O   0  0  0  0  0  0  0  0  0  0  0  0
   22.4350   27.4477   17.2146 C   0  0  0  0  0  0  0  0  0  0  0  0
   22.6242   26.3615   16.1593 C   0  0  0  0  0  0  0  0  0  0  0  0
   21.6788   26.7930   15.0279 C   0  0  0  0  0  0  0  0  0  0  0  0
   23.9435   26.4880   15.5808 O   0  0  0  0  0  0  0  0  0  0  0  0
   24.9453   26.4609   16.5914 C   0  0  0  0  0  0  0  0  0  0  0  0
   17.8917   23.8385   19.6482 C   0  0  0  0  0  0  0  0  0  0  0  0
   17.5391   24.1238   21.0052 O   0  0  0  0  0  0  0  0  0  0  0  0
   18.0060   23.5123   21.5960 H   0  0  0  0  0  0  0  0  0  0  0  0
   17.4238   22.4588   19.1868 C   0  0  0  0  0  0  0  0  0  0  0  0
   15.9943   22.4616   18.8871 N   0  0  0  0  0  0  0  0  0  0  0  0
   15.4269   23.5666   17.8147 S   0  0  0  0  0  0  0  0  0  0  0  0
   16.5178   24.5390   17.5285 O   0  0  0  0  0  0  0  0  0  0  0  0
   14.2020   24.2151   18.3813 O   0  0  0  0  0  0  0  0  0  0  0  0
   14.3041   21.5646   13.8621 C   0  0  0  0  0  0  0  0  0  0  0  0
   15.6297   21.8628   14.1555 C   0  0  0  0  0  0  0  0  0  0  0  0
   15.9729   22.5386   15.3225 C   0  0  0  0  0  0  0  0  0  0  0  0
   15.0065   22.7969   16.2893 C   0  0  0  0  0  0  0  0  0  0  0  0
   13.6957   22.5038   15.9688 C   0  0  0  0  0  0  0  0  0  0  0  0
   13.3086   21.8968   14.7806 C   0  0  0  0  0  0  0  0  0  0  0  0
   13.9481   20.8803   12.7255 O   0  0  0  0  0  0  0  0  0  0  0  0
   13.2411   19.7029   13.1440 C   0  0  0  0  0  0  0  0  0  0  0  0
   15.4533   21.1261   18.7297 C   0  0  0  0  0  0  0  0  0  0  0  0
   14.1228   20.8879   19.4490 C   0  0  0  0  0  0  0  0  0  0  0  0
   13.1353   20.0452   18.6544 C   0  0  0  0  0  0  0  0  0  0  0  0
   14.4044   20.2135   20.8015 C   0  0  0  0  0  0  0  0  0  0  0  0
   20.1297   24.3443   20.7602 C   0  0  0  0  0  0  0  0  0  0  0  0
   22.5476   24.6884   21.4817 C   0  0  0  0  0  0  0  0  0  0  0  0
   23.9235   24.5726   21.3004 C   0  0  0  0  0  0  0  0  0  0  0  0
   24.4484   23.8433   20.2289 C   0  0  0  0  0  0  0  0  0  0  0  0
   23.5353   23.2647   19.3392 C   0  0  0  0  0  0  0  0  0  0  0  0
   22.1549   23.4092   19.5008 C   0  0  0  0  0  0  0  0  0  0  0  0
   21.6449   24.1361   20.5765 C   0  0  0  0  0  0  0  0  0  0  0  0
 26 25  2  0  0  0
 31 25  1  0  0  0
 25 30  1  0  0  0
 26 27  1  0  0  0
 27 28  2  0  0  0
 28 29  1  0  0  0
 28 22  1  0  0  0
 30 29  2  0  0  0
 23 22  2  0  0  0
 22 24  2  0  0  0
 22 21  1  0  0  0
 21 20  1  0  0  0
 21 33  1  0  0  0
 33 34  1  0  0  0
 35 34  1  0  0  0
 34 36  1  0  0  0
 20 17  1  0  0  0
  1 17  1  0  0  0
 17 18  1  0  0  0
 37  1  1  0  0  0
  1  2  1  0  0  0
  2  3  1  0  0  0
  4  3  2  0  0  0
  3  6  1  0  0  0
  6  7  1  0  0  0
 14  7  1  0  0  0
  7  8  1  0  0  0
  9  8  1  0  0  0
 10  9  1  0  0  0
 14 10  1  0  0  0
 11 10  1  0  0  0
 12 11  1  0  0  0
 13 12  1  0  0  0
 15 13  1  0  0  0
 13 14  1  0  0  0
 43 37  1  0  0  0
 39 38  2  0  0  0
 38 43  1  0  0  0
 40 39  1  0  0  0
 40 41  2  0  0  0
 41 42  1  0  0  0
 42 43  2  0  0  0
 31 32  1  0  0  0
 16 15  1  0  0  0
 18 19  1  0  0  0
  2  5  1  0  0  0
M  END
> <minimizedAffinity>
-9.21087

$$$$
3QAA_G04_A_401


 43 46  0  0  0  0  0  0  0  0999 V2000
   16.8390   23.4502   16.8972 C   0  0  0  0  0  0  0  0  0  0  0  0
   17.5701   24.7043   16.6885 N   0  0  0  0  0  0  0  0  0  0  0  0
   18.7751   24.8134   16.1111 C   0  0  0  0  0  0  0  0  0  0  0  0
   19.3858   23.8251   15.6776 O   0  0  0  0  0  0  0  0  0  0  0  0
   17.1407   25.5344   16.9979 H   0  0  0  0  0  0  0  0  0  0  0  0
   19.2719   26.0818   16.0477 O   0  0  0  0  0  0  0  0  0  0  0  0
   20.2689   26.3343   15.0575 C   0  0  0  0  0  0  0  0  0  0  0  0
   19.9626   27.7018   14.4390 C   0  0  0  0  0  0  0  0  0  0  0  0
   20.3865   28.6471   15.4287 O   0  0  0  0  0  0  0  0  0  0  0  0
   21.4339   28.0903   16.2042 C   0  0  0  0  0  0  0  0  0  0  0  0
   21.0905   28.0735   17.5935 O   0  0  0  0  0  0  0  0  0  0  0  0
   21.1034   26.7450   18.0865 C   0  0  0  0  0  0  0  0  0  0  0  0
   21.8456   25.9013   17.0536 C   0  0  0  0  0  0  0  0  0  0  0  0
   21.6091   26.6571   15.7373 C   0  0  0  0  0  0  0  0  0  0  0  0
   23.2691   26.0236   17.2770 O   0  0  0  0  0  0  0  0  0  0  0  0
   23.6448   25.4087   18.5043 C   0  0  0  0  0  0  0  0  0  0  0  0
   15.6306   23.4295   15.9602 C   0  0  0  0  0  0  0  0  0  0  0  0
   14.4430   23.7639   16.6848 O   0  0  0  0  0  0  0  0  0  0  0  0
   14.2842   23.0968   17.3708 H   0  0  0  0  0  0  0  0  0  0  0  0
   15.5041   22.1242   15.1757 C   0  0  0  0  0  0  0  0  0  0  0  0
   14.1536   21.5777   15.2786 N   0  0  0  0  0  0  0  0  0  0  0  0
   13.2054   21.5908   13.9392 S   0  0  0  0  0  0  0  0  0  0  0  0
   14.0839   21.7669   12.7499 O   0  0  0  0  0  0  0  0  0  0  0  0
   12.1822   22.6758   14.0740 O   0  0  0  0  0  0  0  0  0  0  0  0
   11.0724   17.5824   13.4154 C   0  0  0  0  0  0  0  0  0  0  0  0
   10.5699   18.5461   14.2819 C   0  0  0  0  0  0  0  0  0  0  0  0
   11.2517   19.7387   14.5037 C   0  0  0  0  0  0  0  0  0  0  0  0
   12.3763   20.0508   13.7467 C   0  0  0  0  0  0  0  0  0  0  0  0
   12.8636   19.0722   12.9031 C   0  0  0  0  0  0  0  0  0  0  0  0
   12.2494   17.8406   12.7131 C   0  0  0  0  0  0  0  0  0  0  0  0
   10.4034   16.4084   13.1682 O   0  0  0  0  0  0  0  0  0  0  0  0
   11.1968   15.3451   13.7170 C   0  0  0  0  0  0  0  0  0  0  0  0
   14.1040   20.3505   16.0483 C   0  0  0  0  0  0  0  0  0  0  0  0
   13.8134   20.5438   17.5392 C   0  0  0  0  0  0  0  0  0  0  0  0
   12.5281   19.8768   18.0077 C   0  0  0  0  0  0  0  0  0  0  0  0
   15.0011   20.0005   18.3501 C   0  0  0  0  0  0  0  0  0  0  0  0
   16.4294   23.3733   18.3809 C   0  0  0  0  0  0  0  0  0  0  0  0
   18.2637   21.7913   19.1666 C   0  0  0  0  0  0  0  0  0  0  0  0
   19.3284   21.4414   19.9934 C   0  0  0  0  0  0  0  0  0  0  0  0
   19.8623   22.3580   20.9044 C   0  0  0  0  0  0  0  0  0  0  0  0
   19.2640   23.6222   20.9666 C   0  0  0  0  0  0  0  0  0  0  0  0
   18.1736   23.9629   20.1619 C   0  0  0  0  0  0  0  0  0  0  0  0
   17.6536   23.0400   19.2544 C   0  0  0  0  0  0  0  0  0  0  0  0
 26 25  2  0  0  0
 31 25  1  0  0  0
 25 30  1  0  0  0
 26 27  1  0  0  0
 27 28  2  0  0  0
 28 29  1  0  0  0
 28 22  1  0  0  0
 30 29  2  0  0  0
 23 22  2  0  0  0
 22 24  2  0  0  0
 22 21  1  0  0  0
 21 20  1  0  0  0
 21 33  1  0  0  0
 33 34  1  0  0  0
 35 34  1  0  0  0
 34 36  1  0  0  0
 20 17  1  0  0  0
  1 17  1  0  0  0
 17 18  1  0  0  0
 37  1  1  0  0  0
  1  2  1  0  0  0
  2  3  1  0  0  0
  4  3  2  0  0  0
  3  6  1  0  0  0
  6  7  1  0  0  0
 14  7  1  0  0  0
  7  8  1  0  0  0
  9  8  1  0  0  0
 10  9  1  0  0  0
 14 10  1  0  0  0
 11 10  1  0  0  0
 12 11  1  0  0  0
 13 12  1  0  0  0
 15 13  1  0  0  0
 13 14  1  0  0  0
 43 37  1  0  0  0
 39 38  2  0  0  0
 38 43  1  0  0  0
 40 39  1  0  0  0
 40 41  2  0  0  0
 41 42  1  0  0  0
 42 43  2  0  0  0
 31 32  1  0  0  0
 16 15  1  0  0  0
 18 19  1  0  0  0
  2  5  1  0  0  0
M  END
> <minimizedAffinity>
-8.99416

$$$$
3QAA_G04_A_401


 43 46  0  0  0  0  0  0  0  0999 V2000
   17.9181   24.5436   15.8819 C   0  0  0  0  0  0  0  0  0  0  0  0
   16.8835   23.5967   15.4533 N   0  0  0  0  0  0  0  0  0  0  0  0
   16.9619   22.2623   15.5557 C   0  0  0  0  0  0  0  0  0  0  0  0
   17.9489   21.7003   16.0534 O   0  0  0  0  0  0  0  0  0  0  0  0
   16.0637   23.9719   15.0579 H   0  0  0  0  0  0  0  0  0  0  0  0
   15.8862   21.5817   15.0668 O   0  0  0  0  0  0  0  0  0  0  0  0
   14.9055   21.1600   16.0148 C   0  0  0  0  0  0  0  0  0  0  0  0
   14.4910   22.3936   16.8228 C   0  0  0  0  0  0  0  0  0  0  0  0
   13.6420   23.1345   15.9379 O   0  0  0  0  0  0  0  0  0  0  0  0
   13.0077   22.2492   15.0311 C   0  0  0  0  0  0  0  0  0  0  0  0
   13.3011   22.6053   13.6763 O   0  0  0  0  0  0  0  0  0  0  0  0
   13.9510   21.5328   13.0164 C   0  0  0  0  0  0  0  0  0  0  0  0
   13.7404   20.2934   13.8818 C   0  0  0  0  0  0  0  0  0  0  0  0
   13.5780   20.8684   15.2971 C   0  0  0  0  0  0  0  0  0  0  0  0
   12.4451   19.7230   13.5846 O   0  0  0  0  0  0  0  0  0  0  0  0
   12.5750   18.5738   12.7553 C   0  0  0  0  0  0  0  0  0  0  0  0
   17.7090   24.8550   17.3645 C   0  0  0  0  0  0  0  0  0  0  0  0
   16.4525   25.5124   17.5545 O   0  0  0  0  0  0  0  0  0  0  0  0
   16.4561   26.3596   17.0822 H   0  0  0  0  0  0  0  0  0  0  0  0
   18.8803   25.6134   17.9875 C   0  0  0  0  0  0  0  0  0  0  0  0
   19.6265   24.7622   18.9103 N   0  0  0  0  0  0  0  0  0  0  0  0
   20.8689   25.4282   19.7506 S   0  0  0  0  0  0  0  0  0  0  0  0
   20.7536   24.9961   21.1709 O   0  0  0  0  0  0  0  0  0  0  0  0
   20.8276   26.9163   19.5888 O   0  0  0  0  0  0  0  0  0  0  0  0
   24.8809   23.8637   18.2182 C   0  0  0  0  0  0  0  0  0  0  0  0
   24.4206   25.1216   17.8466 C   0  0  0  0  0  0  0  0  0  0  0  0
   23.1681   25.5759   18.2479 C   0  0  0  0  0  0  0  0  0  0  0  0
   22.4144   24.8360   19.1534 C   0  0  0  0  0  0  0  0  0  0  0  0
   22.8863   23.5845   19.4966 C   0  0  0  0  0  0  0  0  0  0  0  0
   24.0983   23.0684   19.0549 C   0  0  0  0  0  0  0  0  0  0  0  0
   26.1224   23.4065   17.8490 O   0  0  0  0  0  0  0  0  0  0  0  0
   27.0866   24.3393   18.3604 C   0  0  0  0  0  0  0  0  0  0  0  0
   18.7673   23.8879   19.6838 C   0  0  0  0  0  0  0  0  0  0  0  0
   18.9518   22.3951   19.3972 C   0  0  0  0  0  0  0  0  0  0  0  0
   19.8558   21.6838   20.3939 C   0  0  0  0  0  0  0  0  0  0  0  0
   17.5712   21.7194   19.3799 C   0  0  0  0  0  0  0  0  0  0  0  0
   17.8130   25.8028   14.9998 C   0  0  0  0  0  0  0  0  0  0  0  0
   20.3542   25.6425   14.9591 C   0  0  0  0  0  0  0  0  0  0  0  0
   21.6286   26.1890   14.8295 C   0  0  0  0  0  0  0  0  0  0  0  0
   21.8032   27.5238   14.4510 C   0  0  0  0  0  0  0  0  0  0  0  0
   20.6481   28.2858   14.2384 C   0  0  0  0  0  0  0  0  0  0  0  0
   19.3688   27.7480   14.4016 C   0  0  0  0  0  0  0  0  0  0  0  0
   19.2093   26.4137   14.7757 C   0  0  0  0  0  0  0  0  0  0  0  0
 26 25  2  0  0  0
 31 25  1  0  0  0
 25 30  1  0  0  0
 26 27  1  0  0  0
 27 28  2  0  0  0
 28 29  1  0  0  0
 28 22  1  0  0  0
 30 29  2  0  0  0
 23 22  2  0  0  0
 22 24  2  0  0  0
 22 21  1  0  0  0
 21 20  1  0  0  0
 21 33  1  0  0  0
 33 34  1  0  0  0
 35 34  1  0  0  0
 34 36  1  0  0  0
 20 17  1  0  0  0
  1 17  1  0  0  0
 17 18  1  0  0  0
 37  1  1  0  0  0
  1  2  1  0  0  0
  2  3  1  0  0  0
  4  3  2  0  0  0
  3  6  1  0  0  0
  6  7  1  0  0  0
 14  7  1  0  0  0
  7  8  1  0  0  0
  9  8  1  0  0  0
 10  9  1  0  0  0
 14 10  1  0  0  0
 11 10  1  0  0  0
 12 11  1  0  0  0
 13 12  1  0  0  0
 15 13  1  0  0  0
 13 14  1  0  0  0
 43 37  1  0  0  0
 39 38  2  0  0  0
 38 43  1  0  0  0
 40 39  1  0  0  0
 40 41  2  0  0  0
 41 42  1  0  0  0
 42 43  2  0  0  0
 31 32  1  0  0  0
 16 15  1  0  0  0
 18 19  1  0  0  0
  2  5  1  0  0  0
M  END
> <minimizedAffinity>
-8.89799

$$$$
3QAA_G04_A_401


 43 46  0  0  0  0  0  0  0  0999 V2000
   19.6988   25.7511   17.6641 C   0  0  0  0  0  0  0  0  0  0  0  0
   21.0014   25.0810   17.5929 N   0  0  0  0  0  0  0  0  0  0  0  0
   21.9618   25.1499   18.5256 C   0  0  0  0  0  0  0  0  0  0  0  0
   21.8143   25.8002   19.5712 O   0  0  0  0  0  0  0  0  0  0  0  0
   21.1858   24.5357   16.7942 H   0  0  0  0  0  0  0  0  0  0  0  0
   23.1024   24.4629   18.2315 O   0  0  0  0  0  0  0  0  0  0  0  0
   24.0489   24.3030   19.2884 C   0  0  0  0  0  0  0  0  0  0  0  0
   24.6898   22.9216   19.1226 C   0  0  0  0  0  0  0  0  0  0  0  0
   25.6015   23.0772   18.0283 O   0  0  0  0  0  0  0  0  0  0  0  0
   26.0451   24.4216   17.9630 C   0  0  0  0  0  0  0  0  0  0  0  0
   25.7470   24.9988   16.6877 O   0  0  0  0  0  0  0  0  0  0  0  0
   24.9061   26.1286   16.8446 C   0  0  0  0  0  0  0  0  0  0  0  0
   24.9606   26.5142   18.3203 C   0  0  0  0  0  0  0  0  0  0  0  0
   25.2784   25.1870   19.0256 C   0  0  0  0  0  0  0  0  0  0  0  0
   26.1346   27.3254   18.5547 O   0  0  0  0  0  0  0  0  0  0  0  0
   26.1526   28.4542   17.6881 C   0  0  0  0  0  0  0  0  0  0  0  0
   18.6950   24.7961   18.3116 C   0  0  0  0  0  0  0  0  0  0  0  0
   18.9741   24.6654   19.7088 O   0  0  0  0  0  0  0  0  0  0  0  0
   19.8553   24.2776   19.8276 H   0  0  0  0  0  0  0  0  0  0  0  0
   18.6000   23.4507   17.5930 C   0  0  0  0  0  0  0  0  0  0  0  0
   17.3078   22.8150   17.8363 N   0  0  0  0  0  0  0  0  0  0  0  0
   17.1108   21.9599   19.2230 S   0  0  0  0  0  0  0  0  0  0  0  0
   16.7584   22.9137   20.3109 O   0  0  0  0  0  0  0  0  0  0  0  0
   18.3635   21.1900   19.5059 O   0  0  0  0  0  0  0  0  0  0  0  0
   13.6221   19.0287   18.8635 C   0  0  0  0  0  0  0  0  0  0  0  0
   14.6115   19.0779   17.8884 C   0  0  0  0  0  0  0  0  0  0  0  0
   15.6365   20.0169   17.9513 C   0  0  0  0  0  0  0  0  0  0  0  0
   15.7718   20.8282   19.0733 C   0  0  0  0  0  0  0  0  0  0  0  0
   14.7695   20.7705   20.0213 C   0  0  0  0  0  0  0  0  0  0  0  0
   13.6914   19.8967   19.9529 C   0  0  0  0  0  0  0  0  0  0  0  0
   12.6144   18.0959   18.8292 O   0  0  0  0  0  0  0  0  0  0  0  0
   11.6000   18.5343   19.7458 C   0  0  0  0  0  0  0  0  0  0  0  0
   16.1899   23.6667   17.4816 C   0  0  0  0  0  0  0  0  0  0  0  0
   15.6071   23.4078   16.0894 C   0  0  0  0  0  0  0  0  0  0  0  0
   16.3908   22.3899   15.2733 C   0  0  0  0  0  0  0  0  0  0  0  0
   14.1518   22.9363   16.2412 C   0  0  0  0  0  0  0  0  0  0  0  0
   19.2854   26.1524   16.2348 C   0  0  0  0  0  0  0  0  0  0  0  0
   20.5140   27.1018   14.2164 C   0  0  0  0  0  0  0  0  0  0  0  0
   21.5265   27.8502   13.6211 C   0  0  0  0  0  0  0  0  0  0  0  0
   22.3973   28.6245   14.3940 C   0  0  0  0  0  0  0  0  0  0  0  0
   22.2240   28.5902   15.7828 C   0  0  0  0  0  0  0  0  0  0  0  0
   21.2304   27.8128   16.3835 C   0  0  0  0  0  0  0  0  0  0  0  0
   20.3659   27.0482   15.6000 C   0  0  0  0  0  0  0  0  0  0  0  0
 26 25  2  0  0  0
 31 25  1  0  0  0
 25 30  1  0  0  0
 26 27  1  0  0  0
 27 28  2  0  0  0
 28 29  1  0  0  0
 28 22  1  0  0  0
 30 29  2  0  0  0
 23 22  2  0  0  0
 22 24  2  0  0  0
 22 21  1  0  0  0
 21 20  1  0  0  0
 21 33  1  0  0  0
 33 34  1  0  0  0
 35 34  1  0  0  0
 34 36  1  0  0  0
 20 17  1  0  0  0
  1 17  1  0  0  0
 17 18  1  0  0  0
 37  1  1  0  0  0
  1  2  1  0  0  0
  2  3  1  0  0  0
  4  3  2  0  0  0
  3  6  1  0  0  0
  6  7  1  0  0  0
 14  7  1  0  0  0
  7  8  1  0  0  0
  9  8  1  0  0  0
 10  9  1  0  0  0
 14 10  1  0  0  0
 11 10  1  0  0  0
 12 11  1  0  0  0
 13 12  1  0  0  0
 15 13  1  0  0  0
 13 14  1  0  0  0
 43 37  1  0  0  0
 39 38  2  0  0  0
 38 43  1  0  0  0
 40 39  1  0  0  0
 40 41  2  0  0  0
 41 42  1  0  0  0
 42 43  2  0  0  0
 31 32  1  0  0  0
 16 15  1  0  0  0
 18 19  1  0  0  0
  2  5  1  0  0  0
M  END
> <minimizedAffinity>
-8.30878

$$$$
3QAA_G04_A_401


 43 46  0  0  0  0  0  0  0  0999 V2000
   15.8480   24.0701   16.3486 C   0  0  0  0  0  0  0  0  0  0  0  0
   17.1854   24.6305   16.5681 N   0  0  0  0  0  0  0  0  0  0  0  0
   17.7985   25.5128   15.7664 C   0  0  0  0  0  0  0  0  0  0  0  0
   17.2567   25.9537   14.7417 O   0  0  0  0  0  0  0  0  0  0  0  0
   17.6731   24.3344   17.3704 H   0  0  0  0  0  0  0  0  0  0  0  0
   19.0531   25.8749   16.1592 O   0  0  0  0  0  0  0  0  0  0  0  0
   20.0133   26.0949   15.1258 C   0  0  0  0  0  0  0  0  0  0  0  0
   19.6650   27.4269   14.4544 C   0  0  0  0  0  0  0  0  0  0  0  0
   20.1052   28.4242   15.3842 O   0  0  0  0  0  0  0  0  0  0  0  0
   21.1861   27.9202   16.1498 C   0  0  0  0  0  0  0  0  0  0  0  0
   20.8882   27.9642   17.5490 O   0  0  0  0  0  0  0  0  0  0  0  0
   20.9387   26.6608   18.1030 C   0  0  0  0  0  0  0  0  0  0  0  0
   21.6606   25.7802   17.0868 C   0  0  0  0  0  0  0  0  0  0  0  0
   21.3694   26.4692   15.7450 C   0  0  0  0  0  0  0  0  0  0  0  0
   23.0884   25.9339   17.2569 O   0  0  0  0  0  0  0  0  0  0  0  0
   23.6006   24.9558   18.1550 C   0  0  0  0  0  0  0  0  0  0  0  0
   15.2763   23.6322   17.6977 C   0  0  0  0  0  0  0  0  0  0  0  0
   14.1546   24.4505   18.0434 O   0  0  0  0  0  0  0  0  0  0  0  0
   14.4439   25.3712   18.1408 H   0  0  0  0  0  0  0  0  0  0  0  0
   16.3310   23.5670   18.8017 C   0  0  0  0  0  0  0  0  0  0  0  0
   16.7188   22.1861   19.0773 N   0  0  0  0  0  0  0  0  0  0  0  0
   18.2908   21.7636   18.8685 S   0  0  0  0  0  0  0  0  0  0  0  0
   18.6155   21.8832   17.4201 O   0  0  0  0  0  0  0  0  0  0  0  0
   18.5009   20.3799   19.4007 O   0  0  0  0  0  0  0  0  0  0  0  0
   21.0764   24.6152   21.1046 C   0  0  0  0  0  0  0  0  0  0  0  0
   19.7309   24.9220   20.9385 C   0  0  0  0  0  0  0  0  0  0  0  0
   18.8920   24.0965   20.1960 C   0  0  0  0  0  0  0  0  0  0  0  0
   19.3539   22.8697   19.7301 C   0  0  0  0  0  0  0  0  0  0  0  0
   20.6968   22.5942   19.8956 C   0  0  0  0  0  0  0  0  0  0  0  0
   21.5797   23.4309   20.5670 C   0  0  0  0  0  0  0  0  0  0  0  0
   21.9149   25.4069   21.8509 O   0  0  0  0  0  0  0  0  0  0  0  0
   23.1550   24.6970   21.9902 C   0  0  0  0  0  0  0  0  0  0  0  0
   16.1012   21.6610   20.2789 C   0  0  0  0  0  0  0  0  0  0  0  0
   14.7694   20.9411   20.0493 C   0  0  0  0  0  0  0  0  0  0  0  0
   14.7469   20.0711   18.8007 C   0  0  0  0  0  0  0  0  0  0  0  0
   14.4521   20.0806   21.2830 C   0  0  0  0  0  0  0  0  0  0  0  0
   15.9749   22.8958   15.3588 C   0  0  0  0  0  0  0  0  0  0  0  0
   13.5664   23.0597   14.5483 C   0  0  0  0  0  0  0  0  0  0  0  0
   12.2868   22.5458   14.3528 C   0  0  0  0  0  0  0  0  0  0  0  0
   11.9998   21.2062   14.6325 C   0  0  0  0  0  0  0  0  0  0  0  0
   13.0411   20.4203   15.1405 C   0  0  0  0  0  0  0  0  0  0  0  0
   14.3163   20.9436   15.3695 C   0  0  0  0  0  0  0  0  0  0  0  0
   14.5899   22.2809   15.0822 C   0  0  0  0  0  0  0  0  0  0  0  0
 26 25  2  0  0  0
 31 25  1  0  0  0
 25 30  1  0  0  0
 26 27  1  0  0  0
 27 28  2  0  0  0
 28 29  1  0  0  0
 28 22  1  0  0  0
 30 29  2  0  0  0
 23 22  2  0  0  0
 22 24  2  0  0  0
 22 21  1  0  0  0
 21 20  1  0  0  0
 21 33  1  0  0  0
 33 34  1  0  0  0
 35 34  1  0  0  0
 34 36  1  0  0  0
 20 17  1  0  0  0
  1 17  1  0  0  0
 17 18  1  0  0  0
 37  1  1  0  0  0
  1  2  1  0  0  0
  2  3  1  0  0  0
  4  3  2  0  0  0
  3  6  1  0  0  0
  6  7  1  0  0  0
 14  7  1  0  0  0
  7  8  1  0  0  0
  9  8  1  0  0  0
 10  9  1  0  0  0
 14 10  1  0  0  0
 11 10  1  0  0  0
 12 11  1  0  0  0
 13 12  1  0  0  0
 15 13  1  0  0  0
 13 14  1  0  0  0
 43 37  1  0  0  0
 39 38  2  0  0  0
 38 43  1  0  0  0
 40 39  1  0  0  0
 40 41  2  0  0  0
 41 42  1  0  0  0
 42 43  2  0  0  0
 31 32  1  0  0  0
 16 15  1  0  0  0
 18 19  1  0  0  0
  2  5  1  0  0  0
M  END
> <minimizedAffinity>
-8.30329

$$$$
