3RLB_VIB_A_191


 21 22  0  0  0  0  0  0  0  0999 V2000
   34.3364  -23.1439   46.2884 C   0  0  0  0  0  0  0  0  0  0  0  0
   37.1711  -24.8731   41.6449 C   0  0  0  0  0  0  0  0  0  0  0  0
   36.3428  -21.5396   44.9161 N   0  0  0  0  0  0  0  0  0  0  0  0
   36.0096  -22.7625   44.4524 C   0  0  0  0  0  0  0  0  0  0  0  0
   36.6338  -23.2045   43.3623 N   0  0  0  0  0  0  0  0  0  0  0  0
   36.4251  -24.4583   42.8821 C   0  0  0  0  0  0  0  0  0  0  0  0
   35.5238  -25.2787   43.4461 N   0  0  0  0  0  0  0  0  0  0  0  0
   34.8492  -24.8730   44.5412 C   0  0  0  0  0  0  0  0  0  0  0  0
   35.0669  -23.5909   45.0651 C   0  0  0  0  0  0  0  0  0  0  0  0
   37.0155  -20.9997   44.4414 H   0  0  0  0  0  0  0  0  0  0  0  0
   35.9133  -21.1874   45.7289 H   0  0  0  0  0  0  0  0  0  0  0  0
   32.7915  -21.7722   48.5245 C   0  0  0  0  0  0  0  0  0  0  0  0
   32.8458  -21.7498   44.8396 C   0  0  0  0  0  0  0  0  0  0  0  0
   31.5697  -20.5708   44.8444 S   0  0  0  0  0  0  0  0  0  0  0  0
   31.5904  -20.6547   46.5676 C   0  0  0  0  0  0  0  0  0  0  0  0
   32.5710  -21.5851   47.0591 C   0  0  0  0  0  0  0  0  0  0  0  0
   33.2618  -22.1701   46.0400 N   0  0  0  0  0  0  0  0  0  0  0  0
   30.6377  -19.7902   47.3493 C   0  0  0  0  0  0  0  0  0  0  0  0
   29.4352  -21.0588   48.8665 O   0  0  0  0  0  0  0  0  0  0  0  0
   29.3425  -20.5426   47.5461 C   0  0  0  0  0  0  0  0  0  0  0  0
   28.6322  -21.5618   49.0742 H   0  0  0  0  0  0  0  0  0  0  0  0
  2  6  1  0  0  0
  3  4  1  0  0  0
 12 16  1  0  0  0
 19 20  1  0  0  0
 20 18  1  0  0  0
 18 15  1  0  0  0
 13 14  1  0  0  0
 13 17  2  0  0  0
 14 15  1  0  0  0
 15 16  2  0  0  0
 16 17  1  0  0  0
 17  1  1  0  0  0
  1  9  1  0  0  0
  4  5  1  0  0  0
  4  9  2  0  0  0
  5  6  2  0  0  0
  6  7  1  0  0  0
  7  8  2  0  0  0
  8  9  1  0  0  0
  3 10  1  0  0  0
  3 11  1  0  0  0
 19 21  1  0  0  0
M  CHG 1  17   1
M  END
> <minimizedAffinity>
-8.54573

$$$$
3RLB_VIB_A_191


 21 22  0  0  0  0  0  0  0  0999 V2000
   30.0449  -19.4234   48.5423 C   0  0  0  0  0  0  0  0  0  0  0  0
   33.5880  -22.0416   44.9120 C   0  0  0  0  0  0  0  0  0  0  0  0
   30.0298  -18.9959   45.6613 N   0  0  0  0  0  0  0  0  0  0  0  0
   30.8906  -19.8733   46.2189 C   0  0  0  0  0  0  0  0  0  0  0  0
   31.7283  -20.5200   45.4107 N   0  0  0  0  0  0  0  0  0  0  0  0
   32.6867  -21.3513   45.8970 C   0  0  0  0  0  0  0  0  0  0  0  0
   32.7809  -21.6118   47.2111 N   0  0  0  0  0  0  0  0  0  0  0  0
   31.9435  -20.9982   48.0721 C   0  0  0  0  0  0  0  0  0  0  0  0
   30.9621  -20.1197   47.5917 C   0  0  0  0  0  0  0  0  0  0  0  0
   30.0247  -18.8636   44.6858 H   0  0  0  0  0  0  0  0  0  0  0  0
   29.4071  -18.4881   46.2302 H   0  0  0  0  0  0  0  0  0  0  0  0
   27.7944  -18.2988   50.2567 C   0  0  0  0  0  0  0  0  0  0  0  0
   28.6885  -21.5205   48.7062 C   0  0  0  0  0  0  0  0  0  0  0  0
   27.2366  -22.2180   49.3574 S   0  0  0  0  0  0  0  0  0  0  0  0
   26.8996  -20.6833   50.0701 C   0  0  0  0  0  0  0  0  0  0  0  0
   27.9170  -19.7089   49.7796 C   0  0  0  0  0  0  0  0  0  0  0  0
   28.9017  -20.2314   48.9949 N   0  0  0  0  0  0  0  0  0  0  0  0
   25.6403  -20.5174   50.8780 C   0  0  0  0  0  0  0  0  0  0  0  0
   24.9704  -19.9956   53.0312 O   0  0  0  0  0  0  0  0  0  0  0  0
   25.9616  -20.7404   52.3373 C   0  0  0  0  0  0  0  0  0  0  0  0
   25.1074  -20.0871   53.9871 H   0  0  0  0  0  0  0  0  0  0  0  0
  2  6  1  0  0  0
  3  4  1  0  0  0
 12 16  1  0  0  0
 19 20  1  0  0  0
 20 18  1  0  0  0
 18 15  1  0  0  0
 13 14  1  0  0  0
 13 17  2  0  0  0
 14 15  1  0  0  0
 15 16  2  0  0  0
 16 17  1  0  0  0
 17  1  1  0  0  0
  1  9  1  0  0  0
  4  5  1  0  0  0
  4  9  2  0  0  0
  5  6  2  0  0  0
  6  7  1  0  0  0
  7  8  2  0  0  0
  8  9  1  0  0  0
  3 10  1  0  0  0
  3 11  1  0  0  0
 19 21  1  0  0  0
M  CHG 1  17   1
M  END
> <minimizedAffinity>
-7.87428

$$$$
3RLB_VIB_A_191


 21 22  0  0  0  0  0  0  0  0999 V2000
   31.2362  -20.0600   48.5126 C   0  0  0  0  0  0  0  0  0  0  0  0
   25.5506  -20.5713   48.5363 C   0  0  0  0  0  0  0  0  0  0  0  0
   29.4142  -17.9256   49.2924 N   0  0  0  0  0  0  0  0  0  0  0  0
   28.9370  -19.1348   48.9296 C   0  0  0  0  0  0  0  0  0  0  0  0
   27.6166  -19.3077   48.9329 N   0  0  0  0  0  0  0  0  0  0  0  0
   27.0491  -20.4621   48.4954 C   0  0  0  0  0  0  0  0  0  0  0  0
   27.8018  -21.5053   48.1098 N   0  0  0  0  0  0  0  0  0  0  0  0
   29.1456  -21.3902   48.1060 C   0  0  0  0  0  0  0  0  0  0  0  0
   29.7496  -20.1991   48.5328 C   0  0  0  0  0  0  0  0  0  0  0  0
   28.7923  -17.2120   49.5633 H   0  0  0  0  0  0  0  0  0  0  0  0
   30.3841  -17.7571   49.2861 H   0  0  0  0  0  0  0  0  0  0  0  0
   33.2035  -22.3572   48.8603 C   0  0  0  0  0  0  0  0  0  0  0  0
   31.7182  -20.4389   46.0860 C   0  0  0  0  0  0  0  0  0  0  0  0
   32.6178  -21.4063   44.9575 S   0  0  0  0  0  0  0  0  0  0  0  0
   33.2864  -22.2422   46.3106 C   0  0  0  0  0  0  0  0  0  0  0  0
   32.7927  -21.7387   47.5643 C   0  0  0  0  0  0  0  0  0  0  0  0
   31.8995  -20.7255   47.3805 N   0  0  0  0  0  0  0  0  0  0  0  0
   34.2636  -23.3604   46.0643 C   0  0  0  0  0  0  0  0  0  0  0  0
   36.1907  -22.3129   45.3252 O   0  0  0  0  0  0  0  0  0  0  0  0
   35.0744  -23.0395   44.8306 C   0  0  0  0  0  0  0  0  0  0  0  0
   36.7688  -22.0659   44.5865 H   0  0  0  0  0  0  0  0  0  0  0  0
  2  6  1  0  0  0
  3  4  1  0  0  0
 12 16  1  0  0  0
 19 20  1  0  0  0
 20 18  1  0  0  0
 18 15  1  0  0  0
 13 14  1  0  0  0
 13 17  2  0  0  0
 14 15  1  0  0  0
 15 16  2  0  0  0
 16 17  1  0  0  0
 17  1  1  0  0  0
  1  9  1  0  0  0
  4  5  1  0  0  0
  4  9  2  0  0  0
  5  6  2  0  0  0
  6  7  1  0  0  0
  7  8  2  0  0  0
  8  9  1  0  0  0
  3 10  1  0  0  0
  3 11  1  0  0  0
 19 21  1  0  0  0
M  CHG 1  17   1
M  END
> <minimizedAffinity>
-7.56034

$$$$
3RLB_VIB_A_191


 21 22  0  0  0  0  0  0  0  0999 V2000
   30.0734  -19.2549   48.6891 C   0  0  0  0  0  0  0  0  0  0  0  0
   32.4649  -21.3260   43.9373 C   0  0  0  0  0  0  0  0  0  0  0  0
   32.3082  -21.1227   48.6736 N   0  0  0  0  0  0  0  0  0  0  0  0
   31.7858  -20.6704   47.5143 C   0  0  0  0  0  0  0  0  0  0  0  0
   32.3197  -21.1141   46.3779 N   0  0  0  0  0  0  0  0  0  0  0  0
   31.7970  -20.7812   45.1687 C   0  0  0  0  0  0  0  0  0  0  0  0
   30.7630  -19.9302   45.0676 N   0  0  0  0  0  0  0  0  0  0  0  0
   30.1972  -19.4356   46.1876 C   0  0  0  0  0  0  0  0  0  0  0  0
   30.7081  -19.7848   47.4456 C   0  0  0  0  0  0  0  0  0  0  0  0
   33.0694  -21.7469   48.6602 H   0  0  0  0  0  0  0  0  0  0  0  0
   31.9281  -20.8284   49.5328 H   0  0  0  0  0  0  0  0  0  0  0  0
   27.8946  -17.9921   50.3997 C   0  0  0  0  0  0  0  0  0  0  0  0
   28.5697  -21.2516   48.8178 C   0  0  0  0  0  0  0  0  0  0  0  0
   27.0665  -21.8511   49.4498 S   0  0  0  0  0  0  0  0  0  0  0  0
   26.8338  -20.3044   50.1781 C   0  0  0  0  0  0  0  0  0  0  0  0
   27.9204  -19.4019   49.9069 C   0  0  0  0  0  0  0  0  0  0  0  0
   28.8718  -19.9843   49.1235 N   0  0  0  0  0  0  0  0  0  0  0  0
   25.5828  -20.0583   50.9785 C   0  0  0  0  0  0  0  0  0  0  0  0
   26.5919  -20.6810   52.9663 O   0  0  0  0  0  0  0  0  0  0  0  0
   25.5214  -21.0565   52.1108 C   0  0  0  0  0  0  0  0  0  0  0  0
   26.6222  -21.2803   53.7284 H   0  0  0  0  0  0  0  0  0  0  0  0
  2  6  1  0  0  0
  3  4  1  0  0  0
 12 16  1  0  0  0
 19 20  1  0  0  0
 20 18  1  0  0  0
 18 15  1  0  0  0
 13 14  1  0  0  0
 13 17  2  0  0  0
 14 15  1  0  0  0
 15 16  2  0  0  0
 16 17  1  0  0  0
 17  1  1  0  0  0
  1  9  1  0  0  0
  4  5  1  0  0  0
  4  9  2  0  0  0
  5  6  2  0  0  0
  6  7  1  0  0  0
  7  8  2  0  0  0
  8  9  1  0  0  0
  3 10  1  0  0  0
  3 11  1  0  0  0
 19 21  1  0  0  0
M  CHG 1  17   1
M  END
> <minimizedAffinity>
-7.48353

$$$$
3RLB_VIB_A_191


 21 22  0  0  0  0  0  0  0  0999 V2000
   30.7176  -19.6046   46.5485 C   0  0  0  0  0  0  0  0  0  0  0  0
   26.5683  -20.1498   50.4310 C   0  0  0  0  0  0  0  0  0  0  0  0
   30.5536  -18.0209   48.9874 N   0  0  0  0  0  0  0  0  0  0  0  0
   29.6312  -18.9704   48.7242 C   0  0  0  0  0  0  0  0  0  0  0  0
   28.6505  -19.1452   49.6079 N   0  0  0  0  0  0  0  0  0  0  0  0
   27.6321  -20.0147   49.3779 C   0  0  0  0  0  0  0  0  0  0  0  0
   27.6120  -20.7886   48.2805 N   0  0  0  0  0  0  0  0  0  0  0  0
   28.5921  -20.6657   47.3622 C   0  0  0  0  0  0  0  0  0  0  0  0
   29.6401  -19.7579   47.5709 C   0  0  0  0  0  0  0  0  0  0  0  0
   30.4963  -17.4959   49.8183 H   0  0  0  0  0  0  0  0  0  0  0  0
   31.2836  -17.8532   48.3485 H   0  0  0  0  0  0  0  0  0  0  0  0
   31.9594  -20.7360   44.0096 C   0  0  0  0  0  0  0  0  0  0  0  0
   32.2426  -21.2576   47.6469 C   0  0  0  0  0  0  0  0  0  0  0  0
   33.4452  -22.4786   47.3616 S   0  0  0  0  0  0  0  0  0  0  0  0
   33.2385  -22.1915   45.6729 C   0  0  0  0  0  0  0  0  0  0  0  0
   32.2549  -21.1766   45.4059 C   0  0  0  0  0  0  0  0  0  0  0  0
   31.7293  -20.6728   46.5583 N   0  0  0  0  0  0  0  0  0  0  0  0
   34.0653  -22.9820   44.6943 C   0  0  0  0  0  0  0  0  0  0  0  0
   35.8683  -21.5496   44.4594 O   0  0  0  0  0  0  0  0  0  0  0  0
   35.5271  -22.8043   45.0322 C   0  0  0  0  0  0  0  0  0  0  0  0
   36.8031  -21.3581   44.6337 H   0  0  0  0  0  0  0  0  0  0  0  0
  2  6  1  0  0  0
  3  4  1  0  0  0
 12 16  1  0  0  0
 19 20  1  0  0  0
 20 18  1  0  0  0
 18 15  1  0  0  0
 13 14  1  0  0  0
 13 17  2  0  0  0
 14 15  1  0  0  0
 15 16  2  0  0  0
 16 17  1  0  0  0
 17  1  1  0  0  0
  1  9  1  0  0  0
  4  5  1  0  0  0
  4  9  2  0  0  0
  5  6  2  0  0  0
  6  7  1  0  0  0
  7  8  2  0  0  0
  8  9  1  0  0  0
  3 10  1  0  0  0
  3 11  1  0  0  0
 19 21  1  0  0  0
M  CHG 1  17   1
M  END
> <minimizedAffinity>
-7.36863

$$$$
3RLB_VIB_A_191


 21 22  0  0  0  0  0  0  0  0999 V2000
   30.1460  -19.3466   49.1426 C   0  0  0  0  0  0  0  0  0  0  0  0
   31.9256  -20.9154   43.9503 C   0  0  0  0  0  0  0  0  0  0  0  0
   32.3162  -21.2299   48.6670 N   0  0  0  0  0  0  0  0  0  0  0  0
   31.6764  -20.6468   47.6315 C   0  0  0  0  0  0  0  0  0  0  0  0
   32.0655  -20.9702   46.3998 N   0  0  0  0  0  0  0  0  0  0  0  0
   31.4168  -20.5002   45.3023 C   0  0  0  0  0  0  0  0  0  0  0  0
   30.4000  -19.6300   45.4141 N   0  0  0  0  0  0  0  0  0  0  0  0
   29.9785  -19.2538   46.6388 C   0  0  0  0  0  0  0  0  0  0  0  0
   30.6208  -19.7452   47.7841 C   0  0  0  0  0  0  0  0  0  0  0  0
   33.0548  -21.8586   48.4982 H   0  0  0  0  0  0  0  0  0  0  0  0
   32.0444  -21.0266   49.5911 H   0  0  0  0  0  0  0  0  0  0  0  0
   28.7262  -22.0379   49.0442 C   0  0  0  0  0  0  0  0  0  0  0  0
   27.8389  -18.5099   49.6345 C   0  0  0  0  0  0  0  0  0  0  0  0
   26.1822  -18.9816   49.8611 S   0  0  0  0  0  0  0  0  0  0  0  0
   26.6733  -20.6064   49.5519 C   0  0  0  0  0  0  0  0  0  0  0  0
   28.0828  -20.7116   49.2853 C   0  0  0  0  0  0  0  0  0  0  0  0
   28.6979  -19.4971   49.3551 N   0  0  0  0  0  0  0  0  0  0  0  0
   25.6389  -21.6993   49.5940 C   0  0  0  0  0  0  0  0  0  0  0  0
   26.1344  -22.0472   51.8280 O   0  0  0  0  0  0  0  0  0  0  0  0
   25.0354  -21.7495   50.9780 C   0  0  0  0  0  0  0  0  0  0  0  0
   25.8280  -22.0977   52.7470 H   0  0  0  0  0  0  0  0  0  0  0  0
  2  6  1  0  0  0
  3  4  1  0  0  0
 12 16  1  0  0  0
 19 20  1  0  0  0
 20 18  1  0  0  0
 18 15  1  0  0  0
 13 14  1  0  0  0
 13 17  2  0  0  0
 14 15  1  0  0  0
 15 16  2  0  0  0
 16 17  1  0  0  0
 17  1  1  0  0  0
  1  9  1  0  0  0
  4  5  1  0  0  0
  4  9  2  0  0  0
  5  6  2  0  0  0
  6  7  1  0  0  0
  7  8  2  0  0  0
  8  9  1  0  0  0
  3 10  1  0  0  0
  3 11  1  0  0  0
 19 21  1  0  0  0
M  CHG 1  17   1
M  END
> <minimizedAffinity>
-6.66093

$$$$
3RLB_VIB_A_191


 21 22  0  0  0  0  0  0  0  0999 V2000
   30.0008  -19.7243   48.7682 C   0  0  0  0  0  0  0  0  0  0  0  0
   25.1908  -22.6949   49.5600 C   0  0  0  0  0  0  0  0  0  0  0  0
   27.5009  -18.5545   49.6984 N   0  0  0  0  0  0  0  0  0  0  0  0
   27.5863  -19.8781   49.4484 C   0  0  0  0  0  0  0  0  0  0  0  0
   26.4935  -20.6164   49.6322 N   0  0  0  0  0  0  0  0  0  0  0  0
   26.4666  -21.9381   49.3180 C   0  0  0  0  0  0  0  0  0  0  0  0
   27.5657  -22.5712   48.8770 N   0  0  0  0  0  0  0  0  0  0  0  0
   28.7053  -21.8741   48.6919 C   0  0  0  0  0  0  0  0  0  0  0  0
   28.7470  -20.5046   48.9893 C   0  0  0  0  0  0  0  0  0  0  0  0
   26.6549  -18.1681   50.0212 H   0  0  0  0  0  0  0  0  0  0  0  0
   28.2846  -17.9754   49.5581 H   0  0  0  0  0  0  0  0  0  0  0  0
   30.0327  -19.1578   45.7772 C   0  0  0  0  0  0  0  0  0  0  0  0
   31.9290  -21.2083   48.1817 C   0  0  0  0  0  0  0  0  0  0  0  0
   32.9332  -21.7744   46.8818 S   0  0  0  0  0  0  0  0  0  0  0  0
   31.9835  -20.8052   45.8162 C   0  0  0  0  0  0  0  0  0  0  0  0
   30.9387  -20.0962   46.5050 C   0  0  0  0  0  0  0  0  0  0  0  0
   30.9587  -20.3510   47.8439 N   0  0  0  0  0  0  0  0  0  0  0  0
   32.3234  -20.7898   44.3498 C   0  0  0  0  0  0  0  0  0  0  0  0
   32.4085  -22.5934   42.9016 O   0  0  0  0  0  0  0  0  0  0  0  0
   31.4743  -21.8178   43.6393 C   0  0  0  0  0  0  0  0  0  0  0  0
   31.9382  -23.2852   42.4106 H   0  0  0  0  0  0  0  0  0  0  0  0
  2  6  1  0  0  0
  3  4  1  0  0  0
 12 16  1  0  0  0
 19 20  1  0  0  0
 20 18  1  0  0  0
 18 15  1  0  0  0
 13 14  1  0  0  0
 13 17  2  0  0  0
 14 15  1  0  0  0
 15 16  2  0  0  0
 16 17  1  0  0  0
 17  1  1  0  0  0
  1  9  1  0  0  0
  4  5  1  0  0  0
  4  9  2  0  0  0
  5  6  2  0  0  0
  6  7  1  0  0  0
  7  8  2  0  0  0
  8  9  1  0  0  0
  3 10  1  0  0  0
  3 11  1  0  0  0
 19 21  1  0  0  0
M  CHG 1  17   1
M  END
> <minimizedAffinity>
-6.47422

$$$$
3RLB_VIB_A_191


 21 22  0  0  0  0  0  0  0  0999 V2000
   30.6425  -20.0770   48.0197 C   0  0  0  0  0  0  0  0  0  0  0  0
   25.9159  -23.0882   49.1058 C   0  0  0  0  0  0  0  0  0  0  0  0
   28.1710  -19.8301   46.4985 N   0  0  0  0  0  0  0  0  0  0  0  0
   28.2477  -20.6756   47.5477 C   0  0  0  0  0  0  0  0  0  0  0  0
   27.1654  -21.3902   47.8496 N   0  0  0  0  0  0  0  0  0  0  0  0
   27.1840  -22.3294   48.8313 C   0  0  0  0  0  0  0  0  0  0  0  0
   28.2764  -22.5242   49.5878 N   0  0  0  0  0  0  0  0  0  0  0  0
   29.3942  -21.8124   49.3371 C   0  0  0  0  0  0  0  0  0  0  0  0
   29.4018  -20.8542   48.3137 C   0  0  0  0  0  0  0  0  0  0  0  0
   27.3294  -19.7457   45.9948 H   0  0  0  0  0  0  0  0  0  0  0  0
   28.9568  -19.2979   46.2367 H   0  0  0  0  0  0  0  0  0  0  0  0
   32.8983  -22.0342   48.6102 C   0  0  0  0  0  0  0  0  0  0  0  0
   31.3869  -20.4303   45.6563 C   0  0  0  0  0  0  0  0  0  0  0  0
   32.5183  -21.2717   44.6411 S   0  0  0  0  0  0  0  0  0  0  0  0
   33.1853  -21.9641   46.0737 C   0  0  0  0  0  0  0  0  0  0  0  0
   32.5131  -21.5154   47.2635 C   0  0  0  0  0  0  0  0  0  0  0  0
   31.4957  -20.6568   46.9707 N   0  0  0  0  0  0  0  0  0  0  0  0
   34.3391  -22.9229   45.9489 C   0  0  0  0  0  0  0  0  0  0  0  0
   36.2087  -21.8523   45.1029 O   0  0  0  0  0  0  0  0  0  0  0  0
   35.0923  -22.6199   44.6749 C   0  0  0  0  0  0  0  0  0  0  0  0
   36.7507  -21.6137   44.3347 H   0  0  0  0  0  0  0  0  0  0  0  0
  2  6  1  0  0  0
  3  4  1  0  0  0
 12 16  1  0  0  0
 19 20  1  0  0  0
 20 18  1  0  0  0
 18 15  1  0  0  0
 13 14  1  0  0  0
 13 17  2  0  0  0
 14 15  1  0  0  0
 15 16  2  0  0  0
 16 17  1  0  0  0
 17  1  1  0  0  0
  1  9  1  0  0  0
  4  5  1  0  0  0
  4  9  2  0  0  0
  5  6  2  0  0  0
  6  7  1  0  0  0
  7  8  2  0  0  0
  8  9  1  0  0  0
  3 10  1  0  0  0
  3 11  1  0  0  0
 19 21  1  0  0  0
M  CHG 1  17   1
M  END
> <minimizedAffinity>
-6.21809

$$$$
3RLB_VIB_A_191


 21 22  0  0  0  0  0  0  0  0999 V2000
   30.3622  -19.3853   46.9147 C   0  0  0  0  0  0  0  0  0  0  0  0
   26.5759  -19.7311   51.1729 C   0  0  0  0  0  0  0  0  0  0  0  0
   28.4620  -21.5702   47.2284 N   0  0  0  0  0  0  0  0  0  0  0  0
   28.4726  -20.5413   48.1018 C   0  0  0  0  0  0  0  0  0  0  0  0
   27.5976  -20.5696   49.1052 N   0  0  0  0  0  0  0  0  0  0  0  0
   27.6008  -19.6220   50.0789 C   0  0  0  0  0  0  0  0  0  0  0  0
   28.4410  -18.5755   50.0291 N   0  0  0  0  0  0  0  0  0  0  0  0
   29.3348  -18.4878   49.0229 C   0  0  0  0  0  0  0  0  0  0  0  0
   29.3621  -19.4677   48.0205 C   0  0  0  0  0  0  0  0  0  0  0  0
   27.8106  -22.3005   47.3360 H   0  0  0  0  0  0  0  0  0  0  0  0
   29.1055  -21.5904   46.4836 H   0  0  0  0  0  0  0  0  0  0  0  0
   31.5973  -20.5759   44.3997 C   0  0  0  0  0  0  0  0  0  0  0  0
   31.9433  -20.9596   48.0487 C   0  0  0  0  0  0  0  0  0  0  0  0
   33.1724  -22.1599   47.7894 S   0  0  0  0  0  0  0  0  0  0  0  0
   32.9354  -21.9388   46.0948 C   0  0  0  0  0  0  0  0  0  0  0  0
   31.9229  -20.9588   45.8063 C   0  0  0  0  0  0  0  0  0  0  0  0
   31.4006  -20.4271   46.9476 N   0  0  0  0  0  0  0  0  0  0  0  0
   33.7684  -22.7431   45.1329 C   0  0  0  0  0  0  0  0  0  0  0  0
   35.7381  -21.6810   44.5415 O   0  0  0  0  0  0  0  0  0  0  0  0
   35.2255  -22.5932   45.5028 C   0  0  0  0  0  0  0  0  0  0  0  0
   36.6810  -21.5288   44.7108 H   0  0  0  0  0  0  0  0  0  0  0  0
  2  6  1  0  0  0
  3  4  1  0  0  0
 12 16  1  0  0  0
 19 20  1  0  0  0
 20 18  1  0  0  0
 18 15  1  0  0  0
 13 14  1  0  0  0
 13 17  2  0  0  0
 14 15  1  0  0  0
 15 16  2  0  0  0
 16 17  1  0  0  0
 17  1  1  0  0  0
  1  9  1  0  0  0
  4  5  1  0  0  0
  4  9  2  0  0  0
  5  6  2  0  0  0
  6  7  1  0  0  0
  7  8  2  0  0  0
  8  9  1  0  0  0
  3 10  1  0  0  0
  3 11  1  0  0  0
 19 21  1  0  0  0
M  CHG 1  17   1
M  END
> <minimizedAffinity>
-6.11850

$$$$
3RLB_VIB_A_191


 21 22  0  0  0  0  0  0  0  0999 V2000
   25.0257  -23.3849   48.0692 C   0  0  0  0  0  0  0  0  0  0  0  0
   28.0003  -27.8119   46.0341 C   0  0  0  0  0  0  0  0  0  0  0  0
   24.9683  -26.0552   49.2310 N   0  0  0  0  0  0  0  0  0  0  0  0
   25.7473  -25.7905   48.1611 C   0  0  0  0  0  0  0  0  0  0  0  0
   26.4717  -26.7885   47.6585 N   0  0  0  0  0  0  0  0  0  0  0  0
   27.2117  -26.6322   46.5297 C   0  0  0  0  0  0  0  0  0  0  0  0
   27.3008  -25.4415   45.9150 N   0  0  0  0  0  0  0  0  0  0  0  0
   26.6025  -24.3919   46.3944 C   0  0  0  0  0  0  0  0  0  0  0  0
   25.8155  -24.5389   47.5453 C   0  0  0  0  0  0  0  0  0  0  0  0
   24.9612  -26.9580   49.6234 H   0  0  0  0  0  0  0  0  0  0  0  0
   24.4071  -25.3454   49.6189 H   0  0  0  0  0  0  0  0  0  0  0  0
   25.5907  -20.4669   47.4102 C   0  0  0  0  0  0  0  0  0  0  0  0
   26.2639  -22.8164   50.1688 C   0  0  0  0  0  0  0  0  0  0  0  0
   27.0815  -21.5470   51.0283 S   0  0  0  0  0  0  0  0  0  0  0  0
   26.7468  -20.5151   49.6867 C   0  0  0  0  0  0  0  0  0  0  0  0
   26.0279  -21.1920   48.6408 C   0  0  0  0  0  0  0  0  0  0  0  0
   25.7701  -22.4897   48.9687 N   0  0  0  0  0  0  0  0  0  0  0  0
   27.2079  -19.0831   49.7379 C   0  0  0  0  0  0  0  0  0  0  0  0
   27.6939  -17.6219   51.4659 O   0  0  0  0  0  0  0  0  0  0  0  0
   26.6329  -18.4271   50.9713 C   0  0  0  0  0  0  0  0  0  0  0  0
   27.4029  -17.1605   52.2680 H   0  0  0  0  0  0  0  0  0  0  0  0
  2  6  1  0  0  0
  3  4  1  0  0  0
 12 16  1  0  0  0
 19 20  1  0  0  0
 20 18  1  0  0  0
 18 15  1  0  0  0
 13 14  1  0  0  0
 13 17  2  0  0  0
 14 15  1  0  0  0
 15 16  2  0  0  0
 16 17  1  0  0  0
 17  1  1  0  0  0
  1  9  1  0  0  0
  4  5  1  0  0  0
  4  9  2  0  0  0
  5  6  2  0  0  0
  6  7  1  0  0  0
  7  8  2  0  0  0
  8  9  1  0  0  0
  3 10  1  0  0  0
  3 11  1  0  0  0
 19 21  1  0  0  0
M  CHG 1  17   1
M  END
> <minimizedAffinity>
-6.03838

$$$$
