3ROC_29A_A_401


 33 35  0  0  0  0  0  0  0  0999 V2000
   35.1836   38.5211   22.1954 C   0  0  0  0  0  0  0  0  0  0  0  0
   35.3203   37.1413   22.1745 C   0  0  0  0  0  0  0  0  0  0  0  0
   35.5684   36.4496   20.8428 C   0  0  0  0  0  0  0  0  0  0  0  0
   35.6333   37.2776   19.7389 N   0  0  0  0  0  0  0  0  0  0  0  0
   35.4620   38.7585   19.9488 C   0  0  0  0  0  0  0  0  0  0  0  0
   35.2574   39.2528   21.1251 N   0  0  0  0  0  0  0  0  0  0  0  0
   35.2116   36.1978   23.6081 Cl  0  0  0  0  0  0  0  0  0  0  0  0
   35.6938   35.1995   20.8083 O   0  0  0  0  0  0  0  0  0  0  0  0
   35.8473   36.8065   18.3942 C   0  0  0  0  0  0  0  0  0  0  0  0
   37.1538   36.6425   17.8589 C   0  0  0  0  0  0  0  0  0  0  0  0
   37.3077   36.1726   16.5585 C   0  0  0  0  0  0  0  0  0  0  0  0
   36.1884   35.8873   15.7903 C   0  0  0  0  0  0  0  0  0  0  0  0
   34.8796   36.0510   16.3008 C   0  0  0  0  0  0  0  0  0  0  0  0
   34.7383   36.5107   17.6047 C   0  0  0  0  0  0  0  0  0  0  0  0
   38.4391   37.1226   18.5516 C   0  0  0  0  0  0  0  0  0  0  0  0
   33.7024   35.7250   15.4092 C   0  0  0  0  0  0  0  0  0  0  0  0
   32.5719   36.1173   15.7180 O   0  0  0  0  0  0  0  0  0  0  0  0
   33.9168   35.0315   14.2691 N   0  0  0  0  0  0  0  0  0  0  0  0
   34.4184   35.4713   13.5452 H   0  0  0  0  0  0  0  0  0  0  0  0
   33.4406   33.6501   14.0481 C   0  0  0  0  0  0  0  0  0  0  0  0
   32.9476   33.4520   12.6030 C   0  0  0  0  0  0  0  0  0  0  0  0
   31.5344   33.6305   12.5224 O   0  0  0  0  0  0  0  0  0  0  0  0
   31.0932   32.9774   13.0878 H   0  0  0  0  0  0  0  0  0  0  0  0
   34.9582   39.1563   23.3823 O   0  0  0  0  0  0  0  0  0  0  0  0
   33.6241   39.7254   23.7282 C   0  0  0  0  0  0  0  0  0  0  0  0
   33.0920   38.8664   24.8539 C   0  0  0  0  0  0  0  0  0  0  0  0
   32.1025   37.9049   24.6126 C   0  0  0  0  0  0  0  0  0  0  0  0
   31.5837   37.1598   25.6574 C   0  0  0  0  0  0  0  0  0  0  0  0
   32.0561   37.3654   26.9473 C   0  0  0  0  0  0  0  0  0  0  0  0
   33.0581   38.3086   27.1928 C   0  0  0  0  0  0  0  0  0  0  0  0
   33.5712   39.0562   26.1464 C   0  0  0  0  0  0  0  0  0  0  0  0
   31.6421   37.7230   23.3602 F   0  0  0  0  0  0  0  0  0  0  0  0
   31.5488   36.6706   27.9697 F   0  0  0  0  0  0  0  0  0  0  0  0
 31 26  2  0  0  0
 27 26  1  0  0  0
 26 25  1  0  0  0
 28 27  2  0  0  0
 27 32  1  0  0  0
 29 28  1  0  0  0
 33 29  1  0  0  0
 29 30  2  0  0  0
 30 31  1  0  0  0
 25 24  1  0  0  0
 24  1  1  0  0  0
  1  2  2  0  0  0
  1  6  1  0  0  0
  7  2  1  0  0  0
  2  3  1  0  0  0
  3  8  2  0  0  0
  3  4  1  0  0  0
  5  4  1  0  0  0
  4  9  1  0  0  0
  6  5  2  0  0  0
  9 10  2  0  0  0
  9 14  1  0  0  0
 15 10  1  0  0  0
 10 11  1  0  0  0
 11 12  2  0  0  0
 13 12  1  0  0  0
 14 13  2  0  0  0
 13 16  1  0  0  0
 17 16  2  0  0  0
 16 18  1  0  0  0
 18 20  1  0  0  0
 20 21  1  0  0  0
 21 22  1  0  0  0
 18 19  1  0  0  0
 22 23  1  0  0  0
M  END
> <minimizedAffinity>
-9.69737

$$$$
3ROC_29A_A_401


 33 35  0  0  0  0  0  0  0  0999 V2000
   35.3598   37.7270   21.5856 C   0  0  0  0  0  0  0  0  0  0  0  0
   34.4174   38.6907   21.9113 C   0  0  0  0  0  0  0  0  0  0  0  0
   33.9623   38.8112   23.3576 C   0  0  0  0  0  0  0  0  0  0  0  0
   34.5392   37.9232   24.2447 N   0  0  0  0  0  0  0  0  0  0  0  0
   35.5489   36.9410   23.7134 C   0  0  0  0  0  0  0  0  0  0  0  0
   35.8732   36.9187   22.4628 N   0  0  0  0  0  0  0  0  0  0  0  0
   33.7505   39.7434   20.7263 Cl  0  0  0  0  0  0  0  0  0  0  0  0
   33.1083   39.6797   23.6677 O   0  0  0  0  0  0  0  0  0  0  0  0
   34.2255   37.8754   25.6502 C   0  0  0  0  0  0  0  0  0  0  0  0
   34.8296   38.7632   26.5814 C   0  0  0  0  0  0  0  0  0  0  0  0
   34.4837   38.6849   27.9266 C   0  0  0  0  0  0  0  0  0  0  0  0
   33.5696   37.7313   28.3502 C   0  0  0  0  0  0  0  0  0  0  0  0
   32.9629   36.8332   27.4416 C   0  0  0  0  0  0  0  0  0  0  0  0
   33.3080   36.9279   26.0987 C   0  0  0  0  0  0  0  0  0  0  0  0
   35.9954   39.7071   26.2457 C   0  0  0  0  0  0  0  0  0  0  0  0
   31.9771   35.8154   27.9699 C   0  0  0  0  0  0  0  0  0  0  0  0
   31.5681   35.9037   29.1327 O   0  0  0  0  0  0  0  0  0  0  0  0
   31.5372   34.8399   27.1442 N   0  0  0  0  0  0  0  0  0  0  0  0
   30.9587   35.0957   26.3898 H   0  0  0  0  0  0  0  0  0  0  0  0
   31.8759   33.4110   27.3100 C   0  0  0  0  0  0  0  0  0  0  0  0
   33.3832   33.2176   27.5570 C   0  0  0  0  0  0  0  0  0  0  0  0
   34.1161   33.3548   26.3406 O   0  0  0  0  0  0  0  0  0  0  0  0
   33.8214   32.6814   25.7077 H   0  0  0  0  0  0  0  0  0  0  0  0
   35.7766   37.6047   20.2916 O   0  0  0  0  0  0  0  0  0  0  0  0
   36.3113   36.3199   19.7562 C   0  0  0  0  0  0  0  0  0  0  0  0
   36.9927   36.6719   18.4523 C   0  0  0  0  0  0  0  0  0  0  0  0
   38.3370   37.0647   18.4319 C   0  0  0  0  0  0  0  0  0  0  0  0
   38.9378   37.4356   17.2414 C   0  0  0  0  0  0  0  0  0  0  0  0
   38.2016   37.4085   16.0639 C   0  0  0  0  0  0  0  0  0  0  0  0
   36.8654   36.9979   16.0732 C   0  0  0  0  0  0  0  0  0  0  0  0
   36.2656   36.6327   17.2665 C   0  0  0  0  0  0  0  0  0  0  0  0
   39.0378   37.1001   19.5813 F   0  0  0  0  0  0  0  0  0  0  0  0
   38.7605   37.7861   14.9104 F   0  0  0  0  0  0  0  0  0  0  0  0
 31 26  2  0  0  0
 27 26  1  0  0  0
 26 25  1  0  0  0
 28 27  2  0  0  0
 27 32  1  0  0  0
 29 28  1  0  0  0
 33 29  1  0  0  0
 29 30  2  0  0  0
 30 31  1  0  0  0
 25 24  1  0  0  0
 24  1  1  0  0  0
  1  2  2  0  0  0
  1  6  1  0  0  0
  7  2  1  0  0  0
  2  3  1  0  0  0
  3  8  2  0  0  0
  3  4  1  0  0  0
  5  4  1  0  0  0
  4  9  1  0  0  0
  6  5  2  0  0  0
  9 10  2  0  0  0
  9 14  1  0  0  0
 15 10  1  0  0  0
 10 11  1  0  0  0
 11 12  2  0  0  0
 13 12  1  0  0  0
 14 13  2  0  0  0
 13 16  1  0  0  0
 17 16  2  0  0  0
 16 18  1  0  0  0
 18 20  1  0  0  0
 20 21  1  0  0  0
 21 22  1  0  0  0
 18 19  1  0  0  0
 22 23  1  0  0  0
M  END
> <minimizedAffinity>
-9.46149

$$$$
3ROC_29A_A_401


 33 35  0  0  0  0  0  0  0  0999 V2000
   35.5771   37.9111   21.4280 C   0  0  0  0  0  0  0  0  0  0  0  0
   35.1216   39.1685   21.7948 C   0  0  0  0  0  0  0  0  0  0  0  0
   34.4656   39.3416   23.1562 C   0  0  0  0  0  0  0  0  0  0  0  0
   34.3737   38.1998   23.9283 N   0  0  0  0  0  0  0  0  0  0  0  0
   34.9241   36.9154   23.3679 C   0  0  0  0  0  0  0  0  0  0  0  0
   35.4681   36.8702   22.1967 N   0  0  0  0  0  0  0  0  0  0  0  0
   35.2743   40.5277   20.7527 Cl  0  0  0  0  0  0  0  0  0  0  0  0
   34.0474   40.4752   23.5022 O   0  0  0  0  0  0  0  0  0  0  0  0
   33.7736   38.1629   25.2377 C   0  0  0  0  0  0  0  0  0  0  0  0
   32.4272   37.7507   25.4313 C   0  0  0  0  0  0  0  0  0  0  0  0
   31.8978   37.7206   26.7175 C   0  0  0  0  0  0  0  0  0  0  0  0
   32.6794   38.1104   27.7953 C   0  0  0  0  0  0  0  0  0  0  0  0
   34.0187   38.5316   27.6238 C   0  0  0  0  0  0  0  0  0  0  0  0
   34.5401   38.5472   26.3356 C   0  0  0  0  0  0  0  0  0  0  0  0
   31.4267   37.5002   24.2917 C   0  0  0  0  0  0  0  0  0  0  0  0
   34.8146   38.9468   28.8407 C   0  0  0  0  0  0  0  0  0  0  0  0
   36.0043   38.6255   28.9345 O   0  0  0  0  0  0  0  0  0  0  0  0
   34.2123   39.6917   29.7942 N   0  0  0  0  0  0  0  0  0  0  0  0
   33.9603   40.6168   29.5707 H   0  0  0  0  0  0  0  0  0  0  0  0
   33.9109   39.1958   31.1532 C   0  0  0  0  0  0  0  0  0  0  0  0
   32.7852   40.0145   31.8114 C   0  0  0  0  0  0  0  0  0  0  0  0
   32.0916   40.7934   30.8379 O   0  0  0  0  0  0  0  0  0  0  0  0
   32.7107   41.4094   30.4158 H   0  0  0  0  0  0  0  0  0  0  0  0
   36.1658   37.7389   20.2086 O   0  0  0  0  0  0  0  0  0  0  0  0
   36.6257   36.4002   19.7399 C   0  0  0  0  0  0  0  0  0  0  0  0
   37.0183   36.5865   18.2909 C   0  0  0  0  0  0  0  0  0  0  0  0
   38.2907   37.0633   17.9511 C   0  0  0  0  0  0  0  0  0  0  0  0
   38.6234   37.2807   16.6252 C   0  0  0  0  0  0  0  0  0  0  0  0
   37.6899   37.0155   15.6314 C   0  0  0  0  0  0  0  0  0  0  0  0
   36.4253   36.5200   15.9615 C   0  0  0  0  0  0  0  0  0  0  0  0
   36.0935   36.3087   17.2891 C   0  0  0  0  0  0  0  0  0  0  0  0
   39.1835   37.3297   18.9234 F   0  0  0  0  0  0  0  0  0  0  0  0
   37.9879   37.2425   14.3488 F   0  0  0  0  0  0  0  0  0  0  0  0
 31 26  2  0  0  0
 27 26  1  0  0  0
 26 25  1  0  0  0
 28 27  2  0  0  0
 27 32  1  0  0  0
 29 28  1  0  0  0
 33 29  1  0  0  0
 29 30  2  0  0  0
 30 31  1  0  0  0
 25 24  1  0  0  0
 24  1  1  0  0  0
  1  2  2  0  0  0
  1  6  1  0  0  0
  7  2  1  0  0  0
  2  3  1  0  0  0
  3  8  2  0  0  0
  3  4  1  0  0  0
  5  4  1  0  0  0
  4  9  1  0  0  0
  6  5  2  0  0  0
  9 10  2  0  0  0
  9 14  1  0  0  0
 15 10  1  0  0  0
 10 11  1  0  0  0
 11 12  2  0  0  0
 13 12  1  0  0  0
 14 13  2  0  0  0
 13 16  1  0  0  0
 17 16  2  0  0  0
 16 18  1  0  0  0
 18 20  1  0  0  0
 20 21  1  0  0  0
 21 22  1  0  0  0
 18 19  1  0  0  0
 22 23  1  0  0  0
M  END
> <minimizedAffinity>
-9.39745

$$$$
3ROC_29A_A_401


 33 35  0  0  0  0  0  0  0  0999 V2000
   35.7935   38.1050   21.5265 C   0  0  0  0  0  0  0  0  0  0  0  0
   35.3419   39.3742   21.8555 C   0  0  0  0  0  0  0  0  0  0  0  0
   34.8233   39.6253   23.2631 C   0  0  0  0  0  0  0  0  0  0  0  0
   34.8433   38.5370   24.1137 N   0  0  0  0  0  0  0  0  0  0  0  0
   35.3702   37.2296   23.5845 C   0  0  0  0  0  0  0  0  0  0  0  0
   35.7931   37.1166   22.3688 N   0  0  0  0  0  0  0  0  0  0  0  0
   35.3488   40.6624   20.7164 Cl  0  0  0  0  0  0  0  0  0  0  0  0
   34.4104   40.7705   23.5757 O   0  0  0  0  0  0  0  0  0  0  0  0
   34.3810   38.5762   25.4778 C   0  0  0  0  0  0  0  0  0  0  0  0
   33.0498   38.2201   25.8262 C   0  0  0  0  0  0  0  0  0  0  0  0
   32.6556   38.2627   27.1597 C   0  0  0  0  0  0  0  0  0  0  0  0
   33.5561   38.6697   28.1333 C   0  0  0  0  0  0  0  0  0  0  0  0
   34.8827   39.0359   27.8072 C   0  0  0  0  0  0  0  0  0  0  0  0
   35.2684   38.9791   26.4732 C   0  0  0  0  0  0  0  0  0  0  0  0
   31.9296   37.9574   24.8071 C   0  0  0  0  0  0  0  0  0  0  0  0
   35.8126   39.4736   28.9165 C   0  0  0  0  0  0  0  0  0  0  0  0
   35.7821   38.8934   30.0073 O   0  0  0  0  0  0  0  0  0  0  0  0
   36.6854   40.4783   28.6811 N   0  0  0  0  0  0  0  0  0  0  0  0
   37.4218   40.3153   28.0483 H   0  0  0  0  0  0  0  0  0  0  0  0
   36.5966   41.8080   29.3199 C   0  0  0  0  0  0  0  0  0  0  0  0
   37.4854   42.8370   28.5977 C   0  0  0  0  0  0  0  0  0  0  0  0
   38.7619   42.2768   28.2936 O   0  0  0  0  0  0  0  0  0  0  0  0
   39.2043   42.0149   29.1162 H   0  0  0  0  0  0  0  0  0  0  0  0
   36.2596   37.8631   20.2666 O   0  0  0  0  0  0  0  0  0  0  0  0
   36.4208   36.4771   19.7409 C   0  0  0  0  0  0  0  0  0  0  0  0
   36.8988   36.6334   18.3142 C   0  0  0  0  0  0  0  0  0  0  0  0
   38.2053   37.0579   18.0409 C   0  0  0  0  0  0  0  0  0  0  0  0
   38.6180   37.2489   16.7336 C   0  0  0  0  0  0  0  0  0  0  0  0
   37.7306   37.0094   15.6922 C   0  0  0  0  0  0  0  0  0  0  0  0
   36.4316   36.5659   15.9563 C   0  0  0  0  0  0  0  0  0  0  0  0
   36.0200   36.3810   17.2654 C   0  0  0  0  0  0  0  0  0  0  0  0
   39.0534   37.3000   19.0586 F   0  0  0  0  0  0  0  0  0  0  0  0
   38.1066   37.2118   14.4261 F   0  0  0  0  0  0  0  0  0  0  0  0
 31 26  2  0  0  0
 27 26  1  0  0  0
 26 25  1  0  0  0
 28 27  2  0  0  0
 27 32  1  0  0  0
 29 28  1  0  0  0
 33 29  1  0  0  0
 29 30  2  0  0  0
 30 31  1  0  0  0
 25 24  1  0  0  0
 24  1  1  0  0  0
  1  2  2  0  0  0
  1  6  1  0  0  0
  7  2  1  0  0  0
  2  3  1  0  0  0
  3  8  2  0  0  0
  3  4  1  0  0  0
  5  4  1  0  0  0
  4  9  1  0  0  0
  6  5  2  0  0  0
  9 10  2  0  0  0
  9 14  1  0  0  0
 15 10  1  0  0  0
 10 11  1  0  0  0
 11 12  2  0  0  0
 13 12  1  0  0  0
 14 13  2  0  0  0
 13 16  1  0  0  0
 17 16  2  0  0  0
 16 18  1  0  0  0
 18 20  1  0  0  0
 20 21  1  0  0  0
 21 22  1  0  0  0
 18 19  1  0  0  0
 22 23  1  0  0  0
M  END
> <minimizedAffinity>
-9.37613

$$$$
3ROC_29A_A_401


 33 35  0  0  0  0  0  0  0  0999 V2000
   35.6366   38.3206   21.1931 C   0  0  0  0  0  0  0  0  0  0  0  0
   34.9496   39.4223   21.6802 C   0  0  0  0  0  0  0  0  0  0  0  0
   34.4935   39.4185   23.1312 C   0  0  0  0  0  0  0  0  0  0  0  0
   34.8074   38.2855   23.8566 N   0  0  0  0  0  0  0  0  0  0  0  0
   35.5613   37.1823   23.1628 C   0  0  0  0  0  0  0  0  0  0  0  0
   35.9088   37.2810   21.9222 N   0  0  0  0  0  0  0  0  0  0  0  0
   34.5981   40.7825   20.6886 Cl  0  0  0  0  0  0  0  0  0  0  0  0
   33.8694   40.4098   23.5866 O   0  0  0  0  0  0  0  0  0  0  0  0
   34.4482   38.0925   25.2385 C   0  0  0  0  0  0  0  0  0  0  0  0
   35.0666   38.8337   26.2819 C   0  0  0  0  0  0  0  0  0  0  0  0
   34.6756   38.6192   27.5997 C   0  0  0  0  0  0  0  0  0  0  0  0
   33.7025   37.6728   27.8860 C   0  0  0  0  0  0  0  0  0  0  0  0
   33.0804   36.9190   26.8637 C   0  0  0  0  0  0  0  0  0  0  0  0
   33.4713   37.1496   25.5501 C   0  0  0  0  0  0  0  0  0  0  0  0
   36.2877   39.7468   26.0881 C   0  0  0  0  0  0  0  0  0  0  0  0
   32.0293   35.9007   27.2446 C   0  0  0  0  0  0  0  0  0  0  0  0
   31.9313   35.5303   28.4196 O   0  0  0  0  0  0  0  0  0  0  0  0
   31.1925   35.4352   26.2907 N   0  0  0  0  0  0  0  0  0  0  0  0
   30.5341   36.0579   25.9062 H   0  0  0  0  0  0  0  0  0  0  0  0
   31.2104   34.0440   25.7925 C   0  0  0  0  0  0  0  0  0  0  0  0
   31.9650   33.9377   24.4547 C   0  0  0  0  0  0  0  0  0  0  0  0
   31.4091   34.8288   23.4890 O   0  0  0  0  0  0  0  0  0  0  0  0
   30.4794   34.5991   23.3344 H   0  0  0  0  0  0  0  0  0  0  0  0
   36.0504   38.3077   19.8924 O   0  0  0  0  0  0  0  0  0  0  0  0
   37.0123   37.2883   19.3837 C   0  0  0  0  0  0  0  0  0  0  0  0
   36.3509   36.6702   18.1718 C   0  0  0  0  0  0  0  0  0  0  0  0
   37.0846   36.4270   17.0037 C   0  0  0  0  0  0  0  0  0  0  0  0
   36.4598   35.9101   15.8820 C   0  0  0  0  0  0  0  0  0  0  0  0
   35.1008   35.6258   15.9236 C   0  0  0  0  0  0  0  0  0  0  0  0
   34.3664   35.8464   17.0923 C   0  0  0  0  0  0  0  0  0  0  0  0
   34.9931   36.3688   18.2110 C   0  0  0  0  0  0  0  0  0  0  0  0
   38.3988   36.7188   16.9700 F   0  0  0  0  0  0  0  0  0  0  0  0
   34.4785   35.1484   14.8418 F   0  0  0  0  0  0  0  0  0  0  0  0
 31 26  2  0  0  0
 27 26  1  0  0  0
 26 25  1  0  0  0
 28 27  2  0  0  0
 27 32  1  0  0  0
 29 28  1  0  0  0
 33 29  1  0  0  0
 29 30  2  0  0  0
 30 31  1  0  0  0
 25 24  1  0  0  0
 24  1  1  0  0  0
  1  2  2  0  0  0
  1  6  1  0  0  0
  7  2  1  0  0  0
  2  3  1  0  0  0
  3  8  2  0  0  0
  3  4  1  0  0  0
  5  4  1  0  0  0
  4  9  1  0  0  0
  6  5  2  0  0  0
  9 10  2  0  0  0
  9 14  1  0  0  0
 15 10  1  0  0  0
 10 11  1  0  0  0
 11 12  2  0  0  0
 13 12  1  0  0  0
 14 13  2  0  0  0
 13 16  1  0  0  0
 17 16  2  0  0  0
 16 18  1  0  0  0
 18 20  1  0  0  0
 20 21  1  0  0  0
 21 22  1  0  0  0
 18 19  1  0  0  0
 22 23  1  0  0  0
M  END
> <minimizedAffinity>
-9.31431

$$$$
3ROC_29A_A_401


 33 35  0  0  0  0  0  0  0  0999 V2000
   35.6029   38.1368   21.4278 C   0  0  0  0  0  0  0  0  0  0  0  0
   35.1397   39.4019   21.7562 C   0  0  0  0  0  0  0  0  0  0  0  0
   34.7609   39.6914   23.2006 C   0  0  0  0  0  0  0  0  0  0  0  0
   34.9109   38.6393   24.0832 N   0  0  0  0  0  0  0  0  0  0  0  0
   35.4297   37.3307   23.5494 C   0  0  0  0  0  0  0  0  0  0  0  0
   35.7280   37.1836   22.3008 N   0  0  0  0  0  0  0  0  0  0  0  0
   34.9787   40.6428   20.5767 Cl  0  0  0  0  0  0  0  0  0  0  0  0
   34.3391   40.8333   23.5131 O   0  0  0  0  0  0  0  0  0  0  0  0
   34.5917   38.7174   25.4861 C   0  0  0  0  0  0  0  0  0  0  0  0
   33.4084   38.1355   26.0168 C   0  0  0  0  0  0  0  0  0  0  0  0
   33.1517   38.2276   27.3810 C   0  0  0  0  0  0  0  0  0  0  0  0
   34.0397   38.9011   28.2069 C   0  0  0  0  0  0  0  0  0  0  0  0
   35.2187   39.4941   27.6981 C   0  0  0  0  0  0  0  0  0  0  0  0
   35.4701   39.3864   26.3355 C   0  0  0  0  0  0  0  0  0  0  0  0
   32.2717   37.5537   25.1614 C   0  0  0  0  0  0  0  0  0  0  0  0
   36.1426   40.2167   28.6526 C   0  0  0  0  0  0  0  0  0  0  0  0
   36.9495   41.0449   28.2164 O   0  0  0  0  0  0  0  0  0  0  0  0
   36.0460   39.9620   29.9765 N   0  0  0  0  0  0  0  0  0  0  0  0
   35.2333   40.2560   30.4480 H   0  0  0  0  0  0  0  0  0  0  0  0
   37.0916   39.2672   30.7560 C   0  0  0  0  0  0  0  0  0  0  0  0
   36.6969   37.8075   31.0464 C   0  0  0  0  0  0  0  0  0  0  0  0
   37.7683   37.1112   31.6811 O   0  0  0  0  0  0  0  0  0  0  0  0
   38.5427   37.1079   31.0970 H   0  0  0  0  0  0  0  0  0  0  0  0
   35.9445   37.8606   20.1354 O   0  0  0  0  0  0  0  0  0  0  0  0
   36.8190   36.7054   19.7833 C   0  0  0  0  0  0  0  0  0  0  0  0
   37.1388   36.8671   18.3137 C   0  0  0  0  0  0  0  0  0  0  0  0
   36.1665   36.6109   17.3385 C   0  0  0  0  0  0  0  0  0  0  0  0
   36.4826   36.7104   15.9947 C   0  0  0  0  0  0  0  0  0  0  0  0
   37.7691   37.0739   15.6177 C   0  0  0  0  0  0  0  0  0  0  0  0
   38.7391   37.3512   16.5853 C   0  0  0  0  0  0  0  0  0  0  0  0
   38.4213   37.2455   17.9288 C   0  0  0  0  0  0  0  0  0  0  0  0
   34.9259   36.2462   17.7149 F   0  0  0  0  0  0  0  0  0  0  0  0
   38.0962   37.1514   14.3245 F   0  0  0  0  0  0  0  0  0  0  0  0
 31 26  2  0  0  0
 27 26  1  0  0  0
 26 25  1  0  0  0
 28 27  2  0  0  0
 27 32  1  0  0  0
 29 28  1  0  0  0
 33 29  1  0  0  0
 29 30  2  0  0  0
 30 31  1  0  0  0
 25 24  1  0  0  0
 24  1  1  0  0  0
  1  2  2  0  0  0
  1  6  1  0  0  0
  7  2  1  0  0  0
  2  3  1  0  0  0
  3  8  2  0  0  0
  3  4  1  0  0  0
  5  4  1  0  0  0
  4  9  1  0  0  0
  6  5  2  0  0  0
  9 10  2  0  0  0
  9 14  1  0  0  0
 15 10  1  0  0  0
 10 11  1  0  0  0
 11 12  2  0  0  0
 13 12  1  0  0  0
 14 13  2  0  0  0
 13 16  1  0  0  0
 17 16  2  0  0  0
 16 18  1  0  0  0
 18 20  1  0  0  0
 20 21  1  0  0  0
 21 22  1  0  0  0
 18 19  1  0  0  0
 22 23  1  0  0  0
M  END
> <minimizedAffinity>
-9.12787

$$$$
3ROC_29A_A_401


 33 35  0  0  0  0  0  0  0  0999 V2000
   35.3955   37.6919   21.5131 C   0  0  0  0  0  0  0  0  0  0  0  0
   34.4842   38.6579   21.9123 C   0  0  0  0  0  0  0  0  0  0  0  0
   34.1148   38.7527   23.3847 C   0  0  0  0  0  0  0  0  0  0  0  0
   34.7321   37.8408   24.2187 N   0  0  0  0  0  0  0  0  0  0  0  0
   35.6984   36.8598   23.6099 C   0  0  0  0  0  0  0  0  0  0  0  0
   35.9497   36.8604   22.3424 N   0  0  0  0  0  0  0  0  0  0  0  0
   33.7617   39.7416   20.7895 Cl  0  0  0  0  0  0  0  0  0  0  0  0
   33.2899   39.6230   23.7613 O   0  0  0  0  0  0  0  0  0  0  0  0
   34.4996   37.7668   25.6388 C   0  0  0  0  0  0  0  0  0  0  0  0
   35.0763   38.7024   26.5402 C   0  0  0  0  0  0  0  0  0  0  0  0
   34.8111   38.5953   27.9017 C   0  0  0  0  0  0  0  0  0  0  0  0
   34.0044   37.5682   28.3694 C   0  0  0  0  0  0  0  0  0  0  0  0
   33.4273   36.6222   27.4906 C   0  0  0  0  0  0  0  0  0  0  0  0
   33.6905   36.7455   26.1316 C   0  0  0  0  0  0  0  0  0  0  0  0
   36.1389   39.7409   26.1467 C   0  0  0  0  0  0  0  0  0  0  0  0
   32.5603   35.5251   28.0665 C   0  0  0  0  0  0  0  0  0  0  0  0
   31.7499   34.9390   27.3406 O   0  0  0  0  0  0  0  0  0  0  0  0
   32.7113   35.1852   29.3659 N   0  0  0  0  0  0  0  0  0  0  0  0
   33.5496   34.7455   29.6366 H   0  0  0  0  0  0  0  0  0  0  0  0
   31.6892   35.4364   30.4031 C   0  0  0  0  0  0  0  0  0  0  0  0
   32.3020   36.1182   31.6401 C   0  0  0  0  0  0  0  0  0  0  0  0
   31.4746   37.1910   32.0875 O   0  0  0  0  0  0  0  0  0  0  0  0
   31.3938   37.8525   31.3827 H   0  0  0  0  0  0  0  0  0  0  0  0
   35.7354   37.5924   20.1949 O   0  0  0  0  0  0  0  0  0  0  0  0
   36.1469   36.2955   19.5849 C   0  0  0  0  0  0  0  0  0  0  0  0
   36.8839   36.6564   18.3142 C   0  0  0  0  0  0  0  0  0  0  0  0
   38.2160   37.0869   18.3585 C   0  0  0  0  0  0  0  0  0  0  0  0
   38.8663   37.4653   17.1968 C   0  0  0  0  0  0  0  0  0  0  0  0
   38.1922   37.4082   15.9836 C   0  0  0  0  0  0  0  0  0  0  0  0
   36.8693   36.9600   15.9288 C   0  0  0  0  0  0  0  0  0  0  0  0
   36.2197   36.5873   17.0934 C   0  0  0  0  0  0  0  0  0  0  0  0
   38.8559   37.1512   19.5417 F   0  0  0  0  0  0  0  0  0  0  0  0
   38.7986   37.7923   14.8566 F   0  0  0  0  0  0  0  0  0  0  0  0
 31 26  2  0  0  0
 27 26  1  0  0  0
 26 25  1  0  0  0
 28 27  2  0  0  0
 27 32  1  0  0  0
 29 28  1  0  0  0
 33 29  1  0  0  0
 29 30  2  0  0  0
 30 31  1  0  0  0
 25 24  1  0  0  0
 24  1  1  0  0  0
  1  2  2  0  0  0
  1  6  1  0  0  0
  7  2  1  0  0  0
  2  3  1  0  0  0
  3  8  2  0  0  0
  3  4  1  0  0  0
  5  4  1  0  0  0
  4  9  1  0  0  0
  6  5  2  0  0  0
  9 10  2  0  0  0
  9 14  1  0  0  0
 15 10  1  0  0  0
 10 11  1  0  0  0
 11 12  2  0  0  0
 13 12  1  0  0  0
 14 13  2  0  0  0
 13 16  1  0  0  0
 17 16  2  0  0  0
 16 18  1  0  0  0
 18 20  1  0  0  0
 20 21  1  0  0  0
 21 22  1  0  0  0
 18 19  1  0  0  0
 22 23  1  0  0  0
M  END
> <minimizedAffinity>
-8.85128

$$$$
3ROC_29A_A_401


 33 35  0  0  0  0  0  0  0  0999 V2000
   34.4428   38.4006   22.1468 C   0  0  0  0  0  0  0  0  0  0  0  0
   34.9192   37.3005   22.8439 C   0  0  0  0  0  0  0  0  0  0  0  0
   34.9575   37.3564   24.3634 C   0  0  0  0  0  0  0  0  0  0  0  0
   34.5064   38.5314   24.9328 N   0  0  0  0  0  0  0  0  0  0  0  0
   34.0227   39.6255   24.0187 C   0  0  0  0  0  0  0  0  0  0  0  0
   34.0266   39.4812   22.7347 N   0  0  0  0  0  0  0  0  0  0  0  0
   35.4697   35.8851   22.0373 Cl  0  0  0  0  0  0  0  0  0  0  0  0
   35.3871   36.3671   25.0087 O   0  0  0  0  0  0  0  0  0  0  0  0
   34.4790   38.7761   26.3524 C   0  0  0  0  0  0  0  0  0  0  0  0
   33.4023   38.3310   27.1668 C   0  0  0  0  0  0  0  0  0  0  0  0
   33.4288   38.5815   28.5350 C   0  0  0  0  0  0  0  0  0  0  0  0
   34.4926   39.2785   29.0890 C   0  0  0  0  0  0  0  0  0  0  0  0
   35.5699   39.7371   28.2955 C   0  0  0  0  0  0  0  0  0  0  0  0
   35.5379   39.4716   26.9317 C   0  0  0  0  0  0  0  0  0  0  0  0
   32.0930   37.7382   26.6219 C   0  0  0  0  0  0  0  0  0  0  0  0
   36.6968   40.4939   28.9621 C   0  0  0  0  0  0  0  0  0  0  0  0
   37.0292   40.2072   30.1173 O   0  0  0  0  0  0  0  0  0  0  0  0
   37.3420   41.4555   28.2651 N   0  0  0  0  0  0  0  0  0  0  0  0
   37.8995   41.1808   27.5015 H   0  0  0  0  0  0  0  0  0  0  0  0
   37.2578   42.8958   28.5846 C   0  0  0  0  0  0  0  0  0  0  0  0
   38.4777   43.3609   29.4008 C   0  0  0  0  0  0  0  0  0  0  0  0
   38.3510   42.9684   30.7666 O   0  0  0  0  0  0  0  0  0  0  0  0
   37.5563   43.3739   31.1472 H   0  0  0  0  0  0  0  0  0  0  0  0
   34.4045   38.3670   20.7828 O   0  0  0  0  0  0  0  0  0  0  0  0
   35.5962   38.7091   19.9544 C   0  0  0  0  0  0  0  0  0  0  0  0
   35.6605   37.6526   18.8738 C   0  0  0  0  0  0  0  0  0  0  0  0
   36.8936   37.1540   18.4345 C   0  0  0  0  0  0  0  0  0  0  0  0
   36.9458   36.2260   17.4089 C   0  0  0  0  0  0  0  0  0  0  0  0
   35.7666   35.7852   16.8219 C   0  0  0  0  0  0  0  0  0  0  0  0
   34.5313   36.2628   17.2688 C   0  0  0  0  0  0  0  0  0  0  0  0
   34.4825   37.1951   18.2914 C   0  0  0  0  0  0  0  0  0  0  0  0
   38.0315   37.5982   19.0015 F   0  0  0  0  0  0  0  0  0  0  0  0
   35.8018   34.9074   15.8151 F   0  0  0  0  0  0  0  0  0  0  0  0
 31 26  2  0  0  0
 27 26  1  0  0  0
 26 25  1  0  0  0
 28 27  2  0  0  0
 27 32  1  0  0  0
 29 28  1  0  0  0
 33 29  1  0  0  0
 29 30  2  0  0  0
 30 31  1  0  0  0
 25 24  1  0  0  0
 24  1  1  0  0  0
  1  2  2  0  0  0
  1  6  1  0  0  0
  7  2  1  0  0  0
  2  3  1  0  0  0
  3  8  2  0  0  0
  3  4  1  0  0  0
  5  4  1  0  0  0
  4  9  1  0  0  0
  6  5  2  0  0  0
  9 10  2  0  0  0
  9 14  1  0  0  0
 15 10  1  0  0  0
 10 11  1  0  0  0
 11 12  2  0  0  0
 13 12  1  0  0  0
 14 13  2  0  0  0
 13 16  1  0  0  0
 17 16  2  0  0  0
 16 18  1  0  0  0
 18 20  1  0  0  0
 20 21  1  0  0  0
 21 22  1  0  0  0
 18 19  1  0  0  0
 22 23  1  0  0  0
M  END
> <minimizedAffinity>
-8.19221

$$$$
3ROC_29A_A_401


 33 35  0  0  0  0  0  0  0  0999 V2000
   34.6494   38.5661   25.9125 C   0  0  0  0  0  0  0  0  0  0  0  0
   33.4664   38.1872   25.2960 C   0  0  0  0  0  0  0  0  0  0  0  0
   33.4653   37.9551   23.7928 C   0  0  0  0  0  0  0  0  0  0  0  0
   34.6741   38.1515   23.1538 N   0  0  0  0  0  0  0  0  0  0  0  0
   35.8600   38.5633   23.9849 C   0  0  0  0  0  0  0  0  0  0  0  0
   35.7609   38.7332   25.2621 N   0  0  0  0  0  0  0  0  0  0  0  0
   32.0080   37.9797   26.1831 Cl  0  0  0  0  0  0  0  0  0  0  0  0
   32.4004   37.6118   23.2202 O   0  0  0  0  0  0  0  0  0  0  0  0
   34.8664   37.9936   21.7346 C   0  0  0  0  0  0  0  0  0  0  0  0
   34.8323   39.1038   20.8477 C   0  0  0  0  0  0  0  0  0  0  0  0
   35.0360   38.9003   19.4867 C   0  0  0  0  0  0  0  0  0  0  0  0
   35.2507   37.6173   19.0048 C   0  0  0  0  0  0  0  0  0  0  0  0
   35.2805   36.4980   19.8689 C   0  0  0  0  0  0  0  0  0  0  0  0
   35.0865   36.7147   21.2279 C   0  0  0  0  0  0  0  0  0  0  0  0
   34.4007   40.5222   21.2533 C   0  0  0  0  0  0  0  0  0  0  0  0
   35.5159   35.1260   19.2780 C   0  0  0  0  0  0  0  0  0  0  0  0
   36.4957   34.4636   19.6364 O   0  0  0  0  0  0  0  0  0  0  0  0
   34.6270   34.6361   18.3854 N   0  0  0  0  0  0  0  0  0  0  0  0
   33.7246   34.4077   18.7060 H   0  0  0  0  0  0  0  0  0  0  0  0
   34.9334   34.4240   16.9554 C   0  0  0  0  0  0  0  0  0  0  0  0
   33.9514   35.1925   16.0521 C   0  0  0  0  0  0  0  0  0  0  0  0
   33.2635   34.2986   15.1784 O   0  0  0  0  0  0  0  0  0  0  0  0
   33.9053   33.8417   14.6126 H   0  0  0  0  0  0  0  0  0  0  0  0
   34.6662   38.7807   27.2604 O   0  0  0  0  0  0  0  0  0  0  0  0
   35.3829   37.8644   28.1932 C   0  0  0  0  0  0  0  0  0  0  0  0
   34.4510   36.6933   28.4132 C   0  0  0  0  0  0  0  0  0  0  0  0
   34.5276   35.5565   27.5984 C   0  0  0  0  0  0  0  0  0  0  0  0
   33.6367   34.5117   27.7727 C   0  0  0  0  0  0  0  0  0  0  0  0
   32.6699   34.5931   28.7666 C   0  0  0  0  0  0  0  0  0  0  0  0
   32.6005   35.7154   29.5971 C   0  0  0  0  0  0  0  0  0  0  0  0
   33.4896   36.7614   29.4168 C   0  0  0  0  0  0  0  0  0  0  0  0
   35.4603   35.4937   26.6291 F   0  0  0  0  0  0  0  0  0  0  0  0
   31.7878   33.6031   28.9320 F   0  0  0  0  0  0  0  0  0  0  0  0
 31 26  2  0  0  0
 27 26  1  0  0  0
 26 25  1  0  0  0
 28 27  2  0  0  0
 27 32  1  0  0  0
 29 28  1  0  0  0
 33 29  1  0  0  0
 29 30  2  0  0  0
 30 31  1  0  0  0
 25 24  1  0  0  0
 24  1  1  0  0  0
  1  2  2  0  0  0
  1  6  1  0  0  0
  7  2  1  0  0  0
  2  3  1  0  0  0
  3  8  2  0  0  0
  3  4  1  0  0  0
  5  4  1  0  0  0
  4  9  1  0  0  0
  6  5  2  0  0  0
  9 10  2  0  0  0
  9 14  1  0  0  0
 15 10  1  0  0  0
 10 11  1  0  0  0
 11 12  2  0  0  0
 13 12  1  0  0  0
 14 13  2  0  0  0
 13 16  1  0  0  0
 17 16  2  0  0  0
 16 18  1  0  0  0
 18 20  1  0  0  0
 20 21  1  0  0  0
 21 22  1  0  0  0
 18 19  1  0  0  0
 22 23  1  0  0  0
M  END
> <minimizedAffinity>
-8.08948

$$$$
3ROC_29A_A_401


 33 35  0  0  0  0  0  0  0  0999 V2000
   35.2367   37.6600   26.5268 C   0  0  0  0  0  0  0  0  0  0  0  0
   34.7904   36.5260   25.8651 C   0  0  0  0  0  0  0  0  0  0  0  0
   34.6938   36.5537   24.3474 C   0  0  0  0  0  0  0  0  0  0  0  0
   35.0647   37.7394   23.7434 N   0  0  0  0  0  0  0  0  0  0  0  0
   35.5265   38.8716   24.6218 C   0  0  0  0  0  0  0  0  0  0  0  0
   35.5768   38.7494   25.9072 N   0  0  0  0  0  0  0  0  0  0  0  0
   34.3410   35.0993   26.7134 Cl  0  0  0  0  0  0  0  0  0  0  0  0
   34.2906   35.5335   23.7339 O   0  0  0  0  0  0  0  0  0  0  0  0
   35.0279   37.9607   22.3202 C   0  0  0  0  0  0  0  0  0  0  0  0
   34.0174   38.7549   21.7133 C   0  0  0  0  0  0  0  0  0  0  0  0
   34.0329   38.9485   20.3357 C   0  0  0  0  0  0  0  0  0  0  0  0
   35.0199   38.3511   19.5654 C   0  0  0  0  0  0  0  0  0  0  0  0
   36.0298   37.5506   20.1482 C   0  0  0  0  0  0  0  0  0  0  0  0
   36.0105   37.3731   21.5265 C   0  0  0  0  0  0  0  0  0  0  0  0
   32.7751   39.2838   22.4477 C   0  0  0  0  0  0  0  0  0  0  0  0
   37.0742   36.9255   19.2508 C   0  0  0  0  0  0  0  0  0  0  0  0
   38.2512   36.8724   19.6239 O   0  0  0  0  0  0  0  0  0  0  0  0
   36.6912   36.4070   18.0628 N   0  0  0  0  0  0  0  0  0  0  0  0
   36.1279   35.5996   18.0683 H   0  0  0  0  0  0  0  0  0  0  0  0
   37.0704   36.9838   16.7562 C   0  0  0  0  0  0  0  0  0  0  0  0
   38.5822   36.8446   16.4999 C   0  0  0  0  0  0  0  0  0  0  0  0
   39.2909   37.9583   17.0411 O   0  0  0  0  0  0  0  0  0  0  0  0
   38.9830   38.7746   16.6170 H   0  0  0  0  0  0  0  0  0  0  0  0
   35.3266   37.6518   27.8888 O   0  0  0  0  0  0  0  0  0  0  0  0
   34.8832   38.8127   28.7127 C   0  0  0  0  0  0  0  0  0  0  0  0
   36.0132   39.0825   29.6815 C   0  0  0  0  0  0  0  0  0  0  0  0
   36.6865   40.3106   29.6697 C   0  0  0  0  0  0  0  0  0  0  0  0
   37.7535   40.5298   30.5236 C   0  0  0  0  0  0  0  0  0  0  0  0
   38.1485   39.5267   31.3994 C   0  0  0  0  0  0  0  0  0  0  0  0
   37.4683   38.3060   31.4314 C   0  0  0  0  0  0  0  0  0  0  0  0
   36.4047   38.0876   30.5720 C   0  0  0  0  0  0  0  0  0  0  0  0
   36.3038   41.2716   28.8072 F   0  0  0  0  0  0  0  0  0  0  0  0
   39.1914   39.7145   32.2134 F   0  0  0  0  0  0  0  0  0  0  0  0
 31 26  2  0  0  0
 27 26  1  0  0  0
 26 25  1  0  0  0
 28 27  2  0  0  0
 27 32  1  0  0  0
 29 28  1  0  0  0
 33 29  1  0  0  0
 29 30  2  0  0  0
 30 31  1  0  0  0
 25 24  1  0  0  0
 24  1  1  0  0  0
  1  2  2  0  0  0
  1  6  1  0  0  0
  7  2  1  0  0  0
  2  3  1  0  0  0
  3  8  2  0  0  0
  3  4  1  0  0  0
  5  4  1  0  0  0
  4  9  1  0  0  0
  6  5  2  0  0  0
  9 10  2  0  0  0
  9 14  1  0  0  0
 15 10  1  0  0  0
 10 11  1  0  0  0
 11 12  2  0  0  0
 13 12  1  0  0  0
 14 13  2  0  0  0
 13 16  1  0  0  0
 17 16  2  0  0  0
 16 18  1  0  0  0
 18 20  1  0  0  0
 20 21  1  0  0  0
 21 22  1  0  0  0
 18 19  1  0  0  0
 22 23  1  0  0  0
M  END
> <minimizedAffinity>
-7.86673

$$$$
