1HMR_ELA_A_133


 21 20  0  0  0  0  0  0  0  0999 V2000
   19.3869   35.0110   56.9229 C   0  0  0  0  0  0  0  0  0  0  0  0
   20.7931   35.3703   56.8911 C   0  0  0  0  0  0  0  0  0  0  0  0
   21.7156   34.4049   56.3674 C   0  0  0  0  0  0  0  0  0  0  0  0
   23.1015   34.9424   56.2278 C   0  0  0  0  0  0  0  0  0  0  0  0
   24.1213   34.2576   57.0852 C   0  0  0  0  0  0  0  0  0  0  0  0
   23.5442   33.3037   58.0671 C   0  0  0  0  0  0  0  0  0  0  0  0
   23.7141   33.6815   59.4951 C   0  0  0  0  0  0  0  0  0  0  0  0
   22.7368   34.6773   59.9834 C   0  0  0  0  0  0  0  0  0  0  0  0
   21.7712   34.0998   61.0104 C   0  0  0  0  0  0  0  0  0  0  0  0
   20.3493   34.2516   60.4891 C   0  0  0  0  0  0  0  0  0  0  0  0
   19.6811   35.4050   61.1651 C   0  0  0  0  0  0  0  0  0  0  0  0
   18.4675   36.0563   56.2260 C   0  0  0  0  0  0  0  0  0  0  0  0
   17.5359   36.6738   57.1911 C   0  0  0  0  0  0  0  0  0  0  0  0
   17.3616   35.9653   58.5284 C   0  0  0  0  0  0  0  0  0  0  0  0
   15.9627   35.5730   58.8545 C   0  0  0  0  0  0  0  0  0  0  0  0
   15.4540   34.3727   58.2073 C   0  0  0  0  0  0  0  0  0  0  0  0
   16.1818   33.0623   58.4022 C   0  0  0  0  0  0  0  0  0  0  0  0
   16.3933   32.2086   57.2286 C   0  0  0  0  0  0  0  0  0  0  0  0
   17.1093   32.6882   56.3657 O   0  0  0  0  0  0  0  0  0  0  0  0
   15.7439   31.1839   57.2337 O   0  0  0  0  0  0  0  0  0  0  0  0
   15.2376   30.9538   57.9878 H   0  0  0  0  0  0  0  0  0  0  0  0
 17 18  1  0  0  0
 17 16  1  0  0  0
 18 19  2  0  0  0
 18 20  1  0  0  0
 16 15  1  0  0  0
 15 14  1  0  0  0
 14 13  1  0  0  0
 13 12  1  0  0  0
 12  1  1  0  0  0
  1  2  1  0  0  0
  2  3  2  0  0  0
  3  4  1  0  0  0
  4  5  1  0  0  0
  5  6  1  0  0  0
  6  7  1  0  0  0
  7  8  1  0  0  0
  8  9  1  0  0  0
  9 10  1  0  0  0
 10 11  1  0  0  0
 20 21  1  0  0  0
M  END
> <minimizedAffinity>
-6.05653

$$$$
1HMR_ELA_A_133


 21 20  0  0  0  0  0  0  0  0999 V2000
   19.8058   34.1791   59.6250 C   0  0  0  0  0  0  0  0  0  0  0  0
   19.8576   35.0501   58.4647 C   0  0  0  0  0  0  0  0  0  0  0  0
   19.5047   34.4878   57.1934 C   0  0  0  0  0  0  0  0  0  0  0  0
   19.4312   35.5093   56.1069 C   0  0  0  0  0  0  0  0  0  0  0  0
   18.0510   35.7541   55.5787 C   0  0  0  0  0  0  0  0  0  0  0  0
   17.2553   36.7142   56.3862 C   0  0  0  0  0  0  0  0  0  0  0  0
   16.0411   36.1483   57.0314 C   0  0  0  0  0  0  0  0  0  0  0  0
   16.1647   35.9425   58.4899 C   0  0  0  0  0  0  0  0  0  0  0  0
   16.0757   34.4745   58.8869 C   0  0  0  0  0  0  0  0  0  0  0  0
   15.8091   33.6427   57.6404 C   0  0  0  0  0  0  0  0  0  0  0  0
   16.4544   32.3016   57.7773 C   0  0  0  0  0  0  0  0  0  0  0  0
   21.2120   33.8039   60.1777 C   0  0  0  0  0  0  0  0  0  0  0  0
   22.2415   34.7487   59.7004 C   0  0  0  0  0  0  0  0  0  0  0  0
   23.6299   34.1786   59.4392 C   0  0  0  0  0  0  0  0  0  0  0  0
   23.7435   33.3346   58.2177 C   0  0  0  0  0  0  0  0  0  0  0  0
   23.0740   33.8243   57.0218 C   0  0  0  0  0  0  0  0  0  0  0  0
   23.5943   35.0691   56.3402 C   0  0  0  0  0  0  0  0  0  0  0  0
   24.6514   34.9156   55.3353 C   0  0  0  0  0  0  0  0  0  0  0  0
   24.2915   34.4190   54.2813 O   0  0  0  0  0  0  0  0  0  0  0  0
   25.7603   35.2111   55.7289 O   0  0  0  0  0  0  0  0  0  0  0  0
   25.8701   35.5911   56.5784 H   0  0  0  0  0  0  0  0  0  0  0  0
 17 18  1  0  0  0
 17 16  1  0  0  0
 18 19  2  0  0  0
 18 20  1  0  0  0
 16 15  1  0  0  0
 15 14  1  0  0  0
 14 13  1  0  0  0
 13 12  1  0  0  0
 12  1  1  0  0  0
  1  2  1  0  0  0
  2  3  2  0  0  0
  3  4  1  0  0  0
  4  5  1  0  0  0
  5  6  1  0  0  0
  6  7  1  0  0  0
  7  8  1  0  0  0
  8  9  1  0  0  0
  9 10  1  0  0  0
 10 11  1  0  0  0
 20 21  1  0  0  0
M  END
> <minimizedAffinity>
-6.05186

$$$$
1HMR_ELA_A_133


 21 20  0  0  0  0  0  0  0  0999 V2000
   23.3205   33.3010   58.0145 C   0  0  0  0  0  0  0  0  0  0  0  0
   22.3234   33.5413   59.0420 C   0  0  0  0  0  0  0  0  0  0  0  0
   22.7616   34.1438   60.2675 C   0  0  0  0  0  0  0  0  0  0  0  0
   21.6318   34.4959   61.1779 C   0  0  0  0  0  0  0  0  0  0  0  0
   20.9929   35.8198   60.8896 C   0  0  0  0  0  0  0  0  0  0  0  0
   19.5241   35.8441   61.1111 C   0  0  0  0  0  0  0  0  0  0  0  0
   18.8038   34.5997   60.7325 C   0  0  0  0  0  0  0  0  0  0  0  0
   18.0409   34.6961   59.4701 C   0  0  0  0  0  0  0  0  0  0  0  0
   18.5911   33.7867   58.3789 C   0  0  0  0  0  0  0  0  0  0  0  0
   18.6974   34.5798   57.0842 C   0  0  0  0  0  0  0  0  0  0  0  0
   20.0102   35.2922   57.0314 C   0  0  0  0  0  0  0  0  0  0  0  0
   24.0272   34.5990   57.5254 C   0  0  0  0  0  0  0  0  0  0  0  0
   23.8004   34.8179   56.0828 C   0  0  0  0  0  0  0  0  0  0  0  0
   22.9921   33.7580   55.3452 C   0  0  0  0  0  0  0  0  0  0  0  0
   22.6544   34.0937   53.9343 C   0  0  0  0  0  0  0  0  0  0  0  0
   21.2794   34.4906   53.6694 C   0  0  0  0  0  0  0  0  0  0  0  0
   20.4830   33.7454   52.6228 C   0  0  0  0  0  0  0  0  0  0  0  0
   19.3466   32.9328   53.0689 C   0  0  0  0  0  0  0  0  0  0  0  0
   19.3980   32.5707   54.2323 O   0  0  0  0  0  0  0  0  0  0  0  0
   18.5613   32.6479   52.1891 O   0  0  0  0  0  0  0  0  0  0  0  0
   18.6616   33.0175   51.3339 H   0  0  0  0  0  0  0  0  0  0  0  0
 17 18  1  0  0  0
 17 16  1  0  0  0
 18 19  2  0  0  0
 18 20  1  0  0  0
 16 15  1  0  0  0
 15 14  1  0  0  0
 14 13  1  0  0  0
 13 12  1  0  0  0
 12  1  1  0  0  0
  1  2  1  0  0  0
  2  3  2  0  0  0
  3  4  1  0  0  0
  4  5  1  0  0  0
  5  6  1  0  0  0
  6  7  1  0  0  0
  7  8  1  0  0  0
  8  9  1  0  0  0
  9 10  1  0  0  0
 10 11  1  0  0  0
 20 21  1  0  0  0
M  END
> <minimizedAffinity>
-6.03039

$$$$
1HMR_ELA_A_133


 21 20  0  0  0  0  0  0  0  0999 V2000
   19.7183   34.1944   60.2176 C   0  0  0  0  0  0  0  0  0  0  0  0
   18.3737   34.4443   59.7308 C   0  0  0  0  0  0  0  0  0  0  0  0
   17.8899   35.7938   59.7733 C   0  0  0  0  0  0  0  0  0  0  0  0
   16.5692   35.9588   59.0967 C   0  0  0  0  0  0  0  0  0  0  0  0
   15.8696   34.6724   58.7809 C   0  0  0  0  0  0  0  0  0  0  0  0
   15.5721   34.4837   57.3377 C   0  0  0  0  0  0  0  0  0  0  0  0
   15.9396   35.6252   56.4587 C   0  0  0  0  0  0  0  0  0  0  0  0
   17.1745   35.4178   55.6732 C   0  0  0  0  0  0  0  0  0  0  0  0
   18.2340   36.4764   55.9516 C   0  0  0  0  0  0  0  0  0  0  0  0
   19.5498   35.7829   56.2746 C   0  0  0  0  0  0  0  0  0  0  0  0
   19.3526   34.3015   56.2901 C   0  0  0  0  0  0  0  0  0  0  0  0
   20.5876   35.4821   60.3166 C   0  0  0  0  0  0  0  0  0  0  0  0
   21.8972   35.2926   59.6612 C   0  0  0  0  0  0  0  0  0  0  0  0
   22.0986   33.9946   58.8895 C   0  0  0  0  0  0  0  0  0  0  0  0
   23.2849   33.9755   57.9898 C   0  0  0  0  0  0  0  0  0  0  0  0
   23.0340   33.6870   56.5854 C   0  0  0  0  0  0  0  0  0  0  0  0
   23.5556   34.6358   55.5307 C   0  0  0  0  0  0  0  0  0  0  0  0
   24.6348   35.5564   55.9029 C   0  0  0  0  0  0  0  0  0  0  0  0
   24.2650   36.6388   56.3256 O   0  0  0  0  0  0  0  0  0  0  0  0
   25.7483   35.1506   55.6432 O   0  0  0  0  0  0  0  0  0  0  0  0
   25.8658   34.2785   55.3213 H   0  0  0  0  0  0  0  0  0  0  0  0
 17 18  1  0  0  0
 17 16  1  0  0  0
 18 19  2  0  0  0
 18 20  1  0  0  0
 16 15  1  0  0  0
 15 14  1  0  0  0
 14 13  1  0  0  0
 13 12  1  0  0  0
 12  1  1  0  0  0
  1  2  1  0  0  0
  2  3  2  0  0  0
  3  4  1  0  0  0
  4  5  1  0  0  0
  5  6  1  0  0  0
  6  7  1  0  0  0
  7  8  1  0  0  0
  8  9  1  0  0  0
  9 10  1  0  0  0
 10 11  1  0  0  0
 20 21  1  0  0  0
M  END
> <minimizedAffinity>
-6.01125

$$$$
1HMR_ELA_A_133


 21 20  0  0  0  0  0  0  0  0999 V2000
   22.6120   34.2260   60.1716 C   0  0  0  0  0  0  0  0  0  0  0  0
   22.2815   35.0027   58.9904 C   0  0  0  0  0  0  0  0  0  0  0  0
   21.4828   34.3715   57.9801 C   0  0  0  0  0  0  0  0  0  0  0  0
   21.0666   35.3118   56.8975 C   0  0  0  0  0  0  0  0  0  0  0  0
   20.3458   34.6626   55.7560 C   0  0  0  0  0  0  0  0  0  0  0  0
   21.2270   33.8842   54.8479 C   0  0  0  0  0  0  0  0  0  0  0  0
   22.3145   34.6618   54.1971 C   0  0  0  0  0  0  0  0  0  0  0  0
   23.6734   34.1353   54.4441 C   0  0  0  0  0  0  0  0  0  0  0  0
   24.4643   34.9861   55.4295 C   0  0  0  0  0  0  0  0  0  0  0  0
   25.2392   36.0432   54.6559 C   0  0  0  0  0  0  0  0  0  0  0  0
   24.6158   37.3852   54.8663 C   0  0  0  0  0  0  0  0  0  0  0  0
   21.5840   34.3953   61.3284 C   0  0  0  0  0  0  0  0  0  0  0  0
   21.0760   35.7804   61.3913 C   0  0  0  0  0  0  0  0  0  0  0  0
   19.5657   35.9553   61.4868 C   0  0  0  0  0  0  0  0  0  0  0  0
   18.7868   35.2988   60.4007 C   0  0  0  0  0  0  0  0  0  0  0  0
   17.9264   36.1599   59.6028 C   0  0  0  0  0  0  0  0  0  0  0  0
   17.2849   35.6085   58.3502 C   0  0  0  0  0  0  0  0  0  0  0  0
   15.8521   35.8462   58.1460 C   0  0  0  0  0  0  0  0  0  0  0  0
   15.1131   35.1074   58.7746 O   0  0  0  0  0  0  0  0  0  0  0  0
   15.6003   36.6796   57.3010 O   0  0  0  0  0  0  0  0  0  0  0  0
   16.2936   37.1719   56.9073 H   0  0  0  0  0  0  0  0  0  0  0  0
 17 18  1  0  0  0
 17 16  1  0  0  0
 18 19  2  0  0  0
 18 20  1  0  0  0
 16 15  1  0  0  0
 15 14  1  0  0  0
 14 13  1  0  0  0
 13 12  1  0  0  0
 12  1  1  0  0  0
  1  2  1  0  0  0
  2  3  2  0  0  0
  3  4  1  0  0  0
  4  5  1  0  0  0
  5  6  1  0  0  0
  6  7  1  0  0  0
  7  8  1  0  0  0
  8  9  1  0  0  0
  9 10  1  0  0  0
 10 11  1  0  0  0
 20 21  1  0  0  0
M  END
> <minimizedAffinity>
-6.00710

$$$$
1HMR_ELA_A_133


 21 20  0  0  0  0  0  0  0  0999 V2000
   23.0697   35.1416   57.9547 C   0  0  0  0  0  0  0  0  0  0  0  0
   22.3669   35.3843   59.2015 C   0  0  0  0  0  0  0  0  0  0  0  0
   22.0848   34.2540   60.0381 C   0  0  0  0  0  0  0  0  0  0  0  0
   21.5133   34.6401   61.3624 C   0  0  0  0  0  0  0  0  0  0  0  0
   20.7464   35.9269   61.3552 C   0  0  0  0  0  0  0  0  0  0  0  0
   19.2711   35.7523   61.3606 C   0  0  0  0  0  0  0  0  0  0  0  0
   18.6067   35.9196   60.0410 C   0  0  0  0  0  0  0  0  0  0  0  0
   18.3803   34.6567   59.3071 C   0  0  0  0  0  0  0  0  0  0  0  0
   16.9022   34.3579   59.0913 C   0  0  0  0  0  0  0  0  0  0  0  0
   16.1788   35.6583   58.7714 C   0  0  0  0  0  0  0  0  0  0  0  0
   15.9810   35.7793   57.2949 C   0  0  0  0  0  0  0  0  0  0  0  0
   22.1830   34.4653   56.8685 C   0  0  0  0  0  0  0  0  0  0  0  0
   23.0112   33.8441   55.8155 C   0  0  0  0  0  0  0  0  0  0  0  0
   23.3808   34.7200   54.6251 C   0  0  0  0  0  0  0  0  0  0  0  0
   24.7998   35.1702   54.5923 C   0  0  0  0  0  0  0  0  0  0  0  0
   25.0285   36.6076   54.6023 C   0  0  0  0  0  0  0  0  0  0  0  0
   24.1096   37.4972   55.4077 C   0  0  0  0  0  0  0  0  0  0  0  0
   23.4969   38.6471   54.7346 C   0  0  0  0  0  0  0  0  0  0  0  0
   24.0757   39.0234   53.7293 O   0  0  0  0  0  0  0  0  0  0  0  0
   22.5550   39.1289   55.3283 O   0  0  0  0  0  0  0  0  0  0  0  0
   22.2228   38.7106   56.0981 H   0  0  0  0  0  0  0  0  0  0  0  0
 17 18  1  0  0  0
 17 16  1  0  0  0
 18 19  2  0  0  0
 18 20  1  0  0  0
 16 15  1  0  0  0
 15 14  1  0  0  0
 14 13  1  0  0  0
 13 12  1  0  0  0
 12  1  1  0  0  0
  1  2  1  0  0  0
  2  3  2  0  0  0
  3  4  1  0  0  0
  4  5  1  0  0  0
  5  6  1  0  0  0
  6  7  1  0  0  0
  7  8  1  0  0  0
  8  9  1  0  0  0
  9 10  1  0  0  0
 10 11  1  0  0  0
 20 21  1  0  0  0
M  END
> <minimizedAffinity>
-5.98495

$$$$
1HMR_ELA_A_133


 21 20  0  0  0  0  0  0  0  0999 V2000
   17.0504   36.3600   58.5565 C   0  0  0  0  0  0  0  0  0  0  0  0
   18.1266   35.9727   59.4506 C   0  0  0  0  0  0  0  0  0  0  0  0
   18.1205   34.6315   59.9586 C   0  0  0  0  0  0  0  0  0  0  0  0
   19.3559   34.2961   60.7270 C   0  0  0  0  0  0  0  0  0  0  0  0
   20.1332   35.4857   61.2011 C   0  0  0  0  0  0  0  0  0  0  0  0
   21.5926   35.2415   61.3338 C   0  0  0  0  0  0  0  0  0  0  0  0
   22.0882   33.9924   60.6973 C   0  0  0  0  0  0  0  0  0  0  0  0
   23.3078   34.1660   59.8803 C   0  0  0  0  0  0  0  0  0  0  0  0
   23.0554   34.9652   58.6082 C   0  0  0  0  0  0  0  0  0  0  0  0
   21.9803   34.2631   57.7909 C   0  0  0  0  0  0  0  0  0  0  0  0
   20.9311   35.2456   57.3816 C   0  0  0  0  0  0  0  0  0  0  0  0
   15.8159   35.4145   58.6316 C   0  0  0  0  0  0  0  0  0  0  0  0
   15.5793   34.7435   57.3377 C   0  0  0  0  0  0  0  0  0  0  0  0
   16.6968   34.8259   56.3057 C   0  0  0  0  0  0  0  0  0  0  0  0
   17.4836   33.5741   56.1295 C   0  0  0  0  0  0  0  0  0  0  0  0
   18.6906   33.6704   55.3218 C   0  0  0  0  0  0  0  0  0  0  0  0
   18.5892   34.1621   53.8961 C   0  0  0  0  0  0  0  0  0  0  0  0
   19.1595   33.3256   52.8350 C   0  0  0  0  0  0  0  0  0  0  0  0
   18.3681   32.5741   52.2908 O   0  0  0  0  0  0  0  0  0  0  0  0
   20.3626   33.4246   52.7142 O   0  0  0  0  0  0  0  0  0  0  0  0
   20.8325   34.0639   53.2127 H   0  0  0  0  0  0  0  0  0  0  0  0
 17 18  1  0  0  0
 17 16  1  0  0  0
 18 19  2  0  0  0
 18 20  1  0  0  0
 16 15  1  0  0  0
 15 14  1  0  0  0
 14 13  1  0  0  0
 13 12  1  0  0  0
 12  1  1  0  0  0
  1  2  1  0  0  0
  2  3  2  0  0  0
  3  4  1  0  0  0
  4  5  1  0  0  0
  5  6  1  0  0  0
  6  7  1  0  0  0
  7  8  1  0  0  0
  8  9  1  0  0  0
  9 10  1  0  0  0
 10 11  1  0  0  0
 20 21  1  0  0  0
M  END
> <minimizedAffinity>
-5.95256

$$$$
1HMR_ELA_A_133


 21 20  0  0  0  0  0  0  0  0999 V2000
   20.7211   35.5798   56.4250 C   0  0  0  0  0  0  0  0  0  0  0  0
   19.3781   35.0352   56.3405 C   0  0  0  0  0  0  0  0  0  0  0  0
   18.3056   35.9469   56.0657 C   0  0  0  0  0  0  0  0  0  0  0  0
   17.0016   35.2570   55.8357 C   0  0  0  0  0  0  0  0  0  0  0  0
   15.8698   35.7773   56.6678 C   0  0  0  0  0  0  0  0  0  0  0  0
   16.1836   35.8870   58.1157 C   0  0  0  0  0  0  0  0  0  0  0  0
   16.3596   34.5935   58.8275 C   0  0  0  0  0  0  0  0  0  0  0  0
   17.6310   34.4746   59.5721 C   0  0  0  0  0  0  0  0  0  0  0  0
   18.2789   35.8250   59.8502 C   0  0  0  0  0  0  0  0  0  0  0  0
   19.1570   35.7043   61.0874 C   0  0  0  0  0  0  0  0  0  0  0  0
   20.5954   35.8383   60.7042 C   0  0  0  0  0  0  0  0  0  0  0  0
   21.7161   34.6526   57.1825 C   0  0  0  0  0  0  0  0  0  0  0  0
   22.9070   34.3631   56.3588 C   0  0  0  0  0  0  0  0  0  0  0  0
   22.6984   33.4811   55.1343 C   0  0  0  0  0  0  0  0  0  0  0  0
   22.8276   34.1806   53.8262 C   0  0  0  0  0  0  0  0  0  0  0  0
   21.6260   34.2630   53.0090 C   0  0  0  0  0  0  0  0  0  0  0  0
   20.5666   33.1931   53.1416 C   0  0  0  0  0  0  0  0  0  0  0  0
   19.1826   33.5467   52.8094 C   0  0  0  0  0  0  0  0  0  0  0  0
   18.4771   32.6089   52.4779 O   0  0  0  0  0  0  0  0  0  0  0  0
   18.9579   34.7390   52.8126 O   0  0  0  0  0  0  0  0  0  0  0  0
   19.6168   35.3390   53.1020 H   0  0  0  0  0  0  0  0  0  0  0  0
 17 18  1  0  0  0
 17 16  1  0  0  0
 18 19  2  0  0  0
 18 20  1  0  0  0
 16 15  1  0  0  0
 15 14  1  0  0  0
 14 13  1  0  0  0
 13 12  1  0  0  0
 12  1  1  0  0  0
  1  2  1  0  0  0
  2  3  2  0  0  0
  3  4  1  0  0  0
  4  5  1  0  0  0
  5  6  1  0  0  0
  6  7  1  0  0  0
  7  8  1  0  0  0
  8  9  1  0  0  0
  9 10  1  0  0  0
 10 11  1  0  0  0
 20 21  1  0  0  0
M  END
> <minimizedAffinity>
-5.94512

$$$$
1HMR_ELA_A_133


 21 20  0  0  0  0  0  0  0  0999 V2000
   21.0550   34.9240   59.1998 C   0  0  0  0  0  0  0  0  0  0  0  0
   19.7018   34.3992   59.1657 C   0  0  0  0  0  0  0  0  0  0  0  0
   18.6508   35.2336   59.6720 C   0  0  0  0  0  0  0  0  0  0  0  0
   17.2914   34.6640   59.4336 C   0  0  0  0  0  0  0  0  0  0  0  0
   17.2769   33.4282   58.5870 C   0  0  0  0  0  0  0  0  0  0  0  0
   16.5402   33.5808   57.3060 C   0  0  0  0  0  0  0  0  0  0  0  0
   17.3915   33.6655   56.0898 C   0  0  0  0  0  0  0  0  0  0  0  0
   17.3778   34.9862   55.4261 C   0  0  0  0  0  0  0  0  0  0  0  0
   16.5122   36.0039   56.1579 C   0  0  0  0  0  0  0  0  0  0  0  0
   17.3946   37.1491   56.6338 C   0  0  0  0  0  0  0  0  0  0  0  0
   18.4686   37.4141   55.6287 C   0  0  0  0  0  0  0  0  0  0  0  0
   21.7085   35.0364   57.7913 C   0  0  0  0  0  0  0  0  0  0  0  0
   20.7518   34.6666   56.7290 C   0  0  0  0  0  0  0  0  0  0  0  0
   21.3389   34.3004   55.3718 C   0  0  0  0  0  0  0  0  0  0  0  0
   22.6989   33.6960   55.4174 C   0  0  0  0  0  0  0  0  0  0  0  0
   23.7530   34.4074   54.7095 C   0  0  0  0  0  0  0  0  0  0  0  0
   24.5148   35.5012   55.4222 C   0  0  0  0  0  0  0  0  0  0  0  0
   25.4653   36.3014   54.6430 C   0  0  0  0  0  0  0  0  0  0  0  0
   24.9888   37.2865   54.1047 O   0  0  0  0  0  0  0  0  0  0  0  0
   26.5740   35.8161   54.5583 O   0  0  0  0  0  0  0  0  0  0  0  0
   26.7858   35.0439   55.0449 H   0  0  0  0  0  0  0  0  0  0  0  0
 17 18  1  0  0  0
 17 16  1  0  0  0
 18 19  2  0  0  0
 18 20  1  0  0  0
 16 15  1  0  0  0
 15 14  1  0  0  0
 14 13  1  0  0  0
 13 12  1  0  0  0
 12  1  1  0  0  0
  1  2  1  0  0  0
  2  3  2  0  0  0
  3  4  1  0  0  0
  4  5  1  0  0  0
  5  6  1  0  0  0
  6  7  1  0  0  0
  7  8  1  0  0  0
  8  9  1  0  0  0
  9 10  1  0  0  0
 10 11  1  0  0  0
 20 21  1  0  0  0
M  END
> <minimizedAffinity>
-5.93007

$$$$
1HMR_ELA_A_133


 21 20  0  0  0  0  0  0  0  0999 V2000
   21.1335   34.6605   61.4960 C   0  0  0  0  0  0  0  0  0  0  0  0
   22.1491   33.9844   60.7092 C   0  0  0  0  0  0  0  0  0  0  0  0
   22.7507   34.7134   59.6304 C   0  0  0  0  0  0  0  0  0  0  0  0
   23.8920   33.9840   59.0021 C   0  0  0  0  0  0  0  0  0  0  0  0
   23.5554   33.2987   57.7132 C   0  0  0  0  0  0  0  0  0  0  0  0
   23.3823   34.2233   56.5634 C   0  0  0  0  0  0  0  0  0  0  0  0
   22.3069   33.8521   55.6059 C   0  0  0  0  0  0  0  0  0  0  0  0
   21.2984   34.9090   55.3809 C   0  0  0  0  0  0  0  0  0  0  0  0
   20.4828   35.2198   56.6294 C   0  0  0  0  0  0  0  0  0  0  0  0
   19.1874   35.9025   56.2139 C   0  0  0  0  0  0  0  0  0  0  0  0
   19.4910   37.0911   55.3603 C   0  0  0  0  0  0  0  0  0  0  0  0
   20.4601   35.8466   60.7455 C   0  0  0  0  0  0  0  0  0  0  0  0
   18.9880   35.7458   60.8020 C   0  0  0  0  0  0  0  0  0  0  0  0
   18.3098   34.9539   59.6914 C   0  0  0  0  0  0  0  0  0  0  0  0
   16.9952   35.4937   59.2467 C   0  0  0  0  0  0  0  0  0  0  0  0
   16.3508   34.8088   58.1358 C   0  0  0  0  0  0  0  0  0  0  0  0
   16.0017   33.3444   58.2720 C   0  0  0  0  0  0  0  0  0  0  0  0
   16.5219   32.4139   57.2648 C   0  0  0  0  0  0  0  0  0  0  0  0
   17.2131   32.9253   56.4000 O   0  0  0  0  0  0  0  0  0  0  0  0
   16.1086   31.2785   57.3741 O   0  0  0  0  0  0  0  0  0  0  0  0
   15.5802   31.0411   58.1106 H   0  0  0  0  0  0  0  0  0  0  0  0
 17 18  1  0  0  0
 17 16  1  0  0  0
 18 19  2  0  0  0
 18 20  1  0  0  0
 16 15  1  0  0  0
 15 14  1  0  0  0
 14 13  1  0  0  0
 13 12  1  0  0  0
 12  1  1  0  0  0
  1  2  1  0  0  0
  2  3  2  0  0  0
  3  4  1  0  0  0
  4  5  1  0  0  0
  5  6  1  0  0  0
  6  7  1  0  0  0
  7  8  1  0  0  0
  8  9  1  0  0  0
  9 10  1  0  0  0
 10 11  1  0  0  0
 20 21  1  0  0  0
M  END
> <minimizedAffinity>
-5.89375

$$$$
