2J27_PGA_A_701


 12 11  0  0  0  0  0  0  0  0999 V2000
   15.3529    8.0238    7.4341 P   0  0  0  0  0  0  0  0  0  0  0  0
   15.4150    6.6463    8.0484 O   0  0  0  0  0  0  0  0  0  0  0  0
   15.5719    9.1218    8.4719 O   0  0  0  0  0  0  0  0  0  0  0  0
   16.2053    8.1859    6.2273 O   0  0  0  0  0  0  0  0  0  0  0  0
   14.9926    8.9664    9.2342 H   0  0  0  0  0  0  0  0  0  0  0  0
   16.0252    7.4640    5.6049 H   0  0  0  0  0  0  0  0  0  0  0  0
   13.8111    8.1943    6.8886 O   0  0  0  0  0  0  0  0  0  0  0  0
   13.4299    7.4322    5.6496 C   0  0  0  0  0  0  0  0  0  0  0  0
   13.0390    8.3198    4.6254 C   0  0  0  0  0  0  0  0  0  0  0  0
   12.8407    7.7066    3.4596 O   0  0  0  0  0  0  0  0  0  0  0  0
   12.9073    9.5193    4.8020 O   0  0  0  0  0  0  0  0  0  0  0  0
   13.0627    9.8879    5.6493 H   0  0  0  0  0  0  0  0  0  0  0  0
  1  7  1  0  0  0
  1  2  2  0  0  0
  1  3  1  0  0  0
  1  4  1  0  0  0
  7  8  1  0  0  0
  8  9  1  0  0  0
  9 10  2  0  0  0
  9 11  1  0  0  0
  3  5  1  0  0  0
  4  6  1  0  0  0
 11 12  1  0  0  0
M  END
> <minimizedAffinity>
-6.07656

$$$$
2J27_PGA_A_701


 12 11  0  0  0  0  0  0  0  0999 V2000
   15.7817    7.6404    7.0886 P   0  0  0  0  0  0  0  0  0  0  0  0
   17.0308    7.6730    6.2415 O   0  0  0  0  0  0  0  0  0  0  0  0
   16.0355    7.0099    8.4555 O   0  0  0  0  0  0  0  0  0  0  0  0
   15.0746    8.9452    7.1722 O   0  0  0  0  0  0  0  0  0  0  0  0
   16.4974    6.1646    8.3409 H   0  0  0  0  0  0  0  0  0  0  0  0
   14.9406    9.2982    6.2788 H   0  0  0  0  0  0  0  0  0  0  0  0
   14.7390    6.6444    6.2985 O   0  0  0  0  0  0  0  0  0  0  0  0
   13.2974    7.0674    6.2331 C   0  0  0  0  0  0  0  0  0  0  0  0
   13.0292    7.7180    5.0107 C   0  0  0  0  0  0  0  0  0  0  0  0
   12.8494    6.8666    4.0021 O   0  0  0  0  0  0  0  0  0  0  0  0
   12.9775    8.9317    4.9030 O   0  0  0  0  0  0  0  0  0  0  0  0
   13.1137    9.4749    5.6542 H   0  0  0  0  0  0  0  0  0  0  0  0
  1  7  1  0  0  0
  1  2  2  0  0  0
  1  3  1  0  0  0
  1  4  1  0  0  0
  7  8  1  0  0  0
  8  9  1  0  0  0
  9 10  2  0  0  0
  9 11  1  0  0  0
  3  5  1  0  0  0
  4  6  1  0  0  0
 11 12  1  0  0  0
M  END
> <minimizedAffinity>
-5.99800

$$$$
2J27_PGA_A_701


 12 11  0  0  0  0  0  0  0  0999 V2000
   15.5131    8.0182    7.6581 P   0  0  0  0  0  0  0  0  0  0  0  0
   16.1743    7.9734    6.3018 O   0  0  0  0  0  0  0  0  0  0  0  0
   15.8919    6.8147    8.5177 O   0  0  0  0  0  0  0  0  0  0  0  0
   15.6772    9.3141    8.3675 O   0  0  0  0  0  0  0  0  0  0  0  0
   15.7660    6.0000    8.0066 H   0  0  0  0  0  0  0  0  0  0  0  0
   15.4234   10.0404    7.7767 H   0  0  0  0  0  0  0  0  0  0  0  0
   13.8995    7.8974    7.3663 O   0  0  0  0  0  0  0  0  0  0  0  0
   13.4796    7.3433    6.0329 C   0  0  0  0  0  0  0  0  0  0  0  0
   12.9037    6.0652    6.1891 C   0  0  0  0  0  0  0  0  0  0  0  0
   13.7865    5.0796    6.0349 O   0  0  0  0  0  0  0  0  0  0  0  0
   11.7207    5.8963    6.4325 O   0  0  0  0  0  0  0  0  0  0  0  0
   11.1522    6.6348    6.5293 H   0  0  0  0  0  0  0  0  0  0  0  0
  1  7  1  0  0  0
  1  2  2  0  0  0
  1  3  1  0  0  0
  1  4  1  0  0  0
  7  8  1  0  0  0
  8  9  1  0  0  0
  9 10  2  0  0  0
  9 11  1  0  0  0
  3  5  1  0  0  0
  4  6  1  0  0  0
 11 12  1  0  0  0
M  END
> <minimizedAffinity>
-5.59024

$$$$
2J27_PGA_A_701


 12 11  0  0  0  0  0  0  0  0999 V2000
   13.7762    7.0878    6.6115 P   0  0  0  0  0  0  0  0  0  0  0  0
   12.3950    7.0448    7.2190 O   0  0  0  0  0  0  0  0  0  0  0  0
   14.1976    8.5105    6.2522 O   0  0  0  0  0  0  0  0  0  0  0  0
   14.8048    6.3578    7.3980 O   0  0  0  0  0  0  0  0  0  0  0  0
   13.4919    8.9375    5.7418 H   0  0  0  0  0  0  0  0  0  0  0  0
   14.4853    5.4639    7.5972 H   0  0  0  0  0  0  0  0  0  0  0  0
   13.6611    6.2605    5.1952 O   0  0  0  0  0  0  0  0  0  0  0  0
   12.3818    6.4002    4.4173 C   0  0  0  0  0  0  0  0  0  0  0  0
   12.5473    7.3144    3.3559 C   0  0  0  0  0  0  0  0  0  0  0  0
   12.6364    8.5767    3.7720 O   0  0  0  0  0  0  0  0  0  0  0  0
   12.5949    6.9713    2.1867 O   0  0  0  0  0  0  0  0  0  0  0  0
   12.5259    6.0644    1.9614 H   0  0  0  0  0  0  0  0  0  0  0  0
  1  7  1  0  0  0
  1  2  2  0  0  0
  1  3  1  0  0  0
  1  4  1  0  0  0
  7  8  1  0  0  0
  8  9  1  0  0  0
  9 10  2  0  0  0
  9 11  1  0  0  0
  3  5  1  0  0  0
  4  6  1  0  0  0
 11 12  1  0  0  0
M  END
> <minimizedAffinity>
-5.48305

$$$$
2J27_PGA_A_701


 12 11  0  0  0  0  0  0  0  0999 V2000
   12.7662    6.0401    5.7587 P   0  0  0  0  0  0  0  0  0  0  0  0
   13.8180    5.0176    6.1147 O   0  0  0  0  0  0  0  0  0  0  0  0
   12.8774    6.4905    4.3043 O   0  0  0  0  0  0  0  0  0  0  0  0
   11.3854    5.6445    6.1410 O   0  0  0  0  0  0  0  0  0  0  0  0
   13.7958    6.7357    4.1110 H   0  0  0  0  0  0  0  0  0  0  0  0
   11.3738    5.3687    7.0709 H   0  0  0  0  0  0  0  0  0  0  0  0
   13.1003    7.3572    6.6847 O   0  0  0  0  0  0  0  0  0  0  0  0
   14.5156    7.8651    6.6760 C   0  0  0  0  0  0  0  0  0  0  0  0
   15.0479    7.8643    7.9823 C   0  0  0  0  0  0  0  0  0  0  0  0
   14.5530    8.8407    8.7413 O   0  0  0  0  0  0  0  0  0  0  0  0
   15.8774    7.0538    8.3597 O   0  0  0  0  0  0  0  0  0  0  0  0
   16.1845    6.3903    7.7737 H   0  0  0  0  0  0  0  0  0  0  0  0
  1  7  1  0  0  0
  1  2  2  0  0  0
  1  3  1  0  0  0
  1  4  1  0  0  0
  7  8  1  0  0  0
  8  9  1  0  0  0
  9 10  2  0  0  0
  9 11  1  0  0  0
  3  5  1  0  0  0
  4  6  1  0  0  0
 11 12  1  0  0  0
M  END
> <minimizedAffinity>
-5.45996

$$$$
2J27_PGA_A_701


 12 11  0  0  0  0  0  0  0  0999 V2000
   14.1273    7.5761    6.6787 P   0  0  0  0  0  0  0  0  0  0  0  0
   15.2186    6.5519    6.4824 O   0  0  0  0  0  0  0  0  0  0  0  0
   14.2703    8.3151    8.0069 O   0  0  0  0  0  0  0  0  0  0  0  0
   13.9420    8.4905    5.5215 O   0  0  0  0  0  0  0  0  0  0  0  0
   14.3880    7.6721    8.7236 H   0  0  0  0  0  0  0  0  0  0  0  0
   13.8570    7.9692    4.7079 H   0  0  0  0  0  0  0  0  0  0  0  0
   12.7276    6.7177    6.7675 O   0  0  0  0  0  0  0  0  0  0  0  0
   12.4344    5.7593    5.6465 C   0  0  0  0  0  0  0  0  0  0  0  0
   11.3620    4.9103    5.9912 C   0  0  0  0  0  0  0  0  0  0  0  0
   11.7096    3.6246    6.0155 O   0  0  0  0  0  0  0  0  0  0  0  0
   10.2402    5.3235    6.2320 O   0  0  0  0  0  0  0  0  0  0  0  0
   10.0621    6.2428    6.1974 H   0  0  0  0  0  0  0  0  0  0  0  0
  1  7  1  0  0  0
  1  2  2  0  0  0
  1  3  1  0  0  0
  1  4  1  0  0  0
  7  8  1  0  0  0
  8  9  1  0  0  0
  9 10  2  0  0  0
  9 11  1  0  0  0
  3  5  1  0  0  0
  4  6  1  0  0  0
 11 12  1  0  0  0
M  END
> <minimizedAffinity>
-5.43046

$$$$
2J27_PGA_A_701


 12 11  0  0  0  0  0  0  0  0999 V2000
   15.1428    7.8736    7.6588 P   0  0  0  0  0  0  0  0  0  0  0  0
   14.8304    9.0767    8.5154 O   0  0  0  0  0  0  0  0  0  0  0  0
   15.7789    8.2697    6.3287 O   0  0  0  0  0  0  0  0  0  0  0  0
   15.8954    6.8061    8.3683 O   0  0  0  0  0  0  0  0  0  0  0  0
   15.2485    8.9664    5.9114 H   0  0  0  0  0  0  0  0  0  0  0  0
   15.4482    6.5953    9.2028 H   0  0  0  0  0  0  0  0  0  0  0  0
   13.6874    7.1977    7.3001 O   0  0  0  0  0  0  0  0  0  0  0  0
   13.6730    6.0925    6.2805 C   0  0  0  0  0  0  0  0  0  0  0  0
   12.9308    6.4788    5.1449 C   0  0  0  0  0  0  0  0  0  0  0  0
   13.0020    7.7867    4.9028 O   0  0  0  0  0  0  0  0  0  0  0  0
   12.2915    5.6889    4.4706 O   0  0  0  0  0  0  0  0  0  0  0  0
   12.2836    4.7795    4.6961 H   0  0  0  0  0  0  0  0  0  0  0  0
  1  7  1  0  0  0
  1  2  2  0  0  0
  1  3  1  0  0  0
  1  4  1  0  0  0
  7  8  1  0  0  0
  8  9  1  0  0  0
  9 10  2  0  0  0
  9 11  1  0  0  0
  3  5  1  0  0  0
  4  6  1  0  0  0
 11 12  1  0  0  0
M  END
> <minimizedAffinity>
-5.42818

$$$$
2J27_PGA_A_701


 12 11  0  0  0  0  0  0  0  0999 V2000
   14.5025    7.5089    6.7615 P   0  0  0  0  0  0  0  0  0  0  0  0
   15.8486    7.8935    6.1969 O   0  0  0  0  0  0  0  0  0  0  0  0
   14.3486    5.9954    6.8891 O   0  0  0  0  0  0  0  0  0  0  0  0
   14.1388    8.2373    8.0052 O   0  0  0  0  0  0  0  0  0  0  0  0
   14.5984    5.5733    6.0522 H   0  0  0  0  0  0  0  0  0  0  0  0
   14.2551    9.1904    7.8674 H   0  0  0  0  0  0  0  0  0  0  0  0
   13.3994    8.0005    5.6457 O   0  0  0  0  0  0  0  0  0  0  0  0
   12.7954    6.9446    4.7617 C   0  0  0  0  0  0  0  0  0  0  0  0
   12.6007    7.4455    3.4575 C   0  0  0  0  0  0  0  0  0  0  0  0
   12.8823    8.7435    3.3564 O   0  0  0  0  0  0  0  0  0  0  0  0
   12.2094    6.7531    2.5329 O   0  0  0  0  0  0  0  0  0  0  0  0
   12.0291    5.8442    2.6719 H   0  0  0  0  0  0  0  0  0  0  0  0
  1  7  1  0  0  0
  1  2  2  0  0  0
  1  3  1  0  0  0
  1  4  1  0  0  0
  7  8  1  0  0  0
  8  9  1  0  0  0
  9 10  2  0  0  0
  9 11  1  0  0  0
  3  5  1  0  0  0
  4  6  1  0  0  0
 11 12  1  0  0  0
M  END
> <minimizedAffinity>
-5.39991

$$$$
2J27_PGA_A_701


 12 11  0  0  0  0  0  0  0  0999 V2000
   11.7292    5.1421    5.5531 P   0  0  0  0  0  0  0  0  0  0  0  0
   12.6783    4.0200    5.8977 O   0  0  0  0  0  0  0  0  0  0  0  0
   11.9243    5.6352    4.1215 O   0  0  0  0  0  0  0  0  0  0  0  0
   10.3083    4.8530    5.8800 O   0  0  0  0  0  0  0  0  0  0  0  0
   12.8659    5.8073    3.9643 H   0  0  0  0  0  0  0  0  0  0  0  0
   10.2439    4.5448    6.7974 H   0  0  0  0  0  0  0  0  0  0  0  0
   12.1446    6.3899    6.5401 O   0  0  0  0  0  0  0  0  0  0  0  0
   13.6118    6.6525    6.7391 C   0  0  0  0  0  0  0  0  0  0  0  0
   14.0007    7.8230    6.0546 C   0  0  0  0  0  0  0  0  0  0  0  0
   13.0098    8.3570    5.3423 O   0  0  0  0  0  0  0  0  0  0  0  0
   15.1294    8.2811    6.1130 O   0  0  0  0  0  0  0  0  0  0  0  0
   15.7814    7.8554    6.6342 H   0  0  0  0  0  0  0  0  0  0  0  0
  1  7  1  0  0  0
  1  2  2  0  0  0
  1  3  1  0  0  0
  1  4  1  0  0  0
  7  8  1  0  0  0
  8  9  1  0  0  0
  9 10  2  0  0  0
  9 11  1  0  0  0
  3  5  1  0  0  0
  4  6  1  0  0  0
 11 12  1  0  0  0
M  END
> <minimizedAffinity>
-5.20285

$$$$
2J27_PGA_A_701


 12 11  0  0  0  0  0  0  0  0999 V2000
   13.4928    7.0259    6.3071 P   0  0  0  0  0  0  0  0  0  0  0  0
   13.7898    7.8599    7.5297 O   0  0  0  0  0  0  0  0  0  0  0  0
   13.2463    7.8899    5.0729 O   0  0  0  0  0  0  0  0  0  0  0  0
   14.4740    5.9354    6.0670 O   0  0  0  0  0  0  0  0  0  0  0  0
   12.6009    8.5819    5.2863 H   0  0  0  0  0  0  0  0  0  0  0  0
   14.5912    5.4210    6.8809 H   0  0  0  0  0  0  0  0  0  0  0  0
   12.0765    6.2562    6.6317 O   0  0  0  0  0  0  0  0  0  0  0  0
   11.8563    4.9162    5.9860 C   0  0  0  0  0  0  0  0  0  0  0  0
   11.1600    5.0640    4.7682 C   0  0  0  0  0  0  0  0  0  0  0  0
    9.8747    4.7276    4.8651 O   0  0  0  0  0  0  0  0  0  0  0  0
   11.6931    5.4528    3.7426 O   0  0  0  0  0  0  0  0  0  0  0  0
   12.6037    5.6737    3.7427 H   0  0  0  0  0  0  0  0  0  0  0  0
  1  7  1  0  0  0
  1  2  2  0  0  0
  1  3  1  0  0  0
  1  4  1  0  0  0
  7  8  1  0  0  0
  8  9  1  0  0  0
  9 10  2  0  0  0
  9 11  1  0  0  0
  3  5  1  0  0  0
  4  6  1  0  0  0
 11 12  1  0  0  0
M  END
> <minimizedAffinity>
-4.79706

$$$$
