5I3W_68L_A_406


 38 43  0  0  0  0  0  0  0  0999 V2000
   65.8320   51.4940   11.3992 C   0  0  0  0  0  0  0  0  0  0  0  0
   66.1396   50.4819   10.4822 C   0  0  0  0  0  0  0  0  0  0  0  0
   66.8379   52.2775   11.8485 N   0  0  0  0  0  0  0  0  0  0  0  0
   68.1011   52.1140   11.4719 C   0  0  0  0  0  0  0  0  0  0  0  0
   68.4637   51.1234   10.5675 C   0  0  0  0  0  0  0  0  0  0  0  0
   69.7715   51.0212   10.2401 O   0  0  0  0  0  0  0  0  0  0  0  0
   67.4601   50.2839   10.0673 C   0  0  0  0  0  0  0  0  0  0  0  0
   67.7871   49.2002    9.0568 C   0  0  0  0  0  0  0  0  0  0  0  0
   67.4811   47.7810    9.5519 C   0  0  0  0  0  0  0  0  0  0  0  0
   66.7753   47.1438    8.4549 O   0  0  0  0  0  0  0  0  0  0  0  0
   66.3977   48.1283    7.5723 C   0  0  0  0  0  0  0  0  0  0  0  0
   66.8967   49.3174    7.8706 N   0  0  0  0  0  0  0  0  0  0  0  0
   65.5799   47.9087    6.5424 N   0  0  0  0  0  0  0  0  0  0  0  0
   69.2282   49.3326    8.6026 C   0  0  0  0  0  0  0  0  0  0  0  0
   69.6474   48.5447    7.5485 C   0  0  0  0  0  0  0  0  0  0  0  0
   70.1293   50.2092    9.2176 C   0  0  0  0  0  0  0  0  0  0  0  0
   71.4348   50.2679    8.7489 C   0  0  0  0  0  0  0  0  0  0  0  0
   71.8518   49.4624    7.6845 C   0  0  0  0  0  0  0  0  0  0  0  0
   70.9444   48.5750    7.0840 C   0  0  0  0  0  0  0  0  0  0  0  0
   65.3395   48.6480    5.9384 H   0  0  0  0  0  0  0  0  0  0  0  0
   65.2165   47.0072    6.3860 H   0  0  0  0  0  0  0  0  0  0  0  0
   64.1215   53.0542   12.1845 C   0  0  0  0  0  0  0  0  0  0  0  0
   62.8916   53.2836   12.9299 O   0  0  0  0  0  0  0  0  0  0  0  0
   61.8193   52.4339   12.4914 C   0  0  0  0  0  0  0  0  0  0  0  0
   62.2288   50.9584   12.4177 C   0  0  0  0  0  0  0  0  0  0  0  0
   63.5445   50.7658   11.9695 C   0  0  0  0  0  0  0  0  0  0  0  0
   64.5181   51.7479   11.8509 C   0  0  0  0  0  0  0  0  0  0  0  0
   71.2196   47.7834    6.0287 N   0  0  0  0  0  0  0  0  0  0  0  0
   72.4181   47.4456    5.5339 C   0  0  0  0  0  0  0  0  0  0  0  0
   73.5003   47.7209    6.0294 O   0  0  0  0  0  0  0  0  0  0  0  0
   70.4401   47.4049    5.5613 H   0  0  0  0  0  0  0  0  0  0  0  0
   72.3251   46.6093    4.2686 C   0  0  0  0  0  0  0  0  0  0  0  0
   73.0770   45.4542    4.0649 C   0  0  0  0  0  0  0  0  0  0  0  0
   72.9214   44.7416    2.8733 C   0  0  0  0  0  0  0  0  0  0  0  0
   72.0095   45.2080    1.9258 C   0  0  0  0  0  0  0  0  0  0  0  0
   71.7374   44.4052    0.4094 Cl  0  0  0  0  0  0  0  0  0  0  0  0
   71.2919   46.3597    2.1952 C   0  0  0  0  0  0  0  0  0  0  0  0
   71.4517   47.0193    3.3291 N   0  0  0  0  0  0  0  0  0  0  0  0
 36 35  1  0  0  0
 35 37  2  0  0  0
 35 34  1  0  0  0
 37 38  1  0  0  0
 34 33  2  0  0  0
 38 32  2  0  0  0
 33 32  1  0  0  0
 32 29  1  0  0  0
 29 28  1  0  0  0
 29 30  2  0  0  0
 28 19  1  0  0  0
 13 11  1  0  0  0
 19 15  2  0  0  0
 19 18  1  0  0  0
 11 12  2  0  0  0
 11 10  1  0  0  0
 15 14  1  0  0  0
 18 17  2  0  0  0
 12  8  1  0  0  0
 10  9  1  0  0  0
 14  8  1  0  0  0
 14 16  2  0  0  0
 17 16  1  0  0  0
  8  9  1  0  0  0
  8  7  1  0  0  0
 16  6  1  0  0  0
  7  2  2  0  0  0
  7  5  1  0  0  0
  6  5  1  0  0  0
  2  1  1  0  0  0
  5  4  2  0  0  0
 26 25  1  0  0  0
 26 27  2  0  0  0
  1 27  1  0  0  0
  1  3  2  0  0  0
  4  3  1  0  0  0
 25 24  1  0  0  0
 27 22  1  0  0  0
 24 23  1  0  0  0
 22 23  1  0  0  0
 13 20  1  0  0  0
 13 21  1  0  0  0
 28 31  1  0  0  0
M  END
> <minimizedAffinity>
-13.18696

$$$$
5I3W_68L_A_406


 38 43  0  0  0  0  0  0  0  0999 V2000
   72.2213   47.0849    7.5705 C   0  0  0  0  0  0  0  0  0  0  0  0
   70.8398   47.2516    7.7227 C   0  0  0  0  0  0  0  0  0  0  0  0
   73.0400   48.0333    8.0783 N   0  0  0  0  0  0  0  0  0  0  0  0
   72.5881   49.1196    8.6948 C   0  0  0  0  0  0  0  0  0  0  0  0
   71.2271   49.3381    8.8704 C   0  0  0  0  0  0  0  0  0  0  0  0
   70.8504   50.4712    9.5045 O   0  0  0  0  0  0  0  0  0  0  0  0
   70.3330   48.3851    8.3660 C   0  0  0  0  0  0  0  0  0  0  0  0
   68.8359   48.5524    8.5485 C   0  0  0  0  0  0  0  0  0  0  0  0
   68.0613   48.6648    7.2294 C   0  0  0  0  0  0  0  0  0  0  0  0
   66.9315   47.7655    7.3786 O   0  0  0  0  0  0  0  0  0  0  0  0
   67.1747   46.9657    8.4705 C   0  0  0  0  0  0  0  0  0  0  0  0
   68.2510   47.3246    9.1521 N   0  0  0  0  0  0  0  0  0  0  0  0
   66.4198   45.9126    8.7845 N   0  0  0  0  0  0  0  0  0  0  0  0
   68.5534   49.7297    9.4620 C   0  0  0  0  0  0  0  0  0  0  0  0
   67.2529   49.9190    9.8870 C   0  0  0  0  0  0  0  0  0  0  0  0
   69.5553   50.6174    9.8706 C   0  0  0  0  0  0  0  0  0  0  0  0
   69.2158   51.6761   10.7021 C   0  0  0  0  0  0  0  0  0  0  0  0
   67.8954   51.8631   11.1230 C   0  0  0  0  0  0  0  0  0  0  0  0
   66.8946   50.9760   10.6953 C   0  0  0  0  0  0  0  0  0  0  0  0
   66.6359   45.3709    9.5777 H   0  0  0  0  0  0  0  0  0  0  0  0
   65.6462   45.6766    8.2232 H   0  0  0  0  0  0  0  0  0  0  0  0
   74.0068   45.4234    7.4025 C   0  0  0  0  0  0  0  0  0  0  0  0
   74.7536   44.4744    6.5886 O   0  0  0  0  0  0  0  0  0  0  0  0
   73.8988   43.5232    5.9339 C   0  0  0  0  0  0  0  0  0  0  0  0
   72.7352   44.1899    5.1911 C   0  0  0  0  0  0  0  0  0  0  0  0
   72.2099   45.3047    5.8621 C   0  0  0  0  0  0  0  0  0  0  0  0
   72.7941   45.9599    6.9372 C   0  0  0  0  0  0  0  0  0  0  0  0
   65.6008   51.0312   11.0680 N   0  0  0  0  0  0  0  0  0  0  0  0
   64.9063   52.0912   11.5035 C   0  0  0  0  0  0  0  0  0  0  0  0
   65.3088   53.2440   11.5413 O   0  0  0  0  0  0  0  0  0  0  0  0
   65.1019   50.1842   11.0134 H   0  0  0  0  0  0  0  0  0  0  0  0
   63.4888   51.7414   11.9248 C   0  0  0  0  0  0  0  0  0  0  0  0
   63.1835   50.6410   12.7228 C   0  0  0  0  0  0  0  0  0  0  0  0
   61.8517   50.3993   13.0689 C   0  0  0  0  0  0  0  0  0  0  0  0
   60.8682   51.2751   12.6081 C   0  0  0  0  0  0  0  0  0  0  0  0
   59.1821   51.0702   12.9730 Cl  0  0  0  0  0  0  0  0  0  0  0  0
   61.2423   52.3512   11.8231 C   0  0  0  0  0  0  0  0  0  0  0  0
   62.5078   52.5644   11.5076 N   0  0  0  0  0  0  0  0  0  0  0  0
 36 35  1  0  0  0
 35 37  2  0  0  0
 35 34  1  0  0  0
 37 38  1  0  0  0
 34 33  2  0  0  0
 38 32  2  0  0  0
 33 32  1  0  0  0
 32 29  1  0  0  0
 29 28  1  0  0  0
 29 30  2  0  0  0
 28 19  1  0  0  0
 13 11  1  0  0  0
 19 15  2  0  0  0
 19 18  1  0  0  0
 11 12  2  0  0  0
 11 10  1  0  0  0
 15 14  1  0  0  0
 18 17  2  0  0  0
 12  8  1  0  0  0
 10  9  1  0  0  0
 14  8  1  0  0  0
 14 16  2  0  0  0
 17 16  1  0  0  0
  8  9  1  0  0  0
  8  7  1  0  0  0
 16  6  1  0  0  0
  7  2  2  0  0  0
  7  5  1  0  0  0
  6  5  1  0  0  0
  2  1  1  0  0  0
  5  4  2  0  0  0
 26 25  1  0  0  0
 26 27  2  0  0  0
  1 27  1  0  0  0
  1  3  2  0  0  0
  4  3  1  0  0  0
 25 24  1  0  0  0
 27 22  1  0  0  0
 24 23  1  0  0  0
 22 23  1  0  0  0
 13 20  1  0  0  0
 13 21  1  0  0  0
 28 31  1  0  0  0
M  END
> <minimizedAffinity>
-10.71291

$$$$
