2YA7_ZMR_A_1776


 32 32  0  0  0  0  0  0  0  0999 V2000
   20.2019  -31.8709   17.1710 C   0  0  0  0  0  0  0  0  0  0  0  0
   20.3261  -33.1196   17.7714 C   0  0  0  0  0  0  0  0  0  0  0  0
   20.0094  -33.3915   19.2548 C   0  0  0  0  0  0  0  0  0  0  0  0
   19.3282  -32.1749   19.9085 C   0  0  0  0  0  0  0  0  0  0  0  0
   19.8348  -30.8299   19.3186 C   0  0  0  0  0  0  0  0  0  0  0  0
   19.8117  -30.7542   17.8373 O   0  0  0  0  0  0  0  0  0  0  0  0
   19.0375  -34.4747   19.1308 N   0  0  0  0  0  0  0  0  0  0  0  0
   19.2509  -35.7475   19.3719 C   0  0  0  0  0  0  0  0  0  0  0  0
   20.4213  -36.1589   19.8067 N   0  0  0  0  0  0  0  0  0  0  0  0
   18.2401  -36.6121   19.1933 N   0  0  0  0  0  0  0  0  0  0  0  0
   21.1541  -35.5137   19.9331 H   0  0  0  0  0  0  0  0  0  0  0  0
   20.5651  -37.1123   20.0059 H   0  0  0  0  0  0  0  0  0  0  0  0
   17.3688  -36.2902   18.8671 H   0  0  0  0  0  0  0  0  0  0  0  0
   18.3700  -37.5683   19.3886 H   0  0  0  0  0  0  0  0  0  0  0  0
   19.4736  -32.1671   21.3893 N   0  0  0  0  0  0  0  0  0  0  0  0
   18.4445  -32.5315   22.1476 C   0  0  0  0  0  0  0  0  0  0  0  0
   17.3462  -32.8821   21.6970 O   0  0  0  0  0  0  0  0  0  0  0  0
   18.6869  -32.4583   23.6629 C   0  0  0  0  0  0  0  0  0  0  0  0
   20.3241  -31.8946   21.8036 H   0  0  0  0  0  0  0  0  0  0  0  0
   20.4952  -31.7190   15.6826 C   0  0  0  0  0  0  0  0  0  0  0  0
   20.0291  -30.7125   15.1345 O   0  0  0  0  0  0  0  0  0  0  0  0
   21.1827  -32.5842   15.1133 O   0  0  0  0  0  0  0  0  0  0  0  0
   19.5186  -30.1031   15.6304 H   0  0  0  0  0  0  0  0  0  0  0  0
   19.0183  -29.5961   19.7650 C   0  0  0  0  0  0  0  0  0  0  0  0
   17.7514  -29.5764   19.0594 O   0  0  0  0  0  0  0  0  0  0  0  0
   17.9133  -29.4938   18.1066 H   0  0  0  0  0  0  0  0  0  0  0  0
   19.7487  -28.2692   19.5220 C   0  0  0  0  0  0  0  0  0  0  0  0
   20.9391  -28.4490   18.7279 O   0  0  0  0  0  0  0  0  0  0  0  0
   21.5610  -29.0222   19.2027 H   0  0  0  0  0  0  0  0  0  0  0  0
   20.0845  -27.5909   20.8554 C   0  0  0  0  0  0  0  0  0  0  0  0
   21.3065  -26.8699   20.7410 O   0  0  0  0  0  0  0  0  0  0  0  0
   22.0224  -27.4818   20.5088 H   0  0  0  0  0  0  0  0  0  0  0  0
 20 21  1  0  0  0
 20 22  2  0  0  0
 20  1  1  0  0  0
  1  2  2  0  0  0
  1  6  1  0  0  0
  2  3  1  0  0  0
  3  4  1  0  0  0
  3  7  1  0  0  0
  4 15  1  0  0  0
  4  5  1  0  0  0
 15 16  1  0  0  0
 16 17  2  0  0  0
 16 18  1  0  0  0
  5  6  1  0  0  0
  5 24  1  0  0  0
 24 25  1  0  0  0
 24 27  1  0  0  0
 27 28  1  0  0  0
 27 30  1  0  0  0
 30 31  1  0  0  0
  7  8  2  0  0  0
  8  9  1  0  0  0
  8 10  1  0  0  0
 21 23  1  0  0  0
 15 19  1  0  0  0
 25 26  1  0  0  0
 28 29  1  0  0  0
 31 32  1  0  0  0
  9 11  1  0  0  0
  9 12  1  0  0  0
 10 13  1  0  0  0
 10 14  1  0  0  0
M  END
> <minimizedAffinity>
-8.98622

$$$$
2YA7_ZMR_A_1776


 32 32  0  0  0  0  0  0  0  0999 V2000
   20.1668  -28.4875   19.5869 C   0  0  0  0  0  0  0  0  0  0  0  0
   19.3088  -29.2597   20.3633 C   0  0  0  0  0  0  0  0  0  0  0  0
   18.7297  -30.6140   19.9100 C   0  0  0  0  0  0  0  0  0  0  0  0
   19.3997  -31.0966   18.6102 C   0  0  0  0  0  0  0  0  0  0  0  0
   19.7915  -29.9173   17.6776 C   0  0  0  0  0  0  0  0  0  0  0  0
   20.5641  -28.8358   18.3363 O   0  0  0  0  0  0  0  0  0  0  0  0
   19.1520  -31.4727   21.0134 N   0  0  0  0  0  0  0  0  0  0  0  0
   18.4333  -32.4017   21.5999 C   0  0  0  0  0  0  0  0  0  0  0  0
   17.2152  -32.6678   21.1832 N   0  0  0  0  0  0  0  0  0  0  0  0
   18.9806  -33.0920   22.6124 N   0  0  0  0  0  0  0  0  0  0  0  0
   16.8261  -32.1534   20.4394 H   0  0  0  0  0  0  0  0  0  0  0  0
   16.6921  -33.3814   21.6150 H   0  0  0  0  0  0  0  0  0  0  0  0
   19.8939  -32.8822   22.9143 H   0  0  0  0  0  0  0  0  0  0  0  0
   18.4688  -33.8082   23.0532 H   0  0  0  0  0  0  0  0  0  0  0  0
   18.5622  -32.0760   17.8663 N   0  0  0  0  0  0  0  0  0  0  0  0
   18.8943  -33.3629   17.8824 C   0  0  0  0  0  0  0  0  0  0  0  0
   19.8773  -33.8138   18.4847 O   0  0  0  0  0  0  0  0  0  0  0  0
   17.9843  -34.2862   17.0580 C   0  0  0  0  0  0  0  0  0  0  0  0
   17.7695  -31.7736   17.3669 H   0  0  0  0  0  0  0  0  0  0  0  0
   20.7220  -27.1836   20.1491 C   0  0  0  0  0  0  0  0  0  0  0  0
   20.1079  -26.6967   21.1064 O   0  0  0  0  0  0  0  0  0  0  0  0
   21.7460  -26.6963   19.6398 O   0  0  0  0  0  0  0  0  0  0  0  0
   19.3413  -27.1225   21.4366 H   0  0  0  0  0  0  0  0  0  0  0  0
   20.6762  -30.3266   16.4784 C   0  0  0  0  0  0  0  0  0  0  0  0
   19.8603  -30.9989   15.4857 O   0  0  0  0  0  0  0  0  0  0  0  0
   19.4885  -31.8092   15.8678 H   0  0  0  0  0  0  0  0  0  0  0  0
   21.8419  -31.2422   16.8735 C   0  0  0  0  0  0  0  0  0  0  0  0
   22.9962  -30.4893   17.2983 O   0  0  0  0  0  0  0  0  0  0  0  0
   23.3136  -29.9418   16.5632 H   0  0  0  0  0  0  0  0  0  0  0  0
   22.2030  -32.1794   15.7149 C   0  0  0  0  0  0  0  0  0  0  0  0
   21.3251  -33.2999   15.7032 O   0  0  0  0  0  0  0  0  0  0  0  0
   21.4083  -33.7847   16.5392 H   0  0  0  0  0  0  0  0  0  0  0  0
 20 21  1  0  0  0
 20 22  2  0  0  0
 20  1  1  0  0  0
  1  2  2  0  0  0
  1  6  1  0  0  0
  2  3  1  0  0  0
  3  4  1  0  0  0
  3  7  1  0  0  0
  4 15  1  0  0  0
  4  5  1  0  0  0
 15 16  1  0  0  0
 16 17  2  0  0  0
 16 18  1  0  0  0
  5  6  1  0  0  0
  5 24  1  0  0  0
 24 25  1  0  0  0
 24 27  1  0  0  0
 27 28  1  0  0  0
 27 30  1  0  0  0
 30 31  1  0  0  0
  7  8  2  0  0  0
  8  9  1  0  0  0
  8 10  1  0  0  0
 21 23  1  0  0  0
 15 19  1  0  0  0
 25 26  1  0  0  0
 28 29  1  0  0  0
 31 32  1  0  0  0
  9 11  1  0  0  0
  9 12  1  0  0  0
 10 13  1  0  0  0
 10 14  1  0  0  0
M  END
> <minimizedAffinity>
-8.54649

$$$$
2YA7_ZMR_A_1776


 32 32  0  0  0  0  0  0  0  0999 V2000
   20.0112  -30.6837   17.1859 C   0  0  0  0  0  0  0  0  0  0  0  0
   19.8021  -29.6032   18.0368 C   0  0  0  0  0  0  0  0  0  0  0  0
   19.3474  -29.7432   19.5025 C   0  0  0  0  0  0  0  0  0  0  0  0
   19.3826  -31.2144   19.9560 C   0  0  0  0  0  0  0  0  0  0  0  0
   19.0402  -32.1945   18.8001 C   0  0  0  0  0  0  0  0  0  0  0  0
   19.8117  -31.9758   17.5522 O   0  0  0  0  0  0  0  0  0  0  0  0
   20.4064  -29.0060   20.1869 N   0  0  0  0  0  0  0  0  0  0  0  0
   20.2647  -27.9055   20.8884 C   0  0  0  0  0  0  0  0  0  0  0  0
   19.0754  -27.3748   21.0676 N   0  0  0  0  0  0  0  0  0  0  0  0
   21.3554  -27.3531   21.4421 N   0  0  0  0  0  0  0  0  0  0  0  0
   18.2838  -27.7905   20.6556 H   0  0  0  0  0  0  0  0  0  0  0  0
   18.9763  -26.5618   21.6138 H   0  0  0  0  0  0  0  0  0  0  0  0
   22.2400  -27.7611   21.2996 H   0  0  0  0  0  0  0  0  0  0  0  0
   21.2709  -26.5400   21.9906 H   0  0  0  0  0  0  0  0  0  0  0  0
   18.4949  -31.4735   21.1216 N   0  0  0  0  0  0  0  0  0  0  0  0
   19.0264  -31.8911   22.2661 C   0  0  0  0  0  0  0  0  0  0  0  0
   20.2371  -32.0876   22.4329 O   0  0  0  0  0  0  0  0  0  0  0  0
   18.0220  -32.1598   23.3972 C   0  0  0  0  0  0  0  0  0  0  0  0
   17.5229  -31.3368   21.0459 H   0  0  0  0  0  0  0  0  0  0  0  0
   20.5079  -30.4381   15.7656 C   0  0  0  0  0  0  0  0  0  0  0  0
   19.8569  -30.9731   14.8597 O   0  0  0  0  0  0  0  0  0  0  0  0
   21.5071  -29.7189   15.5934 O   0  0  0  0  0  0  0  0  0  0  0  0
   19.1130  -31.5034   15.0677 H   0  0  0  0  0  0  0  0  0  0  0  0
   19.2934  -33.6815   19.1360 C   0  0  0  0  0  0  0  0  0  0  0  0
   20.4718  -33.7917   19.9741 O   0  0  0  0  0  0  0  0  0  0  0  0
   21.2452  -33.4632   19.4893 H   0  0  0  0  0  0  0  0  0  0  0  0
   19.4794  -34.5580   17.8908 C   0  0  0  0  0  0  0  0  0  0  0  0
   18.5213  -34.2387   16.8613 O   0  0  0  0  0  0  0  0  0  0  0  0
   17.6249  -34.4128   17.1885 H   0  0  0  0  0  0  0  0  0  0  0  0
   19.3985  -36.0429   18.2643 C   0  0  0  0  0  0  0  0  0  0  0  0
   18.4463  -36.2320   19.3053 O   0  0  0  0  0  0  0  0  0  0  0  0
   18.7160  -35.7241   20.0865 H   0  0  0  0  0  0  0  0  0  0  0  0
 20 21  1  0  0  0
 20 22  2  0  0  0
 20  1  1  0  0  0
  1  2  2  0  0  0
  1  6  1  0  0  0
  2  3  1  0  0  0
  3  4  1  0  0  0
  3  7  1  0  0  0
  4 15  1  0  0  0
  4  5  1  0  0  0
 15 16  1  0  0  0
 16 17  2  0  0  0
 16 18  1  0  0  0
  5  6  1  0  0  0
  5 24  1  0  0  0
 24 25  1  0  0  0
 24 27  1  0  0  0
 27 28  1  0  0  0
 27 30  1  0  0  0
 30 31  1  0  0  0
  7  8  2  0  0  0
  8  9  1  0  0  0
  8 10  1  0  0  0
 21 23  1  0  0  0
 15 19  1  0  0  0
 25 26  1  0  0  0
 28 29  1  0  0  0
 31 32  1  0  0  0
  9 11  1  0  0  0
  9 12  1  0  0  0
 10 13  1  0  0  0
 10 14  1  0  0  0
M  END
> <minimizedAffinity>
-8.34498

$$$$
2YA7_ZMR_A_1776


 32 32  0  0  0  0  0  0  0  0999 V2000
   20.5448  -34.3702   17.4258 C   0  0  0  0  0  0  0  0  0  0  0  0
   20.2414  -34.3020   18.7817 C   0  0  0  0  0  0  0  0  0  0  0  0
   20.0759  -32.9802   19.5565 C   0  0  0  0  0  0  0  0  0  0  0  0
   20.0596  -31.7743   18.5989 C   0  0  0  0  0  0  0  0  0  0  0  0
   20.9716  -31.9944   17.3606 C   0  0  0  0  0  0  0  0  0  0  0  0
   20.7517  -33.2767   16.6481 O   0  0  0  0  0  0  0  0  0  0  0  0
   18.7408  -33.1615   20.1205 N   0  0  0  0  0  0  0  0  0  0  0  0
   18.3549  -32.8411   21.3337 C   0  0  0  0  0  0  0  0  0  0  0  0
   19.1880  -32.2619   22.1696 N   0  0  0  0  0  0  0  0  0  0  0  0
   17.0852  -33.0907   21.6895 N   0  0  0  0  0  0  0  0  0  0  0  0
   20.1168  -32.0848   21.8954 H   0  0  0  0  0  0  0  0  0  0  0  0
   18.8830  -32.0052   23.0698 H   0  0  0  0  0  0  0  0  0  0  0  0
   16.4720  -33.5251   21.0535 H   0  0  0  0  0  0  0  0  0  0  0  0
   16.7669  -32.8393   22.5866 H   0  0  0  0  0  0  0  0  0  0  0  0
   20.4234  -30.5015   19.2782 N   0  0  0  0  0  0  0  0  0  0  0  0
   19.4630  -29.6543   19.6338 C   0  0  0  0  0  0  0  0  0  0  0  0
   18.2581  -29.8536   19.4314 O   0  0  0  0  0  0  0  0  0  0  0  0
   19.9454  -28.3563   20.2992 C   0  0  0  0  0  0  0  0  0  0  0  0
   21.3668  -30.2888   19.4625 H   0  0  0  0  0  0  0  0  0  0  0  0
   20.6396  -35.7302   16.7433 C   0  0  0  0  0  0  0  0  0  0  0  0
   21.3945  -36.5550   17.2728 O   0  0  0  0  0  0  0  0  0  0  0  0
   19.9594  -35.9408   15.7243 O   0  0  0  0  0  0  0  0  0  0  0  0
   21.8764  -36.3228   18.0420 H   0  0  0  0  0  0  0  0  0  0  0  0
   20.8083  -30.9250   16.2569 C   0  0  0  0  0  0  0  0  0  0  0  0
   19.7908  -31.3548   15.3172 O   0  0  0  0  0  0  0  0  0  0  0  0
   20.0726  -32.1787   14.8898 H   0  0  0  0  0  0  0  0  0  0  0  0
   22.1087  -30.6421   15.4939 C   0  0  0  0  0  0  0  0  0  0  0  0
   22.3242  -31.5910   14.4294 O   0  0  0  0  0  0  0  0  0  0  0  0
   22.4129  -32.4817   14.8032 H   0  0  0  0  0  0  0  0  0  0  0  0
   23.3020  -30.6280   16.4567 C   0  0  0  0  0  0  0  0  0  0  0  0
   23.2889  -29.4338   17.2311 O   0  0  0  0  0  0  0  0  0  0  0  0
   23.3494  -28.6656   16.6419 H   0  0  0  0  0  0  0  0  0  0  0  0
 20 21  1  0  0  0
 20 22  2  0  0  0
 20  1  1  0  0  0
  1  2  2  0  0  0
  1  6  1  0  0  0
  2  3  1  0  0  0
  3  4  1  0  0  0
  3  7  1  0  0  0
  4 15  1  0  0  0
  4  5  1  0  0  0
 15 16  1  0  0  0
 16 17  2  0  0  0
 16 18  1  0  0  0
  5  6  1  0  0  0
  5 24  1  0  0  0
 24 25  1  0  0  0
 24 27  1  0  0  0
 27 28  1  0  0  0
 27 30  1  0  0  0
 30 31  1  0  0  0
  7  8  2  0  0  0
  8  9  1  0  0  0
  8 10  1  0  0  0
 21 23  1  0  0  0
 15 19  1  0  0  0
 25 26  1  0  0  0
 28 29  1  0  0  0
 31 32  1  0  0  0
  9 11  1  0  0  0
  9 12  1  0  0  0
 10 13  1  0  0  0
 10 14  1  0  0  0
M  END
> <minimizedAffinity>
-8.13913

$$$$
2YA7_ZMR_A_1776


 32 32  0  0  0  0  0  0  0  0999 V2000
   20.8381  -32.0390   16.2632 C   0  0  0  0  0  0  0  0  0  0  0  0
   20.3776  -33.3310   16.4951 C   0  0  0  0  0  0  0  0  0  0  0  0
   19.3714  -33.6950   17.6040 C   0  0  0  0  0  0  0  0  0  0  0  0
   18.7793  -32.4301   18.2528 C   0  0  0  0  0  0  0  0  0  0  0  0
   19.8006  -31.2603   18.2999 C   0  0  0  0  0  0  0  0  0  0  0  0
   20.4669  -30.9660   17.0077 O   0  0  0  0  0  0  0  0  0  0  0  0
   18.3340  -34.3617   16.8212 N   0  0  0  0  0  0  0  0  0  0  0  0
   18.3121  -35.6262   16.4692 C   0  0  0  0  0  0  0  0  0  0  0  0
   19.2666  -36.4443   16.8536 N   0  0  0  0  0  0  0  0  0  0  0  0
   17.2798  -36.0695   15.7350 N   0  0  0  0  0  0  0  0  0  0  0  0
   20.0181  -36.1056   17.3919 H   0  0  0  0  0  0  0  0  0  0  0  0
   19.2298  -37.3958   16.6033 H   0  0  0  0  0  0  0  0  0  0  0  0
   16.5718  -35.4458   15.4539 H   0  0  0  0  0  0  0  0  0  0  0  0
   17.2304  -37.0185   15.4776 H   0  0  0  0  0  0  0  0  0  0  0  0
   18.2382  -32.6874   19.6147 N   0  0  0  0  0  0  0  0  0  0  0  0
   19.0415  -33.1761   20.5541 C   0  0  0  0  0  0  0  0  0  0  0  0
   20.2364  -33.4416   20.3696 O   0  0  0  0  0  0  0  0  0  0  0  0
   18.3784  -33.4355   21.9154 C   0  0  0  0  0  0  0  0  0  0  0  0
   17.2939  -32.4974   19.8181 H   0  0  0  0  0  0  0  0  0  0  0  0
   21.7979  -31.7781   15.1077 C   0  0  0  0  0  0  0  0  0  0  0  0
   21.9536  -32.7084   14.3071 O   0  0  0  0  0  0  0  0  0  0  0  0
   22.3495  -30.6674   15.0225 O   0  0  0  0  0  0  0  0  0  0  0  0
   21.5026  -33.5193   14.4376 H   0  0  0  0  0  0  0  0  0  0  0  0
   19.1896  -29.9040   18.7186 C   0  0  0  0  0  0  0  0  0  0  0  0
   19.5110  -28.9026   17.7201 O   0  0  0  0  0  0  0  0  0  0  0  0
   20.4733  -28.7903   17.6728 H   0  0  0  0  0  0  0  0  0  0  0  0
   19.6782  -29.4200   20.0900 C   0  0  0  0  0  0  0  0  0  0  0  0
   18.8222  -29.8769   21.1570 O   0  0  0  0  0  0  0  0  0  0  0  0
   17.9322  -29.5101   21.0371 H   0  0  0  0  0  0  0  0  0  0  0  0
   19.7965  -27.8914   20.1073 C   0  0  0  0  0  0  0  0  0  0  0  0
   21.0252  -27.4912   19.5105 O   0  0  0  0  0  0  0  0  0  0  0  0
   21.7656  -27.8709   20.0092 H   0  0  0  0  0  0  0  0  0  0  0  0
 20 21  1  0  0  0
 20 22  2  0  0  0
 20  1  1  0  0  0
  1  2  2  0  0  0
  1  6  1  0  0  0
  2  3  1  0  0  0
  3  4  1  0  0  0
  3  7  1  0  0  0
  4 15  1  0  0  0
  4  5  1  0  0  0
 15 16  1  0  0  0
 16 17  2  0  0  0
 16 18  1  0  0  0
  5  6  1  0  0  0
  5 24  1  0  0  0
 24 25  1  0  0  0
 24 27  1  0  0  0
 27 28  1  0  0  0
 27 30  1  0  0  0
 30 31  1  0  0  0
  7  8  2  0  0  0
  8  9  1  0  0  0
  8 10  1  0  0  0
 21 23  1  0  0  0
 15 19  1  0  0  0
 25 26  1  0  0  0
 28 29  1  0  0  0
 31 32  1  0  0  0
  9 11  1  0  0  0
  9 12  1  0  0  0
 10 13  1  0  0  0
 10 14  1  0  0  0
M  END
> <minimizedAffinity>
-8.09547

$$$$
2YA7_ZMR_A_1776


 32 32  0  0  0  0  0  0  0  0999 V2000
   19.4379  -34.3820   17.0602 C   0  0  0  0  0  0  0  0  0  0  0  0
   19.2984  -33.3955   18.0311 C   0  0  0  0  0  0  0  0  0  0  0  0
   20.2480  -32.1896   18.1689 C   0  0  0  0  0  0  0  0  0  0  0  0
   21.2093  -32.1007   16.9691 C   0  0  0  0  0  0  0  0  0  0  0  0
   21.5927  -33.5017   16.4178 C   0  0  0  0  0  0  0  0  0  0  0  0
   20.4422  -34.3980   16.1468 O   0  0  0  0  0  0  0  0  0  0  0  0
   19.2951  -31.0847   18.1015 N   0  0  0  0  0  0  0  0  0  0  0  0
   18.5734  -30.6137   19.0918 C   0  0  0  0  0  0  0  0  0  0  0  0
   18.6929  -31.1117   20.3026 N   0  0  0  0  0  0  0  0  0  0  0  0
   17.7352  -29.5947   18.8463 N   0  0  0  0  0  0  0  0  0  0  0  0
   19.3117  -31.8592   20.4685 H   0  0  0  0  0  0  0  0  0  0  0  0
   18.1637  -30.7370   21.0434 H   0  0  0  0  0  0  0  0  0  0  0  0
   17.6556  -29.2315   17.9347 H   0  0  0  0  0  0  0  0  0  0  0  0
   17.1999  -29.2105   19.5777 H   0  0  0  0  0  0  0  0  0  0  0  0
   22.4390  -31.3229   17.2799 N   0  0  0  0  0  0  0  0  0  0  0  0
   22.7712  -30.2924   16.5089 C   0  0  0  0  0  0  0  0  0  0  0  0
   22.1148  -29.9279   15.5247 O   0  0  0  0  0  0  0  0  0  0  0  0
   24.0741  -29.5761   16.8955 C   0  0  0  0  0  0  0  0  0  0  0  0
   23.0014  -31.5692   18.0494 H   0  0  0  0  0  0  0  0  0  0  0  0
   18.4146  -35.5092   16.9802 C   0  0  0  0  0  0  0  0  0  0  0  0
   17.9584  -35.9096   18.0582 O   0  0  0  0  0  0  0  0  0  0  0  0
   18.0877  -35.9471   15.8636 O   0  0  0  0  0  0  0  0  0  0  0  0
   18.2542  -35.5298   18.8621 H   0  0  0  0  0  0  0  0  0  0  0  0
   22.3577  -33.4652   15.0755 C   0  0  0  0  0  0  0  0  0  0  0  0
   21.8381  -32.3887   14.2544 O   0  0  0  0  0  0  0  0  0  0  0  0
   20.9032  -32.5553   14.0565 H   0  0  0  0  0  0  0  0  0  0  0  0
   22.2665  -34.7818   14.2933 C   0  0  0  0  0  0  0  0  0  0  0  0
   22.8933  -35.8712   15.0005 O   0  0  0  0  0  0  0  0  0  0  0  0
   23.8382  -35.6829   15.1126 H   0  0  0  0  0  0  0  0  0  0  0  0
   22.8793  -34.6186   12.8973 C   0  0  0  0  0  0  0  0  0  0  0  0
   21.9677  -33.9379   12.0418 O   0  0  0  0  0  0  0  0  0  0  0  0
   21.1479  -34.4512   11.9688 H   0  0  0  0  0  0  0  0  0  0  0  0
 20 21  1  0  0  0
 20 22  2  0  0  0
 20  1  1  0  0  0
  1  2  2  0  0  0
  1  6  1  0  0  0
  2  3  1  0  0  0
  3  4  1  0  0  0
  3  7  1  0  0  0
  4 15  1  0  0  0
  4  5  1  0  0  0
 15 16  1  0  0  0
 16 17  2  0  0  0
 16 18  1  0  0  0
  5  6  1  0  0  0
  5 24  1  0  0  0
 24 25  1  0  0  0
 24 27  1  0  0  0
 27 28  1  0  0  0
 27 30  1  0  0  0
 30 31  1  0  0  0
  7  8  2  0  0  0
  8  9  1  0  0  0
  8 10  1  0  0  0
 21 23  1  0  0  0
 15 19  1  0  0  0
 25 26  1  0  0  0
 28 29  1  0  0  0
 31 32  1  0  0  0
  9 11  1  0  0  0
  9 12  1  0  0  0
 10 13  1  0  0  0
 10 14  1  0  0  0
M  END
> <minimizedAffinity>
-7.46071

$$$$
2YA7_ZMR_A_1776


 32 32  0  0  0  0  0  0  0  0999 V2000
   21.1631  -32.1477   16.0897 C   0  0  0  0  0  0  0  0  0  0  0  0
   20.4792  -31.1074   16.7105 C   0  0  0  0  0  0  0  0  0  0  0  0
   19.6827  -31.2678   18.0200 C   0  0  0  0  0  0  0  0  0  0  0  0
   19.9352  -32.6467   18.6574 C   0  0  0  0  0  0  0  0  0  0  0  0
   20.1659  -33.7537   17.5920 C   0  0  0  0  0  0  0  0  0  0  0  0
   21.1789  -33.4209   16.5608 O   0  0  0  0  0  0  0  0  0  0  0  0
   20.3072  -30.2374   18.8455 N   0  0  0  0  0  0  0  0  0  0  0  0
   19.6940  -29.4122   19.6619 C   0  0  0  0  0  0  0  0  0  0  0  0
   18.3927  -29.4847   19.8336 N   0  0  0  0  0  0  0  0  0  0  0  0
   20.4285  -28.5152   20.3380 N   0  0  0  0  0  0  0  0  0  0  0  0
   17.8661  -30.1475   19.3310 H   0  0  0  0  0  0  0  0  0  0  0  0
   17.9447  -28.8762   20.4647 H   0  0  0  0  0  0  0  0  0  0  0  0
   21.4023  -28.4719   20.1997 H   0  0  0  0  0  0  0  0  0  0  0  0
   19.9936  -27.9006   20.9723 H   0  0  0  0  0  0  0  0  0  0  0  0
   18.8461  -33.0540   19.5858 N   0  0  0  0  0  0  0  0  0  0  0  0
   19.0354  -32.9528   20.8975 C   0  0  0  0  0  0  0  0  0  0  0  0
   20.0809  -32.5365   21.4131 O   0  0  0  0  0  0  0  0  0  0  0  0
   17.8630  -33.4286   21.7688 C   0  0  0  0  0  0  0  0  0  0  0  0
   17.9932  -33.3953   19.2317 H   0  0  0  0  0  0  0  0  0  0  0  0
   21.9614  -31.8718   14.8204 C   0  0  0  0  0  0  0  0  0  0  0  0
   22.0643  -32.8137   14.0249 O   0  0  0  0  0  0  0  0  0  0  0  0
   22.4432  -30.7390   14.6468 O   0  0  0  0  0  0  0  0  0  0  0  0
   21.6729  -33.6411   14.2254 H   0  0  0  0  0  0  0  0  0  0  0  0
   20.6577  -35.0984   18.1736 C   0  0  0  0  0  0  0  0  0  0  0  0
   21.8824  -35.4929   17.5046 O   0  0  0  0  0  0  0  0  0  0  0  0
   21.7062  -35.6271   16.5602 H   0  0  0  0  0  0  0  0  0  0  0  0
   19.6269  -36.2266   18.0397 C   0  0  0  0  0  0  0  0  0  0  0  0
   18.7020  -36.2432   19.1461 O   0  0  0  0  0  0  0  0  0  0  0  0
   19.1863  -36.4096   19.9699 H   0  0  0  0  0  0  0  0  0  0  0  0
   20.3311  -37.5816   17.9021 C   0  0  0  0  0  0  0  0  0  0  0  0
   20.2840  -38.0198   16.5486 O   0  0  0  0  0  0  0  0  0  0  0  0
   19.3593  -38.1149   16.2715 H   0  0  0  0  0  0  0  0  0  0  0  0
 20 21  1  0  0  0
 20 22  2  0  0  0
 20  1  1  0  0  0
  1  2  2  0  0  0
  1  6  1  0  0  0
  2  3  1  0  0  0
  3  4  1  0  0  0
  3  7  1  0  0  0
  4 15  1  0  0  0
  4  5  1  0  0  0
 15 16  1  0  0  0
 16 17  2  0  0  0
 16 18  1  0  0  0
  5  6  1  0  0  0
  5 24  1  0  0  0
 24 25  1  0  0  0
 24 27  1  0  0  0
 27 28  1  0  0  0
 27 30  1  0  0  0
 30 31  1  0  0  0
  7  8  2  0  0  0
  8  9  1  0  0  0
  8 10  1  0  0  0
 21 23  1  0  0  0
 15 19  1  0  0  0
 25 26  1  0  0  0
 28 29  1  0  0  0
 31 32  1  0  0  0
  9 11  1  0  0  0
  9 12  1  0  0  0
 10 13  1  0  0  0
 10 14  1  0  0  0
M  END
> <minimizedAffinity>
-7.08184

$$$$
2YA7_ZMR_A_1776


 32 32  0  0  0  0  0  0  0  0999 V2000
   18.6502  -33.7228   17.4407 C   0  0  0  0  0  0  0  0  0  0  0  0
   19.7773  -33.1433   16.8669 C   0  0  0  0  0  0  0  0  0  0  0  0
   20.5753  -31.9965   17.5170 C   0  0  0  0  0  0  0  0  0  0  0  0
   20.1066  -31.7442   18.9620 C   0  0  0  0  0  0  0  0  0  0  0  0
   18.5866  -32.0106   19.1422 C   0  0  0  0  0  0  0  0  0  0  0  0
   18.1205  -33.3201   18.6241 O   0  0  0  0  0  0  0  0  0  0  0  0
   21.9147  -32.5784   17.5430 N   0  0  0  0  0  0  0  0  0  0  0  0
   22.9735  -32.1311   16.9087 C   0  0  0  0  0  0  0  0  0  0  0  0
   22.9074  -31.0339   16.1876 N   0  0  0  0  0  0  0  0  0  0  0  0
   24.1289  -32.8015   17.0377 N   0  0  0  0  0  0  0  0  0  0  0  0
   22.0532  -30.5521   16.1016 H   0  0  0  0  0  0  0  0  0  0  0  0
   23.7122  -30.6941   15.7336 H   0  0  0  0  0  0  0  0  0  0  0  0
   24.1640  -33.6219   17.5808 H   0  0  0  0  0  0  0  0  0  0  0  0
   24.9414  -32.4730   16.5892 H   0  0  0  0  0  0  0  0  0  0  0  0
   20.4429  -30.3759   19.4401 N   0  0  0  0  0  0  0  0  0  0  0  0
   19.9599  -29.3212   18.7913 C   0  0  0  0  0  0  0  0  0  0  0  0
   19.2352  -29.3998   17.7908 O   0  0  0  0  0  0  0  0  0  0  0  0
   20.3916  -27.9550   19.3455 C   0  0  0  0  0  0  0  0  0  0  0  0
   21.0178  -30.2530   20.2298 H   0  0  0  0  0  0  0  0  0  0  0  0
   17.9607  -34.8860   16.7365 C   0  0  0  0  0  0  0  0  0  0  0  0
   16.7260  -34.9131   16.8090 O   0  0  0  0  0  0  0  0  0  0  0  0
   18.6554  -35.7181   16.1280 O   0  0  0  0  0  0  0  0  0  0  0  0
   16.2700  -34.2489   17.2874 H   0  0  0  0  0  0  0  0  0  0  0  0
   18.1138  -32.0051   20.6135 C   0  0  0  0  0  0  0  0  0  0  0  0
   18.4608  -30.7371   21.2258 O   0  0  0  0  0  0  0  0  0  0  0  0
   19.4250  -30.6311   21.2257 H   0  0  0  0  0  0  0  0  0  0  0  0
   18.7158  -33.1452   21.4448 C   0  0  0  0  0  0  0  0  0  0  0  0
   18.1493  -34.4238   21.0927 O   0  0  0  0  0  0  0  0  0  0  0  0
   17.1978  -34.4189   21.2812 H   0  0  0  0  0  0  0  0  0  0  0  0
   18.5376  -32.8678   22.9422 C   0  0  0  0  0  0  0  0  0  0  0  0
   17.2401  -32.3367   23.1881 O   0  0  0  0  0  0  0  0  0  0  0  0
   17.1323  -31.5065   22.6982 H   0  0  0  0  0  0  0  0  0  0  0  0
 20 21  1  0  0  0
 20 22  2  0  0  0
 20  1  1  0  0  0
  1  2  2  0  0  0
  1  6  1  0  0  0
  2  3  1  0  0  0
  3  4  1  0  0  0
  3  7  1  0  0  0
  4 15  1  0  0  0
  4  5  1  0  0  0
 15 16  1  0  0  0
 16 17  2  0  0  0
 16 18  1  0  0  0
  5  6  1  0  0  0
  5 24  1  0  0  0
 24 25  1  0  0  0
 24 27  1  0  0  0
 27 28  1  0  0  0
 27 30  1  0  0  0
 30 31  1  0  0  0
  7  8  2  0  0  0
  8  9  1  0  0  0
  8 10  1  0  0  0
 21 23  1  0  0  0
 15 19  1  0  0  0
 25 26  1  0  0  0
 28 29  1  0  0  0
 31 32  1  0  0  0
  9 11  1  0  0  0
  9 12  1  0  0  0
 10 13  1  0  0  0
 10 14  1  0  0  0
M  END
> <minimizedAffinity>
-7.04341

$$$$
2YA7_ZMR_A_1776


 32 32  0  0  0  0  0  0  0  0999 V2000
   22.8257  -36.0419   15.1488 C   0  0  0  0  0  0  0  0  0  0  0  0
   21.6579  -36.4828   15.7627 C   0  0  0  0  0  0  0  0  0  0  0  0
   20.7830  -35.5990   16.6729 C   0  0  0  0  0  0  0  0  0  0  0  0
   21.2387  -34.1289   16.6225 C   0  0  0  0  0  0  0  0  0  0  0  0
   22.7746  -33.9956   16.4297 C   0  0  0  0  0  0  0  0  0  0  0  0
   23.3305  -34.7917   15.3083 O   0  0  0  0  0  0  0  0  0  0  0  0
   19.4886  -35.7218   16.0076 N   0  0  0  0  0  0  0  0  0  0  0  0
   18.3140  -35.7900   16.5900 C   0  0  0  0  0  0  0  0  0  0  0  0
   18.2102  -35.7094   17.8980 N   0  0  0  0  0  0  0  0  0  0  0  0
   17.2223  -35.9131   15.8191 N   0  0  0  0  0  0  0  0  0  0  0  0
   19.0194  -35.6194   18.4514 H   0  0  0  0  0  0  0  0  0  0  0  0
   17.3232  -35.7392   18.3242 H   0  0  0  0  0  0  0  0  0  0  0  0
   17.3147  -35.9724   14.8408 H   0  0  0  0  0  0  0  0  0  0  0  0
   16.3291  -35.9442   16.2320 H   0  0  0  0  0  0  0  0  0  0  0  0
   20.8080  -33.3568   17.8193 N   0  0  0  0  0  0  0  0  0  0  0  0
   19.8199  -32.4751   17.7056 C   0  0  0  0  0  0  0  0  0  0  0  0
   19.2210  -32.2434   16.6473 O   0  0  0  0  0  0  0  0  0  0  0  0
   19.4730  -31.7082   18.9908 C   0  0  0  0  0  0  0  0  0  0  0  0
   21.2507  -33.4977   18.6872 H   0  0  0  0  0  0  0  0  0  0  0  0
   23.5933  -36.9834   14.2274 C   0  0  0  0  0  0  0  0  0  0  0  0
   23.2769  -38.1782   14.2819 O   0  0  0  0  0  0  0  0  0  0  0  0
   24.4651  -36.5126   13.4767 O   0  0  0  0  0  0  0  0  0  0  0  0
   22.6081  -38.4592   14.8749 H   0  0  0  0  0  0  0  0  0  0  0  0
   23.2521  -32.5558   16.1340 C   0  0  0  0  0  0  0  0  0  0  0  0
   23.2284  -31.7798   17.3589 O   0  0  0  0  0  0  0  0  0  0  0  0
   22.3183  -31.7263   17.6901 H   0  0  0  0  0  0  0  0  0  0  0  0
   22.4028  -31.8446   15.0728 C   0  0  0  0  0  0  0  0  0  0  0  0
   22.9207  -32.0519   13.7429 O   0  0  0  0  0  0  0  0  0  0  0  0
   23.8118  -31.6739   13.6804 H   0  0  0  0  0  0  0  0  0  0  0  0
   22.2982  -30.3473   15.3860 C   0  0  0  0  0  0  0  0  0  0  0  0
   20.9309  -29.9666   15.4938 O   0  0  0  0  0  0  0  0  0  0  0  0
   20.4782  -30.1461   14.6549 H   0  0  0  0  0  0  0  0  0  0  0  0
 20 21  1  0  0  0
 20 22  2  0  0  0
 20  1  1  0  0  0
  1  2  2  0  0  0
  1  6  1  0  0  0
  2  3  1  0  0  0
  3  4  1  0  0  0
  3  7  1  0  0  0
  4 15  1  0  0  0
  4  5  1  0  0  0
 15 16  1  0  0  0
 16 17  2  0  0  0
 16 18  1  0  0  0
  5  6  1  0  0  0
  5 24  1  0  0  0
 24 25  1  0  0  0
 24 27  1  0  0  0
 27 28  1  0  0  0
 27 30  1  0  0  0
 30 31  1  0  0  0
  7  8  2  0  0  0
  8  9  1  0  0  0
  8 10  1  0  0  0
 21 23  1  0  0  0
 15 19  1  0  0  0
 25 26  1  0  0  0
 28 29  1  0  0  0
 31 32  1  0  0  0
  9 11  1  0  0  0
  9 12  1  0  0  0
 10 13  1  0  0  0
 10 14  1  0  0  0
M  END
> <minimizedAffinity>
-7.01083

$$$$
2YA7_ZMR_A_1776


 32 32  0  0  0  0  0  0  0  0999 V2000
   19.4516  -31.1085   18.1519 C   0  0  0  0  0  0  0  0  0  0  0  0
   18.9642  -32.3782   17.8596 C   0  0  0  0  0  0  0  0  0  0  0  0
   19.7022  -33.3937   16.9658 C   0  0  0  0  0  0  0  0  0  0  0  0
   21.1281  -32.9120   16.6397 C   0  0  0  0  0  0  0  0  0  0  0  0
   21.2136  -31.3653   16.5208 C   0  0  0  0  0  0  0  0  0  0  0  0
   20.6191  -30.6218   17.6585 O   0  0  0  0  0  0  0  0  0  0  0  0
   19.7789  -34.5417   17.8654 N   0  0  0  0  0  0  0  0  0  0  0  0
   19.4439  -35.7793   17.5833 C   0  0  0  0  0  0  0  0  0  0  0  0
   19.0234  -36.1008   16.3799 N   0  0  0  0  0  0  0  0  0  0  0  0
   19.5691  -36.7116   18.5405 N   0  0  0  0  0  0  0  0  0  0  0  0
   18.9362  -35.4067   15.6872 H   0  0  0  0  0  0  0  0  0  0  0  0
   18.7956  -37.0356   16.1715 H   0  0  0  0  0  0  0  0  0  0  0  0
   19.8852  -36.4568   19.4374 H   0  0  0  0  0  0  0  0  0  0  0  0
   19.3449  -37.6502   18.3459 H   0  0  0  0  0  0  0  0  0  0  0  0
   21.6779  -33.5472   15.4117 N   0  0  0  0  0  0  0  0  0  0  0  0
   22.5463  -34.5468   15.5273 C   0  0  0  0  0  0  0  0  0  0  0  0
   22.9416  -34.9947   16.6115 O   0  0  0  0  0  0  0  0  0  0  0  0
   23.0777  -35.1118   14.2012 C   0  0  0  0  0  0  0  0  0  0  0  0
   21.4011  -33.2300   14.5218 H   0  0  0  0  0  0  0  0  0  0  0  0
   18.6648  -30.1972   19.0873 C   0  0  0  0  0  0  0  0  0  0  0  0
   19.3153  -29.6375   19.9785 O   0  0  0  0  0  0  0  0  0  0  0  0
   17.4438  -30.0548   18.9025 O   0  0  0  0  0  0  0  0  0  0  0  0
   20.2358  -29.7946   20.0557 H   0  0  0  0  0  0  0  0  0  0  0  0
   22.6557  -30.8166   16.4332 C   0  0  0  0  0  0  0  0  0  0  0  0
   22.8290  -29.7604   17.4117 O   0  0  0  0  0  0  0  0  0  0  0  0
   22.2230  -29.0302   17.2101 H   0  0  0  0  0  0  0  0  0  0  0  0
   23.0117  -30.2757   15.0425 C   0  0  0  0  0  0  0  0  0  0  0  0
   22.9641  -31.3078   14.0364 O   0  0  0  0  0  0  0  0  0  0  0  0
   23.6215  -31.9907   14.2423 H   0  0  0  0  0  0  0  0  0  0  0  0
   24.3904  -29.6052   15.0658 C   0  0  0  0  0  0  0  0  0  0  0  0
   24.2467  -28.2026   15.2613 O   0  0  0  0  0  0  0  0  0  0  0  0
   23.7249  -27.8267   14.5350 H   0  0  0  0  0  0  0  0  0  0  0  0
 20 21  1  0  0  0
 20 22  2  0  0  0
 20  1  1  0  0  0
  1  2  2  0  0  0
  1  6  1  0  0  0
  2  3  1  0  0  0
  3  4  1  0  0  0
  3  7  1  0  0  0
  4 15  1  0  0  0
  4  5  1  0  0  0
 15 16  1  0  0  0
 16 17  2  0  0  0
 16 18  1  0  0  0
  5  6  1  0  0  0
  5 24  1  0  0  0
 24 25  1  0  0  0
 24 27  1  0  0  0
 27 28  1  0  0  0
 27 30  1  0  0  0
 30 31  1  0  0  0
  7  8  2  0  0  0
  8  9  1  0  0  0
  8 10  1  0  0  0
 21 23  1  0  0  0
 15 19  1  0  0  0
 25 26  1  0  0  0
 28 29  1  0  0  0
 31 32  1  0  0  0
  9 11  1  0  0  0
  9 12  1  0  0  0
 10 13  1  0  0  0
 10 14  1  0  0  0
M  END
> <minimizedAffinity>
-6.81563

$$$$
