1PME_SB2_A_1001


 28 31  0  0  0  0  0  0  0  0999 V2000
  -13.2820   14.2226   41.3897 N   0  0  0  0  0  0  0  0  0  0  0  0
  -12.0525   14.2380   40.9270 C   0  0  0  0  0  0  0  0  0  0  0  0
  -11.9663   13.7515   39.7094 N   0  0  0  0  0  0  0  0  0  0  0  0
  -13.2295   13.1037   39.4502 C   0  0  0  0  0  0  0  0  0  0  0  0
  -14.0446   13.4024   40.4820 C   0  0  0  0  0  0  0  0  0  0  0  0
  -13.6159   14.6798   42.1952 H   0  0  0  0  0  0  0  0  0  0  0  0
  -14.5617   12.2727   37.4975 C   0  0  0  0  0  0  0  0  0  0  0  0
  -14.7418   11.3906   36.4588 C   0  0  0  0  0  0  0  0  0  0  0  0
  -13.7833   10.4505   36.2125 C   0  0  0  0  0  0  0  0  0  0  0  0
  -12.6299   10.3972   36.9552 C   0  0  0  0  0  0  0  0  0  0  0  0
  -12.4650   11.2799   37.9835 C   0  0  0  0  0  0  0  0  0  0  0  0
  -13.4257   12.2219   38.2834 C   0  0  0  0  0  0  0  0  0  0  0  0
  -14.1102    9.4383   35.4432 F   0  0  0  0  0  0  0  0  0  0  0  0
   -9.6511   14.9993   40.9972 C   0  0  0  0  0  0  0  0  0  0  0  0
   -8.5414   15.4872   41.6811 C   0  0  0  0  0  0  0  0  0  0  0  0
   -8.5963   15.7004   43.0432 C   0  0  0  0  0  0  0  0  0  0  0  0
   -9.7550   15.3786   43.6998 C   0  0  0  0  0  0  0  0  0  0  0  0
  -10.8643   14.9183   43.0317 C   0  0  0  0  0  0  0  0  0  0  0  0
  -10.8361   14.7231   41.6668 C   0  0  0  0  0  0  0  0  0  0  0  0
   -7.5652   16.4849   45.3706 O   0  0  0  0  0  0  0  0  0  0  0  0
   -5.8359   17.1121   43.2761 C   0  0  0  0  0  0  0  0  0  0  0  0
   -7.3072   16.4522   43.9032 S   0  0  0  0  0  0  0  0  0  0  0  0
  -18.0436   12.1637   41.4784 N   0  0  0  0  0  0  0  0  0  0  0  0
  -17.0982   11.3065   41.0912 C   0  0  0  0  0  0  0  0  0  0  0  0
  -15.7984   11.6512   40.7370 C   0  0  0  0  0  0  0  0  0  0  0  0
  -15.4258   12.9790   40.7849 C   0  0  0  0  0  0  0  0  0  0  0  0
  -16.3999   13.8917   41.1816 C   0  0  0  0  0  0  0  0  0  0  0  0
  -17.6783   13.4371   41.5133 C   0  0  0  0  0  0  0  0  0  0  0  0
 20 22  2  0  0  0
 21 22  1  0  0  0
 22 16  1  0  0  0
 14 15  2  0  0  0
 14 19  1  0  0  0
 15 16  1  0  0  0
 16 17  2  0  0  0
 17 18  1  0  0  0
 18 19  2  0  0  0
 19  2  1  0  0  0
 23 24  2  0  0  0
 23 28  1  0  0  0
 24 25  1  0  0  0
 25 26  2  0  0  0
 26 27  1  0  0  0
 26  5  1  0  0  0
 27 28  2  0  0  0
  1  2  1  0  0  0
  1  5  1  0  0  0
  2  3  2  0  0  0
  3  4  1  0  0  0
  4  5  2  0  0  0
  4 12  1  0  0  0
  7  8  2  0  0  0
  7 12  1  0  0  0
  8  9  1  0  0  0
  9 10  2  0  0  0
  9 13  1  0  0  0
 10 11  1  0  0  0
 11 12  2  0  0  0
  1  6  1  0  0  0
M  END
> <minimizedAffinity>
-9.17714

$$$$
1PME_SB2_A_1001


 28 31  0  0  0  0  0  0  0  0999 V2000
  -12.3184   14.1037   41.1089 N   0  0  0  0  0  0  0  0  0  0  0  0
  -13.5007   13.5350   41.0382 C   0  0  0  0  0  0  0  0  0  0  0  0
  -13.4800   12.4130   40.3545 N   0  0  0  0  0  0  0  0  0  0  0  0
  -12.2040   12.3817   39.6813 C   0  0  0  0  0  0  0  0  0  0  0  0
  -11.4835   13.4189   40.1538 C   0  0  0  0  0  0  0  0  0  0  0  0
  -12.0553   14.8484   41.6966 H   0  0  0  0  0  0  0  0  0  0  0  0
  -12.6194   11.3573   37.4326 C   0  0  0  0  0  0  0  0  0  0  0  0
  -12.3636   10.3878   36.4923 C   0  0  0  0  0  0  0  0  0  0  0  0
  -11.3989    9.4557   36.7453 C   0  0  0  0  0  0  0  0  0  0  0  0
  -10.6560    9.4943   37.8991 C   0  0  0  0  0  0  0  0  0  0  0  0
  -10.9213   10.4631   38.8236 C   0  0  0  0  0  0  0  0  0  0  0  0
  -11.9100   11.4014   38.6182 C   0  0  0  0  0  0  0  0  0  0  0  0
  -11.3896    8.3751   36.0000 F   0  0  0  0  0  0  0  0  0  0  0  0
  -16.0071   13.5210   41.2999 C   0  0  0  0  0  0  0  0  0  0  0  0
  -17.1794   13.9927   41.8836 C   0  0  0  0  0  0  0  0  0  0  0  0
  -17.1395   15.0220   42.8016 C   0  0  0  0  0  0  0  0  0  0  0  0
  -15.9237   15.5868   43.0844 C   0  0  0  0  0  0  0  0  0  0  0  0
  -14.7574   15.1142   42.5318 C   0  0  0  0  0  0  0  0  0  0  0  0
  -14.7751   14.0696   41.6317 C   0  0  0  0  0  0  0  0  0  0  0  0
  -18.3503   15.4144   45.1416 O   0  0  0  0  0  0  0  0  0  0  0  0
  -20.0341   16.1321   43.0391 C   0  0  0  0  0  0  0  0  0  0  0  0
  -18.5394   15.5287   43.6678 S   0  0  0  0  0  0  0  0  0  0  0  0
   -7.5872   14.8355   38.9999 N   0  0  0  0  0  0  0  0  0  0  0  0
   -7.8058   13.5899   39.4231 C   0  0  0  0  0  0  0  0  0  0  0  0
   -9.0361   13.0841   39.8284 C   0  0  0  0  0  0  0  0  0  0  0  0
  -10.1391   13.9127   39.7965 C   0  0  0  0  0  0  0  0  0  0  0  0
   -9.9316   15.2196   39.3628 C   0  0  0  0  0  0  0  0  0  0  0  0
   -8.6509   15.6255   38.9807 C   0  0  0  0  0  0  0  0  0  0  0  0
 20 22  2  0  0  0
 21 22  1  0  0  0
 22 16  1  0  0  0
 14 15  2  0  0  0
 14 19  1  0  0  0
 15 16  1  0  0  0
 16 17  2  0  0  0
 17 18  1  0  0  0
 18 19  2  0  0  0
 19  2  1  0  0  0
 23 24  2  0  0  0
 23 28  1  0  0  0
 24 25  1  0  0  0
 25 26  2  0  0  0
 26 27  1  0  0  0
 26  5  1  0  0  0
 27 28  2  0  0  0
  1  2  1  0  0  0
  1  5  1  0  0  0
  2  3  2  0  0  0
  3  4  1  0  0  0
  4  5  2  0  0  0
  4 12  1  0  0  0
  7  8  2  0  0  0
  7 12  1  0  0  0
  8  9  1  0  0  0
  9 10  2  0  0  0
  9 13  1  0  0  0
 10 11  1  0  0  0
 11 12  2  0  0  0
  1  6  1  0  0  0
M  END
> <minimizedAffinity>
-8.76830

$$$$
1PME_SB2_A_1001


 28 31  0  0  0  0  0  0  0  0999 V2000
  -11.2514   13.2308   39.8526 N   0  0  0  0  0  0  0  0  0  0  0  0
  -11.1411   13.9796   40.9265 C   0  0  0  0  0  0  0  0  0  0  0  0
  -12.2504   14.0183   41.6298 N   0  0  0  0  0  0  0  0  0  0  0  0
  -13.2750   13.4507   40.7869 C   0  0  0  0  0  0  0  0  0  0  0  0
  -12.6577   12.9560   39.6950 C   0  0  0  0  0  0  0  0  0  0  0  0
  -10.5199   12.9196   39.2717 H   0  0  0  0  0  0  0  0  0  0  0  0
  -15.5781   12.4867   40.9985 C   0  0  0  0  0  0  0  0  0  0  0  0
  -16.9192   12.6349   41.2617 C   0  0  0  0  0  0  0  0  0  0  0  0
  -17.3885   13.8566   41.6495 C   0  0  0  0  0  0  0  0  0  0  0  0
  -16.5420   14.9240   41.8193 C   0  0  0  0  0  0  0  0  0  0  0  0
  -15.2126   14.7617   41.5542 C   0  0  0  0  0  0  0  0  0  0  0  0
  -14.7069   13.5520   41.1288 C   0  0  0  0  0  0  0  0  0  0  0  0
  -18.6844   14.0562   41.5866 F   0  0  0  0  0  0  0  0  0  0  0  0
   -9.6035   14.9217   42.6869 C   0  0  0  0  0  0  0  0  0  0  0  0
   -8.4488   15.5992   43.0679 C   0  0  0  0  0  0  0  0  0  0  0  0
   -7.5957   16.1189   42.1161 C   0  0  0  0  0  0  0  0  0  0  0  0
   -7.9421   15.9839   40.7974 C   0  0  0  0  0  0  0  0  0  0  0  0
   -9.0673   15.2971   40.4089 C   0  0  0  0  0  0  0  0  0  0  0  0
   -9.9185   14.7490   41.3454 C   0  0  0  0  0  0  0  0  0  0  0  0
   -5.6971   16.5164   43.9417 O   0  0  0  0  0  0  0  0  0  0  0  0
   -5.0207   17.7645   41.5427 C   0  0  0  0  0  0  0  0  0  0  0  0
   -6.0792   16.8207   42.5339 S   0  0  0  0  0  0  0  0  0  0  0  0
  -14.2889   11.0115   36.2197 N   0  0  0  0  0  0  0  0  0  0  0  0
  -13.0993   10.6942   36.7321 C   0  0  0  0  0  0  0  0  0  0  0  0
  -12.5136   11.3017   37.8374 C   0  0  0  0  0  0  0  0  0  0  0  0
  -13.1965   12.3143   38.4797 C   0  0  0  0  0  0  0  0  0  0  0  0
  -14.4388   12.6650   37.9572 C   0  0  0  0  0  0  0  0  0  0  0  0
  -14.9331   11.9903   36.8385 C   0  0  0  0  0  0  0  0  0  0  0  0
 20 22  2  0  0  0
 21 22  1  0  0  0
 22 16  1  0  0  0
 14 15  2  0  0  0
 14 19  1  0  0  0
 15 16  1  0  0  0
 16 17  2  0  0  0
 17 18  1  0  0  0
 18 19  2  0  0  0
 19  2  1  0  0  0
 23 24  2  0  0  0
 23 28  1  0  0  0
 24 25  1  0  0  0
 25 26  2  0  0  0
 26 27  1  0  0  0
 26  5  1  0  0  0
 27 28  2  0  0  0
  1  2  1  0  0  0
  1  5  1  0  0  0
  2  3  2  0  0  0
  3  4  1  0  0  0
  4  5  2  0  0  0
  4 12  1  0  0  0
  7  8  2  0  0  0
  7 12  1  0  0  0
  8  9  1  0  0  0
  9 10  2  0  0  0
  9 13  1  0  0  0
 10 11  1  0  0  0
 11 12  2  0  0  0
  1  6  1  0  0  0
M  END
> <minimizedAffinity>
-8.44247

$$$$
1PME_SB2_A_1001


 28 31  0  0  0  0  0  0  0  0999 V2000
  -11.9846   14.3858   40.7448 N   0  0  0  0  0  0  0  0  0  0  0  0
  -10.7178   14.3024   40.4067 C   0  0  0  0  0  0  0  0  0  0  0  0
  -10.5149   13.4629   39.4162 N   0  0  0  0  0  0  0  0  0  0  0  0
  -11.7426   12.7191   39.2684 C   0  0  0  0  0  0  0  0  0  0  0  0
  -12.6523   13.2944   40.0806 C   0  0  0  0  0  0  0  0  0  0  0  0
  -12.3957   15.0590   41.3340 H   0  0  0  0  0  0  0  0  0  0  0  0
  -10.9989   10.4159   38.6196 C   0  0  0  0  0  0  0  0  0  0  0  0
  -11.0536    9.3331   37.7745 C   0  0  0  0  0  0  0  0  0  0  0  0
  -11.9309    9.3508   36.7289 C   0  0  0  0  0  0  0  0  0  0  0  0
  -12.7835   10.4087   36.5318 C   0  0  0  0  0  0  0  0  0  0  0  0
  -12.7176   11.4770   37.3794 C   0  0  0  0  0  0  0  0  0  0  0  0
  -11.8219   11.5097   38.4266 C   0  0  0  0  0  0  0  0  0  0  0  0
  -11.7490    8.4732   35.7698 F   0  0  0  0  0  0  0  0  0  0  0  0
   -9.4292   15.0569   42.4368 C   0  0  0  0  0  0  0  0  0  0  0  0
   -8.3507   15.7070   43.0299 C   0  0  0  0  0  0  0  0  0  0  0  0
   -7.4109   16.3545   42.2546 C   0  0  0  0  0  0  0  0  0  0  0  0
   -7.5964   16.3720   40.8972 C   0  0  0  0  0  0  0  0  0  0  0  0
   -8.6444   15.7143   40.2991 C   0  0  0  0  0  0  0  0  0  0  0  0
   -9.5795   15.0404   41.0562 C   0  0  0  0  0  0  0  0  0  0  0  0
   -5.5133   16.2673   44.1219 O   0  0  0  0  0  0  0  0  0  0  0  0
   -5.0789   18.4066   42.3884 C   0  0  0  0  0  0  0  0  0  0  0  0
   -5.9785   17.0316   42.9302 S   0  0  0  0  0  0  0  0  0  0  0  0
  -16.6977   12.2094   41.0688 N   0  0  0  0  0  0  0  0  0  0  0  0
  -15.8786   11.4019   40.3939 C   0  0  0  0  0  0  0  0  0  0  0  0
  -14.5720   11.7070   40.0286 C   0  0  0  0  0  0  0  0  0  0  0  0
  -14.0515   12.9348   40.3833 C   0  0  0  0  0  0  0  0  0  0  0  0
  -14.8924   13.7956   41.0842 C   0  0  0  0  0  0  0  0  0  0  0  0
  -16.1913   13.3890   41.3978 C   0  0  0  0  0  0  0  0  0  0  0  0
 20 22  2  0  0  0
 21 22  1  0  0  0
 22 16  1  0  0  0
 14 15  2  0  0  0
 14 19  1  0  0  0
 15 16  1  0  0  0
 16 17  2  0  0  0
 17 18  1  0  0  0
 18 19  2  0  0  0
 19  2  1  0  0  0
 23 24  2  0  0  0
 23 28  1  0  0  0
 24 25  1  0  0  0
 25 26  2  0  0  0
 26 27  1  0  0  0
 26  5  1  0  0  0
 27 28  2  0  0  0
  1  2  1  0  0  0
  1  5  1  0  0  0
  2  3  2  0  0  0
  3  4  1  0  0  0
  4  5  2  0  0  0
  4 12  1  0  0  0
  7  8  2  0  0  0
  7 12  1  0  0  0
  8  9  1  0  0  0
  9 10  2  0  0  0
  9 13  1  0  0  0
 10 11  1  0  0  0
 11 12  2  0  0  0
  1  6  1  0  0  0
M  END
> <minimizedAffinity>
-8.15805

$$$$
1PME_SB2_A_1001


 28 31  0  0  0  0  0  0  0  0999 V2000
  -11.1507   12.1222   39.0613 N   0  0  0  0  0  0  0  0  0  0  0  0
  -11.0395   12.9556   40.0709 C   0  0  0  0  0  0  0  0  0  0  0  0
  -12.1023   12.9554   40.8437 N   0  0  0  0  0  0  0  0  0  0  0  0
  -13.1240   12.2443   40.1136 C   0  0  0  0  0  0  0  0  0  0  0  0
  -12.5350   11.7219   39.0190 C   0  0  0  0  0  0  0  0  0  0  0  0
  -10.4324   11.8297   38.4549 H   0  0  0  0  0  0  0  0  0  0  0  0
  -15.3412   11.1323   40.4686 C   0  0  0  0  0  0  0  0  0  0  0  0
  -16.6700   11.1934   40.8152 C   0  0  0  0  0  0  0  0  0  0  0  0
  -17.1935   12.3834   41.2316 C   0  0  0  0  0  0  0  0  0  0  0  0
  -16.4099   13.5046   41.3482 C   0  0  0  0  0  0  0  0  0  0  0  0
  -15.0919   13.4287   41.0005 C   0  0  0  0  0  0  0  0  0  0  0  0
  -14.5354   12.2530   40.5443 C   0  0  0  0  0  0  0  0  0  0  0  0
  -18.5011   12.4974   41.2497 F   0  0  0  0  0  0  0  0  0  0  0  0
   -8.9350   14.1477   39.3631 C   0  0  0  0  0  0  0  0  0  0  0  0
   -7.8727   15.0105   39.6172 C   0  0  0  0  0  0  0  0  0  0  0  0
   -7.7197   15.5851   40.8622 C   0  0  0  0  0  0  0  0  0  0  0  0
   -8.6155   15.2476   41.8424 C   0  0  0  0  0  0  0  0  0  0  0  0
   -9.6812   14.4152   41.5968 C   0  0  0  0  0  0  0  0  0  0  0  0
   -9.8646   13.8517   40.3515 C   0  0  0  0  0  0  0  0  0  0  0  0
   -5.7855   17.1662   39.9380 O   0  0  0  0  0  0  0  0  0  0  0  0
   -6.1213   17.5361   42.6804 C   0  0  0  0  0  0  0  0  0  0  0  0
   -6.5194   16.7798   41.1760 S   0  0  0  0  0  0  0  0  0  0  0  0
  -14.0685    9.5110   35.6605 N   0  0  0  0  0  0  0  0  0  0  0  0
  -14.5354   10.7107   36.0083 C   0  0  0  0  0  0  0  0  0  0  0  0
  -14.0944   11.4600   37.0935 C   0  0  0  0  0  0  0  0  0  0  0  0
  -13.0902   10.9493   37.8904 C   0  0  0  0  0  0  0  0  0  0  0  0
  -12.5921    9.6948   37.5479 C   0  0  0  0  0  0  0  0  0  0  0  0
  -13.1102    9.0257   36.4366 C   0  0  0  0  0  0  0  0  0  0  0  0
 20 22  2  0  0  0
 21 22  1  0  0  0
 22 16  1  0  0  0
 14 15  2  0  0  0
 14 19  1  0  0  0
 15 16  1  0  0  0
 16 17  2  0  0  0
 17 18  1  0  0  0
 18 19  2  0  0  0
 19  2  1  0  0  0
 23 24  2  0  0  0
 23 28  1  0  0  0
 24 25  1  0  0  0
 25 26  2  0  0  0
 26 27  1  0  0  0
 26  5  1  0  0  0
 27 28  2  0  0  0
  1  2  1  0  0  0
  1  5  1  0  0  0
  2  3  2  0  0  0
  3  4  1  0  0  0
  4  5  2  0  0  0
  4 12  1  0  0  0
  7  8  2  0  0  0
  7 12  1  0  0  0
  8  9  1  0  0  0
  9 10  2  0  0  0
  9 13  1  0  0  0
 10 11  1  0  0  0
 11 12  2  0  0  0
  1  6  1  0  0  0
M  END
> <minimizedAffinity>
-8.03359

$$$$
1PME_SB2_A_1001


 28 31  0  0  0  0  0  0  0  0999 V2000
  -14.1545   14.7135   41.5692 N   0  0  0  0  0  0  0  0  0  0  0  0
  -12.8883   15.0083   41.3792 C   0  0  0  0  0  0  0  0  0  0  0  0
  -12.3584   14.3355   40.3825 N   0  0  0  0  0  0  0  0  0  0  0  0
  -13.3049   13.2958   40.0576 C   0  0  0  0  0  0  0  0  0  0  0  0
  -14.4167   13.5344   40.7822 C   0  0  0  0  0  0  0  0  0  0  0  0
  -14.7958   15.2003   42.1356 H   0  0  0  0  0  0  0  0  0  0  0  0
  -13.3212   12.1567   37.8259 C   0  0  0  0  0  0  0  0  0  0  0  0
  -13.0369   11.0699   37.0336 C   0  0  0  0  0  0  0  0  0  0  0  0
  -12.3899   10.0001   37.5816 C   0  0  0  0  0  0  0  0  0  0  0  0
  -11.9846   10.0078   38.8932 C   0  0  0  0  0  0  0  0  0  0  0  0
  -12.2739   11.0943   39.6677 C   0  0  0  0  0  0  0  0  0  0  0  0
  -12.9547   12.1793   39.1585 C   0  0  0  0  0  0  0  0  0  0  0  0
  -12.4122    8.8706   36.9131 F   0  0  0  0  0  0  0  0  0  0  0  0
  -11.5299   15.6124   43.4141 C   0  0  0  0  0  0  0  0  0  0  0  0
  -10.7446   16.5022   44.1414 C   0  0  0  0  0  0  0  0  0  0  0  0
  -10.4979   17.7721   43.6616 C   0  0  0  0  0  0  0  0  0  0  0  0
  -11.0815   18.1383   42.4773 C   0  0  0  0  0  0  0  0  0  0  0  0
  -11.8396   17.2610   41.7395 C   0  0  0  0  0  0  0  0  0  0  0  0
  -12.0758   15.9794   42.1909 C   0  0  0  0  0  0  0  0  0  0  0  0
   -8.5712   18.1479   45.4621 O   0  0  0  0  0  0  0  0  0  0  0  0
   -9.1812   20.5422   44.1714 C   0  0  0  0  0  0  0  0  0  0  0  0
   -9.4044   18.8483   44.4442 S   0  0  0  0  0  0  0  0  0  0  0  0
  -18.0775   11.3194   41.2426 N   0  0  0  0  0  0  0  0  0  0  0  0
  -16.9530   10.7675   40.7851 C   0  0  0  0  0  0  0  0  0  0  0  0
  -15.7493   11.4375   40.5956 C   0  0  0  0  0  0  0  0  0  0  0  0
  -15.6806   12.7813   40.9015 C   0  0  0  0  0  0  0  0  0  0  0  0
  -16.8457   13.3787   41.3758 C   0  0  0  0  0  0  0  0  0  0  0  0
  -18.0035   12.6119   41.5258 C   0  0  0  0  0  0  0  0  0  0  0  0
 20 22  2  0  0  0
 21 22  1  0  0  0
 22 16  1  0  0  0
 14 15  2  0  0  0
 14 19  1  0  0  0
 15 16  1  0  0  0
 16 17  2  0  0  0
 17 18  1  0  0  0
 18 19  2  0  0  0
 19  2  1  0  0  0
 23 24  2  0  0  0
 23 28  1  0  0  0
 24 25  1  0  0  0
 25 26  2  0  0  0
 26 27  1  0  0  0
 26  5  1  0  0  0
 27 28  2  0  0  0
  1  2  1  0  0  0
  1  5  1  0  0  0
  2  3  2  0  0  0
  3  4  1  0  0  0
  4  5  2  0  0  0
  4 12  1  0  0  0
  7  8  2  0  0  0
  7 12  1  0  0  0
  8  9  1  0  0  0
  9 10  2  0  0  0
  9 13  1  0  0  0
 10 11  1  0  0  0
 11 12  2  0  0  0
  1  6  1  0  0  0
M  END
> <minimizedAffinity>
-7.82820

$$$$
1PME_SB2_A_1001


 28 31  0  0  0  0  0  0  0  0999 V2000
  -15.4777   13.1060   41.3026 N   0  0  0  0  0  0  0  0  0  0  0  0
  -14.2585   13.0856   40.8134 C   0  0  0  0  0  0  0  0  0  0  0  0
  -13.5000   14.0364   41.3110 N   0  0  0  0  0  0  0  0  0  0  0  0
  -14.3931   14.9380   41.9980 C   0  0  0  0  0  0  0  0  0  0  0  0
  -15.6111   14.3597   42.0017 C   0  0  0  0  0  0  0  0  0  0  0  0
  -16.1630   12.4052   41.2103 H   0  0  0  0  0  0  0  0  0  0  0  0
  -13.4503   16.4684   43.7438 C   0  0  0  0  0  0  0  0  0  0  0  0
  -13.1076   17.7284   44.1735 C   0  0  0  0  0  0  0  0  0  0  0  0
  -13.2712   18.7860   43.3262 C   0  0  0  0  0  0  0  0  0  0  0  0
  -13.7316   18.6082   42.0451 C   0  0  0  0  0  0  0  0  0  0  0  0
  -14.0677   17.3510   41.6325 C   0  0  0  0  0  0  0  0  0  0  0  0
  -13.9475   16.2631   42.4705 C   0  0  0  0  0  0  0  0  0  0  0  0
  -13.2442   19.9904   43.8476 F   0  0  0  0  0  0  0  0  0  0  0  0
  -13.4273   10.8111   40.1157 C   0  0  0  0  0  0  0  0  0  0  0  0
  -12.9836    9.9140   39.1484 C   0  0  0  0  0  0  0  0  0  0  0  0
  -12.8360   10.3150   37.8364 C   0  0  0  0  0  0  0  0  0  0  0  0
  -13.0978   11.6244   37.5294 C   0  0  0  0  0  0  0  0  0  0  0  0
  -13.5585   12.5130   38.4712 C   0  0  0  0  0  0  0  0  0  0  0  0
  -13.7362   12.1234   39.7821 C   0  0  0  0  0  0  0  0  0  0  0  0
  -10.9741    9.0614   36.4023 O   0  0  0  0  0  0  0  0  0  0  0  0
  -13.5233    8.2866   35.5825 C   0  0  0  0  0  0  0  0  0  0  0  0
  -12.4469    9.2038   36.5794 S   0  0  0  0  0  0  0  0  0  0  0  0
  -19.3989   15.8400   43.4089 N   0  0  0  0  0  0  0  0  0  0  0  0
  -18.2486   16.0914   44.0348 C   0  0  0  0  0  0  0  0  0  0  0  0
  -17.0004   15.6229   43.6393 C   0  0  0  0  0  0  0  0  0  0  0  0
  -16.9128   14.8360   42.5092 C   0  0  0  0  0  0  0  0  0  0  0  0
  -18.1036   14.5567   41.8434 C   0  0  0  0  0  0  0  0  0  0  0  0
  -19.3053   15.0769   42.3295 C   0  0  0  0  0  0  0  0  0  0  0  0
 20 22  2  0  0  0
 21 22  1  0  0  0
 22 16  1  0  0  0
 14 15  2  0  0  0
 14 19  1  0  0  0
 15 16  1  0  0  0
 16 17  2  0  0  0
 17 18  1  0  0  0
 18 19  2  0  0  0
 19  2  1  0  0  0
 23 24  2  0  0  0
 23 28  1  0  0  0
 24 25  1  0  0  0
 25 26  2  0  0  0
 26 27  1  0  0  0
 26  5  1  0  0  0
 27 28  2  0  0  0
  1  2  1  0  0  0
  1  5  1  0  0  0
  2  3  2  0  0  0
  3  4  1  0  0  0
  4  5  2  0  0  0
  4 12  1  0  0  0
  7  8  2  0  0  0
  7 12  1  0  0  0
  8  9  1  0  0  0
  9 10  2  0  0  0
  9 13  1  0  0  0
 10 11  1  0  0  0
 11 12  2  0  0  0
  1  6  1  0  0  0
M  END
> <minimizedAffinity>
-7.60392

$$$$
1PME_SB2_A_1001


 28 31  0  0  0  0  0  0  0  0999 V2000
  -10.5790   13.5285   39.3711 N   0  0  0  0  0  0  0  0  0  0  0  0
   -9.8443   14.5020   39.8597 C   0  0  0  0  0  0  0  0  0  0  0  0
  -10.3583   15.0218   40.9517 N   0  0  0  0  0  0  0  0  0  0  0  0
  -11.7063   14.5139   41.0368 C   0  0  0  0  0  0  0  0  0  0  0  0
  -11.8396   13.5856   40.0681 C   0  0  0  0  0  0  0  0  0  0  0  0
  -10.3204   12.8882   38.6695 H   0  0  0  0  0  0  0  0  0  0  0  0
  -12.4193   15.1981   43.3395 C   0  0  0  0  0  0  0  0  0  0  0  0
  -13.3801   15.6561   44.2093 C   0  0  0  0  0  0  0  0  0  0  0  0
  -14.6149   15.9784   43.7248 C   0  0  0  0  0  0  0  0  0  0  0  0
  -14.8993   15.8917   42.3845 C   0  0  0  0  0  0  0  0  0  0  0  0
  -13.9350   15.4352   41.5327 C   0  0  0  0  0  0  0  0  0  0  0  0
  -12.6871   15.0689   41.9895 C   0  0  0  0  0  0  0  0  0  0  0  0
  -15.5927   16.1036   44.5917 F   0  0  0  0  0  0  0  0  0  0  0  0
   -8.3515   16.3860   39.1026 C   0  0  0  0  0  0  0  0  0  0  0  0
   -7.1475   16.8648   38.5943 C   0  0  0  0  0  0  0  0  0  0  0  0
   -6.1402   15.9911   38.2398 C   0  0  0  0  0  0  0  0  0  0  0  0
   -6.3789   14.6476   38.3640 C   0  0  0  0  0  0  0  0  0  0  0  0
   -7.5547   14.1643   38.8861 C   0  0  0  0  0  0  0  0  0  0  0  0
   -8.5629   15.0236   39.2696 C   0  0  0  0  0  0  0  0  0  0  0  0
   -4.6638   17.6342   36.7512 O   0  0  0  0  0  0  0  0  0  0  0  0
   -3.0318   15.9987   38.3108 C   0  0  0  0  0  0  0  0  0  0  0  0
   -4.5799   16.5411   37.7606 S   0  0  0  0  0  0  0  0  0  0  0  0
  -15.1546   11.1564   38.7917 N   0  0  0  0  0  0  0  0  0  0  0  0
  -14.7141   12.2016   38.0905 C   0  0  0  0  0  0  0  0  0  0  0  0
  -13.6639   13.0333   38.4635 C   0  0  0  0  0  0  0  0  0  0  0  0
  -13.0018   12.7787   39.6471 C   0  0  0  0  0  0  0  0  0  0  0  0
  -13.4497   11.6946   40.3977 C   0  0  0  0  0  0  0  0  0  0  0  0
  -14.5177   10.9251   39.9306 C   0  0  0  0  0  0  0  0  0  0  0  0
 20 22  2  0  0  0
 21 22  1  0  0  0
 22 16  1  0  0  0
 14 15  2  0  0  0
 14 19  1  0  0  0
 15 16  1  0  0  0
 16 17  2  0  0  0
 17 18  1  0  0  0
 18 19  2  0  0  0
 19  2  1  0  0  0
 23 24  2  0  0  0
 23 28  1  0  0  0
 24 25  1  0  0  0
 25 26  2  0  0  0
 26 27  1  0  0  0
 26  5  1  0  0  0
 27 28  2  0  0  0
  1  2  1  0  0  0
  1  5  1  0  0  0
  2  3  2  0  0  0
  3  4  1  0  0  0
  4  5  2  0  0  0
  4 12  1  0  0  0
  7  8  2  0  0  0
  7 12  1  0  0  0
  8  9  1  0  0  0
  9 10  2  0  0  0
  9 13  1  0  0  0
 10 11  1  0  0  0
 11 12  2  0  0  0
  1  6  1  0  0  0
M  END
> <minimizedAffinity>
-7.52992

$$$$
1PME_SB2_A_1001


 28 31  0  0  0  0  0  0  0  0999 V2000
   -8.6544   15.3414   40.5577 N   0  0  0  0  0  0  0  0  0  0  0  0
   -9.3193   14.3587   39.9934 C   0  0  0  0  0  0  0  0  0  0  0  0
   -8.5839   13.6736   39.1468 N   0  0  0  0  0  0  0  0  0  0  0  0
   -7.3892   14.4551   38.9359 C   0  0  0  0  0  0  0  0  0  0  0  0
   -7.4276   15.4785   39.8129 C   0  0  0  0  0  0  0  0  0  0  0  0
   -8.9372   15.8769   41.3338 H   0  0  0  0  0  0  0  0  0  0  0  0
   -6.5142   14.7158   36.6024 C   0  0  0  0  0  0  0  0  0  0  0  0
   -5.6492   14.3479   35.5994 C   0  0  0  0  0  0  0  0  0  0  0  0
   -4.7067   13.3935   35.8526 C   0  0  0  0  0  0  0  0  0  0  0  0
   -4.5824   12.8271   37.0969 C   0  0  0  0  0  0  0  0  0  0  0  0
   -5.4485   13.2026   38.0832 C   0  0  0  0  0  0  0  0  0  0  0  0
   -6.4344   14.1389   37.8561 C   0  0  0  0  0  0  0  0  0  0  0  0
   -4.1151   12.8370   34.8213 F   0  0  0  0  0  0  0  0  0  0  0  0
  -11.4198   14.4322   41.3839 C   0  0  0  0  0  0  0  0  0  0  0  0
  -12.7690   14.1510   41.5787 C   0  0  0  0  0  0  0  0  0  0  0  0
  -13.4824   13.4493   40.6287 C   0  0  0  0  0  0  0  0  0  0  0  0
  -12.8139   13.0064   39.5178 C   0  0  0  0  0  0  0  0  0  0  0  0
  -11.4880   13.2979   39.3039 C   0  0  0  0  0  0  0  0  0  0  0  0
  -10.7653   14.0198   40.2304 C   0  0  0  0  0  0  0  0  0  0  0  0
  -15.6668   12.1528   39.8271 O   0  0  0  0  0  0  0  0  0  0  0  0
  -16.3106   14.0348   41.7801 C   0  0  0  0  0  0  0  0  0  0  0  0
  -15.1849   13.2188   40.7502 S   0  0  0  0  0  0  0  0  0  0  0  0
   -4.8315   18.8420   40.4957 N   0  0  0  0  0  0  0  0  0  0  0  0
   -5.7217   18.8076   39.5034 C   0  0  0  0  0  0  0  0  0  0  0  0
   -6.5696   17.7418   39.2223 C   0  0  0  0  0  0  0  0  0  0  0  0
   -6.5117   16.6174   40.0200 C   0  0  0  0  0  0  0  0  0  0  0  0
   -5.5846   16.6304   41.0591 C   0  0  0  0  0  0  0  0  0  0  0  0
   -4.7779   17.7544   41.2510 C   0  0  0  0  0  0  0  0  0  0  0  0
 20 22  2  0  0  0
 21 22  1  0  0  0
 22 16  1  0  0  0
 14 15  2  0  0  0
 14 19  1  0  0  0
 15 16  1  0  0  0
 16 17  2  0  0  0
 17 18  1  0  0  0
 18 19  2  0  0  0
 19  2  1  0  0  0
 23 24  2  0  0  0
 23 28  1  0  0  0
 24 25  1  0  0  0
 25 26  2  0  0  0
 26 27  1  0  0  0
 26  5  1  0  0  0
 27 28  2  0  0  0
  1  2  1  0  0  0
  1  5  1  0  0  0
  2  3  2  0  0  0
  3  4  1  0  0  0
  4  5  2  0  0  0
  4 12  1  0  0  0
  7  8  2  0  0  0
  7 12  1  0  0  0
  8  9  1  0  0  0
  9 10  2  0  0  0
  9 13  1  0  0  0
 10 11  1  0  0  0
 11 12  2  0  0  0
  1  6  1  0  0  0
M  END
> <minimizedAffinity>
-7.52894

$$$$
1PME_SB2_A_1001


 28 31  0  0  0  0  0  0  0  0999 V2000
  -11.5609   13.9794   40.4097 N   0  0  0  0  0  0  0  0  0  0  0  0
  -10.5731   14.8415   40.4939 C   0  0  0  0  0  0  0  0  0  0  0  0
  -10.8131   15.7995   41.3608 N   0  0  0  0  0  0  0  0  0  0  0  0
  -12.2167   15.7023   41.6816 C   0  0  0  0  0  0  0  0  0  0  0  0
  -12.6760   14.5743   41.1031 C   0  0  0  0  0  0  0  0  0  0  0  0
  -11.5431   13.1025   39.9625 H   0  0  0  0  0  0  0  0  0  0  0  0
  -13.0271   16.7549   43.8061 C   0  0  0  0  0  0  0  0  0  0  0  0
  -13.7460   17.7242   44.4644 C   0  0  0  0  0  0  0  0  0  0  0  0
  -14.3636   18.7010   43.7379 C   0  0  0  0  0  0  0  0  0  0  0  0
  -14.2460   18.7546   42.3712 C   0  0  0  0  0  0  0  0  0  0  0  0
  -13.5287   17.7851   41.7313 C   0  0  0  0  0  0  0  0  0  0  0  0
  -12.9186   16.7642   42.4281 C   0  0  0  0  0  0  0  0  0  0  0  0
  -15.2869   19.4130   44.3410 F   0  0  0  0  0  0  0  0  0  0  0  0
   -8.4970   13.6687   39.6784 C   0  0  0  0  0  0  0  0  0  0  0  0
   -7.3387   13.6252   38.9078 C   0  0  0  0  0  0  0  0  0  0  0  0
   -6.9592   14.7152   38.1517 C   0  0  0  0  0  0  0  0  0  0  0  0
   -7.7308   15.8455   38.2177 C   0  0  0  0  0  0  0  0  0  0  0  0
   -8.8887   15.8921   38.9567 C   0  0  0  0  0  0  0  0  0  0  0  0
   -9.2971   14.8037   39.6986 C   0  0  0  0  0  0  0  0  0  0  0  0
   -5.1860   16.0136   36.6467 O   0  0  0  0  0  0  0  0  0  0  0  0
   -4.7982   13.2598   36.4550 C   0  0  0  0  0  0  0  0  0  0  0  0
   -5.6276   14.6520   37.0612 S   0  0  0  0  0  0  0  0  0  0  0  0
  -16.5925   12.7937   41.0028 N   0  0  0  0  0  0  0  0  0  0  0  0
  -15.6756   12.5736   40.0598 C   0  0  0  0  0  0  0  0  0  0  0  0
  -14.4047   13.1371   40.0289 C   0  0  0  0  0  0  0  0  0  0  0  0
  -14.0317   13.9932   41.0447 C   0  0  0  0  0  0  0  0  0  0  0  0
  -14.9767   14.2411   42.0371 C   0  0  0  0  0  0  0  0  0  0  0  0
  -16.2277   13.6235   41.9695 C   0  0  0  0  0  0  0  0  0  0  0  0
 20 22  2  0  0  0
 21 22  1  0  0  0
 22 16  1  0  0  0
 14 15  2  0  0  0
 14 19  1  0  0  0
 15 16  1  0  0  0
 16 17  2  0  0  0
 17 18  1  0  0  0
 18 19  2  0  0  0
 19  2  1  0  0  0
 23 24  2  0  0  0
 23 28  1  0  0  0
 24 25  1  0  0  0
 25 26  2  0  0  0
 26 27  1  0  0  0
 26  5  1  0  0  0
 27 28  2  0  0  0
  1  2  1  0  0  0
  1  5  1  0  0  0
  2  3  2  0  0  0
  3  4  1  0  0  0
  4  5  2  0  0  0
  4 12  1  0  0  0
  7  8  2  0  0  0
  7 12  1  0  0  0
  8  9  1  0  0  0
  9 10  2  0  0  0
  9 13  1  0  0  0
 10 11  1  0  0  0
 11 12  2  0  0  0
  1  6  1  0  0  0
M  END
> <minimizedAffinity>
-7.40043

$$$$
