1DMP_DMQ_B_450


 46 50  0  0  0  0  0  0  0  0999 V2000
   -8.7582   15.4628   27.5653 C   0  0  0  0  0  0  0  0  0  0  0  0
   -8.0657   14.4683   27.6539 O   0  0  0  0  0  0  0  0  0  0  0  0
   -9.6576   15.6127   28.5465 N   0  0  0  0  0  0  0  0  0  0  0  0
  -10.8799   16.4513   28.3786 C   0  0  0  0  0  0  0  0  0  0  0  0
  -10.7075   17.9304   28.2132 C   0  0  0  0  0  0  0  0  0  0  0  0
  -11.9904   18.4251   28.4373 O   0  0  0  0  0  0  0  0  0  0  0  0
  -10.1553   18.3602   26.8758 C   0  0  0  0  0  0  0  0  0  0  0  0
  -10.0469   19.7359   26.9315 O   0  0  0  0  0  0  0  0  0  0  0  0
   -8.7716   17.8179   26.5691 C   0  0  0  0  0  0  0  0  0  0  0  0
   -8.6142   16.3250   26.5064 N   0  0  0  0  0  0  0  0  0  0  0  0
  -12.6031   18.0388   27.7922 H   0  0  0  0  0  0  0  0  0  0  0  0
   -9.4370   19.9836   27.6440 H   0  0  0  0  0  0  0  0  0  0  0  0
   -9.4975   14.7532   29.7640 C   0  0  0  0  0  0  0  0  0  0  0  0
   -9.3117   15.5014   31.0470 C   0  0  0  0  0  0  0  0  0  0  0  0
   -8.3242   16.4968   31.1368 C   0  0  0  0  0  0  0  0  0  0  0  0
   -8.1271   17.2535   32.3044 C   0  0  0  0  0  0  0  0  0  0  0  0
   -8.9595   17.0063   33.3996 C   0  0  0  0  0  0  0  0  0  0  0  0
   -9.9719   16.0181   33.3190 C   0  0  0  0  0  0  0  0  0  0  0  0
  -10.9169   15.9312   34.3770 N   0  0  0  0  0  0  0  0  0  0  0  0
  -10.1363   15.2475   32.1486 C   0  0  0  0  0  0  0  0  0  0  0  0
  -10.7958   16.4719   35.1907 H   0  0  0  0  0  0  0  0  0  0  0  0
  -11.6926   15.3304   34.2961 H   0  0  0  0  0  0  0  0  0  0  0  0
   -8.0331   15.7978   25.2434 C   0  0  0  0  0  0  0  0  0  0  0  0
   -8.5327   16.3327   23.9189 C   0  0  0  0  0  0  0  0  0  0  0  0
   -7.6593   17.0959   23.1117 C   0  0  0  0  0  0  0  0  0  0  0  0
   -8.0586   17.5050   21.8261 C   0  0  0  0  0  0  0  0  0  0  0  0
   -7.1668   18.2421   20.9871 N   0  0  0  0  0  0  0  0  0  0  0  0
   -9.3426   17.1650   21.3545 C   0  0  0  0  0  0  0  0  0  0  0  0
  -10.2388   16.4172   22.1658 C   0  0  0  0  0  0  0  0  0  0  0  0
   -9.8259   15.9991   23.4473 C   0  0  0  0  0  0  0  0  0  0  0  0
   -6.2692   18.4814   21.3130 H   0  0  0  0  0  0  0  0  0  0  0  0
   -7.4501   18.5106   20.0833 H   0  0  0  0  0  0  0  0  0  0  0  0
  -11.8636   15.7666   27.4115 C   0  0  0  0  0  0  0  0  0  0  0  0
  -12.4252   14.5276   28.0943 C   0  0  0  0  0  0  0  0  0  0  0  0
  -12.0954   13.2304   27.6286 C   0  0  0  0  0  0  0  0  0  0  0  0
  -12.5919   12.0937   28.2779 C   0  0  0  0  0  0  0  0  0  0  0  0
  -13.4094   12.2533   29.4083 C   0  0  0  0  0  0  0  0  0  0  0  0
  -13.7480   13.5350   29.9007 C   0  0  0  0  0  0  0  0  0  0  0  0
  -13.2579   14.6771   29.2354 C   0  0  0  0  0  0  0  0  0  0  0  0
   -7.5764   18.4274   27.3895 C   0  0  0  0  0  0  0  0  0  0  0  0
   -6.2233   18.3446   26.6854 C   0  0  0  0  0  0  0  0  0  0  0  0
   -5.9404   19.1913   25.5940 C   0  0  0  0  0  0  0  0  0  0  0  0
   -4.7368   19.0584   24.8804 C   0  0  0  0  0  0  0  0  0  0  0  0
   -3.8043   18.0747   25.2667 C   0  0  0  0  0  0  0  0  0  0  0  0
   -4.0572   17.2221   26.3666 C   0  0  0  0  0  0  0  0  0  0  0  0
   -5.2710   17.3639   27.0748 C   0  0  0  0  0  0  0  0  0  0  0  0
  1  2  2  0  0  0
  1  3  1  0  0  0
  1 10  1  0  0  0
  3 13  1  0  0  0
  3  4  1  0  0  0
 13 14  1  0  0  0
  4  5  1  0  0  0
  4 33  1  0  0  0
  5  6  1  0  0  0
  5  7  1  0  0  0
  7  8  1  0  0  0
  7  9  1  0  0  0
  9 10  1  0  0  0
  9 40  1  0  0  0
 23 10  1  0  0  0
 23 24  1  0  0  0
 14 15  2  0  0  0
 14 20  1  0  0  0
 15 16  1  0  0  0
 16 17  2  0  0  0
 17 18  1  0  0  0
 18 19  1  0  0  0
 18 20  2  0  0  0
 33 34  1  0  0  0
 34 35  2  0  0  0
 34 39  1  0  0  0
 35 36  1  0  0  0
 36 37  2  0  0  0
 37 38  1  0  0  0
 38 39  2  0  0  0
 40 41  1  0  0  0
 41 42  2  0  0  0
 41 46  1  0  0  0
 42 43  1  0  0  0
 43 44  2  0  0  0
 44 45  1  0  0  0
 45 46  2  0  0  0
 24 25  2  0  0  0
 24 30  1  0  0  0
 25 26  1  0  0  0
 26 27  1  0  0  0
 26 28  2  0  0  0
 28 29  1  0  0  0
 29 30  2  0  0  0
  6 11  1  0  0  0
  8 12  1  0  0  0
 19 21  1  0  0  0
 19 22  1  0  0  0
 27 31  1  0  0  0
 27 32  1  0  0  0
M  END
> <minimizedAffinity>
-13.79903

$$$$
1DMP_DMQ_B_450


 46 50  0  0  0  0  0  0  0  0999 V2000
   -8.7688   15.3284   27.5937 C   0  0  0  0  0  0  0  0  0  0  0  0
   -8.2165   14.2496   27.5071 O   0  0  0  0  0  0  0  0  0  0  0  0
   -8.5507   16.1577   26.5646 N   0  0  0  0  0  0  0  0  0  0  0  0
   -8.7148   17.6351   26.6901 C   0  0  0  0  0  0  0  0  0  0  0  0
  -10.0908   18.1778   26.9288 C   0  0  0  0  0  0  0  0  0  0  0  0
   -9.9491   19.5343   26.6449 O   0  0  0  0  0  0  0  0  0  0  0  0
  -10.6365   17.9386   28.3155 C   0  0  0  0  0  0  0  0  0  0  0  0
  -11.9064   18.4816   28.3253 O   0  0  0  0  0  0  0  0  0  0  0  0
  -10.7773   16.4738   28.6861 C   0  0  0  0  0  0  0  0  0  0  0  0
   -9.5265   15.6414   28.6952 N   0  0  0  0  0  0  0  0  0  0  0  0
   -9.2807   19.9196   27.2328 H   0  0  0  0  0  0  0  0  0  0  0  0
  -12.4555   18.0319   27.6641 H   0  0  0  0  0  0  0  0  0  0  0  0
   -7.9469   15.5714   25.3244 C   0  0  0  0  0  0  0  0  0  0  0  0
   -8.5778   16.0162   24.0420 C   0  0  0  0  0  0  0  0  0  0  0  0
   -9.9468   15.7888   23.8229 C   0  0  0  0  0  0  0  0  0  0  0  0
  -10.5992   16.2138   22.6530 C   0  0  0  0  0  0  0  0  0  0  0  0
   -9.8506   16.8979   21.6912 C   0  0  0  0  0  0  0  0  0  0  0  0
   -8.4728   17.1510   21.9051 C   0  0  0  0  0  0  0  0  0  0  0  0
   -7.7957   18.0125   21.0000 N   0  0  0  0  0  0  0  0  0  0  0  0
   -7.8276   16.6910   23.0726 C   0  0  0  0  0  0  0  0  0  0  0  0
   -8.2522   18.3295   20.1874 H   0  0  0  0  0  0  0  0  0  0  0  0
   -6.8703   18.2922   21.1857 H   0  0  0  0  0  0  0  0  0  0  0  0
   -9.2448   14.9280   29.9690 C   0  0  0  0  0  0  0  0  0  0  0  0
   -9.2803   15.6973   31.2717 C   0  0  0  0  0  0  0  0  0  0  0  0
  -10.1930   15.3058   32.2772 C   0  0  0  0  0  0  0  0  0  0  0  0
  -10.1662   15.9273   33.5392 C   0  0  0  0  0  0  0  0  0  0  0  0
  -11.0580   15.5099   34.5750 N   0  0  0  0  0  0  0  0  0  0  0  0
   -9.2358   16.9561   33.7893 C   0  0  0  0  0  0  0  0  0  0  0  0
   -8.3280   17.3745   32.7788 C   0  0  0  0  0  0  0  0  0  0  0  0
   -8.3518   16.7372   31.5214 C   0  0  0  0  0  0  0  0  0  0  0  0
  -11.7092   14.7916   34.4041 H   0  0  0  0  0  0  0  0  0  0  0  0
  -11.0211   15.9406   35.4595 H   0  0  0  0  0  0  0  0  0  0  0  0
   -7.5893   18.2210   27.5629 C   0  0  0  0  0  0  0  0  0  0  0  0
   -6.2965   18.1978   26.7598 C   0  0  0  0  0  0  0  0  0  0  0  0
   -5.2342   17.3318   27.1201 C   0  0  0  0  0  0  0  0  0  0  0  0
   -4.0584   17.2939   26.3611 C   0  0  0  0  0  0  0  0  0  0  0  0
   -3.9492   18.1140   25.2265 C   0  0  0  0  0  0  0  0  0  0  0  0
   -4.9962   18.9815   24.8381 C   0  0  0  0  0  0  0  0  0  0  0  0
   -6.1727   19.0273   25.6133 C   0  0  0  0  0  0  0  0  0  0  0  0
  -11.9244   15.6711   27.9699 C   0  0  0  0  0  0  0  0  0  0  0  0
  -12.3080   14.3662   28.6653 C   0  0  0  0  0  0  0  0  0  0  0  0
  -12.0784   13.1302   28.0270 C   0  0  0  0  0  0  0  0  0  0  0  0
  -12.5133   11.9305   28.6164 C   0  0  0  0  0  0  0  0  0  0  0  0
  -13.1772   11.9671   29.8593 C   0  0  0  0  0  0  0  0  0  0  0  0
  -13.4074   13.1924   30.5273 C   0  0  0  0  0  0  0  0  0  0  0  0
  -12.9673   14.3914   29.9242 C   0  0  0  0  0  0  0  0  0  0  0  0
  1  2  2  0  0  0
  1  3  1  0  0  0
  1 10  1  0  0  0
  3 13  1  0  0  0
  3  4  1  0  0  0
 13 14  1  0  0  0
  4  5  1  0  0  0
  4 33  1  0  0  0
  5  6  1  0  0  0
  5  7  1  0  0  0
  7  8  1  0  0  0
  7  9  1  0  0  0
  9 10  1  0  0  0
  9 40  1  0  0  0
 23 10  1  0  0  0
 23 24  1  0  0  0
 14 15  2  0  0  0
 14 20  1  0  0  0
 15 16  1  0  0  0
 16 17  2  0  0  0
 17 18  1  0  0  0
 18 19  1  0  0  0
 18 20  2  0  0  0
 33 34  1  0  0  0
 34 35  2  0  0  0
 34 39  1  0  0  0
 35 36  1  0  0  0
 36 37  2  0  0  0
 37 38  1  0  0  0
 38 39  2  0  0  0
 40 41  1  0  0  0
 41 42  2  0  0  0
 41 46  1  0  0  0
 42 43  1  0  0  0
 43 44  2  0  0  0
 44 45  1  0  0  0
 45 46  2  0  0  0
 24 25  2  0  0  0
 24 30  1  0  0  0
 25 26  1  0  0  0
 26 27  1  0  0  0
 26 28  2  0  0  0
 28 29  1  0  0  0
 29 30  2  0  0  0
  6 11  1  0  0  0
  8 12  1  0  0  0
 19 21  1  0  0  0
 19 22  1  0  0  0
 27 31  1  0  0  0
 27 32  1  0  0  0
M  END
> <minimizedAffinity>
-13.40498

$$$$
