1PZP_FTA_A_300


 26 28  0  0  0  0  0  0  0  0999 V2000
    1.8037   11.7278   20.0844 C   0  0  0  0  0  0  0  0  0  0  0  0
    3.0659   12.1436   20.5003 C   0  0  0  0  0  0  0  0  0  0  0  0
    3.7189   13.2385   19.9181 C   0  0  0  0  0  0  0  0  0  0  0  0
    1.1774   12.4461   19.0814 C   0  0  0  0  0  0  0  0  0  0  0  0
    1.8136   13.5262   18.4822 C   0  0  0  0  0  0  0  0  0  0  0  0
    3.0856   13.9354   18.8922 C   0  0  0  0  0  0  0  0  0  0  0  0
    1.2168   10.5082   20.5082 N   0  0  0  0  0  0  0  0  0  0  0  0
    0.3277   10.2859   20.1486 H   0  0  0  0  0  0  0  0  0  0  0  0
    1.8090    9.5763   21.4134 C   0  0  0  0  0  0  0  0  0  0  0  0
    1.5083    9.5845   22.7549 C   0  0  0  0  0  0  0  0  0  0  0  0
    2.2409    8.7755   23.6026 C   0  0  0  0  0  0  0  0  0  0  0  0
    3.2431    7.9361   23.1465 C   0  0  0  0  0  0  0  0  0  0  0  0
    3.5262    7.8907   21.8075 C   0  0  0  0  0  0  0  0  0  0  0  0
    2.7885    8.7115   20.9470 C   0  0  0  0  0  0  0  0  0  0  0  0
    3.7655   14.9026   18.1027 N   0  0  0  0  0  0  0  0  0  0  0  0
    4.6229   14.6378   17.6979 H   0  0  0  0  0  0  0  0  0  0  0  0
    3.3259   16.1537   17.8662 C   0  0  0  0  0  0  0  0  0  0  0  0
    4.0748   17.1963   18.2772 C   0  0  0  0  0  0  0  0  0  0  0  0
    4.5031   17.2719   19.6928 C   0  0  0  0  0  0  0  0  0  0  0  0
    4.1539   18.2648   20.6057 N   0  0  0  0  0  0  0  0  0  0  0  0
    4.8039   17.9817   21.7998 N   0  0  0  0  0  0  0  0  0  0  0  0
    5.5571   16.8270   21.6455 N   0  0  0  0  0  0  0  0  0  0  0  0
    5.3633   16.3791   20.3428 N   0  0  0  0  0  0  0  0  0  0  0  0
    4.7404   18.5156   22.6245 H   0  0  0  0  0  0  0  0  0  0  0  0
    4.4431   18.2397   17.3447 C   0  0  0  0  0  0  0  0  0  0  0  0
    4.8844   19.0894   16.6680 N   0  0  0  0  0  0  0  0  0  0  0  0
  7  9  1  0  0  0
  7  1  1  0  0  0
  9 10  2  0  0  0
  9 14  1  0  0  0
 10 11  1  0  0  0
 11 12  2  0  0  0
 12 13  1  0  0  0
 13 14  2  0  0  0
  1  2  2  0  0  0
  1  4  1  0  0  0
  2  3  1  0  0  0
  3  6  2  0  0  0
  4  5  2  0  0  0
  5  6  1  0  0  0
  6 15  1  0  0  0
 15 17  1  0  0  0
 17 18  2  0  0  0
 18 25  1  0  0  0
 18 19  1  0  0  0
 25 26  3  0  0  0
 19 20  2  0  0  0
 19 23  1  0  0  0
 20 21  1  0  0  0
 21 22  1  0  0  0
 22 23  2  0  0  0
  7  8  1  0  0  0
 15 16  1  0  0  0
 21 24  1  0  0  0
M  END
> <minimizedAffinity>
-7.39568

$$$$
1PZP_FTA_A_300


 26 28  0  0  0  0  0  0  0  0999 V2000
    2.3196   12.5685   19.6572 C   0  0  0  0  0  0  0  0  0  0  0  0
    1.0139   12.4748   19.1827 C   0  0  0  0  0  0  0  0  0  0  0  0
    0.5247   13.3187   18.1763 C   0  0  0  0  0  0  0  0  0  0  0  0
    3.1551   13.5127   19.0876 C   0  0  0  0  0  0  0  0  0  0  0  0
    2.6854   14.3677   18.0983 C   0  0  0  0  0  0  0  0  0  0  0  0
    1.3710   14.2808   17.6309 C   0  0  0  0  0  0  0  0  0  0  0  0
    2.7715   11.8747   20.8088 N   0  0  0  0  0  0  0  0  0  0  0  0
    3.3220   12.3774   21.4519 H   0  0  0  0  0  0  0  0  0  0  0  0
    2.4940   10.5074   21.1122 C   0  0  0  0  0  0  0  0  0  0  0  0
    1.4767   10.1510   21.9655 C   0  0  0  0  0  0  0  0  0  0  0  0
    1.3698    8.8286   22.3525 C   0  0  0  0  0  0  0  0  0  0  0  0
    2.2288    7.8470   21.8884 C   0  0  0  0  0  0  0  0  0  0  0  0
    3.2227    8.1828   21.0082 C   0  0  0  0  0  0  0  0  0  0  0  0
    3.3357    9.5218   20.6173 C   0  0  0  0  0  0  0  0  0  0  0  0
    0.8926   15.3140   16.7797 N   0  0  0  0  0  0  0  0  0  0  0  0
   -0.0818   15.4433   16.7248 H   0  0  0  0  0  0  0  0  0  0  0  0
    1.6708   16.1296   16.0424 C   0  0  0  0  0  0  0  0  0  0  0  0
    1.1992   16.5950   14.8687 C   0  0  0  0  0  0  0  0  0  0  0  0
    0.6920   15.6396   13.8574 C   0  0  0  0  0  0  0  0  0  0  0  0
   -0.0309   14.4766   14.1146 N   0  0  0  0  0  0  0  0  0  0  0  0
   -0.2668   13.8533   12.8962 N   0  0  0  0  0  0  0  0  0  0  0  0
    0.3009   14.6090   11.8808 N   0  0  0  0  0  0  0  0  0  0  0  0
    0.8867   15.7229   12.4737 N   0  0  0  0  0  0  0  0  0  0  0  0
   -0.7587   13.0095   12.7728 H   0  0  0  0  0  0  0  0  0  0  0  0
    1.2037   18.0161   14.5951 C   0  0  0  0  0  0  0  0  0  0  0  0
    1.1346   19.1840   14.5187 N   0  0  0  0  0  0  0  0  0  0  0  0
  7  9  1  0  0  0
  7  1  1  0  0  0
  9 10  2  0  0  0
  9 14  1  0  0  0
 10 11  1  0  0  0
 11 12  2  0  0  0
 12 13  1  0  0  0
 13 14  2  0  0  0
  1  2  2  0  0  0
  1  4  1  0  0  0
  2  3  1  0  0  0
  3  6  2  0  0  0
  4  5  2  0  0  0
  5  6  1  0  0  0
  6 15  1  0  0  0
 15 17  1  0  0  0
 17 18  2  0  0  0
 18 25  1  0  0  0
 18 19  1  0  0  0
 25 26  3  0  0  0
 19 20  2  0  0  0
 19 23  1  0  0  0
 20 21  1  0  0  0
 21 22  1  0  0  0
 22 23  2  0  0  0
  7  8  1  0  0  0
 15 16  1  0  0  0
 21 24  1  0  0  0
M  END
> <minimizedAffinity>
-7.22095

$$$$
1PZP_FTA_A_300


 26 28  0  0  0  0  0  0  0  0999 V2000
    1.6686   12.6935   20.3780 C   0  0  0  0  0  0  0  0  0  0  0  0
    2.9387   13.2583   20.4602 C   0  0  0  0  0  0  0  0  0  0  0  0
    3.4723   14.0448   19.4301 C   0  0  0  0  0  0  0  0  0  0  0  0
    0.9125   12.9487   19.2477 C   0  0  0  0  0  0  0  0  0  0  0  0
    1.4285   13.7146   18.2098 C   0  0  0  0  0  0  0  0  0  0  0  0
    2.7082   14.2713   18.2881 C   0  0  0  0  0  0  0  0  0  0  0  0
    1.1929   11.7310   21.3048 N   0  0  0  0  0  0  0  0  0  0  0  0
    0.4250   11.9853   21.8659 H   0  0  0  0  0  0  0  0  0  0  0  0
    1.7360   10.4237   21.4910 C   0  0  0  0  0  0  0  0  0  0  0  0
    2.6815    9.9080   20.6366 C   0  0  0  0  0  0  0  0  0  0  0  0
    3.0384    8.5794   20.7681 C   0  0  0  0  0  0  0  0  0  0  0  0
    2.5026    7.7596   21.7468 C   0  0  0  0  0  0  0  0  0  0  0  0
    1.5881    8.2718   22.6281 C   0  0  0  0  0  0  0  0  0  0  0  0
    1.2220    9.6159   22.4950 C   0  0  0  0  0  0  0  0  0  0  0  0
    3.2564   14.8591   17.1155 N   0  0  0  0  0  0  0  0  0  0  0  0
    3.6119   14.2525   16.4263 H   0  0  0  0  0  0  0  0  0  0  0  0
    3.3264   16.1826   16.8753 C   0  0  0  0  0  0  0  0  0  0  0  0
    2.2309   16.8210   16.4182 C   0  0  0  0  0  0  0  0  0  0  0  0
    1.5446   16.3140   15.2079 C   0  0  0  0  0  0  0  0  0  0  0  0
    0.6521   15.2454   15.1554 N   0  0  0  0  0  0  0  0  0  0  0  0
    0.2805   15.0763   13.8281 N   0  0  0  0  0  0  0  0  0  0  0  0
    0.9302   16.0227   13.0493 N   0  0  0  0  0  0  0  0  0  0  0  0
    1.7063   16.7983   13.9045 N   0  0  0  0  0  0  0  0  0  0  0  0
   -0.3447   14.3934   13.4932 H   0  0  0  0  0  0  0  0  0  0  0  0
    1.7401   18.0008   17.0974 C   0  0  0  0  0  0  0  0  0  0  0  0
    1.2315   18.8579   17.7150 N   0  0  0  0  0  0  0  0  0  0  0  0
  7  9  1  0  0  0
  7  1  1  0  0  0
  9 10  2  0  0  0
  9 14  1  0  0  0
 10 11  1  0  0  0
 11 12  2  0  0  0
 12 13  1  0  0  0
 13 14  2  0  0  0
  1  2  2  0  0  0
  1  4  1  0  0  0
  2  3  1  0  0  0
  3  6  2  0  0  0
  4  5  2  0  0  0
  5  6  1  0  0  0
  6 15  1  0  0  0
 15 17  1  0  0  0
 17 18  2  0  0  0
 18 25  1  0  0  0
 18 19  1  0  0  0
 25 26  3  0  0  0
 19 20  2  0  0  0
 19 23  1  0  0  0
 20 21  1  0  0  0
 21 22  1  0  0  0
 22 23  2  0  0  0
  7  8  1  0  0  0
 15 16  1  0  0  0
 21 24  1  0  0  0
M  END
> <minimizedAffinity>
-7.15375

$$$$
1PZP_FTA_A_300


 26 28  0  0  0  0  0  0  0  0999 V2000
    1.5497   12.3812   19.5883 C   0  0  0  0  0  0  0  0  0  0  0  0
    2.8478   12.8429   19.7897 C   0  0  0  0  0  0  0  0  0  0  0  0
    3.4165   13.8409   18.9868 C   0  0  0  0  0  0  0  0  0  0  0  0
    0.8023   12.9556   18.5755 C   0  0  0  0  0  0  0  0  0  0  0  0
    1.3523   13.9367   17.7600 C   0  0  0  0  0  0  0  0  0  0  0  0
    2.6596   14.3911   17.9554 C   0  0  0  0  0  0  0  0  0  0  0  0
    1.0292   11.2370   20.2451 N   0  0  0  0  0  0  0  0  0  0  0  0
    0.0616   11.0728   20.1677 H   0  0  0  0  0  0  0  0  0  0  0  0
    1.7929   10.3036   21.0095 C   0  0  0  0  0  0  0  0  0  0  0  0
    2.7921    9.5516   20.4384 C   0  0  0  0  0  0  0  0  0  0  0  0
    3.3748    8.5468   21.1872 C   0  0  0  0  0  0  0  0  0  0  0  0
    3.0113    8.2915   22.4986 C   0  0  0  0  0  0  0  0  0  0  0  0
    2.0439    9.0587   23.0910 C   0  0  0  0  0  0  0  0  0  0  0  0
    1.4494   10.0745   22.3340 C   0  0  0  0  0  0  0  0  0  0  0  0
    3.2318   15.2334   16.9634 N   0  0  0  0  0  0  0  0  0  0  0  0
    3.1287   14.9628   16.0225 H   0  0  0  0  0  0  0  0  0  0  0  0
    3.9042   16.3736   17.2126 C   0  0  0  0  0  0  0  0  0  0  0  0
    3.2824   17.3638   17.8832 C   0  0  0  0  0  0  0  0  0  0  0  0
    1.9766   17.8646   17.3964 C   0  0  0  0  0  0  0  0  0  0  0  0
    1.2239   17.3230   16.3566 N   0  0  0  0  0  0  0  0  0  0  0  0
    0.0975   18.1194   16.1974 N   0  0  0  0  0  0  0  0  0  0  0  0
    0.1365   19.1532   17.1215 N   0  0  0  0  0  0  0  0  0  0  0  0
    1.2956   18.9908   17.8734 N   0  0  0  0  0  0  0  0  0  0  0  0
   -0.6154   17.9735   15.5342 H   0  0  0  0  0  0  0  0  0  0  0  0
    3.8950   17.9416   19.0601 C   0  0  0  0  0  0  0  0  0  0  0  0
    4.5270   18.4208   19.9236 N   0  0  0  0  0  0  0  0  0  0  0  0
  7  9  1  0  0  0
  7  1  1  0  0  0
  9 10  2  0  0  0
  9 14  1  0  0  0
 10 11  1  0  0  0
 11 12  2  0  0  0
 12 13  1  0  0  0
 13 14  2  0  0  0
  1  2  2  0  0  0
  1  4  1  0  0  0
  2  3  1  0  0  0
  3  6  2  0  0  0
  4  5  2  0  0  0
  5  6  1  0  0  0
  6 15  1  0  0  0
 15 17  1  0  0  0
 17 18  2  0  0  0
 18 25  1  0  0  0
 18 19  1  0  0  0
 25 26  3  0  0  0
 19 20  2  0  0  0
 19 23  1  0  0  0
 20 21  1  0  0  0
 21 22  1  0  0  0
 22 23  2  0  0  0
  7  8  1  0  0  0
 15 16  1  0  0  0
 21 24  1  0  0  0
M  END
> <minimizedAffinity>
-7.12157

$$$$
1PZP_FTA_A_300


 26 28  0  0  0  0  0  0  0  0999 V2000
    1.8483   11.5446   19.9885 C   0  0  0  0  0  0  0  0  0  0  0  0
    2.9976   12.1923   20.4343 C   0  0  0  0  0  0  0  0  0  0  0  0
    3.3960   13.4364   19.9267 C   0  0  0  0  0  0  0  0  0  0  0  0
    1.0724   12.1759   19.0326 C   0  0  0  0  0  0  0  0  0  0  0  0
    1.4572   13.4031   18.5070 C   0  0  0  0  0  0  0  0  0  0  0  0
    2.6174   14.0468   18.9466 C   0  0  0  0  0  0  0  0  0  0  0  0
    1.5393   10.2032   20.3300 N   0  0  0  0  0  0  0  0  0  0  0  0
    0.8369    9.7541   19.8064 H   0  0  0  0  0  0  0  0  0  0  0  0
    2.1630    9.4504   21.3707 C   0  0  0  0  0  0  0  0  0  0  0  0
    3.2023    8.5883   21.1125 C   0  0  0  0  0  0  0  0  0  0  0  0
    3.6462    7.7634   22.1286 C   0  0  0  0  0  0  0  0  0  0  0  0
    3.1044    7.7961   23.4023 C   0  0  0  0  0  0  0  0  0  0  0  0
    2.0943    8.6774   23.6822 C   0  0  0  0  0  0  0  0  0  0  0  0
    1.6402    9.5114   22.6543 C   0  0  0  0  0  0  0  0  0  0  0  0
    3.0669   15.1855   18.2239 N   0  0  0  0  0  0  0  0  0  0  0  0
    3.2130   16.0170   18.7304 H   0  0  0  0  0  0  0  0  0  0  0  0
    3.3081   15.2137   16.8990 C   0  0  0  0  0  0  0  0  0  0  0  0
    3.2841   16.3987   16.2571 C   0  0  0  0  0  0  0  0  0  0  0  0
    2.0937   17.2706   16.3823 C   0  0  0  0  0  0  0  0  0  0  0  0
    1.7089   17.9787   17.5189 N   0  0  0  0  0  0  0  0  0  0  0  0
    0.5172   18.6276   17.2232 N   0  0  0  0  0  0  0  0  0  0  0  0
    0.1499   18.3330   15.9184 N   0  0  0  0  0  0  0  0  0  0  0  0
    1.1319   17.5003   15.3915 N   0  0  0  0  0  0  0  0  0  0  0  0
    0.0132   19.2048   17.8413 H   0  0  0  0  0  0  0  0  0  0  0  0
    4.4071   16.8065   15.4406 C   0  0  0  0  0  0  0  0  0  0  0  0
    5.2960   16.9958   14.7000 N   0  0  0  0  0  0  0  0  0  0  0  0
  7  9  1  0  0  0
  7  1  1  0  0  0
  9 10  2  0  0  0
  9 14  1  0  0  0
 10 11  1  0  0  0
 11 12  2  0  0  0
 12 13  1  0  0  0
 13 14  2  0  0  0
  1  2  2  0  0  0
  1  4  1  0  0  0
  2  3  1  0  0  0
  3  6  2  0  0  0
  4  5  2  0  0  0
  5  6  1  0  0  0
  6 15  1  0  0  0
 15 17  1  0  0  0
 17 18  2  0  0  0
 18 25  1  0  0  0
 18 19  1  0  0  0
 25 26  3  0  0  0
 19 20  2  0  0  0
 19 23  1  0  0  0
 20 21  1  0  0  0
 21 22  1  0  0  0
 22 23  2  0  0  0
  7  8  1  0  0  0
 15 16  1  0  0  0
 21 24  1  0  0  0
M  END
> <minimizedAffinity>
-7.10485

$$$$
1PZP_FTA_A_300


 26 28  0  0  0  0  0  0  0  0999 V2000
    1.8754   12.4000   20.0433 C   0  0  0  0  0  0  0  0  0  0  0  0
    1.1162   12.8424   18.9631 C   0  0  0  0  0  0  0  0  0  0  0  0
    1.6154   13.7582   18.0270 C   0  0  0  0  0  0  0  0  0  0  0  0
    3.1711   12.8694   20.1663 C   0  0  0  0  0  0  0  0  0  0  0  0
    3.6799   13.7879   19.2566 C   0  0  0  0  0  0  0  0  0  0  0  0
    2.9129   14.2405   18.1793 C   0  0  0  0  0  0  0  0  0  0  0  0
    1.3276   11.6436   21.1106 N   0  0  0  0  0  0  0  0  0  0  0  0
    0.6304   12.0730   21.6573 H   0  0  0  0  0  0  0  0  0  0  0  0
    1.7038   10.3107   21.4577 C   0  0  0  0  0  0  0  0  0  0  0  0
    1.3812    9.7658   22.6781 C   0  0  0  0  0  0  0  0  0  0  0  0
    1.9206    8.5400   23.0192 C   0  0  0  0  0  0  0  0  0  0  0  0
    2.7466    7.8284   22.1657 C   0  0  0  0  0  0  0  0  0  0  0  0
    3.0444    8.3430   20.9321 C   0  0  0  0  0  0  0  0  0  0  0  0
    2.5027    9.5859   20.5854 C   0  0  0  0  0  0  0  0  0  0  0  0
    3.4091   15.3313   17.4145 N   0  0  0  0  0  0  0  0  0  0  0  0
    4.2292   15.1832   16.8903 H   0  0  0  0  0  0  0  0  0  0  0  0
    2.8430   16.5519   17.3525 C   0  0  0  0  0  0  0  0  0  0  0  0
    2.5029   17.0522   16.1481 C   0  0  0  0  0  0  0  0  0  0  0  0
    3.5197   17.1183   15.0735 C   0  0  0  0  0  0  0  0  0  0  0  0
    3.2739   17.3505   13.7220 N   0  0  0  0  0  0  0  0  0  0  0  0
    4.4922   17.2855   13.0586 N   0  0  0  0  0  0  0  0  0  0  0  0
    5.4963   17.0131   13.9762 N   0  0  0  0  0  0  0  0  0  0  0  0
    4.8967   16.9198   15.2281 N   0  0  0  0  0  0  0  0  0  0  0  0
    4.6226   17.4125   12.0911 H   0  0  0  0  0  0  0  0  0  0  0  0
    1.1587   17.5345   15.9140 C   0  0  0  0  0  0  0  0  0  0  0  0
    0.0706   17.8294   15.5921 N   0  0  0  0  0  0  0  0  0  0  0  0
  7  9  1  0  0  0
  7  1  1  0  0  0
  9 10  2  0  0  0
  9 14  1  0  0  0
 10 11  1  0  0  0
 11 12  2  0  0  0
 12 13  1  0  0  0
 13 14  2  0  0  0
  1  2  2  0  0  0
  1  4  1  0  0  0
  2  3  1  0  0  0
  3  6  2  0  0  0
  4  5  2  0  0  0
  5  6  1  0  0  0
  6 15  1  0  0  0
 15 17  1  0  0  0
 17 18  2  0  0  0
 18 25  1  0  0  0
 18 19  1  0  0  0
 25 26  3  0  0  0
 19 20  2  0  0  0
 19 23  1  0  0  0
 20 21  1  0  0  0
 21 22  1  0  0  0
 22 23  2  0  0  0
  7  8  1  0  0  0
 15 16  1  0  0  0
 21 24  1  0  0  0
M  END
> <minimizedAffinity>
-7.04843

$$$$
1PZP_FTA_A_300


 26 28  0  0  0  0  0  0  0  0999 V2000
    1.6665   11.5946   19.9606 C   0  0  0  0  0  0  0  0  0  0  0  0
    2.8142   12.2479   20.4020 C   0  0  0  0  0  0  0  0  0  0  0  0
    3.2720   13.4322   19.8088 C   0  0  0  0  0  0  0  0  0  0  0  0
    0.9527   12.1608   18.9193 C   0  0  0  0  0  0  0  0  0  0  0  0
    1.3973   13.3270   18.3090 C   0  0  0  0  0  0  0  0  0  0  0  0
    2.5561   13.9756   18.7451 C   0  0  0  0  0  0  0  0  0  0  0  0
    1.3022   10.2966   20.4011 N   0  0  0  0  0  0  0  0  0  0  0  0
    0.4835    9.9037   20.0207 H   0  0  0  0  0  0  0  0  0  0  0  0
    2.0249    9.5127   21.3506 C   0  0  0  0  0  0  0  0  0  0  0  0
    3.0338    8.6624   20.9640 C   0  0  0  0  0  0  0  0  0  0  0  0
    3.5752    7.8066   21.9044 C   0  0  0  0  0  0  0  0  0  0  0  0
    3.1611    7.7968   23.2256 C   0  0  0  0  0  0  0  0  0  0  0  0
    2.1836    8.6656   23.6316 C   0  0  0  0  0  0  0  0  0  0  0  0
    1.6308    9.5308   22.6807 C   0  0  0  0  0  0  0  0  0  0  0  0
    3.0712   15.0349   17.9491 N   0  0  0  0  0  0  0  0  0  0  0  0
    2.7915   15.0724   17.0059 H   0  0  0  0  0  0  0  0  0  0  0  0
    3.9126   15.9913   18.3870 C   0  0  0  0  0  0  0  0  0  0  0  0
    3.7572   17.2522   17.9367 C   0  0  0  0  0  0  0  0  0  0  0  0
    3.7198   17.5050   16.4781 C   0  0  0  0  0  0  0  0  0  0  0  0
    3.0081   18.5167   15.8369 N   0  0  0  0  0  0  0  0  0  0  0  0
    3.2103   18.3685   14.4710 N   0  0  0  0  0  0  0  0  0  0  0  0
    4.0364   17.2764   14.2488 N   0  0  0  0  0  0  0  0  0  0  0  0
    4.3623   16.7460   15.4929 N   0  0  0  0  0  0  0  0  0  0  0  0
    2.8282   18.9465   13.7716 H   0  0  0  0  0  0  0  0  0  0  0  0
    3.6435   18.3500   18.8727 C   0  0  0  0  0  0  0  0  0  0  0  0
    3.7001   19.2834   19.5799 N   0  0  0  0  0  0  0  0  0  0  0  0
  7  9  1  0  0  0
  7  1  1  0  0  0
  9 10  2  0  0  0
  9 14  1  0  0  0
 10 11  1  0  0  0
 11 12  2  0  0  0
 12 13  1  0  0  0
 13 14  2  0  0  0
  1  2  2  0  0  0
  1  4  1  0  0  0
  2  3  1  0  0  0
  3  6  2  0  0  0
  4  5  2  0  0  0
  5  6  1  0  0  0
  6 15  1  0  0  0
 15 17  1  0  0  0
 17 18  2  0  0  0
 18 25  1  0  0  0
 18 19  1  0  0  0
 25 26  3  0  0  0
 19 20  2  0  0  0
 19 23  1  0  0  0
 20 21  1  0  0  0
 21 22  1  0  0  0
 22 23  2  0  0  0
  7  8  1  0  0  0
 15 16  1  0  0  0
 21 24  1  0  0  0
M  END
> <minimizedAffinity>
-6.81192

$$$$
1PZP_FTA_A_300


 26 28  0  0  0  0  0  0  0  0999 V2000
    1.7962   14.5040   17.3653 C   0  0  0  0  0  0  0  0  0  0  0  0
    0.7757   13.7096   17.8815 C   0  0  0  0  0  0  0  0  0  0  0  0
    0.9307   12.9733   19.0639 C   0  0  0  0  0  0  0  0  0  0  0  0
    2.9852   14.5782   18.0688 C   0  0  0  0  0  0  0  0  0  0  0  0
    3.1634   13.8454   19.2356 C   0  0  0  0  0  0  0  0  0  0  0  0
    2.1427   13.0388   19.7467 C   0  0  0  0  0  0  0  0  0  0  0  0
    1.7390   15.0870   16.0736 N   0  0  0  0  0  0  0  0  0  0  0  0
    2.5932   15.2387   15.6083 H   0  0  0  0  0  0  0  0  0  0  0  0
    0.5446   15.4720   15.3925 C   0  0  0  0  0  0  0  0  0  0  0  0
   -0.1950   14.5674   14.6680 C   0  0  0  0  0  0  0  0  0  0  0  0
   -1.2394   15.0355   13.8934 C   0  0  0  0  0  0  0  0  0  0  0  0
   -1.5866   16.3750   13.8454 C   0  0  0  0  0  0  0  0  0  0  0  0
   -0.8815   17.2807   14.5924 C   0  0  0  0  0  0  0  0  0  0  0  0
    0.1790   16.8102   15.3749 C   0  0  0  0  0  0  0  0  0  0  0  0
    2.4576   12.1559   20.8154 N   0  0  0  0  0  0  0  0  0  0  0  0
    3.2040   12.4058   21.4067 H   0  0  0  0  0  0  0  0  0  0  0  0
    1.8126   11.0035   21.0808 C   0  0  0  0  0  0  0  0  0  0  0  0
    2.5207    9.9494   21.5325 C   0  0  0  0  0  0  0  0  0  0  0  0
    3.7015    9.4845   20.7693 C   0  0  0  0  0  0  0  0  0  0  0  0
    4.9347   10.1279   20.6897 N   0  0  0  0  0  0  0  0  0  0  0  0
    5.7403    9.3832   19.8382 N   0  0  0  0  0  0  0  0  0  0  0  0
    5.0271    8.2843   19.3820 N   0  0  0  0  0  0  0  0  0  0  0  0
    3.7660    8.3393   19.9668 N   0  0  0  0  0  0  0  0  0  0  0  0
    6.6696    9.6006   19.5967 H   0  0  0  0  0  0  0  0  0  0  0  0
    2.1195    9.2695   22.7453 C   0  0  0  0  0  0  0  0  0  0  0  0
    1.8400    8.5813   23.6525 N   0  0  0  0  0  0  0  0  0  0  0  0
  7  9  1  0  0  0
  7  1  1  0  0  0
  9 10  2  0  0  0
  9 14  1  0  0  0
 10 11  1  0  0  0
 11 12  2  0  0  0
 12 13  1  0  0  0
 13 14  2  0  0  0
  1  2  2  0  0  0
  1  4  1  0  0  0
  2  3  1  0  0  0
  3  6  2  0  0  0
  4  5  2  0  0  0
  5  6  1  0  0  0
  6 15  1  0  0  0
 15 17  1  0  0  0
 17 18  2  0  0  0
 18 25  1  0  0  0
 18 19  1  0  0  0
 25 26  3  0  0  0
 19 20  2  0  0  0
 19 23  1  0  0  0
 20 21  1  0  0  0
 21 22  1  0  0  0
 22 23  2  0  0  0
  7  8  1  0  0  0
 15 16  1  0  0  0
 21 24  1  0  0  0
M  END
> <minimizedAffinity>
-6.72402

$$$$
1PZP_FTA_A_300


 26 28  0  0  0  0  0  0  0  0999 V2000
    2.2956   12.4665   19.6934 C   0  0  0  0  0  0  0  0  0  0  0  0
    1.0415   12.2492   19.1285 C   0  0  0  0  0  0  0  0  0  0  0  0
    0.5484   13.0407   18.0823 C   0  0  0  0  0  0  0  0  0  0  0  0
    3.0775   13.4837   19.1754 C   0  0  0  0  0  0  0  0  0  0  0  0
    2.6015   14.2882   18.1475 C   0  0  0  0  0  0  0  0  0  0  0  0
    1.3376   14.0768   17.5892 C   0  0  0  0  0  0  0  0  0  0  0  0
    2.7272   11.8214   20.8804 N   0  0  0  0  0  0  0  0  0  0  0  0
    3.2166   12.3663   21.5383 H   0  0  0  0  0  0  0  0  0  0  0  0
    2.5105   10.4468   21.1999 C   0  0  0  0  0  0  0  0  0  0  0  0
    1.4497   10.0465   21.9774 C   0  0  0  0  0  0  0  0  0  0  0  0
    1.3929    8.7296   22.3927 C   0  0  0  0  0  0  0  0  0  0  0  0
    2.3467    7.7942   22.0291 C   0  0  0  0  0  0  0  0  0  0  0  0
    3.3877    8.1718   21.2234 C   0  0  0  0  0  0  0  0  0  0  0  0
    3.4498    9.5055   20.8043 C   0  0  0  0  0  0  0  0  0  0  0  0
    0.8265   15.0582   16.6967 N   0  0  0  0  0  0  0  0  0  0  0  0
    1.1181   15.9891   16.8291 H   0  0  0  0  0  0  0  0  0  0  0  0
   -0.0263   14.8115   15.6837 C   0  0  0  0  0  0  0  0  0  0  0  0
    0.0564   15.5592   14.5653 C   0  0  0  0  0  0  0  0  0  0  0  0
    0.0064   17.0354   14.6709 C   0  0  0  0  0  0  0  0  0  0  0  0
    0.7890   17.8269   15.5088 N   0  0  0  0  0  0  0  0  0  0  0  0
    0.3919   19.1454   15.3288 N   0  0  0  0  0  0  0  0  0  0  0  0
   -0.6301   19.1893   14.3919 N   0  0  0  0  0  0  0  0  0  0  0  0
   -0.8634   17.8828   13.9745 N   0  0  0  0  0  0  0  0  0  0  0  0
    0.7748   19.9250   15.7924 H   0  0  0  0  0  0  0  0  0  0  0  0
    0.1778   14.9219   13.2717 C   0  0  0  0  0  0  0  0  0  0  0  0
    0.1985   14.5366   12.1646 N   0  0  0  0  0  0  0  0  0  0  0  0
  7  9  1  0  0  0
  7  1  1  0  0  0
  9 10  2  0  0  0
  9 14  1  0  0  0
 10 11  1  0  0  0
 11 12  2  0  0  0
 12 13  1  0  0  0
 13 14  2  0  0  0
  1  2  2  0  0  0
  1  4  1  0  0  0
  2  3  1  0  0  0
  3  6  2  0  0  0
  4  5  2  0  0  0
  5  6  1  0  0  0
  6 15  1  0  0  0
 15 17  1  0  0  0
 17 18  2  0  0  0
 18 25  1  0  0  0
 18 19  1  0  0  0
 25 26  3  0  0  0
 19 20  2  0  0  0
 19 23  1  0  0  0
 20 21  1  0  0  0
 21 22  1  0  0  0
 22 23  2  0  0  0
  7  8  1  0  0  0
 15 16  1  0  0  0
 21 24  1  0  0  0
M  END
> <minimizedAffinity>
-6.66290

$$$$
1PZP_FTA_A_300


 26 28  0  0  0  0  0  0  0  0999 V2000
    2.2269   14.3296   17.8001 C   0  0  0  0  0  0  0  0  0  0  0  0
    1.2046   13.4958   18.2460 C   0  0  0  0  0  0  0  0  0  0  0  0
    1.3797   12.6104   19.3182 C   0  0  0  0  0  0  0  0  0  0  0  0
    3.4395   14.2888   18.4651 C   0  0  0  0  0  0  0  0  0  0  0  0
    3.6374   13.4084   19.5216 C   0  0  0  0  0  0  0  0  0  0  0  0
    2.6143   12.5633   19.9607 C   0  0  0  0  0  0  0  0  0  0  0  0
    2.1422   15.0751   16.5965 N   0  0  0  0  0  0  0  0  0  0  0  0
    2.9883   15.3542   16.1776 H   0  0  0  0  0  0  0  0  0  0  0  0
    0.9311   15.4541   15.9423 C   0  0  0  0  0  0  0  0  0  0  0  0
    0.0812   14.5185   15.4014 C   0  0  0  0  0  0  0  0  0  0  0  0
   -0.9818   14.9550   14.6337 C   0  0  0  0  0  0  0  0  0  0  0  0
   -1.2393   16.2980   14.4164 C   0  0  0  0  0  0  0  0  0  0  0  0
   -0.4221   17.2405   14.9815 C   0  0  0  0  0  0  0  0  0  0  0  0
    0.6573   16.8014   15.7563 C   0  0  0  0  0  0  0  0  0  0  0  0
    2.9420   11.5440   20.8959 N   0  0  0  0  0  0  0  0  0  0  0  0
    2.3948   11.4827   21.7120 H   0  0  0  0  0  0  0  0  0  0  0  0
    3.9440   10.6557   20.7506 C   0  0  0  0  0  0  0  0  0  0  0  0
    3.6531    9.3396   20.7478 C   0  0  0  0  0  0  0  0  0  0  0  0
    2.8771    8.7631   21.8696 C   0  0  0  0  0  0  0  0  0  0  0  0
    1.7785    7.9134   21.7585 N   0  0  0  0  0  0  0  0  0  0  0  0
    1.3241    7.6479   23.0437 N   0  0  0  0  0  0  0  0  0  0  0  0
    2.1217    8.3219   23.9569 N   0  0  0  0  0  0  0  0  0  0  0  0
    3.0922    9.0054   23.2314 N   0  0  0  0  0  0  0  0  0  0  0  0
    0.5579    7.0728   23.2705 H   0  0  0  0  0  0  0  0  0  0  0  0
    4.1094    8.4961   19.6642 C   0  0  0  0  0  0  0  0  0  0  0  0
    4.5145    7.7028   18.9017 N   0  0  0  0  0  0  0  0  0  0  0  0
  7  9  1  0  0  0
  7  1  1  0  0  0
  9 10  2  0  0  0
  9 14  1  0  0  0
 10 11  1  0  0  0
 11 12  2  0  0  0
 12 13  1  0  0  0
 13 14  2  0  0  0
  1  2  2  0  0  0
  1  4  1  0  0  0
  2  3  1  0  0  0
  3  6  2  0  0  0
  4  5  2  0  0  0
  5  6  1  0  0  0
  6 15  1  0  0  0
 15 17  1  0  0  0
 17 18  2  0  0  0
 18 25  1  0  0  0
 18 19  1  0  0  0
 25 26  3  0  0  0
 19 20  2  0  0  0
 19 23  1  0  0  0
 20 21  1  0  0  0
 21 22  1  0  0  0
 22 23  2  0  0  0
  7  8  1  0  0  0
 15 16  1  0  0  0
 21 24  1  0  0  0
M  END
> <minimizedAffinity>
-6.61881

$$$$
