1V48_HA1_A_290


 27 28  0  0  0  0  0  0  0  0999 V2000
   72.2811   46.2962   50.3064 N   0  0  0  0  0  0  0  0  0  0  0  0
   71.0124   46.8300   50.4287 C   0  0  0  0  0  0  0  0  0  0  0  0
   70.9811   48.0598   49.9875 N   0  0  0  0  0  0  0  0  0  0  0  0
   72.2464   48.3752   49.5577 C   0  0  0  0  0  0  0  0  0  0  0  0
   72.7839   49.5911   48.9819 C   0  0  0  0  0  0  0  0  0  0  0  0
   72.1644   50.6438   48.7494 O   0  0  0  0  0  0  0  0  0  0  0  0
   74.1747   49.5016   48.6706 N   0  0  0  0  0  0  0  0  0  0  0  0
   74.9627   48.3497   48.8972 C   0  0  0  0  0  0  0  0  0  0  0  0
   76.2859   48.3934   48.5540 N   0  0  0  0  0  0  0  0  0  0  0  0
   74.4443   47.1915   49.4472 N   0  0  0  0  0  0  0  0  0  0  0  0
   73.0880   47.2815   49.7498 C   0  0  0  0  0  0  0  0  0  0  0  0
   74.6114   50.2898   48.2741 H   0  0  0  0  0  0  0  0  0  0  0  0
   76.6659   49.2125   48.1617 H   0  0  0  0  0  0  0  0  0  0  0  0
   76.8584   47.6057   48.6991 H   0  0  0  0  0  0  0  0  0  0  0  0
   72.5504   44.9733   50.6428 C   0  0  0  0  0  0  0  0  0  0  0  0
   73.1452   44.8694   52.0716 C   0  0  0  0  0  0  0  0  0  0  0  0
   74.5196   44.1634   52.0159 C   0  0  0  0  0  0  0  0  0  0  0  0
   74.8079   43.5783   50.5966 C   0  0  0  0  0  0  0  0  0  0  0  0
   75.2160   42.0840   50.6780 C   0  0  0  0  0  0  0  0  0  0  0  0
   74.8198   41.5881   51.8627 F   0  0  0  0  0  0  0  0  0  0  0  0
   76.5524   41.9830   50.5981 F   0  0  0  0  0  0  0  0  0  0  0  0
   74.5898   41.2943   49.5390 P   0  0  0  0  0  0  0  0  0  0  0  0
   73.1045   41.4278   49.5612 O   0  0  0  0  0  0  0  0  0  0  0  0
   75.1176   41.7996   48.2396 O   0  0  0  0  0  0  0  0  0  0  0  0
   74.9595   39.8420   49.6817 O   0  0  0  0  0  0  0  0  0  0  0  0
   72.8625   42.3626   49.4695 H   0  0  0  0  0  0  0  0  0  0  0  0
   74.6202   39.5034   50.5250 H   0  0  0  0  0  0  0  0  0  0  0  0
  1  2  1  0  0  0
  1 11  1  0  0  0
  1 15  1  0  0  0
  2  3  2  0  0  0
  3  4  1  0  0  0
  4  5  1  0  0  0
  4 11  2  0  0  0
  5  6  2  0  0  0
  5  7  1  0  0  0
  7  8  1  0  0  0
  8  9  1  0  0  0
  8 10  2  0  0  0
 10 11  1  0  0  0
 15 16  1  0  0  0
 16 17  1  0  0  0
 17 18  1  0  0  0
 18 19  1  0  0  0
 19 20  1  0  0  0
 19 21  1  0  0  0
 19 22  1  0  0  0
 22 23  1  0  0  0
 22 24  2  0  0  0
 22 25  1  0  0  0
  7 12  1  0  0  0
  9 13  1  0  0  0
  9 14  1  0  0  0
 23 26  1  0  0  0
 25 27  1  0  0  0
M  END
> <minimizedAffinity>
-9.18617

$$$$
1V48_HA1_A_290


 27 28  0  0  0  0  0  0  0  0999 V2000
   72.1495   45.7790   50.5629 N   0  0  0  0  0  0  0  0  0  0  0  0
   70.8143   46.0171   50.8281 C   0  0  0  0  0  0  0  0  0  0  0  0
   70.4915   47.2457   50.5207 N   0  0  0  0  0  0  0  0  0  0  0  0
   71.6210   47.8600   50.0392 C   0  0  0  0  0  0  0  0  0  0  0  0
   71.8433   49.2080   49.5572 C   0  0  0  0  0  0  0  0  0  0  0  0
   71.0023   50.1206   49.4793 O   0  0  0  0  0  0  0  0  0  0  0  0
   73.1890   49.4447   49.1424 N   0  0  0  0  0  0  0  0  0  0  0  0
   74.2140   48.4721   49.1924 C   0  0  0  0  0  0  0  0  0  0  0  0
   75.4637   48.8268   48.7644 N   0  0  0  0  0  0  0  0  0  0  0  0
   73.9964   47.1865   49.6534 N   0  0  0  0  0  0  0  0  0  0  0  0
   72.6833   46.9584   50.0573 C   0  0  0  0  0  0  0  0  0  0  0  0
   73.4170   50.3394   48.8008 H   0  0  0  0  0  0  0  0  0  0  0  0
   75.6304   49.7391   48.4342 H   0  0  0  0  0  0  0  0  0  0  0  0
   76.1965   48.1697   48.7866 H   0  0  0  0  0  0  0  0  0  0  0  0
   72.7140   44.5197   50.7401 C   0  0  0  0  0  0  0  0  0  0  0  0
   73.8274   44.5527   51.8196 C   0  0  0  0  0  0  0  0  0  0  0  0
   74.9553   43.5664   51.4380 C   0  0  0  0  0  0  0  0  0  0  0  0
   74.5854   42.0966   51.8158 C   0  0  0  0  0  0  0  0  0  0  0  0
   74.4930   41.1992   50.5540 C   0  0  0  0  0  0  0  0  0  0  0  0
   75.7212   41.0628   50.0255 F   0  0  0  0  0  0  0  0  0  0  0  0
   73.7002   41.7896   49.6454 F   0  0  0  0  0  0  0  0  0  0  0  0
   73.9153   39.8370   50.9059 P   0  0  0  0  0  0  0  0  0  0  0  0
   72.4816   39.7543   50.5032 O   0  0  0  0  0  0  0  0  0  0  0  0
   74.6931   38.7754   50.2056 O   0  0  0  0  0  0  0  0  0  0  0  0
   74.0266   39.6208   52.3915 O   0  0  0  0  0  0  0  0  0  0  0  0
   72.4060   39.8932   49.5462 H   0  0  0  0  0  0  0  0  0  0  0  0
   73.5233   40.3072   52.8567 H   0  0  0  0  0  0  0  0  0  0  0  0
  1  2  1  0  0  0
  1 11  1  0  0  0
  1 15  1  0  0  0
  2  3  2  0  0  0
  3  4  1  0  0  0
  4  5  1  0  0  0
  4 11  2  0  0  0
  5  6  2  0  0  0
  5  7  1  0  0  0
  7  8  1  0  0  0
  8  9  1  0  0  0
  8 10  2  0  0  0
 10 11  1  0  0  0
 15 16  1  0  0  0
 16 17  1  0  0  0
 17 18  1  0  0  0
 18 19  1  0  0  0
 19 20  1  0  0  0
 19 21  1  0  0  0
 19 22  1  0  0  0
 22 23  1  0  0  0
 22 24  2  0  0  0
 22 25  1  0  0  0
  7 12  1  0  0  0
  9 13  1  0  0  0
  9 14  1  0  0  0
 23 26  1  0  0  0
 25 27  1  0  0  0
M  END
> <minimizedAffinity>
-8.23036

$$$$
1V48_HA1_A_290


 27 28  0  0  0  0  0  0  0  0999 V2000
   74.3786   42.7567   52.3936 N   0  0  0  0  0  0  0  0  0  0  0  0
   74.3373   41.8076   53.3971 C   0  0  0  0  0  0  0  0  0  0  0  0
   74.3286   40.6008   52.8953 N   0  0  0  0  0  0  0  0  0  0  0  0
   74.3629   40.7232   51.5283 C   0  0  0  0  0  0  0  0  0  0  0  0
   74.3690   39.7234   50.4798 C   0  0  0  0  0  0  0  0  0  0  0  0
   74.3467   38.4888   50.6261 O   0  0  0  0  0  0  0  0  0  0  0  0
   74.4077   40.2827   49.1665 N   0  0  0  0  0  0  0  0  0  0  0  0
   74.4357   41.6708   48.8992 C   0  0  0  0  0  0  0  0  0  0  0  0
   74.4717   42.0775   47.5938 N   0  0  0  0  0  0  0  0  0  0  0  0
   74.4298   42.6210   49.9040 N   0  0  0  0  0  0  0  0  0  0  0  0
   74.3919   42.0730   51.1836 C   0  0  0  0  0  0  0  0  0  0  0  0
   74.4154   39.6641   48.4006 H   0  0  0  0  0  0  0  0  0  0  0  0
   74.4763   41.4100   46.8702 H   0  0  0  0  0  0  0  0  0  0  0  0
   74.4931   43.0378   47.3779 H   0  0  0  0  0  0  0  0  0  0  0  0
   74.4677   44.1155   52.6792 C   0  0  0  0  0  0  0  0  0  0  0  0
   73.2012   44.6150   53.4226 C   0  0  0  0  0  0  0  0  0  0  0  0
   72.0132   44.6947   52.4362 C   0  0  0  0  0  0  0  0  0  0  0  0
   71.6744   46.1733   52.0631 C   0  0  0  0  0  0  0  0  0  0  0  0
   71.4234   46.3242   50.5399 C   0  0  0  0  0  0  0  0  0  0  0  0
   70.6293   47.3885   50.3325 F   0  0  0  0  0  0  0  0  0  0  0  0
   70.7974   45.2284   50.0816 F   0  0  0  0  0  0  0  0  0  0  0  0
   72.7380   46.4929   49.7940 P   0  0  0  0  0  0  0  0  0  0  0  0
   72.5876   47.4717   48.6788 O   0  0  0  0  0  0  0  0  0  0  0  0
   73.7850   46.9714   50.7412 O   0  0  0  0  0  0  0  0  0  0  0  0
   73.1627   45.1623   49.2322 O   0  0  0  0  0  0  0  0  0  0  0  0
   72.3139   48.3306   49.0371 H   0  0  0  0  0  0  0  0  0  0  0  0
   72.4874   44.8420   48.6140 H   0  0  0  0  0  0  0  0  0  0  0  0
  1  2  1  0  0  0
  1 11  1  0  0  0
  1 15  1  0  0  0
  2  3  2  0  0  0
  3  4  1  0  0  0
  4  5  1  0  0  0
  4 11  2  0  0  0
  5  6  2  0  0  0
  5  7  1  0  0  0
  7  8  1  0  0  0
  8  9  1  0  0  0
  8 10  2  0  0  0
 10 11  1  0  0  0
 15 16  1  0  0  0
 16 17  1  0  0  0
 17 18  1  0  0  0
 18 19  1  0  0  0
 19 20  1  0  0  0
 19 21  1  0  0  0
 19 22  1  0  0  0
 22 23  1  0  0  0
 22 24  2  0  0  0
 22 25  1  0  0  0
  7 12  1  0  0  0
  9 13  1  0  0  0
  9 14  1  0  0  0
 23 26  1  0  0  0
 25 27  1  0  0  0
M  END
> <minimizedAffinity>
-8.14248

$$$$
1V48_HA1_A_290


 27 28  0  0  0  0  0  0  0  0999 V2000
   74.1015   43.2200   52.3851 N   0  0  0  0  0  0  0  0  0  0  0  0
   73.9105   42.4293   53.5023 C   0  0  0  0  0  0  0  0  0  0  0  0
   73.9012   41.1629   53.1792 N   0  0  0  0  0  0  0  0  0  0  0  0
   74.0870   41.0833   51.8212 C   0  0  0  0  0  0  0  0  0  0  0  0
   74.1602   39.9412   50.9328 C   0  0  0  0  0  0  0  0  0  0  0  0
   74.0667   38.7424   51.2495 O   0  0  0  0  0  0  0  0  0  0  0  0
   74.3642   40.3012   49.5660 N   0  0  0  0  0  0  0  0  0  0  0  0
   74.4831   41.6339   49.1092 C   0  0  0  0  0  0  0  0  0  0  0  0
   74.6768   41.8444   47.7717 N   0  0  0  0  0  0  0  0  0  0  0  0
   74.4125   42.7206   49.9617 N   0  0  0  0  0  0  0  0  0  0  0  0
   74.2134   42.3667   51.2938 C   0  0  0  0  0  0  0  0  0  0  0  0
   74.4259   39.5774   48.9015 H   0  0  0  0  0  0  0  0  0  0  0  0
   74.7286   41.0784   47.1553 H   0  0  0  0  0  0  0  0  0  0  0  0
   74.7643   42.7617   47.4253 H   0  0  0  0  0  0  0  0  0  0  0  0
   74.2207   44.6028   52.4831 C   0  0  0  0  0  0  0  0  0  0  0  0
   72.8388   45.2943   52.3479 C   0  0  0  0  0  0  0  0  0  0  0  0
   72.4530   45.4044   50.8547 C   0  0  0  0  0  0  0  0  0  0  0  0
   72.5754   46.8728   50.3364 C   0  0  0  0  0  0  0  0  0  0  0  0
   74.0569   47.2574   50.0851 C   0  0  0  0  0  0  0  0  0  0  0  0
   74.6961   46.2030   49.5502 F   0  0  0  0  0  0  0  0  0  0  0  0
   74.6416   47.5631   51.2545 F   0  0  0  0  0  0  0  0  0  0  0  0
   74.1491   48.4578   49.1557 P   0  0  0  0  0  0  0  0  0  0  0  0
   72.8444   48.6954   48.4732 O   0  0  0  0  0  0  0  0  0  0  0  0
   74.5276   49.6647   49.9447 O   0  0  0  0  0  0  0  0  0  0  0  0
   75.2113   48.2016   48.1201 O   0  0  0  0  0  0  0  0  0  0  0  0
   72.1574   48.8609   49.1377 H   0  0  0  0  0  0  0  0  0  0  0  0
   74.9741   47.4174   47.6008 H   0  0  0  0  0  0  0  0  0  0  0  0
  1  2  1  0  0  0
  1 11  1  0  0  0
  1 15  1  0  0  0
  2  3  2  0  0  0
  3  4  1  0  0  0
  4  5  1  0  0  0
  4 11  2  0  0  0
  5  6  2  0  0  0
  5  7  1  0  0  0
  7  8  1  0  0  0
  8  9  1  0  0  0
  8 10  2  0  0  0
 10 11  1  0  0  0
 15 16  1  0  0  0
 16 17  1  0  0  0
 17 18  1  0  0  0
 18 19  1  0  0  0
 19 20  1  0  0  0
 19 21  1  0  0  0
 19 22  1  0  0  0
 22 23  1  0  0  0
 22 24  2  0  0  0
 22 25  1  0  0  0
  7 12  1  0  0  0
  9 13  1  0  0  0
  9 14  1  0  0  0
 23 26  1  0  0  0
 25 27  1  0  0  0
M  END
> <minimizedAffinity>
-8.00890

$$$$
1V48_HA1_A_290


 27 28  0  0  0  0  0  0  0  0999 V2000
   73.9673   43.2821   52.1918 N   0  0  0  0  0  0  0  0  0  0  0  0
   74.8335   44.1997   51.6284 C   0  0  0  0  0  0  0  0  0  0  0  0
   75.1580   43.8467   50.4125 N   0  0  0  0  0  0  0  0  0  0  0  0
   74.5067   42.6696   50.1380 C   0  0  0  0  0  0  0  0  0  0  0  0
   74.5008   41.8352   48.9536 C   0  0  0  0  0  0  0  0  0  0  0  0
   75.1188   42.0394   47.8941 O   0  0  0  0  0  0  0  0  0  0  0  0
   73.6777   40.6757   49.0839 N   0  0  0  0  0  0  0  0  0  0  0  0
   72.9377   40.3584   50.2462 C   0  0  0  0  0  0  0  0  0  0  0  0
   72.1866   39.2154   50.2428 N   0  0  0  0  0  0  0  0  0  0  0  0
   72.9468   41.1586   51.3741 N   0  0  0  0  0  0  0  0  0  0  0  0
   73.7503   42.2886   51.2444 C   0  0  0  0  0  0  0  0  0  0  0  0
   73.6221   40.0597   48.3180 H   0  0  0  0  0  0  0  0  0  0  0  0
   72.1725   38.6380   49.4455 H   0  0  0  0  0  0  0  0  0  0  0  0
   71.6601   38.9700   51.0377 H   0  0  0  0  0  0  0  0  0  0  0  0
   73.4222   43.4765   53.4570 C   0  0  0  0  0  0  0  0  0  0  0  0
   72.8912   44.9246   53.6208 C   0  0  0  0  0  0  0  0  0  0  0  0
   71.4749   45.0345   53.0104 C   0  0  0  0  0  0  0  0  0  0  0  0
   71.3594   46.2553   52.0427 C   0  0  0  0  0  0  0  0  0  0  0  0
   71.4129   45.8030   50.5600 C   0  0  0  0  0  0  0  0  0  0  0  0
   70.2267   46.0602   49.9829 F   0  0  0  0  0  0  0  0  0  0  0  0
   71.6362   44.4801   50.5063 F   0  0  0  0  0  0  0  0  0  0  0  0
   72.5280   46.5247   49.8191 P   0  0  0  0  0  0  0  0  0  0  0  0
   73.0851   45.6615   48.7379 O   0  0  0  0  0  0  0  0  0  0  0  0
   71.9929   47.7840   49.2274 O   0  0  0  0  0  0  0  0  0  0  0  0
   73.6241   46.8719   50.7908 O   0  0  0  0  0  0  0  0  0  0  0  0
   72.3813   45.4356   48.1096 H   0  0  0  0  0  0  0  0  0  0  0  0
   73.9794   46.0584   51.1818 H   0  0  0  0  0  0  0  0  0  0  0  0
  1  2  1  0  0  0
  1 11  1  0  0  0
  1 15  1  0  0  0
  2  3  2  0  0  0
  3  4  1  0  0  0
  4  5  1  0  0  0
  4 11  2  0  0  0
  5  6  2  0  0  0
  5  7  1  0  0  0
  7  8  1  0  0  0
  8  9  1  0  0  0
  8 10  2  0  0  0
 10 11  1  0  0  0
 15 16  1  0  0  0
 16 17  1  0  0  0
 17 18  1  0  0  0
 18 19  1  0  0  0
 19 20  1  0  0  0
 19 21  1  0  0  0
 19 22  1  0  0  0
 22 23  1  0  0  0
 22 24  2  0  0  0
 22 25  1  0  0  0
  7 12  1  0  0  0
  9 13  1  0  0  0
  9 14  1  0  0  0
 23 26  1  0  0  0
 25 27  1  0  0  0
M  END
> <minimizedAffinity>
-7.63339

$$$$
1V48_HA1_A_290


 27 28  0  0  0  0  0  0  0  0999 V2000
   72.4901   45.4668   51.3046 N   0  0  0  0  0  0  0  0  0  0  0  0
   71.5253   45.9046   50.4174 C   0  0  0  0  0  0  0  0  0  0  0  0
   70.3267   45.7054   50.8989 N   0  0  0  0  0  0  0  0  0  0  0  0
   70.4707   45.1215   52.1331 C   0  0  0  0  0  0  0  0  0  0  0  0
   69.4875   44.6855   53.1039 C   0  0  0  0  0  0  0  0  0  0  0  0
   68.2509   44.7647   53.0005 O   0  0  0  0  0  0  0  0  0  0  0  0
   70.0674   44.1175   54.2787 N   0  0  0  0  0  0  0  0  0  0  0  0
   71.4594   43.9850   54.4882 C   0  0  0  0  0  0  0  0  0  0  0  0
   71.8867   43.4225   55.6593 N   0  0  0  0  0  0  0  0  0  0  0  0
   72.3937   44.4031   53.5581 N   0  0  0  0  0  0  0  0  0  0  0  0
   71.8255   44.9564   52.4134 C   0  0  0  0  0  0  0  0  0  0  0  0
   69.4611   43.7988   54.9859 H   0  0  0  0  0  0  0  0  0  0  0  0
   71.2307   43.1212   56.3288 H   0  0  0  0  0  0  0  0  0  0  0  0
   72.8502   43.3188   55.8329 H   0  0  0  0  0  0  0  0  0  0  0  0
   73.8469   45.6371   51.0477 C   0  0  0  0  0  0  0  0  0  0  0  0
   74.4555   44.3697   50.3925 C   0  0  0  0  0  0  0  0  0  0  0  0
   75.0924   43.4735   51.4797 C   0  0  0  0  0  0  0  0  0  0  0  0
   75.2790   42.0061   50.9779 C   0  0  0  0  0  0  0  0  0  0  0  0
   74.0529   41.1285   51.3418 C   0  0  0  0  0  0  0  0  0  0  0  0
   73.0357   41.9293   51.7028 F   0  0  0  0  0  0  0  0  0  0  0  0
   74.3643   40.3385   52.3818 F   0  0  0  0  0  0  0  0  0  0  0  0
   73.6470   40.2585   50.1622 P   0  0  0  0  0  0  0  0  0  0  0  0
   74.6783   39.2134   49.9005 O   0  0  0  0  0  0  0  0  0  0  0  0
   72.3388   39.6071   50.4565 O   0  0  0  0  0  0  0  0  0  0  0  0
   73.4950   41.1227   48.9389 O   0  0  0  0  0  0  0  0  0  0  0  0
   74.7790   38.6545   50.6869 H   0  0  0  0  0  0  0  0  0  0  0  0
   74.3417   41.5515   48.7387 H   0  0  0  0  0  0  0  0  0  0  0  0
  1  2  1  0  0  0
  1 11  1  0  0  0
  1 15  1  0  0  0
  2  3  2  0  0  0
  3  4  1  0  0  0
  4  5  1  0  0  0
  4 11  2  0  0  0
  5  6  2  0  0  0
  5  7  1  0  0  0
  7  8  1  0  0  0
  8  9  1  0  0  0
  8 10  2  0  0  0
 10 11  1  0  0  0
 15 16  1  0  0  0
 16 17  1  0  0  0
 17 18  1  0  0  0
 18 19  1  0  0  0
 19 20  1  0  0  0
 19 21  1  0  0  0
 19 22  1  0  0  0
 22 23  1  0  0  0
 22 24  2  0  0  0
 22 25  1  0  0  0
  7 12  1  0  0  0
  9 13  1  0  0  0
  9 14  1  0  0  0
 23 26  1  0  0  0
 25 27  1  0  0  0
M  END
> <minimizedAffinity>
-7.61582

$$$$
1V48_HA1_A_290


 27 28  0  0  0  0  0  0  0  0999 V2000
   73.8268   45.4508   51.7611 N   0  0  0  0  0  0  0  0  0  0  0  0
   74.0867   45.9385   50.4945 C   0  0  0  0  0  0  0  0  0  0  0  0
   73.0103   46.4599   49.9675 N   0  0  0  0  0  0  0  0  0  0  0  0
   71.9971   46.3270   50.8845 C   0  0  0  0  0  0  0  0  0  0  0  0
   70.6041   46.7219   50.8325 C   0  0  0  0  0  0  0  0  0  0  0  0
   70.0256   47.2944   49.8925 O   0  0  0  0  0  0  0  0  0  0  0  0
   69.8790   46.3913   52.0174 N   0  0  0  0  0  0  0  0  0  0  0  0
   70.4482   45.7422   53.1370 C   0  0  0  0  0  0  0  0  0  0  0  0
   69.6435   45.4817   54.2119 N   0  0  0  0  0  0  0  0  0  0  0  0
   71.7786   45.3674   53.1815 N   0  0  0  0  0  0  0  0  0  0  0  0
   72.4835   45.6908   52.0247 C   0  0  0  0  0  0  0  0  0  0  0  0
   68.9246   46.6300   52.0571 H   0  0  0  0  0  0  0  0  0  0  0  0
   68.6948   45.7439   54.1916 H   0  0  0  0  0  0  0  0  0  0  0  0
   70.0130   45.0320   55.0059 H   0  0  0  0  0  0  0  0  0  0  0  0
   74.8343   44.9119   52.5551 C   0  0  0  0  0  0  0  0  0  0  0  0
   74.5871   43.4047   52.8260 C   0  0  0  0  0  0  0  0  0  0  0  0
   75.6851   42.5624   52.1364 C   0  0  0  0  0  0  0  0  0  0  0  0
   75.1791   41.9489   50.7919 C   0  0  0  0  0  0  0  0  0  0  0  0
   73.9013   41.0970   51.0097 C   0  0  0  0  0  0  0  0  0  0  0  0
   72.8452   41.9192   51.1324 F   0  0  0  0  0  0  0  0  0  0  0  0
   74.0262   40.3899   52.1442 F   0  0  0  0  0  0  0  0  0  0  0  0
   73.6917   40.1380   49.8480 P   0  0  0  0  0  0  0  0  0  0  0  0
   73.6886   40.8755   48.5517 O   0  0  0  0  0  0  0  0  0  0  0  0
   74.7835   39.1229   49.8430 O   0  0  0  0  0  0  0  0  0  0  0  0
   72.3732   39.4323   50.0204 O   0  0  0  0  0  0  0  0  0  0  0  0
   74.5370   41.3316   48.4372 H   0  0  0  0  0  0  0  0  0  0  0  0
   71.6554   40.0848   50.0250 H   0  0  0  0  0  0  0  0  0  0  0  0
  1  2  1  0  0  0
  1 11  1  0  0  0
  1 15  1  0  0  0
  2  3  2  0  0  0
  3  4  1  0  0  0
  4  5  1  0  0  0
  4 11  2  0  0  0
  5  6  2  0  0  0
  5  7  1  0  0  0
  7  8  1  0  0  0
  8  9  1  0  0  0
  8 10  2  0  0  0
 10 11  1  0  0  0
 15 16  1  0  0  0
 16 17  1  0  0  0
 17 18  1  0  0  0
 18 19  1  0  0  0
 19 20  1  0  0  0
 19 21  1  0  0  0
 19 22  1  0  0  0
 22 23  1  0  0  0
 22 24  2  0  0  0
 22 25  1  0  0  0
  7 12  1  0  0  0
  9 13  1  0  0  0
  9 14  1  0  0  0
 23 26  1  0  0  0
 25 27  1  0  0  0
M  END
> <minimizedAffinity>
-7.38616

$$$$
1V48_HA1_A_290


 27 28  0  0  0  0  0  0  0  0999 V2000
   73.8402   42.4323   52.7471 N   0  0  0  0  0  0  0  0  0  0  0  0
   73.9209   41.4226   53.6872 C   0  0  0  0  0  0  0  0  0  0  0  0
   74.1559   40.2718   53.1140 N   0  0  0  0  0  0  0  0  0  0  0  0
   74.2362   40.4943   51.7615 C   0  0  0  0  0  0  0  0  0  0  0  0
   74.4758   39.5877   50.6572 C   0  0  0  0  0  0  0  0  0  0  0  0
   74.6698   38.3615   50.7272 O   0  0  0  0  0  0  0  0  0  0  0  0
   74.4786   40.2360   49.3848 N   0  0  0  0  0  0  0  0  0  0  0  0
   74.2684   41.6225   49.2039 C   0  0  0  0  0  0  0  0  0  0  0  0
   74.2958   42.1200   47.9302 N   0  0  0  0  0  0  0  0  0  0  0  0
   74.0401   42.4835   50.2618 N   0  0  0  0  0  0  0  0  0  0  0  0
   74.0378   41.8487   51.5013 C   0  0  0  0  0  0  0  0  0  0  0  0
   74.6365   39.6841   48.5850 H   0  0  0  0  0  0  0  0  0  0  0  0
   74.4574   41.5165   47.1693 H   0  0  0  0  0  0  0  0  0  0  0  0
   74.1539   43.0817   47.7742 H   0  0  0  0  0  0  0  0  0  0  0  0
   73.6675   43.7618   53.1191 C   0  0  0  0  0  0  0  0  0  0  0  0
   74.8522   44.6371   52.6328 C   0  0  0  0  0  0  0  0  0  0  0  0
   74.3287   45.7559   51.7028 C   0  0  0  0  0  0  0  0  0  0  0  0
   72.7862   45.6449   51.4824 C   0  0  0  0  0  0  0  0  0  0  0  0
   72.3246   46.5268   50.2928 C   0  0  0  0  0  0  0  0  0  0  0  0
   72.5027   45.8436   49.1491 F   0  0  0  0  0  0  0  0  0  0  0  0
   73.0745   47.6395   50.2467 F   0  0  0  0  0  0  0  0  0  0  0  0
   70.8638   46.9193   50.4514 P   0  0  0  0  0  0  0  0  0  0  0  0
   69.9767   45.9242   49.7827 O   0  0  0  0  0  0  0  0  0  0  0  0
   70.5275   46.9935   51.9018 O   0  0  0  0  0  0  0  0  0  0  0  0
   70.6452   48.2739   49.8321 O   0  0  0  0  0  0  0  0  0  0  0  0
   70.1149   45.0498   50.1793 H   0  0  0  0  0  0  0  0  0  0  0  0
   70.8615   48.2361   48.8872 H   0  0  0  0  0  0  0  0  0  0  0  0
  1  2  1  0  0  0
  1 11  1  0  0  0
  1 15  1  0  0  0
  2  3  2  0  0  0
  3  4  1  0  0  0
  4  5  1  0  0  0
  4 11  2  0  0  0
  5  6  2  0  0  0
  5  7  1  0  0  0
  7  8  1  0  0  0
  8  9  1  0  0  0
  8 10  2  0  0  0
 10 11  1  0  0  0
 15 16  1  0  0  0
 16 17  1  0  0  0
 17 18  1  0  0  0
 18 19  1  0  0  0
 19 20  1  0  0  0
 19 21  1  0  0  0
 19 22  1  0  0  0
 22 23  1  0  0  0
 22 24  2  0  0  0
 22 25  1  0  0  0
  7 12  1  0  0  0
  9 13  1  0  0  0
  9 14  1  0  0  0
 23 26  1  0  0  0
 25 27  1  0  0  0
M  END
> <minimizedAffinity>
-7.25256

$$$$
1V48_HA1_A_290


 27 28  0  0  0  0  0  0  0  0999 V2000
   72.0539   46.8038   50.0565 N   0  0  0  0  0  0  0  0  0  0  0  0
   70.8964   47.5419   50.2150 C   0  0  0  0  0  0  0  0  0  0  0  0
   71.0802   48.7805   49.8407 N   0  0  0  0  0  0  0  0  0  0  0  0
   72.3824   48.8947   49.4206 C   0  0  0  0  0  0  0  0  0  0  0  0
   73.1244   50.0283   48.9075 C   0  0  0  0  0  0  0  0  0  0  0  0
   72.6974   51.1834   48.7357 O   0  0  0  0  0  0  0  0  0  0  0  0
   74.4796   49.7161   48.5834 N   0  0  0  0  0  0  0  0  0  0  0  0
   75.0553   48.4347   48.7431 C   0  0  0  0  0  0  0  0  0  0  0  0
   76.3672   48.2670   48.3946 N   0  0  0  0  0  0  0  0  0  0  0  0
   74.3423   47.3558   49.2333 N   0  0  0  0  0  0  0  0  0  0  0  0
   73.0211   47.6630   49.5487 C   0  0  0  0  0  0  0  0  0  0  0  0
   75.0476   50.4370   48.2271 H   0  0  0  0  0  0  0  0  0  0  0  0
   76.8847   49.0278   48.0445 H   0  0  0  0  0  0  0  0  0  0  0  0
   76.7941   47.3854   48.4938 H   0  0  0  0  0  0  0  0  0  0  0  0
   72.0888   45.4380   50.3198 C   0  0  0  0  0  0  0  0  0  0  0  0
   72.7700   45.1484   51.6829 C   0  0  0  0  0  0  0  0  0  0  0  0
   74.0956   44.3863   51.4536 C   0  0  0  0  0  0  0  0  0  0  0  0
   74.5232   43.5826   52.7230 C   0  0  0  0  0  0  0  0  0  0  0  0
   73.6754   42.2936   52.8830 C   0  0  0  0  0  0  0  0  0  0  0  0
   72.7369   42.2672   51.9213 F   0  0  0  0  0  0  0  0  0  0  0  0
   73.0625   42.3099   54.0775 F   0  0  0  0  0  0  0  0  0  0  0  0
   74.5569   41.0575   52.7946 P   0  0  0  0  0  0  0  0  0  0  0  0
   73.9746   40.0634   51.8474 O   0  0  0  0  0  0  0  0  0  0  0  0
   75.9169   41.4535   52.3299 O   0  0  0  0  0  0  0  0  0  0  0  0
   74.6726   40.4333   54.1596 O   0  0  0  0  0  0  0  0  0  0  0  0
   73.8986   40.4622   50.9665 H   0  0  0  0  0  0  0  0  0  0  0  0
   73.7920   40.1718   54.4713 H   0  0  0  0  0  0  0  0  0  0  0  0
  1  2  1  0  0  0
  1 11  1  0  0  0
  1 15  1  0  0  0
  2  3  2  0  0  0
  3  4  1  0  0  0
  4  5  1  0  0  0
  4 11  2  0  0  0
  5  6  2  0  0  0
  5  7  1  0  0  0
  7  8  1  0  0  0
  8  9  1  0  0  0
  8 10  2  0  0  0
 10 11  1  0  0  0
 15 16  1  0  0  0
 16 17  1  0  0  0
 17 18  1  0  0  0
 18 19  1  0  0  0
 19 20  1  0  0  0
 19 21  1  0  0  0
 19 22  1  0  0  0
 22 23  1  0  0  0
 22 24  2  0  0  0
 22 25  1  0  0  0
  7 12  1  0  0  0
  9 13  1  0  0  0
  9 14  1  0  0  0
 23 26  1  0  0  0
 25 27  1  0  0  0
M  END
> <minimizedAffinity>
-7.18116

$$$$
1V48_HA1_A_290


 27 28  0  0  0  0  0  0  0  0999 V2000
   73.9426   43.5394   52.0227 N   0  0  0  0  0  0  0  0  0  0  0  0
   74.2481   44.5870   51.1749 C   0  0  0  0  0  0  0  0  0  0  0  0
   74.5699   44.1453   49.9876 N   0  0  0  0  0  0  0  0  0  0  0  0
   74.4855   42.7753   50.0213 C   0  0  0  0  0  0  0  0  0  0  0  0
   74.7305   41.7780   48.9994 C   0  0  0  0  0  0  0  0  0  0  0  0
   75.0817   41.9844   47.8245 O   0  0  0  0  0  0  0  0  0  0  0  0
   74.5267   40.4403   49.4555 N   0  0  0  0  0  0  0  0  0  0  0  0
   74.1277   40.1058   50.7700 C   0  0  0  0  0  0  0  0  0  0  0  0
   73.9671   38.7834   51.0804 N   0  0  0  0  0  0  0  0  0  0  0  0
   73.8951   41.0619   51.7418 N   0  0  0  0  0  0  0  0  0  0  0  0
   74.0946   42.3655   51.2943 C   0  0  0  0  0  0  0  0  0  0  0  0
   74.6730   39.7064   48.8158 H   0  0  0  0  0  0  0  0  0  0  0  0
   74.1299   38.0940   50.3968 H   0  0  0  0  0  0  0  0  0  0  0  0
   73.6886   38.5211   51.9876 H   0  0  0  0  0  0  0  0  0  0  0  0
   73.5000   43.7600   53.3232 C   0  0  0  0  0  0  0  0  0  0  0  0
   73.4752   45.2748   53.6561 C   0  0  0  0  0  0  0  0  0  0  0  0
   72.4761   45.5412   54.8057 C   0  0  0  0  0  0  0  0  0  0  0  0
   71.3469   44.4626   54.8471 C   0  0  0  0  0  0  0  0  0  0  0  0
   69.9822   45.0623   54.4184 C   0  0  0  0  0  0  0  0  0  0  0  0
   70.1792   46.3108   53.9612 F   0  0  0  0  0  0  0  0  0  0  0  0
   69.1678   45.1213   55.4842 F   0  0  0  0  0  0  0  0  0  0  0  0
   69.3325   44.2032   53.3447 P   0  0  0  0  0  0  0  0  0  0  0  0
   67.8679   44.0701   53.5930 O   0  0  0  0  0  0  0  0  0  0  0  0
   69.5584   44.8272   52.0097 O   0  0  0  0  0  0  0  0  0  0  0  0
   69.9636   42.8365   53.3551 O   0  0  0  0  0  0  0  0  0  0  0  0
   67.4577   44.9491   53.5869 H   0  0  0  0  0  0  0  0  0  0  0  0
   69.8220   42.4216   54.2204 H   0  0  0  0  0  0  0  0  0  0  0  0
  1  2  1  0  0  0
  1 11  1  0  0  0
  1 15  1  0  0  0
  2  3  2  0  0  0
  3  4  1  0  0  0
  4  5  1  0  0  0
  4 11  2  0  0  0
  5  6  2  0  0  0
  5  7  1  0  0  0
  7  8  1  0  0  0
  8  9  1  0  0  0
  8 10  2  0  0  0
 10 11  1  0  0  0
 15 16  1  0  0  0
 16 17  1  0  0  0
 17 18  1  0  0  0
 18 19  1  0  0  0
 19 20  1  0  0  0
 19 21  1  0  0  0
 19 22  1  0  0  0
 22 23  1  0  0  0
 22 24  2  0  0  0
 22 25  1  0  0  0
  7 12  1  0  0  0
  9 13  1  0  0  0
  9 14  1  0  0  0
 23 26  1  0  0  0
 25 27  1  0  0  0
M  END
> <minimizedAffinity>
-7.16611

$$$$
