4K0Y_1OA_A_401


 29 32  0  0  0  0  0  0  0  0999 V2000
  -67.3787   46.5560   -1.8527 C   0  0  0  0  0  0  0  0  0  0  0  0
  -67.0184   46.5574   -3.2147 C   0  0  0  0  0  0  0  0  0  0  0  0
  -66.1364   47.5122   -3.4001 N   0  0  0  0  0  0  0  0  0  0  0  0
  -65.8566   48.1394   -2.1817 N   0  0  0  0  0  0  0  0  0  0  0  0
  -66.6143   47.5470   -1.2067 C   0  0  0  0  0  0  0  0  0  0  0  0
  -66.5355   47.9496    0.0684 N   0  0  0  0  0  0  0  0  0  0  0  0
  -65.7243   48.9389    0.4155 C   0  0  0  0  0  0  0  0  0  0  0  0
  -64.9231   49.5593   -0.5503 C   0  0  0  0  0  0  0  0  0  0  0  0
  -65.0079   49.1564   -1.8517 C   0  0  0  0  0  0  0  0  0  0  0  0
  -64.2411   49.7366   -2.7959 O   0  0  0  0  0  0  0  0  0  0  0  0
  -64.3035   49.4559   -3.6877 H   0  0  0  0  0  0  0  0  0  0  0  0
  -65.5724   49.3993    1.8458 C   0  0  0  0  0  0  0  0  0  0  0  0
  -66.5981   48.7566    2.7790 C   0  0  0  0  0  0  0  0  0  0  0  0
  -66.2656   49.1969    4.2080 C   0  0  0  0  0  0  0  0  0  0  0  0
  -64.9608   48.6379    4.5984 N   0  0  0  0  0  0  0  0  0  0  0  0
  -63.8805   49.2091    3.7754 C   0  0  0  0  0  0  0  0  0  0  0  0
  -64.1629   48.9490    2.2873 C   0  0  0  0  0  0  0  0  0  0  0  0
  -64.7841   48.8543    5.5794 H   0  0  0  0  0  0  0  0  0  0  0  0
  -68.5174   45.9669    0.1227 N   0  0  0  0  0  0  0  0  0  0  0  0
  -68.2878   45.6500   -1.1734 C   0  0  0  0  0  0  0  0  0  0  0  0
  -68.7283   44.6649   -1.7447 O   0  0  0  0  0  0  0  0  0  0  0  0
  -68.1145   46.8062    0.4429 H   0  0  0  0  0  0  0  0  0  0  0  0
  -68.9454   45.4540    2.4052 C   0  0  0  0  0  0  0  0  0  0  0  0
  -69.6041   44.7441    3.3905 C   0  0  0  0  0  0  0  0  0  0  0  0
  -70.5572   43.8001    3.0257 C   0  0  0  0  0  0  0  0  0  0  0  0
  -70.8507   43.5713    1.6844 C   0  0  0  0  0  0  0  0  0  0  0  0
  -70.1944   44.2758    0.6971 C   0  0  0  0  0  0  0  0  0  0  0  0
  -69.2593   45.2421    1.0592 C   0  0  0  0  0  0  0  0  0  0  0  0
  -71.2085   43.0932    3.9793 F   0  0  0  0  0  0  0  0  0  0  0  0
  3  2  2  0  0  0
  3  4  1  0  0  0
  2  1  1  0  0  0
 10  9  1  0  0  0
  4  9  1  0  0  0
  4  5  1  0  0  0
  9  8  2  0  0  0
  1  5  2  0  0  0
  1 20  1  0  0  0
 21 20  2  0  0  0
  5  6  1  0  0  0
 20 19  1  0  0  0
  8  7  1  0  0  0
  6  7  2  0  0  0
 19 28  1  0  0  0
  7 12  1  0  0  0
 27 28  2  0  0  0
 27 26  1  0  0  0
 28 23  1  0  0  0
 12 17  1  0  0  0
 12 13  1  0  0  0
 17 16  1  0  0  0
 26 25  2  0  0  0
 23 24  2  0  0  0
 13 14  1  0  0  0
 25 24  1  0  0  0
 25 29  1  0  0  0
 16 15  1  0  0  0
 14 15  1  0  0  0
 19 22  1  0  0  0
 10 11  1  0  0  0
 15 18  1  0  0  0
M  END
> <minimizedAffinity>
-10.85280

$$$$
4K0Y_1OA_A_401


 29 32  0  0  0  0  0  0  0  0999 V2000
  -68.2008   45.9911   -0.9578 C   0  0  0  0  0  0  0  0  0  0  0  0
  -69.2850   45.1015   -0.8240 C   0  0  0  0  0  0  0  0  0  0  0  0
  -69.5648   44.9923    0.4542 N   0  0  0  0  0  0  0  0  0  0  0  0
  -68.7169   45.8215    1.1956 N   0  0  0  0  0  0  0  0  0  0  0  0
  -67.8694   46.4587    0.3287 C   0  0  0  0  0  0  0  0  0  0  0  0
  -66.9518   47.3270    0.7740 N   0  0  0  0  0  0  0  0  0  0  0  0
  -66.8383   47.5847    2.0693 C   0  0  0  0  0  0  0  0  0  0  0  0
  -67.6963   46.9641    2.9849 C   0  0  0  0  0  0  0  0  0  0  0  0
  -68.6266   46.0726    2.5343 C   0  0  0  0  0  0  0  0  0  0  0  0
  -69.4661   45.4686    3.3984 O   0  0  0  0  0  0  0  0  0  0  0  0
  -70.1027   44.8575    3.0834 H   0  0  0  0  0  0  0  0  0  0  0  0
  -65.8465   48.5855    2.6133 C   0  0  0  0  0  0  0  0  0  0  0  0
  -64.9705   47.9984    3.7195 C   0  0  0  0  0  0  0  0  0  0  0  0
  -63.9297   49.0566    4.0982 C   0  0  0  0  0  0  0  0  0  0  0  0
  -63.0321   49.2878    2.9543 N   0  0  0  0  0  0  0  0  0  0  0  0
  -63.7681   49.8817    1.8246 C   0  0  0  0  0  0  0  0  0  0  0  0
  -64.9385   48.9693    1.4248 C   0  0  0  0  0  0  0  0  0  0  0  0
  -62.2855   49.9223    3.2378 H   0  0  0  0  0  0  0  0  0  0  0  0
  -66.4302   47.1505   -1.9906 N   0  0  0  0  0  0  0  0  0  0  0  0
  -67.5741   46.4525   -2.1838 C   0  0  0  0  0  0  0  0  0  0  0  0
  -68.1058   46.2603   -3.2660 O   0  0  0  0  0  0  0  0  0  0  0  0
  -66.1058   47.2051   -1.0627 H   0  0  0  0  0  0  0  0  0  0  0  0
  -65.1253   47.0064   -3.9736 C   0  0  0  0  0  0  0  0  0  0  0  0
  -64.3140   47.5682   -4.9405 C   0  0  0  0  0  0  0  0  0  0  0  0
  -64.0104   48.9229   -4.8692 C   0  0  0  0  0  0  0  0  0  0  0  0
  -64.5182   49.7096   -3.8392 C   0  0  0  0  0  0  0  0  0  0  0  0
  -65.3266   49.1530   -2.8705 C   0  0  0  0  0  0  0  0  0  0  0  0
  -65.6560   47.8025   -2.9541 C   0  0  0  0  0  0  0  0  0  0  0  0
  -63.2133   49.4876   -5.8067 F   0  0  0  0  0  0  0  0  0  0  0  0
  3  2  2  0  0  0
  3  4  1  0  0  0
  2  1  1  0  0  0
 10  9  1  0  0  0
  4  9  1  0  0  0
  4  5  1  0  0  0
  9  8  2  0  0  0
  1  5  2  0  0  0
  1 20  1  0  0  0
 21 20  2  0  0  0
  5  6  1  0  0  0
 20 19  1  0  0  0
  8  7  1  0  0  0
  6  7  2  0  0  0
 19 28  1  0  0  0
  7 12  1  0  0  0
 27 28  2  0  0  0
 27 26  1  0  0  0
 28 23  1  0  0  0
 12 17  1  0  0  0
 12 13  1  0  0  0
 17 16  1  0  0  0
 26 25  2  0  0  0
 23 24  2  0  0  0
 13 14  1  0  0  0
 25 24  1  0  0  0
 25 29  1  0  0  0
 16 15  1  0  0  0
 14 15  1  0  0  0
 19 22  1  0  0  0
 10 11  1  0  0  0
 15 18  1  0  0  0
M  END
> <minimizedAffinity>
-10.71953

$$$$
4K0Y_1OA_A_401


 29 32  0  0  0  0  0  0  0  0999 V2000
  -65.2093   47.5925    4.9021 C   0  0  0  0  0  0  0  0  0  0  0  0
  -64.1413   47.8789    5.7751 C   0  0  0  0  0  0  0  0  0  0  0  0
  -63.2488   48.5750    5.1095 N   0  0  0  0  0  0  0  0  0  0  0  0
  -63.7044   48.8043    3.8071 N   0  0  0  0  0  0  0  0  0  0  0  0
  -64.9294   48.2081    3.6667 C   0  0  0  0  0  0  0  0  0  0  0  0
  -65.6037   48.2806    2.5116 N   0  0  0  0  0  0  0  0  0  0  0  0
  -65.0954   48.9276    1.4722 C   0  0  0  0  0  0  0  0  0  0  0  0
  -63.8525   49.5622    1.5817 C   0  0  0  0  0  0  0  0  0  0  0  0
  -63.1598   49.4826    2.7552 C   0  0  0  0  0  0  0  0  0  0  0  0
  -61.9642   50.0913    2.8833 O   0  0  0  0  0  0  0  0  0  0  0  0
  -61.4932   50.0333    3.6912 H   0  0  0  0  0  0  0  0  0  0  0  0
  -65.8365   49.0699    0.1640 C   0  0  0  0  0  0  0  0  0  0  0  0
  -64.9043   49.0094   -1.0456 C   0  0  0  0  0  0  0  0  0  0  0  0
  -65.7758   49.0351   -2.3051 C   0  0  0  0  0  0  0  0  0  0  0  0
  -66.5871   47.8078   -2.3607 N   0  0  0  0  0  0  0  0  0  0  0  0
  -67.5500   47.7672   -1.2463 C   0  0  0  0  0  0  0  0  0  0  0  0
  -66.8042   47.8688    0.0937 C   0  0  0  0  0  0  0  0  0  0  0  0
  -67.0965   47.7832   -3.2441 H   0  0  0  0  0  0  0  0  0  0  0  0
  -66.7031   45.8504    4.3731 N   0  0  0  0  0  0  0  0  0  0  0  0
  -66.4414   46.8860    5.2049 C   0  0  0  0  0  0  0  0  0  0  0  0
  -67.1769   47.2716    6.1001 O   0  0  0  0  0  0  0  0  0  0  0  0
  -66.0063   45.6382    3.7107 H   0  0  0  0  0  0  0  0  0  0  0  0
  -68.8686   45.4449    3.4776 C   0  0  0  0  0  0  0  0  0  0  0  0
  -70.0484   44.7282    3.4223 C   0  0  0  0  0  0  0  0  0  0  0  0
  -70.2156   43.6296    4.2576 C   0  0  0  0  0  0  0  0  0  0  0  0
  -69.2074   43.2498    5.1392 C   0  0  0  0  0  0  0  0  0  0  0  0
  -68.0288   43.9632    5.1995 C   0  0  0  0  0  0  0  0  0  0  0  0
  -67.8462   45.0473    4.3446 C   0  0  0  0  0  0  0  0  0  0  0  0
  -71.3677   42.9194    4.2186 F   0  0  0  0  0  0  0  0  0  0  0  0
  3  2  2  0  0  0
  3  4  1  0  0  0
  2  1  1  0  0  0
 10  9  1  0  0  0
  4  9  1  0  0  0
  4  5  1  0  0  0
  9  8  2  0  0  0
  1  5  2  0  0  0
  1 20  1  0  0  0
 21 20  2  0  0  0
  5  6  1  0  0  0
 20 19  1  0  0  0
  8  7  1  0  0  0
  6  7  2  0  0  0
 19 28  1  0  0  0
  7 12  1  0  0  0
 27 28  2  0  0  0
 27 26  1  0  0  0
 28 23  1  0  0  0
 12 17  1  0  0  0
 12 13  1  0  0  0
 17 16  1  0  0  0
 26 25  2  0  0  0
 23 24  2  0  0  0
 13 14  1  0  0  0
 25 24  1  0  0  0
 25 29  1  0  0  0
 16 15  1  0  0  0
 14 15  1  0  0  0
 19 22  1  0  0  0
 10 11  1  0  0  0
 15 18  1  0  0  0
M  END
> <minimizedAffinity>
-10.40073

$$$$
4K0Y_1OA_A_401


 29 32  0  0  0  0  0  0  0  0999 V2000
  -68.1332   46.1928    3.0789 C   0  0  0  0  0  0  0  0  0  0  0  0
  -68.9423   45.1121    3.4819 C   0  0  0  0  0  0  0  0  0  0  0  0
  -69.4728   44.5790    2.4055 N   0  0  0  0  0  0  0  0  0  0  0  0
  -69.0105   45.2507    1.2692 N   0  0  0  0  0  0  0  0  0  0  0  0
  -68.1662   46.2510    1.6721 C   0  0  0  0  0  0  0  0  0  0  0  0
  -67.5685   47.0509    0.7793 N   0  0  0  0  0  0  0  0  0  0  0  0
  -67.7869   46.8960   -0.5190 C   0  0  0  0  0  0  0  0  0  0  0  0
  -68.6319   45.8754   -0.9703 C   0  0  0  0  0  0  0  0  0  0  0  0
  -69.2487   45.0644   -0.0620 C   0  0  0  0  0  0  0  0  0  0  0  0
  -70.0614   44.0721   -0.4757 O   0  0  0  0  0  0  0  0  0  0  0  0
  -70.4821   43.5185    0.1523 H   0  0  0  0  0  0  0  0  0  0  0  0
  -67.1045   47.7472   -1.5634 C   0  0  0  0  0  0  0  0  0  0  0  0
  -65.9116   48.5190   -1.0005 C   0  0  0  0  0  0  0  0  0  0  0  0
  -65.2302   49.2375   -2.1692 C   0  0  0  0  0  0  0  0  0  0  0  0
  -64.6643   48.2390   -3.0912 N   0  0  0  0  0  0  0  0  0  0  0  0
  -65.7333   47.4435   -3.7198 C   0  0  0  0  0  0  0  0  0  0  0  0
  -66.5867   46.7650   -2.6365 C   0  0  0  0  0  0  0  0  0  0  0  0
  -64.1325   48.7181   -3.8179 H   0  0  0  0  0  0  0  0  0  0  0  0
  -66.0280   47.1583    3.5054 N   0  0  0  0  0  0  0  0  0  0  0  0
  -67.3139   47.0516    3.9155 C   0  0  0  0  0  0  0  0  0  0  0  0
  -67.7731   47.5578    4.9273 O   0  0  0  0  0  0  0  0  0  0  0  0
  -65.8047   46.7145    2.6554 H   0  0  0  0  0  0  0  0  0  0  0  0
  -64.1988   48.6706    3.3551 C   0  0  0  0  0  0  0  0  0  0  0  0
  -63.1181   49.3325    3.9053 C   0  0  0  0  0  0  0  0  0  0  0  0
  -62.8030   49.1236    5.2432 C   0  0  0  0  0  0  0  0  0  0  0  0
  -63.5665   48.2610    6.0247 C   0  0  0  0  0  0  0  0  0  0  0  0
  -64.6448   47.5964    5.4794 C   0  0  0  0  0  0  0  0  0  0  0  0
  -64.9807   47.8245    4.1473 C   0  0  0  0  0  0  0  0  0  0  0  0
  -61.7445   49.7615    5.7962 F   0  0  0  0  0  0  0  0  0  0  0  0
  3  2  2  0  0  0
  3  4  1  0  0  0
  2  1  1  0  0  0
 10  9  1  0  0  0
  4  9  1  0  0  0
  4  5  1  0  0  0
  9  8  2  0  0  0
  1  5  2  0  0  0
  1 20  1  0  0  0
 21 20  2  0  0  0
  5  6  1  0  0  0
 20 19  1  0  0  0
  8  7  1  0  0  0
  6  7  2  0  0  0
 19 28  1  0  0  0
  7 12  1  0  0  0
 27 28  2  0  0  0
 27 26  1  0  0  0
 28 23  1  0  0  0
 12 17  1  0  0  0
 12 13  1  0  0  0
 17 16  1  0  0  0
 26 25  2  0  0  0
 23 24  2  0  0  0
 13 14  1  0  0  0
 25 24  1  0  0  0
 25 29  1  0  0  0
 16 15  1  0  0  0
 14 15  1  0  0  0
 19 22  1  0  0  0
 10 11  1  0  0  0
 15 18  1  0  0  0
M  END
> <minimizedAffinity>
-10.27423

$$$$
4K0Y_1OA_A_401


 29 32  0  0  0  0  0  0  0  0999 V2000
  -69.2477   44.8505   -0.1526 C   0  0  0  0  0  0  0  0  0  0  0  0
  -69.3723   44.2856   -1.4372 C   0  0  0  0  0  0  0  0  0  0  0  0
  -68.6203   44.9794   -2.2602 N   0  0  0  0  0  0  0  0  0  0  0  0
  -67.9521   45.9853   -1.5546 N   0  0  0  0  0  0  0  0  0  0  0  0
  -68.3240   45.9102   -0.2387 C   0  0  0  0  0  0  0  0  0  0  0  0
  -67.8221   46.7571    0.6696 N   0  0  0  0  0  0  0  0  0  0  0  0
  -66.9561   47.6951    0.3126 C   0  0  0  0  0  0  0  0  0  0  0  0
  -66.5406   47.7940   -1.0205 C   0  0  0  0  0  0  0  0  0  0  0  0
  -67.0570   46.9375   -1.9493 C   0  0  0  0  0  0  0  0  0  0  0  0
  -66.6660   47.0121   -3.2369 O   0  0  0  0  0  0  0  0  0  0  0  0
  -67.0239   46.4215   -3.8702 H   0  0  0  0  0  0  0  0  0  0  0  0
  -66.3335   48.6453    1.3078 C   0  0  0  0  0  0  0  0  0  0  0  0
  -66.1762   48.0202    2.6936 C   0  0  0  0  0  0  0  0  0  0  0  0
  -65.4243   49.0239    3.5730 C   0  0  0  0  0  0  0  0  0  0  0  0
  -64.0580   49.1986    3.0532 N   0  0  0  0  0  0  0  0  0  0  0  0
  -64.0826   49.8229    1.7189 C   0  0  0  0  0  0  0  0  0  0  0  0
  -64.9278   48.9715    0.7583 C   0  0  0  0  0  0  0  0  0  0  0  0
  -63.5308   49.7944    3.6916 H   0  0  0  0  0  0  0  0  0  0  0  0
  -69.0972   44.6007    2.1843 N   0  0  0  0  0  0  0  0  0  0  0  0
  -69.8578   44.3938    1.0835 C   0  0  0  0  0  0  0  0  0  0  0  0
  -70.9351   43.8192    1.0715 O   0  0  0  0  0  0  0  0  0  0  0  0
  -68.2599   45.1000    2.0465 H   0  0  0  0  0  0  0  0  0  0  0  0
  -69.7834   45.1771    4.3871 C   0  0  0  0  0  0  0  0  0  0  0  0
  -70.0239   44.8586    5.7098 C   0  0  0  0  0  0  0  0  0  0  0  0
  -69.8131   43.5548    6.1436 C   0  0  0  0  0  0  0  0  0  0  0  0
  -69.3679   42.5767    5.2587 C   0  0  0  0  0  0  0  0  0  0  0  0
  -69.1244   42.8903    3.9381 C   0  0  0  0  0  0  0  0  0  0  0  0
  -69.3613   44.1884    3.4931 C   0  0  0  0  0  0  0  0  0  0  0  0
  -70.0401   43.2276    7.4377 F   0  0  0  0  0  0  0  0  0  0  0  0
  3  2  2  0  0  0
  3  4  1  0  0  0
  2  1  1  0  0  0
 10  9  1  0  0  0
  4  9  1  0  0  0
  4  5  1  0  0  0
  9  8  2  0  0  0
  1  5  2  0  0  0
  1 20  1  0  0  0
 21 20  2  0  0  0
  5  6  1  0  0  0
 20 19  1  0  0  0
  8  7  1  0  0  0
  6  7  2  0  0  0
 19 28  1  0  0  0
  7 12  1  0  0  0
 27 28  2  0  0  0
 27 26  1  0  0  0
 28 23  1  0  0  0
 12 17  1  0  0  0
 12 13  1  0  0  0
 17 16  1  0  0  0
 26 25  2  0  0  0
 23 24  2  0  0  0
 13 14  1  0  0  0
 25 24  1  0  0  0
 25 29  1  0  0  0
 16 15  1  0  0  0
 14 15  1  0  0  0
 19 22  1  0  0  0
 10 11  1  0  0  0
 15 18  1  0  0  0
M  END
> <minimizedAffinity>
-10.02836

$$$$
4K0Y_1OA_A_401


 29 32  0  0  0  0  0  0  0  0999 V2000
  -66.4118   47.6115    3.9022 C   0  0  0  0  0  0  0  0  0  0  0  0
  -65.4750   48.5246    4.4251 C   0  0  0  0  0  0  0  0  0  0  0  0
  -64.9626   49.1992    3.4219 N   0  0  0  0  0  0  0  0  0  0  0  0
  -65.5602   48.7919    2.2248 N   0  0  0  0  0  0  0  0  0  0  0  0
  -66.4732   47.8115    2.5095 C   0  0  0  0  0  0  0  0  0  0  0  0
  -67.2028   47.2454    1.5392 N   0  0  0  0  0  0  0  0  0  0  0  0
  -67.0521   47.6178    0.2760 C   0  0  0  0  0  0  0  0  0  0  0  0
  -66.1393   48.6270   -0.0526 C   0  0  0  0  0  0  0  0  0  0  0  0
  -65.3887   49.1995    0.9333 C   0  0  0  0  0  0  0  0  0  0  0  0
  -64.5085   50.1766    0.6392 O   0  0  0  0  0  0  0  0  0  0  0  0
  -63.9958   50.5660    1.3200 H   0  0  0  0  0  0  0  0  0  0  0  0
  -67.8805   47.0369   -0.8453 C   0  0  0  0  0  0  0  0  0  0  0  0
  -67.0392   46.6836   -2.0713 C   0  0  0  0  0  0  0  0  0  0  0  0
  -67.9591   45.9914   -3.0818 C   0  0  0  0  0  0  0  0  0  0  0  0
  -68.4163   44.7078   -2.5243 N   0  0  0  0  0  0  0  0  0  0  0  0
  -69.2659   44.9256   -1.3404 C   0  0  0  0  0  0  0  0  0  0  0  0
  -68.4960   45.7360   -0.2857 C   0  0  0  0  0  0  0  0  0  0  0  0
  -68.9522   44.2071   -3.2331 H   0  0  0  0  0  0  0  0  0  0  0  0
  -67.6922   45.6350    3.9021 N   0  0  0  0  0  0  0  0  0  0  0  0
  -67.2587   46.6873    4.6354 C   0  0  0  0  0  0  0  0  0  0  0  0
  -67.5779   46.9177    5.7912 O   0  0  0  0  0  0  0  0  0  0  0  0
  -67.3324   45.5643    2.9885 H   0  0  0  0  0  0  0  0  0  0  0  0
  -69.9196   44.8019    3.8891 C   0  0  0  0  0  0  0  0  0  0  0  0
  -70.8773   43.8813    4.2689 C   0  0  0  0  0  0  0  0  0  0  0  0
  -70.5084   42.8110    5.0757 C   0  0  0  0  0  0  0  0  0  0  0  0
  -69.1898   42.6621    5.4962 C   0  0  0  0  0  0  0  0  0  0  0  0
  -68.2308   43.5795    5.1216 C   0  0  0  0  0  0  0  0  0  0  0  0
  -68.5904   44.6374    4.2904 C   0  0  0  0  0  0  0  0  0  0  0  0
  -71.4359   41.9026    5.4600 F   0  0  0  0  0  0  0  0  0  0  0  0
  3  2  2  0  0  0
  3  4  1  0  0  0
  2  1  1  0  0  0
 10  9  1  0  0  0
  4  9  1  0  0  0
  4  5  1  0  0  0
  9  8  2  0  0  0
  1  5  2  0  0  0
  1 20  1  0  0  0
 21 20  2  0  0  0
  5  6  1  0  0  0
 20 19  1  0  0  0
  8  7  1  0  0  0
  6  7  2  0  0  0
 19 28  1  0  0  0
  7 12  1  0  0  0
 27 28  2  0  0  0
 27 26  1  0  0  0
 28 23  1  0  0  0
 12 17  1  0  0  0
 12 13  1  0  0  0
 17 16  1  0  0  0
 26 25  2  0  0  0
 23 24  2  0  0  0
 13 14  1  0  0  0
 25 24  1  0  0  0
 25 29  1  0  0  0
 16 15  1  0  0  0
 14 15  1  0  0  0
 19 22  1  0  0  0
 10 11  1  0  0  0
 15 18  1  0  0  0
M  END
> <minimizedAffinity>
-9.80637

$$$$
4K0Y_1OA_A_401


 29 32  0  0  0  0  0  0  0  0999 V2000
  -65.3353   48.6973   -0.1434 C   0  0  0  0  0  0  0  0  0  0  0  0
  -64.9526   48.9974   -1.4657 C   0  0  0  0  0  0  0  0  0  0  0  0
  -65.7064   48.2913   -2.2764 N   0  0  0  0  0  0  0  0  0  0  0  0
  -66.6252   47.5423   -1.5342 N   0  0  0  0  0  0  0  0  0  0  0  0
  -66.4138   47.7936   -0.2046 C   0  0  0  0  0  0  0  0  0  0  0  0
  -67.1676   47.2098    0.7363 N   0  0  0  0  0  0  0  0  0  0  0  0
  -68.1343   46.3672    0.4007 C   0  0  0  0  0  0  0  0  0  0  0  0
  -68.3903   46.0963   -0.9486 C   0  0  0  0  0  0  0  0  0  0  0  0
  -67.6181   46.6835   -1.9089 C   0  0  0  0  0  0  0  0  0  0  0  0
  -67.8516   46.4408   -3.2137 O   0  0  0  0  0  0  0  0  0  0  0  0
  -67.3183   46.8467   -3.8686 H   0  0  0  0  0  0  0  0  0  0  0  0
  -69.0350   45.7171    1.4239 C   0  0  0  0  0  0  0  0  0  0  0  0
  -69.6769   44.4309    0.9047 C   0  0  0  0  0  0  0  0  0  0  0  0
  -70.4574   43.8014    2.0627 C   0  0  0  0  0  0  0  0  0  0  0  0
  -69.5157   43.3846    3.1148 N   0  0  0  0  0  0  0  0  0  0  0  0
  -68.8488   44.5546    3.7122 C   0  0  0  0  0  0  0  0  0  0  0  0
  -68.1264   45.3595    2.6202 C   0  0  0  0  0  0  0  0  0  0  0  0
  -70.0266   42.8834    3.8416 H   0  0  0  0  0  0  0  0  0  0  0  0
  -65.0416   48.5134    2.1859 N   0  0  0  0  0  0  0  0  0  0  0  0
  -64.8138   49.2686    1.0856 C   0  0  0  0  0  0  0  0  0  0  0  0
  -64.2826   50.3680    1.0854 O   0  0  0  0  0  0  0  0  0  0  0  0
  -65.4597   47.6355    2.0316 H   0  0  0  0  0  0  0  0  0  0  0  0
  -63.4009   48.8730    3.8695 C   0  0  0  0  0  0  0  0  0  0  0  0
  -63.0339   49.1405    5.1743 C   0  0  0  0  0  0  0  0  0  0  0  0
  -64.0228   49.3402    6.1307 C   0  0  0  0  0  0  0  0  0  0  0  0
  -65.3690   49.2756    5.7823 C   0  0  0  0  0  0  0  0  0  0  0  0
  -65.7403   49.0068    4.4817 C   0  0  0  0  0  0  0  0  0  0  0  0
  -64.7528   48.8341    3.5150 C   0  0  0  0  0  0  0  0  0  0  0  0
  -63.6795   49.5991    7.4146 F   0  0  0  0  0  0  0  0  0  0  0  0
  3  2  2  0  0  0
  3  4  1  0  0  0
  2  1  1  0  0  0
 10  9  1  0  0  0
  4  9  1  0  0  0
  4  5  1  0  0  0
  9  8  2  0  0  0
  1  5  2  0  0  0
  1 20  1  0  0  0
 21 20  2  0  0  0
  5  6  1  0  0  0
 20 19  1  0  0  0
  8  7  1  0  0  0
  6  7  2  0  0  0
 19 28  1  0  0  0
  7 12  1  0  0  0
 27 28  2  0  0  0
 27 26  1  0  0  0
 28 23  1  0  0  0
 12 17  1  0  0  0
 12 13  1  0  0  0
 17 16  1  0  0  0
 26 25  2  0  0  0
 23 24  2  0  0  0
 13 14  1  0  0  0
 25 24  1  0  0  0
 25 29  1  0  0  0
 16 15  1  0  0  0
 14 15  1  0  0  0
 19 22  1  0  0  0
 10 11  1  0  0  0
 15 18  1  0  0  0
M  END
> <minimizedAffinity>
-9.75562

$$$$
4K0Y_1OA_A_401


 29 32  0  0  0  0  0  0  0  0999 V2000
  -68.8948   45.1150   -0.0507 C   0  0  0  0  0  0  0  0  0  0  0  0
  -70.1398   44.4607   -0.1314 C   0  0  0  0  0  0  0  0  0  0  0  0
  -70.5514   44.2195    1.0919 N   0  0  0  0  0  0  0  0  0  0  0  0
  -69.6291   44.7321    2.0100 N   0  0  0  0  0  0  0  0  0  0  0  0
  -68.5975   45.3030    1.3132 C   0  0  0  0  0  0  0  0  0  0  0  0
  -67.5724   45.8836    1.9504 N   0  0  0  0  0  0  0  0  0  0  0  0
  -67.5297   45.9127    3.2750 C   0  0  0  0  0  0  0  0  0  0  0  0
  -68.5727   45.3526    4.0219 C   0  0  0  0  0  0  0  0  0  0  0  0
  -69.6143   44.7530    3.3748 C   0  0  0  0  0  0  0  0  0  0  0  0
  -70.6314   44.2130    4.0750 O   0  0  0  0  0  0  0  0  0  0  0  0
  -71.3438   43.8026    3.6254 H   0  0  0  0  0  0  0  0  0  0  0  0
  -66.4153   46.5910    4.0359 C   0  0  0  0  0  0  0  0  0  0  0  0
  -65.8434   47.7939    3.2864 C   0  0  0  0  0  0  0  0  0  0  0  0
  -64.8199   48.4692    4.2045 C   0  0  0  0  0  0  0  0  0  0  0  0
  -65.5111   49.0203    5.3819 N   0  0  0  0  0  0  0  0  0  0  0  0
  -66.0871   47.9405    6.2023 C   0  0  0  0  0  0  0  0  0  0  0  0
  -67.0469   47.0928    5.3525 C   0  0  0  0  0  0  0  0  0  0  0  0
  -64.8442   49.5485    5.9446 H   0  0  0  0  0  0  0  0  0  0  0  0
  -67.2661   46.6422   -0.7998 N   0  0  0  0  0  0  0  0  0  0  0  0
  -68.0803   45.6165   -1.1434 C   0  0  0  0  0  0  0  0  0  0  0  0
  -68.2033   45.1641   -2.2708 O   0  0  0  0  0  0  0  0  0  0  0  0
  -67.2529   46.8860    0.1539 H   0  0  0  0  0  0  0  0  0  0  0  0
  -65.9787   48.6136   -1.1345 C   0  0  0  0  0  0  0  0  0  0  0  0
  -65.1941   49.4365   -1.9193 C   0  0  0  0  0  0  0  0  0  0  0  0
  -64.8982   49.0523   -3.2222 C   0  0  0  0  0  0  0  0  0  0  0  0
  -65.3818   47.8514   -3.7339 C   0  0  0  0  0  0  0  0  0  0  0  0
  -66.1670   47.0276   -2.9551 C   0  0  0  0  0  0  0  0  0  0  0  0
  -66.4423   47.3954   -1.6405 C   0  0  0  0  0  0  0  0  0  0  0  0
  -64.1342   49.8497   -4.0055 F   0  0  0  0  0  0  0  0  0  0  0  0
  3  2  2  0  0  0
  3  4  1  0  0  0
  2  1  1  0  0  0
 10  9  1  0  0  0
  4  9  1  0  0  0
  4  5  1  0  0  0
  9  8  2  0  0  0
  1  5  2  0  0  0
  1 20  1  0  0  0
 21 20  2  0  0  0
  5  6  1  0  0  0
 20 19  1  0  0  0
  8  7  1  0  0  0
  6  7  2  0  0  0
 19 28  1  0  0  0
  7 12  1  0  0  0
 27 28  2  0  0  0
 27 26  1  0  0  0
 28 23  1  0  0  0
 12 17  1  0  0  0
 12 13  1  0  0  0
 17 16  1  0  0  0
 26 25  2  0  0  0
 23 24  2  0  0  0
 13 14  1  0  0  0
 25 24  1  0  0  0
 25 29  1  0  0  0
 16 15  1  0  0  0
 14 15  1  0  0  0
 19 22  1  0  0  0
 10 11  1  0  0  0
 15 18  1  0  0  0
M  END
> <minimizedAffinity>
-9.67738

$$$$
4K0Y_1OA_A_401


 29 32  0  0  0  0  0  0  0  0999 V2000
  -67.0450   47.6652    0.9521 C   0  0  0  0  0  0  0  0  0  0  0  0
  -67.1917   47.8385   -0.4384 C   0  0  0  0  0  0  0  0  0  0  0  0
  -68.0270   46.9245   -0.8753 N   0  0  0  0  0  0  0  0  0  0  0  0
  -68.4858   46.1529    0.1973 N   0  0  0  0  0  0  0  0  0  0  0  0
  -67.8917   46.6099    1.3436 C   0  0  0  0  0  0  0  0  0  0  0  0
  -68.1623   46.0517    2.5307 N   0  0  0  0  0  0  0  0  0  0  0  0
  -69.0092   45.0360    2.6222 C   0  0  0  0  0  0  0  0  0  0  0  0
  -69.6474   44.5506    1.4748 C   0  0  0  0  0  0  0  0  0  0  0  0
  -69.3669   45.1124    0.2628 C   0  0  0  0  0  0  0  0  0  0  0  0
  -69.9747   44.6638   -0.8532 O   0  0  0  0  0  0  0  0  0  0  0  0
  -69.7782   45.0532   -1.6825 H   0  0  0  0  0  0  0  0  0  0  0  0
  -69.3755   44.4019    3.9431 C   0  0  0  0  0  0  0  0  0  0  0  0
  -69.2887   42.8765    3.9033 C   0  0  0  0  0  0  0  0  0  0  0  0
  -69.5547   42.3594    5.3204 C   0  0  0  0  0  0  0  0  0  0  0  0
  -68.4690   42.8009    6.2115 N   0  0  0  0  0  0  0  0  0  0  0  0
  -68.4693   44.2679    6.3478 C   0  0  0  0  0  0  0  0  0  0  0  0
  -68.3398   44.9222    4.9633 C   0  0  0  0  0  0  0  0  0  0  0  0
  -68.5988   42.3794    7.1312 H   0  0  0  0  0  0  0  0  0  0  0  0
  -65.9187   47.8269    3.0139 N   0  0  0  0  0  0  0  0  0  0  0  0
  -66.2585   48.4685    1.8711 C   0  0  0  0  0  0  0  0  0  0  0  0
  -66.0076   49.6368    1.6198 O   0  0  0  0  0  0  0  0  0  0  0  0
  -66.1678   46.8760    3.0690 H   0  0  0  0  0  0  0  0  0  0  0  0
  -66.0598   48.8705    5.1462 C   0  0  0  0  0  0  0  0  0  0  0  0
  -65.4806   49.4502    6.2585 C   0  0  0  0  0  0  0  0  0  0  0  0
  -64.0955   49.5411    6.3336 C   0  0  0  0  0  0  0  0  0  0  0  0
  -63.2964   49.0522    5.3039 C   0  0  0  0  0  0  0  0  0  0  0  0
  -63.8699   48.4748    4.1906 C   0  0  0  0  0  0  0  0  0  0  0  0
  -65.2559   48.3563    4.1244 C   0  0  0  0  0  0  0  0  0  0  0  0
  -63.5126   50.1103    7.4151 F   0  0  0  0  0  0  0  0  0  0  0  0
  3  2  2  0  0  0
  3  4  1  0  0  0
  2  1  1  0  0  0
 10  9  1  0  0  0
  4  9  1  0  0  0
  4  5  1  0  0  0
  9  8  2  0  0  0
  1  5  2  0  0  0
  1 20  1  0  0  0
 21 20  2  0  0  0
  5  6  1  0  0  0
 20 19  1  0  0  0
  8  7  1  0  0  0
  6  7  2  0  0  0
 19 28  1  0  0  0
  7 12  1  0  0  0
 27 28  2  0  0  0
 27 26  1  0  0  0
 28 23  1  0  0  0
 12 17  1  0  0  0
 12 13  1  0  0  0
 17 16  1  0  0  0
 26 25  2  0  0  0
 23 24  2  0  0  0
 13 14  1  0  0  0
 25 24  1  0  0  0
 25 29  1  0  0  0
 16 15  1  0  0  0
 14 15  1  0  0  0
 19 22  1  0  0  0
 10 11  1  0  0  0
 15 18  1  0  0  0
M  END
> <minimizedAffinity>
-9.67541

$$$$
4K0Y_1OA_A_401


 29 32  0  0  0  0  0  0  0  0999 V2000
  -67.4693   47.5552   -0.1090 C   0  0  0  0  0  0  0  0  0  0  0  0
  -67.3983   48.1397   -1.3889 C   0  0  0  0  0  0  0  0  0  0  0  0
  -66.4663   49.0641   -1.3616 N   0  0  0  0  0  0  0  0  0  0  0  0
  -65.8703   49.0964   -0.0967 N   0  0  0  0  0  0  0  0  0  0  0  0
  -66.4768   48.1542    0.6908 C   0  0  0  0  0  0  0  0  0  0  0  0
  -66.0911   47.9632    1.9593 N   0  0  0  0  0  0  0  0  0  0  0  0
  -65.1146   48.6893    2.4850 C   0  0  0  0  0  0  0  0  0  0  0  0
  -64.4607   49.6519    1.7070 C   0  0  0  0  0  0  0  0  0  0  0  0
  -64.8576   49.8542    0.4167 C   0  0  0  0  0  0  0  0  0  0  0  0
  -64.2375   50.7719   -0.3510 O   0  0  0  0  0  0  0  0  0  0  0  0
  -64.5142   50.9064   -1.2361 H   0  0  0  0  0  0  0  0  0  0  0  0
  -64.6193   48.4818    3.8966 C   0  0  0  0  0  0  0  0  0  0  0  0
  -63.2856   49.1813    4.1569 C   0  0  0  0  0  0  0  0  0  0  0  0
  -62.9527   49.0082    5.6420 C   0  0  0  0  0  0  0  0  0  0  0  0
  -63.9495   49.7285    6.4515 N   0  0  0  0  0  0  0  0  0  0  0  0
  -65.2833   49.1217    6.2990 C   0  0  0  0  0  0  0  0  0  0  0  0
  -65.6875   49.1121    4.8163 C   0  0  0  0  0  0  0  0  0  0  0  0
  -63.6745   49.6898    7.4330 H   0  0  0  0  0  0  0  0  0  0  0  0
  -68.5302   46.4203    1.6609 N   0  0  0  0  0  0  0  0  0  0  0  0
  -68.3206   46.4613    0.3239 C   0  0  0  0  0  0  0  0  0  0  0  0
  -68.7327   45.6375   -0.4776 O   0  0  0  0  0  0  0  0  0  0  0  0
  -68.1558   47.1666    2.1826 H   0  0  0  0  0  0  0  0  0  0  0  0
  -69.2568   45.6083    3.7747 C   0  0  0  0  0  0  0  0  0  0  0  0
  -69.8785   44.6628    4.5674 C   0  0  0  0  0  0  0  0  0  0  0  0
  -70.4338   43.5360    3.9718 C   0  0  0  0  0  0  0  0  0  0  0  0
  -70.3697   43.3592    2.5926 C   0  0  0  0  0  0  0  0  0  0  0  0
  -69.7483   44.2991    1.7974 C   0  0  0  0  0  0  0  0  0  0  0  0
  -69.2157   45.4428    2.3870 C   0  0  0  0  0  0  0  0  0  0  0  0
  -71.0427   42.5982    4.7353 F   0  0  0  0  0  0  0  0  0  0  0  0
  3  2  2  0  0  0
  3  4  1  0  0  0
  2  1  1  0  0  0
 10  9  1  0  0  0
  4  9  1  0  0  0
  4  5  1  0  0  0
  9  8  2  0  0  0
  1  5  2  0  0  0
  1 20  1  0  0  0
 21 20  2  0  0  0
  5  6  1  0  0  0
 20 19  1  0  0  0
  8  7  1  0  0  0
  6  7  2  0  0  0
 19 28  1  0  0  0
  7 12  1  0  0  0
 27 28  2  0  0  0
 27 26  1  0  0  0
 28 23  1  0  0  0
 12 17  1  0  0  0
 12 13  1  0  0  0
 17 16  1  0  0  0
 26 25  2  0  0  0
 23 24  2  0  0  0
 13 14  1  0  0  0
 25 24  1  0  0  0
 25 29  1  0  0  0
 16 15  1  0  0  0
 14 15  1  0  0  0
 19 22  1  0  0  0
 10 11  1  0  0  0
 15 18  1  0  0  0
M  END
> <minimizedAffinity>
-9.56359

$$$$
