5SZ2_72G_A_307


 20 21  0  0  0  0  0  0  0  0999 V2000
   17.3744   -1.7057   81.6375 C   0  0  0  0  0  0  0  0  0  0  0  0
   17.5670   -1.5211   82.9238 C   0  0  0  0  0  0  0  0  0  0  0  0
   16.5618   -0.7041   83.7226 C   0  0  0  0  0  0  0  0  0  0  0  0
   15.5082   -0.1957   83.1118 C   0  0  0  0  0  0  0  0  0  0  0  0
   15.2831   -0.4096   81.6224 C   0  0  0  0  0  0  0  0  0  0  0  0
   16.1550   -1.1185   80.9409 C   0  0  0  0  0  0  0  0  0  0  0  0
   20.2850   -3.9138   80.5832 C   0  0  0  0  0  0  0  0  0  0  0  0
   19.4344   -3.1496   81.3782 C   0  0  0  0  0  0  0  0  0  0  0  0
   20.0267   -4.0571   79.2304 C   0  0  0  0  0  0  0  0  0  0  0  0
   18.9284   -3.4399   78.6640 C   0  0  0  0  0  0  0  0  0  0  0  0
   18.0791   -2.6805   79.4486 C   0  0  0  0  0  0  0  0  0  0  0  0
   18.3356   -2.5287   80.8018 C   0  0  0  0  0  0  0  0  0  0  0  0
   22.0374   -5.4760   80.5745 O   0  0  0  0  0  0  0  0  0  0  0  0
   21.5125   -4.6093   81.1794 C   0  0  0  0  0  0  0  0  0  0  0  0
   14.3018    0.7683   84.0449 S   0  0  0  0  0  0  0  0  0  0  0  0
   13.9624    1.9689   83.2652 O   0  0  0  0  0  0  0  0  0  0  0  0
   13.0473   -0.0032   84.1417 O   0  0  0  0  0  0  0  0  0  0  0  0
   14.9013    1.1304   85.5725 N   0  0  0  0  0  0  0  0  0  0  0  0
   15.7666    1.6627   85.4808 H   0  0  0  0  0  0  0  0  0  0  0  0
   15.0867    0.2647   86.0790 H   0  0  0  0  0  0  0  0  0  0  0  0
  9 10  2  0  0  0
  9  7  1  0  0  0
 14  7  1  0  0  0
 14 13  2  0  0  0
 10 11  1  0  0  0
  7  8  2  0  0  0
 11 12  2  0  0  0
  8 12  1  0  0  0
 12  1  1  0  0  0
  6  1  2  0  0  0
  6  5  1  0  0  0
  1  2  1  0  0  0
  5  4  2  0  0  0
  2  3  2  0  0  0
  4  3  1  0  0  0
  4 15  1  0  0  0
 18 15  1  0  0  0
 15 16  2  0  0  0
 15 17  2  0  0  0
 18 19  1  0  0  0
 18 20  1  0  0  0
M  END
> <minimizedAffinity>
-5.30825

$$$$
5SZ2_72G_A_307


 20 21  0  0  0  0  0  0  0  0999 V2000
   17.1637   -1.5462   81.4331 C   0  0  0  0  0  0  0  0  0  0  0  0
   16.0913   -1.0287   80.8782 C   0  0  0  0  0  0  0  0  0  0  0  0
   15.0916   -0.2725   81.7412 C   0  0  0  0  0  0  0  0  0  0  0  0
   15.3186   -0.1441   83.0349 C   0  0  0  0  0  0  0  0  0  0  0  0
   16.5607   -0.7419   83.6787 C   0  0  0  0  0  0  0  0  0  0  0  0
   17.4199   -1.3912   82.9255 C   0  0  0  0  0  0  0  0  0  0  0  0
   18.8248   -3.6319   78.7220 C   0  0  0  0  0  0  0  0  0  0  0  0
   17.8433   -2.9754   79.4604 C   0  0  0  0  0  0  0  0  0  0  0  0
   20.1460   -3.5911   79.1347 C   0  0  0  0  0  0  0  0  0  0  0  0
   20.4945   -2.9039   80.2811 C   0  0  0  0  0  0  0  0  0  0  0  0
   19.5243   -2.2489   81.0181 C   0  0  0  0  0  0  0  0  0  0  0  0
   18.1997   -2.2909   80.6135 C   0  0  0  0  0  0  0  0  0  0  0  0
   17.4017   -4.8914   77.3437 O   0  0  0  0  0  0  0  0  0  0  0  0
   18.4717   -4.4047   77.4477 C   0  0  0  0  0  0  0  0  0  0  0  0
   14.1485    0.7565   84.0717 S   0  0  0  0  0  0  0  0  0  0  0  0
   13.6860    1.9405   83.3308 O   0  0  0  0  0  0  0  0  0  0  0  0
   12.9461   -0.0767   84.2680 O   0  0  0  0  0  0  0  0  0  0  0  0
   14.8551    1.1446   85.5462 N   0  0  0  0  0  0  0  0  0  0  0  0
   15.6823    1.7194   85.3859 H   0  0  0  0  0  0  0  0  0  0  0  0
   15.1249    0.2880   86.0298 H   0  0  0  0  0  0  0  0  0  0  0  0
  9 10  2  0  0  0
  9  7  1  0  0  0
 14  7  1  0  0  0
 14 13  2  0  0  0
 10 11  1  0  0  0
  7  8  2  0  0  0
 11 12  2  0  0  0
  8 12  1  0  0  0
 12  1  1  0  0  0
  6  1  2  0  0  0
  6  5  1  0  0  0
  1  2  1  0  0  0
  5  4  2  0  0  0
  2  3  2  0  0  0
  4  3  1  0  0  0
  4 15  1  0  0  0
 18 15  1  0  0  0
 15 16  2  0  0  0
 15 17  2  0  0  0
 18 19  1  0  0  0
 18 20  1  0  0  0
M  END
> <minimizedAffinity>
-5.27769

$$$$
5SZ2_72G_A_307


 20 21  0  0  0  0  0  0  0  0999 V2000
   18.4327   -1.4991   82.4276 C   0  0  0  0  0  0  0  0  0  0  0  0
   18.4521   -0.6978   83.4684 C   0  0  0  0  0  0  0  0  0  0  0  0
   17.1560   -0.0603   83.9479 C   0  0  0  0  0  0  0  0  0  0  0  0
   16.0298   -0.3251   83.3130 C   0  0  0  0  0  0  0  0  0  0  0  0
   16.0055   -1.2538   82.1082 C   0  0  0  0  0  0  0  0  0  0  0  0
   17.1290   -1.8018   81.7025 C   0  0  0  0  0  0  0  0  0  0  0  0
   21.5951   -2.2654   80.4601 C   0  0  0  0  0  0  0  0  0  0  0  0
   20.4319   -1.6276   80.8840 C   0  0  0  0  0  0  0  0  0  0  0  0
   22.0119   -3.4311   81.0805 C   0  0  0  0  0  0  0  0  0  0  0  0
   21.2742   -3.9677   82.1178 C   0  0  0  0  0  0  0  0  0  0  0  0
   20.1186   -3.3382   82.5441 C   0  0  0  0  0  0  0  0  0  0  0  0
   19.6933   -2.1747   81.9234 C   0  0  0  0  0  0  0  0  0  0  0  0
   22.4236   -0.5362   79.1056 O   0  0  0  0  0  0  0  0  0  0  0  0
   22.4346   -1.6981   79.3115 C   0  0  0  0  0  0  0  0  0  0  0  0
   14.4825    0.4151   83.8728 S   0  0  0  0  0  0  0  0  0  0  0  0
   14.0500    1.4023   82.8714 O   0  0  0  0  0  0  0  0  0  0  0  0
   13.4326   -0.6223   83.8787 O   0  0  0  0  0  0  0  0  0  0  0  0
   14.6753    1.0804   85.4039 N   0  0  0  0  0  0  0  0  0  0  0  0
   15.4043    1.7932   85.3755 H   0  0  0  0  0  0  0  0  0  0  0  0
   14.9414    0.3479   86.0618 H   0  0  0  0  0  0  0  0  0  0  0  0
  9 10  2  0  0  0
  9  7  1  0  0  0
 14  7  1  0  0  0
 14 13  2  0  0  0
 10 11  1  0  0  0
  7  8  2  0  0  0
 11 12  2  0  0  0
  8 12  1  0  0  0
 12  1  1  0  0  0
  6  1  2  0  0  0
  6  5  1  0  0  0
  1  2  1  0  0  0
  5  4  2  0  0  0
  2  3  2  0  0  0
  4  3  1  0  0  0
  4 15  1  0  0  0
 18 15  1  0  0  0
 15 16  2  0  0  0
 15 17  2  0  0  0
 18 19  1  0  0  0
 18 20  1  0  0  0
M  END
> <minimizedAffinity>
-4.77426

$$$$
5SZ2_72G_A_307


 20 21  0  0  0  0  0  0  0  0999 V2000
   16.4029    0.3257   79.5204 C   0  0  0  0  0  0  0  0  0  0  0  0
   16.3134    1.4725   80.1548 C   0  0  0  0  0  0  0  0  0  0  0  0
   15.7503    1.5051   81.5683 C   0  0  0  0  0  0  0  0  0  0  0  0
   15.3635    0.3794   82.1381 C   0  0  0  0  0  0  0  0  0  0  0  0
   15.4677   -0.9497   81.4051 C   0  0  0  0  0  0  0  0  0  0  0  0
   15.9574   -0.9689   80.1856 C   0  0  0  0  0  0  0  0  0  0  0  0
   17.9011   -1.0215   76.2955 C   0  0  0  0  0  0  0  0  0  0  0  0
   17.3987   -0.9750   77.5936 C   0  0  0  0  0  0  0  0  0  0  0  0
   17.9670    0.1344   75.5360 C   0  0  0  0  0  0  0  0  0  0  0  0
   17.5396    1.3373   76.0636 C   0  0  0  0  0  0  0  0  0  0  0  0
   17.0385    1.3897   77.3519 C   0  0  0  0  0  0  0  0  0  0  0  0
   16.9754    0.2374   78.1189 C   0  0  0  0  0  0  0  0  0  0  0  0
   17.7469   -3.3187   75.8364 O   0  0  0  0  0  0  0  0  0  0  0  0
   18.3854   -2.3384   75.6815 C   0  0  0  0  0  0  0  0  0  0  0  0
   14.7016    0.3982   83.8165 S   0  0  0  0  0  0  0  0  0  0  0  0
   13.9806    1.6647   84.0180 O   0  0  0  0  0  0  0  0  0  0  0  0
   13.6781   -0.6584   83.9371 O   0  0  0  0  0  0  0  0  0  0  0  0
   15.9363    0.1658   84.9325 N   0  0  0  0  0  0  0  0  0  0  0  0
   16.6304    0.9062   84.8307 H   0  0  0  0  0  0  0  0  0  0  0  0
   16.3776   -0.7389   84.7677 H   0  0  0  0  0  0  0  0  0  0  0  0
  9 10  2  0  0  0
  9  7  1  0  0  0
 14  7  1  0  0  0
 14 13  2  0  0  0
 10 11  1  0  0  0
  7  8  2  0  0  0
 11 12  2  0  0  0
  8 12  1  0  0  0
 12  1  1  0  0  0
  6  1  2  0  0  0
  6  5  1  0  0  0
  1  2  1  0  0  0
  5  4  2  0  0  0
  2  3  2  0  0  0
  4  3  1  0  0  0
  4 15  1  0  0  0
 18 15  1  0  0  0
 15 16  2  0  0  0
 15 17  2  0  0  0
 18 19  1  0  0  0
 18 20  1  0  0  0
M  END
> <minimizedAffinity>
-4.67062

$$$$
5SZ2_72G_A_307


 20 21  0  0  0  0  0  0  0  0999 V2000
   16.4160    0.5140   79.4942 C   0  0  0  0  0  0  0  0  0  0  0  0
   16.3361    1.6280   80.1857 C   0  0  0  0  0  0  0  0  0  0  0  0
   15.7757    1.5936   81.6003 C   0  0  0  0  0  0  0  0  0  0  0  0
   15.3814    0.4436   82.1135 C   0  0  0  0  0  0  0  0  0  0  0  0
   15.4743   -0.8476   81.3143 C   0  0  0  0  0  0  0  0  0  0  0  0
   15.9618   -0.8091   80.0944 C   0  0  0  0  0  0  0  0  0  0  0  0
   17.6706    1.6055   76.0746 C   0  0  0  0  0  0  0  0  0  0  0  0
   17.1254    1.6612   77.3549 C   0  0  0  0  0  0  0  0  0  0  0  0
   18.0767    0.3916   75.5464 C   0  0  0  0  0  0  0  0  0  0  0  0
   17.9387   -0.7678   76.2844 C   0  0  0  0  0  0  0  0  0  0  0  0
   17.3990   -0.7188   77.5572 C   0  0  0  0  0  0  0  0  0  0  0  0
   16.9855    0.4921   78.0889 C   0  0  0  0  0  0  0  0  0  0  0  0
   17.0452    3.7428   75.3312 O   0  0  0  0  0  0  0  0  0  0  0  0
   17.8352    2.8720   75.2292 C   0  0  0  0  0  0  0  0  0  0  0  0
   14.7224    0.3829   83.7920 S   0  0  0  0  0  0  0  0  0  0  0  0
   13.9541    1.6138   84.0349 O   0  0  0  0  0  0  0  0  0  0  0  0
   13.7400   -0.7153   83.8790 O   0  0  0  0  0  0  0  0  0  0  0  0
   15.9672    0.1616   84.8990 N   0  0  0  0  0  0  0  0  0  0  0  0
   16.6325    0.9308   84.8209 H   0  0  0  0  0  0  0  0  0  0  0  0
   16.4423   -0.7199   84.7047 H   0  0  0  0  0  0  0  0  0  0  0  0
  9 10  2  0  0  0
  9  7  1  0  0  0
 14  7  1  0  0  0
 14 13  2  0  0  0
 10 11  1  0  0  0
  7  8  2  0  0  0
 11 12  2  0  0  0
  8 12  1  0  0  0
 12  1  1  0  0  0
  6  1  2  0  0  0
  6  5  1  0  0  0
  1  2  1  0  0  0
  5  4  2  0  0  0
  2  3  2  0  0  0
  4  3  1  0  0  0
  4 15  1  0  0  0
 18 15  1  0  0  0
 15 16  2  0  0  0
 15 17  2  0  0  0
 18 19  1  0  0  0
 18 20  1  0  0  0
M  END
> <minimizedAffinity>
-4.59309

$$$$
5SZ2_72G_A_307


 20 21  0  0  0  0  0  0  0  0999 V2000
   17.5547   -1.9894   80.3405 C   0  0  0  0  0  0  0  0  0  0  0  0
   17.8871   -2.0678   81.6090 C   0  0  0  0  0  0  0  0  0  0  0  0
   17.0391   -1.3536   82.6516 C   0  0  0  0  0  0  0  0  0  0  0  0
   15.9791   -0.6685   82.2663 C   0  0  0  0  0  0  0  0  0  0  0  0
   15.5922   -0.5777   80.7978 C   0  0  0  0  0  0  0  0  0  0  0  0
   16.3287   -1.1996   79.9044 C   0  0  0  0  0  0  0  0  0  0  0  0
   18.5915   -4.4127   77.5997 C   0  0  0  0  0  0  0  0  0  0  0  0
   17.8359   -3.7975   78.5948 C   0  0  0  0  0  0  0  0  0  0  0  0
   19.8466   -3.9229   77.2800 C   0  0  0  0  0  0  0  0  0  0  0  0
   20.3553   -2.8265   77.9489 C   0  0  0  0  0  0  0  0  0  0  0  0
   19.6090   -2.2104   78.9373 C   0  0  0  0  0  0  0  0  0  0  0  0
   18.3549   -2.6995   79.2657 C   0  0  0  0  0  0  0  0  0  0  0  0
   18.6341   -6.6584   76.9168 O   0  0  0  0  0  0  0  0  0  0  0  0
   18.0579   -5.6313   76.8408 C   0  0  0  0  0  0  0  0  0  0  0  0
   14.9575    0.1775   83.4895 S   0  0  0  0  0  0  0  0  0  0  0  0
   13.8531   -0.7163   83.8714 O   0  0  0  0  0  0  0  0  0  0  0  0
   15.7490    0.3699   84.7204 O   0  0  0  0  0  0  0  0  0  0  0  0
   14.4243    1.6517   82.8841 N   0  0  0  0  0  0  0  0  0  0  0  0
   13.8809    1.4941   82.0354 H   0  0  0  0  0  0  0  0  0  0  0  0
   15.2280    2.2415   82.6686 H   0  0  0  0  0  0  0  0  0  0  0  0
  9 10  2  0  0  0
  9  7  1  0  0  0
 14  7  1  0  0  0
 14 13  2  0  0  0
 10 11  1  0  0  0
  7  8  2  0  0  0
 11 12  2  0  0  0
  8 12  1  0  0  0
 12  1  1  0  0  0
  6  1  2  0  0  0
  6  5  1  0  0  0
  1  2  1  0  0  0
  5  4  2  0  0  0
  2  3  2  0  0  0
  4  3  1  0  0  0
  4 15  1  0  0  0
 18 15  1  0  0  0
 15 16  2  0  0  0
 15 17  2  0  0  0
 18 19  1  0  0  0
 18 20  1  0  0  0
M  END
> <minimizedAffinity>
-4.58701

$$$$
5SZ2_72G_A_307


 20 21  0  0  0  0  0  0  0  0999 V2000
   17.0435   -2.0209   79.7003 C   0  0  0  0  0  0  0  0  0  0  0  0
   18.2057   -2.3301   80.2288 C   0  0  0  0  0  0  0  0  0  0  0  0
   18.6832   -1.5942   81.4724 C   0  0  0  0  0  0  0  0  0  0  0  0
   17.9204   -0.6581   82.0046 C   0  0  0  0  0  0  0  0  0  0  0  0
   16.5736   -0.2997   81.3945 C   0  0  0  0  0  0  0  0  0  0  0  0
   16.1680   -0.9419   80.3219 C   0  0  0  0  0  0  0  0  0  0  0  0
   15.1162   -2.8278   76.5232 C   0  0  0  0  0  0  0  0  0  0  0  0
   15.5653   -2.1470   77.6522 C   0  0  0  0  0  0  0  0  0  0  0  0
   15.6224   -4.0811   76.2227 C   0  0  0  0  0  0  0  0  0  0  0  0
   16.5701   -4.6622   77.0426 C   0  0  0  0  0  0  0  0  0  0  0  0
   17.0210   -3.9906   78.1647 C   0  0  0  0  0  0  0  0  0  0  0  0
   16.5139   -2.7386   78.4739 C   0  0  0  0  0  0  0  0  0  0  0  0
   12.9234   -2.4541   75.7727 O   0  0  0  0  0  0  0  0  0  0  0  0
   14.0648   -2.2128   75.5948 C   0  0  0  0  0  0  0  0  0  0  0  0
   18.4668    0.2186   83.4839 S   0  0  0  0  0  0  0  0  0  0  0  0
   17.3908    0.1570   84.4853 O   0  0  0  0  0  0  0  0  0  0  0  0
   19.6000   -0.5146   84.0812 O   0  0  0  0  0  0  0  0  0  0  0  0
   18.9093    1.7932   83.0979 N   0  0  0  0  0  0  0  0  0  0  0  0
   18.1122    2.2795   82.6875 H   0  0  0  0  0  0  0  0  0  0  0  0
   19.6785    1.7757   82.4282 H   0  0  0  0  0  0  0  0  0  0  0  0
  9 10  2  0  0  0
  9  7  1  0  0  0
 14  7  1  0  0  0
 14 13  2  0  0  0
 10 11  1  0  0  0
  7  8  2  0  0  0
 11 12  2  0  0  0
  8 12  1  0  0  0
 12  1  1  0  0  0
  6  1  2  0  0  0
  6  5  1  0  0  0
  1  2  1  0  0  0
  5  4  2  0  0  0
  2  3  2  0  0  0
  4  3  1  0  0  0
  4 15  1  0  0  0
 18 15  1  0  0  0
 15 16  2  0  0  0
 15 17  2  0  0  0
 18 19  1  0  0  0
 18 20  1  0  0  0
M  END
> <minimizedAffinity>
-4.53615

$$$$
5SZ2_72G_A_307


 20 21  0  0  0  0  0  0  0  0999 V2000
   16.8419   -1.4736   80.1863 C   0  0  0  0  0  0  0  0  0  0  0  0
   16.0418   -1.1101   79.2099 C   0  0  0  0  0  0  0  0  0  0  0  0
   16.3115   -1.6049   77.7962 C   0  0  0  0  0  0  0  0  0  0  0  0
   17.3439   -2.3958   77.5722 C   0  0  0  0  0  0  0  0  0  0  0  0
   18.2707   -2.8187   78.7021 C   0  0  0  0  0  0  0  0  0  0  0  0
   18.0289   -2.3887   79.9203 C   0  0  0  0  0  0  0  0  0  0  0  0
   15.1394   -0.4024   83.4133 C   0  0  0  0  0  0  0  0  0  0  0  0
   15.3209   -0.7954   82.0895 C   0  0  0  0  0  0  0  0  0  0  0  0
   16.2340   -0.2516   84.2478 C   0  0  0  0  0  0  0  0  0  0  0  0
   17.5088   -0.4856   83.7701 C   0  0  0  0  0  0  0  0  0  0  0  0
   17.6955   -0.8773   82.4566 C   0  0  0  0  0  0  0  0  0  0  0  0
   16.6045   -1.0243   81.6151 C   0  0  0  0  0  0  0  0  0  0  0  0
   13.4763    0.9433   84.3800 O   0  0  0  0  0  0  0  0  0  0  0  0
   13.7397   -0.1328   83.9735 C   0  0  0  0  0  0  0  0  0  0  0  0
   17.6737   -2.9988   75.9040 S   0  0  0  0  0  0  0  0  0  0  0  0
   18.0637   -4.4148   75.9898 O   0  0  0  0  0  0  0  0  0  0  0  0
   16.4142   -2.9856   75.1346 O   0  0  0  0  0  0  0  0  0  0  0  0
   18.8400   -2.0449   75.1596 N   0  0  0  0  0  0  0  0  0  0  0  0
   19.6997   -2.0693   75.7079 H   0  0  0  0  0  0  0  0  0  0  0  0
   18.5038   -1.0840   75.0969 H   0  0  0  0  0  0  0  0  0  0  0  0
  9 10  2  0  0  0
  9  7  1  0  0  0
 14  7  1  0  0  0
 14 13  2  0  0  0
 10 11  1  0  0  0
  7  8  2  0  0  0
 11 12  2  0  0  0
  8 12  1  0  0  0
 12  1  1  0  0  0
  6  1  2  0  0  0
  6  5  1  0  0  0
  1  2  1  0  0  0
  5  4  2  0  0  0
  2  3  2  0  0  0
  4  3  1  0  0  0
  4 15  1  0  0  0
 18 15  1  0  0  0
 15 16  2  0  0  0
 15 17  2  0  0  0
 18 19  1  0  0  0
 18 20  1  0  0  0
M  END
> <minimizedAffinity>
-4.53484

$$$$
5SZ2_72G_A_307


 20 21  0  0  0  0  0  0  0  0999 V2000
   17.2883   -2.1399   80.0975 C   0  0  0  0  0  0  0  0  0  0  0  0
   18.4807   -2.4775   80.5333 C   0  0  0  0  0  0  0  0  0  0  0  0
   19.2505   -3.5851   79.8285 C   0  0  0  0  0  0  0  0  0  0  0  0
   18.7101   -4.1882   78.7865 C   0  0  0  0  0  0  0  0  0  0  0  0
   17.3298   -3.7976   78.2799 C   0  0  0  0  0  0  0  0  0  0  0  0
   16.6731   -2.8383   78.8931 C   0  0  0  0  0  0  0  0  0  0  0  0
   14.9184   -0.2471   82.3910 C   0  0  0  0  0  0  0  0  0  0  0  0
   15.6207   -1.2949   81.8008 C   0  0  0  0  0  0  0  0  0  0  0  0
   15.0964    1.0490   81.9374 C   0  0  0  0  0  0  0  0  0  0  0  0
   15.9668    1.3069   80.8962 C   0  0  0  0  0  0  0  0  0  0  0  0
   16.6682    0.2705   80.3067 C   0  0  0  0  0  0  0  0  0  0  0  0
   16.4898   -1.0293   80.7524 C   0  0  0  0  0  0  0  0  0  0  0  0
   13.8756    0.2832   84.4264 O   0  0  0  0  0  0  0  0  0  0  0  0
   13.9441   -0.4992   83.5456 C   0  0  0  0  0  0  0  0  0  0  0  0
   19.6119   -5.4976   77.9335 S   0  0  0  0  0  0  0  0  0  0  0  0
   20.0731   -6.4727   78.9340 O   0  0  0  0  0  0  0  0  0  0  0  0
   18.6725   -6.2383   77.0690 O   0  0  0  0  0  0  0  0  0  0  0  0
   20.8699   -4.8455   77.0300 N   0  0  0  0  0  0  0  0  0  0  0  0
   21.5050   -4.3393   77.6471 H   0  0  0  0  0  0  0  0  0  0  0  0
   20.4910   -4.2048   76.3325 H   0  0  0  0  0  0  0  0  0  0  0  0
  9 10  2  0  0  0
  9  7  1  0  0  0
 14  7  1  0  0  0
 14 13  2  0  0  0
 10 11  1  0  0  0
  7  8  2  0  0  0
 11 12  2  0  0  0
  8 12  1  0  0  0
 12  1  1  0  0  0
  6  1  2  0  0  0
  6  5  1  0  0  0
  1  2  1  0  0  0
  5  4  2  0  0  0
  2  3  2  0  0  0
  4  3  1  0  0  0
  4 15  1  0  0  0
 18 15  1  0  0  0
 15 16  2  0  0  0
 15 17  2  0  0  0
 18 19  1  0  0  0
 18 20  1  0  0  0
M  END
> <minimizedAffinity>
-4.52176

$$$$
5SZ2_72G_A_307


 20 21  0  0  0  0  0  0  0  0999 V2000
   19.2464    0.7162   83.9574 C   0  0  0  0  0  0  0  0  0  0  0  0
   18.1902   -0.0439   84.1371 C   0  0  0  0  0  0  0  0  0  0  0  0
   17.0544   -0.0004   83.1250 C   0  0  0  0  0  0  0  0  0  0  0  0
   17.1489    0.7980   82.0786 C   0  0  0  0  0  0  0  0  0  0  0  0
   18.3720    1.6781   81.8685 C   0  0  0  0  0  0  0  0  0  0  0  0
   19.3491    1.6324   82.7462 C   0  0  0  0  0  0  0  0  0  0  0  0
   21.6166    1.5984   86.7970 C   0  0  0  0  0  0  0  0  0  0  0  0
   20.5426    1.6612   85.9126 C   0  0  0  0  0  0  0  0  0  0  0  0
   22.5402    0.5719   86.6938 C   0  0  0  0  0  0  0  0  0  0  0  0
   22.4026   -0.3900   85.7120 C   0  0  0  0  0  0  0  0  0  0  0  0
   21.3374   -0.3337   84.8314 C   0  0  0  0  0  0  0  0  0  0  0  0
   20.4131    0.6944   84.9259 C   0  0  0  0  0  0  0  0  0  0  0  0
   20.9214    2.8490   88.6582 O   0  0  0  0  0  0  0  0  0  0  0  0
   21.7995    2.6501   87.8953 C   0  0  0  0  0  0  0  0  0  0  0  0
   15.8158    0.8560   80.8642 S   0  0  0  0  0  0  0  0  0  0  0  0
   14.5431    1.0397   81.5790 O   0  0  0  0  0  0  0  0  0  0  0  0
   15.9779    2.0669   80.0359 O   0  0  0  0  0  0  0  0  0  0  0  0
   15.8350   -0.5281   79.9113 N   0  0  0  0  0  0  0  0  0  0  0  0
   15.7216   -1.3505   80.5040 H   0  0  0  0  0  0  0  0  0  0  0  0
   16.7240   -0.5867   79.4148 H   0  0  0  0  0  0  0  0  0  0  0  0
  9 10  2  0  0  0
  9  7  1  0  0  0
 14  7  1  0  0  0
 14 13  2  0  0  0
 10 11  1  0  0  0
  7  8  2  0  0  0
 11 12  2  0  0  0
  8 12  1  0  0  0
 12  1  1  0  0  0
  6  1  2  0  0  0
  6  5  1  0  0  0
  1  2  1  0  0  0
  5  4  2  0  0  0
  2  3  2  0  0  0
  4  3  1  0  0  0
  4 15  1  0  0  0
 18 15  1  0  0  0
 15 16  2  0  0  0
 15 17  2  0  0  0
 18 19  1  0  0  0
 18 20  1  0  0  0
M  END
> <minimizedAffinity>
-4.42133

$$$$
