3S76_EVH_A_262


 12 12  0  0  0  0  0  0  0  0999 V2000
   16.1172    1.1022   16.1245 S   0  0  0  0  0  0  0  0  0  0  0  0
   17.3737    1.6371   16.6942 O   0  0  0  0  0  0  0  0  0  0  0  0
   15.8434   -0.2752   16.3246 O   0  0  0  0  0  0  0  0  0  0  0  0
   14.8734    1.9677   16.5335 N   0  0  0  0  0  0  0  0  0  0  0  0
   15.0826    2.9549   16.3852 H   0  0  0  0  0  0  0  0  0  0  0  0
   14.6583    1.8099   17.5180 H   0  0  0  0  0  0  0  0  0  0  0  0
   16.7274    0.3885   13.5523 N   0  0  0  0  0  0  0  0  0  0  0  0
   16.2989    1.3394   14.4509 C   0  0  0  0  0  0  0  0  0  0  0  0
   16.0932    2.4978   13.7827 N   0  0  0  0  0  0  0  0  0  0  0  0
   16.3013    2.2856   12.4502 C   0  0  0  0  0  0  0  0  0  0  0  0
   16.7261    0.9705   12.3162 C   0  0  0  0  0  0  0  0  0  0  0  0
   16.9864   -0.5380   13.7614 H   0  0  0  0  0  0  0  0  0  0  0  0
  8  1  1  0  0  0
  4  1  1  0  0  0
  2  1  2  0  0  0
  1  3  2  0  0  0
 11  7  1  0  0  0
  7  8  1  0  0  0
  9  8  2  0  0  0
 10  9  1  0  0  0
 10 11  2  0  0  0
  7 12  1  0  0  0
  4  5  1  0  0  0
  4  6  1  0  0  0
M  END
> <minimizedAffinity>
-4.91202

$$$$
3S76_EVH_A_262


 12 12  0  0  0  0  0  0  0  0999 V2000
   16.1873    0.8872   15.8577 S   0  0  0  0  0  0  0  0  0  0  0  0
   17.3910    1.0500   16.7028 O   0  0  0  0  0  0  0  0  0  0  0  0
   16.2755   -0.0075   14.7604 O   0  0  0  0  0  0  0  0  0  0  0  0
   14.9093    0.5728   16.7128 N   0  0  0  0  0  0  0  0  0  0  0  0
   14.8572    1.2220   17.4978 H   0  0  0  0  0  0  0  0  0  0  0  0
   14.9625   -0.3830   17.0651 H   0  0  0  0  0  0  0  0  0  0  0  0
   14.7966    3.2018   15.4035 N   0  0  0  0  0  0  0  0  0  0  0  0
   15.9289    2.4411   15.2182 C   0  0  0  0  0  0  0  0  0  0  0  0
   16.7734    3.1208   14.4086 N   0  0  0  0  0  0  0  0  0  0  0  0
   16.2385    4.3472   14.1368 C   0  0  0  0  0  0  0  0  0  0  0  0
   14.9879    4.3802   14.7391 C   0  0  0  0  0  0  0  0  0  0  0  0
   13.9980    2.9447   15.9186 H   0  0  0  0  0  0  0  0  0  0  0  0
  8  1  1  0  0  0
  4  1  1  0  0  0
  2  1  2  0  0  0
  1  3  2  0  0  0
 11  7  1  0  0  0
  7  8  1  0  0  0
  9  8  2  0  0  0
 10  9  1  0  0  0
 10 11  2  0  0  0
  7 12  1  0  0  0
  4  5  1  0  0  0
  4  6  1  0  0  0
M  END
> <minimizedAffinity>
-4.91069

$$$$
3S76_EVH_A_262


 12 12  0  0  0  0  0  0  0  0999 V2000
   16.6186    0.9257   12.0986 S   0  0  0  0  0  0  0  0  0  0  0  0
   16.5469    1.0543   13.5709 O   0  0  0  0  0  0  0  0  0  0  0  0
   16.7114   -0.3837   11.5609 O   0  0  0  0  0  0  0  0  0  0  0  0
   15.4727    1.7257   11.3841 N   0  0  0  0  0  0  0  0  0  0  0  0
   15.4161    2.6644   11.7791 H   0  0  0  0  0  0  0  0  0  0  0  0
   14.5843    1.2443   11.5230 H   0  0  0  0  0  0  0  0  0  0  0  0
   18.5990    2.7946   12.3864 N   0  0  0  0  0  0  0  0  0  0  0  0
   18.0553    1.7381   11.6911 C   0  0  0  0  0  0  0  0  0  0  0  0
   18.8325    1.4911   10.6115 N   0  0  0  0  0  0  0  0  0  0  0  0
   19.9179    2.3184   10.6460 C   0  0  0  0  0  0  0  0  0  0  0  0
   19.7507    3.1516   11.7440 C   0  0  0  0  0  0  0  0  0  0  0  0
   18.2272    3.2145   13.1956 H   0  0  0  0  0  0  0  0  0  0  0  0
  8  1  1  0  0  0
  4  1  1  0  0  0
  2  1  2  0  0  0
  1  3  2  0  0  0
 11  7  1  0  0  0
  7  8  1  0  0  0
  9  8  2  0  0  0
 10  9  1  0  0  0
 10 11  2  0  0  0
  7 12  1  0  0  0
  4  5  1  0  0  0
  4  6  1  0  0  0
M  END
> <minimizedAffinity>
-4.82691

$$$$
3S76_EVH_A_262


 12 12  0  0  0  0  0  0  0  0999 V2000
   16.5803    1.2861   12.0119 S   0  0  0  0  0  0  0  0  0  0  0  0
   16.6400   -0.1756   12.2346 O   0  0  0  0  0  0  0  0  0  0  0  0
   17.7765    1.9354   11.6120 O   0  0  0  0  0  0  0  0  0  0  0  0
   15.4006    1.6855   11.0568 N   0  0  0  0  0  0  0  0  0  0  0  0
   14.5472    1.2128   11.3545 H   0  0  0  0  0  0  0  0  0  0  0  0
   15.6275    1.4082   10.1018 H   0  0  0  0  0  0  0  0  0  0  0  0
   16.4078    1.3024   14.7446 N   0  0  0  0  0  0  0  0  0  0  0  0
   16.1561    1.9102   13.5353 C   0  0  0  0  0  0  0  0  0  0  0  0
   15.4783    3.0582   13.7662 N   0  0  0  0  0  0  0  0  0  0  0  0
   15.3628    3.2433   15.1139 C   0  0  0  0  0  0  0  0  0  0  0  0
   15.9214    2.1261   15.7202 C   0  0  0  0  0  0  0  0  0  0  0  0
   16.8548    0.4359   14.8810 H   0  0  0  0  0  0  0  0  0  0  0  0
  8  1  1  0  0  0
  4  1  1  0  0  0
  2  1  2  0  0  0
  1  3  2  0  0  0
 11  7  1  0  0  0
  7  8  1  0  0  0
  9  8  2  0  0  0
 10  9  1  0  0  0
 10 11  2  0  0  0
  7 12  1  0  0  0
  4  5  1  0  0  0
  4  6  1  0  0  0
M  END
> <minimizedAffinity>
-4.75921

$$$$
3S76_EVH_A_262


 12 12  0  0  0  0  0  0  0  0999 V2000
   16.5807    2.0580   11.1256 S   0  0  0  0  0  0  0  0  0  0  0  0
   18.0481    1.9011   11.0186 O   0  0  0  0  0  0  0  0  0  0  0  0
   16.0071    3.2320   10.5736 O   0  0  0  0  0  0  0  0  0  0  0  0
   15.8166    0.7871   10.6112 N   0  0  0  0  0  0  0  0  0  0  0  0
   16.2380   -0.0495   11.0148 H   0  0  0  0  0  0  0  0  0  0  0  0
   15.8781    0.7420    9.5941 H   0  0  0  0  0  0  0  0  0  0  0  0
   16.6245    1.1045   13.6921 N   0  0  0  0  0  0  0  0  0  0  0  0
   16.3000    2.1031   12.8018 C   0  0  0  0  0  0  0  0  0  0  0  0
   15.6835    3.0980   13.4806 N   0  0  0  0  0  0  0  0  0  0  0  0
   15.6811    2.7934   14.8114 C   0  0  0  0  0  0  0  0  0  0  0  0
   16.2459    1.5309   14.9337 C   0  0  0  0  0  0  0  0  0  0  0  0
   17.0499    0.2437   13.4747 H   0  0  0  0  0  0  0  0  0  0  0  0
  8  1  1  0  0  0
  4  1  1  0  0  0
  2  1  2  0  0  0
  1  3  2  0  0  0
 11  7  1  0  0  0
  7  8  1  0  0  0
  9  8  2  0  0  0
 10  9  1  0  0  0
 10 11  2  0  0  0
  7 12  1  0  0  0
  4  5  1  0  0  0
  4  6  1  0  0  0
M  END
> <minimizedAffinity>
-4.68721

$$$$
3S76_EVH_A_262


 12 12  0  0  0  0  0  0  0  0999 V2000
   16.2880    2.6057   14.6075 S   0  0  0  0  0  0  0  0  0  0  0  0
   16.6887    1.4865   13.7263 O   0  0  0  0  0  0  0  0  0  0  0  0
   17.3194    3.4286   15.1285 O   0  0  0  0  0  0  0  0  0  0  0  0
   15.1646    3.4890   13.9586 N   0  0  0  0  0  0  0  0  0  0  0  0
   14.4298    2.8864   13.5881 H   0  0  0  0  0  0  0  0  0  0  0  0
   15.5634    4.0439   13.2012 H   0  0  0  0  0  0  0  0  0  0  0  0
   14.3257    2.1734   16.4677 N   0  0  0  0  0  0  0  0  0  0  0  0
   15.5462    1.8345   15.9286 C   0  0  0  0  0  0  0  0  0  0  0  0
   16.0681    0.8196   16.6554 N   0  0  0  0  0  0  0  0  0  0  0  0
   15.1632    0.4413   17.6050 C   0  0  0  0  0  0  0  0  0  0  0  0
   14.0866    1.3118   17.5007 C   0  0  0  0  0  0  0  0  0  0  0  0
   13.7354    2.9009   16.1653 H   0  0  0  0  0  0  0  0  0  0  0  0
  8  1  1  0  0  0
  4  1  1  0  0  0
  2  1  2  0  0  0
  1  3  2  0  0  0
 11  7  1  0  0  0
  7  8  1  0  0  0
  9  8  2  0  0  0
 10  9  1  0  0  0
 10 11  2  0  0  0
  7 12  1  0  0  0
  4  5  1  0  0  0
  4  6  1  0  0  0
M  END
> <minimizedAffinity>
-4.68027

$$$$
3S76_EVH_A_262


 12 12  0  0  0  0  0  0  0  0999 V2000
   16.0478    1.0863   15.9372 S   0  0  0  0  0  0  0  0  0  0  0  0
   16.0801   -0.3918   15.9970 O   0  0  0  0  0  0  0  0  0  0  0  0
   14.8393    1.7290   16.3095 O   0  0  0  0  0  0  0  0  0  0  0  0
   17.2611    1.7301   16.6967 N   0  0  0  0  0  0  0  0  0  0  0  0
   18.1232    1.2598   16.4208 H   0  0  0  0  0  0  0  0  0  0  0  0
   17.1253    1.6283   17.7025 H   0  0  0  0  0  0  0  0  0  0  0  0
   16.0552    2.6349   13.6789 N   0  0  0  0  0  0  0  0  0  0  0  0
   16.3130    1.4303   14.2935 C   0  0  0  0  0  0  0  0  0  0  0  0
   16.7673    0.5623   13.3603 N   0  0  0  0  0  0  0  0  0  0  0  0
   16.8871    1.2146   12.1670 C   0  0  0  0  0  0  0  0  0  0  0  0
   16.4123    2.5040   12.3667 C   0  0  0  0  0  0  0  0  0  0  0  0
   15.6829    3.4403   14.1054 H   0  0  0  0  0  0  0  0  0  0  0  0
  8  1  1  0  0  0
  4  1  1  0  0  0
  2  1  2  0  0  0
  1  3  2  0  0  0
 11  7  1  0  0  0
  7  8  1  0  0  0
  9  8  2  0  0  0
 10  9  1  0  0  0
 10 11  2  0  0  0
  7 12  1  0  0  0
  4  5  1  0  0  0
  4  6  1  0  0  0
M  END
> <minimizedAffinity>
-4.64691

$$$$
3S76_EVH_A_262


 12 12  0  0  0  0  0  0  0  0999 V2000
   16.2275    2.9832   14.4874 S   0  0  0  0  0  0  0  0  0  0  0  0
   14.8768    3.5799   14.3909 O   0  0  0  0  0  0  0  0  0  0  0  0
   17.3379    3.8591   14.3787 O   0  0  0  0  0  0  0  0  0  0  0  0
   16.3765    2.0730   15.7573 N   0  0  0  0  0  0  0  0  0  0  0  0
   15.5728    1.4484   15.8241 H   0  0  0  0  0  0  0  0  0  0  0  0
   16.4227    2.6581   16.5915 H   0  0  0  0  0  0  0  0  0  0  0  0
   16.8517    0.6612   13.1773 N   0  0  0  0  0  0  0  0  0  0  0  0
   16.2955    1.9204   13.1622 C   0  0  0  0  0  0  0  0  0  0  0  0
   15.8574    2.1797   11.9086 N   0  0  0  0  0  0  0  0  0  0  0  0
   16.0463    1.0720   11.1333 C   0  0  0  0  0  0  0  0  0  0  0  0
   16.6955    0.1350   11.9261 C   0  0  0  0  0  0  0  0  0  0  0  0
   17.2818    0.2218   13.9462 H   0  0  0  0  0  0  0  0  0  0  0  0
  8  1  1  0  0  0
  4  1  1  0  0  0
  2  1  2  0  0  0
  1  3  2  0  0  0
 11  7  1  0  0  0
  7  8  1  0  0  0
  9  8  2  0  0  0
 10  9  1  0  0  0
 10 11  2  0  0  0
  7 12  1  0  0  0
  4  5  1  0  0  0
  4  6  1  0  0  0
M  END
> <minimizedAffinity>
-4.60920

$$$$
3S76_EVH_A_262


 12 12  0  0  0  0  0  0  0  0999 V2000
   14.8951    0.9804   16.9946 S   0  0  0  0  0  0  0  0  0  0  0  0
   15.6348   -0.2222   16.5516 O   0  0  0  0  0  0  0  0  0  0  0  0
   13.4783    0.9114   16.9983 O   0  0  0  0  0  0  0  0  0  0  0  0
   15.4162    1.5128   18.3761 N   0  0  0  0  0  0  0  0  0  0  0  0
   16.4351    1.5577   18.3608 H   0  0  0  0  0  0  0  0  0  0  0  0
   15.1148    0.8822   19.1191 H   0  0  0  0  0  0  0  0  0  0  0  0
   16.4507    2.1238   15.0528 N   0  0  0  0  0  0  0  0  0  0  0  0
   15.3365    2.1673   15.8603 C   0  0  0  0  0  0  0  0  0  0  0  0
   14.6848    3.3300   15.6281 N   0  0  0  0  0  0  0  0  0  0  0  0
   15.3162    4.0003   14.6202 C   0  0  0  0  0  0  0  0  0  0  0  0
   16.4375    3.2534   14.2844 C   0  0  0  0  0  0  0  0  0  0  0  0
   17.1302    1.4117   15.0329 H   0  0  0  0  0  0  0  0  0  0  0  0
  8  1  1  0  0  0
  4  1  1  0  0  0
  2  1  2  0  0  0
  1  3  2  0  0  0
 11  7  1  0  0  0
  7  8  1  0  0  0
  9  8  2  0  0  0
 10  9  1  0  0  0
 10 11  2  0  0  0
  7 12  1  0  0  0
  4  5  1  0  0  0
  4  6  1  0  0  0
M  END
> <minimizedAffinity>
-4.59591

$$$$
3S76_EVH_A_262


 12 12  0  0  0  0  0  0  0  0999 V2000
   16.2100    3.3355   13.4322 S   0  0  0  0  0  0  0  0  0  0  0  0
   17.3914    3.3177   14.3230 O   0  0  0  0  0  0  0  0  0  0  0  0
   14.9305    3.3583   14.0443 O   0  0  0  0  0  0  0  0  0  0  0  0
   16.3122    4.4639   12.3461 N   0  0  0  0  0  0  0  0  0  0  0  0
   17.2356    4.4371   11.9138 H   0  0  0  0  0  0  0  0  0  0  0  0
   16.1688    5.3731   12.7858 H   0  0  0  0  0  0  0  0  0  0  0  0
   15.7428    1.6134   11.3552 N   0  0  0  0  0  0  0  0  0  0  0  0
   16.3291    1.8731   12.5734 C   0  0  0  0  0  0  0  0  0  0  0  0
   16.9727    0.7566   12.9853 N   0  0  0  0  0  0  0  0  0  0  0  0
   16.8818   -0.1946   12.0101 C   0  0  0  0  0  0  0  0  0  0  0  0
   16.0861    0.3383   11.0048 C   0  0  0  0  0  0  0  0  0  0  0  0
   15.1810    2.2313   10.8338 H   0  0  0  0  0  0  0  0  0  0  0  0
  8  1  1  0  0  0
  4  1  1  0  0  0
  2  1  2  0  0  0
  1  3  2  0  0  0
 11  7  1  0  0  0
  7  8  1  0  0  0
  9  8  2  0  0  0
 10  9  1  0  0  0
 10 11  2  0  0  0
  7 12  1  0  0  0
  4  5  1  0  0  0
  4  6  1  0  0  0
M  END
> <minimizedAffinity>
-4.48986

$$$$
