4M0F_1YK_A_604


 40 44  0  0  0  0  0  0  0  0999 V2000
  -13.7371  -46.0472   28.8104 C   0  0  0  0  0  0  0  0  0  0  0  0
  -13.5154  -44.6205   29.2866 C   0  0  0  0  0  0  0  0  0  0  0  0
  -13.3986  -44.5730   30.8298 C   0  0  0  0  0  0  0  0  0  0  0  0
  -11.9958  -45.0281   31.2243 C   0  0  0  0  0  0  0  0  0  0  0  0
  -10.9270  -44.1357   30.6515 C   0  0  0  0  0  0  0  0  0  0  0  0
  -10.9457  -44.2235   29.1293 C   0  0  0  0  0  0  0  0  0  0  0  0
  -12.3561  -43.8520   28.6156 C   0  0  0  0  0  0  0  0  0  0  0  0
  -12.4713  -44.0319   27.1064 C   0  0  0  0  0  0  0  0  0  0  0  0
  -13.8884  -43.6693   26.7124 C   0  0  0  0  0  0  0  0  0  0  0  0
  -14.8674  -43.6831   27.6063 C   0  0  0  0  0  0  0  0  0  0  0  0
  -16.2876  -43.3218   27.2281 C   0  0  0  0  0  0  0  0  0  0  0  0
  -16.5458  -43.0268   25.9237 C   0  0  0  0  0  0  0  0  0  0  0  0
  -15.5221  -43.0517   24.9630 O   0  0  0  0  0  0  0  0  0  0  0  0
  -14.2121  -43.3449   25.3100 C   0  0  0  0  0  0  0  0  0  0  0  0
  -13.3645  -43.3276   24.4445 O   0  0  0  0  0  0  0  0  0  0  0  0
  -14.6947  -43.9764   28.9601 O   0  0  0  0  0  0  0  0  0  0  0  0
  -12.5645  -42.4838   28.9068 O   0  0  0  0  0  0  0  0  0  0  0  0
   -9.8828  -43.2635   28.6444 C   0  0  0  0  0  0  0  0  0  0  0  0
  -10.0493  -42.5048   27.7116 O   0  0  0  0  0  0  0  0  0  0  0  0
   -8.5654  -43.2229   29.3161 C   0  0  0  0  0  0  0  0  0  0  0  0
   -8.4007  -43.7728   30.5429 C   0  0  0  0  0  0  0  0  0  0  0  0
   -9.5491  -44.4644   31.3172 C   0  0  0  0  0  0  0  0  0  0  0  0
   -9.5416  -43.9172   32.7299 C   0  0  0  0  0  0  0  0  0  0  0  0
   -9.2383  -45.9493   31.4939 C   0  0  0  0  0  0  0  0  0  0  0  0
  -10.5193  -45.5609   28.5483 C   0  0  0  0  0  0  0  0  0  0  0  0
  -11.2505  -42.8142   31.0205 O   0  0  0  0  0  0  0  0  0  0  0  0
  -11.8572  -41.9561   28.5040 H   0  0  0  0  0  0  0  0  0  0  0  0
  -10.5813  -42.2070   30.6679 H   0  0  0  0  0  0  0  0  0  0  0  0
  -17.8823  -42.6454   25.3660 C   0  0  0  0  0  0  0  0  0  0  0  0
  -19.1815  -42.5565   26.0420 C   0  0  0  0  0  0  0  0  0  0  0  0
  -20.2827  -42.1735   25.2986 C   0  0  0  0  0  0  0  0  0  0  0  0
  -20.2618  -41.8689   24.0434 C   0  0  0  0  0  0  0  0  0  0  0  0
  -19.1589  -41.9317   23.3491 C   0  0  0  0  0  0  0  0  0  0  0  0
  -17.9704  -42.3014   23.9498 C   0  0  0  0  0  0  0  0  0  0  0  0
  -19.0700  -41.6223   21.9735 O   0  0  0  0  0  0  0  0  0  0  0  0
  -18.3298  -40.4439   21.6926 C   0  0  0  0  0  0  0  0  0  0  0  0
  -21.5197  -41.5208   23.4971 O   0  0  0  0  0  0  0  0  0  0  0  0
  -21.7784  -40.1808   23.1195 C   0  0  0  0  0  0  0  0  0  0  0  0
  -21.5226  -42.0838   25.9319 O   0  0  0  0  0  0  0  0  0  0  0  0
  -21.4113  -41.8381   27.3141 C   0  0  0  0  0  0  0  0  0  0  0  0
 36 35  1  0  0  0
 35 33  1  0  0  0
 38 37  1  0  0  0
 33 34  2  0  0  0
 33 32  1  0  0  0
 37 32  1  0  0  0
 34 29  1  0  0  0
 15 14  2  0  0  0
 32 31  2  0  0  0
 13 14  1  0  0  0
 13 12  1  0  0  0
 14  9  1  0  0  0
 29 12  1  0  0  0
 29 30  2  0  0  0
 31 30  1  0  0  0
 31 39  1  0  0  0
 12 11  2  0  0  0
 39 40  1  0  0  0
  9  8  1  0  0  0
  9 10  2  0  0  0
  8  7  1  0  0  0
 11 10  1  0  0  0
 19 18  2  0  0  0
 10 16  1  0  0  0
 25  6  1  0  0  0
 18  6  1  0  0  0
 18 20  1  0  0  0
  7 17  1  0  0  0
  7  6  1  0  0  0
  7  2  1  0  0  0
  1  2  1  0  0  0
  6  5  1  0  0  0
 20 21  2  0  0  0
 16  2  1  0  0  0
  2  3  1  0  0  0
 21 22  1  0  0  0
  5 26  1  0  0  0
  5 22  1  0  0  0
  5  4  1  0  0  0
  3  4  1  0  0  0
 22 24  1  0  0  0
 22 23  1  0  0  0
 17 27  1  0  0  0
 26 28  1  0  0  0
M  END
> <minimizedAffinity>
-14.31122

$$$$
4M0F_1YK_A_604


 40 44  0  0  0  0  0  0  0  0999 V2000
  -13.7848  -46.0086   28.7222 C   0  0  0  0  0  0  0  0  0  0  0  0
  -13.5578  -44.5836   29.2010 C   0  0  0  0  0  0  0  0  0  0  0  0
  -13.4836  -44.5335   30.7467 C   0  0  0  0  0  0  0  0  0  0  0  0
  -12.0984  -45.0057   31.1814 C   0  0  0  0  0  0  0  0  0  0  0  0
  -11.0024  -44.1289   30.6366 C   0  0  0  0  0  0  0  0  0  0  0  0
  -10.9798  -44.2206   29.1147 C   0  0  0  0  0  0  0  0  0  0  0  0
  -12.3703  -43.8322   28.5608 C   0  0  0  0  0  0  0  0  0  0  0  0
  -12.4456  -44.0147   27.0495 C   0  0  0  0  0  0  0  0  0  0  0  0
  -13.8463  -43.6348   26.6151 C   0  0  0  0  0  0  0  0  0  0  0  0
  -14.8499  -43.6333   27.4813 C   0  0  0  0  0  0  0  0  0  0  0  0
  -16.2541  -43.2546   27.0626 C   0  0  0  0  0  0  0  0  0  0  0  0
  -16.4719  -42.9598   25.7509 C   0  0  0  0  0  0  0  0  0  0  0  0
  -15.4222  -43.0007   24.8192 O   0  0  0  0  0  0  0  0  0  0  0  0
  -14.1264  -43.3100   25.2034 C   0  0  0  0  0  0  0  0  0  0  0  0
  -13.2548  -43.3061   24.3619 O   0  0  0  0  0  0  0  0  0  0  0  0
  -14.7190  -43.9251   28.8401 O   0  0  0  0  0  0  0  0  0  0  0  0
  -12.5688  -42.4605   28.8428 O   0  0  0  0  0  0  0  0  0  0  0  0
   -9.8912  -43.2759   28.6574 C   0  0  0  0  0  0  0  0  0  0  0  0
  -10.0217  -42.5176   27.7185 O   0  0  0  0  0  0  0  0  0  0  0  0
   -8.5927  -43.2507   29.3656 C   0  0  0  0  0  0  0  0  0  0  0  0
   -8.4696  -43.7993   30.5978 C   0  0  0  0  0  0  0  0  0  0  0  0
   -9.6481  -44.4737   31.3413 C   0  0  0  0  0  0  0  0  0  0  0  0
   -9.6730  -43.9227   32.7524 C   0  0  0  0  0  0  0  0  0  0  0  0
   -9.3618  -45.9620   31.5302 C   0  0  0  0  0  0  0  0  0  0  0  0
  -10.5549  -45.5650   28.5491 C   0  0  0  0  0  0  0  0  0  0  0  0
  -11.3188  -42.8023   30.9933 O   0  0  0  0  0  0  0  0  0  0  0  0
  -11.8437  -41.9432   28.4588 H   0  0  0  0  0  0  0  0  0  0  0  0
  -10.6321  -42.2048   30.6580 H   0  0  0  0  0  0  0  0  0  0  0  0
  -17.7873  -42.5625   25.1550 C   0  0  0  0  0  0  0  0  0  0  0  0
  -18.1215  -42.2548   23.7599 C   0  0  0  0  0  0  0  0  0  0  0  0
  -19.4268  -41.9119   23.4586 C   0  0  0  0  0  0  0  0  0  0  0  0
  -20.3948  -41.8523   24.3121 C   0  0  0  0  0  0  0  0  0  0  0  0
  -20.1968  -42.0926   25.5792 C   0  0  0  0  0  0  0  0  0  0  0  0
  -18.9429  -42.4472   26.0397 C   0  0  0  0  0  0  0  0  0  0  0  0
  -21.2082  -42.0349   26.5639 O   0  0  0  0  0  0  0  0  0  0  0  0
  -20.8449  -42.6282   27.8013 C   0  0  0  0  0  0  0  0  0  0  0  0
  -21.6415  -41.4634   23.7678 O   0  0  0  0  0  0  0  0  0  0  0  0
  -22.6508  -42.4331   23.5529 C   0  0  0  0  0  0  0  0  0  0  0  0
  -19.7561  -41.6192   22.1349 O   0  0  0  0  0  0  0  0  0  0  0  0
  -18.9446  -40.6094   21.5826 C   0  0  0  0  0  0  0  0  0  0  0  0
 36 35  1  0  0  0
 35 33  1  0  0  0
 38 37  1  0  0  0
 33 34  2  0  0  0
 33 32  1  0  0  0
 37 32  1  0  0  0
 34 29  1  0  0  0
 15 14  2  0  0  0
 32 31  2  0  0  0
 13 14  1  0  0  0
 13 12  1  0  0  0
 14  9  1  0  0  0
 29 12  1  0  0  0
 29 30  2  0  0  0
 31 30  1  0  0  0
 31 39  1  0  0  0
 12 11  2  0  0  0
 39 40  1  0  0  0
  9  8  1  0  0  0
  9 10  2  0  0  0
  8  7  1  0  0  0
 11 10  1  0  0  0
 19 18  2  0  0  0
 10 16  1  0  0  0
 25  6  1  0  0  0
 18  6  1  0  0  0
 18 20  1  0  0  0
  7 17  1  0  0  0
  7  6  1  0  0  0
  7  2  1  0  0  0
  1  2  1  0  0  0
  6  5  1  0  0  0
 20 21  2  0  0  0
 16  2  1  0  0  0
  2  3  1  0  0  0
 21 22  1  0  0  0
  5 26  1  0  0  0
  5 22  1  0  0  0
  5  4  1  0  0  0
  3  4  1  0  0  0
 22 24  1  0  0  0
 22 23  1  0  0  0
 17 27  1  0  0  0
 26 28  1  0  0  0
M  END
> <minimizedAffinity>
-14.15859

$$$$
