4CMO_YPW_A_2402


 32 34  0  0  0  0  0  0  0  0999 V2000
   30.1859   44.5423    9.1166 C   0  0  0  0  0  0  0  0  0  0  0  0
   29.0756   44.3273    9.9537 C   0  0  0  0  0  0  0  0  0  0  0  0
   28.0429   45.2307    9.9394 N   0  0  0  0  0  0  0  0  0  0  0  0
   28.1223   46.3257    9.1137 C   0  0  0  0  0  0  0  0  0  0  0  0
   29.2219   46.5587    8.2743 C   0  0  0  0  0  0  0  0  0  0  0  0
   30.2592   45.6374    8.2916 N   0  0  0  0  0  0  0  0  0  0  0  0
   29.0054   43.2089   10.7962 N   0  0  0  0  0  0  0  0  0  0  0  0
   29.7429   42.5568   10.8113 H   0  0  0  0  0  0  0  0  0  0  0  0
   28.2185   43.0755   11.3727 H   0  0  0  0  0  0  0  0  0  0  0  0
   29.3803   47.7361    7.3660 C   0  0  0  0  0  0  0  0  0  0  0  0
   30.6129   48.2648    6.8470 C   0  0  0  0  0  0  0  0  0  0  0  0
   30.6730   49.3653    5.9963 N   0  0  0  0  0  0  0  0  0  0  0  0
   29.5080   49.9823    5.6284 C   0  0  0  0  0  0  0  0  0  0  0  0
   28.2516   49.5630    6.0636 C   0  0  0  0  0  0  0  0  0  0  0  0
   28.2068   48.4405    6.9306 C   0  0  0  0  0  0  0  0  0  0  0  0
   31.8029   47.6401    7.2150 O   0  0  0  0  0  0  0  0  0  0  0  0
   32.7125   48.3971    8.0298 C   0  0  0  0  0  0  0  0  0  0  0  0
   31.2078   43.5953    9.1643 O   0  0  0  0  0  0  0  0  0  0  0  0
   32.3279   43.7180    8.2508 C   0  0  0  0  0  0  0  0  0  0  0  0
   32.8013   42.2772    7.9955 C   0  0  0  0  0  0  0  0  0  0  0  0
   33.4764   44.5964    8.7782 C   0  0  0  0  0  0  0  0  0  0  0  0
   34.4965   45.1769    7.9137 C   0  0  0  0  0  0  0  0  0  0  0  0
   35.5392   45.9862    8.4799 C   0  0  0  0  0  0  0  0  0  0  0  0
   35.5902   46.2275    9.8753 C   0  0  0  0  0  0  0  0  0  0  0  0
   34.6065   45.6641   10.7150 C   0  0  0  0  0  0  0  0  0  0  0  0
   33.5636   44.8630   10.1929 C   0  0  0  0  0  0  0  0  0  0  0  0
   34.6562   45.8929   12.0314 F   0  0  0  0  0  0  0  0  0  0  0  0
   34.5269   44.9665    6.4195 C   0  0  0  0  0  0  0  0  0  0  0  0
   33.8705   45.9316    5.6563 N   0  0  0  0  0  0  0  0  0  0  0  0
   35.1231   43.9914    5.9624 O   0  0  0  0  0  0  0  0  0  0  0  0
   33.8180   45.8815    4.2071 C   0  0  0  0  0  0  0  0  0  0  0  0
   33.4247   46.6772    6.1195 H   0  0  0  0  0  0  0  0  0  0  0  0
  1  2  2  0  0  0
  1  6  1  0  0  0
  1 18  1  0  0  0
  2  3  1  0  0  0
  2  7  1  0  0  0
  3  4  2  0  0  0
  4  5  1  0  0  0
  5  6  2  0  0  0
  5 10  1  0  0  0
 18 19  1  0  0  0
 19 21  1  0  0  0
 19 20  1  0  0  0
 21 22  2  0  0  0
 21 26  1  0  0  0
 22 23  1  0  0  0
 22 28  1  0  0  0
 23 24  2  0  0  0
 24 25  1  0  0  0
 25 26  2  0  0  0
 25 27  1  0  0  0
 10 11  2  0  0  0
 10 15  1  0  0  0
 11 12  1  0  0  0
 11 16  1  0  0  0
 12 13  2  0  0  0
 13 14  1  0  0  0
 14 15  2  0  0  0
 16 17  1  0  0  0
 28 29  1  0  0  0
 28 30  2  0  0  0
 29 31  1  0  0  0
  7  8  1  0  0  0
  7  9  1  0  0  0
 29 32  1  0  0  0
M  END
> <minimizedAffinity>
-8.32614

$$$$
4CMO_YPW_A_2402


 32 34  0  0  0  0  0  0  0  0999 V2000
   30.1134   44.5159    9.0887 C   0  0  0  0  0  0  0  0  0  0  0  0
   29.0108   44.3089    9.9379 C   0  0  0  0  0  0  0  0  0  0  0  0
   27.9472   45.1736    9.8750 N   0  0  0  0  0  0  0  0  0  0  0  0
   27.9887   46.2232    8.9899 C   0  0  0  0  0  0  0  0  0  0  0  0
   29.0800   46.4477    8.1375 C   0  0  0  0  0  0  0  0  0  0  0  0
   30.1489   45.5656    8.2044 N   0  0  0  0  0  0  0  0  0  0  0  0
   28.9791   43.2370   10.8411 N   0  0  0  0  0  0  0  0  0  0  0  0
   29.7389   42.6130   10.8913 H   0  0  0  0  0  0  0  0  0  0  0  0
   28.1971   43.1084   11.4252 H   0  0  0  0  0  0  0  0  0  0  0  0
   29.1977   47.5778    7.1652 C   0  0  0  0  0  0  0  0  0  0  0  0
   28.1939   48.5621    6.8618 C   0  0  0  0  0  0  0  0  0  0  0  0
   28.3872   49.5916    5.9447 N   0  0  0  0  0  0  0  0  0  0  0  0
   29.5879   49.6819    5.2939 C   0  0  0  0  0  0  0  0  0  0  0  0
   30.6386   48.7897    5.5030 C   0  0  0  0  0  0  0  0  0  0  0  0
   30.4261   47.7456    6.4402 C   0  0  0  0  0  0  0  0  0  0  0  0
   26.9699   48.4782    7.5226 O   0  0  0  0  0  0  0  0  0  0  0  0
   26.1698   49.6707    7.5682 C   0  0  0  0  0  0  0  0  0  0  0  0
   31.1677   43.6093    9.1873 O   0  0  0  0  0  0  0  0  0  0  0  0
   32.2961   43.7371    8.2849 C   0  0  0  0  0  0  0  0  0  0  0  0
   32.8314   42.3069    8.1017 C   0  0  0  0  0  0  0  0  0  0  0  0
   33.3997   44.6846    8.7878 C   0  0  0  0  0  0  0  0  0  0  0  0
   34.2936   45.4111    7.8946 C   0  0  0  0  0  0  0  0  0  0  0  0
   35.3014   46.2776    8.4390 C   0  0  0  0  0  0  0  0  0  0  0  0
   35.4393   46.4352    9.8404 C   0  0  0  0  0  0  0  0  0  0  0  0
   34.5779   45.7307   10.7076 C   0  0  0  0  0  0  0  0  0  0  0  0
   33.5729   44.8695   10.2077 C   0  0  0  0  0  0  0  0  0  0  0  0
   34.7097   45.8807   12.0298 F   0  0  0  0  0  0  0  0  0  0  0  0
   34.2261   45.2980    6.3911 C   0  0  0  0  0  0  0  0  0  0  0  0
   35.3619   44.7807    5.7688 N   0  0  0  0  0  0  0  0  0  0  0  0
   33.1984   45.6438    5.8083 O   0  0  0  0  0  0  0  0  0  0  0  0
   35.4527   44.5967    4.3324 C   0  0  0  0  0  0  0  0  0  0  0  0
   36.1334   44.5303    6.3267 H   0  0  0  0  0  0  0  0  0  0  0  0
  1  2  2  0  0  0
  1  6  1  0  0  0
  1 18  1  0  0  0
  2  3  1  0  0  0
  2  7  1  0  0  0
  3  4  2  0  0  0
  4  5  1  0  0  0
  5  6  2  0  0  0
  5 10  1  0  0  0
 18 19  1  0  0  0
 19 21  1  0  0  0
 19 20  1  0  0  0
 21 22  2  0  0  0
 21 26  1  0  0  0
 22 23  1  0  0  0
 22 28  1  0  0  0
 23 24  2  0  0  0
 24 25  1  0  0  0
 25 26  2  0  0  0
 25 27  1  0  0  0
 10 11  2  0  0  0
 10 15  1  0  0  0
 11 12  1  0  0  0
 11 16  1  0  0  0
 12 13  2  0  0  0
 13 14  1  0  0  0
 14 15  2  0  0  0
 16 17  1  0  0  0
 28 29  1  0  0  0
 28 30  2  0  0  0
 29 31  1  0  0  0
  7  8  1  0  0  0
  7  9  1  0  0  0
 29 32  1  0  0  0
M  END
> <minimizedAffinity>
-8.08738

$$$$
4CMO_YPW_A_2402


 32 34  0  0  0  0  0  0  0  0999 V2000
   30.9272   44.9539    7.5714 C   0  0  0  0  0  0  0  0  0  0  0  0
   31.2657   43.7662    8.2456 C   0  0  0  0  0  0  0  0  0  0  0  0
   32.5513   43.2939    8.1628 N   0  0  0  0  0  0  0  0  0  0  0  0
   33.4734   43.9885    7.4183 C   0  0  0  0  0  0  0  0  0  0  0  0
   33.1543   45.1724    6.7369 C   0  0  0  0  0  0  0  0  0  0  0  0
   31.8533   45.6453    6.8302 N   0  0  0  0  0  0  0  0  0  0  0  0
   30.3166   43.0618    8.9998 N   0  0  0  0  0  0  0  0  0  0  0  0
   29.3924   43.3952    9.0633 H   0  0  0  0  0  0  0  0  0  0  0  0
   30.5743   42.2338    9.4659 H   0  0  0  0  0  0  0  0  0  0  0  0
   34.1024   45.9670    5.8965 C   0  0  0  0  0  0  0  0  0  0  0  0
   35.1507   46.8333    6.3642 C   0  0  0  0  0  0  0  0  0  0  0  0
   35.9987   47.5345    5.5112 N   0  0  0  0  0  0  0  0  0  0  0  0
   35.8364   47.4003    4.1588 C   0  0  0  0  0  0  0  0  0  0  0  0
   34.8583   46.5902    3.5839 C   0  0  0  0  0  0  0  0  0  0  0  0
   34.0015   45.8824    4.4663 C   0  0  0  0  0  0  0  0  0  0  0  0
   35.3237   46.9727    7.7399 O   0  0  0  0  0  0  0  0  0  0  0  0
   34.7803   48.1549    8.3494 C   0  0  0  0  0  0  0  0  0  0  0  0
   29.6099   45.3950    7.6882 O   0  0  0  0  0  0  0  0  0  0  0  0
   29.3201   46.5388    8.5319 C   0  0  0  0  0  0  0  0  0  0  0  0
   28.6563   45.9551    9.7905 C   0  0  0  0  0  0  0  0  0  0  0  0
   28.4218   47.5980    7.8688 C   0  0  0  0  0  0  0  0  0  0  0  0
   28.9481   48.7641    7.1701 C   0  0  0  0  0  0  0  0  0  0  0  0
   28.0459   49.7110    6.5765 C   0  0  0  0  0  0  0  0  0  0  0  0
   26.6437   49.5260    6.6631 C   0  0  0  0  0  0  0  0  0  0  0  0
   26.1312   48.4004    7.3417 C   0  0  0  0  0  0  0  0  0  0  0  0
   26.9892   47.4460    7.9374 C   0  0  0  0  0  0  0  0  0  0  0  0
   24.8078   48.2275    7.4224 F   0  0  0  0  0  0  0  0  0  0  0  0
   30.4245   49.0469    7.0360 C   0  0  0  0  0  0  0  0  0  0  0  0
   30.9792   48.7998    5.7806 N   0  0  0  0  0  0  0  0  0  0  0  0
   31.0434   49.4815    8.0073 O   0  0  0  0  0  0  0  0  0  0  0  0
   32.3805   49.0316    5.4841 C   0  0  0  0  0  0  0  0  0  0  0  0
   30.3963   48.4541    5.0665 H   0  0  0  0  0  0  0  0  0  0  0  0
  1  2  2  0  0  0
  1  6  1  0  0  0
  1 18  1  0  0  0
  2  3  1  0  0  0
  2  7  1  0  0  0
  3  4  2  0  0  0
  4  5  1  0  0  0
  5  6  2  0  0  0
  5 10  1  0  0  0
 18 19  1  0  0  0
 19 21  1  0  0  0
 19 20  1  0  0  0
 21 22  2  0  0  0
 21 26  1  0  0  0
 22 23  1  0  0  0
 22 28  1  0  0  0
 23 24  2  0  0  0
 24 25  1  0  0  0
 25 26  2  0  0  0
 25 27  1  0  0  0
 10 11  2  0  0  0
 10 15  1  0  0  0
 11 12  1  0  0  0
 11 16  1  0  0  0
 12 13  2  0  0  0
 13 14  1  0  0  0
 14 15  2  0  0  0
 16 17  1  0  0  0
 28 29  1  0  0  0
 28 30  2  0  0  0
 29 31  1  0  0  0
  7  8  1  0  0  0
  7  9  1  0  0  0
 29 32  1  0  0  0
M  END
> <minimizedAffinity>
-7.76644

$$$$
4CMO_YPW_A_2402


 32 34  0  0  0  0  0  0  0  0999 V2000
   31.2795   45.3789    7.6504 C   0  0  0  0  0  0  0  0  0  0  0  0
   31.6213   44.0597    8.0004 C   0  0  0  0  0  0  0  0  0  0  0  0
   32.9459   43.7091    8.0722 N   0  0  0  0  0  0  0  0  0  0  0  0
   33.9045   44.6528    7.7937 C   0  0  0  0  0  0  0  0  0  0  0  0
   33.5835   45.9719    7.4403 C   0  0  0  0  0  0  0  0  0  0  0  0
   32.2417   46.3188    7.3750 N   0  0  0  0  0  0  0  0  0  0  0  0
   30.6357   43.1022    8.2789 N   0  0  0  0  0  0  0  0  0  0  0  0
   29.6834   43.3471    8.2292 H   0  0  0  0  0  0  0  0  0  0  0  0
   30.8959   42.1849    8.5241 H   0  0  0  0  0  0  0  0  0  0  0  0
   34.5740   47.0420    7.1082 C   0  0  0  0  0  0  0  0  0  0  0  0
   35.4150   47.1068    5.9434 C   0  0  0  0  0  0  0  0  0  0  0  0
   36.3092   48.1469    5.7047 N   0  0  0  0  0  0  0  0  0  0  0  0
   36.4007   49.1637    6.6163 C   0  0  0  0  0  0  0  0  0  0  0  0
   35.6382   49.2147    7.7823 C   0  0  0  0  0  0  0  0  0  0  0  0
   34.7319   48.1472    8.0118 C   0  0  0  0  0  0  0  0  0  0  0  0
   35.3253   46.0764    5.0095 O   0  0  0  0  0  0  0  0  0  0  0  0
   34.5089   46.3146    3.8515 C   0  0  0  0  0  0  0  0  0  0  0  0
   29.9211   45.6875    7.5940 O   0  0  0  0  0  0  0  0  0  0  0  0
   29.3829   46.6771    8.5076 C   0  0  0  0  0  0  0  0  0  0  0  0
   28.6714   45.8690    9.6059 C   0  0  0  0  0  0  0  0  0  0  0  0
   28.4248   47.6858    7.8494 C   0  0  0  0  0  0  0  0  0  0  0  0
   28.8846   48.8434    7.0920 C   0  0  0  0  0  0  0  0  0  0  0  0
   27.9292   49.7420    6.5069 C   0  0  0  0  0  0  0  0  0  0  0  0
   26.5383   49.5175    6.6584 C   0  0  0  0  0  0  0  0  0  0  0  0
   26.0902   48.4000    7.3938 C   0  0  0  0  0  0  0  0  0  0  0  0
   27.0019   47.4926    7.9831 C   0  0  0  0  0  0  0  0  0  0  0  0
   24.7774   48.1899    7.5357 F   0  0  0  0  0  0  0  0  0  0  0  0
   30.3446   49.1663    6.8868 C   0  0  0  0  0  0  0  0  0  0  0  0
   30.8656   48.8538    5.6315 N   0  0  0  0  0  0  0  0  0  0  0  0
   30.9794   49.6864    7.8044 O   0  0  0  0  0  0  0  0  0  0  0  0
   32.2469   49.1124    5.2705 C   0  0  0  0  0  0  0  0  0  0  0  0
   30.2721   48.4410    4.9632 H   0  0  0  0  0  0  0  0  0  0  0  0
  1  2  2  0  0  0
  1  6  1  0  0  0
  1 18  1  0  0  0
  2  3  1  0  0  0
  2  7  1  0  0  0
  3  4  2  0  0  0
  4  5  1  0  0  0
  5  6  2  0  0  0
  5 10  1  0  0  0
 18 19  1  0  0  0
 19 21  1  0  0  0
 19 20  1  0  0  0
 21 22  2  0  0  0
 21 26  1  0  0  0
 22 23  1  0  0  0
 22 28  1  0  0  0
 23 24  2  0  0  0
 24 25  1  0  0  0
 25 26  2  0  0  0
 25 27  1  0  0  0
 10 11  2  0  0  0
 10 15  1  0  0  0
 11 12  1  0  0  0
 11 16  1  0  0  0
 12 13  2  0  0  0
 13 14  1  0  0  0
 14 15  2  0  0  0
 16 17  1  0  0  0
 28 29  1  0  0  0
 28 30  2  0  0  0
 29 31  1  0  0  0
  7  8  1  0  0  0
  7  9  1  0  0  0
 29 32  1  0  0  0
M  END
> <minimizedAffinity>
-7.58329

$$$$
4CMO_YPW_A_2402


 32 34  0  0  0  0  0  0  0  0999 V2000
   36.4952   44.0444    7.0984 C   0  0  0  0  0  0  0  0  0  0  0  0
   37.8706   43.8130    6.9135 C   0  0  0  0  0  0  0  0  0  0  0  0
   38.6864   44.8648    6.5800 N   0  0  0  0  0  0  0  0  0  0  0  0
   38.1386   46.1153    6.4282 C   0  0  0  0  0  0  0  0  0  0  0  0
   36.7696   46.3652    6.6054 C   0  0  0  0  0  0  0  0  0  0  0  0
   35.9531   45.2968    6.9473 N   0  0  0  0  0  0  0  0  0  0  0  0
   38.4201   42.5322    7.0666 N   0  0  0  0  0  0  0  0  0  0  0  0
   37.8404   41.7733    7.3058 H   0  0  0  0  0  0  0  0  0  0  0  0
   39.3856   42.3918    6.9349 H   0  0  0  0  0  0  0  0  0  0  0  0
   36.1063   47.6951    6.4390 C   0  0  0  0  0  0  0  0  0  0  0  0
   35.3166   48.1303    5.3186 C   0  0  0  0  0  0  0  0  0  0  0  0
   34.7245   49.3883    5.2450 N   0  0  0  0  0  0  0  0  0  0  0  0
   34.8951   50.2622    6.2845 C   0  0  0  0  0  0  0  0  0  0  0  0
   35.6366   49.9567    7.4249 C   0  0  0  0  0  0  0  0  0  0  0  0
   36.2343   48.6711    7.4848 C   0  0  0  0  0  0  0  0  0  0  0  0
   35.1363   47.2450    4.2577 O   0  0  0  0  0  0  0  0  0  0  0  0
   33.8750   46.5607    4.1860 C   0  0  0  0  0  0  0  0  0  0  0  0
   35.7083   42.9453    7.4393 O   0  0  0  0  0  0  0  0  0  0  0  0
   35.0164   42.9401    8.7141 C   0  0  0  0  0  0  0  0  0  0  0  0
   35.3704   41.5904    9.3610 C   0  0  0  0  0  0  0  0  0  0  0  0
   33.4921   43.1218    8.6033 C   0  0  0  0  0  0  0  0  0  0  0  0
   32.7991   44.3247    9.0477 C   0  0  0  0  0  0  0  0  0  0  0  0
   31.3724   44.4208    8.9124 C   0  0  0  0  0  0  0  0  0  0  0  0
   30.6261   43.3551    8.3511 C   0  0  0  0  0  0  0  0  0  0  0  0
   31.2934   42.1881    7.9233 C   0  0  0  0  0  0  0  0  0  0  0  0
   32.6975   42.0584    8.0394 C   0  0  0  0  0  0  0  0  0  0  0  0
   30.5874   41.1836    7.3938 F   0  0  0  0  0  0  0  0  0  0  0  0
   33.5101   45.5043    9.6649 C   0  0  0  0  0  0  0  0  0  0  0  0
   34.0720   45.2854   10.9223 N   0  0  0  0  0  0  0  0  0  0  0  0
   33.5691   46.5638    9.0408 O   0  0  0  0  0  0  0  0  0  0  0  0
   34.7990   46.3125   11.6448 C   0  0  0  0  0  0  0  0  0  0  0  0
   33.9713   44.3980   11.3366 H   0  0  0  0  0  0  0  0  0  0  0  0
  1  2  2  0  0  0
  1  6  1  0  0  0
  1 18  1  0  0  0
  2  3  1  0  0  0
  2  7  1  0  0  0
  3  4  2  0  0  0
  4  5  1  0  0  0
  5  6  2  0  0  0
  5 10  1  0  0  0
 18 19  1  0  0  0
 19 21  1  0  0  0
 19 20  1  0  0  0
 21 22  2  0  0  0
 21 26  1  0  0  0
 22 23  1  0  0  0
 22 28  1  0  0  0
 23 24  2  0  0  0
 24 25  1  0  0  0
 25 26  2  0  0  0
 25 27  1  0  0  0
 10 11  2  0  0  0
 10 15  1  0  0  0
 11 12  1  0  0  0
 11 16  1  0  0  0
 12 13  2  0  0  0
 13 14  1  0  0  0
 14 15  2  0  0  0
 16 17  1  0  0  0
 28 29  1  0  0  0
 28 30  2  0  0  0
 29 31  1  0  0  0
  7  8  1  0  0  0
  7  9  1  0  0  0
 29 32  1  0  0  0
M  END
> <minimizedAffinity>
-7.47630

$$$$
4CMO_YPW_A_2402


 32 34  0  0  0  0  0  0  0  0999 V2000
   32.6154   46.4861    5.6385 C   0  0  0  0  0  0  0  0  0  0  0  0
   32.2887   47.6728    4.9568 C   0  0  0  0  0  0  0  0  0  0  0  0
   31.1481   48.3514    5.3053 N   0  0  0  0  0  0  0  0  0  0  0  0
   30.3505   47.8514    6.3057 C   0  0  0  0  0  0  0  0  0  0  0  0
   30.6578   46.6687    6.9946 C   0  0  0  0  0  0  0  0  0  0  0  0
   31.8156   45.9918    6.6391 N   0  0  0  0  0  0  0  0  0  0  0  0
   33.1069   48.1733    3.9341 N   0  0  0  0  0  0  0  0  0  0  0  0
   33.9266   47.6914    3.6792 H   0  0  0  0  0  0  0  0  0  0  0  0
   32.8616   49.0067    3.4709 H   0  0  0  0  0  0  0  0  0  0  0  0
   29.8267   46.0605    8.0790 C   0  0  0  0  0  0  0  0  0  0  0  0
   28.5835   46.5643    8.5975 C   0  0  0  0  0  0  0  0  0  0  0  0
   27.8651   45.9303    9.6076 N   0  0  0  0  0  0  0  0  0  0  0  0
   28.3562   44.7693   10.1408 C   0  0  0  0  0  0  0  0  0  0  0  0
   29.5488   44.1813    9.7218 C   0  0  0  0  0  0  0  0  0  0  0  0
   30.2697   44.8396    8.6919 C   0  0  0  0  0  0  0  0  0  0  0  0
   28.0759   47.7445    8.0575 O   0  0  0  0  0  0  0  0  0  0  0  0
   26.6860   47.7506    7.6934 C   0  0  0  0  0  0  0  0  0  0  0  0
   33.7853   45.8346    5.2508 O   0  0  0  0  0  0  0  0  0  0  0  0
   35.0045   46.0656    6.0019 C   0  0  0  0  0  0  0  0  0  0  0  0
   36.0467   45.1196    5.3819 C   0  0  0  0  0  0  0  0  0  0  0  0
   34.8657   45.8258    7.5159 C   0  0  0  0  0  0  0  0  0  0  0  0
   34.8119   46.9073    8.4917 C   0  0  0  0  0  0  0  0  0  0  0  0
   34.6824   46.6047    9.8898 C   0  0  0  0  0  0  0  0  0  0  0  0
   34.6074   45.2615   10.3349 C   0  0  0  0  0  0  0  0  0  0  0  0
   34.6629   44.2125    9.3932 C   0  0  0  0  0  0  0  0  0  0  0  0
   34.7887   44.4723    8.0081 C   0  0  0  0  0  0  0  0  0  0  0  0
   34.5920   42.9458    9.8151 F   0  0  0  0  0  0  0  0  0  0  0  0
   34.8936   48.3653    8.1106 C   0  0  0  0  0  0  0  0  0  0  0  0
   36.1604   48.9434    8.1869 N   0  0  0  0  0  0  0  0  0  0  0  0
   33.8723   48.9497    7.7490 O   0  0  0  0  0  0  0  0  0  0  0  0
   36.4101   50.3308    7.8430 C   0  0  0  0  0  0  0  0  0  0  0  0
   36.9160   48.3876    8.4861 H   0  0  0  0  0  0  0  0  0  0  0  0
  1  2  2  0  0  0
  1  6  1  0  0  0
  1 18  1  0  0  0
  2  3  1  0  0  0
  2  7  1  0  0  0
  3  4  2  0  0  0
  4  5  1  0  0  0
  5  6  2  0  0  0
  5 10  1  0  0  0
 18 19  1  0  0  0
 19 21  1  0  0  0
 19 20  1  0  0  0
 21 22  2  0  0  0
 21 26  1  0  0  0
 22 23  1  0  0  0
 22 28  1  0  0  0
 23 24  2  0  0  0
 24 25  1  0  0  0
 25 26  2  0  0  0
 25 27  1  0  0  0
 10 11  2  0  0  0
 10 15  1  0  0  0
 11 12  1  0  0  0
 11 16  1  0  0  0
 12 13  2  0  0  0
 13 14  1  0  0  0
 14 15  2  0  0  0
 16 17  1  0  0  0
 28 29  1  0  0  0
 28 30  2  0  0  0
 29 31  1  0  0  0
  7  8  1  0  0  0
  7  9  1  0  0  0
 29 32  1  0  0  0
M  END
> <minimizedAffinity>
-7.38781

$$$$
4CMO_YPW_A_2402


 32 34  0  0  0  0  0  0  0  0999 V2000
   31.8456   43.9530    7.8537 C   0  0  0  0  0  0  0  0  0  0  0  0
   31.7474   42.5600    8.0253 C   0  0  0  0  0  0  0  0  0  0  0  0
   32.8863   41.8349    8.2703 N   0  0  0  0  0  0  0  0  0  0  0  0
   34.0940   42.4861    8.3347 C   0  0  0  0  0  0  0  0  0  0  0  0
   34.2125   43.8734    8.1634 C   0  0  0  0  0  0  0  0  0  0  0  0
   33.0551   44.5993    7.9210 N   0  0  0  0  0  0  0  0  0  0  0  0
   30.5107   41.9033    7.9538 N   0  0  0  0  0  0  0  0  0  0  0  0
   29.6897   42.4176    7.7783 H   0  0  0  0  0  0  0  0  0  0  0  0
   30.4632   40.9280    8.0790 H   0  0  0  0  0  0  0  0  0  0  0  0
   35.4948   44.6418    8.2034 C   0  0  0  0  0  0  0  0  0  0  0  0
   36.5363   44.6330    7.2118 C   0  0  0  0  0  0  0  0  0  0  0  0
   37.7014   45.3872    7.3221 N   0  0  0  0  0  0  0  0  0  0  0  0
   37.8749   46.1803    8.4240 C   0  0  0  0  0  0  0  0  0  0  0  0
   36.9377   46.2751    9.4517 C   0  0  0  0  0  0  0  0  0  0  0  0
   35.7558   45.4999    9.3251 C   0  0  0  0  0  0  0  0  0  0  0  0
   36.3654   43.8300    6.0858 O   0  0  0  0  0  0  0  0  0  0  0  0
   36.5523   44.4537    4.8050 C   0  0  0  0  0  0  0  0  0  0  0  0
   30.6608   44.6461    7.6103 O   0  0  0  0  0  0  0  0  0  0  0  0
   30.2254   45.6551    8.5570 C   0  0  0  0  0  0  0  0  0  0  0  0
   29.2891   44.9193    9.5303 C   0  0  0  0  0  0  0  0  0  0  0  0
   29.5206   46.8614    7.9111 C   0  0  0  0  0  0  0  0  0  0  0  0
   30.2226   47.8629    7.1180 C   0  0  0  0  0  0  0  0  0  0  0  0
   29.4961   48.9625    6.5471 C   0  0  0  0  0  0  0  0  0  0  0  0
   28.0989   49.0877    6.7473 C   0  0  0  0  0  0  0  0  0  0  0  0
   27.4172   48.1219    7.5174 C   0  0  0  0  0  0  0  0  0  0  0  0
   28.0994   47.0246    8.0940 C   0  0  0  0  0  0  0  0  0  0  0  0
   26.0988   48.2418    7.7052 F   0  0  0  0  0  0  0  0  0  0  0  0
   31.7089   47.8156    6.8601 C   0  0  0  0  0  0  0  0  0  0  0  0
   32.5151   48.3857    7.8449 N   0  0  0  0  0  0  0  0  0  0  0  0
   32.1233   47.2802    5.8320 O   0  0  0  0  0  0  0  0  0  0  0  0
   33.9630   48.4108    7.7541 C   0  0  0  0  0  0  0  0  0  0  0  0
   32.0843   48.7874    8.6338 H   0  0  0  0  0  0  0  0  0  0  0  0
  1  2  2  0  0  0
  1  6  1  0  0  0
  1 18  1  0  0  0
  2  3  1  0  0  0
  2  7  1  0  0  0
  3  4  2  0  0  0
  4  5  1  0  0  0
  5  6  2  0  0  0
  5 10  1  0  0  0
 18 19  1  0  0  0
 19 21  1  0  0  0
 19 20  1  0  0  0
 21 22  2  0  0  0
 21 26  1  0  0  0
 22 23  1  0  0  0
 22 28  1  0  0  0
 23 24  2  0  0  0
 24 25  1  0  0  0
 25 26  2  0  0  0
 25 27  1  0  0  0
 10 11  2  0  0  0
 10 15  1  0  0  0
 11 12  1  0  0  0
 11 16  1  0  0  0
 12 13  2  0  0  0
 13 14  1  0  0  0
 14 15  2  0  0  0
 16 17  1  0  0  0
 28 29  1  0  0  0
 28 30  2  0  0  0
 29 31  1  0  0  0
  7  8  1  0  0  0
  7  9  1  0  0  0
 29 32  1  0  0  0
M  END
> <minimizedAffinity>
-7.31928

$$$$
4CMO_YPW_A_2402


 32 34  0  0  0  0  0  0  0  0999 V2000
   34.4553   46.7309    8.1970 C   0  0  0  0  0  0  0  0  0  0  0  0
   35.0817   46.2769    9.3722 C   0  0  0  0  0  0  0  0  0  0  0  0
   36.4510   46.1982    9.4122 N   0  0  0  0  0  0  0  0  0  0  0  0
   37.1752   46.5576    8.3016 C   0  0  0  0  0  0  0  0  0  0  0  0
   36.5689   47.0096    7.1201 C   0  0  0  0  0  0  0  0  0  0  0  0
   35.1841   47.0908    7.0904 N   0  0  0  0  0  0  0  0  0  0  0  0
   34.3339   45.9083   10.4995 N   0  0  0  0  0  0  0  0  0  0  0  0
   33.3511   45.9625   10.4775 H   0  0  0  0  0  0  0  0  0  0  0  0
   34.7916   45.5953   11.3130 H   0  0  0  0  0  0  0  0  0  0  0  0
   37.2945   47.3993    5.8719 C   0  0  0  0  0  0  0  0  0  0  0  0
   37.2522   46.7229    4.6034 C   0  0  0  0  0  0  0  0  0  0  0  0
   37.9551   47.1577    3.4830 N   0  0  0  0  0  0  0  0  0  0  0  0
   38.7274   48.2834    3.5815 C   0  0  0  0  0  0  0  0  0  0  0  0
   38.8483   49.0260    4.7552 C   0  0  0  0  0  0  0  0  0  0  0  0
   38.1264   48.5699    5.8885 C   0  0  0  0  0  0  0  0  0  0  0  0
   36.4658   45.5776    4.4948 O   0  0  0  0  0  0  0  0  0  0  0  0
   35.1912   45.7202    3.8472 C   0  0  0  0  0  0  0  0  0  0  0  0
   33.0628   46.7965    8.2063 O   0  0  0  0  0  0  0  0  0  0  0  0
   32.3017   45.7444    7.5600 C   0  0  0  0  0  0  0  0  0  0  0  0
   31.7266   46.3856    6.2858 C   0  0  0  0  0  0  0  0  0  0  0  0
   31.1856   45.1468    8.4352 C   0  0  0  0  0  0  0  0  0  0  0  0
   31.2283   43.7885    8.9625 C   0  0  0  0  0  0  0  0  0  0  0  0
   30.1472   43.3003    9.7723 C   0  0  0  0  0  0  0  0  0  0  0  0
   29.0334   44.1258   10.0654 C   0  0  0  0  0  0  0  0  0  0  0  0
   28.9875   45.4396    9.5536 C   0  0  0  0  0  0  0  0  0  0  0  0
   30.0345   45.9552    8.7537 C   0  0  0  0  0  0  0  0  0  0  0  0
   27.9357   46.2170    9.8313 F   0  0  0  0  0  0  0  0  0  0  0  0
   32.3684   42.8366    8.6949 C   0  0  0  0  0  0  0  0  0  0  0  0
   33.3720   42.8028    9.6626 N   0  0  0  0  0  0  0  0  0  0  0  0
   32.3493   42.1483    7.6744 O   0  0  0  0  0  0  0  0  0  0  0  0
   34.5292   41.9333    9.5608 C   0  0  0  0  0  0  0  0  0  0  0  0
   33.2921   43.3928   10.4466 H   0  0  0  0  0  0  0  0  0  0  0  0
  1  2  2  0  0  0
  1  6  1  0  0  0
  1 18  1  0  0  0
  2  3  1  0  0  0
  2  7  1  0  0  0
  3  4  2  0  0  0
  4  5  1  0  0  0
  5  6  2  0  0  0
  5 10  1  0  0  0
 18 19  1  0  0  0
 19 21  1  0  0  0
 19 20  1  0  0  0
 21 22  2  0  0  0
 21 26  1  0  0  0
 22 23  1  0  0  0
 22 28  1  0  0  0
 23 24  2  0  0  0
 24 25  1  0  0  0
 25 26  2  0  0  0
 25 27  1  0  0  0
 10 11  2  0  0  0
 10 15  1  0  0  0
 11 12  1  0  0  0
 11 16  1  0  0  0
 12 13  2  0  0  0
 13 14  1  0  0  0
 14 15  2  0  0  0
 16 17  1  0  0  0
 28 29  1  0  0  0
 28 30  2  0  0  0
 29 31  1  0  0  0
  7  8  1  0  0  0
  7  9  1  0  0  0
 29 32  1  0  0  0
M  END
> <minimizedAffinity>
-7.21185

$$$$
4CMO_YPW_A_2402


 32 34  0  0  0  0  0  0  0  0999 V2000
   33.1993   48.1706    6.4208 C   0  0  0  0  0  0  0  0  0  0  0  0
   32.9755   48.1083    5.0331 C   0  0  0  0  0  0  0  0  0  0  0  0
   32.0854   47.1875    4.5403 N   0  0  0  0  0  0  0  0  0  0  0  0
   31.4408   46.3453    5.4133 C   0  0  0  0  0  0  0  0  0  0  0  0
   31.6528   46.3902    6.7993 C   0  0  0  0  0  0  0  0  0  0  0  0
   32.5508   47.3277    7.2891 N   0  0  0  0  0  0  0  0  0  0  0  0
   33.6413   48.9693    4.1493 N   0  0  0  0  0  0  0  0  0  0  0  0
   34.2811   49.6322    4.4962 H   0  0  0  0  0  0  0  0  0  0  0  0
   33.4689   48.9111    3.1817 H   0  0  0  0  0  0  0  0  0  0  0  0
   30.9994   45.4936    7.8020 C   0  0  0  0  0  0  0  0  0  0  0  0
   31.4110   44.1650    8.1678 C   0  0  0  0  0  0  0  0  0  0  0  0
   30.7489   43.3963    9.1213 N   0  0  0  0  0  0  0  0  0  0  0  0
   29.6511   43.9205    9.7484 C   0  0  0  0  0  0  0  0  0  0  0  0
   29.1559   45.1962    9.4815 C   0  0  0  0  0  0  0  0  0  0  0  0
   29.8412   45.9671    8.5070 C   0  0  0  0  0  0  0  0  0  0  0  0
   32.5297   43.6257    7.5355 O   0  0  0  0  0  0  0  0  0  0  0  0
   32.9358   42.3081    7.9396 C   0  0  0  0  0  0  0  0  0  0  0  0
   34.1098   49.1243    6.8732 O   0  0  0  0  0  0  0  0  0  0  0  0
   35.2575   48.6934    7.6484 C   0  0  0  0  0  0  0  0  0  0  0  0
   36.1437   49.9427    7.7877 C   0  0  0  0  0  0  0  0  0  0  0  0
   36.0376   47.5245    7.0208 C   0  0  0  0  0  0  0  0  0  0  0  0
   36.2785   46.2648    7.7136 C   0  0  0  0  0  0  0  0  0  0  0  0
   37.0169   45.2191    7.0624 C   0  0  0  0  0  0  0  0  0  0  0  0
   37.5179   45.3977    5.7490 C   0  0  0  0  0  0  0  0  0  0  0  0
   37.2895   46.6170    5.0772 C   0  0  0  0  0  0  0  0  0  0  0  0
   36.5653   47.6689    5.6864 C   0  0  0  0  0  0  0  0  0  0  0  0
   37.7631   46.7837    3.8380 F   0  0  0  0  0  0  0  0  0  0  0  0
   35.7912   45.9894    9.1152 C   0  0  0  0  0  0  0  0  0  0  0  0
   34.4951   45.4852    9.2200 N   0  0  0  0  0  0  0  0  0  0  0  0
   36.5437   46.2034   10.0656 O   0  0  0  0  0  0  0  0  0  0  0  0
   33.8832   45.1569   10.4940 C   0  0  0  0  0  0  0  0  0  0  0  0
   33.9743   45.3465    8.3961 H   0  0  0  0  0  0  0  0  0  0  0  0
  1  2  2  0  0  0
  1  6  1  0  0  0
  1 18  1  0  0  0
  2  3  1  0  0  0
  2  7  1  0  0  0
  3  4  2  0  0  0
  4  5  1  0  0  0
  5  6  2  0  0  0
  5 10  1  0  0  0
 18 19  1  0  0  0
 19 21  1  0  0  0
 19 20  1  0  0  0
 21 22  2  0  0  0
 21 26  1  0  0  0
 22 23  1  0  0  0
 22 28  1  0  0  0
 23 24  2  0  0  0
 24 25  1  0  0  0
 25 26  2  0  0  0
 25 27  1  0  0  0
 10 11  2  0  0  0
 10 15  1  0  0  0
 11 12  1  0  0  0
 11 16  1  0  0  0
 12 13  2  0  0  0
 13 14  1  0  0  0
 14 15  2  0  0  0
 16 17  1  0  0  0
 28 29  1  0  0  0
 28 30  2  0  0  0
 29 31  1  0  0  0
  7  8  1  0  0  0
  7  9  1  0  0  0
 29 32  1  0  0  0
M  END
> <minimizedAffinity>
-7.12849

$$$$
4CMO_YPW_A_2402


 32 34  0  0  0  0  0  0  0  0999 V2000
   33.6218   44.8983    6.7822 C   0  0  0  0  0  0  0  0  0  0  0  0
   34.5213   43.8487    7.0446 C   0  0  0  0  0  0  0  0  0  0  0  0
   35.8002   43.9260    6.5534 N   0  0  0  0  0  0  0  0  0  0  0  0
   36.1678   45.0225    5.8122 C   0  0  0  0  0  0  0  0  0  0  0  0
   35.2847   46.0773    5.5376 C   0  0  0  0  0  0  0  0  0  0  0  0
   33.9951   45.9931    6.0424 N   0  0  0  0  0  0  0  0  0  0  0  0
   34.1357   42.7314    7.7988 N   0  0  0  0  0  0  0  0  0  0  0  0
   33.2196   42.6696    8.1541 H   0  0  0  0  0  0  0  0  0  0  0  0
   34.7810   42.0086    7.9730 H   0  0  0  0  0  0  0  0  0  0  0  0
   35.6133   47.2889    4.7249 C   0  0  0  0  0  0  0  0  0  0  0  0
   36.1638   48.5270    5.2071 C   0  0  0  0  0  0  0  0  0  0  0  0
   36.4492   49.6091    4.3788 N   0  0  0  0  0  0  0  0  0  0  0  0
   36.1981   49.5007    3.0377 C   0  0  0  0  0  0  0  0  0  0  0  0
   35.6675   48.3529    2.4506 C   0  0  0  0  0  0  0  0  0  0  0  0
   35.3814   47.2589    3.3079 C   0  0  0  0  0  0  0  0  0  0  0  0
   36.4246   48.6437    6.5710 O   0  0  0  0  0  0  0  0  0  0  0  0
   35.4608   49.3590    7.3608 C   0  0  0  0  0  0  0  0  0  0  0  0
   32.3353   44.7755    7.3050 O   0  0  0  0  0  0  0  0  0  0  0  0
   31.9443   45.6125    8.4232 C   0  0  0  0  0  0  0  0  0  0  0  0
   32.0824   44.7174    9.6662 C   0  0  0  0  0  0  0  0  0  0  0  0
   30.5227   46.1912    8.3089 C   0  0  0  0  0  0  0  0  0  0  0  0
   30.2325   47.4710    7.6743 C   0  0  0  0  0  0  0  0  0  0  0  0
   28.8789   47.9463    7.6065 C   0  0  0  0  0  0  0  0  0  0  0  0
   27.8167   47.1838    8.1527 C   0  0  0  0  0  0  0  0  0  0  0  0
   28.0947   45.9465    8.7707 C   0  0  0  0  0  0  0  0  0  0  0  0
   29.4153   45.4457    8.8549 C   0  0  0  0  0  0  0  0  0  0  0  0
   27.0911   45.2285    9.2855 F   0  0  0  0  0  0  0  0  0  0  0  0
   31.2998   48.3536    7.0744 C   0  0  0  0  0  0  0  0  0  0  0  0
   31.4886   48.2293    5.6983 N   0  0  0  0  0  0  0  0  0  0  0  0
   31.9214   49.1254    7.8047 O   0  0  0  0  0  0  0  0  0  0  0  0
   32.4659   49.0146    4.9678 C   0  0  0  0  0  0  0  0  0  0  0  0
   30.9363   47.5826    5.2023 H   0  0  0  0  0  0  0  0  0  0  0  0
  1  2  2  0  0  0
  1  6  1  0  0  0
  1 18  1  0  0  0
  2  3  1  0  0  0
  2  7  1  0  0  0
  3  4  2  0  0  0
  4  5  1  0  0  0
  5  6  2  0  0  0
  5 10  1  0  0  0
 18 19  1  0  0  0
 19 21  1  0  0  0
 19 20  1  0  0  0
 21 22  2  0  0  0
 21 26  1  0  0  0
 22 23  1  0  0  0
 22 28  1  0  0  0
 23 24  2  0  0  0
 24 25  1  0  0  0
 25 26  2  0  0  0
 25 27  1  0  0  0
 10 11  2  0  0  0
 10 15  1  0  0  0
 11 12  1  0  0  0
 11 16  1  0  0  0
 12 13  2  0  0  0
 13 14  1  0  0  0
 14 15  2  0  0  0
 16 17  1  0  0  0
 28 29  1  0  0  0
 28 30  2  0  0  0
 29 31  1  0  0  0
  7  8  1  0  0  0
  7  9  1  0  0  0
 29 32  1  0  0  0
M  END
> <minimizedAffinity>
-7.04357

$$$$
