5B5G_6FX_C_202


 21 23  0  0  0  0  0  0  0  0999 V2000
   13.7413  -28.7778    6.4632 C   0  0  0  0  0  0  0  0  0  0  0  0
   14.1431  -26.4366    6.9612 C   0  0  0  0  0  0  0  0  0  0  0  0
   15.7778  -28.5982    3.4231 C   0  0  0  0  0  0  0  0  0  0  0  0
   15.8094  -27.3088    3.9368 O   0  0  0  0  0  0  0  0  0  0  0  0
   15.1111  -27.2162    5.0557 C   0  0  0  0  0  0  0  0  0  0  0  0
   14.9510  -26.0503    5.8156 C   0  0  0  0  0  0  0  0  0  0  0  0
   13.5796  -27.6645    7.2301 N   0  0  0  0  0  0  0  0  0  0  0  0
   13.2126  -29.9545    6.7619 O   0  0  0  0  0  0  0  0  0  0  0  0
   14.5567  -28.5168    5.3233 C   0  0  0  0  0  0  0  0  0  0  0  0
   15.0070  -29.3901    4.2995 C   0  0  0  0  0  0  0  0  0  0  0  0
   13.0191  -27.7427    8.0356 H   0  0  0  0  0  0  0  0  0  0  0  0
   17.6410  -28.3162    0.3207 C   0  0  0  0  0  0  0  0  0  0  0  0
   17.7456  -29.6402   -0.0767 C   0  0  0  0  0  0  0  0  0  0  0  0
   16.9915  -27.9307    1.4354 C   0  0  0  0  0  0  0  0  0  0  0  0
   16.4629  -28.9835    2.1711 C   0  0  0  0  0  0  0  0  0  0  0  0
   16.5459  -30.4673    1.8139 C   0  0  0  0  0  0  0  0  0  0  0  0
   17.2603  -30.7098    0.5706 N   0  0  0  0  0  0  0  0  0  0  0  0
   18.2860  -27.5677   -1.7677 O   0  0  0  0  0  0  0  0  0  0  0  0
   18.2169  -27.3240   -0.5754 C   0  0  0  0  0  0  0  0  0  0  0  0
   18.6583  -26.0556   -0.0931 O   0  0  0  0  0  0  0  0  0  0  0  0
   18.1185  -24.8779   -0.6746 C   0  0  0  0  0  0  0  0  0  0  0  0
 18 19  2  0  0  0
 21 20  1  0  0  0
 19 20  1  0  0  0
 19 12  1  0  0  0
 13 12  2  0  0  0
 13 17  1  0  0  0
 12 14  1  0  0  0
 17 16  2  0  0  0
 14 15  2  0  0  0
 16 15  1  0  0  0
 15  3  1  0  0  0
  3  4  1  0  0  0
  3 10  2  0  0  0
  4  5  1  0  0  0
 10  9  1  0  0  0
  5  9  2  0  0  0
  5  6  1  0  0  0
  9  1  1  0  0  0
  6  2  2  0  0  0
  1  8  2  0  0  0
  1  7  1  0  0  0
  2  7  1  0  0  0
  7 11  1  0  0  0
M  END
> <minimizedAffinity>
-8.74160

$$$$
5B5G_6FX_C_202


 21 23  0  0  0  0  0  0  0  0999 V2000
   13.8458  -28.7465    6.4207 C   0  0  0  0  0  0  0  0  0  0  0  0
   14.2227  -26.3927    6.8769 C   0  0  0  0  0  0  0  0  0  0  0  0
   15.7022  -28.5497    3.2685 C   0  0  0  0  0  0  0  0  0  0  0  0
   15.7339  -27.2554    3.7695 O   0  0  0  0  0  0  0  0  0  0  0  0
   15.0983  -27.1680    4.9255 C   0  0  0  0  0  0  0  0  0  0  0  0
   14.9555  -25.9991    5.6842 C   0  0  0  0  0  0  0  0  0  0  0  0
   13.7030  -27.6301    7.1869 N   0  0  0  0  0  0  0  0  0  0  0  0
   13.3614  -29.9318    6.7582 O   0  0  0  0  0  0  0  0  0  0  0  0
   14.5892  -28.4780    5.2343 C   0  0  0  0  0  0  0  0  0  0  0  0
   15.0002  -29.3504    4.1933 C   0  0  0  0  0  0  0  0  0  0  0  0
   13.1909  -27.7134    8.0236 H   0  0  0  0  0  0  0  0  0  0  0  0
   17.3522  -30.5544    0.7317 C   0  0  0  0  0  0  0  0  0  0  0  0
   17.4172  -29.6742   -0.3373 C   0  0  0  0  0  0  0  0  0  0  0  0
   16.8265  -30.2246    1.9267 C   0  0  0  0  0  0  0  0  0  0  0  0
   16.3237  -28.9312    1.9825 C   0  0  0  0  0  0  0  0  0  0  0  0
   16.3410  -27.9049    0.8500 C   0  0  0  0  0  0  0  0  0  0  0  0
   16.9624  -28.4127   -0.3628 N   0  0  0  0  0  0  0  0  0  0  0  0
   18.7693  -32.0128   -0.3648 O   0  0  0  0  0  0  0  0  0  0  0  0
   17.9542  -31.8643    0.5292 C   0  0  0  0  0  0  0  0  0  0  0  0
   17.6444  -32.9638    1.3844 O   0  0  0  0  0  0  0  0  0  0  0  0
   16.6221  -33.8679    0.9919 C   0  0  0  0  0  0  0  0  0  0  0  0
 18 19  2  0  0  0
 21 20  1  0  0  0
 19 20  1  0  0  0
 19 12  1  0  0  0
 13 12  2  0  0  0
 13 17  1  0  0  0
 12 14  1  0  0  0
 17 16  2  0  0  0
 14 15  2  0  0  0
 16 15  1  0  0  0
 15  3  1  0  0  0
  3  4  1  0  0  0
  3 10  2  0  0  0
  4  5  1  0  0  0
 10  9  1  0  0  0
  5  9  2  0  0  0
  5  6  1  0  0  0
  9  1  1  0  0  0
  6  2  2  0  0  0
  1  8  2  0  0  0
  1  7  1  0  0  0
  2  7  1  0  0  0
  7 11  1  0  0  0
M  END
> <minimizedAffinity>
-8.49965

$$$$
5B5G_6FX_C_202


 21 23  0  0  0  0  0  0  0  0999 V2000
   13.7108  -28.5478    6.6339 C   0  0  0  0  0  0  0  0  0  0  0  0
   14.4217  -26.2321    6.4834 C   0  0  0  0  0  0  0  0  0  0  0  0
   15.3828  -29.3846    3.4833 C   0  0  0  0  0  0  0  0  0  0  0  0
   15.6152  -28.0257    3.6476 O   0  0  0  0  0  0  0  0  0  0  0  0
   15.0678  -27.5721    4.7623 C   0  0  0  0  0  0  0  0  0  0  0  0
   15.1264  -26.2467    5.2117 C   0  0  0  0  0  0  0  0  0  0  0  0
   13.7631  -27.2709    7.1035 N   0  0  0  0  0  0  0  0  0  0  0  0
   13.0957  -29.5350    7.2668 O   0  0  0  0  0  0  0  0  0  0  0  0
   14.4100  -28.6825    5.3989 C   0  0  0  0  0  0  0  0  0  0  0  0
   14.6387  -29.8298    4.5957 C   0  0  0  0  0  0  0  0  0  0  0  0
   13.2961  -27.0758    7.9480 H   0  0  0  0  0  0  0  0  0  0  0  0
   17.4670  -30.3996    0.6901 C   0  0  0  0  0  0  0  0  0  0  0  0
   16.8060  -31.5277    0.2293 C   0  0  0  0  0  0  0  0  0  0  0  0
   17.0283  -29.6606    1.7267 C   0  0  0  0  0  0  0  0  0  0  0  0
   15.8696  -30.1497    2.3159 C   0  0  0  0  0  0  0  0  0  0  0  0
   15.0891  -31.3902    1.8821 C   0  0  0  0  0  0  0  0  0  0  0  0
   15.6840  -32.0596    0.7362 N   0  0  0  0  0  0  0  0  0  0  0  0
   18.8930  -28.8053   -0.1831 O   0  0  0  0  0  0  0  0  0  0  0  0
   18.6496  -29.9928   -0.0550 C   0  0  0  0  0  0  0  0  0  0  0  0
   19.5528  -30.9554   -0.5971 O   0  0  0  0  0  0  0  0  0  0  0  0
   19.9395  -30.8386   -1.9585 C   0  0  0  0  0  0  0  0  0  0  0  0
 18 19  2  0  0  0
 21 20  1  0  0  0
 19 20  1  0  0  0
 19 12  1  0  0  0
 13 12  2  0  0  0
 13 17  1  0  0  0
 12 14  1  0  0  0
 17 16  2  0  0  0
 14 15  2  0  0  0
 16 15  1  0  0  0
 15  3  1  0  0  0
  3  4  1  0  0  0
  3 10  2  0  0  0
  4  5  1  0  0  0
 10  9  1  0  0  0
  5  9  2  0  0  0
  5  6  1  0  0  0
  9  1  1  0  0  0
  6  2  2  0  0  0
  1  8  2  0  0  0
  1  7  1  0  0  0
  2  7  1  0  0  0
  7 11  1  0  0  0
M  END
> <minimizedAffinity>
-8.49088

$$$$
5B5G_6FX_C_202


 21 23  0  0  0  0  0  0  0  0999 V2000
   18.5377  -28.5122    0.1586 C   0  0  0  0  0  0  0  0  0  0  0  0
   18.9958  -30.8818   -0.0979 C   0  0  0  0  0  0  0  0  0  0  0  0
   15.5829  -29.1901    2.2157 C   0  0  0  0  0  0  0  0  0  0  0  0
   16.0663  -30.4475    1.8803 O   0  0  0  0  0  0  0  0  0  0  0  0
   17.1521  -30.3647    1.1306 C   0  0  0  0  0  0  0  0  0  0  0  0
   17.8764  -31.4551    0.6318 C   0  0  0  0  0  0  0  0  0  0  0  0
   19.2701  -29.5517   -0.3281 N   0  0  0  0  0  0  0  0  0  0  0  0
   18.8420  -27.2410   -0.0530 O   0  0  0  0  0  0  0  0  0  0  0  0
   17.4273  -28.9668    0.9285 C   0  0  0  0  0  0  0  0  0  0  0  0
   16.4447  -28.2323    1.6417 C   0  0  0  0  0  0  0  0  0  0  0  0
   20.0529  -29.3369   -0.8852 H   0  0  0  0  0  0  0  0  0  0  0  0
   13.4796  -28.5209    5.0975 C   0  0  0  0  0  0  0  0  0  0  0  0
   12.2083  -28.5692    4.5467 C   0  0  0  0  0  0  0  0  0  0  0  0
   14.6004  -28.7397    4.3839 C   0  0  0  0  0  0  0  0  0  0  0  0
   14.3706  -28.9857    3.0365 C   0  0  0  0  0  0  0  0  0  0  0  0
   13.0074  -29.0412    2.3474 C   0  0  0  0  0  0  0  0  0  0  0  0
   11.9020  -28.8055    3.2626 N   0  0  0  0  0  0  0  0  0  0  0  0
   13.5809  -29.2407    7.2905 O   0  0  0  0  0  0  0  0  0  0  0  0
   13.5550  -28.2867    6.5322 C   0  0  0  0  0  0  0  0  0  0  0  0
   13.6462  -26.9660    7.0649 O   0  0  0  0  0  0  0  0  0  0  0  0
   14.7343  -26.1435    6.6699 C   0  0  0  0  0  0  0  0  0  0  0  0
 18 19  2  0  0  0
 21 20  1  0  0  0
 19 20  1  0  0  0
 19 12  1  0  0  0
 13 12  2  0  0  0
 13 17  1  0  0  0
 12 14  1  0  0  0
 17 16  2  0  0  0
 14 15  2  0  0  0
 16 15  1  0  0  0
 15  3  1  0  0  0
  3  4  1  0  0  0
  3 10  2  0  0  0
  4  5  1  0  0  0
 10  9  1  0  0  0
  5  9  2  0  0  0
  5  6  1  0  0  0
  9  1  1  0  0  0
  6  2  2  0  0  0
  1  8  2  0  0  0
  1  7  1  0  0  0
  2  7  1  0  0  0
  7 11  1  0  0  0
M  END
> <minimizedAffinity>
-8.14984

$$$$
5B5G_6FX_C_202


 21 23  0  0  0  0  0  0  0  0999 V2000
   14.4019  -26.3401    5.4409 C   0  0  0  0  0  0  0  0  0  0  0  0
   12.3335  -27.5677    5.1168 C   0  0  0  0  0  0  0  0  0  0  0  0
   15.9786  -28.0205    2.5928 C   0  0  0  0  0  0  0  0  0  0  0  0
   14.7106  -28.5812    2.6662 O   0  0  0  0  0  0  0  0  0  0  0  0
   14.0088  -28.0629    3.6595 C   0  0  0  0  0  0  0  0  0  0  0  0
   12.6951  -28.4166    3.9930 C   0  0  0  0  0  0  0  0  0  0  0  0
   13.1208  -26.6524    5.7800 N   0  0  0  0  0  0  0  0  0  0  0  0
   15.1263  -25.4328    6.0778 O   0  0  0  0  0  0  0  0  0  0  0  0
   14.8468  -27.0949    4.3164 C   0  0  0  0  0  0  0  0  0  0  0  0
   16.0809  -27.0561    3.6169 C   0  0  0  0  0  0  0  0  0  0  0  0
   12.7285  -26.1904    6.5558 H   0  0  0  0  0  0  0  0  0  0  0  0
   18.0314  -30.1298    0.4683 C   0  0  0  0  0  0  0  0  0  0  0  0
   18.7514  -29.1954   -0.2600 C   0  0  0  0  0  0  0  0  0  0  0  0
   17.1397  -29.7941    1.4198 C   0  0  0  0  0  0  0  0  0  0  0  0
   16.9807  -28.4241    1.5837 C   0  0  0  0  0  0  0  0  0  0  0  0
   17.7204  -27.3298    0.8146 C   0  0  0  0  0  0  0  0  0  0  0  0
   18.6616  -27.8611   -0.1585 N   0  0  0  0  0  0  0  0  0  0  0  0
   19.0847  -31.8131   -0.7126 O   0  0  0  0  0  0  0  0  0  0  0  0
   18.3358  -31.5290    0.2062 C   0  0  0  0  0  0  0  0  0  0  0  0
   17.8132  -32.5694    1.0312 O   0  0  0  0  0  0  0  0  0  0  0  0
   17.5363  -33.8326    0.4445 C   0  0  0  0  0  0  0  0  0  0  0  0
 18 19  2  0  0  0
 21 20  1  0  0  0
 19 20  1  0  0  0
 19 12  1  0  0  0
 13 12  2  0  0  0
 13 17  1  0  0  0
 12 14  1  0  0  0
 17 16  2  0  0  0
 14 15  2  0  0  0
 16 15  1  0  0  0
 15  3  1  0  0  0
  3  4  1  0  0  0
  3 10  2  0  0  0
  4  5  1  0  0  0
 10  9  1  0  0  0
  5  9  2  0  0  0
  5  6  1  0  0  0
  9  1  1  0  0  0
  6  2  2  0  0  0
  1  8  2  0  0  0
  1  7  1  0  0  0
  2  7  1  0  0  0
  7 11  1  0  0  0
M  END
> <minimizedAffinity>
-8.14744

$$$$
5B5G_6FX_C_202


 21 23  0  0  0  0  0  0  0  0999 V2000
   17.9466  -32.3618    0.5034 C   0  0  0  0  0  0  0  0  0  0  0  0
   18.9578  -30.3585   -0.4211 C   0  0  0  0  0  0  0  0  0  0  0  0
   15.7329  -30.3888    2.6548 C   0  0  0  0  0  0  0  0  0  0  0  0
   16.4959  -29.4427    1.9839 O   0  0  0  0  0  0  0  0  0  0  0  0
   17.3523  -30.0121    1.1531 C   0  0  0  0  0  0  0  0  0  0  0  0
   18.2589  -29.3295    0.3318 C   0  0  0  0  0  0  0  0  0  0  0  0
   18.8281  -31.7259   -0.3165 N   0  0  0  0  0  0  0  0  0  0  0  0
   17.8214  -33.6788    0.5615 O   0  0  0  0  0  0  0  0  0  0  0  0
   17.1764  -31.4358    1.2661 C   0  0  0  0  0  0  0  0  0  0  0  0
   16.1308  -31.6626    2.1983 C   0  0  0  0  0  0  0  0  0  0  0  0
   19.4157  -32.2840   -0.8755 H   0  0  0  0  0  0  0  0  0  0  0  0
   14.0599  -28.6451    5.3635 C   0  0  0  0  0  0  0  0  0  0  0  0
   12.8568  -29.3285    5.4496 C   0  0  0  0  0  0  0  0  0  0  0  0
   15.0306  -28.9698    4.4887 C   0  0  0  0  0  0  0  0  0  0  0  0
   14.7048  -30.0321    3.6554 C   0  0  0  0  0  0  0  0  0  0  0  0
   13.3998  -30.8276    3.6731 C   0  0  0  0  0  0  0  0  0  0  0  0
   12.4693  -30.3636    4.6899 N   0  0  0  0  0  0  0  0  0  0  0  0
   13.5773  -27.5390    7.3336 O   0  0  0  0  0  0  0  0  0  0  0  0
   14.2679  -27.5765    6.3299 C   0  0  0  0  0  0  0  0  0  0  0  0
   15.2935  -26.6010    6.1485 O   0  0  0  0  0  0  0  0  0  0  0  0
   15.0259  -25.4726    5.3290 C   0  0  0  0  0  0  0  0  0  0  0  0
 18 19  2  0  0  0
 21 20  1  0  0  0
 19 20  1  0  0  0
 19 12  1  0  0  0
 13 12  2  0  0  0
 13 17  1  0  0  0
 12 14  1  0  0  0
 17 16  2  0  0  0
 14 15  2  0  0  0
 16 15  1  0  0  0
 15  3  1  0  0  0
  3  4  1  0  0  0
  3 10  2  0  0  0
  4  5  1  0  0  0
 10  9  1  0  0  0
  5  9  2  0  0  0
  5  6  1  0  0  0
  9  1  1  0  0  0
  6  2  2  0  0  0
  1  8  2  0  0  0
  1  7  1  0  0  0
  2  7  1  0  0  0
  7 11  1  0  0  0
M  END
> <minimizedAffinity>
-7.90504

$$$$
5B5G_6FX_C_202


 21 23  0  0  0  0  0  0  0  0999 V2000
   17.6309  -29.4896   -0.5385 C   0  0  0  0  0  0  0  0  0  0  0  0
   18.5130  -27.2313   -0.6491 C   0  0  0  0  0  0  0  0  0  0  0  0
   16.0332  -28.8292    2.6915 C   0  0  0  0  0  0  0  0  0  0  0  0
   16.6773  -27.6407    2.3751 O   0  0  0  0  0  0  0  0  0  0  0  0
   17.3051  -27.7242    1.2146 C   0  0  0  0  0  0  0  0  0  0  0  0
   18.0440  -26.6944    0.6182 C   0  0  0  0  0  0  0  0  0  0  0  0
   18.3434  -28.5034   -1.1495 N   0  0  0  0  0  0  0  0  0  0  0  0
   17.4582  -30.6957   -1.0573 O   0  0  0  0  0  0  0  0  0  0  0  0
   17.0896  -29.0530    0.7059 C   0  0  0  0  0  0  0  0  0  0  0  0
   16.2610  -29.7348    1.6345 C   0  0  0  0  0  0  0  0  0  0  0  0
   18.7685  -28.7149   -2.0120 H   0  0  0  0  0  0  0  0  0  0  0  0
   14.2307  -28.0624    5.7476 C   0  0  0  0  0  0  0  0  0  0  0  0
   13.8404  -29.3210    6.1782 C   0  0  0  0  0  0  0  0  0  0  0  0
   14.9628  -27.8582    4.6360 C   0  0  0  0  0  0  0  0  0  0  0  0
   15.2645  -29.0214    3.9395 C   0  0  0  0  0  0  0  0  0  0  0  0
   14.8617  -30.4419    4.3346 C   0  0  0  0  0  0  0  0  0  0  0  0
   14.0950  -30.4887    5.5695 N   0  0  0  0  0  0  0  0  0  0  0  0
   14.7414  -26.1967    7.0109 O   0  0  0  0  0  0  0  0  0  0  0  0
   13.8677  -26.9435    6.6051 C   0  0  0  0  0  0  0  0  0  0  0  0
   12.5067  -26.6768    6.9410 O   0  0  0  0  0  0  0  0  0  0  0  0
   11.5214  -26.7655    5.9221 C   0  0  0  0  0  0  0  0  0  0  0  0
 18 19  2  0  0  0
 21 20  1  0  0  0
 19 20  1  0  0  0
 19 12  1  0  0  0
 13 12  2  0  0  0
 13 17  1  0  0  0
 12 14  1  0  0  0
 17 16  2  0  0  0
 14 15  2  0  0  0
 16 15  1  0  0  0
 15  3  1  0  0  0
  3  4  1  0  0  0
  3 10  2  0  0  0
  4  5  1  0  0  0
 10  9  1  0  0  0
  5  9  2  0  0  0
  5  6  1  0  0  0
  9  1  1  0  0  0
  6  2  2  0  0  0
  1  8  2  0  0  0
  1  7  1  0  0  0
  2  7  1  0  0  0
  7 11  1  0  0  0
M  END
> <minimizedAffinity>
-7.66498

$$$$
5B5G_6FX_C_202


 21 23  0  0  0  0  0  0  0  0999 V2000
   14.3030  -26.9207    6.2313 C   0  0  0  0  0  0  0  0  0  0  0  0
   12.6465  -28.6845    6.4206 C   0  0  0  0  0  0  0  0  0  0  0  0
   15.6969  -28.4012    3.1838 C   0  0  0  0  0  0  0  0  0  0  0  0
   14.6807  -29.2705    3.5567 O   0  0  0  0  0  0  0  0  0  0  0  0
   14.0712  -28.8598    4.6557 C   0  0  0  0  0  0  0  0  0  0  0  0
   13.0048  -29.5165    5.2833 C   0  0  0  0  0  0  0  0  0  0  0  0
   13.2565  -27.5284    6.8552 N   0  0  0  0  0  0  0  0  0  0  0  0
   14.8510  -25.7919    6.6542 O   0  0  0  0  0  0  0  0  0  0  0  0
   14.7125  -27.6403    5.0708 C   0  0  0  0  0  0  0  0  0  0  0  0
   15.7214  -27.3445    4.1177 C   0  0  0  0  0  0  0  0  0  0  0  0
   12.9104  -27.1110    7.6770 H   0  0  0  0  0  0  0  0  0  0  0  0
   17.7711  -27.7049    0.2874 C   0  0  0  0  0  0  0  0  0  0  0  0
   18.1342  -28.9783   -0.1227 C   0  0  0  0  0  0  0  0  0  0  0  0
   16.9634  -27.4720    1.3394 C   0  0  0  0  0  0  0  0  0  0  0  0
   16.5524  -28.6231    1.9988 C   0  0  0  0  0  0  0  0  0  0  0  0
   16.9175  -30.0591    1.6235 C   0  0  0  0  0  0  0  0  0  0  0  0
   17.7769  -30.1358    0.4529 N   0  0  0  0  0  0  0  0  0  0  0  0
   18.7370  -25.6234    0.0186 O   0  0  0  0  0  0  0  0  0  0  0  0
   18.2539  -26.5999   -0.5281 C   0  0  0  0  0  0  0  0  0  0  0  0
   18.2157  -26.6573   -1.9534 O   0  0  0  0  0  0  0  0  0  0  0  0
   16.9716  -26.4695   -2.6117 C   0  0  0  0  0  0  0  0  0  0  0  0
 18 19  2  0  0  0
 21 20  1  0  0  0
 19 20  1  0  0  0
 19 12  1  0  0  0
 13 12  2  0  0  0
 13 17  1  0  0  0
 12 14  1  0  0  0
 17 16  2  0  0  0
 14 15  2  0  0  0
 16 15  1  0  0  0
 15  3  1  0  0  0
  3  4  1  0  0  0
  3 10  2  0  0  0
  4  5  1  0  0  0
 10  9  1  0  0  0
  5  9  2  0  0  0
  5  6  1  0  0  0
  9  1  1  0  0  0
  6  2  2  0  0  0
  1  8  2  0  0  0
  1  7  1  0  0  0
  2  7  1  0  0  0
  7 11  1  0  0  0
M  END
> <minimizedAffinity>
-7.61424

$$$$
5B5G_6FX_C_202


 21 23  0  0  0  0  0  0  0  0999 V2000
   14.1999  -26.9519    5.0242 C   0  0  0  0  0  0  0  0  0  0  0  0
   12.4422  -27.7600    6.4898 C   0  0  0  0  0  0  0  0  0  0  0  0
   15.0919  -30.3622    4.0260 C   0  0  0  0  0  0  0  0  0  0  0  0
   14.0618  -30.5284    4.9418 O   0  0  0  0  0  0  0  0  0  0  0  0
   13.6245  -29.3660    5.3950 C   0  0  0  0  0  0  0  0  0  0  0  0
   12.5924  -29.1971    6.3270 C   0  0  0  0  0  0  0  0  0  0  0  0
   13.1911  -26.7556    5.9172 N   0  0  0  0  0  0  0  0  0  0  0  0
   14.8838  -25.9654    4.4652 O   0  0  0  0  0  0  0  0  0  0  0  0
   14.4071  -28.3377    4.7617 C   0  0  0  0  0  0  0  0  0  0  0  0
   15.3138  -28.9773    3.8771 C   0  0  0  0  0  0  0  0  0  0  0  0
   12.9815  -25.8281    6.1723 H   0  0  0  0  0  0  0  0  0  0  0  0
   16.9108  -32.2787    1.5371 C   0  0  0  0  0  0  0  0  0  0  0  0
   17.0594  -33.5050    2.1663 C   0  0  0  0  0  0  0  0  0  0  0  0
   16.2594  -31.2395    2.0930 C   0  0  0  0  0  0  0  0  0  0  0  0
   15.7774  -31.4958    3.3701 C   0  0  0  0  0  0  0  0  0  0  0  0
   15.9107  -32.8095    4.1399 C   0  0  0  0  0  0  0  0  0  0  0  0
   16.6203  -33.8339    3.3901 N   0  0  0  0  0  0  0  0  0  0  0  0
   17.0298  -31.2953   -0.5501 O   0  0  0  0  0  0  0  0  0  0  0  0
   17.4406  -32.1765    0.1851 C   0  0  0  0  0  0  0  0  0  0  0  0
   18.4631  -33.0566   -0.2799 O   0  0  0  0  0  0  0  0  0  0  0  0
   18.1623  -33.9552   -1.3376 C   0  0  0  0  0  0  0  0  0  0  0  0
 18 19  2  0  0  0
 21 20  1  0  0  0
 19 20  1  0  0  0
 19 12  1  0  0  0
 13 12  2  0  0  0
 13 17  1  0  0  0
 12 14  1  0  0  0
 17 16  2  0  0  0
 14 15  2  0  0  0
 16 15  1  0  0  0
 15  3  1  0  0  0
  3  4  1  0  0  0
  3 10  2  0  0  0
  4  5  1  0  0  0
 10  9  1  0  0  0
  5  9  2  0  0  0
  5  6  1  0  0  0
  9  1  1  0  0  0
  6  2  2  0  0  0
  1  8  2  0  0  0
  1  7  1  0  0  0
  2  7  1  0  0  0
  7 11  1  0  0  0
M  END
> <minimizedAffinity>
-7.59955

$$$$
5B5G_6FX_C_202


 21 23  0  0  0  0  0  0  0  0999 V2000
   14.9079  -26.4008    5.5287 C   0  0  0  0  0  0  0  0  0  0  0  0
   13.5029  -27.7479    6.9785 C   0  0  0  0  0  0  0  0  0  0  0  0
   15.5233  -29.2402    3.2969 C   0  0  0  0  0  0  0  0  0  0  0  0
   14.7156  -29.7581    4.3004 O   0  0  0  0  0  0  0  0  0  0  0  0
   14.4004  -28.8351    5.1930 C   0  0  0  0  0  0  0  0  0  0  0  0
   13.5982  -29.0421    6.3225 C   0  0  0  0  0  0  0  0  0  0  0  0
   14.1201  -26.5678    6.6266 N   0  0  0  0  0  0  0  0  0  0  0  0
   15.4645  -25.2459    5.1970 O   0  0  0  0  0  0  0  0  0  0  0  0
   15.0376  -27.6107    4.7860 C   0  0  0  0  0  0  0  0  0  0  0  0
   15.7227  -27.8711    3.5709 C   0  0  0  0  0  0  0  0  0  0  0  0
   13.9815  -25.7882    7.2116 H   0  0  0  0  0  0  0  0  0  0  0  0
   17.6381  -30.3393    0.5591 C   0  0  0  0  0  0  0  0  0  0  0  0
   17.0212  -31.5185    0.1709 C   0  0  0  0  0  0  0  0  0  0  0  0
   17.1734  -29.5568    1.5515 C   0  0  0  0  0  0  0  0  0  0  0  0
   16.0367  -30.0548    2.1753 C   0  0  0  0  0  0  0  0  0  0  0  0
   15.3050  -31.3491    1.8213 C   0  0  0  0  0  0  0  0  0  0  0  0
   15.9227  -32.0626    0.7148 N   0  0  0  0  0  0  0  0  0  0  0  0
   19.0655  -28.7460   -0.3137 O   0  0  0  0  0  0  0  0  0  0  0  0
   18.8015  -29.9319   -0.2153 C   0  0  0  0  0  0  0  0  0  0  0  0
   19.6637  -30.8940   -0.8213 O   0  0  0  0  0  0  0  0  0  0  0  0
   19.7488  -30.9389   -2.2381 C   0  0  0  0  0  0  0  0  0  0  0  0
 18 19  2  0  0  0
 21 20  1  0  0  0
 19 20  1  0  0  0
 19 12  1  0  0  0
 13 12  2  0  0  0
 13 17  1  0  0  0
 12 14  1  0  0  0
 17 16  2  0  0  0
 14 15  2  0  0  0
 16 15  1  0  0  0
 15  3  1  0  0  0
  3  4  1  0  0  0
  3 10  2  0  0  0
  4  5  1  0  0  0
 10  9  1  0  0  0
  5  9  2  0  0  0
  5  6  1  0  0  0
  9  1  1  0  0  0
  6  2  2  0  0  0
  1  8  2  0  0  0
  1  7  1  0  0  0
  2  7  1  0  0  0
  7 11  1  0  0  0
M  END
> <minimizedAffinity>
-7.52450

$$$$
