4PSB_GA3_A_201


 28 32  0  0  0  0  0  0  0  0999 V2000
   11.0657    0.2761   19.8597 C   0  0  0  0  0  0  0  0  0  0  0  0
   11.7242    1.1364   20.9477 C   0  0  0  0  0  0  0  0  0  0  0  0
   12.2659   -0.3679   19.1229 C   0  0  0  0  0  0  0  0  0  0  0  0
   12.6730   -1.8047   19.4888 C   0  0  0  0  0  0  0  0  0  0  0  0
   13.4643   -2.2159   18.2826 C   0  0  0  0  0  0  0  0  0  0  0  0
   14.3659   -3.1769   18.2044 C   0  0  0  0  0  0  0  0  0  0  0  0
   13.2416   -1.2297   17.1486 C   0  0  0  0  0  0  0  0  0  0  0  0
   11.9858   -0.4772   17.6228 C   0  0  0  0  0  0  0  0  0  0  0  0
   13.1756   -1.7991   15.8254 O   0  0  0  0  0  0  0  0  0  0  0  0
   14.3985   -0.2171   17.1119 C   0  0  0  0  0  0  0  0  0  0  0  0
   14.0446    1.0075   17.9586 C   0  0  0  0  0  0  0  0  0  0  0  0
   13.4942    0.5581   19.3131 C   0  0  0  0  0  0  0  0  0  0  0  0
   12.9418    1.6803   20.1751 C   0  0  0  0  0  0  0  0  0  0  0  0
   12.2706    2.7573   19.3902 O   0  0  0  0  0  0  0  0  0  0  0  0
   13.8888    2.4268   21.0654 C   0  0  0  0  0  0  0  0  0  0  0  0
   13.3708    3.1625   22.0479 C   0  0  0  0  0  0  0  0  0  0  0  0
   11.9035    3.1949   22.3996 C   0  0  0  0  0  0  0  0  0  0  0  0
   11.7918    2.6111   23.6910 O   0  0  0  0  0  0  0  0  0  0  0  0
   11.0290    2.4664   21.3440 C   0  0  0  0  0  0  0  0  0  0  0  0
    9.5545    2.3777   21.7384 C   0  0  0  0  0  0  0  0  0  0  0  0
   11.1886    3.2446   20.0568 C   0  0  0  0  0  0  0  0  0  0  0  0
   10.5197    4.1243   19.6144 O   0  0  0  0  0  0  0  0  0  0  0  0
   12.4576   -2.4503   15.7891 H   0  0  0  0  0  0  0  0  0  0  0  0
   12.1300    1.7023   23.6653 H   0  0  0  0  0  0  0  0  0  0  0  0
   10.2896   -1.3142   21.4936 O   0  0  0  0  0  0  0  0  0  0  0  0
   10.1573   -0.8467   20.3373 C   0  0  0  0  0  0  0  0  0  0  0  0
    9.2879   -1.2283   19.5271 O   0  0  0  0  0  0  0  0  0  0  0  0
   10.9626   -0.9865   22.0573 H   0  0  0  0  0  0  0  0  0  0  0  0
 25 26  1  0  0  0
 26 27  2  0  0  0
 26  1  1  0  0  0
  1  2  1  0  0  0
  1  3  1  0  0  0
  2 13  1  0  0  0
  2 19  1  0  0  0
  3  4  1  0  0  0
  3  8  1  0  0  0
  3 12  1  0  0  0
  4  5  1  0  0  0
  5  6  2  0  0  0
  5  7  1  0  0  0
  7  8  1  0  0  0
  7  9  1  0  0  0
  7 10  1  0  0  0
 10 11  1  0  0  0
 11 12  1  0  0  0
 12 13  1  0  0  0
 13 14  1  0  0  0
 13 15  1  0  0  0
 14 21  1  0  0  0
 15 16  2  0  0  0
 16 17  1  0  0  0
 17 18  1  0  0  0
 17 19  1  0  0  0
 19 20  1  0  0  0
 19 21  1  0  0  0
 21 22  2  0  0  0
 25 28  1  0  0  0
  9 23  1  0  0  0
 18 24  1  0  0  0
M  END
> <minimizedAffinity>
-11.10243

$$$$
4PSB_GA3_A_201


 28 32  0  0  0  0  0  0  0  0999 V2000
   10.7572    0.7237   19.5450 C   0  0  0  0  0  0  0  0  0  0  0  0
   11.7711    0.3029   18.4717 C   0  0  0  0  0  0  0  0  0  0  0  0
   11.1193    2.2012   19.8346 C   0  0  0  0  0  0  0  0  0  0  0  0
   10.2986    3.3100   19.1556 C   0  0  0  0  0  0  0  0  0  0  0  0
   10.5900    4.4897   20.0351 C   0  0  0  0  0  0  0  0  0  0  0  0
   10.4786    5.7680   19.7251 C   0  0  0  0  0  0  0  0  0  0  0  0
   11.2434    4.0310   21.3277 C   0  0  0  0  0  0  0  0  0  0  0  0
   10.9406    2.5222   21.3198 C   0  0  0  0  0  0  0  0  0  0  0  0
   10.8540    4.7478   22.5167 O   0  0  0  0  0  0  0  0  0  0  0  0
   12.7687    4.1948   21.2202 C   0  0  0  0  0  0  0  0  0  0  0  0
   13.3951    2.9004   20.6968 C   0  0  0  0  0  0  0  0  0  0  0  0
   12.6143    2.4038   19.4789 C   0  0  0  0  0  0  0  0  0  0  0  0
   13.0315    1.0322   18.9764 C   0  0  0  0  0  0  0  0  0  0  0  0
   13.4336    0.0968   20.0671 O   0  0  0  0  0  0  0  0  0  0  0  0
   14.1642    0.9461   17.9986 C   0  0  0  0  0  0  0  0  0  0  0  0
   14.3093   -0.1863   17.3119 C   0  0  0  0  0  0  0  0  0  0  0  0
   13.3370   -1.3394   17.3631 C   0  0  0  0  0  0  0  0  0  0  0  0
   12.7515   -1.4228   16.0704 O   0  0  0  0  0  0  0  0  0  0  0  0
   12.2757   -1.1650   18.4825 C   0  0  0  0  0  0  0  0  0  0  0  0
   11.2058   -2.2572   18.4760 C   0  0  0  0  0  0  0  0  0  0  0  0
   13.0374   -1.1755   19.7893 C   0  0  0  0  0  0  0  0  0  0  0  0
   13.2739   -2.0831   20.5222 O   0  0  0  0  0  0  0  0  0  0  0  0
    9.8939    4.6785   22.6362 H   0  0  0  0  0  0  0  0  0  0  0  0
   12.3012   -0.5886   15.8649 H   0  0  0  0  0  0  0  0  0  0  0  0
    8.3985    0.7246   20.0325 O   0  0  0  0  0  0  0  0  0  0  0  0
    9.2889    0.6743   19.1506 C   0  0  0  0  0  0  0  0  0  0  0  0
    9.0538    0.6107   17.9263 O   0  0  0  0  0  0  0  0  0  0  0  0
    8.6373    0.7713   20.9373 H   0  0  0  0  0  0  0  0  0  0  0  0
 25 26  1  0  0  0
 26 27  2  0  0  0
 26  1  1  0  0  0
  1  2  1  0  0  0
  1  3  1  0  0  0
  2 13  1  0  0  0
  2 19  1  0  0  0
  3  4  1  0  0  0
  3  8  1  0  0  0
  3 12  1  0  0  0
  4  5  1  0  0  0
  5  6  2  0  0  0
  5  7  1  0  0  0
  7  8  1  0  0  0
  7  9  1  0  0  0
  7 10  1  0  0  0
 10 11  1  0  0  0
 11 12  1  0  0  0
 12 13  1  0  0  0
 13 14  1  0  0  0
 13 15  1  0  0  0
 14 21  1  0  0  0
 15 16  2  0  0  0
 16 17  1  0  0  0
 17 18  1  0  0  0
 17 19  1  0  0  0
 19 20  1  0  0  0
 19 21  1  0  0  0
 21 22  2  0  0  0
 25 28  1  0  0  0
  9 23  1  0  0  0
 18 24  1  0  0  0
M  END
> <minimizedAffinity>
-10.93745

$$$$
4PSB_GA3_A_201


 28 32  0  0  0  0  0  0  0  0999 V2000
   12.2287    1.4402   20.8817 C   0  0  0  0  0  0  0  0  0  0  0  0
   11.8933    2.9101   20.5911 C   0  0  0  0  0  0  0  0  0  0  0  0
   11.8393    0.7082   19.5738 C   0  0  0  0  0  0  0  0  0  0  0  0
   12.9438    0.3716   18.5584 C   0  0  0  0  0  0  0  0  0  0  0  0
   12.2972   -0.7146   17.7507 C   0  0  0  0  0  0  0  0  0  0  0  0
   12.6125   -1.1008   16.5285 C   0  0  0  0  0  0  0  0  0  0  0  0
   11.0509   -1.2213   18.4565 C   0  0  0  0  0  0  0  0  0  0  0  0
   11.2430   -0.6673   19.8794 C   0  0  0  0  0  0  0  0  0  0  0  0
   10.8061   -2.6389   18.3577 O   0  0  0  0  0  0  0  0  0  0  0  0
    9.8082   -0.5388   17.8608 C   0  0  0  0  0  0  0  0  0  0  0  0
    9.4803    0.7282   18.6539 C   0  0  0  0  0  0  0  0  0  0  0  0
   10.7522    1.5522   18.8609 C   0  0  0  0  0  0  0  0  0  0  0  0
   10.5890    2.7455   19.7868 C   0  0  0  0  0  0  0  0  0  0  0  0
    9.6392    2.4998   20.9111 O   0  0  0  0  0  0  0  0  0  0  0  0
   10.1186    4.0424   19.2010 C   0  0  0  0  0  0  0  0  0  0  0  0
   10.2944    5.1504   19.9195 C   0  0  0  0  0  0  0  0  0  0  0  0
   11.0459    5.2024   21.2273 C   0  0  0  0  0  0  0  0  0  0  0  0
   12.2086    5.9841   20.9862 O   0  0  0  0  0  0  0  0  0  0  0  0
   11.3865    3.7874   21.7670 C   0  0  0  0  0  0  0  0  0  0  0  0
   12.2542    3.8135   23.0256 C   0  0  0  0  0  0  0  0  0  0  0  0
   10.0613    3.1150   22.0495 C   0  0  0  0  0  0  0  0  0  0  0  0
    9.4388    3.0611   23.0626 O   0  0  0  0  0  0  0  0  0  0  0  0
   11.5632   -3.1239   18.7215 H   0  0  0  0  0  0  0  0  0  0  0  0
   12.7392    5.5679   20.2890 H   0  0  0  0  0  0  0  0  0  0  0  0
   14.0047   -0.0062   21.6266 O   0  0  0  0  0  0  0  0  0  0  0  0
   13.6863    1.1204   21.1765 C   0  0  0  0  0  0  0  0  0  0  0  0
   14.5073    2.0243   20.9176 O   0  0  0  0  0  0  0  0  0  0  0  0
   13.3420   -0.6450   21.8017 H   0  0  0  0  0  0  0  0  0  0  0  0
 25 26  1  0  0  0
 26 27  2  0  0  0
 26  1  1  0  0  0
  1  2  1  0  0  0
  1  3  1  0  0  0
  2 13  1  0  0  0
  2 19  1  0  0  0
  3  4  1  0  0  0
  3  8  1  0  0  0
  3 12  1  0  0  0
  4  5  1  0  0  0
  5  6  2  0  0  0
  5  7  1  0  0  0
  7  8  1  0  0  0
  7  9  1  0  0  0
  7 10  1  0  0  0
 10 11  1  0  0  0
 11 12  1  0  0  0
 12 13  1  0  0  0
 13 14  1  0  0  0
 13 15  1  0  0  0
 14 21  1  0  0  0
 15 16  2  0  0  0
 16 17  1  0  0  0
 17 18  1  0  0  0
 17 19  1  0  0  0
 19 20  1  0  0  0
 19 21  1  0  0  0
 21 22  2  0  0  0
 25 28  1  0  0  0
  9 23  1  0  0  0
 18 24  1  0  0  0
M  END
> <minimizedAffinity>
-9.96675

$$$$
4PSB_GA3_A_201


 28 32  0  0  0  0  0  0  0  0999 V2000
   12.5850    1.5240   20.9115 C   0  0  0  0  0  0  0  0  0  0  0  0
   11.9500    2.8616   20.5053 C   0  0  0  0  0  0  0  0  0  0  0  0
   12.6578    0.7323   19.5826 C   0  0  0  0  0  0  0  0  0  0  0  0
   13.9878    0.7035   18.8116 C   0  0  0  0  0  0  0  0  0  0  0  0
   13.8096   -0.5027   17.9376 C   0  0  0  0  0  0  0  0  0  0  0  0
   14.4451   -0.7800   16.8143 C   0  0  0  0  0  0  0  0  0  0  0  0
   12.6203   -1.3213   18.4105 C   0  0  0  0  0  0  0  0  0  0  0  0
   12.3835   -0.7538   19.8212 C   0  0  0  0  0  0  0  0  0  0  0  0
   12.7685   -2.7529   18.3215 O   0  0  0  0  0  0  0  0  0  0  0  0
   11.3858   -0.9741   17.5615 C   0  0  0  0  0  0  0  0  0  0  0  0
   10.5980    0.1562   18.2275 C   0  0  0  0  0  0  0  0  0  0  0  0
   11.5525    1.2770   18.6424 C   0  0  0  0  0  0  0  0  0  0  0  0
   10.9135    2.3769   19.4728 C   0  0  0  0  0  0  0  0  0  0  0  0
    9.8570    1.8816   20.4028 O   0  0  0  0  0  0  0  0  0  0  0  0
   10.2522    3.5163   18.7580 C   0  0  0  0  0  0  0  0  0  0  0  0
    9.9965    4.6234   19.4534 C   0  0  0  0  0  0  0  0  0  0  0  0
   10.4398    4.8511   20.8779 C   0  0  0  0  0  0  0  0  0  0  0  0
   11.3891    5.9083   20.8342 O   0  0  0  0  0  0  0  0  0  0  0  0
   11.0172    3.5648   21.5274 C   0  0  0  0  0  0  0  0  0  0  0  0
   11.5866    3.7979   22.9270 C   0  0  0  0  0  0  0  0  0  0  0  0
    9.8779    2.5709   21.5763 C   0  0  0  0  0  0  0  0  0  0  0  0
    9.1043    2.3464   22.4527 O   0  0  0  0  0  0  0  0  0  0  0  0
   13.5380   -3.0313   18.8422 H   0  0  0  0  0  0  0  0  0  0  0  0
   12.1337    5.6510   20.2682 H   0  0  0  0  0  0  0  0  0  0  0  0
   14.7474    2.5434   21.2050 O   0  0  0  0  0  0  0  0  0  0  0  0
   13.9895    1.5863   21.4925 C   0  0  0  0  0  0  0  0  0  0  0  0
   14.3014    0.6597   22.2685 O   0  0  0  0  0  0  0  0  0  0  0  0
   14.4564    3.2104   20.6147 H   0  0  0  0  0  0  0  0  0  0  0  0
 25 26  1  0  0  0
 26 27  2  0  0  0
 26  1  1  0  0  0
  1  2  1  0  0  0
  1  3  1  0  0  0
  2 13  1  0  0  0
  2 19  1  0  0  0
  3  4  1  0  0  0
  3  8  1  0  0  0
  3 12  1  0  0  0
  4  5  1  0  0  0
  5  6  2  0  0  0
  5  7  1  0  0  0
  7  8  1  0  0  0
  7  9  1  0  0  0
  7 10  1  0  0  0
 10 11  1  0  0  0
 11 12  1  0  0  0
 12 13  1  0  0  0
 13 14  1  0  0  0
 13 15  1  0  0  0
 14 21  1  0  0  0
 15 16  2  0  0  0
 16 17  1  0  0  0
 17 18  1  0  0  0
 17 19  1  0  0  0
 19 20  1  0  0  0
 19 21  1  0  0  0
 21 22  2  0  0  0
 25 28  1  0  0  0
  9 23  1  0  0  0
 18 24  1  0  0  0
M  END
> <minimizedAffinity>
-9.94324

$$$$
4PSB_GA3_A_201


 28 32  0  0  0  0  0  0  0  0999 V2000
   10.4077    2.6835   20.6309 C   0  0  0  0  0  0  0  0  0  0  0  0
   11.8117    2.5920   20.0164 C   0  0  0  0  0  0  0  0  0  0  0  0
   10.5738    3.7113   21.7773 C   0  0  0  0  0  0  0  0  0  0  0  0
   10.1542    5.1695   21.5289 C   0  0  0  0  0  0  0  0  0  0  0  0
    9.9846    5.6825   22.9283 C   0  0  0  0  0  0  0  0  0  0  0  0
   10.0162    6.9392   23.3311 C   0  0  0  0  0  0  0  0  0  0  0  0
    9.9607    4.5246   23.9116 C   0  0  0  0  0  0  0  0  0  0  0  0
    9.7152    3.3226   22.9824 C   0  0  0  0  0  0  0  0  0  0  0  0
    9.0502    4.6622   25.0213 O   0  0  0  0  0  0  0  0  0  0  0  0
   11.3560    4.3481   24.5336 C   0  0  0  0  0  0  0  0  0  0  0  0
   12.1704    3.3489   23.7088 C   0  0  0  0  0  0  0  0  0  0  0  0
   12.0583    3.6925   22.2226 C   0  0  0  0  0  0  0  0  0  0  0  0
   12.6790    2.6683   21.2881 C   0  0  0  0  0  0  0  0  0  0  0  0
   12.5336    1.2624   21.7665 O   0  0  0  0  0  0  0  0  0  0  0  0
   14.1390    2.7865   20.9704 C   0  0  0  0  0  0  0  0  0  0  0  0
   14.6031    2.1175   19.9159 C   0  0  0  0  0  0  0  0  0  0  0  0
   13.7344    1.3496   18.9498 C   0  0  0  0  0  0  0  0  0  0  0  0
   13.8249    2.0319   17.7059 O   0  0  0  0  0  0  0  0  0  0  0  0
   12.2700    1.2220   19.4486 C   0  0  0  0  0  0  0  0  0  0  0  0
   11.3415    0.5565   18.4324 C   0  0  0  0  0  0  0  0  0  0  0  0
   12.3296    0.4111   20.7241 C   0  0  0  0  0  0  0  0  0  0  0  0
   12.2055   -0.7619   20.8838 O   0  0  0  0  0  0  0  0  0  0  0  0
    8.1472    4.7774   24.6864 H   0  0  0  0  0  0  0  0  0  0  0  0
   13.5137    2.9442   17.8141 H   0  0  0  0  0  0  0  0  0  0  0  0
    9.5658    3.9365   18.7541 O   0  0  0  0  0  0  0  0  0  0  0  0
    9.2969    3.1810   19.7185 C   0  0  0  0  0  0  0  0  0  0  0  0
    8.1482    2.7695   19.9816 O   0  0  0  0  0  0  0  0  0  0  0  0
   10.4491    4.2125   18.6073 H   0  0  0  0  0  0  0  0  0  0  0  0
 25 26  1  0  0  0
 26 27  2  0  0  0
 26  1  1  0  0  0
  1  2  1  0  0  0
  1  3  1  0  0  0
  2 13  1  0  0  0
  2 19  1  0  0  0
  3  4  1  0  0  0
  3  8  1  0  0  0
  3 12  1  0  0  0
  4  5  1  0  0  0
  5  6  2  0  0  0
  5  7  1  0  0  0
  7  8  1  0  0  0
  7  9  1  0  0  0
  7 10  1  0  0  0
 10 11  1  0  0  0
 11 12  1  0  0  0
 12 13  1  0  0  0
 13 14  1  0  0  0
 13 15  1  0  0  0
 14 21  1  0  0  0
 15 16  2  0  0  0
 16 17  1  0  0  0
 17 18  1  0  0  0
 17 19  1  0  0  0
 19 20  1  0  0  0
 19 21  1  0  0  0
 21 22  2  0  0  0
 25 28  1  0  0  0
  9 23  1  0  0  0
 18 24  1  0  0  0
M  END
> <minimizedAffinity>
-9.82675

$$$$
4PSB_GA3_A_201


 28 32  0  0  0  0  0  0  0  0999 V2000
   11.9464    1.5573   18.9715 C   0  0  0  0  0  0  0  0  0  0  0  0
   11.6282    0.1424   19.4757 C   0  0  0  0  0  0  0  0  0  0  0  0
   11.7551    2.4466   20.2248 C   0  0  0  0  0  0  0  0  0  0  0  0
   12.9955    2.8590   21.0345 C   0  0  0  0  0  0  0  0  0  0  0  0
   12.4867    4.0516   21.7889 C   0  0  0  0  0  0  0  0  0  0  0  0
   12.9751    4.5637   22.9032 C   0  0  0  0  0  0  0  0  0  0  0  0
   11.1639    4.5165   21.2038 C   0  0  0  0  0  0  0  0  0  0  0  0
   11.1471    3.7976   19.8432 C   0  0  0  0  0  0  0  0  0  0  0  0
   10.9606    5.9436   21.1675 O   0  0  0  0  0  0  0  0  0  0  0  0
   10.0037    3.9490   22.0386 C   0  0  0  0  0  0  0  0  0  0  0  0
    9.5464    2.6117   21.4517 C   0  0  0  0  0  0  0  0  0  0  0  0
   10.7623    1.7267   21.1727 C   0  0  0  0  0  0  0  0  0  0  0  0
   10.4510    0.4419   20.4243 C   0  0  0  0  0  0  0  0  0  0  0  0
    9.3592    0.5899   19.4181 O   0  0  0  0  0  0  0  0  0  0  0  0
   10.0430   -0.7631   21.2169 C   0  0  0  0  0  0  0  0  0  0  0  0
   10.0977   -1.9511   20.6166 C   0  0  0  0  0  0  0  0  0  0  0  0
   10.6597   -2.1774   19.2343 C   0  0  0  0  0  0  0  0  0  0  0  0
   11.8304   -2.9655   19.4059 O   0  0  0  0  0  0  0  0  0  0  0  0
   10.9477   -0.8455   18.4907 C   0  0  0  0  0  0  0  0  0  0  0  0
   11.6320   -1.0445   17.1381 C   0  0  0  0  0  0  0  0  0  0  0  0
    9.6084   -0.1652   18.3134 C   0  0  0  0  0  0  0  0  0  0  0  0
    8.8526   -0.2060   17.3946 O   0  0  0  0  0  0  0  0  0  0  0  0
   11.6687    6.3580   20.6499 H   0  0  0  0  0  0  0  0  0  0  0  0
   12.4598   -2.4908   19.9710 H   0  0  0  0  0  0  0  0  0  0  0  0
   13.6204    2.8345   17.8021 O   0  0  0  0  0  0  0  0  0  0  0  0
   13.3546    1.7917   18.4463 C   0  0  0  0  0  0  0  0  0  0  0  0
   14.1945    0.9106   18.7226 O   0  0  0  0  0  0  0  0  0  0  0  0
   12.9461    3.4606   17.6253 H   0  0  0  0  0  0  0  0  0  0  0  0
 25 26  1  0  0  0
 26 27  2  0  0  0
 26  1  1  0  0  0
  1  2  1  0  0  0
  1  3  1  0  0  0
  2 13  1  0  0  0
  2 19  1  0  0  0
  3  4  1  0  0  0
  3  8  1  0  0  0
  3 12  1  0  0  0
  4  5  1  0  0  0
  5  6  2  0  0  0
  5  7  1  0  0  0
  7  8  1  0  0  0
  7  9  1  0  0  0
  7 10  1  0  0  0
 10 11  1  0  0  0
 11 12  1  0  0  0
 12 13  1  0  0  0
 13 14  1  0  0  0
 13 15  1  0  0  0
 14 21  1  0  0  0
 15 16  2  0  0  0
 16 17  1  0  0  0
 17 18  1  0  0  0
 17 19  1  0  0  0
 19 20  1  0  0  0
 19 21  1  0  0  0
 21 22  2  0  0  0
 25 28  1  0  0  0
  9 23  1  0  0  0
 18 24  1  0  0  0
M  END
> <minimizedAffinity>
-9.31220

$$$$
4PSB_GA3_A_201


 28 32  0  0  0  0  0  0  0  0999 V2000
   11.5652    1.2829   19.9675 C   0  0  0  0  0  0  0  0  0  0  0  0
   10.0352    1.2726   20.0951 C   0  0  0  0  0  0  0  0  0  0  0  0
   11.8678    0.0601   19.0668 C   0  0  0  0  0  0  0  0  0  0  0  0
   12.1135    0.2902   17.5665 C   0  0  0  0  0  0  0  0  0  0  0  0
   12.8380   -0.9648   17.1784 C   0  0  0  0  0  0  0  0  0  0  0  0
   12.9487   -1.4859   15.9707 C   0  0  0  0  0  0  0  0  0  0  0  0
   13.2943   -1.7118   18.4202 C   0  0  0  0  0  0  0  0  0  0  0  0
   13.1580   -0.6330   19.5091 C   0  0  0  0  0  0  0  0  0  0  0  0
   14.5803   -2.3575   18.3272 O   0  0  0  0  0  0  0  0  0  0  0  0
   12.2880   -2.8273   18.7490 C   0  0  0  0  0  0  0  0  0  0  0  0
   11.2270   -2.3013   19.7182 C   0  0  0  0  0  0  0  0  0  0  0  0
   10.7035   -0.9503   19.2282 C   0  0  0  0  0  0  0  0  0  0  0  0
    9.7735   -0.2426   20.1988 C   0  0  0  0  0  0  0  0  0  0  0  0
   10.1358   -0.4547   21.6307 O   0  0  0  0  0  0  0  0  0  0  0  0
    8.3112   -0.5684   20.1501 C   0  0  0  0  0  0  0  0  0  0  0  0
    7.4659    0.2714   20.7458 C   0  0  0  0  0  0  0  0  0  0  0  0
    7.8713    1.5900   21.3579 C   0  0  0  0  0  0  0  0  0  0  0  0
    7.2568    2.5999   20.5683 O   0  0  0  0  0  0  0  0  0  0  0  0
    9.4130    1.7549   21.4329 C   0  0  0  0  0  0  0  0  0  0  0  0
    9.8497    3.1315   21.9345 C   0  0  0  0  0  0  0  0  0  0  0  0
    9.9070    0.6694   22.3633 C   0  0  0  0  0  0  0  0  0  0  0  0
   10.1123    0.7102   23.5351 O   0  0  0  0  0  0  0  0  0  0  0  0
   15.2596   -1.6968   18.1199 H   0  0  0  0  0  0  0  0  0  0  0  0
    7.5645    2.5254   19.6514 H   0  0  0  0  0  0  0  0  0  0  0  0
   13.4209    2.7057   19.3904 O   0  0  0  0  0  0  0  0  0  0  0  0
   12.1849    2.5075   19.3115 C   0  0  0  0  0  0  0  0  0  0  0  0
   11.3984    3.2518   18.6907 O   0  0  0  0  0  0  0  0  0  0  0  0
   13.9610    2.1105   19.8719 H   0  0  0  0  0  0  0  0  0  0  0  0
 25 26  1  0  0  0
 26 27  2  0  0  0
 26  1  1  0  0  0
  1  2  1  0  0  0
  1  3  1  0  0  0
  2 13  1  0  0  0
  2 19  1  0  0  0
  3  4  1  0  0  0
  3  8  1  0  0  0
  3 12  1  0  0  0
  4  5  1  0  0  0
  5  6  2  0  0  0
  5  7  1  0  0  0
  7  8  1  0  0  0
  7  9  1  0  0  0
  7 10  1  0  0  0
 10 11  1  0  0  0
 11 12  1  0  0  0
 12 13  1  0  0  0
 13 14  1  0  0  0
 13 15  1  0  0  0
 14 21  1  0  0  0
 15 16  2  0  0  0
 16 17  1  0  0  0
 17 18  1  0  0  0
 17 19  1  0  0  0
 19 20  1  0  0  0
 19 21  1  0  0  0
 21 22  2  0  0  0
 25 28  1  0  0  0
  9 23  1  0  0  0
 18 24  1  0  0  0
M  END
> <minimizedAffinity>
-8.88372

$$$$
4PSB_GA3_A_201


 28 32  0  0  0  0  0  0  0  0999 V2000
   12.2446    1.4262   20.4127 C   0  0  0  0  0  0  0  0  0  0  0  0
   11.3124    0.3034   20.8898 C   0  0  0  0  0  0  0  0  0  0  0  0
   11.5614    2.7164   20.9289 C   0  0  0  0  0  0  0  0  0  0  0  0
   12.0729    3.3530   22.2317 C   0  0  0  0  0  0  0  0  0  0  0  0
   11.5522    4.7548   22.1132 C   0  0  0  0  0  0  0  0  0  0  0  0
   11.3504    5.6205   23.0891 C   0  0  0  0  0  0  0  0  0  0  0  0
   11.0779    5.0195   20.6943 C   0  0  0  0  0  0  0  0  0  0  0  0
   11.7225    3.8558   19.9207 C   0  0  0  0  0  0  0  0  0  0  0  0
   11.3394    6.3416   20.1814 O   0  0  0  0  0  0  0  0  0  0  0  0
    9.5532    4.8342   20.6180 C   0  0  0  0  0  0  0  0  0  0  0  0
    9.2235    3.3914   20.2290 C   0  0  0  0  0  0  0  0  0  0  0  0
   10.0468    2.4249   21.0820 C   0  0  0  0  0  0  0  0  0  0  0  0
    9.9392    0.9672   20.6683 C   0  0  0  0  0  0  0  0  0  0  0  0
    9.8114    0.7758   19.1940 O   0  0  0  0  0  0  0  0  0  0  0  0
    8.8177    0.1478   21.2317 C   0  0  0  0  0  0  0  0  0  0  0  0
    8.9112   -1.1784   21.1457 C   0  0  0  0  0  0  0  0  0  0  0  0
   10.1262   -1.9110   20.6311 C   0  0  0  0  0  0  0  0  0  0  0  0
   10.6605   -2.6218   21.7402 O   0  0  0  0  0  0  0  0  0  0  0  0
   11.1637   -0.9516   19.9886 C   0  0  0  0  0  0  0  0  0  0  0  0
   12.4569   -1.6522   19.5711 C   0  0  0  0  0  0  0  0  0  0  0  0
   10.4805   -0.3375   18.7869 C   0  0  0  0  0  0  0  0  0  0  0  0
   10.4922   -0.6842   17.6482 O   0  0  0  0  0  0  0  0  0  0  0  0
   12.2934    6.5150   20.2057 H   0  0  0  0  0  0  0  0  0  0  0  0
   10.8955   -1.9956   22.4427 H   0  0  0  0  0  0  0  0  0  0  0  0
   13.9529    0.6907   21.9430 O   0  0  0  0  0  0  0  0  0  0  0  0
   13.6664    1.4056   20.9531 C   0  0  0  0  0  0  0  0  0  0  0  0
   14.4951    2.1077   20.3380 O   0  0  0  0  0  0  0  0  0  0  0  0
   13.2862    0.1846   22.3641 H   0  0  0  0  0  0  0  0  0  0  0  0
 25 26  1  0  0  0
 26 27  2  0  0  0
 26  1  1  0  0  0
  1  2  1  0  0  0
  1  3  1  0  0  0
  2 13  1  0  0  0
  2 19  1  0  0  0
  3  4  1  0  0  0
  3  8  1  0  0  0
  3 12  1  0  0  0
  4  5  1  0  0  0
  5  6  2  0  0  0
  5  7  1  0  0  0
  7  8  1  0  0  0
  7  9  1  0  0  0
  7 10  1  0  0  0
 10 11  1  0  0  0
 11 12  1  0  0  0
 12 13  1  0  0  0
 13 14  1  0  0  0
 13 15  1  0  0  0
 14 21  1  0  0  0
 15 16  2  0  0  0
 16 17  1  0  0  0
 17 18  1  0  0  0
 17 19  1  0  0  0
 19 20  1  0  0  0
 19 21  1  0  0  0
 21 22  2  0  0  0
 25 28  1  0  0  0
  9 23  1  0  0  0
 18 24  1  0  0  0
M  END
> <minimizedAffinity>
-8.87590

$$$$
4PSB_GA3_A_201


 28 32  0  0  0  0  0  0  0  0999 V2000
   10.1300    2.4520   20.0313 C   0  0  0  0  0  0  0  0  0  0  0  0
   10.8203    1.1174   19.7156 C   0  0  0  0  0  0  0  0  0  0  0  0
   10.5432    2.7432   21.4950 C   0  0  0  0  0  0  0  0  0  0  0  0
   11.7088    3.7116   21.7551 C   0  0  0  0  0  0  0  0  0  0  0  0
   11.4666    4.1069   23.1818 C   0  0  0  0  0  0  0  0  0  0  0  0
   12.3437    4.5966   24.0382 C   0  0  0  0  0  0  0  0  0  0  0  0
   10.0732    3.6825   23.6138 C   0  0  0  0  0  0  0  0  0  0  0  0
    9.3934    3.3984   22.2628 C   0  0  0  0  0  0  0  0  0  0  0  0
    9.3821    4.5962   24.4897 O   0  0  0  0  0  0  0  0  0  0  0  0
   10.1543    2.3502   24.3776 C   0  0  0  0  0  0  0  0  0  0  0  0
    9.9744    1.1820   23.4056 C   0  0  0  0  0  0  0  0  0  0  0  0
   10.8631    1.3891   22.1781 C   0  0  0  0  0  0  0  0  0  0  0  0
   10.6411    0.3852   21.0599 C   0  0  0  0  0  0  0  0  0  0  0  0
    9.2181   -0.0405   20.9173 O   0  0  0  0  0  0  0  0  0  0  0  0
   11.3964   -0.9087   21.1039 C   0  0  0  0  0  0  0  0  0  0  0  0
   11.4648   -1.6283   19.9849 C   0  0  0  0  0  0  0  0  0  0  0  0
   10.9385   -1.1679   18.6474 C   0  0  0  0  0  0  0  0  0  0  0  0
   12.0747   -1.0031   17.8091 O   0  0  0  0  0  0  0  0  0  0  0  0
   10.0953    0.1304   18.7620 C   0  0  0  0  0  0  0  0  0  0  0  0
    9.6542    0.6858   17.4076 C   0  0  0  0  0  0  0  0  0  0  0  0
    8.8924   -0.2230   19.6083 C   0  0  0  0  0  0  0  0  0  0  0  0
    7.8079   -0.5812   19.2730 O   0  0  0  0  0  0  0  0  0  0  0  0
    9.3012    5.4604   24.0566 H   0  0  0  0  0  0  0  0  0  0  0  0
   12.6723   -0.3465   18.1998 H   0  0  0  0  0  0  0  0  0  0  0  0
    9.8282    4.6788   19.1646 O   0  0  0  0  0  0  0  0  0  0  0  0
   10.5418    3.6476   19.1859 C   0  0  0  0  0  0  0  0  0  0  0  0
   11.6179    3.5324   18.5640 O   0  0  0  0  0  0  0  0  0  0  0  0
    9.0290    4.7057   19.6531 H   0  0  0  0  0  0  0  0  0  0  0  0
 25 26  1  0  0  0
 26 27  2  0  0  0
 26  1  1  0  0  0
  1  2  1  0  0  0
  1  3  1  0  0  0
  2 13  1  0  0  0
  2 19  1  0  0  0
  3  4  1  0  0  0
  3  8  1  0  0  0
  3 12  1  0  0  0
  4  5  1  0  0  0
  5  6  2  0  0  0
  5  7  1  0  0  0
  7  8  1  0  0  0
  7  9  1  0  0  0
  7 10  1  0  0  0
 10 11  1  0  0  0
 11 12  1  0  0  0
 12 13  1  0  0  0
 13 14  1  0  0  0
 13 15  1  0  0  0
 14 21  1  0  0  0
 15 16  2  0  0  0
 16 17  1  0  0  0
 17 18  1  0  0  0
 17 19  1  0  0  0
 19 20  1  0  0  0
 19 21  1  0  0  0
 21 22  2  0  0  0
 25 28  1  0  0  0
  9 23  1  0  0  0
 18 24  1  0  0  0
M  END
> <minimizedAffinity>
-8.72756

$$$$
4PSB_GA3_A_201


 28 32  0  0  0  0  0  0  0  0999 V2000
    9.8952    3.6811   24.8678 C   0  0  0  0  0  0  0  0  0  0  0  0
   10.1613    5.1785   25.0787 C   0  0  0  0  0  0  0  0  0  0  0  0
   10.6503    3.3541   23.5560 C   0  0  0  0  0  0  0  0  0  0  0  0
   12.0449    2.7129   23.6463 C   0  0  0  0  0  0  0  0  0  0  0  0
   12.1961    2.1138   22.2794 C   0  0  0  0  0  0  0  0  0  0  0  0
   13.3189    1.7881   21.6663 C   0  0  0  0  0  0  0  0  0  0  0  0
   10.8563    2.0976   21.5632 C   0  0  0  0  0  0  0  0  0  0  0  0
    9.8724    2.3338   22.7226 C   0  0  0  0  0  0  0  0  0  0  0  0
   10.5984    0.9417   20.7405 O   0  0  0  0  0  0  0  0  0  0  0  0
   10.7600    3.3109   20.6233 C   0  0  0  0  0  0  0  0  0  0  0  0
   10.1100    4.4864   21.3566 C   0  0  0  0  0  0  0  0  0  0  0  0
   10.7593    4.6614   22.7304 C   0  0  0  0  0  0  0  0  0  0  0  0
   10.0803    5.6842   23.6251 C   0  0  0  0  0  0  0  0  0  0  0  0
    8.5974    5.7238   23.4635 O   0  0  0  0  0  0  0  0  0  0  0  0
   10.4897    7.1209   23.5028 C   0  0  0  0  0  0  0  0  0  0  0  0
   10.1556    7.9500   24.4906 C   0  0  0  0  0  0  0  0  0  0  0  0
    9.5020    7.5136   25.7791 C   0  0  0  0  0  0  0  0  0  0  0  0
   10.4533    7.7533   26.8079 O   0  0  0  0  0  0  0  0  0  0  0  0
    9.0419    6.0317   25.7332 C   0  0  0  0  0  0  0  0  0  0  0  0
    8.4889    5.5292   27.0671 C   0  0  0  0  0  0  0  0  0  0  0  0
    7.9828    5.9536   24.6560 C   0  0  0  0  0  0  0  0  0  0  0  0
    6.7993    6.0408   24.7482 O   0  0  0  0  0  0  0  0  0  0  0  0
   10.6464    0.1402   21.2848 H   0  0  0  0  0  0  0  0  0  0  0  0
   11.2587    7.2433   26.6287 H   0  0  0  0  0  0  0  0  0  0  0  0
    9.9831    1.5624   26.0098 O   0  0  0  0  0  0  0  0  0  0  0  0
   10.4096    2.7402   25.9467 C   0  0  0  0  0  0  0  0  0  0  0  0
   11.2754    3.2095   26.7136 O   0  0  0  0  0  0  0  0  0  0  0  0
    9.3311    1.2672   25.4051 H   0  0  0  0  0  0  0  0  0  0  0  0
 25 26  1  0  0  0
 26 27  2  0  0  0
 26  1  1  0  0  0
  1  2  1  0  0  0
  1  3  1  0  0  0
  2 13  1  0  0  0
  2 19  1  0  0  0
  3  4  1  0  0  0
  3  8  1  0  0  0
  3 12  1  0  0  0
  4  5  1  0  0  0
  5  6  2  0  0  0
  5  7  1  0  0  0
  7  8  1  0  0  0
  7  9  1  0  0  0
  7 10  1  0  0  0
 10 11  1  0  0  0
 11 12  1  0  0  0
 12 13  1  0  0  0
 13 14  1  0  0  0
 13 15  1  0  0  0
 14 21  1  0  0  0
 15 16  2  0  0  0
 16 17  1  0  0  0
 17 18  1  0  0  0
 17 19  1  0  0  0
 19 20  1  0  0  0
 19 21  1  0  0  0
 21 22  2  0  0  0
 25 28  1  0  0  0
  9 23  1  0  0  0
 18 24  1  0  0  0
M  END
> <minimizedAffinity>
-8.65460

$$$$
