4DJQ_M86_A_200


 43 45  0  0  0  0  0  0  0  0999 V2000
   -7.4865   -2.3150  -14.9980 C   0  0  0  0  0  0  0  0  0  0  0  0
   -8.0900   -3.6177  -15.2447 N   0  0  0  0  0  0  0  0  0  0  0  0
   -9.2761   -3.8210  -15.7979 C   0  0  0  0  0  0  0  0  0  0  0  0
  -10.0287   -2.9853  -16.2587 O   0  0  0  0  0  0  0  0  0  0  0  0
   -7.5736   -4.4124  -14.9784 H   0  0  0  0  0  0  0  0  0  0  0  0
   -9.6840   -5.2058  -15.8007 O   0  0  0  0  0  0  0  0  0  0  0  0
   -8.7363   -6.2753  -15.6725 C   0  0  0  0  0  0  0  0  0  0  0  0
   -7.9004   -6.2948  -16.9520 C   0  0  0  0  0  0  0  0  0  0  0  0
   -8.4616   -7.3288  -17.8496 N   0  0  0  0  0  0  0  0  0  0  0  0
   -8.6837   -8.6546  -17.2292 C   0  0  0  0  0  0  0  0  0  0  0  0
   -9.6430   -7.0930  -18.6148 C   0  0  0  0  0  0  0  0  0  0  0  0
  -10.0879   -6.0011  -18.9263 O   0  0  0  0  0  0  0  0  0  0  0  0
  -10.1999   -8.2486  -18.9418 N   0  0  0  0  0  0  0  0  0  0  0  0
   -9.5458   -9.3588  -18.2825 C   0  0  0  0  0  0  0  0  0  0  0  0
  -10.9634   -8.3413  -19.5564 H   0  0  0  0  0  0  0  0  0  0  0  0
   -6.2295   -2.1738  -15.8683 C   0  0  0  0  0  0  0  0  0  0  0  0
   -6.6208   -1.6883  -17.1688 O   0  0  0  0  0  0  0  0  0  0  0  0
   -7.2075   -2.3345  -17.5921 H   0  0  0  0  0  0  0  0  0  0  0  0
   -5.4316   -3.4802  -16.0318 C   0  0  0  0  0  0  0  0  0  0  0  0
   -3.9919   -3.1314  -15.9867 N   0  0  0  0  0  0  0  0  0  0  0  0
   -1.9478   -3.3247  -14.6018 O   0  0  0  0  0  0  0  0  0  0  0  0
   -3.3457   -3.0774  -14.4943 S   0  0  0  0  0  0  0  0  0  0  0  0
   -4.0692   -4.0957  -13.7507 O   0  0  0  0  0  0  0  0  0  0  0  0
   -3.6057   -1.6145  -13.7933 C   0  0  0  0  0  0  0  0  0  0  0  0
   -3.6665   -1.4921  -12.4030 C   0  0  0  0  0  0  0  0  0  0  0  0
   -3.8380   -0.2360  -11.8015 C   0  0  0  0  0  0  0  0  0  0  0  0
   -3.7236   -0.4471  -14.5549 C   0  0  0  0  0  0  0  0  0  0  0  0
   -3.8919    0.8061  -13.9597 C   0  0  0  0  0  0  0  0  0  0  0  0
   -3.9507    0.9105  -12.5701 C   0  0  0  0  0  0  0  0  0  0  0  0
   -4.0925    2.1260  -11.9393 O   0  0  0  0  0  0  0  0  0  0  0  0
   -3.6065    2.2537  -10.5945 C   0  0  0  0  0  0  0  0  0  0  0  0
   -3.1635   -3.9117  -16.9467 C   0  0  0  0  0  0  0  0  0  0  0  0
   -3.7686   -5.2826  -17.2680 C   0  0  0  0  0  0  0  0  0  0  0  0
   -3.7242   -5.6191  -18.7567 C   0  0  0  0  0  0  0  0  0  0  0  0
   -3.0977   -6.3689  -16.4091 C   0  0  0  0  0  0  0  0  0  0  0  0
   -3.5253   -7.7662  -16.7669 C   0  0  0  0  0  0  0  0  0  0  0  0
   -7.2351   -2.1947  -13.4866 C   0  0  0  0  0  0  0  0  0  0  0  0
   -7.3677   -0.7409  -13.0642 C   0  0  0  0  0  0  0  0  0  0  0  0
   -7.3819   -0.4073  -11.7135 C   0  0  0  0  0  0  0  0  0  0  0  0
   -7.4989    0.9273  -11.3254 C   0  0  0  0  0  0  0  0  0  0  0  0
   -7.5964    1.9324  -12.2794 C   0  0  0  0  0  0  0  0  0  0  0  0
   -7.5793    1.6006  -13.6279 C   0  0  0  0  0  0  0  0  0  0  0  0
   -7.4710    0.2690  -14.0195 C   0  0  0  0  0  0  0  0  0  0  0  0
 31 30  1  0  0  0
 30 29  1  0  0  0
 29 26  2  0  0  0
 29 28  1  0  0  0
 26 25  1  0  0  0
 35 36  1  0  0  0
 35 33  1  0  0  0
 28 27  2  0  0  0
 17 16  1  0  0  0
 25 24  2  0  0  0
 33 32  1  0  0  0
 33 34  1  0  0  0
 19 16  1  0  0  0
 19 20  1  0  0  0
 32 20  1  0  0  0
 27 24  1  0  0  0
 24 22  1  0  0  0
 16  1  1  0  0  0
 20 22  1  0  0  0
 22 21  2  0  0  0
 22 23  2  0  0  0
  1 37  1  0  0  0
  1  2  1  0  0  0
 37 38  1  0  0  0
  2  3  1  0  0  0
  3  6  1  0  0  0
  3  4  2  0  0  0
 38 43  2  0  0  0
 38 39  1  0  0  0
  6  7  1  0  0  0
 43 42  1  0  0  0
 39 40  2  0  0  0
 12 11  2  0  0  0
  7  8  1  0  0  0
 42 41  2  0  0  0
  8  9  1  0  0  0
 11  9  1  0  0  0
 11 13  1  0  0  0
 40 41  1  0  0  0
  9 10  1  0  0  0
 13 14  1  0  0  0
 10 14  1  0  0  0
 17 18  1  0  0  0
  2  5  1  0  0  0
 13 15  1  0  0  0
M  END
> <minimizedAffinity>
-8.64338

$$$$
4DJQ_M86_A_200


 43 45  0  0  0  0  0  0  0  0999 V2000
   -3.6437   -1.4507  -13.8536 C   0  0  0  0  0  0  0  0  0  0  0  0
   -3.6356   -2.1690  -15.1209 N   0  0  0  0  0  0  0  0  0  0  0  0
   -2.7584   -3.0977  -15.4704 C   0  0  0  0  0  0  0  0  0  0  0  0
   -1.8668   -3.5647  -14.7891 O   0  0  0  0  0  0  0  0  0  0  0  0
   -4.3402   -1.9457  -15.7712 H   0  0  0  0  0  0  0  0  0  0  0  0
   -2.9050   -3.5490  -16.8338 O   0  0  0  0  0  0  0  0  0  0  0  0
   -2.5422   -4.8777  -17.2356 C   0  0  0  0  0  0  0  0  0  0  0  0
   -3.6195   -5.3676  -18.2030 C   0  0  0  0  0  0  0  0  0  0  0  0
   -3.5925   -6.8471  -18.2068 N   0  0  0  0  0  0  0  0  0  0  0  0
   -3.8853   -7.4903  -16.9058 C   0  0  0  0  0  0  0  0  0  0  0  0
   -4.3428   -7.6061  -19.1543 C   0  0  0  0  0  0  0  0  0  0  0  0
   -4.7476   -7.2053  -20.2326 O   0  0  0  0  0  0  0  0  0  0  0  0
   -4.5443   -8.8281  -18.6870 N   0  0  0  0  0  0  0  0  0  0  0  0
   -4.1021   -8.9514  -17.3143 C   0  0  0  0  0  0  0  0  0  0  0  0
   -4.9447   -9.5613  -19.2079 H   0  0  0  0  0  0  0  0  0  0  0  0
   -4.8153   -1.9569  -13.0001 C   0  0  0  0  0  0  0  0  0  0  0  0
   -4.2960   -2.8246  -11.9716 O   0  0  0  0  0  0  0  0  0  0  0  0
   -3.8699   -3.5934  -12.3820 H   0  0  0  0  0  0  0  0  0  0  0  0
   -5.8951   -2.7068  -13.8011 C   0  0  0  0  0  0  0  0  0  0  0  0
   -6.7984   -1.6907  -14.3910 N   0  0  0  0  0  0  0  0  0  0  0  0
   -6.2322   -1.6686  -16.8020 O   0  0  0  0  0  0  0  0  0  0  0  0
   -7.2886   -2.0079  -15.9099 S   0  0  0  0  0  0  0  0  0  0  0  0
   -8.4854   -1.2002  -16.0789 O   0  0  0  0  0  0  0  0  0  0  0  0
   -7.6824   -3.5936  -16.0818 C   0  0  0  0  0  0  0  0  0  0  0  0
   -8.8484   -4.1040  -15.5059 C   0  0  0  0  0  0  0  0  0  0  0  0
   -9.2120   -5.4461  -15.6943 C   0  0  0  0  0  0  0  0  0  0  0  0
   -6.8980   -4.4654  -16.8442 C   0  0  0  0  0  0  0  0  0  0  0  0
   -7.2579   -5.8020  -17.0364 C   0  0  0  0  0  0  0  0  0  0  0  0
   -8.4253   -6.2955  -16.4542 C   0  0  0  0  0  0  0  0  0  0  0  0
   -8.8313   -7.5985  -16.6349 O   0  0  0  0  0  0  0  0  0  0  0  0
   -7.9175   -8.5142  -17.2572 C   0  0  0  0  0  0  0  0  0  0  0  0
   -7.9195   -1.3021  -13.4918 C   0  0  0  0  0  0  0  0  0  0  0  0
   -7.5872   -0.0783  -12.6311 C   0  0  0  0  0  0  0  0  0  0  0  0
   -7.7942    1.2425  -13.3687 C   0  0  0  0  0  0  0  0  0  0  0  0
   -8.3755   -0.1332  -11.3107 C   0  0  0  0  0  0  0  0  0  0  0  0
   -7.9079    0.8687  -10.2904 C   0  0  0  0  0  0  0  0  0  0  0  0
   -3.6843    0.0530  -14.1684 C   0  0  0  0  0  0  0  0  0  0  0  0
   -3.3920    0.8442  -12.9043 C   0  0  0  0  0  0  0  0  0  0  0  0
   -4.3872    1.6268  -12.3274 C   0  0  0  0  0  0  0  0  0  0  0  0
   -4.1208    2.3495  -11.1646 C   0  0  0  0  0  0  0  0  0  0  0  0
   -2.8663    2.2908  -10.5706 C   0  0  0  0  0  0  0  0  0  0  0  0
   -1.8731    1.5075  -11.1440 C   0  0  0  0  0  0  0  0  0  0  0  0
   -2.1324    0.7913  -12.3093 C   0  0  0  0  0  0  0  0  0  0  0  0
 31 30  1  0  0  0
 30 29  1  0  0  0
 29 26  2  0  0  0
 29 28  1  0  0  0
 26 25  1  0  0  0
 35 36  1  0  0  0
 35 33  1  0  0  0
 28 27  2  0  0  0
 17 16  1  0  0  0
 25 24  2  0  0  0
 33 32  1  0  0  0
 33 34  1  0  0  0
 19 16  1  0  0  0
 19 20  1  0  0  0
 32 20  1  0  0  0
 27 24  1  0  0  0
 24 22  1  0  0  0
 16  1  1  0  0  0
 20 22  1  0  0  0
 22 21  2  0  0  0
 22 23  2  0  0  0
  1 37  1  0  0  0
  1  2  1  0  0  0
 37 38  1  0  0  0
  2  3  1  0  0  0
  3  6  1  0  0  0
  3  4  2  0  0  0
 38 43  2  0  0  0
 38 39  1  0  0  0
  6  7  1  0  0  0
 43 42  1  0  0  0
 39 40  2  0  0  0
 12 11  2  0  0  0
  7  8  1  0  0  0
 42 41  2  0  0  0
  8  9  1  0  0  0
 11  9  1  0  0  0
 11 13  1  0  0  0
 40 41  1  0  0  0
  9 10  1  0  0  0
 13 14  1  0  0  0
 10 14  1  0  0  0
 17 18  1  0  0  0
  2  5  1  0  0  0
 13 15  1  0  0  0
M  END
> <minimizedAffinity>
-8.47291

$$$$
4DJQ_M86_A_200


 43 45  0  0  0  0  0  0  0  0999 V2000
   -4.0892   -4.2879  -15.5433 C   0  0  0  0  0  0  0  0  0  0  0  0
   -3.6291   -5.6552  -15.7450 N   0  0  0  0  0  0  0  0  0  0  0  0
   -2.8763   -6.0703  -16.7526 C   0  0  0  0  0  0  0  0  0  0  0  0
   -2.3803   -5.3928  -17.6314 O   0  0  0  0  0  0  0  0  0  0  0  0
   -3.8999   -6.3261  -15.0773 H   0  0  0  0  0  0  0  0  0  0  0  0
   -2.6796   -7.5002  -16.7779 O   0  0  0  0  0  0  0  0  0  0  0  0
   -3.7741   -8.4130  -16.9431 C   0  0  0  0  0  0  0  0  0  0  0  0
   -3.8940   -8.7096  -18.4377 C   0  0  0  0  0  0  0  0  0  0  0  0
   -5.0247   -7.9185  -18.9720 N   0  0  0  0  0  0  0  0  0  0  0  0
   -5.9863   -7.4236  -17.9609 C   0  0  0  0  0  0  0  0  0  0  0  0
   -4.8139   -6.8029  -19.8367 C   0  0  0  0  0  0  0  0  0  0  0  0
   -3.8216   -6.6019  -20.5166 O   0  0  0  0  0  0  0  0  0  0  0  0
   -5.8657   -6.0003  -19.7930 N   0  0  0  0  0  0  0  0  0  0  0  0
   -6.8026   -6.4081  -18.7678 C   0  0  0  0  0  0  0  0  0  0  0  0
   -5.9946   -5.2234  -20.3838 H   0  0  0  0  0  0  0  0  0  0  0  0
   -4.7636   -3.7928  -16.8308 C   0  0  0  0  0  0  0  0  0  0  0  0
   -4.1838   -2.5239  -17.1968 O   0  0  0  0  0  0  0  0  0  0  0  0
   -4.3591   -1.8746  -16.4978 H   0  0  0  0  0  0  0  0  0  0  0  0
   -6.2913   -3.6407  -16.7185 C   0  0  0  0  0  0  0  0  0  0  0  0
   -6.5756   -2.9196  -15.4553 N   0  0  0  0  0  0  0  0  0  0  0  0
   -8.2783   -1.3585  -16.3484 O   0  0  0  0  0  0  0  0  0  0  0  0
   -7.0438   -1.3721  -15.6394 S   0  0  0  0  0  0  0  0  0  0  0  0
   -5.9452   -0.7456  -16.3563 O   0  0  0  0  0  0  0  0  0  0  0  0
   -7.2239   -0.6347  -14.1824 C   0  0  0  0  0  0  0  0  0  0  0  0
   -6.8166    0.6890  -13.9993 C   0  0  0  0  0  0  0  0  0  0  0  0
   -7.0159    1.3362  -12.7704 C   0  0  0  0  0  0  0  0  0  0  0  0
   -7.8303   -1.2840  -13.1021 C   0  0  0  0  0  0  0  0  0  0  0  0
   -8.0331   -0.6423  -11.8772 C   0  0  0  0  0  0  0  0  0  0  0  0
   -7.6202    0.6796  -11.7114 C   0  0  0  0  0  0  0  0  0  0  0  0
   -7.8197    1.3591  -10.5307 O   0  0  0  0  0  0  0  0  0  0  0  0
   -6.6830    1.6070   -9.6897 C   0  0  0  0  0  0  0  0  0  0  0  0
   -7.4522   -3.6811  -14.5235 C   0  0  0  0  0  0  0  0  0  0  0  0
   -8.3159   -4.7214  -15.2450 C   0  0  0  0  0  0  0  0  0  0  0  0
   -8.5746   -5.9683  -14.4025 C   0  0  0  0  0  0  0  0  0  0  0  0
   -9.6225   -4.0730  -15.7350 C   0  0  0  0  0  0  0  0  0  0  0  0
   -9.9771   -4.4338  -17.1518 C   0  0  0  0  0  0  0  0  0  0  0  0
   -2.8829   -3.4504  -15.0901 C   0  0  0  0  0  0  0  0  0  0  0  0
   -3.3185   -2.4782  -14.0063 C   0  0  0  0  0  0  0  0  0  0  0  0
   -4.1226   -2.9179  -12.9595 C   0  0  0  0  0  0  0  0  0  0  0  0
   -4.5188   -2.0271  -11.9620 C   0  0  0  0  0  0  0  0  0  0  0  0
   -4.1116   -0.6995  -12.0009 C   0  0  0  0  0  0  0  0  0  0  0  0
   -3.3064   -0.2604  -13.0438 C   0  0  0  0  0  0  0  0  0  0  0  0
   -2.9156   -1.1443  -14.0459 C   0  0  0  0  0  0  0  0  0  0  0  0
 31 30  1  0  0  0
 30 29  1  0  0  0
 29 26  2  0  0  0
 29 28  1  0  0  0
 26 25  1  0  0  0
 35 36  1  0  0  0
 35 33  1  0  0  0
 28 27  2  0  0  0
 17 16  1  0  0  0
 25 24  2  0  0  0
 33 32  1  0  0  0
 33 34  1  0  0  0
 19 16  1  0  0  0
 19 20  1  0  0  0
 32 20  1  0  0  0
 27 24  1  0  0  0
 24 22  1  0  0  0
 16  1  1  0  0  0
 20 22  1  0  0  0
 22 21  2  0  0  0
 22 23  2  0  0  0
  1 37  1  0  0  0
  1  2  1  0  0  0
 37 38  1  0  0  0
  2  3  1  0  0  0
  3  6  1  0  0  0
  3  4  2  0  0  0
 38 43  2  0  0  0
 38 39  1  0  0  0
  6  7  1  0  0  0
 43 42  1  0  0  0
 39 40  2  0  0  0
 12 11  2  0  0  0
  7  8  1  0  0  0
 42 41  2  0  0  0
  8  9  1  0  0  0
 11  9  1  0  0  0
 11 13  1  0  0  0
 40 41  1  0  0  0
  9 10  1  0  0  0
 13 14  1  0  0  0
 10 14  1  0  0  0
 17 18  1  0  0  0
  2  5  1  0  0  0
 13 15  1  0  0  0
M  END
> <minimizedAffinity>
-8.33279

$$$$
4DJQ_M86_A_200


 43 45  0  0  0  0  0  0  0  0999 V2000
   -4.1560    0.9222  -13.4012 C   0  0  0  0  0  0  0  0  0  0  0  0
   -5.1746    1.7346  -12.7496 N   0  0  0  0  0  0  0  0  0  0  0  0
   -6.0252    1.3052  -11.8297 C   0  0  0  0  0  0  0  0  0  0  0  0
   -6.0644    0.2039  -11.3171 O   0  0  0  0  0  0  0  0  0  0  0  0
   -5.2358    2.6807  -13.0149 H   0  0  0  0  0  0  0  0  0  0  0  0
   -7.0136    2.2872  -11.4515 O   0  0  0  0  0  0  0  0  0  0  0  0
   -6.8414    3.1335  -10.3059 C   0  0  0  0  0  0  0  0  0  0  0  0
   -6.4989    4.5305  -10.8230 C   0  0  0  0  0  0  0  0  0  0  0  0
   -5.2644    4.9805  -10.1423 N   0  0  0  0  0  0  0  0  0  0  0  0
   -5.2333    4.7658   -8.6778 C   0  0  0  0  0  0  0  0  0  0  0  0
   -3.9725    4.5694  -10.5884 C   0  0  0  0  0  0  0  0  0  0  0  0
   -3.6957    4.1678  -11.7061 O   0  0  0  0  0  0  0  0  0  0  0  0
   -3.1018    4.6844   -9.5980 N   0  0  0  0  0  0  0  0  0  0  0  0
   -3.7571    5.0152   -8.3505 C   0  0  0  0  0  0  0  0  0  0  0  0
   -2.1302    4.5605   -9.6975 H   0  0  0  0  0  0  0  0  0  0  0  0
   -4.8006    0.1471  -14.5592 C   0  0  0  0  0  0  0  0  0  0  0  0
   -5.9336    0.8974  -15.0426 O   0  0  0  0  0  0  0  0  0  0  0  0
   -6.5917    0.9812  -14.3348 H   0  0  0  0  0  0  0  0  0  0  0  0
   -5.2548   -1.2752  -14.1842 C   0  0  0  0  0  0  0  0  0  0  0  0
   -4.7621   -2.1927  -15.2387 N   0  0  0  0  0  0  0  0  0  0  0  0
   -3.6808   -3.5542  -13.4749 O   0  0  0  0  0  0  0  0  0  0  0  0
   -3.4843   -3.1052  -14.8115 S   0  0  0  0  0  0  0  0  0  0  0  0
   -2.3403   -2.2233  -14.9751 O   0  0  0  0  0  0  0  0  0  0  0  0
   -3.3179   -4.3926  -15.8185 C   0  0  0  0  0  0  0  0  0  0  0  0
   -3.9225   -5.6153  -15.5166 C   0  0  0  0  0  0  0  0  0  0  0  0
   -3.8235   -6.7007  -16.4003 C   0  0  0  0  0  0  0  0  0  0  0  0
   -2.6149   -4.2946  -17.0238 C   0  0  0  0  0  0  0  0  0  0  0  0
   -2.5160   -5.3725  -17.9079 C   0  0  0  0  0  0  0  0  0  0  0  0
   -3.1255   -6.5863  -17.5909 C   0  0  0  0  0  0  0  0  0  0  0  0
   -3.0741   -7.6678  -18.4414 O   0  0  0  0  0  0  0  0  0  0  0  0
   -3.4397   -7.4690  -19.8153 C   0  0  0  0  0  0  0  0  0  0  0  0
   -5.8438   -2.9823  -15.8890 C   0  0  0  0  0  0  0  0  0  0  0  0
   -7.1112   -3.0632  -15.0312 C   0  0  0  0  0  0  0  0  0  0  0  0
   -8.3723   -2.6611  -15.7923 C   0  0  0  0  0  0  0  0  0  0  0  0
   -7.2351   -4.4633  -14.4050 C   0  0  0  0  0  0  0  0  0  0  0  0
   -8.4120   -5.2480  -14.9174 C   0  0  0  0  0  0  0  0  0  0  0  0
   -3.5029    0.0396  -12.3258 C   0  0  0  0  0  0  0  0  0  0  0  0
   -2.4206    0.8299  -11.6092 C   0  0  0  0  0  0  0  0  0  0  0  0
   -2.4018    0.8818  -10.2190 C   0  0  0  0  0  0  0  0  0  0  0  0
   -1.4060    1.6032   -9.5607 C   0  0  0  0  0  0  0  0  0  0  0  0
   -0.4243    2.2694  -10.2835 C   0  0  0  0  0  0  0  0  0  0  0  0
   -0.4404    2.2157  -11.6712 C   0  0  0  0  0  0  0  0  0  0  0  0
   -1.4375    1.5037  -12.3322 C   0  0  0  0  0  0  0  0  0  0  0  0
 31 30  1  0  0  0
 30 29  1  0  0  0
 29 26  2  0  0  0
 29 28  1  0  0  0
 26 25  1  0  0  0
 35 36  1  0  0  0
 35 33  1  0  0  0
 28 27  2  0  0  0
 17 16  1  0  0  0
 25 24  2  0  0  0
 33 32  1  0  0  0
 33 34  1  0  0  0
 19 16  1  0  0  0
 19 20  1  0  0  0
 32 20  1  0  0  0
 27 24  1  0  0  0
 24 22  1  0  0  0
 16  1  1  0  0  0
 20 22  1  0  0  0
 22 21  2  0  0  0
 22 23  2  0  0  0
  1 37  1  0  0  0
  1  2  1  0  0  0
 37 38  1  0  0  0
  2  3  1  0  0  0
  3  6  1  0  0  0
  3  4  2  0  0  0
 38 43  2  0  0  0
 38 39  1  0  0  0
  6  7  1  0  0  0
 43 42  1  0  0  0
 39 40  2  0  0  0
 12 11  2  0  0  0
  7  8  1  0  0  0
 42 41  2  0  0  0
  8  9  1  0  0  0
 11  9  1  0  0  0
 11 13  1  0  0  0
 40 41  1  0  0  0
  9 10  1  0  0  0
 13 14  1  0  0  0
 10 14  1  0  0  0
 17 18  1  0  0  0
  2  5  1  0  0  0
 13 15  1  0  0  0
M  END
> <minimizedAffinity>
-8.20770

$$$$
4DJQ_M86_A_200


 43 45  0  0  0  0  0  0  0  0999 V2000
   -5.5024   -2.2193  -14.6247 C   0  0  0  0  0  0  0  0  0  0  0  0
   -4.4234   -3.1613  -14.8901 N   0  0  0  0  0  0  0  0  0  0  0  0
   -3.7649   -3.2706  -16.0340 C   0  0  0  0  0  0  0  0  0  0  0  0
   -3.8833   -2.5746  -17.0233 O   0  0  0  0  0  0  0  0  0  0  0  0
   -4.1621   -3.7665  -14.1589 H   0  0  0  0  0  0  0  0  0  0  0  0
   -2.8365   -4.3756  -16.0644 O   0  0  0  0  0  0  0  0  0  0  0  0
   -3.2788   -5.7337  -16.2007 C   0  0  0  0  0  0  0  0  0  0  0  0
   -3.1060   -6.1204  -17.6694 C   0  0  0  0  0  0  0  0  0  0  0  0
   -4.4376   -6.4742  -18.2091 N   0  0  0  0  0  0  0  0  0  0  0  0
   -5.5862   -5.8169  -17.5455 C   0  0  0  0  0  0  0  0  0  0  0  0
   -4.7296   -6.3760  -19.6027 C   0  0  0  0  0  0  0  0  0  0  0  0
   -3.9116   -6.3794  -20.5072 O   0  0  0  0  0  0  0  0  0  0  0  0
   -6.0379   -6.2751  -19.7777 N   0  0  0  0  0  0  0  0  0  0  0  0
   -6.7319   -6.1204  -18.5170 C   0  0  0  0  0  0  0  0  0  0  0  0
   -6.4830   -6.3019  -20.6554 H   0  0  0  0  0  0  0  0  0  0  0  0
   -4.9039   -0.9156  -14.0773 C   0  0  0  0  0  0  0  0  0  0  0  0
   -3.5381   -0.8096  -14.5285 O   0  0  0  0  0  0  0  0  0  0  0  0
   -3.0216   -1.5494  -14.1723 H   0  0  0  0  0  0  0  0  0  0  0  0
   -4.9427   -0.8052  -12.5423 C   0  0  0  0  0  0  0  0  0  0  0  0
   -5.3626    0.5756  -12.2054 N   0  0  0  0  0  0  0  0  0  0  0  0
   -7.3583   -0.3261  -11.0486 O   0  0  0  0  0  0  0  0  0  0  0  0
   -6.9481    0.7512  -11.8842 S   0  0  0  0  0  0  0  0  0  0  0  0
   -7.5827    0.7575  -13.1921 O   0  0  0  0  0  0  0  0  0  0  0  0
   -7.2419    2.1850  -11.1380 C   0  0  0  0  0  0  0  0  0  0  0  0
   -7.4210    2.2435   -9.7537 C   0  0  0  0  0  0  0  0  0  0  0  0
   -7.6216    3.4735   -9.1089 C   0  0  0  0  0  0  0  0  0  0  0  0
   -7.2724    3.3890  -11.8493 C   0  0  0  0  0  0  0  0  0  0  0  0
   -7.4693    4.6164  -11.2107 C   0  0  0  0  0  0  0  0  0  0  0  0
   -7.6467    4.6569   -9.8279 C   0  0  0  0  0  0  0  0  0  0  0  0
   -7.8210    5.8444   -9.1533 O   0  0  0  0  0  0  0  0  0  0  0  0
   -7.7414    5.8289   -7.7200 C   0  0  0  0  0  0  0  0  0  0  0  0
   -4.4919    1.2277  -11.1889 C   0  0  0  0  0  0  0  0  0  0  0  0
   -3.4701    2.1834  -11.8145 C   0  0  0  0  0  0  0  0  0  0  0  0
   -3.6022    3.6155  -11.3018 C   0  0  0  0  0  0  0  0  0  0  0  0
   -2.0467    1.6302  -11.6251 C   0  0  0  0  0  0  0  0  0  0  0  0
   -1.7778    1.1292  -10.2323 C   0  0  0  0  0  0  0  0  0  0  0  0
   -6.5038   -2.9080  -13.6840 C   0  0  0  0  0  0  0  0  0  0  0  0
   -7.6173   -3.5397  -14.5028 C   0  0  0  0  0  0  0  0  0  0  0  0
   -8.4833   -2.7355  -15.2370 C   0  0  0  0  0  0  0  0  0  0  0  0
   -9.5026   -3.3151  -15.9925 C   0  0  0  0  0  0  0  0  0  0  0  0
   -9.6588   -4.6952  -16.0233 C   0  0  0  0  0  0  0  0  0  0  0  0
   -8.7930   -5.4989  -15.2932 C   0  0  0  0  0  0  0  0  0  0  0  0
   -7.7795   -4.9240  -14.5313 C   0  0  0  0  0  0  0  0  0  0  0  0
 31 30  1  0  0  0
 30 29  1  0  0  0
 29 26  2  0  0  0
 29 28  1  0  0  0
 26 25  1  0  0  0
 35 36  1  0  0  0
 35 33  1  0  0  0
 28 27  2  0  0  0
 17 16  1  0  0  0
 25 24  2  0  0  0
 33 32  1  0  0  0
 33 34  1  0  0  0
 19 16  1  0  0  0
 19 20  1  0  0  0
 32 20  1  0  0  0
 27 24  1  0  0  0
 24 22  1  0  0  0
 16  1  1  0  0  0
 20 22  1  0  0  0
 22 21  2  0  0  0
 22 23  2  0  0  0
  1 37  1  0  0  0
  1  2  1  0  0  0
 37 38  1  0  0  0
  2  3  1  0  0  0
  3  6  1  0  0  0
  3  4  2  0  0  0
 38 43  2  0  0  0
 38 39  1  0  0  0
  6  7  1  0  0  0
 43 42  1  0  0  0
 39 40  2  0  0  0
 12 11  2  0  0  0
  7  8  1  0  0  0
 42 41  2  0  0  0
  8  9  1  0  0  0
 11  9  1  0  0  0
 11 13  1  0  0  0
 40 41  1  0  0  0
  9 10  1  0  0  0
 13 14  1  0  0  0
 10 14  1  0  0  0
 17 18  1  0  0  0
  2  5  1  0  0  0
 13 15  1  0  0  0
M  END
> <minimizedAffinity>
-8.13502

$$$$
4DJQ_M86_A_200


 43 45  0  0  0  0  0  0  0  0999 V2000
   -6.6842   -1.4752  -15.0976 C   0  0  0  0  0  0  0  0  0  0  0  0
   -6.8475   -0.1645  -14.4831 N   0  0  0  0  0  0  0  0  0  0  0  0
   -7.3647    0.0616  -13.2850 C   0  0  0  0  0  0  0  0  0  0  0  0
   -7.7203   -0.7637  -12.4667 O   0  0  0  0  0  0  0  0  0  0  0  0
   -6.5488    0.6176  -15.0010 H   0  0  0  0  0  0  0  0  0  0  0  0
   -7.5299    1.4631  -12.9806 O   0  0  0  0  0  0  0  0  0  0  0  0
   -7.0711    2.0295  -11.7449 C   0  0  0  0  0  0  0  0  0  0  0  0
   -7.4708    3.5049  -11.7476 C   0  0  0  0  0  0  0  0  0  0  0  0
   -6.7427    4.1782  -10.6494 N   0  0  0  0  0  0  0  0  0  0  0  0
   -6.0321    3.2776   -9.7135 C   0  0  0  0  0  0  0  0  0  0  0  0
   -5.8126    5.2304  -10.9039 C   0  0  0  0  0  0  0  0  0  0  0  0
   -5.7806    5.9315  -11.9012 O   0  0  0  0  0  0  0  0  0  0  0  0
   -4.9716    5.3372   -9.8872 N   0  0  0  0  0  0  0  0  0  0  0  0
   -5.1464    4.2587   -8.9379 C   0  0  0  0  0  0  0  0  0  0  0  0
   -4.3101    6.0597   -9.7891 H   0  0  0  0  0  0  0  0  0  0  0  0
   -5.4010   -1.4751  -15.9407 C   0  0  0  0  0  0  0  0  0  0  0  0
   -5.6278   -0.6855  -17.1262 O   0  0  0  0  0  0  0  0  0  0  0  0
   -6.3335   -1.0905  -17.6543 H   0  0  0  0  0  0  0  0  0  0  0  0
   -4.9203   -2.8795  -16.3490 C   0  0  0  0  0  0  0  0  0  0  0  0
   -3.4617   -2.9426  -16.0942 N   0  0  0  0  0  0  0  0  0  0  0  0
   -1.6780   -3.6588  -14.5323 O   0  0  0  0  0  0  0  0  0  0  0  0
   -3.0480   -3.2720  -14.5553 S   0  0  0  0  0  0  0  0  0  0  0  0
   -3.9650   -4.3257  -14.1527 O   0  0  0  0  0  0  0  0  0  0  0  0
   -3.2787   -1.9621  -13.5910 C   0  0  0  0  0  0  0  0  0  0  0  0
   -4.0742   -2.0523  -12.4460 C   0  0  0  0  0  0  0  0  0  0  0  0
   -4.2312   -0.9483  -11.5943 C   0  0  0  0  0  0  0  0  0  0  0  0
   -2.6528   -0.7390  -13.8535 C   0  0  0  0  0  0  0  0  0  0  0  0
   -2.8045    0.3621  -13.0063 C   0  0  0  0  0  0  0  0  0  0  0  0
   -3.6024    0.2550  -11.8675 C   0  0  0  0  0  0  0  0  0  0  0  0
   -3.7626    1.3058  -10.9924 O   0  0  0  0  0  0  0  0  0  0  0  0
   -2.5903    2.0092  -10.5545 C   0  0  0  0  0  0  0  0  0  0  0  0
   -2.7240   -3.7775  -17.0818 C   0  0  0  0  0  0  0  0  0  0  0  0
   -3.3765   -5.1470  -17.2994 C   0  0  0  0  0  0  0  0  0  0  0  0
   -3.8161   -5.3746  -18.7439 C   0  0  0  0  0  0  0  0  0  0  0  0
   -2.4422   -6.2616  -16.7967 C   0  0  0  0  0  0  0  0  0  0  0  0
   -3.0002   -7.6453  -16.9901 C   0  0  0  0  0  0  0  0  0  0  0  0
   -7.9670   -1.7857  -15.8849 C   0  0  0  0  0  0  0  0  0  0  0  0
   -8.3820   -3.2255  -15.6314 C   0  0  0  0  0  0  0  0  0  0  0  0
   -7.7516   -3.9665  -14.6368 C   0  0  0  0  0  0  0  0  0  0  0  0
   -8.1353   -5.2865  -14.4006 C   0  0  0  0  0  0  0  0  0  0  0  0
   -9.1499   -5.8699  -15.1491 C   0  0  0  0  0  0  0  0  0  0  0  0
   -9.7818   -5.1300  -16.1401 C   0  0  0  0  0  0  0  0  0  0  0  0
   -9.3961   -3.8149  -16.3847 C   0  0  0  0  0  0  0  0  0  0  0  0
 31 30  1  0  0  0
 30 29  1  0  0  0
 29 26  2  0  0  0
 29 28  1  0  0  0
 26 25  1  0  0  0
 35 36  1  0  0  0
 35 33  1  0  0  0
 28 27  2  0  0  0
 17 16  1  0  0  0
 25 24  2  0  0  0
 33 32  1  0  0  0
 33 34  1  0  0  0
 19 16  1  0  0  0
 19 20  1  0  0  0
 32 20  1  0  0  0
 27 24  1  0  0  0
 24 22  1  0  0  0
 16  1  1  0  0  0
 20 22  1  0  0  0
 22 21  2  0  0  0
 22 23  2  0  0  0
  1 37  1  0  0  0
  1  2  1  0  0  0
 37 38  1  0  0  0
  2  3  1  0  0  0
  3  6  1  0  0  0
  3  4  2  0  0  0
 38 43  2  0  0  0
 38 39  1  0  0  0
  6  7  1  0  0  0
 43 42  1  0  0  0
 39 40  2  0  0  0
 12 11  2  0  0  0
  7  8  1  0  0  0
 42 41  2  0  0  0
  8  9  1  0  0  0
 11  9  1  0  0  0
 11 13  1  0  0  0
 40 41  1  0  0  0
  9 10  1  0  0  0
 13 14  1  0  0  0
 10 14  1  0  0  0
 17 18  1  0  0  0
  2  5  1  0  0  0
 13 15  1  0  0  0
M  END
> <minimizedAffinity>
-8.13268

$$$$
4DJQ_M86_A_200


 43 45  0  0  0  0  0  0  0  0999 V2000
   -4.5789   -2.3482  -13.9800 C   0  0  0  0  0  0  0  0  0  0  0  0
   -5.6381   -2.5590  -14.9576 N   0  0  0  0  0  0  0  0  0  0  0  0
   -6.5669   -3.5007  -14.8909 C   0  0  0  0  0  0  0  0  0  0  0  0
   -6.7495   -4.2949  -13.9891 O   0  0  0  0  0  0  0  0  0  0  0  0
   -5.6658   -1.9513  -15.7317 H   0  0  0  0  0  0  0  0  0  0  0  0
   -7.4108   -3.5658  -16.0604 O   0  0  0  0  0  0  0  0  0  0  0  0
   -8.7303   -3.0027  -16.0752 C   0  0  0  0  0  0  0  0  0  0  0  0
   -9.7192   -4.1658  -16.0012 C   0  0  0  0  0  0  0  0  0  0  0  0
   -9.0824   -5.3481  -16.6228 N   0  0  0  0  0  0  0  0  0  0  0  0
   -8.9804   -6.5433  -15.7551 C   0  0  0  0  0  0  0  0  0  0  0  0
   -9.5225   -5.8595  -17.8805 C   0  0  0  0  0  0  0  0  0  0  0  0
  -10.1395   -5.2382  -18.7293 O   0  0  0  0  0  0  0  0  0  0  0  0
   -9.1628   -7.1283  -17.9960 N   0  0  0  0  0  0  0  0  0  0  0  0
   -8.6038   -7.6363  -16.7613 C   0  0  0  0  0  0  0  0  0  0  0  0
   -9.2629   -7.6597  -18.8186 H   0  0  0  0  0  0  0  0  0  0  0  0
   -5.0674   -1.3485  -12.9220 C   0  0  0  0  0  0  0  0  0  0  0  0
   -5.9412   -2.0378  -12.0046 O   0  0  0  0  0  0  0  0  0  0  0  0
   -6.7164   -2.3696  -12.4841 H   0  0  0  0  0  0  0  0  0  0  0  0
   -5.8027   -0.1286  -13.5059 C   0  0  0  0  0  0  0  0  0  0  0  0
   -5.8137    0.9255  -12.4642 N   0  0  0  0  0  0  0  0  0  0  0  0
   -7.3317    0.0141  -10.7324 O   0  0  0  0  0  0  0  0  0  0  0  0
   -7.2219    1.0847  -11.6644 S   0  0  0  0  0  0  0  0  0  0  0  0
   -8.2339    1.0641  -12.7079 O   0  0  0  0  0  0  0  0  0  0  0  0
   -7.2918    2.5250  -10.8773 C   0  0  0  0  0  0  0  0  0  0  0  0
   -7.3216    3.7256  -11.5910 C   0  0  0  0  0  0  0  0  0  0  0  0
   -7.4322    4.9540  -10.9218 C   0  0  0  0  0  0  0  0  0  0  0  0
   -7.3735    2.5951   -9.4827 C   0  0  0  0  0  0  0  0  0  0  0  0
   -7.4865    3.8163   -8.8124 C   0  0  0  0  0  0  0  0  0  0  0  0
   -7.5146    5.0057   -9.5404 C   0  0  0  0  0  0  0  0  0  0  0  0
   -7.6476    6.2300   -8.9248 O   0  0  0  0  0  0  0  0  0  0  0  0
   -8.0250    6.2561   -7.5400 C   0  0  0  0  0  0  0  0  0  0  0  0
   -4.6362    0.8713  -11.5548 C   0  0  0  0  0  0  0  0  0  0  0  0
   -3.5131    1.8199  -11.9881 C   0  0  0  0  0  0  0  0  0  0  0  0
   -3.5685    3.1714  -11.2797 C   0  0  0  0  0  0  0  0  0  0  0  0
   -2.1473    1.1323  -11.8164 C   0  0  0  0  0  0  0  0  0  0  0  0
   -0.9974    2.0974  -11.7188 C   0  0  0  0  0  0  0  0  0  0  0  0
   -3.3193   -1.9080  -14.7427 C   0  0  0  0  0  0  0  0  0  0  0  0
   -2.7372   -3.0964  -15.4899 C   0  0  0  0  0  0  0  0  0  0  0  0
   -3.2130   -3.4234  -16.7557 C   0  0  0  0  0  0  0  0  0  0  0  0
   -2.6759   -4.5113  -17.4439 C   0  0  0  0  0  0  0  0  0  0  0  0
   -1.6613   -5.2722  -16.8768 C   0  0  0  0  0  0  0  0  0  0  0  0
   -1.1836   -4.9447  -15.6146 C   0  0  0  0  0  0  0  0  0  0  0  0
   -1.7227   -3.8647  -14.9209 C   0  0  0  0  0  0  0  0  0  0  0  0
 31 30  1  0  0  0
 30 29  1  0  0  0
 29 26  2  0  0  0
 29 28  1  0  0  0
 26 25  1  0  0  0
 35 36  1  0  0  0
 35 33  1  0  0  0
 28 27  2  0  0  0
 17 16  1  0  0  0
 25 24  2  0  0  0
 33 32  1  0  0  0
 33 34  1  0  0  0
 19 16  1  0  0  0
 19 20  1  0  0  0
 32 20  1  0  0  0
 27 24  1  0  0  0
 24 22  1  0  0  0
 16  1  1  0  0  0
 20 22  1  0  0  0
 22 21  2  0  0  0
 22 23  2  0  0  0
  1 37  1  0  0  0
  1  2  1  0  0  0
 37 38  1  0  0  0
  2  3  1  0  0  0
  3  6  1  0  0  0
  3  4  2  0  0  0
 38 43  2  0  0  0
 38 39  1  0  0  0
  6  7  1  0  0  0
 43 42  1  0  0  0
 39 40  2  0  0  0
 12 11  2  0  0  0
  7  8  1  0  0  0
 42 41  2  0  0  0
  8  9  1  0  0  0
 11  9  1  0  0  0
 11 13  1  0  0  0
 40 41  1  0  0  0
  9 10  1  0  0  0
 13 14  1  0  0  0
 10 14  1  0  0  0
 17 18  1  0  0  0
  2  5  1  0  0  0
 13 15  1  0  0  0
M  END
> <minimizedAffinity>
-8.08247

$$$$
4DJQ_M86_A_200


 43 45  0  0  0  0  0  0  0  0999 V2000
   -4.8366    0.8085  -12.4238 C   0  0  0  0  0  0  0  0  0  0  0  0
   -5.7856    0.9792  -11.3319 N   0  0  0  0  0  0  0  0  0  0  0  0
   -5.8336    2.0192  -10.5131 C   0  0  0  0  0  0  0  0  0  0  0  0
   -5.1628    3.0313  -10.5653 O   0  0  0  0  0  0  0  0  0  0  0  0
   -6.4457    0.2625  -11.1909 H   0  0  0  0  0  0  0  0  0  0  0  0
   -6.7863    1.8672   -9.4392 O   0  0  0  0  0  0  0  0  0  0  0  0
   -8.0291    2.5838   -9.4215 C   0  0  0  0  0  0  0  0  0  0  0  0
   -8.1060    3.3230   -8.0858 C   0  0  0  0  0  0  0  0  0  0  0  0
   -6.8230    3.1211   -7.3766 N   0  0  0  0  0  0  0  0  0  0  0  0
   -6.0186    4.3450   -7.1599 C   0  0  0  0  0  0  0  0  0  0  0  0
   -6.7588    2.4293   -6.1300 C   0  0  0  0  0  0  0  0  0  0  0  0
   -7.5843    1.6371   -5.7078 O   0  0  0  0  0  0  0  0  0  0  0  0
   -5.6578    2.7783   -5.4830 N   0  0  0  0  0  0  0  0  0  0  0  0
   -4.9706    3.8629   -6.1510 C   0  0  0  0  0  0  0  0  0  0  0  0
   -5.3456    2.3532   -4.6517 H   0  0  0  0  0  0  0  0  0  0  0  0
   -5.5918    0.3286  -13.6715 C   0  0  0  0  0  0  0  0  0  0  0  0
   -6.5761    1.3216  -14.0255 O   0  0  0  0  0  0  0  0  0  0  0  0
   -7.2174    1.4130  -13.3035 H   0  0  0  0  0  0  0  0  0  0  0  0
   -6.2846   -1.0352  -13.4978 C   0  0  0  0  0  0  0  0  0  0  0  0
   -5.9568   -1.8560  -14.6874 N   0  0  0  0  0  0  0  0  0  0  0  0
   -6.3941   -1.4018  -17.0825 O   0  0  0  0  0  0  0  0  0  0  0  0
   -7.0563   -1.7967  -15.8856 S   0  0  0  0  0  0  0  0  0  0  0  0
   -8.0483   -0.8424  -15.4182 O   0  0  0  0  0  0  0  0  0  0  0  0
   -7.7754   -3.2586  -16.0969 C   0  0  0  0  0  0  0  0  0  0  0  0
   -9.0455   -3.5097  -15.5719 C   0  0  0  0  0  0  0  0  0  0  0  0
   -9.6821   -4.7401  -15.7946 C   0  0  0  0  0  0  0  0  0  0  0  0
   -7.1683   -4.2732  -16.8443 C   0  0  0  0  0  0  0  0  0  0  0  0
   -7.8000   -5.4991  -17.0707 C   0  0  0  0  0  0  0  0  0  0  0  0
   -9.0680   -5.7334  -16.5390 C   0  0  0  0  0  0  0  0  0  0  0  0
   -9.7379   -6.9166  -16.7550 O   0  0  0  0  0  0  0  0  0  0  0  0
  -10.6053   -7.0072  -17.8953 C   0  0  0  0  0  0  0  0  0  0  0  0
   -4.5626   -1.6642  -15.1731 C   0  0  0  0  0  0  0  0  0  0  0  0
   -3.7763   -2.9780  -15.2403 C   0  0  0  0  0  0  0  0  0  0  0  0
   -3.4464   -3.4022  -16.6695 C   0  0  0  0  0  0  0  0  0  0  0  0
   -2.5179   -2.8844  -14.3596 C   0  0  0  0  0  0  0  0  0  0  0  0
   -1.5004   -3.9535  -14.6511 C   0  0  0  0  0  0  0  0  0  0  0  0
   -3.7320   -0.1437  -11.9389 C   0  0  0  0  0  0  0  0  0  0  0  0
   -2.5475    0.6662  -11.4383 C   0  0  0  0  0  0  0  0  0  0  0  0
   -1.6815    1.2668  -12.3467 C   0  0  0  0  0  0  0  0  0  0  0  0
   -0.5969    2.0141  -11.8878 C   0  0  0  0  0  0  0  0  0  0  0  0
   -0.3750    2.1699  -10.5253 C   0  0  0  0  0  0  0  0  0  0  0  0
   -1.2406    1.5733   -9.6178 C   0  0  0  0  0  0  0  0  0  0  0  0
   -2.3195    0.8196  -10.0717 C   0  0  0  0  0  0  0  0  0  0  0  0
 31 30  1  0  0  0
 30 29  1  0  0  0
 29 26  2  0  0  0
 29 28  1  0  0  0
 26 25  1  0  0  0
 35 36  1  0  0  0
 35 33  1  0  0  0
 28 27  2  0  0  0
 17 16  1  0  0  0
 25 24  2  0  0  0
 33 32  1  0  0  0
 33 34  1  0  0  0
 19 16  1  0  0  0
 19 20  1  0  0  0
 32 20  1  0  0  0
 27 24  1  0  0  0
 24 22  1  0  0  0
 16  1  1  0  0  0
 20 22  1  0  0  0
 22 21  2  0  0  0
 22 23  2  0  0  0
  1 37  1  0  0  0
  1  2  1  0  0  0
 37 38  1  0  0  0
  2  3  1  0  0  0
  3  6  1  0  0  0
  3  4  2  0  0  0
 38 43  2  0  0  0
 38 39  1  0  0  0
  6  7  1  0  0  0
 43 42  1  0  0  0
 39 40  2  0  0  0
 12 11  2  0  0  0
  7  8  1  0  0  0
 42 41  2  0  0  0
  8  9  1  0  0  0
 11  9  1  0  0  0
 11 13  1  0  0  0
 40 41  1  0  0  0
  9 10  1  0  0  0
 13 14  1  0  0  0
 10 14  1  0  0  0
 17 18  1  0  0  0
  2  5  1  0  0  0
 13 15  1  0  0  0
M  END
> <minimizedAffinity>
-8.03056

$$$$
4DJQ_M86_A_200


 43 45  0  0  0  0  0  0  0  0999 V2000
   -4.6270   -3.0701  -14.3715 C   0  0  0  0  0  0  0  0  0  0  0  0
   -3.8844   -3.9497  -15.2643 N   0  0  0  0  0  0  0  0  0  0  0  0
   -3.5096   -3.6504  -16.4988 C   0  0  0  0  0  0  0  0  0  0  0  0
   -3.6455   -2.5887  -17.0746 O   0  0  0  0  0  0  0  0  0  0  0  0
   -3.6411   -4.8400  -14.9217 H   0  0  0  0  0  0  0  0  0  0  0  0
   -2.9039   -4.7549  -17.2040 O   0  0  0  0  0  0  0  0  0  0  0  0
   -3.3444   -6.1073  -17.0157 C   0  0  0  0  0  0  0  0  0  0  0  0
   -4.0210   -6.5474  -18.3137 C   0  0  0  0  0  0  0  0  0  0  0  0
   -5.3980   -6.9802  -17.9880 N   0  0  0  0  0  0  0  0  0  0  0  0
   -6.4096   -5.8999  -17.9471 C   0  0  0  0  0  0  0  0  0  0  0  0
   -6.0377   -8.0379  -18.7014 C   0  0  0  0  0  0  0  0  0  0  0  0
   -5.4761   -8.9156  -19.3351 O   0  0  0  0  0  0  0  0  0  0  0  0
   -7.3511   -7.9275  -18.5788 N   0  0  0  0  0  0  0  0  0  0  0  0
   -7.7211   -6.6922  -17.9214 C   0  0  0  0  0  0  0  0  0  0  0  0
   -7.9955   -8.6011  -18.8952 H   0  0  0  0  0  0  0  0  0  0  0  0
   -3.6537   -2.4477  -13.3602 C   0  0  0  0  0  0  0  0  0  0  0  0
   -4.2468   -2.5153  -12.0472 O   0  0  0  0  0  0  0  0  0  0  0  0
   -5.0652   -1.9949  -12.0349 H   0  0  0  0  0  0  0  0  0  0  0  0
   -3.2746   -0.9887  -13.6728 C   0  0  0  0  0  0  0  0  0  0  0  0
   -4.0638   -0.1198  -12.7681 N   0  0  0  0  0  0  0  0  0  0  0  0
   -1.9561    1.0979  -12.3111 O   0  0  0  0  0  0  0  0  0  0  0  0
   -3.1850    0.7295  -11.6937 S   0  0  0  0  0  0  0  0  0  0  0  0
   -3.0300   -0.1704  -10.5626 O   0  0  0  0  0  0  0  0  0  0  0  0
   -3.9933    2.0732  -11.2039 C   0  0  0  0  0  0  0  0  0  0  0  0
   -5.0514    1.9764  -10.2968 C   0  0  0  0  0  0  0  0  0  0  0  0
   -5.7097    3.1279   -9.8388 C   0  0  0  0  0  0  0  0  0  0  0  0
   -3.6210    3.3508  -11.6351 C   0  0  0  0  0  0  0  0  0  0  0  0
   -4.2722    4.5003  -11.1794 C   0  0  0  0  0  0  0  0  0  0  0  0
   -5.3269    4.3857  -10.2740 C   0  0  0  0  0  0  0  0  0  0  0  0
   -5.9827    5.4911   -9.7804 O   0  0  0  0  0  0  0  0  0  0  0  0
   -7.3376    5.3331   -9.3333 C   0  0  0  0  0  0  0  0  0  0  0  0
   -5.0708    0.7152  -13.4789 C   0  0  0  0  0  0  0  0  0  0  0  0
   -6.4761    0.1051  -13.4387 C   0  0  0  0  0  0  0  0  0  0  0  0
   -6.8041   -0.5470  -12.0975 C   0  0  0  0  0  0  0  0  0  0  0  0
   -7.5207    1.1616  -13.8391 C   0  0  0  0  0  0  0  0  0  0  0  0
   -7.7665    2.1962  -12.7750 C   0  0  0  0  0  0  0  0  0  0  0  0
   -5.7633   -3.8923  -13.7432 C   0  0  0  0  0  0  0  0  0  0  0  0
   -7.0261   -3.7297  -14.5728 C   0  0  0  0  0  0  0  0  0  0  0  0
   -7.9648   -4.7555  -14.6197 C   0  0  0  0  0  0  0  0  0  0  0  0
   -9.1262   -4.6049  -15.3773 C   0  0  0  0  0  0  0  0  0  0  0  0
   -9.3585   -3.4321  -16.0848 C   0  0  0  0  0  0  0  0  0  0  0  0
   -8.4235   -2.4064  -16.0362 C   0  0  0  0  0  0  0  0  0  0  0  0
   -7.2590   -2.5560  -15.2880 C   0  0  0  0  0  0  0  0  0  0  0  0
 31 30  1  0  0  0
 30 29  1  0  0  0
 29 26  2  0  0  0
 29 28  1  0  0  0
 26 25  1  0  0  0
 35 36  1  0  0  0
 35 33  1  0  0  0
 28 27  2  0  0  0
 17 16  1  0  0  0
 25 24  2  0  0  0
 33 32  1  0  0  0
 33 34  1  0  0  0
 19 16  1  0  0  0
 19 20  1  0  0  0
 32 20  1  0  0  0
 27 24  1  0  0  0
 24 22  1  0  0  0
 16  1  1  0  0  0
 20 22  1  0  0  0
 22 21  2  0  0  0
 22 23  2  0  0  0
  1 37  1  0  0  0
  1  2  1  0  0  0
 37 38  1  0  0  0
  2  3  1  0  0  0
  3  6  1  0  0  0
  3  4  2  0  0  0
 38 43  2  0  0  0
 38 39  1  0  0  0
  6  7  1  0  0  0
 43 42  1  0  0  0
 39 40  2  0  0  0
 12 11  2  0  0  0
  7  8  1  0  0  0
 42 41  2  0  0  0
  8  9  1  0  0  0
 11  9  1  0  0  0
 11 13  1  0  0  0
 40 41  1  0  0  0
  9 10  1  0  0  0
 13 14  1  0  0  0
 10 14  1  0  0  0
 17 18  1  0  0  0
  2  5  1  0  0  0
 13 15  1  0  0  0
M  END
> <minimizedAffinity>
-8.01535

$$$$
4DJQ_M86_A_200


 43 45  0  0  0  0  0  0  0  0999 V2000
   -5.8370    0.8557  -12.5269 C   0  0  0  0  0  0  0  0  0  0  0  0
   -4.4821    1.3772  -12.6470 N   0  0  0  0  0  0  0  0  0  0  0  0
   -3.4004    0.8323  -12.1111 C   0  0  0  0  0  0  0  0  0  0  0  0
   -3.3273   -0.2156  -11.4997 O   0  0  0  0  0  0  0  0  0  0  0  0
   -4.3605    2.2027  -13.1695 H   0  0  0  0  0  0  0  0  0  0  0  0
   -2.2082    1.6295  -12.2759 O   0  0  0  0  0  0  0  0  0  0  0  0
   -1.3171    1.8953  -11.1832 C   0  0  0  0  0  0  0  0  0  0  0  0
   -1.3077    3.4081  -10.9650 C   0  0  0  0  0  0  0  0  0  0  0  0
   -2.4514    3.7515  -10.0911 N   0  0  0  0  0  0  0  0  0  0  0  0
   -2.1105    4.5209   -8.8731 C   0  0  0  0  0  0  0  0  0  0  0  0
   -3.6164    4.3972  -10.6038 C   0  0  0  0  0  0  0  0  0  0  0  0
   -3.9811    4.3969  -11.7675 O   0  0  0  0  0  0  0  0  0  0  0  0
   -4.2549    5.0110   -9.6200 N   0  0  0  0  0  0  0  0  0  0  0  0
   -3.4901    4.9829   -8.3915 C   0  0  0  0  0  0  0  0  0  0  0  0
   -5.1393    5.4336   -9.7123 H   0  0  0  0  0  0  0  0  0  0  0  0
   -6.1136   -0.0918  -13.7030 C   0  0  0  0  0  0  0  0  0  0  0  0
   -7.3816    0.2621  -14.2923 O   0  0  0  0  0  0  0  0  0  0  0  0
   -8.0872    0.1414  -13.6378 H   0  0  0  0  0  0  0  0  0  0  0  0
   -6.1305   -1.5817  -13.3158 C   0  0  0  0  0  0  0  0  0  0  0  0
   -5.6487   -2.3517  -14.4868 N   0  0  0  0  0  0  0  0  0  0  0  0
   -3.7492   -3.1801  -13.1305 O   0  0  0  0  0  0  0  0  0  0  0  0
   -4.0699   -2.7440  -14.4473 S   0  0  0  0  0  0  0  0  0  0  0  0
   -3.3853   -1.5258  -14.8481 O   0  0  0  0  0  0  0  0  0  0  0  0
   -3.7315   -3.9314  -15.5310 C   0  0  0  0  0  0  0  0  0  0  0  0
   -3.8701   -5.2764  -15.1797 C   0  0  0  0  0  0  0  0  0  0  0  0
   -3.6302   -6.2905  -16.1194 C   0  0  0  0  0  0  0  0  0  0  0  0
   -3.3457   -3.6383  -16.8431 C   0  0  0  0  0  0  0  0  0  0  0  0
   -3.1083   -4.6451  -17.7829 C   0  0  0  0  0  0  0  0  0  0  0  0
   -3.2511   -5.9829  -17.4154 C   0  0  0  0  0  0  0  0  0  0  0  0
   -3.0501   -7.0073  -18.3131 O   0  0  0  0  0  0  0  0  0  0  0  0
   -2.8821   -6.6722  -19.6989 C   0  0  0  0  0  0  0  0  0  0  0  0
   -6.5218   -3.5060  -14.8361 C   0  0  0  0  0  0  0  0  0  0  0  0
   -7.3160   -3.2746  -16.1263 C   0  0  0  0  0  0  0  0  0  0  0  0
   -7.2473   -4.4582  -17.0884 C   0  0  0  0  0  0  0  0  0  0  0  0
   -8.7664   -2.8862  -15.7896 C   0  0  0  0  0  0  0  0  0  0  0  0
   -9.7916   -3.7836  -16.4274 C   0  0  0  0  0  0  0  0  0  0  0  0
   -6.7933    2.0552  -12.4331 C   0  0  0  0  0  0  0  0  0  0  0  0
   -7.0998    2.3470  -10.9735 C   0  0  0  0  0  0  0  0  0  0  0  0
   -6.9937    1.3351  -10.0245 C   0  0  0  0  0  0  0  0  0  0  0  0
   -7.2703    1.6035   -8.6840 C   0  0  0  0  0  0  0  0  0  0  0  0
   -7.6474    2.8794   -8.2844 C   0  0  0  0  0  0  0  0  0  0  0  0
   -7.7506    3.8908   -9.2305 C   0  0  0  0  0  0  0  0  0  0  0  0
   -7.4835    3.6251  -10.5707 C   0  0  0  0  0  0  0  0  0  0  0  0
 31 30  1  0  0  0
 30 29  1  0  0  0
 29 26  2  0  0  0
 29 28  1  0  0  0
 26 25  1  0  0  0
 35 36  1  0  0  0
 35 33  1  0  0  0
 28 27  2  0  0  0
 17 16  1  0  0  0
 25 24  2  0  0  0
 33 32  1  0  0  0
 33 34  1  0  0  0
 19 16  1  0  0  0
 19 20  1  0  0  0
 32 20  1  0  0  0
 27 24  1  0  0  0
 24 22  1  0  0  0
 16  1  1  0  0  0
 20 22  1  0  0  0
 22 21  2  0  0  0
 22 23  2  0  0  0
  1 37  1  0  0  0
  1  2  1  0  0  0
 37 38  1  0  0  0
  2  3  1  0  0  0
  3  6  1  0  0  0
  3  4  2  0  0  0
 38 43  2  0  0  0
 38 39  1  0  0  0
  6  7  1  0  0  0
 43 42  1  0  0  0
 39 40  2  0  0  0
 12 11  2  0  0  0
  7  8  1  0  0  0
 42 41  2  0  0  0
  8  9  1  0  0  0
 11  9  1  0  0  0
 11 13  1  0  0  0
 40 41  1  0  0  0
  9 10  1  0  0  0
 13 14  1  0  0  0
 10 14  1  0  0  0
 17 18  1  0  0  0
  2  5  1  0  0  0
 13 15  1  0  0  0
M  END
> <minimizedAffinity>
-7.98404

$$$$
