1HWR_216_B_216


 32 34  0  0  0  0  0  0  0  0999 V2000
   -8.2797   14.0047   28.0777 O   0  0  0  0  0  0  0  0  0  0  0  0
  -10.0019   19.2083   27.0901 O   0  0  0  0  0  0  0  0  0  0  0  0
  -11.7486   18.3551   29.1848 O   0  0  0  0  0  0  0  0  0  0  0  0
   -8.7688   15.8355   27.0851 N   0  0  0  0  0  0  0  0  0  0  0  0
   -9.5923   15.3794   29.2382 N   0  0  0  0  0  0  0  0  0  0  0  0
   -8.8794   15.0524   28.1399 C   0  0  0  0  0  0  0  0  0  0  0  0
   -8.8415   17.3009   27.1429 C   0  0  0  0  0  0  0  0  0  0  0  0
  -10.1812   17.8899   27.4525 C   0  0  0  0  0  0  0  0  0  0  0  0
  -10.5427   17.7183   28.8828 C   0  0  0  0  0  0  0  0  0  0  0  0
  -10.7830   16.2571   29.2179 C   0  0  0  0  0  0  0  0  0  0  0  0
   -9.7688   19.2562   26.1497 H   0  0  0  0  0  0  0  0  0  0  0  0
  -11.6704   19.3029   28.9940 H   0  0  0  0  0  0  0  0  0  0  0  0
   -8.3934   15.2279   25.8064 C   0  0  0  0  0  0  0  0  0  0  0  0
   -8.7861   16.1035   24.6408 C   0  0  0  0  0  0  0  0  0  0  0  0
   -9.8505   15.8365   23.8767 C   0  0  0  0  0  0  0  0  0  0  0  0
   -7.6592   17.8736   27.9403 C   0  0  0  0  0  0  0  0  0  0  0  0
   -6.4006   17.8951   27.1196 C   0  0  0  0  0  0  0  0  0  0  0  0
   -6.1895   18.9262   26.1764 C   0  0  0  0  0  0  0  0  0  0  0  0
   -5.0167   18.9566   25.3893 C   0  0  0  0  0  0  0  0  0  0  0  0
   -4.0380   17.9622   25.5450 C   0  0  0  0  0  0  0  0  0  0  0  0
   -4.2479   16.9239   26.5036 C   0  0  0  0  0  0  0  0  0  0  0  0
   -5.4297   16.8836   27.2950 C   0  0  0  0  0  0  0  0  0  0  0  0
  -11.9419   15.5380   28.4596 C   0  0  0  0  0  0  0  0  0  0  0  0
  -12.4921   14.2874   29.1330 C   0  0  0  0  0  0  0  0  0  0  0  0
  -13.5346   14.4405   30.0795 C   0  0  0  0  0  0  0  0  0  0  0  0
  -14.1230   13.3243   30.6962 C   0  0  0  0  0  0  0  0  0  0  0  0
  -13.6450   12.0421   30.3428 C   0  0  0  0  0  0  0  0  0  0  0  0
  -12.6008   11.8771   29.3941 C   0  0  0  0  0  0  0  0  0  0  0  0
  -12.0066   13.0021   28.7794 C   0  0  0  0  0  0  0  0  0  0  0  0
   -9.3335   14.7996   30.5700 C   0  0  0  0  0  0  0  0  0  0  0  0
   -9.2937   15.8164   31.6990 C   0  0  0  0  0  0  0  0  0  0  0  0
   -8.1680   16.1971   32.3154 C   0  0  0  0  0  0  0  0  0  0  0  0
  1  6  2  0  0  0
  2  8  1  0  0  0
  3  9  1  0  0  0
  4  6  1  0  0  0
  4  7  1  0  0  0
  4 13  1  0  0  0
  5  6  1  0  0  0
  5 10  1  0  0  0
  5 30  1  0  0  0
  7  8  1  0  0  0
  7 16  1  0  0  0
  8  9  1  0  0  0
  9 10  1  0  0  0
 10 23  1  0  0  0
 13 14  1  0  0  0
 14 15  2  0  0  0
 16 17  1  0  0  0
 17 18  2  0  0  0
 17 22  1  0  0  0
 18 19  1  0  0  0
 19 20  2  0  0  0
 20 21  1  0  0  0
 21 22  2  0  0  0
 23 24  1  0  0  0
 24 25  2  0  0  0
 24 29  1  0  0  0
 25 26  1  0  0  0
 26 27  2  0  0  0
 27 28  1  0  0  0
 28 29  2  0  0  0
 30 31  1  0  0  0
 31 32  2  0  0  0
  2 11  1  0  0  0
  3 12  1  0  0  0
M  END
> <minimizedAffinity>
-9.97674

$$$$
1HWR_216_B_216


 32 34  0  0  0  0  0  0  0  0999 V2000
   -8.3153   14.0188   28.0911 O   0  0  0  0  0  0  0  0  0  0  0  0
  -11.7471   18.3115   28.9931 O   0  0  0  0  0  0  0  0  0  0  0  0
  -10.0329   19.2997   26.9312 O   0  0  0  0  0  0  0  0  0  0  0  0
   -9.6004   15.4332   29.0524 N   0  0  0  0  0  0  0  0  0  0  0  0
   -8.7224   15.8661   26.9161 N   0  0  0  0  0  0  0  0  0  0  0  0
   -8.8623   15.0939   28.0141 C   0  0  0  0  0  0  0  0  0  0  0  0
  -10.7854   16.2961   28.9668 C   0  0  0  0  0  0  0  0  0  0  0  0
  -10.5383   17.7387   28.6579 C   0  0  0  0  0  0  0  0  0  0  0  0
  -10.1666   17.9429   27.2345 C   0  0  0  0  0  0  0  0  0  0  0  0
   -8.8055   17.3431   26.9301 C   0  0  0  0  0  0  0  0  0  0  0  0
  -11.9348   18.1455   29.9302 H   0  0  0  0  0  0  0  0  0  0  0  0
  -10.8727   19.7537   27.1028 H   0  0  0  0  0  0  0  0  0  0  0  0
   -9.3246   14.7905   30.3392 C   0  0  0  0  0  0  0  0  0  0  0  0
   -9.4505   15.7666   31.4841 C   0  0  0  0  0  0  0  0  0  0  0  0
   -8.3825   16.2618   32.1182 C   0  0  0  0  0  0  0  0  0  0  0  0
  -11.8948   15.6177   28.1478 C   0  0  0  0  0  0  0  0  0  0  0  0
  -12.4354   14.4052   28.8516 C   0  0  0  0  0  0  0  0  0  0  0  0
  -13.3403   14.5569   29.9266 C   0  0  0  0  0  0  0  0  0  0  0  0
  -13.8510   13.4284   30.6061 C   0  0  0  0  0  0  0  0  0  0  0  0
  -13.4702   12.1362   30.2106 C   0  0  0  0  0  0  0  0  0  0  0  0
  -12.5612   11.9825   29.1193 C   0  0  0  0  0  0  0  0  0  0  0  0
  -12.0381   13.1149   28.4347 C   0  0  0  0  0  0  0  0  0  0  0  0
   -7.5856   17.9216   27.7126 C   0  0  0  0  0  0  0  0  0  0  0  0
   -6.2763   17.9845   26.9366 C   0  0  0  0  0  0  0  0  0  0  0  0
   -5.3670   16.9067   27.0699 C   0  0  0  0  0  0  0  0  0  0  0  0
   -4.1671   16.8768   26.3406 C   0  0  0  0  0  0  0  0  0  0  0  0
   -3.8942   17.9540   25.4674 C   0  0  0  0  0  0  0  0  0  0  0  0
   -4.7996   19.0393   25.3254 C   0  0  0  0  0  0  0  0  0  0  0  0
   -6.0034   19.0698   26.0646 C   0  0  0  0  0  0  0  0  0  0  0  0
   -8.3508   15.3281   25.5935 C   0  0  0  0  0  0  0  0  0  0  0  0
   -8.8381   16.1606   24.4189 C   0  0  0  0  0  0  0  0  0  0  0  0
   -9.8753   15.8169   23.6456 C   0  0  0  0  0  0  0  0  0  0  0  0
  1  6  2  0  0  0
  2  8  1  0  0  0
  3  9  1  0  0  0
  4  6  1  0  0  0
  4  7  1  0  0  0
  4 13  1  0  0  0
  5  6  1  0  0  0
  5 10  1  0  0  0
  5 30  1  0  0  0
  7  8  1  0  0  0
  7 16  1  0  0  0
  8  9  1  0  0  0
  9 10  1  0  0  0
 10 23  1  0  0  0
 13 14  1  0  0  0
 14 15  2  0  0  0
 16 17  1  0  0  0
 17 18  2  0  0  0
 17 22  1  0  0  0
 18 19  1  0  0  0
 19 20  2  0  0  0
 20 21  1  0  0  0
 21 22  2  0  0  0
 23 24  1  0  0  0
 24 25  2  0  0  0
 24 29  1  0  0  0
 25 26  1  0  0  0
 26 27  2  0  0  0
 27 28  1  0  0  0
 28 29  2  0  0  0
 30 31  1  0  0  0
 31 32  2  0  0  0
  2 11  1  0  0  0
  3 12  1  0  0  0
M  END
> <minimizedAffinity>
-9.87467

$$$$
1HWR_216_B_216


 32 34  0  0  0  0  0  0  0  0999 V2000
  -10.0636   19.2207   27.3324 O   0  0  0  0  0  0  0  0  0  0  0  0
   -7.7119   14.4549   25.6665 O   0  0  0  0  0  0  0  0  0  0  0  0
   -8.8552   13.7441   28.1873 O   0  0  0  0  0  0  0  0  0  0  0  0
   -8.7245   17.8131   26.4371 N   0  0  0  0  0  0  0  0  0  0  0  0
  -10.2926   17.1236   28.0456 N   0  0  0  0  0  0  0  0  0  0  0  0
   -9.7021   18.0683   27.2839 C   0  0  0  0  0  0  0  0  0  0  0  0
   -8.5472   16.5241   25.7565 C   0  0  0  0  0  0  0  0  0  0  0  0
   -8.1218   15.3723   26.6109 C   0  0  0  0  0  0  0  0  0  0  0  0
   -9.2319   14.8790   27.4654 C   0  0  0  0  0  0  0  0  0  0  0  0
   -9.6085   15.9017   28.5225 C   0  0  0  0  0  0  0  0  0  0  0  0
   -6.9887   14.8322   25.1417 H   0  0  0  0  0  0  0  0  0  0  0  0
   -8.5983   13.0399   27.5717 H   0  0  0  0  0  0  0  0  0  0  0  0
   -7.8571   18.9190   26.0254 C   0  0  0  0  0  0  0  0  0  0  0  0
   -6.4052   18.6211   26.3135 C   0  0  0  0  0  0  0  0  0  0  0  0
   -5.9760   18.2861   27.5347 C   0  0  0  0  0  0  0  0  0  0  0  0
   -9.7168   16.2492   24.7981 C   0  0  0  0  0  0  0  0  0  0  0  0
   -9.2651   16.2471   23.3650 C   0  0  0  0  0  0  0  0  0  0  0  0
   -7.9752   16.7175   23.0299 C   0  0  0  0  0  0  0  0  0  0  0  0
   -7.5376   16.7319   21.6866 C   0  0  0  0  0  0  0  0  0  0  0  0
   -8.3816   16.2662   20.6659 C   0  0  0  0  0  0  0  0  0  0  0  0
   -9.6828   15.7839   21.0054 C   0  0  0  0  0  0  0  0  0  0  0  0
  -10.1322   15.7725   22.3553 C   0  0  0  0  0  0  0  0  0  0  0  0
   -8.5035   16.2965   29.5513 C   0  0  0  0  0  0  0  0  0  0  0  0
   -8.8139   15.9720   31.0068 C   0  0  0  0  0  0  0  0  0  0  0  0
  -10.0745   15.4026   31.3114 C   0  0  0  0  0  0  0  0  0  0  0  0
  -10.4028   15.0300   32.6251 C   0  0  0  0  0  0  0  0  0  0  0  0
   -9.4365   15.2384   33.6352 C   0  0  0  0  0  0  0  0  0  0  0  0
   -8.1689   15.8076   33.3406 C   0  0  0  0  0  0  0  0  0  0  0  0
   -7.8433   16.1870   32.0190 C   0  0  0  0  0  0  0  0  0  0  0  0
  -11.6570   17.2627   28.5897 C   0  0  0  0  0  0  0  0  0  0  0  0
  -12.6208   16.1725   28.1508 C   0  0  0  0  0  0  0  0  0  0  0  0
  -13.0531   15.1955   28.9574 C   0  0  0  0  0  0  0  0  0  0  0  0
  1  6  2  0  0  0
  2  8  1  0  0  0
  3  9  1  0  0  0
  4  6  1  0  0  0
  4  7  1  0  0  0
  4 13  1  0  0  0
  5  6  1  0  0  0
  5 10  1  0  0  0
  5 30  1  0  0  0
  7  8  1  0  0  0
  7 16  1  0  0  0
  8  9  1  0  0  0
  9 10  1  0  0  0
 10 23  1  0  0  0
 13 14  1  0  0  0
 14 15  2  0  0  0
 16 17  1  0  0  0
 17 18  2  0  0  0
 17 22  1  0  0  0
 18 19  1  0  0  0
 19 20  2  0  0  0
 20 21  1  0  0  0
 21 22  2  0  0  0
 23 24  1  0  0  0
 24 25  2  0  0  0
 24 29  1  0  0  0
 25 26  1  0  0  0
 26 27  2  0  0  0
 27 28  1  0  0  0
 28 29  2  0  0  0
 30 31  1  0  0  0
 31 32  2  0  0  0
  2 11  1  0  0  0
  3 12  1  0  0  0
M  END
> <minimizedAffinity>
-8.48605

$$$$
1HWR_216_B_216


 32 34  0  0  0  0  0  0  0  0999 V2000
  -10.1770   19.1346   27.5104 O   0  0  0  0  0  0  0  0  0  0  0  0
   -8.8969   13.7603   28.2153 O   0  0  0  0  0  0  0  0  0  0  0  0
   -7.6967   14.3669   25.6937 O   0  0  0  0  0  0  0  0  0  0  0  0
  -10.2762   17.0730   28.0727 N   0  0  0  0  0  0  0  0  0  0  0  0
   -8.7126   17.8100   26.4808 N   0  0  0  0  0  0  0  0  0  0  0  0
   -9.7259   18.0253   27.3458 C   0  0  0  0  0  0  0  0  0  0  0  0
   -9.5630   15.8700   28.5203 C   0  0  0  0  0  0  0  0  0  0  0  0
   -9.2093   14.8729   27.4628 C   0  0  0  0  0  0  0  0  0  0  0  0
   -8.0843   15.3428   26.6147 C   0  0  0  0  0  0  0  0  0  0  0  0
   -8.4949   16.5330   25.7663 C   0  0  0  0  0  0  0  0  0  0  0  0
   -9.6670   13.5019   28.7455 H   0  0  0  0  0  0  0  0  0  0  0  0
   -7.4179   13.5677   26.1676 H   0  0  0  0  0  0  0  0  0  0  0  0
  -11.6239   17.2948   28.6012 C   0  0  0  0  0  0  0  0  0  0  0  0
  -12.5862   16.2317   28.1283 C   0  0  0  0  0  0  0  0  0  0  0  0
  -13.0048   15.2444   28.9269 C   0  0  0  0  0  0  0  0  0  0  0  0
   -8.4343   16.2378   29.4963 C   0  0  0  0  0  0  0  0  0  0  0  0
   -8.8002   15.8990   30.9138 C   0  0  0  0  0  0  0  0  0  0  0  0
   -7.8965   16.1802   31.9634 C   0  0  0  0  0  0  0  0  0  0  0  0
   -8.2200   15.8595   33.3008 C   0  0  0  0  0  0  0  0  0  0  0  0
   -9.4548   15.2640   33.6035 C   0  0  0  0  0  0  0  0  0  0  0  0
  -10.3713   14.9864   32.5433 C   0  0  0  0  0  0  0  0  0  0  0  0
  -10.0494   15.3008   31.1936 C   0  0  0  0  0  0  0  0  0  0  0  0
   -9.6532   16.3087   24.7449 C   0  0  0  0  0  0  0  0  0  0  0  0
   -9.2421   16.2892   23.2783 C   0  0  0  0  0  0  0  0  0  0  0  0
   -7.9292   16.7038   22.9457 C   0  0  0  0  0  0  0  0  0  0  0  0
   -7.4692   16.6586   21.6194 C   0  0  0  0  0  0  0  0  0  0  0  0
   -8.3554   16.1849   20.6256 C   0  0  0  0  0  0  0  0  0  0  0  0
   -9.6736   15.7658   20.9482 C   0  0  0  0  0  0  0  0  0  0  0  0
  -10.1358   15.8177   22.2825 C   0  0  0  0  0  0  0  0  0  0  0  0
   -7.7741   18.8672   26.0586 C   0  0  0  0  0  0  0  0  0  0  0  0
   -6.6419   19.1280   27.0385 C   0  0  0  0  0  0  0  0  0  0  0  0
   -5.7850   18.1854   27.4500 C   0  0  0  0  0  0  0  0  0  0  0  0
  1  6  2  0  0  0
  2  8  1  0  0  0
  3  9  1  0  0  0
  4  6  1  0  0  0
  4  7  1  0  0  0
  4 13  1  0  0  0
  5  6  1  0  0  0
  5 10  1  0  0  0
  5 30  1  0  0  0
  7  8  1  0  0  0
  7 16  1  0  0  0
  8  9  1  0  0  0
  9 10  1  0  0  0
 10 23  1  0  0  0
 13 14  1  0  0  0
 14 15  2  0  0  0
 16 17  1  0  0  0
 17 18  2  0  0  0
 17 22  1  0  0  0
 18 19  1  0  0  0
 19 20  2  0  0  0
 20 21  1  0  0  0
 21 22  2  0  0  0
 23 24  1  0  0  0
 24 25  2  0  0  0
 24 29  1  0  0  0
 25 26  1  0  0  0
 26 27  2  0  0  0
 27 28  1  0  0  0
 28 29  2  0  0  0
 30 31  1  0  0  0
 31 32  2  0  0  0
  2 11  1  0  0  0
  3 12  1  0  0  0
M  END
> <minimizedAffinity>
-8.40704

$$$$
1HWR_216_B_216


 32 34  0  0  0  0  0  0  0  0999 V2000
   -8.5111   14.2377   29.1422 O   0  0  0  0  0  0  0  0  0  0  0  0
  -13.4347   16.6125   28.0759 O   0  0  0  0  0  0  0  0  0  0  0  0
  -13.9578   15.1235   30.4583 O   0  0  0  0  0  0  0  0  0  0  0  0
  -10.1986   15.0560   28.1131 N   0  0  0  0  0  0  0  0  0  0  0  0
  -10.3380   14.4916   30.3899 N   0  0  0  0  0  0  0  0  0  0  0  0
   -9.6671   14.5818   29.2225 C   0  0  0  0  0  0  0  0  0  0  0  0
  -11.2713   16.0582   28.0833 C   0  0  0  0  0  0  0  0  0  0  0  0
  -12.6192   15.6056   28.5479 C   0  0  0  0  0  0  0  0  0  0  0  0
  -12.6714   15.4516   30.0242 C   0  0  0  0  0  0  0  0  0  0  0  0
  -11.8013   14.2970   30.4878 C   0  0  0  0  0  0  0  0  0  0  0  0
  -13.3582   16.6646   27.1103 H   0  0  0  0  0  0  0  0  0  0  0  0
  -14.5760   15.8232   30.1953 H   0  0  0  0  0  0  0  0  0  0  0  0
   -9.5828   14.6877   26.8363 C   0  0  0  0  0  0  0  0  0  0  0  0
  -10.3112   15.3111   25.6699 C   0  0  0  0  0  0  0  0  0  0  0  0
   -9.7045   15.5665   24.5061 C   0  0  0  0  0  0  0  0  0  0  0  0
  -10.7815   17.3972   28.6569 C   0  0  0  0  0  0  0  0  0  0  0  0
   -9.5039   17.8419   28.0026 C   0  0  0  0  0  0  0  0  0  0  0  0
   -8.2760   17.7144   28.6907 C   0  0  0  0  0  0  0  0  0  0  0  0
   -7.0666   18.1364   28.0947 C   0  0  0  0  0  0  0  0  0  0  0  0
   -7.0713   18.6803   26.8004 C   0  0  0  0  0  0  0  0  0  0  0  0
   -8.3116   18.8024   26.1020 C   0  0  0  0  0  0  0  0  0  0  0  0
   -9.5341   18.3854   26.6987 C   0  0  0  0  0  0  0  0  0  0  0  0
  -12.1698   12.8758   29.9591 C   0  0  0  0  0  0  0  0  0  0  0  0
  -12.6059   11.8724   31.0190 C   0  0  0  0  0  0  0  0  0  0  0  0
  -12.5278   10.4930   30.7071 C   0  0  0  0  0  0  0  0  0  0  0  0
  -12.8631    9.5152   31.6580 C   0  0  0  0  0  0  0  0  0  0  0  0
  -13.2792    9.9485   32.9371 C   0  0  0  0  0  0  0  0  0  0  0  0
  -13.3601   11.3292   33.2608 C   0  0  0  0  0  0  0  0  0  0  0  0
  -13.0278   12.3111   32.3005 C   0  0  0  0  0  0  0  0  0  0  0  0
   -9.6688   14.4574   31.7044 C   0  0  0  0  0  0  0  0  0  0  0  0
   -8.8775   15.7117   32.0375 C   0  0  0  0  0  0  0  0  0  0  0  0
   -8.7310   16.1884   33.2797 C   0  0  0  0  0  0  0  0  0  0  0  0
  1  6  2  0  0  0
  2  8  1  0  0  0
  3  9  1  0  0  0
  4  6  1  0  0  0
  4  7  1  0  0  0
  4 13  1  0  0  0
  5  6  1  0  0  0
  5 10  1  0  0  0
  5 30  1  0  0  0
  7  8  1  0  0  0
  7 16  1  0  0  0
  8  9  1  0  0  0
  9 10  1  0  0  0
 10 23  1  0  0  0
 13 14  1  0  0  0
 14 15  2  0  0  0
 16 17  1  0  0  0
 17 18  2  0  0  0
 17 22  1  0  0  0
 18 19  1  0  0  0
 19 20  2  0  0  0
 20 21  1  0  0  0
 21 22  2  0  0  0
 23 24  1  0  0  0
 24 25  2  0  0  0
 24 29  1  0  0  0
 25 26  1  0  0  0
 26 27  2  0  0  0
 27 28  1  0  0  0
 28 29  2  0  0  0
 30 31  1  0  0  0
 31 32  2  0  0  0
  2 11  1  0  0  0
  3 12  1  0  0  0
M  END
> <minimizedAffinity>
-7.87862

$$$$
1HWR_216_B_216


 32 34  0  0  0  0  0  0  0  0999 V2000
  -12.5838   14.5680   28.0956 O   0  0  0  0  0  0  0  0  0  0  0  0
   -9.3690   14.2247   32.6306 O   0  0  0  0  0  0  0  0  0  0  0  0
   -7.8968   16.0064   30.9499 O   0  0  0  0  0  0  0  0  0  0  0  0
  -11.5879   13.8221   29.8357 N   0  0  0  0  0  0  0  0  0  0  0  0
  -10.8669   15.8018   28.7950 N   0  0  0  0  0  0  0  0  0  0  0  0
  -11.6865   14.7337   28.8884 C   0  0  0  0  0  0  0  0  0  0  0  0
  -11.0616   14.0925   31.1796 C   0  0  0  0  0  0  0  0  0  0  0  0
   -9.5946   14.3682   31.2778 C   0  0  0  0  0  0  0  0  0  0  0  0
   -9.2512   15.7193   30.7655 C   0  0  0  0  0  0  0  0  0  0  0  0
   -9.4641   15.8091   29.2649 C   0  0  0  0  0  0  0  0  0  0  0  0
   -9.6107   13.3264   32.9052 H   0  0  0  0  0  0  0  0  0  0  0  0
   -7.6839   15.9676   31.8954 H   0  0  0  0  0  0  0  0  0  0  0  0
  -12.1807   12.5047   29.5951 C   0  0  0  0  0  0  0  0  0  0  0  0
  -13.5464   12.3879   30.2281 C   0  0  0  0  0  0  0  0  0  0  0  0
  -13.9668   11.2604   30.8110 C   0  0  0  0  0  0  0  0  0  0  0  0
  -11.9770   15.0674   31.9368 C   0  0  0  0  0  0  0  0  0  0  0  0
  -12.2279   14.6060   33.3447 C   0  0  0  0  0  0  0  0  0  0  0  0
  -12.7704   13.3226   33.5815 C   0  0  0  0  0  0  0  0  0  0  0  0
  -13.0220   12.8762   34.8982 C   0  0  0  0  0  0  0  0  0  0  0  0
  -12.7237   13.7044   35.9918 C   0  0  0  0  0  0  0  0  0  0  0  0
  -12.1685   14.9989   35.7527 C   0  0  0  0  0  0  0  0  0  0  0  0
  -11.9186   15.4573   34.4291 C   0  0  0  0  0  0  0  0  0  0  0  0
   -8.6149   14.8528   28.3707 C   0  0  0  0  0  0  0  0  0  0  0  0
   -8.0307   15.4772   27.1101 C   0  0  0  0  0  0  0  0  0  0  0  0
   -8.6899   15.2409   25.8789 C   0  0  0  0  0  0  0  0  0  0  0  0
   -8.2347   15.8309   24.6884 C   0  0  0  0  0  0  0  0  0  0  0  0
   -7.0994   16.6699   24.7555 C   0  0  0  0  0  0  0  0  0  0  0  0
   -6.4315   16.9145   25.9850 C   0  0  0  0  0  0  0  0  0  0  0  0
   -6.8880   16.3150   27.1803 C   0  0  0  0  0  0  0  0  0  0  0  0
  -11.2431   17.0491   28.1025 C   0  0  0  0  0  0  0  0  0  0  0  0
  -10.1501   18.1050   28.0755 C   0  0  0  0  0  0  0  0  0  0  0  0
   -9.7257   18.7051   26.9567 C   0  0  0  0  0  0  0  0  0  0  0  0
  1  6  2  0  0  0
  2  8  1  0  0  0
  3  9  1  0  0  0
  4  6  1  0  0  0
  4  7  1  0  0  0
  4 13  1  0  0  0
  5  6  1  0  0  0
  5 10  1  0  0  0
  5 30  1  0  0  0
  7  8  1  0  0  0
  7 16  1  0  0  0
  8  9  1  0  0  0
  9 10  1  0  0  0
 10 23  1  0  0  0
 13 14  1  0  0  0
 14 15  2  0  0  0
 16 17  1  0  0  0
 17 18  2  0  0  0
 17 22  1  0  0  0
 18 19  1  0  0  0
 19 20  2  0  0  0
 20 21  1  0  0  0
 21 22  2  0  0  0
 23 24  1  0  0  0
 24 25  2  0  0  0
 24 29  1  0  0  0
 25 26  1  0  0  0
 26 27  2  0  0  0
 27 28  1  0  0  0
 28 29  2  0  0  0
 30 31  1  0  0  0
 31 32  2  0  0  0
  2 11  1  0  0  0
  3 12  1  0  0  0
M  END
> <minimizedAffinity>
-7.79124

$$$$
1HWR_216_B_216


 32 34  0  0  0  0  0  0  0  0999 V2000
   -7.8558   14.3980   26.9879 O   0  0  0  0  0  0  0  0  0  0  0  0
  -11.5551   18.2134   28.6540 O   0  0  0  0  0  0  0  0  0  0  0  0
   -9.5841   18.3042   30.7213 O   0  0  0  0  0  0  0  0  0  0  0  0
   -9.6913   15.4373   27.3440 N   0  0  0  0  0  0  0  0  0  0  0  0
   -7.7408   16.0051   28.5251 N   0  0  0  0  0  0  0  0  0  0  0  0
   -8.4134   15.2653   27.6187 C   0  0  0  0  0  0  0  0  0  0  0  0
  -10.3887   16.7235   27.4677 C   0  0  0  0  0  0  0  0  0  0  0  0
  -10.6084   17.2316   28.8574 C   0  0  0  0  0  0  0  0  0  0  0  0
   -9.3527   17.7435   29.4632 C   0  0  0  0  0  0  0  0  0  0  0  0
   -8.3661   16.6178   29.7176 C   0  0  0  0  0  0  0  0  0  0  0  0
  -12.3487   17.8203   28.2583 H   0  0  0  0  0  0  0  0  0  0  0  0
  -10.2123   19.0385   30.6374 H   0  0  0  0  0  0  0  0  0  0  0  0
  -10.4241   14.3282   26.7294 C   0  0  0  0  0  0  0  0  0  0  0  0
  -11.5631   13.8640   27.6052 C   0  0  0  0  0  0  0  0  0  0  0  0
  -11.3797   13.5025   28.8794 C   0  0  0  0  0  0  0  0  0  0  0  0
   -9.8306   17.7442   26.4634 C   0  0  0  0  0  0  0  0  0  0  0  0
   -9.5426   17.1069   25.1334 C   0  0  0  0  0  0  0  0  0  0  0  0
  -10.5663   16.4198   24.4426 C   0  0  0  0  0  0  0  0  0  0  0  0
  -10.3108   15.8063   23.1959 C   0  0  0  0  0  0  0  0  0  0  0  0
   -9.0317   15.8827   22.6222 C   0  0  0  0  0  0  0  0  0  0  0  0
   -7.9987   16.5835   23.3171 C   0  0  0  0  0  0  0  0  0  0  0  0
   -8.2474   17.1982   24.5759 C   0  0  0  0  0  0  0  0  0  0  0  0
   -8.8140   15.4926   30.7017 C   0  0  0  0  0  0  0  0  0  0  0  0
   -9.1995   15.9570   32.1003 C   0  0  0  0  0  0  0  0  0  0  0  0
  -10.4829   15.6121   32.5900 C   0  0  0  0  0  0  0  0  0  0  0  0
  -10.8803   15.9624   33.8907 C   0  0  0  0  0  0  0  0  0  0  0  0
   -9.9600   16.6684   34.6983 C   0  0  0  0  0  0  0  0  0  0  0  0
   -8.6701   17.0183   34.2175 C   0  0  0  0  0  0  0  0  0  0  0  0
   -8.2749   16.6698   32.9064 C   0  0  0  0  0  0  0  0  0  0  0  0
   -6.2770   16.1867   28.4916 C   0  0  0  0  0  0  0  0  0  0  0  0
   -5.7948   17.2019   27.4683 C   0  0  0  0  0  0  0  0  0  0  0  0
   -6.2062   18.4753   27.4357 C   0  0  0  0  0  0  0  0  0  0  0  0
  1  6  2  0  0  0
  2  8  1  0  0  0
  3  9  1  0  0  0
  4  6  1  0  0  0
  4  7  1  0  0  0
  4 13  1  0  0  0
  5  6  1  0  0  0
  5 10  1  0  0  0
  5 30  1  0  0  0
  7  8  1  0  0  0
  7 16  1  0  0  0
  8  9  1  0  0  0
  9 10  1  0  0  0
 10 23  1  0  0  0
 13 14  1  0  0  0
 14 15  2  0  0  0
 16 17  1  0  0  0
 17 18  2  0  0  0
 17 22  1  0  0  0
 18 19  1  0  0  0
 19 20  2  0  0  0
 20 21  1  0  0  0
 21 22  2  0  0  0
 23 24  1  0  0  0
 24 25  2  0  0  0
 24 29  1  0  0  0
 25 26  1  0  0  0
 26 27  2  0  0  0
 27 28  1  0  0  0
 28 29  2  0  0  0
 30 31  1  0  0  0
 31 32  2  0  0  0
  2 11  1  0  0  0
  3 12  1  0  0  0
M  END
> <minimizedAffinity>
-7.54416

$$$$
1HWR_216_B_216


 32 34  0  0  0  0  0  0  0  0999 V2000
   -7.0838   17.9303   27.8716 O   0  0  0  0  0  0  0  0  0  0  0  0
   -8.0373   15.5788   22.9138 O   0  0  0  0  0  0  0  0  0  0  0  0
  -10.6012   15.4582   24.1702 O   0  0  0  0  0  0  0  0  0  0  0  0
   -6.8318   16.8196   26.0608 N   0  0  0  0  0  0  0  0  0  0  0  0
   -8.9732   17.4491   26.7956 N   0  0  0  0  0  0  0  0  0  0  0  0
   -7.6311   17.4055   26.9302 C   0  0  0  0  0  0  0  0  0  0  0  0
   -7.1356   16.6869   24.6304 C   0  0  0  0  0  0  0  0  0  0  0  0
   -8.2384   15.7434   24.2681 C   0  0  0  0  0  0  0  0  0  0  0  0
   -9.5742   16.3017   24.5996 C   0  0  0  0  0  0  0  0  0  0  0  0
   -9.7670   16.4114   26.1016 C   0  0  0  0  0  0  0  0  0  0  0  0
   -7.1522   15.2129   22.7604 H   0  0  0  0  0  0  0  0  0  0  0  0
  -10.5420   15.3399   23.2093 H   0  0  0  0  0  0  0  0  0  0  0  0
   -5.4959   16.4185   26.5074 C   0  0  0  0  0  0  0  0  0  0  0  0
   -4.4166   17.1979   25.7952 C   0  0  0  0  0  0  0  0  0  0  0  0
   -3.4290   16.5961   25.1241 C   0  0  0  0  0  0  0  0  0  0  0  0
   -7.1872   18.0662   23.9545 C   0  0  0  0  0  0  0  0  0  0  0  0
   -5.9633   18.3159   23.1192 C   0  0  0  0  0  0  0  0  0  0  0  0
   -5.6134   17.4120   22.0905 C   0  0  0  0  0  0  0  0  0  0  0  0
   -4.4609   17.6258   21.3019 C   0  0  0  0  0  0  0  0  0  0  0  0
   -3.6524   18.7513   21.5267 C   0  0  0  0  0  0  0  0  0  0  0  0
   -4.0101   19.6689   22.5617 C   0  0  0  0  0  0  0  0  0  0  0  0
   -5.1658   19.4563   23.3639 C   0  0  0  0  0  0  0  0  0  0  0  0
   -9.7121   15.0847   26.9214 C   0  0  0  0  0  0  0  0  0  0  0  0
  -10.9247   14.8036   27.7994 C   0  0  0  0  0  0  0  0  0  0  0  0
  -10.7559   13.9575   28.9226 C   0  0  0  0  0  0  0  0  0  0  0  0
  -11.8198   13.7012   29.8030 C   0  0  0  0  0  0  0  0  0  0  0  0
  -13.0647   14.3145   29.5359 C   0  0  0  0  0  0  0  0  0  0  0  0
  -13.2446   15.1655   28.4129 C   0  0  0  0  0  0  0  0  0  0  0  0
  -12.1742   15.4171   27.5255 C   0  0  0  0  0  0  0  0  0  0  0  0
   -9.8147   18.4806   27.4320 C   0  0  0  0  0  0  0  0  0  0  0  0
  -10.5279   18.0177   28.6918 C   0  0  0  0  0  0  0  0  0  0  0  0
   -9.8922   17.6156   29.7991 C   0  0  0  0  0  0  0  0  0  0  0  0
  1  6  2  0  0  0
  2  8  1  0  0  0
  3  9  1  0  0  0
  4  6  1  0  0  0
  4  7  1  0  0  0
  4 13  1  0  0  0
  5  6  1  0  0  0
  5 10  1  0  0  0
  5 30  1  0  0  0
  7  8  1  0  0  0
  7 16  1  0  0  0
  8  9  1  0  0  0
  9 10  1  0  0  0
 10 23  1  0  0  0
 13 14  1  0  0  0
 14 15  2  0  0  0
 16 17  1  0  0  0
 17 18  2  0  0  0
 17 22  1  0  0  0
 18 19  1  0  0  0
 19 20  2  0  0  0
 20 21  1  0  0  0
 21 22  2  0  0  0
 23 24  1  0  0  0
 24 25  2  0  0  0
 24 29  1  0  0  0
 25 26  1  0  0  0
 26 27  2  0  0  0
 27 28  1  0  0  0
 28 29  2  0  0  0
 30 31  1  0  0  0
 31 32  2  0  0  0
  2 11  1  0  0  0
  3 12  1  0  0  0
M  END
> <minimizedAffinity>
-7.00168

$$$$
