4HF4_15H_A_1012


 34 38  0  0  0  0  0  0  0  0999 V2000
   14.7701   88.0487   42.7943 C   0  0  0  0  0  0  0  0  0  0  0  0
   15.7369   88.4793   41.8851 C   0  0  0  0  0  0  0  0  0  0  0  0
   15.3714   88.8871   40.6028 C   0  0  0  0  0  0  0  0  0  0  0  0
   13.4271   88.0341   42.4062 C   0  0  0  0  0  0  0  0  0  0  0  0
   13.0575   88.4400   41.1247 C   0  0  0  0  0  0  0  0  0  0  0  0
   14.0310   88.8715   40.2212 C   0  0  0  0  0  0  0  0  0  0  0  0
   15.1818   87.6741   44.0144 N   0  0  0  0  0  0  0  0  0  0  0  0
   14.5315   87.1799   44.5640 H   0  0  0  0  0  0  0  0  0  0  0  0
   17.5582   88.0051   43.9366 N   0  0  0  0  0  0  0  0  0  0  0  0
   18.6260   88.2213   44.7399 C   0  0  0  0  0  0  0  0  0  0  0  0
   19.9659   88.3813   44.3799 C   0  0  0  0  0  0  0  0  0  0  0  0
   20.9489   88.5980   45.3465 C   0  0  0  0  0  0  0  0  0  0  0  0
   20.6024   88.6620   46.6961 C   0  0  0  0  0  0  0  0  0  0  0  0
   19.2719   88.5055   47.0773 C   0  0  0  0  0  0  0  0  0  0  0  0
   18.2930   88.2876   46.1069 C   0  0  0  0  0  0  0  0  0  0  0  0
   16.6306   88.0640   46.2160 S   0  0  0  0  0  0  0  0  0  0  0  0
   16.3797   87.8984   44.5664 C   0  0  0  0  0  0  0  0  0  0  0  0
   13.6732   89.2687   38.9647 O   0  0  0  0  0  0  0  0  0  0  0  0
   13.2219   88.2538   38.1681 C   0  0  0  0  0  0  0  0  0  0  0  0
   13.9119   87.0996   38.0809 N   0  0  0  0  0  0  0  0  0  0  0  0
   13.4889   86.1094   37.3123 C   0  0  0  0  0  0  0  0  0  0  0  0
   12.3161   86.2578   36.5775 C   0  0  0  0  0  0  0  0  0  0  0  0
   11.6266   87.3841   36.6513 N   0  0  0  0  0  0  0  0  0  0  0  0
   12.0419   88.3970   37.4303 C   0  0  0  0  0  0  0  0  0  0  0  0
   11.2719   89.5737   37.4626 N   0  0  0  0  0  0  0  0  0  0  0  0
   10.2550   89.7837   38.5464 C   0  0  0  0  0  0  0  0  0  0  0  0
    9.9691   91.2756   38.8243 C   0  0  0  0  0  0  0  0  0  0  0  0
   11.4585   90.5368   36.3368 C   0  0  0  0  0  0  0  0  0  0  0  0
   11.2205   91.9814   36.7835 C   0  0  0  0  0  0  0  0  0  0  0  0
    9.8816   92.0920   37.5195 C   0  0  0  0  0  0  0  0  0  0  0  0
    9.4514   93.5631   37.7140 C   0  0  0  0  0  0  0  0  0  0  0  0
    9.2385   93.9501   39.1845 C   0  0  0  0  0  0  0  0  0  0  0  0
    8.2756   93.8243   36.9337 O   0  0  0  0  0  0  0  0  0  0  0  0
    7.5482   93.2647   37.2477 H   0  0  0  0  0  0  0  0  0  0  0  0
 28 29  1  0  0  0
 28 25  1  0  0  0
 29 30  1  0  0  0
 22 23  2  0  0  0
 22 21  1  0  0  0
 23 24  1  0  0  0
 30 31  1  0  0  0
 30 27  1  0  0  0
 31 33  1  0  0  0
 31 32  1  0  0  0
 25 24  1  0  0  0
 25 26  1  0  0  0
 24 19  2  0  0  0
 21 20  2  0  0  0
 20 19  1  0  0  0
 19 18  1  0  0  0
 26 27  1  0  0  0
 18  6  1  0  0  0
  6  5  2  0  0  0
  6  3  1  0  0  0
  5  4  1  0  0  0
  3  2  2  0  0  0
  4  1  2  0  0  0
  2  1  1  0  0  0
  1  7  1  0  0  0
  9 17  2  0  0  0
  9 10  1  0  0  0
  7 17  1  0  0  0
 11 10  2  0  0  0
 11 12  1  0  0  0
 17 16  1  0  0  0
 10 15  1  0  0  0
 12 13  2  0  0  0
 15 16  1  0  0  0
 15 14  2  0  0  0
 13 14  1  0  0  0
  7  8  1  0  0  0
 33 34  1  0  0  0
M  END
> <minimizedAffinity>
-10.91457

$$$$
4HF4_15H_A_1012


 34 38  0  0  0  0  0  0  0  0999 V2000
    8.5794   91.1236   36.1108 C   0  0  0  0  0  0  0  0  0  0  0  0
    8.2284   90.8229   37.4274 C   0  0  0  0  0  0  0  0  0  0  0  0
    7.4523   91.7090   38.1733 C   0  0  0  0  0  0  0  0  0  0  0  0
    8.1402   92.3241   35.5449 C   0  0  0  0  0  0  0  0  0  0  0  0
    7.3649   93.2134   36.2876 C   0  0  0  0  0  0  0  0  0  0  0  0
    7.0162   92.9042   37.6041 C   0  0  0  0  0  0  0  0  0  0  0  0
    9.3227   90.2298   35.4421 N   0  0  0  0  0  0  0  0  0  0  0  0
    9.1877   90.1888   34.4678 H   0  0  0  0  0  0  0  0  0  0  0  0
   11.0564   89.6125   36.9836 N   0  0  0  0  0  0  0  0  0  0  0  0
   11.8874   88.5893   37.2912 C   0  0  0  0  0  0  0  0  0  0  0  0
   12.8460   88.5231   38.3047 C   0  0  0  0  0  0  0  0  0  0  0  0
   13.6255   87.3794   38.4831 C   0  0  0  0  0  0  0  0  0  0  0  0
   13.4532   86.2764   37.6468 C   0  0  0  0  0  0  0  0  0  0  0  0
   12.5025   86.3209   36.6298 C   0  0  0  0  0  0  0  0  0  0  0  0
   11.7266   87.4675   36.4547 C   0  0  0  0  0  0  0  0  0  0  0  0
   10.5151   87.8490   35.3536 S   0  0  0  0  0  0  0  0  0  0  0  0
   10.2277   89.3879   35.9542 C   0  0  0  0  0  0  0  0  0  0  0  0
    6.2580   93.7731   38.3354 O   0  0  0  0  0  0  0  0  0  0  0  0
    6.6773   95.0721   38.2649 C   0  0  0  0  0  0  0  0  0  0  0  0
    6.1397   95.9120   37.3585 N   0  0  0  0  0  0  0  0  0  0  0  0
    6.5371   97.1712   37.2767 C   0  0  0  0  0  0  0  0  0  0  0  0
    7.5278   97.6400   38.1347 C   0  0  0  0  0  0  0  0  0  0  0  0
    8.0663   96.8292   39.0301 N   0  0  0  0  0  0  0  0  0  0  0  0
    7.6703   95.5489   39.1273 C   0  0  0  0  0  0  0  0  0  0  0  0
    8.2846   94.7314   40.0931 N   0  0  0  0  0  0  0  0  0  0  0  0
    7.5877   94.4360   41.3892 C   0  0  0  0  0  0  0  0  0  0  0  0
    8.0426   93.1063   42.0292 C   0  0  0  0  0  0  0  0  0  0  0  0
    9.6701   94.2584   39.7985 C   0  0  0  0  0  0  0  0  0  0  0  0
    9.9471   92.8920   40.4304 C   0  0  0  0  0  0  0  0  0  0  0  0
    9.5674   92.9106   41.9144 C   0  0  0  0  0  0  0  0  0  0  0  0
   10.1108   91.6732   42.6631 C   0  0  0  0  0  0  0  0  0  0  0  0
   10.5297   90.5275   41.7307 C   0  0  0  0  0  0  0  0  0  0  0  0
    9.1402   91.2314   43.6236 O   0  0  0  0  0  0  0  0  0  0  0  0
    8.3303   90.9605   43.1636 H   0  0  0  0  0  0  0  0  0  0  0  0
 28 29  1  0  0  0
 28 25  1  0  0  0
 29 30  1  0  0  0
 22 23  2  0  0  0
 22 21  1  0  0  0
 23 24  1  0  0  0
 30 31  1  0  0  0
 30 27  1  0  0  0
 31 33  1  0  0  0
 31 32  1  0  0  0
 25 24  1  0  0  0
 25 26  1  0  0  0
 24 19  2  0  0  0
 21 20  2  0  0  0
 20 19  1  0  0  0
 19 18  1  0  0  0
 26 27  1  0  0  0
 18  6  1  0  0  0
  6  5  2  0  0  0
  6  3  1  0  0  0
  5  4  1  0  0  0
  3  2  2  0  0  0
  4  1  2  0  0  0
  2  1  1  0  0  0
  1  7  1  0  0  0
  9 17  2  0  0  0
  9 10  1  0  0  0
  7 17  1  0  0  0
 11 10  2  0  0  0
 11 12  1  0  0  0
 17 16  1  0  0  0
 10 15  1  0  0  0
 12 13  2  0  0  0
 15 16  1  0  0  0
 15 14  2  0  0  0
 13 14  1  0  0  0
  7  8  1  0  0  0
 33 34  1  0  0  0
M  END
> <minimizedAffinity>
-9.56490

$$$$
4HF4_15H_A_1012


 34 38  0  0  0  0  0  0  0  0999 V2000
    8.1778   91.4336   36.1550 C   0  0  0  0  0  0  0  0  0  0  0  0
    7.9879   92.7179   35.6436 C   0  0  0  0  0  0  0  0  0  0  0  0
    7.1720   93.6318   36.3093 C   0  0  0  0  0  0  0  0  0  0  0  0
    7.5428   91.0734   37.3472 C   0  0  0  0  0  0  0  0  0  0  0  0
    6.7253   91.9838   38.0155 C   0  0  0  0  0  0  0  0  0  0  0  0
    6.5419   93.2679   37.4981 C   0  0  0  0  0  0  0  0  0  0  0  0
    8.9780   90.6010   35.4732 N   0  0  0  0  0  0  0  0  0  0  0  0
    8.8435   90.5638   34.4986 H   0  0  0  0  0  0  0  0  0  0  0  0
   10.2459   88.5662   35.5951 N   0  0  0  0  0  0  0  0  0  0  0  0
   11.2613   87.9884   36.2787 C   0  0  0  0  0  0  0  0  0  0  0  0
   11.8072   86.7139   36.1110 C   0  0  0  0  0  0  0  0  0  0  0  0
   12.8621   86.2729   36.9111 C   0  0  0  0  0  0  0  0  0  0  0  0
   13.3923   87.1080   37.8946 C   0  0  0  0  0  0  0  0  0  0  0  0
   12.8631   88.3832   38.0787 C   0  0  0  0  0  0  0  0  0  0  0  0
   11.8073   88.8188   37.2769 C   0  0  0  0  0  0  0  0  0  0  0  0
   10.9521   90.2652   37.2305 S   0  0  0  0  0  0  0  0  0  0  0  0
    9.9390   89.8154   35.9724 C   0  0  0  0  0  0  0  0  0  0  0  0
    5.7411   94.1621   38.1490 O   0  0  0  0  0  0  0  0  0  0  0  0
    6.2956   95.4031   38.2927 C   0  0  0  0  0  0  0  0  0  0  0  0
    6.2834   96.2763   37.2664 N   0  0  0  0  0  0  0  0  0  0  0  0
    6.8183   97.4800   37.3897 C   0  0  0  0  0  0  0  0  0  0  0  0
    7.4074   97.8542   38.5940 C   0  0  0  0  0  0  0  0  0  0  0  0
    7.4282   97.0094   39.6114 N   0  0  0  0  0  0  0  0  0  0  0  0
    6.8858   95.7849   39.5022 C   0  0  0  0  0  0  0  0  0  0  0  0
    6.9449   94.9267   40.6151 N   0  0  0  0  0  0  0  0  0  0  0  0
    8.1058   93.9915   40.7893 C   0  0  0  0  0  0  0  0  0  0  0  0
    8.3560   93.6089   42.2644 C   0  0  0  0  0  0  0  0  0  0  0  0
    5.7744   94.9377   41.5423 C   0  0  0  0  0  0  0  0  0  0  0  0
    6.1901   94.6209   42.9810 C   0  0  0  0  0  0  0  0  0  0  0  0
    7.0366   93.3446   43.0165 C   0  0  0  0  0  0  0  0  0  0  0  0
    7.2172   92.8135   44.4560 C   0  0  0  0  0  0  0  0  0  0  0  0
    5.9400   92.2003   45.0479 C   0  0  0  0  0  0  0  0  0  0  0  0
    7.7239   93.8636   45.2928 O   0  0  0  0  0  0  0  0  0  0  0  0
    7.0796   94.5878   45.3287 H   0  0  0  0  0  0  0  0  0  0  0  0
 28 29  1  0  0  0
 28 25  1  0  0  0
 29 30  1  0  0  0
 22 23  2  0  0  0
 22 21  1  0  0  0
 23 24  1  0  0  0
 30 31  1  0  0  0
 30 27  1  0  0  0
 31 33  1  0  0  0
 31 32  1  0  0  0
 25 24  1  0  0  0
 25 26  1  0  0  0
 24 19  2  0  0  0
 21 20  2  0  0  0
 20 19  1  0  0  0
 19 18  1  0  0  0
 26 27  1  0  0  0
 18  6  1  0  0  0
  6  5  2  0  0  0
  6  3  1  0  0  0
  5  4  1  0  0  0
  3  2  2  0  0  0
  4  1  2  0  0  0
  2  1  1  0  0  0
  1  7  1  0  0  0
  9 17  2  0  0  0
  9 10  1  0  0  0
  7 17  1  0  0  0
 11 10  2  0  0  0
 11 12  1  0  0  0
 17 16  1  0  0  0
 10 15  1  0  0  0
 12 13  2  0  0  0
 15 16  1  0  0  0
 15 14  2  0  0  0
 13 14  1  0  0  0
  7  8  1  0  0  0
 33 34  1  0  0  0
M  END
> <minimizedAffinity>
-9.43484

$$$$
4HF4_15H_A_1012


 34 38  0  0  0  0  0  0  0  0999 V2000
    8.2298   95.7055   39.5643 C   0  0  0  0  0  0  0  0  0  0  0  0
    7.7184   94.4103   39.4751 C   0  0  0  0  0  0  0  0  0  0  0  0
    8.4532   93.4000   38.8560 C   0  0  0  0  0  0  0  0  0  0  0  0
    9.4917   95.9792   39.0285 C   0  0  0  0  0  0  0  0  0  0  0  0
   10.2292   94.9721   38.4077 C   0  0  0  0  0  0  0  0  0  0  0  0
    9.7113   93.6778   38.3242 C   0  0  0  0  0  0  0  0  0  0  0  0
    7.4792   96.6334   40.1760 N   0  0  0  0  0  0  0  0  0  0  0  0
    7.1570   97.3759   39.6155 H   0  0  0  0  0  0  0  0  0  0  0  0
    5.9910   97.1627   41.9838 N   0  0  0  0  0  0  0  0  0  0  0  0
    5.8834   97.0731   43.3301 C   0  0  0  0  0  0  0  0  0  0  0  0
    4.8332   97.4960   44.1479 C   0  0  0  0  0  0  0  0  0  0  0  0
    4.8865   97.3255   45.5319 C   0  0  0  0  0  0  0  0  0  0  0  0
    5.9971   96.7214   46.1213 C   0  0  0  0  0  0  0  0  0  0  0  0
    7.0556   96.2918   45.3243 C   0  0  0  0  0  0  0  0  0  0  0  0
    6.9980   96.4661   43.9410 C   0  0  0  0  0  0  0  0  0  0  0  0
    8.0740   96.0712   42.7114 S   0  0  0  0  0  0  0  0  0  0  0  0
    7.1202   96.6605   41.4646 C   0  0  0  0  0  0  0  0  0  0  0  0
   10.4300   92.6889   37.7159 O   0  0  0  0  0  0  0  0  0  0  0  0
    9.7538   92.0429   36.7190 C   0  0  0  0  0  0  0  0  0  0  0  0
    8.9657   92.7348   35.8729 N   0  0  0  0  0  0  0  0  0  0  0  0
    8.3031   92.1231   34.9049 C   0  0  0  0  0  0  0  0  0  0  0  0
    8.4150   90.7437   34.7558 C   0  0  0  0  0  0  0  0  0  0  0  0
    9.1841   90.0492   35.5777 N   0  0  0  0  0  0  0  0  0  0  0  0
    9.8658   90.6572   36.5632 C   0  0  0  0  0  0  0  0  0  0  0  0
   10.6615   89.8660   37.4113 N   0  0  0  0  0  0  0  0  0  0  0  0
   11.8315   89.1048   36.8595 C   0  0  0  0  0  0  0  0  0  0  0  0
   12.9226   88.8266   37.9163 C   0  0  0  0  0  0  0  0  0  0  0  0
   10.2339   89.7610   38.8383 C   0  0  0  0  0  0  0  0  0  0  0  0
   11.4300   89.5686   39.7739 C   0  0  0  0  0  0  0  0  0  0  0  0
   12.3125   88.4211   39.2727 C   0  0  0  0  0  0  0  0  0  0  0  0
   13.3472   87.9849   40.3338 C   0  0  0  0  0  0  0  0  0  0  0  0
   13.1035   88.6029   41.7180 C   0  0  0  0  0  0  0  0  0  0  0  0
   14.6699   88.2786   39.8605 O   0  0  0  0  0  0  0  0  0  0  0  0
   14.7644   89.2362   39.7386 H   0  0  0  0  0  0  0  0  0  0  0  0
 28 29  1  0  0  0
 28 25  1  0  0  0
 29 30  1  0  0  0
 22 23  2  0  0  0
 22 21  1  0  0  0
 23 24  1  0  0  0
 30 31  1  0  0  0
 30 27  1  0  0  0
 31 33  1  0  0  0
 31 32  1  0  0  0
 25 24  1  0  0  0
 25 26  1  0  0  0
 24 19  2  0  0  0
 21 20  2  0  0  0
 20 19  1  0  0  0
 19 18  1  0  0  0
 26 27  1  0  0  0
 18  6  1  0  0  0
  6  5  2  0  0  0
  6  3  1  0  0  0
  5  4  1  0  0  0
  3  2  2  0  0  0
  4  1  2  0  0  0
  2  1  1  0  0  0
  1  7  1  0  0  0
  9 17  2  0  0  0
  9 10  1  0  0  0
  7 17  1  0  0  0
 11 10  2  0  0  0
 11 12  1  0  0  0
 17 16  1  0  0  0
 10 15  1  0  0  0
 12 13  2  0  0  0
 15 16  1  0  0  0
 15 14  2  0  0  0
 13 14  1  0  0  0
  7  8  1  0  0  0
 33 34  1  0  0  0
M  END
> <minimizedAffinity>
-9.33964

$$$$
4HF4_15H_A_1012


 34 38  0  0  0  0  0  0  0  0999 V2000
    8.9373   91.5889   36.6270 C   0  0  0  0  0  0  0  0  0  0  0  0
    7.5721   91.3095   36.6980 C   0  0  0  0  0  0  0  0  0  0  0  0
    6.7285   92.0945   37.4829 C   0  0  0  0  0  0  0  0  0  0  0  0
    9.4510   92.6695   37.3500 C   0  0  0  0  0  0  0  0  0  0  0  0
    8.6111   93.4563   38.1369 C   0  0  0  0  0  0  0  0  0  0  0  0
    7.2455   93.1713   38.2012 C   0  0  0  0  0  0  0  0  0  0  0  0
    9.6971   90.8020   35.8511 N   0  0  0  0  0  0  0  0  0  0  0  0
    9.6694   90.9821   34.8836 H   0  0  0  0  0  0  0  0  0  0  0  0
   11.3378   89.7948   37.2851 N   0  0  0  0  0  0  0  0  0  0  0  0
   12.0335   88.6467   37.4587 C   0  0  0  0  0  0  0  0  0  0  0  0
   12.9750   88.3417   38.4440 C   0  0  0  0  0  0  0  0  0  0  0  0
   13.6046   87.0967   38.4758 C   0  0  0  0  0  0  0  0  0  0  0  0
   13.2962   86.1309   37.5178 C   0  0  0  0  0  0  0  0  0  0  0  0
   12.3599   86.4139   36.5262 C   0  0  0  0  0  0  0  0  0  0  0  0
   11.7342   87.6609   36.4981 C   0  0  0  0  0  0  0  0  0  0  0  0
   10.5815   88.3185   35.4664 S   0  0  0  0  0  0  0  0  0  0  0  0
   10.4887   89.7990   36.2479 C   0  0  0  0  0  0  0  0  0  0  0  0
    6.4198   93.9388   38.9717 O   0  0  0  0  0  0  0  0  0  0  0  0
    6.6952   95.2766   38.9196 C   0  0  0  0  0  0  0  0  0  0  0  0
    6.6630   95.9322   37.7428 N   0  0  0  0  0  0  0  0  0  0  0  0
    6.9297   97.2263   37.6764 C   0  0  0  0  0  0  0  0  0  0  0  0
    7.2527   97.9254   38.8358 C   0  0  0  0  0  0  0  0  0  0  0  0
    7.2891   97.2974   39.9992 N   0  0  0  0  0  0  0  0  0  0  0  0
    7.0171   95.9842   40.0827 C   0  0  0  0  0  0  0  0  0  0  0  0
    7.0792   95.3684   41.3458 N   0  0  0  0  0  0  0  0  0  0  0  0
    5.9038   95.4305   42.2771 C   0  0  0  0  0  0  0  0  0  0  0  0
    5.8637   94.2542   43.2769 C   0  0  0  0  0  0  0  0  0  0  0  0
    8.3785   94.7410   41.7306 C   0  0  0  0  0  0  0  0  0  0  0  0
    8.1736   93.5402   42.6575 C   0  0  0  0  0  0  0  0  0  0  0  0
    7.2654   93.9271   43.8289 C   0  0  0  0  0  0  0  0  0  0  0  0
    7.2791   92.8590   44.9452 C   0  0  0  0  0  0  0  0  0  0  0  0
    7.8460   91.5060   44.4919 C   0  0  0  0  0  0  0  0  0  0  0  0
    5.9567   92.7130   45.4832 O   0  0  0  0  0  0  0  0  0  0  0  0
    5.3576   92.3993   44.7878 H   0  0  0  0  0  0  0  0  0  0  0  0
 28 29  1  0  0  0
 28 25  1  0  0  0
 29 30  1  0  0  0
 22 23  2  0  0  0
 22 21  1  0  0  0
 23 24  1  0  0  0
 30 31  1  0  0  0
 30 27  1  0  0  0
 31 33  1  0  0  0
 31 32  1  0  0  0
 25 24  1  0  0  0
 25 26  1  0  0  0
 24 19  2  0  0  0
 21 20  2  0  0  0
 20 19  1  0  0  0
 19 18  1  0  0  0
 26 27  1  0  0  0
 18  6  1  0  0  0
  6  5  2  0  0  0
  6  3  1  0  0  0
  5  4  1  0  0  0
  3  2  2  0  0  0
  4  1  2  0  0  0
  2  1  1  0  0  0
  1  7  1  0  0  0
  9 17  2  0  0  0
  9 10  1  0  0  0
  7 17  1  0  0  0
 11 10  2  0  0  0
 11 12  1  0  0  0
 17 16  1  0  0  0
 10 15  1  0  0  0
 12 13  2  0  0  0
 15 16  1  0  0  0
 15 14  2  0  0  0
 13 14  1  0  0  0
  7  8  1  0  0  0
 33 34  1  0  0  0
M  END
> <minimizedAffinity>
-9.21634

$$$$
4HF4_15H_A_1012


 34 38  0  0  0  0  0  0  0  0999 V2000
   10.1907   91.7386   42.3342 C   0  0  0  0  0  0  0  0  0  0  0  0
    9.3806   91.6289   43.4650 C   0  0  0  0  0  0  0  0  0  0  0  0
    8.2356   92.4139   43.5948 C   0  0  0  0  0  0  0  0  0  0  0  0
    9.8390   92.6436   41.3283 C   0  0  0  0  0  0  0  0  0  0  0  0
    8.6955   93.4312   41.4547 C   0  0  0  0  0  0  0  0  0  0  0  0
    7.8889   93.3140   42.5886 C   0  0  0  0  0  0  0  0  0  0  0  0
   11.2755   90.9534   42.2635 N   0  0  0  0  0  0  0  0  0  0  0  0
   11.8818   90.9726   43.0389 H   0  0  0  0  0  0  0  0  0  0  0  0
   11.0401   90.0502   40.0518 N   0  0  0  0  0  0  0  0  0  0  0  0
   11.5874   89.1382   39.2146 C   0  0  0  0  0  0  0  0  0  0  0  0
   11.2076   88.8191   37.9091 C   0  0  0  0  0  0  0  0  0  0  0  0
   11.8879   87.8420   37.1811 C   0  0  0  0  0  0  0  0  0  0  0  0
   12.9679   87.1682   37.7514 C   0  0  0  0  0  0  0  0  0  0  0  0
   13.3638   87.4710   39.0521 C   0  0  0  0  0  0  0  0  0  0  0  0
   12.6792   88.4479   39.7763 C   0  0  0  0  0  0  0  0  0  0  0  0
   12.8889   89.0489   41.3320 S   0  0  0  0  0  0  0  0  0  0  0  0
   11.6241   90.1469   41.2545 C   0  0  0  0  0  0  0  0  0  0  0  0
    6.7689   94.0844   42.7167 O   0  0  0  0  0  0  0  0  0  0  0  0
    7.0036   95.3234   43.2439 C   0  0  0  0  0  0  0  0  0  0  0  0
    7.1559   95.4788   44.5738 N   0  0  0  0  0  0  0  0  0  0  0  0
    7.3811   96.6720   45.0989 C   0  0  0  0  0  0  0  0  0  0  0  0
    7.4590   97.7878   44.2705 C   0  0  0  0  0  0  0  0  0  0  0  0
    7.3118   97.6532   42.9630 N   0  0  0  0  0  0  0  0  0  0  0  0
    7.0861   96.4473   42.4150 C   0  0  0  0  0  0  0  0  0  0  0  0
    6.9296   96.3667   41.0195 N   0  0  0  0  0  0  0  0  0  0  0  0
    8.0603   96.7445   40.1076 C   0  0  0  0  0  0  0  0  0  0  0  0
    7.9879   96.0422   38.7342 C   0  0  0  0  0  0  0  0  0  0  0  0
    5.5810   95.9771   40.5102 C   0  0  0  0  0  0  0  0  0  0  0  0
    5.6751   95.2191   39.1838 C   0  0  0  0  0  0  0  0  0  0  0  0
    6.5455   95.9974   38.1921 C   0  0  0  0  0  0  0  0  0  0  0  0
    6.4197   95.4414   36.7561 C   0  0  0  0  0  0  0  0  0  0  0  0
    6.8439   93.9713   36.6286 C   0  0  0  0  0  0  0  0  0  0  0  0
    7.1618   96.2752   35.8541 O   0  0  0  0  0  0  0  0  0  0  0  0
    8.1017   96.2536   36.0930 H   0  0  0  0  0  0  0  0  0  0  0  0
 28 29  1  0  0  0
 28 25  1  0  0  0
 29 30  1  0  0  0
 22 23  2  0  0  0
 22 21  1  0  0  0
 23 24  1  0  0  0
 30 31  1  0  0  0
 30 27  1  0  0  0
 31 33  1  0  0  0
 31 32  1  0  0  0
 25 24  1  0  0  0
 25 26  1  0  0  0
 24 19  2  0  0  0
 21 20  2  0  0  0
 20 19  1  0  0  0
 19 18  1  0  0  0
 26 27  1  0  0  0
 18  6  1  0  0  0
  6  5  2  0  0  0
  6  3  1  0  0  0
  5  4  1  0  0  0
  3  2  2  0  0  0
  4  1  2  0  0  0
  2  1  1  0  0  0
  1  7  1  0  0  0
  9 17  2  0  0  0
  9 10  1  0  0  0
  7 17  1  0  0  0
 11 10  2  0  0  0
 11 12  1  0  0  0
 17 16  1  0  0  0
 10 15  1  0  0  0
 12 13  2  0  0  0
 15 16  1  0  0  0
 15 14  2  0  0  0
 13 14  1  0  0  0
  7  8  1  0  0  0
 33 34  1  0  0  0
M  END
> <minimizedAffinity>
-9.16210

$$$$
4HF4_15H_A_1012


 34 38  0  0  0  0  0  0  0  0999 V2000
    9.5985   91.7841   39.7002 C   0  0  0  0  0  0  0  0  0  0  0  0
    9.8773   92.9552   38.9948 C   0  0  0  0  0  0  0  0  0  0  0  0
   10.0861   94.1565   39.6709 C   0  0  0  0  0  0  0  0  0  0  0  0
    9.5345   91.8274   41.0961 C   0  0  0  0  0  0  0  0  0  0  0  0
    9.7416   93.0268   41.7760 C   0  0  0  0  0  0  0  0  0  0  0  0
   10.0221   94.1942   41.0627 C   0  0  0  0  0  0  0  0  0  0  0  0
    9.4125   90.6586   38.9952 N   0  0  0  0  0  0  0  0  0  0  0  0
    8.4942   90.4802   38.6884 H   0  0  0  0  0  0  0  0  0  0  0  0
   10.3242   88.9235   37.6091 N   0  0  0  0  0  0  0  0  0  0  0  0
   11.3865   88.0900   37.5139 C   0  0  0  0  0  0  0  0  0  0  0  0
   11.6537   87.1313   36.5341 C   0  0  0  0  0  0  0  0  0  0  0  0
   12.8080   86.3490   36.5898 C   0  0  0  0  0  0  0  0  0  0  0  0
   13.7198   86.5186   37.6317 C   0  0  0  0  0  0  0  0  0  0  0  0
   13.4732   87.4693   38.6193 C   0  0  0  0  0  0  0  0  0  0  0  0
   12.3167   88.2480   38.5598 C   0  0  0  0  0  0  0  0  0  0  0  0
   11.7236   89.4604   39.5618 S   0  0  0  0  0  0  0  0  0  0  0  0
   10.3384   89.7516   38.6631 C   0  0  0  0  0  0  0  0  0  0  0  0
   10.2244   95.3711   41.7248 O   0  0  0  0  0  0  0  0  0  0  0  0
    9.3542   95.5851   42.7569 C   0  0  0  0  0  0  0  0  0  0  0  0
    9.7879   95.5420   44.0321 N   0  0  0  0  0  0  0  0  0  0  0  0
    8.9570   95.7446   45.0415 C   0  0  0  0  0  0  0  0  0  0  0  0
    7.6129   96.0029   44.7886 C   0  0  0  0  0  0  0  0  0  0  0  0
    7.1704   96.0487   43.5431 N   0  0  0  0  0  0  0  0  0  0  0  0
    8.0031   95.8485   42.5077 C   0  0  0  0  0  0  0  0  0  0  0  0
    7.4740   95.9013   41.2055 N   0  0  0  0  0  0  0  0  0  0  0  0
    7.7945   97.0579   40.3043 C   0  0  0  0  0  0  0  0  0  0  0  0
    7.6971   96.6996   38.8053 C   0  0  0  0  0  0  0  0  0  0  0  0
    6.5303   94.8127   40.8128 C   0  0  0  0  0  0  0  0  0  0  0  0
    6.6046   94.5139   39.3134 C   0  0  0  0  0  0  0  0  0  0  0  0
    6.4722   95.8114   38.5098 C   0  0  0  0  0  0  0  0  0  0  0  0
    6.2293   95.5368   37.0090 C   0  0  0  0  0  0  0  0  0  0  0  0
    6.4159   94.0640   36.6173 C   0  0  0  0  0  0  0  0  0  0  0  0
    7.0723   96.3928   36.2240 O   0  0  0  0  0  0  0  0  0  0  0  0
    8.0024   96.1895   36.4101 H   0  0  0  0  0  0  0  0  0  0  0  0
 28 29  1  0  0  0
 28 25  1  0  0  0
 29 30  1  0  0  0
 22 23  2  0  0  0
 22 21  1  0  0  0
 23 24  1  0  0  0
 30 31  1  0  0  0
 30 27  1  0  0  0
 31 33  1  0  0  0
 31 32  1  0  0  0
 25 24  1  0  0  0
 25 26  1  0  0  0
 24 19  2  0  0  0
 21 20  2  0  0  0
 20 19  1  0  0  0
 19 18  1  0  0  0
 26 27  1  0  0  0
 18  6  1  0  0  0
  6  5  2  0  0  0
  6  3  1  0  0  0
  5  4  1  0  0  0
  3  2  2  0  0  0
  4  1  2  0  0  0
  2  1  1  0  0  0
  1  7  1  0  0  0
  9 17  2  0  0  0
  9 10  1  0  0  0
  7 17  1  0  0  0
 11 10  2  0  0  0
 11 12  1  0  0  0
 17 16  1  0  0  0
 10 15  1  0  0  0
 12 13  2  0  0  0
 15 16  1  0  0  0
 15 14  2  0  0  0
 13 14  1  0  0  0
  7  8  1  0  0  0
 33 34  1  0  0  0
M  END
> <minimizedAffinity>
-9.01970

$$$$
4HF4_15H_A_1012


 34 38  0  0  0  0  0  0  0  0999 V2000
    8.7373   91.3773   36.6216 C   0  0  0  0  0  0  0  0  0  0  0  0
    9.3592   92.5382   37.0828 C   0  0  0  0  0  0  0  0  0  0  0  0
    8.6826   93.4156   37.9291 C   0  0  0  0  0  0  0  0  0  0  0  0
    7.4265   91.1007   37.0214 C   0  0  0  0  0  0  0  0  0  0  0  0
    6.7461   91.9760   37.8667 C   0  0  0  0  0  0  0  0  0  0  0  0
    7.3762   93.1347   38.3255 C   0  0  0  0  0  0  0  0  0  0  0  0
    9.4406   90.5696   35.8146 N   0  0  0  0  0  0  0  0  0  0  0  0
    9.3133   90.6978   34.8468 H   0  0  0  0  0  0  0  0  0  0  0  0
   11.1880   89.6512   37.1807 N   0  0  0  0  0  0  0  0  0  0  0  0
   11.9456   88.5393   37.3283 C   0  0  0  0  0  0  0  0  0  0  0  0
   12.9418   88.2858   38.2736 C   0  0  0  0  0  0  0  0  0  0  0  0
   13.6323   87.0731   38.2827 C   0  0  0  0  0  0  0  0  0  0  0  0
   13.3309   86.0882   37.3420 C   0  0  0  0  0  0  0  0  0  0  0  0
   12.3406   86.3199   36.3904 C   0  0  0  0  0  0  0  0  0  0  0  0
   11.6542   87.5348   36.3847 C   0  0  0  0  0  0  0  0  0  0  0  0
   10.4279   88.1299   35.4010 S   0  0  0  0  0  0  0  0  0  0  0  0
   10.2963   89.6084   36.1807 C   0  0  0  0  0  0  0  0  0  0  0  0
    6.7127   93.9951   39.1526 O   0  0  0  0  0  0  0  0  0  0  0  0
    6.8703   95.3130   38.8260 C   0  0  0  0  0  0  0  0  0  0  0  0
    6.4184   95.7797   37.6454 N   0  0  0  0  0  0  0  0  0  0  0  0
    6.5659   97.0520   37.3143 C   0  0  0  0  0  0  0  0  0  0  0  0
    7.1999   97.9255   38.1932 C   0  0  0  0  0  0  0  0  0  0  0  0
    7.6495   97.4841   39.3560 N   0  0  0  0  0  0  0  0  0  0  0  0
    7.5038   96.1954   39.7075 C   0  0  0  0  0  0  0  0  0  0  0  0
    8.0091   95.7818   40.9533 N   0  0  0  0  0  0  0  0  0  0  0  0
    9.3664   95.1479   41.0472 C   0  0  0  0  0  0  0  0  0  0  0  0
   10.0211   95.3273   42.4342 C   0  0  0  0  0  0  0  0  0  0  0  0
    7.1052   95.9264   42.1331 C   0  0  0  0  0  0  0  0  0  0  0  0
    7.8930   96.1797   43.4208 C   0  0  0  0  0  0  0  0  0  0  0  0
    9.0022   95.1344   43.5749 C   0  0  0  0  0  0  0  0  0  0  0  0
    9.6181   95.1532   44.9917 C   0  0  0  0  0  0  0  0  0  0  0  0
    9.0295   96.2408   45.9016 C   0  0  0  0  0  0  0  0  0  0  0  0
   11.0443   95.2773   44.8911 O   0  0  0  0  0  0  0  0  0  0  0  0
   11.2663   96.1206   44.4663 H   0  0  0  0  0  0  0  0  0  0  0  0
 28 29  1  0  0  0
 28 25  1  0  0  0
 29 30  1  0  0  0
 22 23  2  0  0  0
 22 21  1  0  0  0
 23 24  1  0  0  0
 30 31  1  0  0  0
 30 27  1  0  0  0
 31 33  1  0  0  0
 31 32  1  0  0  0
 25 24  1  0  0  0
 25 26  1  0  0  0
 24 19  2  0  0  0
 21 20  2  0  0  0
 20 19  1  0  0  0
 19 18  1  0  0  0
 26 27  1  0  0  0
 18  6  1  0  0  0
  6  5  2  0  0  0
  6  3  1  0  0  0
  5  4  1  0  0  0
  3  2  2  0  0  0
  4  1  2  0  0  0
  2  1  1  0  0  0
  1  7  1  0  0  0
  9 17  2  0  0  0
  9 10  1  0  0  0
  7 17  1  0  0  0
 11 10  2  0  0  0
 11 12  1  0  0  0
 17 16  1  0  0  0
 10 15  1  0  0  0
 12 13  2  0  0  0
 15 16  1  0  0  0
 15 14  2  0  0  0
 13 14  1  0  0  0
  7  8  1  0  0  0
 33 34  1  0  0  0
M  END
> <minimizedAffinity>
-9.00593

$$$$
4HF4_15H_A_1012


 34 38  0  0  0  0  0  0  0  0999 V2000
    9.5026   91.8840   38.1055 C   0  0  0  0  0  0  0  0  0  0  0  0
    8.7546   91.9540   39.2813 C   0  0  0  0  0  0  0  0  0  0  0  0
    8.7279   93.1267   40.0349 C   0  0  0  0  0  0  0  0  0  0  0  0
   10.2238   93.0065   37.6880 C   0  0  0  0  0  0  0  0  0  0  0  0
   10.2007   94.1807   38.4391 C   0  0  0  0  0  0  0  0  0  0  0  0
    9.4480   94.2434   39.6137 C   0  0  0  0  0  0  0  0  0  0  0  0
    9.4848   90.7311   37.4207 N   0  0  0  0  0  0  0  0  0  0  0  0
    8.7166   90.5889   36.8216 H   0  0  0  0  0  0  0  0  0  0  0  0
   10.5361   88.7338   36.6030 N   0  0  0  0  0  0  0  0  0  0  0  0
   11.5397   87.8710   36.8865 C   0  0  0  0  0  0  0  0  0  0  0  0
   11.9312   86.7313   36.1806 C   0  0  0  0  0  0  0  0  0  0  0  0
   12.9986   85.9461   36.6183 C   0  0  0  0  0  0  0  0  0  0  0  0
   13.6970   86.2946   37.7744 C   0  0  0  0  0  0  0  0  0  0  0  0
   13.3236   87.4275   38.4935 C   0  0  0  0  0  0  0  0  0  0  0  0
   12.2546   88.2084   38.0523 C   0  0  0  0  0  0  0  0  0  0  0  0
   11.5565   89.6095   38.6649 S   0  0  0  0  0  0  0  0  0  0  0  0
   10.3968   89.7530   37.4625 C   0  0  0  0  0  0  0  0  0  0  0  0
    9.4237   95.3912   40.3529 O   0  0  0  0  0  0  0  0  0  0  0  0
    8.4026   96.2400   40.0284 C   0  0  0  0  0  0  0  0  0  0  0  0
    8.4397   96.9396   38.8773 N   0  0  0  0  0  0  0  0  0  0  0  0
    7.4601   97.7667   38.5510 C   0  0  0  0  0  0  0  0  0  0  0  0
    6.3741   97.9234   39.4073 C   0  0  0  0  0  0  0  0  0  0  0  0
    6.3217   97.2445   40.5412 N   0  0  0  0  0  0  0  0  0  0  0  0
    7.3074   96.3982   40.8843 C   0  0  0  0  0  0  0  0  0  0  0  0
    7.2010   95.7094   42.1061 N   0  0  0  0  0  0  0  0  0  0  0  0
    6.2526   94.5544   42.2442 C   0  0  0  0  0  0  0  0  0  0  0  0
    6.6765   93.5537   43.3414 C   0  0  0  0  0  0  0  0  0  0  0  0
    8.0010   96.2351   43.2522 C   0  0  0  0  0  0  0  0  0  0  0  0
    8.4170   95.1168   44.2111 C   0  0  0  0  0  0  0  0  0  0  0  0
    7.1977   94.2750   44.6002 C   0  0  0  0  0  0  0  0  0  0  0  0
    7.5003   93.3404   45.7927 C   0  0  0  0  0  0  0  0  0  0  0  0
    6.7160   92.0211   45.7519 C   0  0  0  0  0  0  0  0  0  0  0  0
    7.2681   94.0438   47.0219 O   0  0  0  0  0  0  0  0  0  0  0  0
    6.3329   94.2948   47.0791 H   0  0  0  0  0  0  0  0  0  0  0  0
 28 29  1  0  0  0
 28 25  1  0  0  0
 29 30  1  0  0  0
 22 23  2  0  0  0
 22 21  1  0  0  0
 23 24  1  0  0  0
 30 31  1  0  0  0
 30 27  1  0  0  0
 31 33  1  0  0  0
 31 32  1  0  0  0
 25 24  1  0  0  0
 25 26  1  0  0  0
 24 19  2  0  0  0
 21 20  2  0  0  0
 20 19  1  0  0  0
 19 18  1  0  0  0
 26 27  1  0  0  0
 18  6  1  0  0  0
  6  5  2  0  0  0
  6  3  1  0  0  0
  5  4  1  0  0  0
  3  2  2  0  0  0
  4  1  2  0  0  0
  2  1  1  0  0  0
  1  7  1  0  0  0
  9 17  2  0  0  0
  9 10  1  0  0  0
  7 17  1  0  0  0
 11 10  2  0  0  0
 11 12  1  0  0  0
 17 16  1  0  0  0
 10 15  1  0  0  0
 12 13  2  0  0  0
 15 16  1  0  0  0
 15 14  2  0  0  0
 13 14  1  0  0  0
  7  8  1  0  0  0
 33 34  1  0  0  0
M  END
> <minimizedAffinity>
-8.95063

$$$$
4HF4_15H_A_1012


 34 38  0  0  0  0  0  0  0  0999 V2000
   13.3464   88.1109   42.7284 C   0  0  0  0  0  0  0  0  0  0  0  0
   14.3011   87.7226   41.7878 C   0  0  0  0  0  0  0  0  0  0  0  0
   14.2086   88.1542   40.4652 C   0  0  0  0  0  0  0  0  0  0  0  0
   12.2955   88.9426   42.3304 C   0  0  0  0  0  0  0  0  0  0  0  0
   12.1988   89.3755   41.0087 C   0  0  0  0  0  0  0  0  0  0  0  0
   13.1595   88.9841   40.0738 C   0  0  0  0  0  0  0  0  0  0  0  0
   13.4915   87.6684   43.9860 N   0  0  0  0  0  0  0  0  0  0  0  0
   12.7541   87.1255   44.3476 H   0  0  0  0  0  0  0  0  0  0  0  0
   14.4862   88.2119   46.1022 N   0  0  0  0  0  0  0  0  0  0  0  0
   15.6907   88.3865   46.6946 C   0  0  0  0  0  0  0  0  0  0  0  0
   15.9656   88.7203   48.0225 C   0  0  0  0  0  0  0  0  0  0  0  0
   17.2796   88.8628   48.4706 C   0  0  0  0  0  0  0  0  0  0  0  0
   18.3447   88.6681   47.5912 C   0  0  0  0  0  0  0  0  0  0  0  0
   18.0932   88.3343   46.2626 C   0  0  0  0  0  0  0  0  0  0  0  0
   16.7774   88.1945   45.8193 C   0  0  0  0  0  0  0  0  0  0  0  0
   16.1315   87.8063   44.3167 S   0  0  0  0  0  0  0  0  0  0  0  0
   14.5288   87.8841   44.8031 C   0  0  0  0  0  0  0  0  0  0  0  0
   13.0676   89.4050   38.7780 O   0  0  0  0  0  0  0  0  0  0  0  0
   12.4589   88.5092   37.9443 C   0  0  0  0  0  0  0  0  0  0  0  0
   13.0047   87.2949   37.7357 N   0  0  0  0  0  0  0  0  0  0  0  0
   12.4285   86.4183   36.9296 C   0  0  0  0  0  0  0  0  0  0  0  0
   11.2425   86.7512   36.2817 C   0  0  0  0  0  0  0  0  0  0  0  0
   10.6932   87.9387   36.4750 N   0  0  0  0  0  0  0  0  0  0  0  0
   11.2649   88.8379   37.2935 C   0  0  0  0  0  0  0  0  0  0  0  0
   10.6394   90.0874   37.4539 N   0  0  0  0  0  0  0  0  0  0  0  0
   11.0447   91.2526   36.5990 C   0  0  0  0  0  0  0  0  0  0  0  0
    9.9216   92.2997   36.4347 C   0  0  0  0  0  0  0  0  0  0  0  0
    9.6367   90.2070   38.5541 C   0  0  0  0  0  0  0  0  0  0  0  0
    8.5421   91.2213   38.2133 C   0  0  0  0  0  0  0  0  0  0  0  0
    9.1704   92.5425   37.7588 C   0  0  0  0  0  0  0  0  0  0  0  0
    8.1318   93.6850   37.7038 C   0  0  0  0  0  0  0  0  0  0  0  0
    7.0991   93.5210   36.5795 C   0  0  0  0  0  0  0  0  0  0  0  0
    8.8119   94.9447   37.6034 O   0  0  0  0  0  0  0  0  0  0  0  0
    9.3195   94.9731   36.7772 H   0  0  0  0  0  0  0  0  0  0  0  0
 28 29  1  0  0  0
 28 25  1  0  0  0
 29 30  1  0  0  0
 22 23  2  0  0  0
 22 21  1  0  0  0
 23 24  1  0  0  0
 30 31  1  0  0  0
 30 27  1  0  0  0
 31 33  1  0  0  0
 31 32  1  0  0  0
 25 24  1  0  0  0
 25 26  1  0  0  0
 24 19  2  0  0  0
 21 20  2  0  0  0
 20 19  1  0  0  0
 19 18  1  0  0  0
 26 27  1  0  0  0
 18  6  1  0  0  0
  6  5  2  0  0  0
  6  3  1  0  0  0
  5  4  1  0  0  0
  3  2  2  0  0  0
  4  1  2  0  0  0
  2  1  1  0  0  0
  1  7  1  0  0  0
  9 17  2  0  0  0
  9 10  1  0  0  0
  7 17  1  0  0  0
 11 10  2  0  0  0
 11 12  1  0  0  0
 17 16  1  0  0  0
 10 15  1  0  0  0
 12 13  2  0  0  0
 15 16  1  0  0  0
 15 14  2  0  0  0
 13 14  1  0  0  0
  7  8  1  0  0  0
 33 34  1  0  0  0
M  END
> <minimizedAffinity>
-8.69519

$$$$
