4OMA_LCS_A_401


 26 27  0  0  0  0  0  0  0  0999 V2000
    4.7168   21.1332   14.4380 N   0  0  0  0  0  0  0  0  0  0  0  0
    5.5519   20.4395   15.2342 C   0  0  0  0  0  0  0  0  0  0  0  0
    5.4645   20.6363   16.6297 C   0  0  0  0  0  0  0  0  0  0  0  0
    6.5407   19.6466   14.6246 C   0  0  0  0  0  0  0  0  0  0  0  0
    7.3200   18.9935   15.4973 O   0  0  0  0  0  0  0  0  0  0  0  0
    6.6142   19.4107   13.2529 C   0  0  0  0  0  0  0  0  0  0  0  0
    5.6910   20.1293   12.4410 C   0  0  0  0  0  0  0  0  0  0  0  0
    4.7404   20.9680   13.0984 C   0  0  0  0  0  0  0  0  0  0  0  0
    7.2489   19.1727   16.4142 H   0  0  0  0  0  0  0  0  0  0  0  0
    7.5374   18.5781   12.6089 C   0  0  0  0  0  0  0  0  0  0  0  0
    8.7379   18.2885   13.4349 N   0  0  0  0  0  0  0  0  0  0  0  0
    9.9124   17.9117   12.8880 C   0  0  0  0  0  0  0  0  0  0  0  0
   11.0449   17.7272   13.5756 C   0  0  0  0  0  0  0  0  0  0  0  0
   11.2087   17.9208   14.9111 O   0  0  0  0  0  0  0  0  0  0  0  0
   12.0330   17.3697   12.7563 N   0  0  0  0  0  0  0  0  0  0  0  0
   11.3667   17.2787   11.2935 O   0  0  0  0  0  0  0  0  0  0  0  0
   10.0431   17.6596   11.5176 C   0  0  0  0  0  0  0  0  0  0  0  0
   12.9724   17.1974   12.9951 H   0  0  0  0  0  0  0  0  0  0  0  0
    5.6165   20.1126   10.9696 C   0  0  0  0  0  0  0  0  0  0  0  0
    5.0534   18.9203   10.5357 O   0  0  0  0  0  0  0  0  0  0  0  0
    5.3376   18.0921    9.1836 P   0  0  0  0  0  0  0  0  0  0  0  0
    5.0117   19.0144    8.1158 O   0  0  0  0  0  0  0  0  0  0  0  0
    6.8601   17.8430    9.3525 O   0  0  0  0  0  0  0  0  0  0  0  0
    4.5629   16.8717    9.3024 O   0  0  0  0  0  0  0  0  0  0  0  0
    7.3368   18.6834    9.2658 H   0  0  0  0  0  0  0  0  0  0  0  0
    3.6210   17.0745    9.1905 H   0  0  0  0  0  0  0  0  0  0  0  0
  1  2  2  0  0  0
  1  8  1  0  0  0
  2  3  1  0  0  0
  2  4  1  0  0  0
  4  5  1  0  0  0
  4  6  2  0  0  0
  6 10  1  0  0  0
  6  7  1  0  0  0
 10 11  1  0  0  0
  7  8  2  0  0  0
  7 19  1  0  0  0
 19 20  1  0  0  0
 20 21  1  0  0  0
 21 22  2  0  0  0
 21 23  1  0  0  0
 21 24  1  0  0  0
 11 12  2  0  0  0
 12 13  1  0  0  0
 12 17  1  0  0  0
 13 14  2  0  0  0
 13 15  1  0  0  0
 15 16  1  0  0  0
 16 17  1  0  0  0
  5  9  1  0  0  0
 23 25  1  0  0  0
 24 26  1  0  0  0
 15 18  1  0  0  0
M  END
> <minimizedAffinity>
-8.96771

$$$$
4OMA_LCS_A_401


 26 27  0  0  0  0  0  0  0  0999 V2000
   14.1229   19.2819   11.3808 N   0  0  0  0  0  0  0  0  0  0  0  0
   13.1677   18.6626   10.6620 C   0  0  0  0  0  0  0  0  0  0  0  0
   13.2633   18.6941    9.2536 C   0  0  0  0  0  0  0  0  0  0  0  0
   12.0687   18.1198   11.3514 C   0  0  0  0  0  0  0  0  0  0  0  0
   11.1741   17.5227   10.5524 O   0  0  0  0  0  0  0  0  0  0  0  0
   11.9797   18.0450   12.7403 C   0  0  0  0  0  0  0  0  0  0  0  0
   13.0261   18.6753   13.4722 C   0  0  0  0  0  0  0  0  0  0  0  0
   14.0946   19.2645   12.7304 C   0  0  0  0  0  0  0  0  0  0  0  0
   11.2589   17.5898    9.6216 H   0  0  0  0  0  0  0  0  0  0  0  0
   10.9390   17.4557   13.4682 C   0  0  0  0  0  0  0  0  0  0  0  0
    9.5912   17.8566   12.9889 N   0  0  0  0  0  0  0  0  0  0  0  0
    8.7042   18.4890   13.7851 C   0  0  0  0  0  0  0  0  0  0  0  0
    7.5161   18.9514   13.3800 C   0  0  0  0  0  0  0  0  0  0  0  0
    7.0275   18.8956   12.1127 O   0  0  0  0  0  0  0  0  0  0  0  0
    6.8754   19.5358   14.3916 N   0  0  0  0  0  0  0  0  0  0  0  0
    7.8393   19.3610   15.6692 O   0  0  0  0  0  0  0  0  0  0  0  0
    8.9543   18.7059   15.1449 C   0  0  0  0  0  0  0  0  0  0  0  0
    5.9976   19.9807   14.3637 H   0  0  0  0  0  0  0  0  0  0  0  0
   13.1222   18.8002   14.9371 C   0  0  0  0  0  0  0  0  0  0  0  0
   12.5328   19.9862   15.3529 O   0  0  0  0  0  0  0  0  0  0  0  0
   13.1840   21.2198   16.1586 P   0  0  0  0  0  0  0  0  0  0  0  0
   12.6750   21.0835   17.5075 O   0  0  0  0  0  0  0  0  0  0  0  0
   14.6853   20.8531   16.0162 O   0  0  0  0  0  0  0  0  0  0  0  0
   12.8329   22.4081   15.4048 O   0  0  0  0  0  0  0  0  0  0  0  0
   14.8739   20.0555   16.5348 H   0  0  0  0  0  0  0  0  0  0  0  0
   11.8891   22.5987   15.5227 H   0  0  0  0  0  0  0  0  0  0  0  0
  1  2  2  0  0  0
  1  8  1  0  0  0
  2  3  1  0  0  0
  2  4  1  0  0  0
  4  5  1  0  0  0
  4  6  2  0  0  0
  6 10  1  0  0  0
  6  7  1  0  0  0
 10 11  1  0  0  0
  7  8  2  0  0  0
  7 19  1  0  0  0
 19 20  1  0  0  0
 20 21  1  0  0  0
 21 22  2  0  0  0
 21 23  1  0  0  0
 21 24  1  0  0  0
 11 12  2  0  0  0
 12 13  1  0  0  0
 12 17  1  0  0  0
 13 14  2  0  0  0
 13 15  1  0  0  0
 15 16  1  0  0  0
 16 17  1  0  0  0
  5  9  1  0  0  0
 23 25  1  0  0  0
 24 26  1  0  0  0
 15 18  1  0  0  0
M  END
> <minimizedAffinity>
-8.73545

$$$$
4OMA_LCS_A_401


 26 27  0  0  0  0  0  0  0  0999 V2000
   11.0040   17.4690   12.3751 N   0  0  0  0  0  0  0  0  0  0  0  0
   11.1775   17.7995   13.6686 C   0  0  0  0  0  0  0  0  0  0  0  0
   10.2120   17.3697   14.6050 C   0  0  0  0  0  0  0  0  0  0  0  0
   12.2478   18.6512   13.9957 C   0  0  0  0  0  0  0  0  0  0  0  0
   12.3403   18.9201   15.3051 O   0  0  0  0  0  0  0  0  0  0  0  0
   13.2307   19.0501   13.0916 C   0  0  0  0  0  0  0  0  0  0  0  0
   13.0391   18.6511   11.7381 C   0  0  0  0  0  0  0  0  0  0  0  0
   11.9070   17.8334   11.4401 C   0  0  0  0  0  0  0  0  0  0  0  0
   11.6642   18.6395   15.8900 H   0  0  0  0  0  0  0  0  0  0  0  0
   14.3481   19.8406   13.3858 C   0  0  0  0  0  0  0  0  0  0  0  0
   13.9918   21.2113   13.8348 N   0  0  0  0  0  0  0  0  0  0  0  0
   14.5590   21.7829   14.9175 C   0  0  0  0  0  0  0  0  0  0  0  0
   14.3424   23.0428   15.3113 C   0  0  0  0  0  0  0  0  0  0  0  0
   13.5574   23.9538   14.6773 O   0  0  0  0  0  0  0  0  0  0  0  0
   15.0529   23.3165   16.4048 N   0  0  0  0  0  0  0  0  0  0  0  0
   15.8189   21.9492   16.7731 O   0  0  0  0  0  0  0  0  0  0  0  0
   15.4347   21.0791   15.7521 C   0  0  0  0  0  0  0  0  0  0  0  0
   15.0995   24.1741   16.8861 H   0  0  0  0  0  0  0  0  0  0  0  0
   13.8889   19.0070   10.5883 C   0  0  0  0  0  0  0  0  0  0  0  0
   13.1802   19.8075    9.7030 O   0  0  0  0  0  0  0  0  0  0  0  0
   12.8430   19.5559    8.1480 P   0  0  0  0  0  0  0  0  0  0  0  0
   13.4226   20.6914    7.4611 O   0  0  0  0  0  0  0  0  0  0  0  0
   13.6194   18.2298    7.9302 O   0  0  0  0  0  0  0  0  0  0  0  0
   11.4060   19.3702    8.0845 O   0  0  0  0  0  0  0  0  0  0  0  0
   14.5728   18.4013    7.9809 H   0  0  0  0  0  0  0  0  0  0  0  0
   10.9634   20.2217    8.2256 H   0  0  0  0  0  0  0  0  0  0  0  0
  1  2  2  0  0  0
  1  8  1  0  0  0
  2  3  1  0  0  0
  2  4  1  0  0  0
  4  5  1  0  0  0
  4  6  2  0  0  0
  6 10  1  0  0  0
  6  7  1  0  0  0
 10 11  1  0  0  0
  7  8  2  0  0  0
  7 19  1  0  0  0
 19 20  1  0  0  0
 20 21  1  0  0  0
 21 22  2  0  0  0
 21 23  1  0  0  0
 21 24  1  0  0  0
 11 12  2  0  0  0
 12 13  1  0  0  0
 12 17  1  0  0  0
 13 14  2  0  0  0
 13 15  1  0  0  0
 15 16  1  0  0  0
 16 17  1  0  0  0
  5  9  1  0  0  0
 23 25  1  0  0  0
 24 26  1  0  0  0
 15 18  1  0  0  0
M  END
> <minimizedAffinity>
-8.06111

$$$$
4OMA_LCS_A_401


 26 27  0  0  0  0  0  0  0  0999 V2000
    5.2653   19.9184   12.1316 N   0  0  0  0  0  0  0  0  0  0  0  0
    6.0752   19.3255   11.2343 C   0  0  0  0  0  0  0  0  0  0  0  0
    5.6951   19.3436    9.8745 C   0  0  0  0  0  0  0  0  0  0  0  0
    7.1937   18.6223   11.7163 C   0  0  0  0  0  0  0  0  0  0  0  0
    7.9393   18.0701   10.7495 O   0  0  0  0  0  0  0  0  0  0  0  0
    7.6039   18.6292   13.0483 C   0  0  0  0  0  0  0  0  0  0  0  0
    6.7460   19.2986   13.9668 C   0  0  0  0  0  0  0  0  0  0  0  0
    5.5898   19.9516   13.4416 C   0  0  0  0  0  0  0  0  0  0  0  0
    7.6383   18.0801    9.8623 H   0  0  0  0  0  0  0  0  0  0  0  0
    8.7446   18.0005   13.5618 C   0  0  0  0  0  0  0  0  0  0  0  0
    9.9386   18.1557   12.6915 N   0  0  0  0  0  0  0  0  0  0  0  0
   11.1922   18.1831   13.1898 C   0  0  0  0  0  0  0  0  0  0  0  0
   12.3032   18.2294   12.4463 C   0  0  0  0  0  0  0  0  0  0  0  0
   12.3561   18.2196   11.0880 O   0  0  0  0  0  0  0  0  0  0  0  0
   13.3841   18.2346   13.2256 N   0  0  0  0  0  0  0  0  0  0  0  0
   12.8252   18.2320   14.7355 O   0  0  0  0  0  0  0  0  0  0  0  0
   11.4409   18.1812   14.5671 C   0  0  0  0  0  0  0  0  0  0  0  0
   14.3258   18.2390   12.9386 H   0  0  0  0  0  0  0  0  0  0  0  0
    6.9165   19.3816   15.4280 C   0  0  0  0  0  0  0  0  0  0  0  0
    5.7320   19.7945   16.0222 O   0  0  0  0  0  0  0  0  0  0  0  0
    5.4140   21.1561   16.8222 P   0  0  0  0  0  0  0  0  0  0  0  0
    4.3867   20.7881   17.7742 O   0  0  0  0  0  0  0  0  0  0  0  0
    6.8042   21.4039   17.4661 O   0  0  0  0  0  0  0  0  0  0  0  0
    5.0936   22.1407   15.8066 O   0  0  0  0  0  0  0  0  0  0  0  0
    6.9757   20.7244   18.1367 H   0  0  0  0  0  0  0  0  0  0  0  0
    4.2195   21.9472   15.4330 H   0  0  0  0  0  0  0  0  0  0  0  0
  1  2  2  0  0  0
  1  8  1  0  0  0
  2  3  1  0  0  0
  2  4  1  0  0  0
  4  5  1  0  0  0
  4  6  2  0  0  0
  6 10  1  0  0  0
  6  7  1  0  0  0
 10 11  1  0  0  0
  7  8  2  0  0  0
  7 19  1  0  0  0
 19 20  1  0  0  0
 20 21  1  0  0  0
 21 22  2  0  0  0
 21 23  1  0  0  0
 21 24  1  0  0  0
 11 12  2  0  0  0
 12 13  1  0  0  0
 12 17  1  0  0  0
 13 14  2  0  0  0
 13 15  1  0  0  0
 15 16  1  0  0  0
 16 17  1  0  0  0
  5  9  1  0  0  0
 23 25  1  0  0  0
 24 26  1  0  0  0
 15 18  1  0  0  0
M  END
> <minimizedAffinity>
-8.05728

$$$$
4OMA_LCS_A_401


 26 27  0  0  0  0  0  0  0  0999 V2000
   13.7501   22.2996   10.8039 N   0  0  0  0  0  0  0  0  0  0  0  0
   14.3246   23.0859   11.7337 C   0  0  0  0  0  0  0  0  0  0  0  0
   14.4769   24.4601   11.4471 C   0  0  0  0  0  0  0  0  0  0  0  0
   14.8444   22.4735   12.8880 C   0  0  0  0  0  0  0  0  0  0  0  0
   15.3925   23.3364   13.7543 O   0  0  0  0  0  0  0  0  0  0  0  0
   14.6664   21.1276   13.2036 C   0  0  0  0  0  0  0  0  0  0  0  0
   14.0200   20.3306   12.2163 C   0  0  0  0  0  0  0  0  0  0  0  0
   13.5582   20.9831   11.0331 C   0  0  0  0  0  0  0  0  0  0  0  0
   15.4999   24.2359   13.5149 H   0  0  0  0  0  0  0  0  0  0  0  0
   15.1071   20.4900   14.3695 C   0  0  0  0  0  0  0  0  0  0  0  0
   14.1155   20.5435   15.4746 N   0  0  0  0  0  0  0  0  0  0  0  0
   14.3535   21.2131   16.6216 C   0  0  0  0  0  0  0  0  0  0  0  0
   13.4633   21.3687   17.6079 C   0  0  0  0  0  0  0  0  0  0  0  0
   12.1807   20.9181   17.6043 O   0  0  0  0  0  0  0  0  0  0  0  0
   13.9897   22.0852   18.6003 N   0  0  0  0  0  0  0  0  0  0  0  0
   15.5055   22.3913   18.1522 O   0  0  0  0  0  0  0  0  0  0  0  0
   15.5934   21.8043   16.8893 C   0  0  0  0  0  0  0  0  0  0  0  0
   13.5455   22.3677   19.4322 H   0  0  0  0  0  0  0  0  0  0  0  0
   13.7828   18.8777   12.2770 C   0  0  0  0  0  0  0  0  0  0  0  0
   12.5002   18.6243   12.7433 O   0  0  0  0  0  0  0  0  0  0  0  0
   12.0311   18.0452   14.1714 P   0  0  0  0  0  0  0  0  0  0  0  0
   10.9848   17.0957   13.8539 O   0  0  0  0  0  0  0  0  0  0  0  0
   13.3592   17.3838   14.6268 O   0  0  0  0  0  0  0  0  0  0  0  0
   11.6907   19.2060   14.9715 O   0  0  0  0  0  0  0  0  0  0  0  0
   13.5464   16.6148   14.0660 H   0  0  0  0  0  0  0  0  0  0  0  0
   10.8570   19.5854   14.6524 H   0  0  0  0  0  0  0  0  0  0  0  0
  1  2  2  0  0  0
  1  8  1  0  0  0
  2  3  1  0  0  0
  2  4  1  0  0  0
  4  5  1  0  0  0
  4  6  2  0  0  0
  6 10  1  0  0  0
  6  7  1  0  0  0
 10 11  1  0  0  0
  7  8  2  0  0  0
  7 19  1  0  0  0
 19 20  1  0  0  0
 20 21  1  0  0  0
 21 22  2  0  0  0
 21 23  1  0  0  0
 21 24  1  0  0  0
 11 12  2  0  0  0
 12 13  1  0  0  0
 12 17  1  0  0  0
 13 14  2  0  0  0
 13 15  1  0  0  0
 15 16  1  0  0  0
 16 17  1  0  0  0
  5  9  1  0  0  0
 23 25  1  0  0  0
 24 26  1  0  0  0
 15 18  1  0  0  0
M  END
> <minimizedAffinity>
-7.97861

$$$$
4OMA_LCS_A_401


 26 27  0  0  0  0  0  0  0  0999 V2000
   12.1208   17.6296   13.5774 N   0  0  0  0  0  0  0  0  0  0  0  0
   12.0286   17.8501   12.2525 C   0  0  0  0  0  0  0  0  0  0  0  0
   11.2074   16.9940   11.4867 C   0  0  0  0  0  0  0  0  0  0  0  0
   12.8452   18.8472   11.6896 C   0  0  0  0  0  0  0  0  0  0  0  0
   12.6807   18.9944   10.3679 O   0  0  0  0  0  0  0  0  0  0  0  0
   13.6289   19.7257   12.4356 C   0  0  0  0  0  0  0  0  0  0  0  0
   13.6743   19.4905   13.8393 C   0  0  0  0  0  0  0  0  0  0  0  0
   12.8729   18.4304   14.3620 C   0  0  0  0  0  0  0  0  0  0  0  0
   12.1479   18.3883    9.8918 H   0  0  0  0  0  0  0  0  0  0  0  0
   14.4043   20.7737   11.9252 C   0  0  0  0  0  0  0  0  0  0  0  0
   14.2416   20.9608   10.4604 N   0  0  0  0  0  0  0  0  0  0  0  0
   14.6168   22.0960    9.8350 C   0  0  0  0  0  0  0  0  0  0  0  0
   14.5766   22.2815    8.5109 C   0  0  0  0  0  0  0  0  0  0  0  0
   14.1929   21.3612    7.5869 O   0  0  0  0  0  0  0  0  0  0  0  0
   15.0211   23.4982    8.1984 N   0  0  0  0  0  0  0  0  0  0  0  0
   15.3594   24.2063    9.6041 O   0  0  0  0  0  0  0  0  0  0  0  0
   15.0777   23.2123   10.5421 C   0  0  0  0  0  0  0  0  0  0  0  0
   15.1215   23.8829    7.2977 H   0  0  0  0  0  0  0  0  0  0  0  0
   14.4824   20.2258   14.8279 C   0  0  0  0  0  0  0  0  0  0  0  0
   13.9546   20.0489   16.0995 O   0  0  0  0  0  0  0  0  0  0  0  0
   13.2633   21.1285   17.0749 P   0  0  0  0  0  0  0  0  0  0  0  0
   11.8458   21.0103   16.8031 O   0  0  0  0  0  0  0  0  0  0  0  0
   13.6885   20.5414   18.4471 O   0  0  0  0  0  0  0  0  0  0  0  0
   13.9184   22.3904   16.7884 O   0  0  0  0  0  0  0  0  0  0  0  0
   13.2275   19.7010   18.5960 H   0  0  0  0  0  0  0  0  0  0  0  0
   13.6239   22.7189   15.9245 H   0  0  0  0  0  0  0  0  0  0  0  0
  1  2  2  0  0  0
  1  8  1  0  0  0
  2  3  1  0  0  0
  2  4  1  0  0  0
  4  5  1  0  0  0
  4  6  2  0  0  0
  6 10  1  0  0  0
  6  7  1  0  0  0
 10 11  1  0  0  0
  7  8  2  0  0  0
  7 19  1  0  0  0
 19 20  1  0  0  0
 20 21  1  0  0  0
 21 22  2  0  0  0
 21 23  1  0  0  0
 21 24  1  0  0  0
 11 12  2  0  0  0
 12 13  1  0  0  0
 12 17  1  0  0  0
 13 14  2  0  0  0
 13 15  1  0  0  0
 15 16  1  0  0  0
 16 17  1  0  0  0
  5  9  1  0  0  0
 23 25  1  0  0  0
 24 26  1  0  0  0
 15 18  1  0  0  0
M  END
> <minimizedAffinity>
-7.89035

$$$$
4OMA_LCS_A_401


 26 27  0  0  0  0  0  0  0  0999 V2000
   14.1044   23.3387   12.2885 N   0  0  0  0  0  0  0  0  0  0  0  0
   14.0959   22.6891   13.4678 C   0  0  0  0  0  0  0  0  0  0  0  0
   14.1128   23.4545   14.6542 C   0  0  0  0  0  0  0  0  0  0  0  0
   14.1877   21.2858   13.4504 C   0  0  0  0  0  0  0  0  0  0  0  0
   14.1688   20.7305   14.6697 O   0  0  0  0  0  0  0  0  0  0  0  0
   14.1310   20.5154   12.2903 C   0  0  0  0  0  0  0  0  0  0  0  0
   14.1008   21.2324   11.0604 C   0  0  0  0  0  0  0  0  0  0  0  0
   14.0659   22.6586   11.1230 C   0  0  0  0  0  0  0  0  0  0  0  0
   14.2081   21.2733   15.4324 H   0  0  0  0  0  0  0  0  0  0  0  0
   14.1516   19.1169   12.2288 C   0  0  0  0  0  0  0  0  0  0  0  0
   12.8160   18.5245   11.9599 N   0  0  0  0  0  0  0  0  0  0  0  0
   12.0002   18.1114   12.9521 C   0  0  0  0  0  0  0  0  0  0  0  0
   10.7555   17.6564   12.7710 C   0  0  0  0  0  0  0  0  0  0  0  0
   10.1020   17.5700   11.5821 O   0  0  0  0  0  0  0  0  0  0  0  0
   10.2023   17.3377   13.9406 N   0  0  0  0  0  0  0  0  0  0  0  0
   11.3420   17.6124   15.0440 O   0  0  0  0  0  0  0  0  0  0  0  0
   12.4066   18.1098   14.2914 C   0  0  0  0  0  0  0  0  0  0  0  0
    9.2892   17.0045   14.0970 H   0  0  0  0  0  0  0  0  0  0  0  0
   14.1154   20.6540    9.7053 C   0  0  0  0  0  0  0  0  0  0  0  0
   12.8205   20.3639    9.2982 O   0  0  0  0  0  0  0  0  0  0  0  0
   12.2780   19.1115    8.4425 P   0  0  0  0  0  0  0  0  0  0  0  0
   11.4341   19.7033    7.4253 O   0  0  0  0  0  0  0  0  0  0  0  0
   13.6273   18.5704    7.8991 O   0  0  0  0  0  0  0  0  0  0  0  0
   11.6715   18.2129    9.4059 O   0  0  0  0  0  0  0  0  0  0  0  0
   13.9951   19.2014    7.2607 H   0  0  0  0  0  0  0  0  0  0  0  0
   10.8339   18.5901    9.7172 H   0  0  0  0  0  0  0  0  0  0  0  0
  1  2  2  0  0  0
  1  8  1  0  0  0
  2  3  1  0  0  0
  2  4  1  0  0  0
  4  5  1  0  0  0
  4  6  2  0  0  0
  6 10  1  0  0  0
  6  7  1  0  0  0
 10 11  1  0  0  0
  7  8  2  0  0  0
  7 19  1  0  0  0
 19 20  1  0  0  0
 20 21  1  0  0  0
 21 22  2  0  0  0
 21 23  1  0  0  0
 21 24  1  0  0  0
 11 12  2  0  0  0
 12 13  1  0  0  0
 12 17  1  0  0  0
 13 14  2  0  0  0
 13 15  1  0  0  0
 15 16  1  0  0  0
 16 17  1  0  0  0
  5  9  1  0  0  0
 23 25  1  0  0  0
 24 26  1  0  0  0
 15 18  1  0  0  0
M  END
> <minimizedAffinity>
-7.86292

$$$$
4OMA_LCS_A_401


 26 27  0  0  0  0  0  0  0  0999 V2000
   12.2427   17.6536   13.6510 N   0  0  0  0  0  0  0  0  0  0  0  0
   11.9797   17.8330   12.3429 C   0  0  0  0  0  0  0  0  0  0  0  0
   10.9561   17.0596   11.7533 C   0  0  0  0  0  0  0  0  0  0  0  0
   12.8163   18.6958   11.6124 C   0  0  0  0  0  0  0  0  0  0  0  0
   12.4742   18.8120   10.3222 O   0  0  0  0  0  0  0  0  0  0  0  0
   13.8029   19.4955   12.1867 C   0  0  0  0  0  0  0  0  0  0  0  0
   14.0300   19.3105   13.5802 C   0  0  0  0  0  0  0  0  0  0  0  0
   13.1947   18.3817   14.2722 C   0  0  0  0  0  0  0  0  0  0  0  0
   11.8070   18.2608    9.9629 H   0  0  0  0  0  0  0  0  0  0  0  0
   14.6131   20.4161   11.5112 C   0  0  0  0  0  0  0  0  0  0  0  0
   14.6929   21.7339   12.1926 N   0  0  0  0  0  0  0  0  0  0  0  0
   14.7790   22.8930   11.5073 C   0  0  0  0  0  0  0  0  0  0  0  0
   14.7621   24.1080   12.0666 C   0  0  0  0  0  0  0  0  0  0  0  0
   14.6206   24.3751   13.3920 O   0  0  0  0  0  0  0  0  0  0  0  0
   14.8520   25.0519   11.1304 N   0  0  0  0  0  0  0  0  0  0  0  0
   14.9917   24.2612    9.7350 O   0  0  0  0  0  0  0  0  0  0  0  0
   14.9132   22.9206   10.1145 C   0  0  0  0  0  0  0  0  0  0  0  0
   14.8364   26.0272   11.2639 H   0  0  0  0  0  0  0  0  0  0  0  0
   15.0597   19.9744   14.3986 C   0  0  0  0  0  0  0  0  0  0  0  0
   14.4940   20.4678   15.5662 O   0  0  0  0  0  0  0  0  0  0  0  0
   13.9860   21.9594   15.9010 P   0  0  0  0  0  0  0  0  0  0  0  0
   13.4402   21.8668   17.2392 O   0  0  0  0  0  0  0  0  0  0  0  0
   15.3412   22.7123   15.8287 O   0  0  0  0  0  0  0  0  0  0  0  0
   13.0953   22.3221   14.8155 O   0  0  0  0  0  0  0  0  0  0  0  0
   15.9027   22.4396   16.5712 H   0  0  0  0  0  0  0  0  0  0  0  0
   12.2642   21.8293   14.9008 H   0  0  0  0  0  0  0  0  0  0  0  0
  1  2  2  0  0  0
  1  8  1  0  0  0
  2  3  1  0  0  0
  2  4  1  0  0  0
  4  5  1  0  0  0
  4  6  2  0  0  0
  6 10  1  0  0  0
  6  7  1  0  0  0
 10 11  1  0  0  0
  7  8  2  0  0  0
  7 19  1  0  0  0
 19 20  1  0  0  0
 20 21  1  0  0  0
 21 22  2  0  0  0
 21 23  1  0  0  0
 21 24  1  0  0  0
 11 12  2  0  0  0
 12 13  1  0  0  0
 12 17  1  0  0  0
 13 14  2  0  0  0
 13 15  1  0  0  0
 15 16  1  0  0  0
 16 17  1  0  0  0
  5  9  1  0  0  0
 23 25  1  0  0  0
 24 26  1  0  0  0
 15 18  1  0  0  0
M  END
> <minimizedAffinity>
-7.74136

$$$$
4OMA_LCS_A_401


 26 27  0  0  0  0  0  0  0  0999 V2000
    7.7508   18.9057   14.0740 N   0  0  0  0  0  0  0  0  0  0  0  0
    7.5012   18.8082   12.7546 C   0  0  0  0  0  0  0  0  0  0  0  0
    6.2393   19.2266   12.2790 C   0  0  0  0  0  0  0  0  0  0  0  0
    8.4678   18.1880   11.9428 C   0  0  0  0  0  0  0  0  0  0  0  0
    8.1314   18.1408   10.6466 O   0  0  0  0  0  0  0  0  0  0  0  0
    9.7322   17.8074   12.3889 C   0  0  0  0  0  0  0  0  0  0  0  0
    9.9792   17.9600   13.7830 C   0  0  0  0  0  0  0  0  0  0  0  0
    8.9480   18.5421   14.5810 C   0  0  0  0  0  0  0  0  0  0  0  0
    7.2737   18.4029   10.3753 H   0  0  0  0  0  0  0  0  0  0  0  0
   10.7486   17.2490   11.6045 C   0  0  0  0  0  0  0  0  0  0  0  0
   10.9253   17.9385   10.3004 N   0  0  0  0  0  0  0  0  0  0  0  0
   12.1006   18.4897    9.9325 C   0  0  0  0  0  0  0  0  0  0  0  0
   12.3390   19.0406    8.7371 C   0  0  0  0  0  0  0  0  0  0  0  0
   11.4646   19.1034    7.6981 O   0  0  0  0  0  0  0  0  0  0  0  0
   13.5929   19.4867    8.6727 N   0  0  0  0  0  0  0  0  0  0  0  0
   14.2304   19.1875   10.1205 O   0  0  0  0  0  0  0  0  0  0  0  0
   13.1953   18.5467   10.8026 C   0  0  0  0  0  0  0  0  0  0  0  0
   14.0362   19.9100    7.9023 H   0  0  0  0  0  0  0  0  0  0  0  0
   11.1992   17.5635   14.5079 C   0  0  0  0  0  0  0  0  0  0  0  0
   11.7812   18.6746   15.1025 O   0  0  0  0  0  0  0  0  0  0  0  0
   13.2808   19.2429   14.9511 P   0  0  0  0  0  0  0  0  0  0  0  0
   13.5448   19.9142   16.2068 O   0  0  0  0  0  0  0  0  0  0  0  0
   14.0457   17.9027   14.7851 O   0  0  0  0  0  0  0  0  0  0  0  0
   13.2793   20.0312   13.7336 O   0  0  0  0  0  0  0  0  0  0  0  0
   14.0209   17.4106   15.6206 H   0  0  0  0  0  0  0  0  0  0  0  0
   12.7921   20.8565   13.8834 H   0  0  0  0  0  0  0  0  0  0  0  0
  1  2  2  0  0  0
  1  8  1  0  0  0
  2  3  1  0  0  0
  2  4  1  0  0  0
  4  5  1  0  0  0
  4  6  2  0  0  0
  6 10  1  0  0  0
  6  7  1  0  0  0
 10 11  1  0  0  0
  7  8  2  0  0  0
  7 19  1  0  0  0
 19 20  1  0  0  0
 20 21  1  0  0  0
 21 22  2  0  0  0
 21 23  1  0  0  0
 21 24  1  0  0  0
 11 12  2  0  0  0
 12 13  1  0  0  0
 12 17  1  0  0  0
 13 14  2  0  0  0
 13 15  1  0  0  0
 15 16  1  0  0  0
 16 17  1  0  0  0
  5  9  1  0  0  0
 23 25  1  0  0  0
 24 26  1  0  0  0
 15 18  1  0  0  0
M  END
> <minimizedAffinity>
-7.73985

$$$$
4OMA_LCS_A_401


 26 27  0  0  0  0  0  0  0  0999 V2000
   11.7843   18.9069   15.1647 N   0  0  0  0  0  0  0  0  0  0  0  0
   11.4769   18.1687   14.0815 C   0  0  0  0  0  0  0  0  0  0  0  0
   10.3599   17.3080   14.1526 C   0  0  0  0  0  0  0  0  0  0  0  0
   12.3533   18.2106   12.9824 C   0  0  0  0  0  0  0  0  0  0  0  0
   11.9622   17.4467   11.9533 O   0  0  0  0  0  0  0  0  0  0  0  0
   13.4351   19.0835   12.8811 C   0  0  0  0  0  0  0  0  0  0  0  0
   13.7103   19.8795   14.0293 C   0  0  0  0  0  0  0  0  0  0  0  0
   12.8274   19.7637   15.1456 C   0  0  0  0  0  0  0  0  0  0  0  0
   11.2311   16.8688   12.0501 H   0  0  0  0  0  0  0  0  0  0  0  0
   14.2932   19.2073   11.7817 C   0  0  0  0  0  0  0  0  0  0  0  0
   13.5939   19.0754   10.4775 N   0  0  0  0  0  0  0  0  0  0  0  0
   13.7208   19.9948    9.4981 C   0  0  0  0  0  0  0  0  0  0  0  0
   13.1880   19.8803    8.2765 C   0  0  0  0  0  0  0  0  0  0  0  0
   12.4733   18.8208    7.8131 O   0  0  0  0  0  0  0  0  0  0  0  0
   13.4978   20.9418    7.5330 N   0  0  0  0  0  0  0  0  0  0  0  0
   14.3489   21.9091    8.4984 O   0  0  0  0  0  0  0  0  0  0  0  0
   14.4280   21.1872    9.6900 C   0  0  0  0  0  0  0  0  0  0  0  0
   13.2571   21.1010    6.5917 H   0  0  0  0  0  0  0  0  0  0  0  0
   14.8343   20.8168   14.2000 C   0  0  0  0  0  0  0  0  0  0  0  0
   14.5874   21.6653   15.2705 O   0  0  0  0  0  0  0  0  0  0  0  0
   14.2304   23.2361   15.2643 P   0  0  0  0  0  0  0  0  0  0  0  0
   14.8837   23.7630   16.4445 O   0  0  0  0  0  0  0  0  0  0  0  0
   14.9150   23.6477   13.9337 O   0  0  0  0  0  0  0  0  0  0  0  0
   12.7840   23.3081   15.1854 O   0  0  0  0  0  0  0  0  0  0  0  0
   15.8779   23.5847   14.0324 H   0  0  0  0  0  0  0  0  0  0  0  0
   12.4002   23.0433   16.0360 H   0  0  0  0  0  0  0  0  0  0  0  0
  1  2  2  0  0  0
  1  8  1  0  0  0
  2  3  1  0  0  0
  2  4  1  0  0  0
  4  5  1  0  0  0
  4  6  2  0  0  0
  6 10  1  0  0  0
  6  7  1  0  0  0
 10 11  1  0  0  0
  7  8  2  0  0  0
  7 19  1  0  0  0
 19 20  1  0  0  0
 20 21  1  0  0  0
 21 22  2  0  0  0
 21 23  1  0  0  0
 21 24  1  0  0  0
 11 12  2  0  0  0
 12 13  1  0  0  0
 12 17  1  0  0  0
 13 14  2  0  0  0
 13 15  1  0  0  0
 15 16  1  0  0  0
 16 17  1  0  0  0
  5  9  1  0  0  0
 23 25  1  0  0  0
 24 26  1  0  0  0
 15 18  1  0  0  0
M  END
> <minimizedAffinity>
-7.63148

$$$$
