5QAL_TVZ_A_301


 21 22  0  0  0  0  0  0  0  0999 V2000
   -8.7337  -25.5917   31.2647 C   0  0  0  0  0  0  0  0  0  0  0  0
   -7.9303  -24.8899   30.3696 C   0  0  0  0  0  0  0  0  0  0  0  0
   -6.5507  -25.0423   30.4828 C   0  0  0  0  0  0  0  0  0  0  0  0
   -5.9953  -25.8548   31.4525 C   0  0  0  0  0  0  0  0  0  0  0  0
   -6.8039  -26.5456   32.3468 C   0  0  0  0  0  0  0  0  0  0  0  0
   -8.1832  -26.4062   32.2359 C   0  0  0  0  0  0  0  0  0  0  0  0
   -8.9612  -21.7876   28.4632 C   0  0  0  0  0  0  0  0  0  0  0  0
   -9.2430  -24.5434   28.2592 C   0  0  0  0  0  0  0  0  0  0  0  0
   -9.8171  -23.7138   27.3105 C   0  0  0  0  0  0  0  0  0  0  0  0
   -9.6760  -22.3408   27.4099 C   0  0  0  0  0  0  0  0  0  0  0  0
   -8.3881  -22.6288   29.4096 C   0  0  0  0  0  0  0  0  0  0  0  0
   -8.5217  -24.0128   29.3279 C   0  0  0  0  0  0  0  0  0  0  0  0
   -8.8079  -20.2929   28.5909 C   0  0  0  0  0  0  0  0  0  0  0  0
   -7.6746  -19.8543   28.8957 O   0  0  0  0  0  0  0  0  0  0  0  0
   -9.8177  -19.5763   28.3881 O   0  0  0  0  0  0  0  0  0  0  0  0
   -6.9635  -20.4488   29.0328 H   0  0  0  0  0  0  0  0  0  0  0  0
   -6.0304  -26.8728   34.6245 N   0  0  0  0  0  0  0  0  0  0  0  0
   -6.2049  -27.4089   33.4185 C   0  0  0  0  0  0  0  0  0  0  0  0
   -5.8973  -28.5827   33.1563 O   0  0  0  0  0  0  0  0  0  0  0  0
   -6.2884  -25.9371   34.7893 H   0  0  0  0  0  0  0  0  0  0  0  0
   -5.6435  -27.4121   35.3516 H   0  0  0  0  0  0  0  0  0  0  0  0
  9 10  2  0  0  0
  9  8  1  0  0  0
 10  7  1  0  0  0
  8 12  2  0  0  0
 15 13  2  0  0  0
  7 13  1  0  0  0
  7 11  2  0  0  0
 13 14  1  0  0  0
 12 11  1  0  0  0
 12  2  1  0  0  0
  2  3  2  0  0  0
  2  1  1  0  0  0
  3  4  1  0  0  0
  1  6  2  0  0  0
  4  5  2  0  0  0
  6  5  1  0  0  0
  5 18  1  0  0  0
 18 17  1  0  0  0
 18 19  2  0  0  0
 17 20  1  0  0  0
 17 21  1  0  0  0
 14 16  1  0  0  0
M  END
> <minimizedAffinity>
-8.07268

$$$$
5QAL_TVZ_A_301


 21 22  0  0  0  0  0  0  0  0999 V2000
   -9.6605  -24.3146   28.7411 C   0  0  0  0  0  0  0  0  0  0  0  0
   -8.6562  -24.8648   29.5333 C   0  0  0  0  0  0  0  0  0  0  0  0
   -7.7264  -23.9937   30.0957 C   0  0  0  0  0  0  0  0  0  0  0  0
   -7.7911  -22.6320   29.8715 C   0  0  0  0  0  0  0  0  0  0  0  0
   -8.7921  -22.0918   29.0734 C   0  0  0  0  0  0  0  0  0  0  0  0
   -9.7301  -22.9532   28.5144 C   0  0  0  0  0  0  0  0  0  0  0  0
   -7.6639  -28.2029   31.0144 C   0  0  0  0  0  0  0  0  0  0  0  0
   -9.2866  -27.2299   28.9808 C   0  0  0  0  0  0  0  0  0  0  0  0
   -9.1832  -28.5943   29.1950 C   0  0  0  0  0  0  0  0  0  0  0  0
   -8.3765  -29.0803   30.2089 C   0  0  0  0  0  0  0  0  0  0  0  0
   -7.7753  -26.8355   30.7920 C   0  0  0  0  0  0  0  0  0  0  0  0
   -8.5798  -26.3277   29.7746 C   0  0  0  0  0  0  0  0  0  0  0  0
   -6.7724  -28.7180   32.1162 C   0  0  0  0  0  0  0  0  0  0  0  0
   -6.9606  -28.2639   33.2687 O   0  0  0  0  0  0  0  0  0  0  0  0
   -5.8963  -29.5655   31.8192 O   0  0  0  0  0  0  0  0  0  0  0  0
   -7.6351  -27.6310   33.4185 H   0  0  0  0  0  0  0  0  0  0  0  0
   -7.7152  -19.9257   28.8686 N   0  0  0  0  0  0  0  0  0  0  0  0
   -8.8516  -20.6162   28.8054 C   0  0  0  0  0  0  0  0  0  0  0  0
   -9.9417  -20.0888   28.5319 O   0  0  0  0  0  0  0  0  0  0  0  0
   -6.8723  -20.3841   29.0892 H   0  0  0  0  0  0  0  0  0  0  0  0
   -7.7177  -18.9567   28.6948 H   0  0  0  0  0  0  0  0  0  0  0  0
  9 10  2  0  0  0
  9  8  1  0  0  0
 10  7  1  0  0  0
  8 12  2  0  0  0
 15 13  2  0  0  0
  7 13  1  0  0  0
  7 11  2  0  0  0
 13 14  1  0  0  0
 12 11  1  0  0  0
 12  2  1  0  0  0
  2  3  2  0  0  0
  2  1  1  0  0  0
  3  4  1  0  0  0
  1  6  2  0  0  0
  4  5  2  0  0  0
  6  5  1  0  0  0
  5 18  1  0  0  0
 18 17  1  0  0  0
 18 19  2  0  0  0
 17 20  1  0  0  0
 17 21  1  0  0  0
 14 16  1  0  0  0
M  END
> <minimizedAffinity>
-7.31345

$$$$
5QAL_TVZ_A_301


 21 22  0  0  0  0  0  0  0  0999 V2000
   -7.6151  -25.5458   29.9679 C   0  0  0  0  0  0  0  0  0  0  0  0
   -8.9023  -25.6152   29.4411 C   0  0  0  0  0  0  0  0  0  0  0  0
   -9.4578  -26.8787   29.2561 C   0  0  0  0  0  0  0  0  0  0  0  0
   -8.7564  -28.0252   29.5762 C   0  0  0  0  0  0  0  0  0  0  0  0
   -7.4694  -27.9474   30.0943 C   0  0  0  0  0  0  0  0  0  0  0  0
   -6.9097  -26.6895   30.2904 C   0  0  0  0  0  0  0  0  0  0  0  0
   -9.7326  -21.9752   28.8223 C   0  0  0  0  0  0  0  0  0  0  0  0
  -11.0117  -24.4400   28.7584 C   0  0  0  0  0  0  0  0  0  0  0  0
  -11.7154  -23.2838   28.4652 C   0  0  0  0  0  0  0  0  0  0  0  0
  -11.0790  -22.0554   28.4949 C   0  0  0  0  0  0  0  0  0  0  0  0
   -9.0350  -23.1414   29.1139 C   0  0  0  0  0  0  0  0  0  0  0  0
   -9.6591  -24.3865   29.0920 C   0  0  0  0  0  0  0  0  0  0  0  0
   -9.0279  -20.6428   28.8693 C   0  0  0  0  0  0  0  0  0  0  0  0
   -9.6966  -19.6270   28.5682 O   0  0  0  0  0  0  0  0  0  0  0  0
   -7.8186  -20.6258   29.2033 O   0  0  0  0  0  0  0  0  0  0  0  0
  -10.5981  -19.7138   28.3277 H   0  0  0  0  0  0  0  0  0  0  0  0
   -5.9061  -29.1699   31.4926 N   0  0  0  0  0  0  0  0  0  0  0  0
   -6.6933  -29.1903   30.4192 C   0  0  0  0  0  0  0  0  0  0  0  0
   -6.8084  -30.1897   29.6918 O   0  0  0  0  0  0  0  0  0  0  0  0
   -5.8443  -28.3555   32.0423 H   0  0  0  0  0  0  0  0  0  0  0  0
   -5.3857  -29.9692   31.7367 H   0  0  0  0  0  0  0  0  0  0  0  0
  9 10  2  0  0  0
  9  8  1  0  0  0
 10  7  1  0  0  0
  8 12  2  0  0  0
 15 13  2  0  0  0
  7 13  1  0  0  0
  7 11  2  0  0  0
 13 14  1  0  0  0
 12 11  1  0  0  0
 12  2  1  0  0  0
  2  3  2  0  0  0
  2  1  1  0  0  0
  3  4  1  0  0  0
  1  6  2  0  0  0
  4  5  2  0  0  0
  6  5  1  0  0  0
  5 18  1  0  0  0
 18 17  1  0  0  0
 18 19  2  0  0  0
 17 20  1  0  0  0
 17 21  1  0  0  0
 14 16  1  0  0  0
M  END
> <minimizedAffinity>
-7.18884

$$$$
5QAL_TVZ_A_301


 21 22  0  0  0  0  0  0  0  0999 V2000
   -6.9892  -24.5348   30.2415 C   0  0  0  0  0  0  0  0  0  0  0  0
   -8.3393  -24.6831   29.9343 C   0  0  0  0  0  0  0  0  0  0  0  0
   -9.1015  -25.5118   30.7540 C   0  0  0  0  0  0  0  0  0  0  0  0
   -8.5393  -26.1707   31.8304 C   0  0  0  0  0  0  0  0  0  0  0  0
   -7.1895  -26.0233   32.1254 C   0  0  0  0  0  0  0  0  0  0  0  0
   -6.4223  -25.1911   31.3174 C   0  0  0  0  0  0  0  0  0  0  0  0
   -9.9176  -21.9728   27.8167 C   0  0  0  0  0  0  0  0  0  0  0  0
   -9.1875  -24.6416   27.5730 C   0  0  0  0  0  0  0  0  0  0  0  0
   -9.7845  -23.9845   26.5102 C   0  0  0  0  0  0  0  0  0  0  0  0
  -10.1471  -22.6544   26.6296 C   0  0  0  0  0  0  0  0  0  0  0  0
   -9.3170  -22.6410   28.8771 C   0  0  0  0  0  0  0  0  0  0  0  0
   -8.9478  -23.9803   28.7767 C   0  0  0  0  0  0  0  0  0  0  0  0
  -10.3170  -20.5262   27.9655 C   0  0  0  0  0  0  0  0  0  0  0  0
   -9.5928  -19.8001   28.6851 O   0  0  0  0  0  0  0  0  0  0  0  0
  -11.3468  -20.1334   27.3660 O   0  0  0  0  0  0  0  0  0  0  0  0
   -8.8364  -20.1612   29.1039 H   0  0  0  0  0  0  0  0  0  0  0  0
   -5.9027  -27.8798   33.0149 N   0  0  0  0  0  0  0  0  0  0  0  0
   -6.5682  -26.7573   33.2778 C   0  0  0  0  0  0  0  0  0  0  0  0
   -6.6863  -26.3019   34.4268 O   0  0  0  0  0  0  0  0  0  0  0  0
   -5.8335  -28.2055   32.0884 H   0  0  0  0  0  0  0  0  0  0  0  0
   -5.4798  -28.3843   33.7470 H   0  0  0  0  0  0  0  0  0  0  0  0
  9 10  2  0  0  0
  9  8  1  0  0  0
 10  7  1  0  0  0
  8 12  2  0  0  0
 15 13  2  0  0  0
  7 13  1  0  0  0
  7 11  2  0  0  0
 13 14  1  0  0  0
 12 11  1  0  0  0
 12  2  1  0  0  0
  2  3  2  0  0  0
  2  1  1  0  0  0
  3  4  1  0  0  0
  1  6  2  0  0  0
  4  5  2  0  0  0
  6  5  1  0  0  0
  5 18  1  0  0  0
 18 17  1  0  0  0
 18 19  2  0  0  0
 17 20  1  0  0  0
 17 21  1  0  0  0
 14 16  1  0  0  0
M  END
> <minimizedAffinity>
-7.18026

$$$$
5QAL_TVZ_A_301


 21 22  0  0  0  0  0  0  0  0999 V2000
   -8.6872  -23.3565   28.4423 C   0  0  0  0  0  0  0  0  0  0  0  0
   -9.4298  -24.4418   27.9845 C   0  0  0  0  0  0  0  0  0  0  0  0
   -9.1594  -25.6902   28.5394 C   0  0  0  0  0  0  0  0  0  0  0  0
   -8.1843  -25.8507   29.5050 C   0  0  0  0  0  0  0  0  0  0  0  0
   -7.4425  -24.7637   29.9508 C   0  0  0  0  0  0  0  0  0  0  0  0
   -7.7113  -23.5116   29.4084 C   0  0  0  0  0  0  0  0  0  0  0  0
  -11.1195  -23.5769   24.7107 C   0  0  0  0  0  0  0  0  0  0  0  0
  -11.8090  -24.5945   27.2016 C   0  0  0  0  0  0  0  0  0  0  0  0
  -12.7819  -24.4056   26.2343 C   0  0  0  0  0  0  0  0  0  0  0  0
  -12.4396  -23.9005   24.9923 C   0  0  0  0  0  0  0  0  0  0  0  0
  -10.1505  -23.7710   25.6879 C   0  0  0  0  0  0  0  0  0  0  0  0
  -10.4763  -24.2756   26.9446 C   0  0  0  0  0  0  0  0  0  0  0  0
  -10.7328  -23.0154   23.3656 C   0  0  0  0  0  0  0  0  0  0  0  0
   -9.9595  -23.7002   22.6566 O   0  0  0  0  0  0  0  0  0  0  0  0
  -11.2023  -21.9001   23.0343 O   0  0  0  0  0  0  0  0  0  0  0  0
   -9.6468  -24.5267   22.9681 H   0  0  0  0  0  0  0  0  0  0  0  0
   -5.8967  -23.8453   31.5820 N   0  0  0  0  0  0  0  0  0  0  0  0
   -6.3643  -24.9370   30.9805 C   0  0  0  0  0  0  0  0  0  0  0  0
   -5.9476  -26.0767   31.2424 O   0  0  0  0  0  0  0  0  0  0  0  0
   -6.2557  -22.9601   31.3438 H   0  0  0  0  0  0  0  0  0  0  0  0
   -5.1919  -23.9232   32.2649 H   0  0  0  0  0  0  0  0  0  0  0  0
  9 10  2  0  0  0
  9  8  1  0  0  0
 10  7  1  0  0  0
  8 12  2  0  0  0
 15 13  2  0  0  0
  7 13  1  0  0  0
  7 11  2  0  0  0
 13 14  1  0  0  0
 12 11  1  0  0  0
 12  2  1  0  0  0
  2  3  2  0  0  0
  2  1  1  0  0  0
  3  4  1  0  0  0
  1  6  2  0  0  0
  4  5  2  0  0  0
  6  5  1  0  0  0
  5 18  1  0  0  0
 18 17  1  0  0  0
 18 19  2  0  0  0
 17 20  1  0  0  0
 17 21  1  0  0  0
 14 16  1  0  0  0
M  END
> <minimizedAffinity>
-7.05262

$$$$
5QAL_TVZ_A_301


 21 22  0  0  0  0  0  0  0  0999 V2000
  -10.8922  -23.6304   28.8236 C   0  0  0  0  0  0  0  0  0  0  0  0
   -9.9045  -24.5742   29.0930 C   0  0  0  0  0  0  0  0  0  0  0  0
   -8.6010  -24.1149   29.2646 C   0  0  0  0  0  0  0  0  0  0  0  0
   -8.2942  -22.7715   29.1644 C   0  0  0  0  0  0  0  0  0  0  0  0
   -9.2845  -21.8370   28.8876 C   0  0  0  0  0  0  0  0  0  0  0  0
  -10.5907  -22.2855   28.7231 C   0  0  0  0  0  0  0  0  0  0  0  0
  -11.8013  -27.7798   29.7622 C   0  0  0  0  0  0  0  0  0  0  0  0
   -9.2803  -26.9969   28.8979 C   0  0  0  0  0  0  0  0  0  0  0  0
   -9.5833  -28.3418   29.0299 C   0  0  0  0  0  0  0  0  0  0  0  0
  -10.8394  -28.7333   29.4587 C   0  0  0  0  0  0  0  0  0  0  0  0
  -11.4876  -26.4327   29.6255 C   0  0  0  0  0  0  0  0  0  0  0  0
  -10.2280  -26.0194   29.1982 C   0  0  0  0  0  0  0  0  0  0  0  0
  -13.1710  -28.1908   30.2409 C   0  0  0  0  0  0  0  0  0  0  0  0
  -14.0609  -27.3092   30.2652 O   0  0  0  0  0  0  0  0  0  0  0  0
  -13.3416  -29.3844   30.5879 O   0  0  0  0  0  0  0  0  0  0  0  0
  -13.8624  -26.4355   29.9909 H   0  0  0  0  0  0  0  0  0  0  0  0
   -7.7250  -19.9872   29.0863 N   0  0  0  0  0  0  0  0  0  0  0  0
   -8.9523  -20.3796   28.7519 C   0  0  0  0  0  0  0  0  0  0  0  0
   -9.8166  -19.5927   28.3336 O   0  0  0  0  0  0  0  0  0  0  0  0
   -7.0699  -20.6451   29.4139 H   0  0  0  0  0  0  0  0  0  0  0  0
   -7.4723  -19.0390   29.0060 H   0  0  0  0  0  0  0  0  0  0  0  0
  9 10  2  0  0  0
  9  8  1  0  0  0
 10  7  1  0  0  0
  8 12  2  0  0  0
 15 13  2  0  0  0
  7 13  1  0  0  0
  7 11  2  0  0  0
 13 14  1  0  0  0
 12 11  1  0  0  0
 12  2  1  0  0  0
  2  3  2  0  0  0
  2  1  1  0  0  0
  3  4  1  0  0  0
  1  6  2  0  0  0
  4  5  2  0  0  0
  6  5  1  0  0  0
  5 18  1  0  0  0
 18 17  1  0  0  0
 18 19  2  0  0  0
 17 20  1  0  0  0
 17 21  1  0  0  0
 14 16  1  0  0  0
M  END
> <minimizedAffinity>
-6.92398

$$$$
5QAL_TVZ_A_301


 21 22  0  0  0  0  0  0  0  0999 V2000
   -9.5963  -24.0593   26.0050 C   0  0  0  0  0  0  0  0  0  0  0  0
  -10.4207  -24.4315   27.0637 C   0  0  0  0  0  0  0  0  0  0  0  0
  -11.7965  -24.4164   26.8480 C   0  0  0  0  0  0  0  0  0  0  0  0
  -12.3281  -24.0390   25.6299 C   0  0  0  0  0  0  0  0  0  0  0  0
  -11.4987  -23.6616   24.5809 C   0  0  0  0  0  0  0  0  0  0  0  0
  -10.1230  -23.6817   24.7844 C   0  0  0  0  0  0  0  0  0  0  0  0
   -8.1732  -24.5649   30.1055 C   0  0  0  0  0  0  0  0  0  0  0  0
  -10.4053  -25.8844   29.1096 C   0  0  0  0  0  0  0  0  0  0  0  0
   -9.8500  -26.2723   30.3175 C   0  0  0  0  0  0  0  0  0  0  0  0
   -8.7390  -25.6146   30.8157 C   0  0  0  0  0  0  0  0  0  0  0  0
   -8.7386  -24.1827   28.8947 C   0  0  0  0  0  0  0  0  0  0  0  0
   -9.8549  -24.8344   28.3758 C   0  0  0  0  0  0  0  0  0  0  0  0
   -6.9561  -23.8457   30.6303 C   0  0  0  0  0  0  0  0  0  0  0  0
   -7.0728  -22.6236   30.8804 O   0  0  0  0  0  0  0  0  0  0  0  0
   -5.9006  -24.5063   30.7843 O   0  0  0  0  0  0  0  0  0  0  0  0
   -7.8933  -22.1932   30.7414 H   0  0  0  0  0  0  0  0  0  0  0  0
  -12.6911  -22.0484   23.2137 N   0  0  0  0  0  0  0  0  0  0  0  0
  -12.0719  -23.2258   23.2640 C   0  0  0  0  0  0  0  0  0  0  0  0
  -11.9509  -23.9620   22.2717 O   0  0  0  0  0  0  0  0  0  0  0  0
  -12.7646  -21.4958   24.0251 H   0  0  0  0  0  0  0  0  0  0  0  0
  -13.0755  -21.7303   22.3650 H   0  0  0  0  0  0  0  0  0  0  0  0
  9 10  2  0  0  0
  9  8  1  0  0  0
 10  7  1  0  0  0
  8 12  2  0  0  0
 15 13  2  0  0  0
  7 13  1  0  0  0
  7 11  2  0  0  0
 13 14  1  0  0  0
 12 11  1  0  0  0
 12  2  1  0  0  0
  2  3  2  0  0  0
  2  1  1  0  0  0
  3  4  1  0  0  0
  1  6  2  0  0  0
  4  5  2  0  0  0
  6  5  1  0  0  0
  5 18  1  0  0  0
 18 17  1  0  0  0
 18 19  2  0  0  0
 17 20  1  0  0  0
 17 21  1  0  0  0
 14 16  1  0  0  0
M  END
> <minimizedAffinity>
-6.73491

$$$$
5QAL_TVZ_A_301


 21 22  0  0  0  0  0  0  0  0999 V2000
  -10.8597  -23.6940   28.6863 C   0  0  0  0  0  0  0  0  0  0  0  0
   -9.9438  -24.6537   29.1096 C   0  0  0  0  0  0  0  0  0  0  0  0
   -8.6431  -24.2330   29.3755 C   0  0  0  0  0  0  0  0  0  0  0  0
   -8.2696  -22.9121   29.2188 C   0  0  0  0  0  0  0  0  0  0  0  0
   -9.1879  -21.9621   28.7886 C   0  0  0  0  0  0  0  0  0  0  0  0
  -10.4914  -22.3715   28.5288 C   0  0  0  0  0  0  0  0  0  0  0  0
   -9.7539  -28.4308   29.2468 C   0  0  0  0  0  0  0  0  0  0  0  0
  -11.6564  -26.4315   29.5605 C   0  0  0  0  0  0  0  0  0  0  0  0
  -12.0199  -27.7622   29.6826 C   0  0  0  0  0  0  0  0  0  0  0  0
  -11.0727  -28.7592   29.5283 C   0  0  0  0  0  0  0  0  0  0  0  0
   -9.3991  -27.0924   29.1272 C   0  0  0  0  0  0  0  0  0  0  0  0
  -10.3388  -26.0751   29.2762 C   0  0  0  0  0  0  0  0  0  0  0  0
   -8.7127  -29.5065   29.0653 C   0  0  0  0  0  0  0  0  0  0  0  0
   -7.6209  -29.3575   29.6615 O   0  0  0  0  0  0  0  0  0  0  0  0
   -8.9951  -30.4836   28.3306 O   0  0  0  0  0  0  0  0  0  0  0  0
   -7.4782  -28.6008   30.1955 H   0  0  0  0  0  0  0  0  0  0  0  0
   -9.6066  -19.7364   27.9143 N   0  0  0  0  0  0  0  0  0  0  0  0
   -8.7808  -20.5310   28.5917 C   0  0  0  0  0  0  0  0  0  0  0  0
   -7.7035  -20.1322   29.0627 O   0  0  0  0  0  0  0  0  0  0  0  0
  -10.4517  -20.0940   27.5578 H   0  0  0  0  0  0  0  0  0  0  0  0
   -9.3722  -18.7911   27.7700 H   0  0  0  0  0  0  0  0  0  0  0  0
  9 10  2  0  0  0
  9  8  1  0  0  0
 10  7  1  0  0  0
  8 12  2  0  0  0
 15 13  2  0  0  0
  7 13  1  0  0  0
  7 11  2  0  0  0
 13 14  1  0  0  0
 12 11  1  0  0  0
 12  2  1  0  0  0
  2  3  2  0  0  0
  2  1  1  0  0  0
  3  4  1  0  0  0
  1  6  2  0  0  0
  4  5  2  0  0  0
  6  5  1  0  0  0
  5 18  1  0  0  0
 18 17  1  0  0  0
 18 19  2  0  0  0
 17 20  1  0  0  0
 17 21  1  0  0  0
 14 16  1  0  0  0
M  END
> <minimizedAffinity>
-6.70714

$$$$
5QAL_TVZ_A_301


 21 22  0  0  0  0  0  0  0  0999 V2000
   -9.8556  -21.8813   26.1412 C   0  0  0  0  0  0  0  0  0  0  0  0
   -9.9372  -23.2712   26.1635 C   0  0  0  0  0  0  0  0  0  0  0  0
  -10.4061  -23.9097   25.0181 C   0  0  0  0  0  0  0  0  0  0  0  0
  -10.7845  -23.1918   23.8999 C   0  0  0  0  0  0  0  0  0  0  0  0
  -10.7072  -21.8045   23.8886 C   0  0  0  0  0  0  0  0  0  0  0  0
  -10.2322  -21.1587   25.0251 C   0  0  0  0  0  0  0  0  0  0  0  0
   -8.3059  -24.1921   29.4517 C   0  0  0  0  0  0  0  0  0  0  0  0
   -9.9385  -25.3705   27.5383 C   0  0  0  0  0  0  0  0  0  0  0  0
   -9.5316  -26.0949   28.6462 C   0  0  0  0  0  0  0  0  0  0  0  0
   -8.7197  -25.5086   29.6012 C   0  0  0  0  0  0  0  0  0  0  0  0
   -8.7206  -23.4734   28.3368 C   0  0  0  0  0  0  0  0  0  0  0  0
   -9.5353  -24.0474   27.3637 C   0  0  0  0  0  0  0  0  0  0  0  0
   -7.4124  -23.5429   30.4785 C   0  0  0  0  0  0  0  0  0  0  0  0
   -6.8332  -24.2954   31.2958 O   0  0  0  0  0  0  0  0  0  0  0  0
   -7.3009  -22.2934   30.4585 O   0  0  0  0  0  0  0  0  0  0  0  0
   -6.9627  -25.2224   31.2523 H   0  0  0  0  0  0  0  0  0  0  0  0
  -10.5673  -19.8363   22.4744 N   0  0  0  0  0  0  0  0  0  0  0  0
  -11.1416  -21.0185   22.6861 C   0  0  0  0  0  0  0  0  0  0  0  0
  -12.0081  -21.4873   21.9306 O   0  0  0  0  0  0  0  0  0  0  0  0
   -9.8839  -19.5021   23.0993 H   0  0  0  0  0  0  0  0  0  0  0  0
  -10.8261  -19.2962   21.6931 H   0  0  0  0  0  0  0  0  0  0  0  0
  9 10  2  0  0  0
  9  8  1  0  0  0
 10  7  1  0  0  0
  8 12  2  0  0  0
 15 13  2  0  0  0
  7 13  1  0  0  0
  7 11  2  0  0  0
 13 14  1  0  0  0
 12 11  1  0  0  0
 12  2  1  0  0  0
  2  3  2  0  0  0
  2  1  1  0  0  0
  3  4  1  0  0  0
  1  6  2  0  0  0
  4  5  2  0  0  0
  6  5  1  0  0  0
  5 18  1  0  0  0
 18 17  1  0  0  0
 18 19  2  0  0  0
 17 20  1  0  0  0
 17 21  1  0  0  0
 14 16  1  0  0  0
M  END
> <minimizedAffinity>
-6.64410

$$$$
5QAL_TVZ_A_301


 21 22  0  0  0  0  0  0  0  0999 V2000
   -9.4105  -26.3349   28.7231 C   0  0  0  0  0  0  0  0  0  0  0  0
  -10.5206  -25.5711   29.0741 C   0  0  0  0  0  0  0  0  0  0  0  0
  -11.6257  -26.2386   29.5962 C   0  0  0  0  0  0  0  0  0  0  0  0
  -11.6265  -27.6111   29.7548 C   0  0  0  0  0  0  0  0  0  0  0  0
  -10.5174  -28.3668   29.3949 C   0  0  0  0  0  0  0  0  0  0  0  0
   -9.4059  -27.7078   28.8805 C   0  0  0  0  0  0  0  0  0  0  0  0
   -9.3943  -21.9583   29.1001 C   0  0  0  0  0  0  0  0  0  0  0  0
  -11.6591  -23.4258   28.4426 C   0  0  0  0  0  0  0  0  0  0  0  0
  -11.6636  -22.0467   28.3163 C   0  0  0  0  0  0  0  0  0  0  0  0
  -10.5354  -21.3145   28.6418 C   0  0  0  0  0  0  0  0  0  0  0  0
   -9.3997  -23.3427   29.2224 C   0  0  0  0  0  0  0  0  0  0  0  0
  -10.5265  -24.0963   28.9025 C   0  0  0  0  0  0  0  0  0  0  0  0
   -8.1609  -21.1730   29.4690 C   0  0  0  0  0  0  0  0  0  0  0  0
   -7.4621  -21.6086   30.4132 O   0  0  0  0  0  0  0  0  0  0  0  0
   -7.9058  -20.1328   28.8155 O   0  0  0  0  0  0  0  0  0  0  0  0
   -7.7130  -22.3941   30.8582 H   0  0  0  0  0  0  0  0  0  0  0  0
  -11.1614  -30.3817   30.5861 N   0  0  0  0  0  0  0  0  0  0  0  0
  -10.5227  -29.8606   29.5408 C   0  0  0  0  0  0  0  0  0  0  0  0
   -9.9440  -30.5590   28.6930 O   0  0  0  0  0  0  0  0  0  0  0  0
  -11.6075  -29.7908   31.2350 H   0  0  0  0  0  0  0  0  0  0  0  0
  -11.1877  -31.3580   30.7102 H   0  0  0  0  0  0  0  0  0  0  0  0
  9 10  2  0  0  0
  9  8  1  0  0  0
 10  7  1  0  0  0
  8 12  2  0  0  0
 15 13  2  0  0  0
  7 13  1  0  0  0
  7 11  2  0  0  0
 13 14  1  0  0  0
 12 11  1  0  0  0
 12  2  1  0  0  0
  2  3  2  0  0  0
  2  1  1  0  0  0
  3  4  1  0  0  0
  1  6  2  0  0  0
  4  5  2  0  0  0
  6  5  1  0  0  0
  5 18  1  0  0  0
 18 17  1  0  0  0
 18 19  2  0  0  0
 17 20  1  0  0  0
 17 21  1  0  0  0
 14 16  1  0  0  0
M  END
> <minimizedAffinity>
-6.59010

$$$$
