2GST_GPS_A_220


 42 44  0  0  0  0  0  0  0  0999 V2000
   17.6594   16.6658   31.2248 C   0  0  0  0  0  0  0  0  0  0  0  0
   17.2630   16.0058   32.5989 C   0  0  0  0  0  0  0  0  0  0  0  0
   16.8858   16.8783   33.3701 O   0  0  0  0  0  0  0  0  0  0  0  0
   17.7500   14.7958   32.8640 N   0  0  0  0  0  0  0  0  0  0  0  0
   18.3465   14.3523   32.2184 H   0  0  0  0  0  0  0  0  0  0  0  0
   17.3961   14.1224   34.1218 C   0  0  0  0  0  0  0  0  0  0  0  0
   15.9910   13.6210   34.1089 C   0  0  0  0  0  0  0  0  0  0  0  0
   15.7271   12.4062   33.8943 O   0  0  0  0  0  0  0  0  0  0  0  0
   15.0498   14.5358   34.3183 O   0  0  0  0  0  0  0  0  0  0  0  0
   15.2901   15.4280   34.4739 H   0  0  0  0  0  0  0  0  0  0  0  0
   16.6343   16.1895   30.2782 N   0  0  0  0  0  0  0  0  0  0  0  0
   16.9903   15.2084   29.4076 C   0  0  0  0  0  0  0  0  0  0  0  0
   17.9479   14.4239   29.6147 O   0  0  0  0  0  0  0  0  0  0  0  0
   15.7255   16.5681   30.2769 H   0  0  0  0  0  0  0  0  0  0  0  0
   15.9769   15.0304   28.3066 C   0  0  0  0  0  0  0  0  0  0  0  0
   15.4764   16.3786   27.7625 C   0  0  0  0  0  0  0  0  0  0  0  0
   13.9133   14.5642   27.2001 N   0  0  0  0  0  0  0  0  0  0  0  0
   14.3857   15.9397   26.7080 C   0  0  0  0  0  0  0  0  0  0  0  0
   13.1988   14.2038   26.5677 H   0  0  0  0  0  0  0  0  0  0  0  0
   13.5229   14.6544   28.1381 H   0  0  0  0  0  0  0  0  0  0  0  0
   14.9353   15.8014   25.3320 C   0  0  0  0  0  0  0  0  0  0  0  0
   16.1702   16.3722   25.0436 O   0  0  0  0  0  0  0  0  0  0  0  0
   14.5418   15.0629   24.4032 O   0  0  0  0  0  0  0  0  0  0  0  0
   13.7205   14.6176   24.4747 H   0  0  0  0  0  0  0  0  0  0  0  0
   17.3564   18.1895   31.3995 C   0  0  0  0  0  0  0  0  0  0  0  0
   17.4657   19.1376   29.9275 S   0  0  0  0  0  0  0  0  0  0  0  0
   21.5237   19.0854   29.9697 O   0  0  0  0  0  0  0  0  0  0  0  0
   19.0955   19.2534   29.3761 C   0  0  0  0  0  0  0  0  0  0  0  0
   20.1549   19.1220   30.5029 C   0  0  0  0  0  0  0  0  0  0  0  0
   19.3599   20.6290   28.7907 C   0  0  0  0  0  0  0  0  0  0  0  0
   20.1105   20.3036   31.4395 C   0  0  0  0  0  0  0  0  0  0  0  0
   19.3894   21.9104   26.7716 C   0  0  0  0  0  0  0  0  0  0  0  0
   20.3300   21.1833   33.6974 C   0  0  0  0  0  0  0  0  0  0  0  0
   19.8180   23.0354   27.4959 C   0  0  0  0  0  0  0  0  0  0  0  0
   20.1201   22.4902   33.2006 C   0  0  0  0  0  0  0  0  0  0  0  0
   19.1388   20.7090   27.3760 C   0  0  0  0  0  0  0  0  0  0  0  0
   20.3348   20.0876   32.8374 C   0  0  0  0  0  0  0  0  0  0  0  0
   19.7886   21.7349   29.5380 C   0  0  0  0  0  0  0  0  0  0  0  0
   19.9384   21.5636   30.9421 C   0  0  0  0  0  0  0  0  0  0  0  0
   19.9901   22.9485   28.8818 C   0  0  0  0  0  0  0  0  0  0  0  0
   19.9222   22.6818   31.8226 C   0  0  0  0  0  0  0  0  0  0  0  0
   21.6118   18.3393   29.3561 H   0  0  0  0  0  0  0  0  0  0  0  0
 22 21  2  0  0  0
 21 18  1  0  0  0
 21 23  1  0  0  0
 17 18  1  0  0  0
  1  2  1  0  0  0
  2  4  1  0  0  0
  2  3  2  0  0  0
 12 11  1  0  0  0
 11  1  1  0  0  0
  8  7  2  0  0  0
  6  7  1  0  0  0
  7  9  1  0  0  0
  4  6  1  0  0  0
 27 29  1  0  0  0
 18 16  1  0  0  0
  1 25  1  0  0  0
 30 28  1  0  0  0
 28 26  1  0  0  0
 28 29  1  0  0  0
 29 31  1  0  0  0
 16 15  1  0  0  0
 26 25  1  0  0  0
 36 30  2  0  0  0
 30 38  1  0  0  0
 39 31  2  0  0  0
 31 37  1  0  0  0
 15 12  1  0  0  0
 13 12  2  0  0  0
 32 36  1  0  0  0
 32 34  2  0  0  0
 37 33  2  0  0  0
 35 33  1  0  0  0
 34 40  1  0  0  0
 41 35  2  0  0  0
 40 38  2  0  0  0
 38 39  1  0  0  0
 39 41  1  0  0  0
 17 19  1  0  0  0
 17 20  1  0  0  0
 11 14  1  0  0  0
  4  5  1  0  0  0
 27 42  1  0  0  0
 23 24  1  0  0  0
  9 10  1  0  0  0
M  END
> <minimizedAffinity>
-9.01602

$$$$
2GST_GPS_A_220


 42 44  0  0  0  0  0  0  0  0999 V2000
   16.3651   16.4882   29.4793 C   0  0  0  0  0  0  0  0  0  0  0  0
   15.1648   16.0660   28.5509 C   0  0  0  0  0  0  0  0  0  0  0  0
   15.3147   14.9017   28.2043 O   0  0  0  0  0  0  0  0  0  0  0  0
   14.4641   17.0375   27.9704 N   0  0  0  0  0  0  0  0  0  0  0  0
   14.7120   17.9789   28.1168 H   0  0  0  0  0  0  0  0  0  0  0  0
   13.3197   16.7029   27.1106 C   0  0  0  0  0  0  0  0  0  0  0  0
   13.6888   16.7089   25.6650 C   0  0  0  0  0  0  0  0  0  0  0  0
   14.8916   16.7876   25.2928 O   0  0  0  0  0  0  0  0  0  0  0  0
   12.6735   16.6448   24.8099 O   0  0  0  0  0  0  0  0  0  0  0  0
   11.7946   16.5872   25.1296 H   0  0  0  0  0  0  0  0  0  0  0  0
   17.4426   15.5400   29.1421 N   0  0  0  0  0  0  0  0  0  0  0  0
   18.3123   15.2001   30.1297 C   0  0  0  0  0  0  0  0  0  0  0  0
   18.0353   15.2995   31.3498 O   0  0  0  0  0  0  0  0  0  0  0  0
   17.5288   15.1669   28.2352 H   0  0  0  0  0  0  0  0  0  0  0  0
   19.5278   14.4870   29.5959 C   0  0  0  0  0  0  0  0  0  0  0  0
   19.2365   13.7704   28.2671 C   0  0  0  0  0  0  0  0  0  0  0  0
   19.7999   11.4103   27.8620 N   0  0  0  0  0  0  0  0  0  0  0  0
   18.9038   12.2994   28.7360 C   0  0  0  0  0  0  0  0  0  0  0  0
   19.6459   10.4312   28.1030 H   0  0  0  0  0  0  0  0  0  0  0  0
   20.7780   11.6504   28.0234 H   0  0  0  0  0  0  0  0  0  0  0  0
   17.4807   11.9286   28.5084 C   0  0  0  0  0  0  0  0  0  0  0  0
   17.1879   10.6527   28.0391 O   0  0  0  0  0  0  0  0  0  0  0  0
   16.4476   12.5360   28.8645 O   0  0  0  0  0  0  0  0  0  0  0  0
   16.5095   13.4083   29.2010 H   0  0  0  0  0  0  0  0  0  0  0  0
   16.8571   17.8604   28.9143 C   0  0  0  0  0  0  0  0  0  0  0  0
   17.7600   18.8458   30.0507 S   0  0  0  0  0  0  0  0  0  0  0  0
   21.8044   19.1790   30.1075 O   0  0  0  0  0  0  0  0  0  0  0  0
   19.3736   19.1130   29.5045 C   0  0  0  0  0  0  0  0  0  0  0  0
   20.4362   19.0882   30.6357 C   0  0  0  0  0  0  0  0  0  0  0  0
   19.5087   20.5046   28.9128 C   0  0  0  0  0  0  0  0  0  0  0  0
   20.2762   20.2649   31.5659 C   0  0  0  0  0  0  0  0  0  0  0  0
   19.4247   21.7732   26.8872 C   0  0  0  0  0  0  0  0  0  0  0  0
   20.4022   21.1725   33.8199 C   0  0  0  0  0  0  0  0  0  0  0  0
   19.7417   22.9372   27.6070 C   0  0  0  0  0  0  0  0  0  0  0  0
   20.0713   22.4511   33.3155 C   0  0  0  0  0  0  0  0  0  0  0  0
   19.2867   20.5563   27.4969 C   0  0  0  0  0  0  0  0  0  0  0  0
   20.5143   20.0779   32.9657 C   0  0  0  0  0  0  0  0  0  0  0  0
   19.8276   21.6499   29.6558 C   0  0  0  0  0  0  0  0  0  0  0  0
   19.9874   21.5004   31.0613 C   0  0  0  0  0  0  0  0  0  0  0  0
   19.9157   22.8739   28.9939 C   0  0  0  0  0  0  0  0  0  0  0  0
   19.8617   22.6163   31.9358 C   0  0  0  0  0  0  0  0  0  0  0  0
   21.9653   18.4416   29.4982 H   0  0  0  0  0  0  0  0  0  0  0  0
 22 21  2  0  0  0
 21 18  1  0  0  0
 21 23  1  0  0  0
 17 18  1  0  0  0
  1  2  1  0  0  0
  2  4  1  0  0  0
  2  3  2  0  0  0
 12 11  1  0  0  0
 11  1  1  0  0  0
  8  7  2  0  0  0
  6  7  1  0  0  0
  7  9  1  0  0  0
  4  6  1  0  0  0
 27 29  1  0  0  0
 18 16  1  0  0  0
  1 25  1  0  0  0
 30 28  1  0  0  0
 28 26  1  0  0  0
 28 29  1  0  0  0
 29 31  1  0  0  0
 16 15  1  0  0  0
 26 25  1  0  0  0
 36 30  2  0  0  0
 30 38  1  0  0  0
 39 31  2  0  0  0
 31 37  1  0  0  0
 15 12  1  0  0  0
 13 12  2  0  0  0
 32 36  1  0  0  0
 32 34  2  0  0  0
 37 33  2  0  0  0
 35 33  1  0  0  0
 34 40  1  0  0  0
 41 35  2  0  0  0
 40 38  2  0  0  0
 38 39  1  0  0  0
 39 41  1  0  0  0
 17 19  1  0  0  0
 17 20  1  0  0  0
 11 14  1  0  0  0
  4  5  1  0  0  0
 27 42  1  0  0  0
 23 24  1  0  0  0
  9 10  1  0  0  0
M  END
> <minimizedAffinity>
-8.43988

$$$$
2GST_GPS_A_220


 42 44  0  0  0  0  0  0  0  0999 V2000
   17.8446   13.0778   29.2569 C   0  0  0  0  0  0  0  0  0  0  0  0
   17.2920   11.6040   29.1982 C   0  0  0  0  0  0  0  0  0  0  0  0
   17.3949   11.1812   28.0541 O   0  0  0  0  0  0  0  0  0  0  0  0
   16.4749   11.2135   30.1736 N   0  0  0  0  0  0  0  0  0  0  0  0
   16.2252   11.8424   30.8887 H   0  0  0  0  0  0  0  0  0  0  0  0
   15.9456    9.8422   30.1818 C   0  0  0  0  0  0  0  0  0  0  0  0
   14.5931    9.7635   29.5568 C   0  0  0  0  0  0  0  0  0  0  0  0
   13.5798    9.4130   30.2215 O   0  0  0  0  0  0  0  0  0  0  0  0
   14.5361   10.0670   28.2641 O   0  0  0  0  0  0  0  0  0  0  0  0
   15.3138   10.3228   27.8082 H   0  0  0  0  0  0  0  0  0  0  0  0
   16.6484   13.9259   29.1037 N   0  0  0  0  0  0  0  0  0  0  0  0
   16.5119   14.6156   27.9405 C   0  0  0  0  0  0  0  0  0  0  0  0
   17.0819   14.2789   26.8742 O   0  0  0  0  0  0  0  0  0  0  0  0
   15.9735   13.9903   29.8176 H   0  0  0  0  0  0  0  0  0  0  0  0
   15.4360   15.6672   28.0263 C   0  0  0  0  0  0  0  0  0  0  0  0
   14.2252   15.3243   27.1429 C   0  0  0  0  0  0  0  0  0  0  0  0
   12.8332   16.8097   25.7617 N   0  0  0  0  0  0  0  0  0  0  0  0
   14.2986   16.4285   26.0161 C   0  0  0  0  0  0  0  0  0  0  0  0
   12.7892   17.5271   25.0379 H   0  0  0  0  0  0  0  0  0  0  0  0
   12.4211   17.1695   26.6225 H   0  0  0  0  0  0  0  0  0  0  0  0
   14.8965   15.9235   24.7505 C   0  0  0  0  0  0  0  0  0  0  0  0
   16.0513   16.5289   24.2670 O   0  0  0  0  0  0  0  0  0  0  0  0
   14.6286   14.8764   24.1222 O   0  0  0  0  0  0  0  0  0  0  0  0
   13.8723   14.3729   24.3515 H   0  0  0  0  0  0  0  0  0  0  0  0
   18.2901   13.2895   30.7404 C   0  0  0  0  0  0  0  0  0  0  0  0
   19.1349   14.7956   31.0499 S   0  0  0  0  0  0  0  0  0  0  0  0
   16.5750   17.2666   33.0026 O   0  0  0  0  0  0  0  0  0  0  0  0
   18.3928   15.6784   32.3320 C   0  0  0  0  0  0  0  0  0  0  0  0
   17.2703   16.6445   31.8674 C   0  0  0  0  0  0  0  0  0  0  0  0
   19.4038   16.5939   32.9989 C   0  0  0  0  0  0  0  0  0  0  0  0
   17.8288   17.7847   31.0530 C   0  0  0  0  0  0  0  0  0  0  0  0
   20.9688   16.7805   34.7976 C   0  0  0  0  0  0  0  0  0  0  0  0
   17.5704   19.3533   29.2109 C   0  0  0  0  0  0  0  0  0  0  0  0
   21.2650   18.0948   34.3991 C   0  0  0  0  0  0  0  0  0  0  0  0
   18.7962   19.9613   29.5665 C   0  0  0  0  0  0  0  0  0  0  0  0
   20.0671   16.0025   34.1245 C   0  0  0  0  0  0  0  0  0  0  0  0
   17.0722   18.2766   29.9409 C   0  0  0  0  0  0  0  0  0  0  0  0
   19.6787   17.9032   32.5799 C   0  0  0  0  0  0  0  0  0  0  0  0
   18.9980   18.3829   31.4267 C   0  0  0  0  0  0  0  0  0  0  0  0
   20.6367   18.6408   33.2744 C   0  0  0  0  0  0  0  0  0  0  0  0
   19.5124   19.4757   30.6738 C   0  0  0  0  0  0  0  0  0  0  0  0
   16.1926   16.5755   33.5656 H   0  0  0  0  0  0  0  0  0  0  0  0
 22 21  2  0  0  0
 21 18  1  0  0  0
 21 23  1  0  0  0
 17 18  1  0  0  0
  1  2  1  0  0  0
  2  4  1  0  0  0
  2  3  2  0  0  0
 12 11  1  0  0  0
 11  1  1  0  0  0
  8  7  2  0  0  0
  6  7  1  0  0  0
  7  9  1  0  0  0
  4  6  1  0  0  0
 27 29  1  0  0  0
 18 16  1  0  0  0
  1 25  1  0  0  0
 30 28  1  0  0  0
 28 26  1  0  0  0
 28 29  1  0  0  0
 29 31  1  0  0  0
 16 15  1  0  0  0
 26 25  1  0  0  0
 36 30  2  0  0  0
 30 38  1  0  0  0
 39 31  2  0  0  0
 31 37  1  0  0  0
 15 12  1  0  0  0
 13 12  2  0  0  0
 32 36  1  0  0  0
 32 34  2  0  0  0
 37 33  2  0  0  0
 35 33  1  0  0  0
 34 40  1  0  0  0
 41 35  2  0  0  0
 40 38  2  0  0  0
 38 39  1  0  0  0
 39 41  1  0  0  0
 17 19  1  0  0  0
 17 20  1  0  0  0
 11 14  1  0  0  0
  4  5  1  0  0  0
 27 42  1  0  0  0
 23 24  1  0  0  0
  9 10  1  0  0  0
M  END
> <minimizedAffinity>
-8.22102

$$$$
2GST_GPS_A_220


 42 44  0  0  0  0  0  0  0  0999 V2000
   19.1522   18.1116   31.1223 C   0  0  0  0  0  0  0  0  0  0  0  0
   19.0856   19.5700   31.7135 C   0  0  0  0  0  0  0  0  0  0  0  0
   18.0694   20.1211   31.3113 O   0  0  0  0  0  0  0  0  0  0  0  0
   20.2201   20.1072   32.1563 N   0  0  0  0  0  0  0  0  0  0  0  0
   21.0622   19.6011   32.0942 H   0  0  0  0  0  0  0  0  0  0  0  0
   20.2140   21.4572   32.7381 C   0  0  0  0  0  0  0  0  0  0  0  0
   20.3418   22.5145   31.6932 C   0  0  0  0  0  0  0  0  0  0  0  0
   21.4682   22.9632   31.3446 O   0  0  0  0  0  0  0  0  0  0  0  0
   19.1998   22.9563   31.1765 O   0  0  0  0  0  0  0  0  0  0  0  0
   18.3846   22.5950   31.4642 H   0  0  0  0  0  0  0  0  0  0  0  0
   19.4355   17.2544   32.2879 N   0  0  0  0  0  0  0  0  0  0  0  0
   19.9395   16.0150   32.0487 C   0  0  0  0  0  0  0  0  0  0  0  0
   20.5445   15.7146   30.9909 O   0  0  0  0  0  0  0  0  0  0  0  0
   19.2659   17.5681   33.2055 H   0  0  0  0  0  0  0  0  0  0  0  0
   19.8924   15.1366   33.2722 C   0  0  0  0  0  0  0  0  0  0  0  0
   18.7367   14.1245   33.2091 C   0  0  0  0  0  0  0  0  0  0  0  0
   18.1461   15.7721   34.9377 N   0  0  0  0  0  0  0  0  0  0  0  0
   17.5259   14.9486   33.7999 C   0  0  0  0  0  0  0  0  0  0  0  0
   17.4233   16.3407   35.3790 H   0  0  0  0  0  0  0  0  0  0  0  0
   18.8734   16.3796   34.5604 H   0  0  0  0  0  0  0  0  0  0  0  0
   16.4532   14.0804   34.3567 C   0  0  0  0  0  0  0  0  0  0  0  0
   16.7833   13.1569   35.3426 O   0  0  0  0  0  0  0  0  0  0  0  0
   15.2150   14.1785   34.2144 O   0  0  0  0  0  0  0  0  0  0  0  0
   14.8618   14.7696   33.5790 H   0  0  0  0  0  0  0  0  0  0  0  0
   17.6809   17.7629   30.7254 C   0  0  0  0  0  0  0  0  0  0  0  0
   17.4364   17.4236   29.0216 S   0  0  0  0  0  0  0  0  0  0  0  0
   16.0840   13.6282   28.5348 O   0  0  0  0  0  0  0  0  0  0  0  0
   16.3473   16.1060   28.7949 C   0  0  0  0  0  0  0  0  0  0  0  0
   17.0471   14.7369   28.5821 C   0  0  0  0  0  0  0  0  0  0  0  0
   15.5391   16.2996   27.5244 C   0  0  0  0  0  0  0  0  0  0  0  0
   17.7856   14.6957   27.2674 C   0  0  0  0  0  0  0  0  0  0  0  0
   13.4899   17.1525   26.6340 C   0  0  0  0  0  0  0  0  0  0  0  0
   19.7004   13.9315   25.9752 C   0  0  0  0  0  0  0  0  0  0  0  0
   13.8750   16.7290   25.3510 C   0  0  0  0  0  0  0  0  0  0  0  0
   19.1467   14.5251   24.8177 C   0  0  0  0  0  0  0  0  0  0  0  0
   14.2891   16.9720   27.7295 C   0  0  0  0  0  0  0  0  0  0  0  0
   19.0360   14.0008   27.1975 C   0  0  0  0  0  0  0  0  0  0  0  0
   15.9480   15.8651   26.2557 C   0  0  0  0  0  0  0  0  0  0  0  0
   17.2243   15.2458   26.1508 C   0  0  0  0  0  0  0  0  0  0  0  0
   15.1160   16.1102   25.1641 C   0  0  0  0  0  0  0  0  0  0  0  0
   17.9088   15.1846   24.9045 C   0  0  0  0  0  0  0  0  0  0  0  0
   15.5763   13.6054   29.3610 H   0  0  0  0  0  0  0  0  0  0  0  0
 22 21  2  0  0  0
 21 18  1  0  0  0
 21 23  1  0  0  0
 17 18  1  0  0  0
  1  2  1  0  0  0
  2  4  1  0  0  0
  2  3  2  0  0  0
 12 11  1  0  0  0
 11  1  1  0  0  0
  8  7  2  0  0  0
  6  7  1  0  0  0
  7  9  1  0  0  0
  4  6  1  0  0  0
 27 29  1  0  0  0
 18 16  1  0  0  0
  1 25  1  0  0  0
 30 28  1  0  0  0
 28 26  1  0  0  0
 28 29  1  0  0  0
 29 31  1  0  0  0
 16 15  1  0  0  0
 26 25  1  0  0  0
 36 30  2  0  0  0
 30 38  1  0  0  0
 39 31  2  0  0  0
 31 37  1  0  0  0
 15 12  1  0  0  0
 13 12  2  0  0  0
 32 36  1  0  0  0
 32 34  2  0  0  0
 37 33  2  0  0  0
 35 33  1  0  0  0
 34 40  1  0  0  0
 41 35  2  0  0  0
 40 38  2  0  0  0
 38 39  1  0  0  0
 39 41  1  0  0  0
 17 19  1  0  0  0
 17 20  1  0  0  0
 11 14  1  0  0  0
  4  5  1  0  0  0
 27 42  1  0  0  0
 23 24  1  0  0  0
  9 10  1  0  0  0
M  END
> <minimizedAffinity>
-8.15840

$$$$
2GST_GPS_A_220


 42 44  0  0  0  0  0  0  0  0999 V2000
   17.6361   16.1220   31.0936 C   0  0  0  0  0  0  0  0  0  0  0  0
   17.7279   15.0252   32.2204 C   0  0  0  0  0  0  0  0  0  0  0  0
   18.7825   15.1592   32.8270 O   0  0  0  0  0  0  0  0  0  0  0  0
   16.9545   13.9491   32.0965 N   0  0  0  0  0  0  0  0  0  0  0  0
   16.3642   13.8538   31.3144 H   0  0  0  0  0  0  0  0  0  0  0  0
   16.9827   12.9032   33.1291 C   0  0  0  0  0  0  0  0  0  0  0  0
   16.3710   13.3670   34.4084 C   0  0  0  0  0  0  0  0  0  0  0  0
   16.9543   13.2027   35.5149 O   0  0  0  0  0  0  0  0  0  0  0  0
   15.1770   13.9409   34.3026 O   0  0  0  0  0  0  0  0  0  0  0  0
   14.7793   14.0432   33.4603 H   0  0  0  0  0  0  0  0  0  0  0  0
   16.4058   15.7873   30.3533 N   0  0  0  0  0  0  0  0  0  0  0  0
   16.3745   16.0726   29.0248 C   0  0  0  0  0  0  0  0  0  0  0  0
   17.4104   16.2063   28.3289 O   0  0  0  0  0  0  0  0  0  0  0  0
   15.6355   15.3724   30.8046 H   0  0  0  0  0  0  0  0  0  0  0  0
   14.9823   15.9775   28.4558 C   0  0  0  0  0  0  0  0  0  0  0  0
   14.9786   15.3679   27.0443 C   0  0  0  0  0  0  0  0  0  0  0  0
   12.8298   16.3902   26.4204 N   0  0  0  0  0  0  0  0  0  0  0  0
   14.3396   16.5207   26.1742 C   0  0  0  0  0  0  0  0  0  0  0  0
   12.3354   17.1066   25.8887 H   0  0  0  0  0  0  0  0  0  0  0  0
   12.6358   16.5101   27.4146 H   0  0  0  0  0  0  0  0  0  0  0  0
   14.6104   16.3639   24.7193 C   0  0  0  0  0  0  0  0  0  0  0  0
   15.8451   16.7651   24.2209 O   0  0  0  0  0  0  0  0  0  0  0  0
   13.9541   15.7288   23.8656 O   0  0  0  0  0  0  0  0  0  0  0  0
   13.1019   15.4021   24.0777 H   0  0  0  0  0  0  0  0  0  0  0  0
   17.2957   17.4514   31.8425 C   0  0  0  0  0  0  0  0  0  0  0  0
   18.1083   18.8772   31.2224 S   0  0  0  0  0  0  0  0  0  0  0  0
   21.9264   19.7565   32.2808 O   0  0  0  0  0  0  0  0  0  0  0  0
   19.8201   18.7416   31.3810 C   0  0  0  0  0  0  0  0  0  0  0  0
   20.4937   19.9754   32.0391 C   0  0  0  0  0  0  0  0  0  0  0  0
   20.4737   18.6604   30.0131 C   0  0  0  0  0  0  0  0  0  0  0  0
   20.4084   21.1891   31.1474 C   0  0  0  0  0  0  0  0  0  0  0  0
   21.2766   17.1664   28.3270 C   0  0  0  0  0  0  0  0  0  0  0  0
   20.1610   23.5994   30.9253 C   0  0  0  0  0  0  0  0  0  0  0  0
   21.6862   18.2652   27.5532 C   0  0  0  0  0  0  0  0  0  0  0  0
   20.3297   23.4804   29.5267 C   0  0  0  0  0  0  0  0  0  0  0  0
   20.6619   17.3199   29.5395 C   0  0  0  0  0  0  0  0  0  0  0  0
   20.2034   22.4742   31.7453 C   0  0  0  0  0  0  0  0  0  0  0  0
   20.8737   19.7750   29.2628 C   0  0  0  0  0  0  0  0  0  0  0  0
   20.6046   21.0636   29.8019 C   0  0  0  0  0  0  0  0  0  0  0  0
   21.4581   19.5665   28.0142 C   0  0  0  0  0  0  0  0  0  0  0  0
   20.5499   22.2120   28.9631 C   0  0  0  0  0  0  0  0  0  0  0  0
   22.0432   18.9822   32.8533 H   0  0  0  0  0  0  0  0  0  0  0  0
 22 21  2  0  0  0
 21 18  1  0  0  0
 21 23  1  0  0  0
 17 18  1  0  0  0
  1  2  1  0  0  0
  2  4  1  0  0  0
  2  3  2  0  0  0
 12 11  1  0  0  0
 11  1  1  0  0  0
  8  7  2  0  0  0
  6  7  1  0  0  0
  7  9  1  0  0  0
  4  6  1  0  0  0
 27 29  1  0  0  0
 18 16  1  0  0  0
  1 25  1  0  0  0
 30 28  1  0  0  0
 28 26  1  0  0  0
 28 29  1  0  0  0
 29 31  1  0  0  0
 16 15  1  0  0  0
 26 25  1  0  0  0
 36 30  2  0  0  0
 30 38  1  0  0  0
 39 31  2  0  0  0
 31 37  1  0  0  0
 15 12  1  0  0  0
 13 12  2  0  0  0
 32 36  1  0  0  0
 32 34  2  0  0  0
 37 33  2  0  0  0
 35 33  1  0  0  0
 34 40  1  0  0  0
 41 35  2  0  0  0
 40 38  2  0  0  0
 38 39  1  0  0  0
 39 41  1  0  0  0
 17 19  1  0  0  0
 17 20  1  0  0  0
 11 14  1  0  0  0
  4  5  1  0  0  0
 27 42  1  0  0  0
 23 24  1  0  0  0
  9 10  1  0  0  0
M  END
> <minimizedAffinity>
-8.14569

$$$$
2GST_GPS_A_220


 42 44  0  0  0  0  0  0  0  0999 V2000
   16.9487   16.6102   30.2072 C   0  0  0  0  0  0  0  0  0  0  0  0
   16.1367   16.5256   28.8602 C   0  0  0  0  0  0  0  0  0  0  0  0
   16.3786   17.5154   28.1820 O   0  0  0  0  0  0  0  0  0  0  0  0
   15.0811   15.7156   28.8275 N   0  0  0  0  0  0  0  0  0  0  0  0
   14.8247   15.2075   29.6309 H   0  0  0  0  0  0  0  0  0  0  0  0
   14.2986   15.5804   27.5905 C   0  0  0  0  0  0  0  0  0  0  0  0
   12.9751   16.2616   27.6915 C   0  0  0  0  0  0  0  0  0  0  0  0
   12.1276   15.9279   28.5644 O   0  0  0  0  0  0  0  0  0  0  0  0
   12.7489   17.2187   26.7976 O   0  0  0  0  0  0  0  0  0  0  0  0
   13.4065   17.4351   26.1663 H   0  0  0  0  0  0  0  0  0  0  0  0
   17.8771   15.4664   30.1499 N   0  0  0  0  0  0  0  0  0  0  0  0
   18.1796   14.8434   31.3195 C   0  0  0  0  0  0  0  0  0  0  0  0
   17.4432   14.8978   32.3343 O   0  0  0  0  0  0  0  0  0  0  0  0
   18.2636   15.1649   29.2961 H   0  0  0  0  0  0  0  0  0  0  0  0
   19.3555   13.9113   31.1792 C   0  0  0  0  0  0  0  0  0  0  0  0
   19.3779   13.2165   29.8078 C   0  0  0  0  0  0  0  0  0  0  0  0
   19.1898   10.7640   29.7709 N   0  0  0  0  0  0  0  0  0  0  0  0
   18.3544   12.0304   30.0070 C   0  0  0  0  0  0  0  0  0  0  0  0
   18.5979    9.9407   29.8816 H   0  0  0  0  0  0  0  0  0  0  0  0
   19.9519   10.7283   30.4479 H   0  0  0  0  0  0  0  0  0  0  0  0
   17.2342   12.0636   29.0280 C   0  0  0  0  0  0  0  0  0  0  0  0
   16.9666   10.9238   28.2775 O   0  0  0  0  0  0  0  0  0  0  0  0
   16.3342   12.9216   28.8980 O   0  0  0  0  0  0  0  0  0  0  0  0
   16.3960   13.7380   29.3536 H   0  0  0  0  0  0  0  0  0  0  0  0
   17.8642   17.8684   30.0554 C   0  0  0  0  0  0  0  0  0  0  0  0
   18.4516   18.5407   31.5657 S   0  0  0  0  0  0  0  0  0  0  0  0
   22.2503   19.7528   32.3219 O   0  0  0  0  0  0  0  0  0  0  0  0
   20.1750   18.5339   31.6265 C   0  0  0  0  0  0  0  0  0  0  0  0
   20.7941   19.8554   32.1553 C   0  0  0  0  0  0  0  0  0  0  0  0
   20.7535   18.3979   30.2295 C   0  0  0  0  0  0  0  0  0  0  0  0
   20.5704   20.9922   31.1893 C   0  0  0  0  0  0  0  0  0  0  0  0
   21.5648   16.8432   28.6034 C   0  0  0  0  0  0  0  0  0  0  0  0
   20.1371   23.3575   30.8180 C   0  0  0  0  0  0  0  0  0  0  0  0
   21.8489   17.9080   27.7320 C   0  0  0  0  0  0  0  0  0  0  0  0
   20.2337   23.1486   29.4231 C   0  0  0  0  0  0  0  0  0  0  0  0
   21.0108   17.0424   29.8383 C   0  0  0  0  0  0  0  0  0  0  0  0
   20.3075   22.3006   31.7092 C   0  0  0  0  0  0  0  0  0  0  0  0
   21.0284   19.4795   29.3810 C   0  0  0  0  0  0  0  0  0  0  0  0
   20.6980   20.7826   29.8461 C   0  0  0  0  0  0  0  0  0  0  0  0
   21.5540   19.2209   28.1158 C   0  0  0  0  0  0  0  0  0  0  0  0
   20.5125   21.8605   28.9353 C   0  0  0  0  0  0  0  0  0  0  0  0
   22.4553   19.0320   32.9379 H   0  0  0  0  0  0  0  0  0  0  0  0
 22 21  2  0  0  0
 21 18  1  0  0  0
 21 23  1  0  0  0
 17 18  1  0  0  0
  1  2  1  0  0  0
  2  4  1  0  0  0
  2  3  2  0  0  0
 12 11  1  0  0  0
 11  1  1  0  0  0
  8  7  2  0  0  0
  6  7  1  0  0  0
  7  9  1  0  0  0
  4  6  1  0  0  0
 27 29  1  0  0  0
 18 16  1  0  0  0
  1 25  1  0  0  0
 30 28  1  0  0  0
 28 26  1  0  0  0
 28 29  1  0  0  0
 29 31  1  0  0  0
 16 15  1  0  0  0
 26 25  1  0  0  0
 36 30  2  0  0  0
 30 38  1  0  0  0
 39 31  2  0  0  0
 31 37  1  0  0  0
 15 12  1  0  0  0
 13 12  2  0  0  0
 32 36  1  0  0  0
 32 34  2  0  0  0
 37 33  2  0  0  0
 35 33  1  0  0  0
 34 40  1  0  0  0
 41 35  2  0  0  0
 40 38  2  0  0  0
 38 39  1  0  0  0
 39 41  1  0  0  0
 17 19  1  0  0  0
 17 20  1  0  0  0
 11 14  1  0  0  0
  4  5  1  0  0  0
 27 42  1  0  0  0
 23 24  1  0  0  0
  9 10  1  0  0  0
M  END
> <minimizedAffinity>
-8.02688

$$$$
2GST_GPS_A_220


 42 44  0  0  0  0  0  0  0  0999 V2000
   17.9342   12.9998   29.6324 C   0  0  0  0  0  0  0  0  0  0  0  0
   17.3103   11.5734   29.3938 C   0  0  0  0  0  0  0  0  0  0  0  0
   17.3111   11.3295   28.1944 O   0  0  0  0  0  0  0  0  0  0  0  0
   16.5478   11.0656   30.3594 N   0  0  0  0  0  0  0  0  0  0  0  0
   16.3798   11.5845   31.1790 H   0  0  0  0  0  0  0  0  0  0  0  0
   15.9567    9.7291   30.2005 C   0  0  0  0  0  0  0  0  0  0  0  0
   14.5656    9.7954   29.6655 C   0  0  0  0  0  0  0  0  0  0  0  0
   13.5647    9.5953   30.4068 O   0  0  0  0  0  0  0  0  0  0  0  0
   14.4584   10.0584   28.3671 O   0  0  0  0  0  0  0  0  0  0  0  0
   15.2286   10.2008   27.8528 H   0  0  0  0  0  0  0  0  0  0  0  0
   16.8469   13.9378   29.2984 N   0  0  0  0  0  0  0  0  0  0  0  0
   17.1973   15.1796   28.8711 C   0  0  0  0  0  0  0  0  0  0  0  0
   18.3160   15.4387   28.3644 O   0  0  0  0  0  0  0  0  0  0  0  0
   15.9020   13.6744   29.3817 H   0  0  0  0  0  0  0  0  0  0  0  0
   16.0270   16.1289   28.8626 C   0  0  0  0  0  0  0  0  0  0  0  0
   15.5466   16.4365   27.4348 C   0  0  0  0  0  0  0  0  0  0  0  0
   14.5421   14.9676   25.7363 N   0  0  0  0  0  0  0  0  0  0  0  0
   14.4120   15.3602   27.2149 C   0  0  0  0  0  0  0  0  0  0  0  0
   13.8370   14.2670   25.5073 H   0  0  0  0  0  0  0  0  0  0  0  0
   15.4714   14.5826   25.5673 H   0  0  0  0  0  0  0  0  0  0  0  0
   13.0472   15.9023   27.4559 C   0  0  0  0  0  0  0  0  0  0  0  0
   12.2039   15.2280   28.3323 O   0  0  0  0  0  0  0  0  0  0  0  0
   12.5797   17.0159   27.1330 O   0  0  0  0  0  0  0  0  0  0  0  0
   13.0538   17.5704   26.5450 H   0  0  0  0  0  0  0  0  0  0  0  0
   18.0972   13.1217   31.1824 C   0  0  0  0  0  0  0  0  0  0  0  0
   19.5917   13.8734   31.7109 S   0  0  0  0  0  0  0  0  0  0  0  0
   18.0392   15.6908   34.9909 O   0  0  0  0  0  0  0  0  0  0  0  0
   19.4562   14.4726   33.3222 C   0  0  0  0  0  0  0  0  0  0  0  0
   18.1823   15.3223   33.5757 C   0  0  0  0  0  0  0  0  0  0  0  0
   20.5948   15.4288   33.6290 C   0  0  0  0  0  0  0  0  0  0  0  0
   18.2297   16.6241   32.8151 C   0  0  0  0  0  0  0  0  0  0  0  0
   22.7902   15.6032   34.5615 C   0  0  0  0  0  0  0  0  0  0  0  0
   17.0549   18.3623   31.5827 C   0  0  0  0  0  0  0  0  0  0  0  0
   22.7822   16.9859   34.3131 C   0  0  0  0  0  0  0  0  0  0  0  0
   18.2636   19.0865   31.4666 C   0  0  0  0  0  0  0  0  0  0  0  0
   21.7363   14.7981   34.2256 C   0  0  0  0  0  0  0  0  0  0  0  0
   17.0183   17.1422   32.2536 C   0  0  0  0  0  0  0  0  0  0  0  0
   20.5590   16.8063   33.3712 C   0  0  0  0  0  0  0  0  0  0  0  0
   19.3970   17.3284   32.7381 C   0  0  0  0  0  0  0  0  0  0  0  0
   21.6752   17.5769   33.6940 C   0  0  0  0  0  0  0  0  0  0  0  0
   19.4365   18.5695   32.0426 C   0  0  0  0  0  0  0  0  0  0  0  0
   18.0031   14.8868   35.5323 H   0  0  0  0  0  0  0  0  0  0  0  0
 22 21  2  0  0  0
 21 18  1  0  0  0
 21 23  1  0  0  0
 17 18  1  0  0  0
  1  2  1  0  0  0
  2  4  1  0  0  0
  2  3  2  0  0  0
 12 11  1  0  0  0
 11  1  1  0  0  0
  8  7  2  0  0  0
  6  7  1  0  0  0
  7  9  1  0  0  0
  4  6  1  0  0  0
 27 29  1  0  0  0
 18 16  1  0  0  0
  1 25  1  0  0  0
 30 28  1  0  0  0
 28 26  1  0  0  0
 28 29  1  0  0  0
 29 31  1  0  0  0
 16 15  1  0  0  0
 26 25  1  0  0  0
 36 30  2  0  0  0
 30 38  1  0  0  0
 39 31  2  0  0  0
 31 37  1  0  0  0
 15 12  1  0  0  0
 13 12  2  0  0  0
 32 36  1  0  0  0
 32 34  2  0  0  0
 37 33  2  0  0  0
 35 33  1  0  0  0
 34 40  1  0  0  0
 41 35  2  0  0  0
 40 38  2  0  0  0
 38 39  1  0  0  0
 39 41  1  0  0  0
 17 19  1  0  0  0
 17 20  1  0  0  0
 11 14  1  0  0  0
  4  5  1  0  0  0
 27 42  1  0  0  0
 23 24  1  0  0  0
  9 10  1  0  0  0
M  END
> <minimizedAffinity>
-8.01416

$$$$
2GST_GPS_A_220


 42 44  0  0  0  0  0  0  0  0999 V2000
   20.6691   18.2518   28.9627 C   0  0  0  0  0  0  0  0  0  0  0  0
   20.7311   19.8253   28.9248 C   0  0  0  0  0  0  0  0  0  0  0  0
   21.7497   20.1737   28.3424 O   0  0  0  0  0  0  0  0  0  0  0  0
   19.9924   20.4920   29.8087 N   0  0  0  0  0  0  0  0  0  0  0  0
   19.4453   20.0012   30.4638 H   0  0  0  0  0  0  0  0  0  0  0  0
   19.9944   21.9620   29.8057 C   0  0  0  0  0  0  0  0  0  0  0  0
   20.1594   22.5214   31.1790 C   0  0  0  0  0  0  0  0  0  0  0  0
   21.2852   22.8983   31.6056 O   0  0  0  0  0  0  0  0  0  0  0  0
   19.0551   22.5765   31.9163 O   0  0  0  0  0  0  0  0  0  0  0  0
   18.2387   22.2859   31.5598 H   0  0  0  0  0  0  0  0  0  0  0  0
   19.2713   17.9469   29.3187 N   0  0  0  0  0  0  0  0  0  0  0  0
   19.0305   17.4725   30.5694 C   0  0  0  0  0  0  0  0  0  0  0  0
   19.8105   17.6603   31.5345 O   0  0  0  0  0  0  0  0  0  0  0  0
   18.5393   18.0819   28.6743 H   0  0  0  0  0  0  0  0  0  0  0  0
   17.6382   16.9126   30.7065 C   0  0  0  0  0  0  0  0  0  0  0  0
   17.0119   17.2560   32.0681 C   0  0  0  0  0  0  0  0  0  0  0  0
   15.7558   15.5053   33.2549 N   0  0  0  0  0  0  0  0  0  0  0  0
   17.1874   15.9104   32.8760 C   0  0  0  0  0  0  0  0  0  0  0  0
   15.7780   14.6347   33.7860 H   0  0  0  0  0  0  0  0  0  0  0  0
   15.2043   15.3725   32.4072 H   0  0  0  0  0  0  0  0  0  0  0  0
   17.9889   16.0827   34.1180 C   0  0  0  0  0  0  0  0  0  0  0  0
   17.7514   15.2315   35.1918 O   0  0  0  0  0  0  0  0  0  0  0  0
   19.0157   16.7732   34.2967 O   0  0  0  0  0  0  0  0  0  0  0  0
   19.2858   17.3887   33.6440 H   0  0  0  0  0  0  0  0  0  0  0  0
   20.8032   17.8005   27.4719 C   0  0  0  0  0  0  0  0  0  0  0  0
   19.2811   17.5265   26.6436 S   0  0  0  0  0  0  0  0  0  0  0  0
   18.1735   14.2806   24.4737 O   0  0  0  0  0  0  0  0  0  0  0  0
   19.1232   15.8817   26.1503 C   0  0  0  0  0  0  0  0  0  0  0  0
   18.1668   15.6720   24.9459 C   0  0  0  0  0  0  0  0  0  0  0  0
   18.4955   15.0547   27.2579 C   0  0  0  0  0  0  0  0  0  0  0  0
   16.7368   15.9716   25.3210 C   0  0  0  0  0  0  0  0  0  0  0  0
   18.9588   13.6502   29.1374 C   0  0  0  0  0  0  0  0  0  0  0  0
   14.5560   16.8474   24.6907 C   0  0  0  0  0  0  0  0  0  0  0  0
   17.5802   13.4629   29.3329 C   0  0  0  0  0  0  0  0  0  0  0  0
   14.0465   16.4670   25.9535 C   0  0  0  0  0  0  0  0  0  0  0  0
   19.4501   14.4396   28.1338 C   0  0  0  0  0  0  0  0  0  0  0  0
   15.8864   16.6038   24.3575 C   0  0  0  0  0  0  0  0  0  0  0  0
   17.1146   14.8839   27.4287 C   0  0  0  0  0  0  0  0  0  0  0  0
   16.2496   15.5703   26.5319 C   0  0  0  0  0  0  0  0  0  0  0  0
   16.6632   14.1032   28.4921 C   0  0  0  0  0  0  0  0  0  0  0  0
   14.8932   15.8296   26.8763 C   0  0  0  0  0  0  0  0  0  0  0  0
   19.0748   14.0307   24.2166 H   0  0  0  0  0  0  0  0  0  0  0  0
 22 21  2  0  0  0
 21 18  1  0  0  0
 21 23  1  0  0  0
 17 18  1  0  0  0
  1  2  1  0  0  0
  2  4  1  0  0  0
  2  3  2  0  0  0
 12 11  1  0  0  0
 11  1  1  0  0  0
  8  7  2  0  0  0
  6  7  1  0  0  0
  7  9  1  0  0  0
  4  6  1  0  0  0
 27 29  1  0  0  0
 18 16  1  0  0  0
  1 25  1  0  0  0
 30 28  1  0  0  0
 28 26  1  0  0  0
 28 29  1  0  0  0
 29 31  1  0  0  0
 16 15  1  0  0  0
 26 25  1  0  0  0
 36 30  2  0  0  0
 30 38  1  0  0  0
 39 31  2  0  0  0
 31 37  1  0  0  0
 15 12  1  0  0  0
 13 12  2  0  0  0
 32 36  1  0  0  0
 32 34  2  0  0  0
 37 33  2  0  0  0
 35 33  1  0  0  0
 34 40  1  0  0  0
 41 35  2  0  0  0
 40 38  2  0  0  0
 38 39  1  0  0  0
 39 41  1  0  0  0
 17 19  1  0  0  0
 17 20  1  0  0  0
 11 14  1  0  0  0
  4  5  1  0  0  0
 27 42  1  0  0  0
 23 24  1  0  0  0
  9 10  1  0  0  0
M  END
> <minimizedAffinity>
-7.91042

$$$$
2GST_GPS_A_220


 42 44  0  0  0  0  0  0  0  0999 V2000
   18.1343   14.1554   29.8500 C   0  0  0  0  0  0  0  0  0  0  0  0
   18.0142   13.6982   31.3525 C   0  0  0  0  0  0  0  0  0  0  0  0
   18.1914   12.4890   31.4204 O   0  0  0  0  0  0  0  0  0  0  0  0
   17.3735   14.5074   32.1929 N   0  0  0  0  0  0  0  0  0  0  0  0
   16.9830   15.3495   31.8649 H   0  0  0  0  0  0  0  0  0  0  0  0
   17.2495   14.1421   33.6114 C   0  0  0  0  0  0  0  0  0  0  0  0
   16.3365   15.0652   34.3464 C   0  0  0  0  0  0  0  0  0  0  0  0
   15.0903   14.8718   34.3781 O   0  0  0  0  0  0  0  0  0  0  0  0
   16.9195   16.1009   34.9413 O   0  0  0  0  0  0  0  0  0  0  0  0
   17.8492   16.2067   34.8928 H   0  0  0  0  0  0  0  0  0  0  0  0
   17.0309   15.1162   29.6682 N   0  0  0  0  0  0  0  0  0  0  0  0
   16.1834   14.9099   28.6258 C   0  0  0  0  0  0  0  0  0  0  0  0
   16.0255   13.7891   28.0836 O   0  0  0  0  0  0  0  0  0  0  0  0
   16.9124   15.8789   30.2793 H   0  0  0  0  0  0  0  0  0  0  0  0
   15.3056   16.1061   28.3619 C   0  0  0  0  0  0  0  0  0  0  0  0
   14.0650   15.7367   27.5322 C   0  0  0  0  0  0  0  0  0  0  0  0
   12.8135   16.7063   25.6493 N   0  0  0  0  0  0  0  0  0  0  0  0
   14.2244   16.6478   26.2521 C   0  0  0  0  0  0  0  0  0  0  0  0
   12.8269   17.2825   24.8077 H   0  0  0  0  0  0  0  0  0  0  0  0
   12.1700   17.1119   26.3288 H   0  0  0  0  0  0  0  0  0  0  0  0
   15.1592   16.0732   25.2469 C   0  0  0  0  0  0  0  0  0  0  0  0
   15.6092   16.8839   24.2104 O   0  0  0  0  0  0  0  0  0  0  0  0
   15.7833   14.9908   25.2883 O   0  0  0  0  0  0  0  0  0  0  0  0
   15.5746   14.3544   25.9435 H   0  0  0  0  0  0  0  0  0  0  0  0
   19.4301   15.0278   29.7895 C   0  0  0  0  0  0  0  0  0  0  0  0
   19.1537   16.7602   29.7700 S   0  0  0  0  0  0  0  0  0  0  0  0
   20.1458   17.1155   25.8507 O   0  0  0  0  0  0  0  0  0  0  0  0
   19.2284   17.3887   28.1659 C   0  0  0  0  0  0  0  0  0  0  0  0
   20.2200   16.6372   27.2380 C   0  0  0  0  0  0  0  0  0  0  0  0
   19.7548   18.8126   28.1791 C   0  0  0  0  0  0  0  0  0  0  0  0
   21.6488   16.8531   27.6709 C   0  0  0  0  0  0  0  0  0  0  0  0
   19.1242   21.1187   28.2369 C   0  0  0  0  0  0  0  0  0  0  0  0
   23.9054   15.9787   27.9229 C   0  0  0  0  0  0  0  0  0  0  0  0
   20.4786   21.4872   28.1766 C   0  0  0  0  0  0  0  0  0  0  0  0
   24.3356   17.2431   28.3865 C   0  0  0  0  0  0  0  0  0  0  0  0
   18.7269   19.8098   28.2547 C   0  0  0  0  0  0  0  0  0  0  0  0
   22.5777   15.7689   27.5575 C   0  0  0  0  0  0  0  0  0  0  0  0
   21.1137   19.1515   28.1166 C   0  0  0  0  0  0  0  0  0  0  0  0
   22.0577   18.0878   28.0866 C   0  0  0  0  0  0  0  0  0  0  0  0
   21.4692   20.4995   28.1435 C   0  0  0  0  0  0  0  0  0  0  0  0
   23.4118   18.2988   28.4707 C   0  0  0  0  0  0  0  0  0  0  0  0
   19.2423   17.0005   25.5169 H   0  0  0  0  0  0  0  0  0  0  0  0
 22 21  2  0  0  0
 21 18  1  0  0  0
 21 23  1  0  0  0
 17 18  1  0  0  0
  1  2  1  0  0  0
  2  4  1  0  0  0
  2  3  2  0  0  0
 12 11  1  0  0  0
 11  1  1  0  0  0
  8  7  2  0  0  0
  6  7  1  0  0  0
  7  9  1  0  0  0
  4  6  1  0  0  0
 27 29  1  0  0  0
 18 16  1  0  0  0
  1 25  1  0  0  0
 30 28  1  0  0  0
 28 26  1  0  0  0
 28 29  1  0  0  0
 29 31  1  0  0  0
 16 15  1  0  0  0
 26 25  1  0  0  0
 36 30  2  0  0  0
 30 38  1  0  0  0
 39 31  2  0  0  0
 31 37  1  0  0  0
 15 12  1  0  0  0
 13 12  2  0  0  0
 32 36  1  0  0  0
 32 34  2  0  0  0
 37 33  2  0  0  0
 35 33  1  0  0  0
 34 40  1  0  0  0
 41 35  2  0  0  0
 40 38  2  0  0  0
 38 39  1  0  0  0
 39 41  1  0  0  0
 17 19  1  0  0  0
 17 20  1  0  0  0
 11 14  1  0  0  0
  4  5  1  0  0  0
 27 42  1  0  0  0
 23 24  1  0  0  0
  9 10  1  0  0  0
M  END
> <minimizedAffinity>
-7.90388

$$$$
2GST_GPS_A_220


 42 44  0  0  0  0  0  0  0  0999 V2000
   17.4080   16.8673   30.8163 C   0  0  0  0  0  0  0  0  0  0  0  0
   17.0917   16.5085   32.3171 C   0  0  0  0  0  0  0  0  0  0  0  0
   17.7223   17.2579   33.0512 O   0  0  0  0  0  0  0  0  0  0  0  0
   16.5920   15.3009   32.5692 N   0  0  0  0  0  0  0  0  0  0  0  0
   16.4465   14.6641   31.8326 H   0  0  0  0  0  0  0  0  0  0  0  0
   16.2577   14.9192   33.9489 C   0  0  0  0  0  0  0  0  0  0  0  0
   17.2070   13.9040   34.4913 C   0  0  0  0  0  0  0  0  0  0  0  0
   18.3610   13.7550   34.0042 O   0  0  0  0  0  0  0  0  0  0  0  0
   16.7498   13.1661   35.4977 O   0  0  0  0  0  0  0  0  0  0  0  0
   15.8854   13.3102   35.8295 H   0  0  0  0  0  0  0  0  0  0  0  0
   16.1209   16.6966   30.1178 N   0  0  0  0  0  0  0  0  0  0  0  0
   16.1225   15.9776   28.9643 C   0  0  0  0  0  0  0  0  0  0  0  0
   17.0115   15.1377   28.6826 O   0  0  0  0  0  0  0  0  0  0  0  0
   15.2911   17.0888   30.4737 H   0  0  0  0  0  0  0  0  0  0  0  0
   14.8365   16.1354   28.1947 C   0  0  0  0  0  0  0  0  0  0  0  0
   14.8235   15.2818   26.9159 C   0  0  0  0  0  0  0  0  0  0  0  0
   12.9825   16.5554   25.8959 N   0  0  0  0  0  0  0  0  0  0  0  0
   14.5003   16.3468   25.7954 C   0  0  0  0  0  0  0  0  0  0  0  0
   12.6861   17.2375   25.1979 H   0  0  0  0  0  0  0  0  0  0  0  0
   12.7473   16.8980   26.8275 H   0  0  0  0  0  0  0  0  0  0  0  0
   14.8356   15.8660   24.4276 C   0  0  0  0  0  0  0  0  0  0  0  0
   15.9870   16.3455   23.8127 O   0  0  0  0  0  0  0  0  0  0  0  0
   14.3331   14.9172   23.7871 O   0  0  0  0  0  0  0  0  0  0  0  0
   13.5513   14.5044   24.0974 H   0  0  0  0  0  0  0  0  0  0  0  0
   17.6589   18.4103   30.8081 C   0  0  0  0  0  0  0  0  0  0  0  0
   18.1258   19.0742   29.2527 S   0  0  0  0  0  0  0  0  0  0  0  0
   21.5291   21.1200   28.4138 O   0  0  0  0  0  0  0  0  0  0  0  0
   19.4272   20.1939   29.4144 C   0  0  0  0  0  0  0  0  0  0  0  0
   20.5174   20.0587   28.3178 C   0  0  0  0  0  0  0  0  0  0  0  0
   20.1828   19.9444   30.7073 C   0  0  0  0  0  0  0  0  0  0  0  0
   21.2718   18.7591   28.4502 C   0  0  0  0  0  0  0  0  0  0  0  0
   20.3620   20.5737   33.0076 C   0  0  0  0  0  0  0  0  0  0  0  0
   22.4085   16.8906   27.3839 C   0  0  0  0  0  0  0  0  0  0  0  0
   21.4380   19.6841   33.1637 C   0  0  0  0  0  0  0  0  0  0  0  0
   22.7517   16.3821   28.6577 C   0  0  0  0  0  0  0  0  0  0  0  0
   19.7070   20.7204   31.8155 C   0  0  0  0  0  0  0  0  0  0  0  0
   21.6803   18.0718   27.2620 C   0  0  0  0  0  0  0  0  0  0  0  0
   21.2551   19.0503   30.8341 C   0  0  0  0  0  0  0  0  0  0  0  0
   21.6239   18.2963   29.6857 C   0  0  0  0  0  0  0  0  0  0  0  0
   21.8625   18.9062   32.0808 C   0  0  0  0  0  0  0  0  0  0  0  0
   22.3582   17.0834   29.8102 C   0  0  0  0  0  0  0  0  0  0  0  0
   21.0982   21.9855   28.3346 H   0  0  0  0  0  0  0  0  0  0  0  0
 22 21  2  0  0  0
 21 18  1  0  0  0
 21 23  1  0  0  0
 17 18  1  0  0  0
  1  2  1  0  0  0
  2  4  1  0  0  0
  2  3  2  0  0  0
 12 11  1  0  0  0
 11  1  1  0  0  0
  8  7  2  0  0  0
  6  7  1  0  0  0
  7  9  1  0  0  0
  4  6  1  0  0  0
 27 29  1  0  0  0
 18 16  1  0  0  0
  1 25  1  0  0  0
 30 28  1  0  0  0
 28 26  1  0  0  0
 28 29  1  0  0  0
 29 31  1  0  0  0
 16 15  1  0  0  0
 26 25  1  0  0  0
 36 30  2  0  0  0
 30 38  1  0  0  0
 39 31  2  0  0  0
 31 37  1  0  0  0
 15 12  1  0  0  0
 13 12  2  0  0  0
 32 36  1  0  0  0
 32 34  2  0  0  0
 37 33  2  0  0  0
 35 33  1  0  0  0
 34 40  1  0  0  0
 41 35  2  0  0  0
 40 38  2  0  0  0
 38 39  1  0  0  0
 39 41  1  0  0  0
 17 19  1  0  0  0
 17 20  1  0  0  0
 11 14  1  0  0  0
  4  5  1  0  0  0
 27 42  1  0  0  0
 23 24  1  0  0  0
  9 10  1  0  0  0
M  END
> <minimizedAffinity>
-7.84162

$$$$
