6GJJ_L36_A_201


 23 23  0  0  0  0  0  0  0  0999 V2000
   -0.5125   17.8973   -6.6507 O   0  0  0  0  0  0  0  0  0  0  0  0
   -1.0540   18.3697   -5.6523 C   0  0  0  0  0  0  0  0  0  0  0  0
   -1.0235   17.7277   -4.4881 N   0  0  0  0  0  0  0  0  0  0  0  0
   -1.6888   19.5371   -5.7054 N   0  0  0  0  0  0  0  0  0  0  0  0
   -1.5116   18.1018   -3.7193 H   0  0  0  0  0  0  0  0  0  0  0  0
   -2.1161   20.2376   -4.5041 C   0  0  0  0  0  0  0  0  0  0  0  0
   -1.6704   21.6817   -4.5744 C   0  0  0  0  0  0  0  0  0  0  0  0
   -0.2874   16.4895   -4.3256 C   0  0  0  0  0  0  0  0  0  0  0  0
   -1.1517   15.2868   -4.6192 C   0  0  0  0  0  0  0  0  0  0  0  0
   -2.3571   15.3165   -4.8029 O   0  0  0  0  0  0  0  0  0  0  0  0
   -0.4293   14.1699   -4.6557 O   0  0  0  0  0  0  0  0  0  0  0  0
   -1.0580   12.9240   -4.9501 C   0  0  0  0  0  0  0  0  0  0  0  0
   -0.0008   11.8557   -5.1269 C   0  0  0  0  0  0  0  0  0  0  0  0
   -1.9965   20.1926   -6.9673 C   0  0  0  0  0  0  0  0  0  0  0  0
   -3.4299   19.9960   -7.4031 C   0  0  0  0  0  0  0  0  0  0  0  0
   -3.8670   18.7403   -7.8093 C   0  0  0  0  0  0  0  0  0  0  0  0
   -5.1862   18.5600   -8.2111 C   0  0  0  0  0  0  0  0  0  0  0  0
   -6.0669   19.6344   -8.2063 C   0  0  0  0  0  0  0  0  0  0  0  0
   -7.3520   19.4581   -8.5977 N   0  0  0  0  0  0  0  0  0  0  0  0
   -5.6298   20.8901   -7.8001 C   0  0  0  0  0  0  0  0  0  0  0  0
   -4.3117   21.0705   -7.3992 C   0  0  0  0  0  0  0  0  0  0  0  0
   -7.6614   18.5689   -8.8852 H   0  0  0  0  0  0  0  0  0  0  0  0
   -7.9764   20.2193   -8.5944 H   0  0  0  0  0  0  0  0  0  0  0  0
 19 18  1  0  0  0
 18 17  2  0  0  0
 18 20  1  0  0  0
 17 16  1  0  0  0
 20 21  2  0  0  0
 16 15  2  0  0  0
 21 15  1  0  0  0
 15 14  1  0  0  0
 14  4  1  0  0  0
  1  2  2  0  0  0
  4  2  1  0  0  0
  4  6  1  0  0  0
  2  3  1  0  0  0
 10  9  2  0  0  0
 12 13  1  0  0  0
 12 11  1  0  0  0
  6  7  1  0  0  0
 11  9  1  0  0  0
  9  8  1  0  0  0
  3  8  1  0  0  0
  3  5  1  0  0  0
 19 22  1  0  0  0
 19 23  1  0  0  0
M  END
> <minimizedAffinity>
-6.04863

$$$$
6GJJ_L36_A_201


 23 23  0  0  0  0  0  0  0  0999 V2000
   -1.5730   16.3544   -6.3103 O   0  0  0  0  0  0  0  0  0  0  0  0
   -1.5439   17.2509   -5.4684 C   0  0  0  0  0  0  0  0  0  0  0  0
   -1.5474   16.9701   -4.1685 N   0  0  0  0  0  0  0  0  0  0  0  0
   -1.5095   18.5299   -5.8311 N   0  0  0  0  0  0  0  0  0  0  0  0
   -1.5793   17.7075   -3.5170 H   0  0  0  0  0  0  0  0  0  0  0  0
   -1.2224   19.5932   -4.8806 C   0  0  0  0  0  0  0  0  0  0  0  0
    0.1476   20.1692   -5.1638 C   0  0  0  0  0  0  0  0  0  0  0  0
   -1.5053   15.6026   -3.6894 C   0  0  0  0  0  0  0  0  0  0  0  0
   -0.0990   15.0535   -3.6992 C   0  0  0  0  0  0  0  0  0  0  0  0
    0.8737   15.6056   -3.2125 O   0  0  0  0  0  0  0  0  0  0  0  0
   -0.0452   13.8735   -4.3119 O   0  0  0  0  0  0  0  0  0  0  0  0
   -0.8043   12.7750   -3.8104 C   0  0  0  0  0  0  0  0  0  0  0  0
   -0.2936   11.4887   -4.4226 C   0  0  0  0  0  0  0  0  0  0  0  0
   -1.7546   18.9512   -7.2019 C   0  0  0  0  0  0  0  0  0  0  0  0
   -3.2053   19.2768   -7.4715 C   0  0  0  0  0  0  0  0  0  0  0  0
   -3.6982   20.5445   -7.1840 C   0  0  0  0  0  0  0  0  0  0  0  0
   -5.0337   20.8436   -7.4316 C   0  0  0  0  0  0  0  0  0  0  0  0
   -5.8746   19.8758   -7.9664 C   0  0  0  0  0  0  0  0  0  0  0  0
   -7.1756   20.1677   -8.2077 N   0  0  0  0  0  0  0  0  0  0  0  0
   -5.3817   18.6081   -8.2540 C   0  0  0  0  0  0  0  0  0  0  0  0
   -4.0476   18.3089   -8.0061 C   0  0  0  0  0  0  0  0  0  0  0  0
   -7.5246   21.0655   -8.0040 H   0  0  0  0  0  0  0  0  0  0  0  0
   -7.7719   19.4821   -8.5866 H   0  0  0  0  0  0  0  0  0  0  0  0
 19 18  1  0  0  0
 18 17  2  0  0  0
 18 20  1  0  0  0
 17 16  1  0  0  0
 20 21  2  0  0  0
 16 15  2  0  0  0
 21 15  1  0  0  0
 15 14  1  0  0  0
 14  4  1  0  0  0
  1  2  2  0  0  0
  4  2  1  0  0  0
  4  6  1  0  0  0
  2  3  1  0  0  0
 10  9  2  0  0  0
 12 13  1  0  0  0
 12 11  1  0  0  0
  6  7  1  0  0  0
 11  9  1  0  0  0
  9  8  1  0  0  0
  3  8  1  0  0  0
  3  5  1  0  0  0
 19 22  1  0  0  0
 19 23  1  0  0  0
M  END
> <minimizedAffinity>
-5.80457

$$$$
6GJJ_L36_A_201


 23 23  0  0  0  0  0  0  0  0999 V2000
   -4.0576   20.8066   -6.5531 O   0  0  0  0  0  0  0  0  0  0  0  0
   -4.4762   19.9304   -7.3084 C   0  0  0  0  0  0  0  0  0  0  0  0
   -3.6486   19.0438   -7.8540 N   0  0  0  0  0  0  0  0  0  0  0  0
   -5.7696   19.8424   -7.6047 N   0  0  0  0  0  0  0  0  0  0  0  0
   -4.0022   18.3880   -8.4975 H   0  0  0  0  0  0  0  0  0  0  0  0
   -6.3280   18.6824   -8.2822 C   0  0  0  0  0  0  0  0  0  0  0  0
   -6.3968   18.9493   -9.7698 C   0  0  0  0  0  0  0  0  0  0  0  0
   -2.2376   19.0214   -7.5224 C   0  0  0  0  0  0  0  0  0  0  0  0
   -1.9548   18.1017   -6.3589 C   0  0  0  0  0  0  0  0  0  0  0  0
   -2.2848   16.9292   -6.2945 O   0  0  0  0  0  0  0  0  0  0  0  0
   -1.2896   18.7328   -5.3946 O   0  0  0  0  0  0  0  0  0  0  0  0
   -0.7901   20.0500   -5.6181 C   0  0  0  0  0  0  0  0  0  0  0  0
   -1.2351   20.9555   -4.4901 C   0  0  0  0  0  0  0  0  0  0  0  0
   -6.7125   20.8986   -7.2701 C   0  0  0  0  0  0  0  0  0  0  0  0
   -6.9521   21.8621   -8.4092 C   0  0  0  0  0  0  0  0  0  0  0  0
   -5.8831   22.5437   -8.9796 C   0  0  0  0  0  0  0  0  0  0  0  0
   -6.1041   23.4310  -10.0274 C   0  0  0  0  0  0  0  0  0  0  0  0
   -7.3929   23.6358  -10.5041 C   0  0  0  0  0  0  0  0  0  0  0  0
   -7.6076   24.5002  -11.5252 N   0  0  0  0  0  0  0  0  0  0  0  0
   -8.4619   22.9542   -9.9337 C   0  0  0  0  0  0  0  0  0  0  0  0
   -8.2413   22.0681   -8.8864 C   0  0  0  0  0  0  0  0  0  0  0  0
   -6.8505   24.9828  -11.9290 H   0  0  0  0  0  0  0  0  0  0  0  0
   -8.5208   24.6457  -11.8631 H   0  0  0  0  0  0  0  0  0  0  0  0
 19 18  1  0  0  0
 18 17  2  0  0  0
 18 20  1  0  0  0
 17 16  1  0  0  0
 20 21  2  0  0  0
 16 15  2  0  0  0
 21 15  1  0  0  0
 15 14  1  0  0  0
 14  4  1  0  0  0
  1  2  2  0  0  0
  4  2  1  0  0  0
  4  6  1  0  0  0
  2  3  1  0  0  0
 10  9  2  0  0  0
 12 13  1  0  0  0
 12 11  1  0  0  0
  6  7  1  0  0  0
 11  9  1  0  0  0
  9  8  1  0  0  0
  3  8  1  0  0  0
  3  5  1  0  0  0
 19 22  1  0  0  0
 19 23  1  0  0  0
M  END
> <minimizedAffinity>
-5.54040

$$$$
6GJJ_L36_A_201


 23 23  0  0  0  0  0  0  0  0999 V2000
   -4.0762   17.8481   -8.2996 O   0  0  0  0  0  0  0  0  0  0  0  0
   -4.1989   18.9576   -7.7827 C   0  0  0  0  0  0  0  0  0  0  0  0
   -5.3572   19.6095   -7.8270 N   0  0  0  0  0  0  0  0  0  0  0  0
   -3.1767   19.5415   -7.1639 N   0  0  0  0  0  0  0  0  0  0  0  0
   -5.4122   20.5187   -7.4535 H   0  0  0  0  0  0  0  0  0  0  0  0
   -3.3516   20.7231   -6.3334 C   0  0  0  0  0  0  0  0  0  0  0  0
   -2.3848   21.7998   -6.7750 C   0  0  0  0  0  0  0  0  0  0  0  0
   -6.5405   19.0113   -8.4131 C   0  0  0  0  0  0  0  0  0  0  0  0
   -6.7595   19.4858   -9.8296 C   0  0  0  0  0  0  0  0  0  0  0  0
   -6.8100   18.7643  -10.8118 O   0  0  0  0  0  0  0  0  0  0  0  0
   -6.8946   20.8086   -9.8807 O   0  0  0  0  0  0  0  0  0  0  0  0
   -8.1907   21.3965   -9.7870 C   0  0  0  0  0  0  0  0  0  0  0  0
   -8.2164   22.3786   -8.6358 C   0  0  0  0  0  0  0  0  0  0  0  0
   -1.8166   19.0373   -7.2744 C   0  0  0  0  0  0  0  0  0  0  0  0
   -1.3633   18.2810   -6.0473 C   0  0  0  0  0  0  0  0  0  0  0  0
   -0.6136   18.9264   -5.0705 C   0  0  0  0  0  0  0  0  0  0  0  0
   -0.1958   18.2298   -3.9416 C   0  0  0  0  0  0  0  0  0  0  0  0
   -0.5281   16.8894   -3.7900 C   0  0  0  0  0  0  0  0  0  0  0  0
   -0.1211   16.2113   -2.6899 N   0  0  0  0  0  0  0  0  0  0  0  0
   -1.2778   16.2440   -4.7668 C   0  0  0  0  0  0  0  0  0  0  0  0
   -1.6946   16.9397   -5.8951 C   0  0  0  0  0  0  0  0  0  0  0  0
    0.4098   16.6684   -1.9982 H   0  0  0  0  0  0  0  0  0  0  0  0
   -0.3563   15.2613   -2.5822 H   0  0  0  0  0  0  0  0  0  0  0  0
 19 18  1  0  0  0
 18 17  2  0  0  0
 18 20  1  0  0  0
 17 16  1  0  0  0
 20 21  2  0  0  0
 16 15  2  0  0  0
 21 15  1  0  0  0
 15 14  1  0  0  0
 14  4  1  0  0  0
  1  2  2  0  0  0
  4  2  1  0  0  0
  4  6  1  0  0  0
  2  3  1  0  0  0
 10  9  2  0  0  0
 12 13  1  0  0  0
 12 11  1  0  0  0
  6  7  1  0  0  0
 11  9  1  0  0  0
  9  8  1  0  0  0
  3  8  1  0  0  0
  3  5  1  0  0  0
 19 22  1  0  0  0
 19 23  1  0  0  0
M  END
> <minimizedAffinity>
-5.34857

$$$$
6GJJ_L36_A_201


 23 23  0  0  0  0  0  0  0  0999 V2000
   -3.4397   18.2761   -7.0902 O   0  0  0  0  0  0  0  0  0  0  0  0
   -3.1277   19.4325   -7.3709 C   0  0  0  0  0  0  0  0  0  0  0  0
   -1.8522   19.7853   -7.5007 N   0  0  0  0  0  0  0  0  0  0  0  0
   -4.0561   20.3672   -7.5523 N   0  0  0  0  0  0  0  0  0  0  0  0
   -1.6289   20.7289   -7.6715 H   0  0  0  0  0  0  0  0  0  0  0  0
   -3.7401   21.6663   -8.1260 C   0  0  0  0  0  0  0  0  0  0  0  0
   -3.7320   22.7135   -7.0341 C   0  0  0  0  0  0  0  0  0  0  0  0
   -0.7831   18.8119   -7.3964 C   0  0  0  0  0  0  0  0  0  0  0  0
   -0.0128   18.9686   -6.1073 C   0  0  0  0  0  0  0  0  0  0  0  0
   -0.2855   18.4156   -5.0549 O   0  0  0  0  0  0  0  0  0  0  0  0
    1.0186   19.7957   -6.2582 O   0  0  0  0  0  0  0  0  0  0  0  0
    1.7870   19.7646   -7.4594 C   0  0  0  0  0  0  0  0  0  0  0  0
    2.6396   18.5144   -7.4797 C   0  0  0  0  0  0  0  0  0  0  0  0
   -5.4490   20.1532   -7.1912 C   0  0  0  0  0  0  0  0  0  0  0  0
   -6.4171   20.6809   -8.2244 C   0  0  0  0  0  0  0  0  0  0  0  0
   -7.2578   21.7429   -7.9109 C   0  0  0  0  0  0  0  0  0  0  0  0
   -8.1492   22.2278   -8.8619 C   0  0  0  0  0  0  0  0  0  0  0  0
   -8.1991   21.6514  -10.1249 C   0  0  0  0  0  0  0  0  0  0  0  0
   -9.0675   22.1243  -11.0512 N   0  0  0  0  0  0  0  0  0  0  0  0
   -7.3583   20.5895  -10.4384 C   0  0  0  0  0  0  0  0  0  0  0  0
   -6.4681   20.1045   -9.4882 C   0  0  0  0  0  0  0  0  0  0  0  0
   -9.6629   22.8763  -10.8291 H   0  0  0  0  0  0  0  0  0  0  0  0
   -9.1032   21.7160  -11.9463 H   0  0  0  0  0  0  0  0  0  0  0  0
 19 18  1  0  0  0
 18 17  2  0  0  0
 18 20  1  0  0  0
 17 16  1  0  0  0
 20 21  2  0  0  0
 16 15  2  0  0  0
 21 15  1  0  0  0
 15 14  1  0  0  0
 14  4  1  0  0  0
  1  2  2  0  0  0
  4  2  1  0  0  0
  4  6  1  0  0  0
  2  3  1  0  0  0
 10  9  2  0  0  0
 12 13  1  0  0  0
 12 11  1  0  0  0
  6  7  1  0  0  0
 11  9  1  0  0  0
  9  8  1  0  0  0
  3  8  1  0  0  0
  3  5  1  0  0  0
 19 22  1  0  0  0
 19 23  1  0  0  0
M  END
> <minimizedAffinity>
-5.23523

$$$$
6GJJ_L36_A_201


 23 23  0  0  0  0  0  0  0  0999 V2000
   -3.7976   18.0595   -7.7583 O   0  0  0  0  0  0  0  0  0  0  0  0
   -3.6487   19.1080   -7.1324 C   0  0  0  0  0  0  0  0  0  0  0  0
   -4.6281   20.0043   -7.0549 N   0  0  0  0  0  0  0  0  0  0  0  0
   -2.5031   19.3795   -6.5141 N   0  0  0  0  0  0  0  0  0  0  0  0
   -4.4633   20.8585   -6.5941 H   0  0  0  0  0  0  0  0  0  0  0  0
   -2.3795   20.4768   -5.5669 C   0  0  0  0  0  0  0  0  0  0  0  0
   -1.2928   21.4233   -6.0275 C   0  0  0  0  0  0  0  0  0  0  0  0
   -5.9329   19.7517   -7.6337 C   0  0  0  0  0  0  0  0  0  0  0  0
   -5.9970   20.1969   -9.0750 C   0  0  0  0  0  0  0  0  0  0  0  0
   -5.7177   19.5017  -10.0376 O   0  0  0  0  0  0  0  0  0  0  0  0
   -6.4030   21.4603   -9.1729 O   0  0  0  0  0  0  0  0  0  0  0  0
   -7.3906   21.8185  -10.1376 C   0  0  0  0  0  0  0  0  0  0  0  0
   -8.7690   21.5864   -9.5575 C   0  0  0  0  0  0  0  0  0  0  0  0
   -1.2979   18.5971   -6.7418 C   0  0  0  0  0  0  0  0  0  0  0  0
   -0.9986   17.6296   -5.6204 C   0  0  0  0  0  0  0  0  0  0  0  0
   -1.6931   16.4283   -5.5349 C   0  0  0  0  0  0  0  0  0  0  0  0
   -1.4179   15.5384   -4.5022 C   0  0  0  0  0  0  0  0  0  0  0  0
   -0.4489   15.8498   -3.5566 C   0  0  0  0  0  0  0  0  0  0  0  0
   -0.1811   14.9823   -2.5508 N   0  0  0  0  0  0  0  0  0  0  0  0
    0.2455   17.0511   -3.6421 C   0  0  0  0  0  0  0  0  0  0  0  0
   -0.0298   17.9405   -4.6735 C   0  0  0  0  0  0  0  0  0  0  0  0
   -0.6729   14.1317   -2.4903 H   0  0  0  0  0  0  0  0  0  0  0  0
    0.5054   15.2028   -1.8804 H   0  0  0  0  0  0  0  0  0  0  0  0
 19 18  1  0  0  0
 18 17  2  0  0  0
 18 20  1  0  0  0
 17 16  1  0  0  0
 20 21  2  0  0  0
 16 15  2  0  0  0
 21 15  1  0  0  0
 15 14  1  0  0  0
 14  4  1  0  0  0
  1  2  2  0  0  0
  4  2  1  0  0  0
  4  6  1  0  0  0
  2  3  1  0  0  0
 10  9  2  0  0  0
 12 13  1  0  0  0
 12 11  1  0  0  0
  6  7  1  0  0  0
 11  9  1  0  0  0
  9  8  1  0  0  0
  3  8  1  0  0  0
  3  5  1  0  0  0
 19 22  1  0  0  0
 19 23  1  0  0  0
M  END
> <minimizedAffinity>
-5.20687

$$$$
6GJJ_L36_A_201


 23 23  0  0  0  0  0  0  0  0999 V2000
   -1.6771   16.3609   -6.1949 O   0  0  0  0  0  0  0  0  0  0  0  0
   -1.3960   17.2871   -5.4356 C   0  0  0  0  0  0  0  0  0  0  0  0
   -1.3022   17.0925   -4.1235 N   0  0  0  0  0  0  0  0  0  0  0  0
   -1.1783   18.5131   -5.9026 N   0  0  0  0  0  0  0  0  0  0  0  0
   -1.1301   17.8621   -3.5340 H   0  0  0  0  0  0  0  0  0  0  0  0
   -0.6032   19.5623   -5.0749 C   0  0  0  0  0  0  0  0  0  0  0  0
    0.3566   20.3900   -5.9012 C   0  0  0  0  0  0  0  0  0  0  0  0
   -1.4475   15.7728   -3.5415 C   0  0  0  0  0  0  0  0  0  0  0  0
   -0.2010   14.9420   -3.7302 C   0  0  0  0  0  0  0  0  0  0  0  0
   -0.1511   13.8745   -4.3181 O   0  0  0  0  0  0  0  0  0  0  0  0
    0.8567   15.5235   -3.1700 O   0  0  0  0  0  0  0  0  0  0  0  0
    1.3370   15.0644   -1.9079 C   0  0  0  0  0  0  0  0  0  0  0  0
    2.7923   14.6696   -2.0361 C   0  0  0  0  0  0  0  0  0  0  0  0
   -1.4985   18.8867   -7.2717 C   0  0  0  0  0  0  0  0  0  0  0  0
   -2.9360   19.3178   -7.4476 C   0  0  0  0  0  0  0  0  0  0  0  0
   -3.8932   18.3959   -7.8561 C   0  0  0  0  0  0  0  0  0  0  0  0
   -5.2160   18.7932   -8.0187 C   0  0  0  0  0  0  0  0  0  0  0  0
   -5.5807   20.1110   -7.7727 C   0  0  0  0  0  0  0  0  0  0  0  0
   -6.8696   20.4975   -7.9310 N   0  0  0  0  0  0  0  0  0  0  0  0
   -4.6236   21.0328   -7.3642 C   0  0  0  0  0  0  0  0  0  0  0  0
   -3.3018   20.6361   -7.2023 C   0  0  0  0  0  0  0  0  0  0  0  0
   -7.5474   19.8446   -8.2203 H   0  0  0  0  0  0  0  0  0  0  0  0
   -7.1285   21.4313   -7.7569 H   0  0  0  0  0  0  0  0  0  0  0  0
 19 18  1  0  0  0
 18 17  2  0  0  0
 18 20  1  0  0  0
 17 16  1  0  0  0
 20 21  2  0  0  0
 16 15  2  0  0  0
 21 15  1  0  0  0
 15 14  1  0  0  0
 14  4  1  0  0  0
  1  2  2  0  0  0
  4  2  1  0  0  0
  4  6  1  0  0  0
  2  3  1  0  0  0
 10  9  2  0  0  0
 12 13  1  0  0  0
 12 11  1  0  0  0
  6  7  1  0  0  0
 11  9  1  0  0  0
  9  8  1  0  0  0
  3  8  1  0  0  0
  3  5  1  0  0  0
 19 22  1  0  0  0
 19 23  1  0  0  0
M  END
> <minimizedAffinity>
-5.12993

$$$$
6GJJ_L36_A_201


 23 23  0  0  0  0  0  0  0  0999 V2000
   -2.7311   17.8778   -7.2640 O   0  0  0  0  0  0  0  0  0  0  0  0
   -2.4787   18.7692   -6.4546 C   0  0  0  0  0  0  0  0  0  0  0  0
   -3.2660   19.8350   -6.3419 N   0  0  0  0  0  0  0  0  0  0  0  0
   -1.4094   18.6963   -5.6672 N   0  0  0  0  0  0  0  0  0  0  0  0
   -3.0106   20.5588   -5.7254 H   0  0  0  0  0  0  0  0  0  0  0  0
   -1.2208   19.5943   -4.5384 C   0  0  0  0  0  0  0  0  0  0  0  0
    0.1174   20.2893   -4.6624 C   0  0  0  0  0  0  0  0  0  0  0  0
   -4.4918   19.9549   -7.1064 C   0  0  0  0  0  0  0  0  0  0  0  0
   -4.3645   20.9854   -8.2025 C   0  0  0  0  0  0  0  0  0  0  0  0
   -3.8879   22.0999   -8.0663 O   0  0  0  0  0  0  0  0  0  0  0  0
   -4.8413   20.5251   -9.3563 O   0  0  0  0  0  0  0  0  0  0  0  0
   -6.2498   20.4720   -9.5747 C   0  0  0  0  0  0  0  0  0  0  0  0
   -6.6432   19.0700   -9.9867 C   0  0  0  0  0  0  0  0  0  0  0  0
   -0.3584   17.7133   -5.8805 C   0  0  0  0  0  0  0  0  0  0  0  0
   -0.4808   16.5089   -4.9763 C   0  0  0  0  0  0  0  0  0  0  0  0
   -1.2123   15.4011   -5.3892 C   0  0  0  0  0  0  0  0  0  0  0  0
   -1.3255   14.2931   -4.5564 C   0  0  0  0  0  0  0  0  0  0  0  0
   -0.7072   14.2933   -3.3123 C   0  0  0  0  0  0  0  0  0  0  0  0
   -0.8175   13.2134   -2.5013 N   0  0  0  0  0  0  0  0  0  0  0  0
    0.0243   15.4010   -2.8994 C   0  0  0  0  0  0  0  0  0  0  0  0
    0.1369   16.5083   -3.7311 C   0  0  0  0  0  0  0  0  0  0  0  0
   -1.3356   12.4290   -2.7938 H   0  0  0  0  0  0  0  0  0  0  0  0
   -0.3796   13.2132   -1.6196 H   0  0  0  0  0  0  0  0  0  0  0  0
 19 18  1  0  0  0
 18 17  2  0  0  0
 18 20  1  0  0  0
 17 16  1  0  0  0
 20 21  2  0  0  0
 16 15  2  0  0  0
 21 15  1  0  0  0
 15 14  1  0  0  0
 14  4  1  0  0  0
  1  2  2  0  0  0
  4  2  1  0  0  0
  4  6  1  0  0  0
  2  3  1  0  0  0
 10  9  2  0  0  0
 12 13  1  0  0  0
 12 11  1  0  0  0
  6  7  1  0  0  0
 11  9  1  0  0  0
  9  8  1  0  0  0
  3  8  1  0  0  0
  3  5  1  0  0  0
 19 22  1  0  0  0
 19 23  1  0  0  0
M  END
> <minimizedAffinity>
-5.07891

$$$$
6GJJ_L36_A_201


 23 23  0  0  0  0  0  0  0  0999 V2000
   -2.0317   17.7199   -7.1329 O   0  0  0  0  0  0  0  0  0  0  0  0
   -2.3059   18.7538   -6.5252 C   0  0  0  0  0  0  0  0  0  0  0  0
   -3.4397   19.4071   -6.7620 N   0  0  0  0  0  0  0  0  0  0  0  0
   -1.4766   19.2521   -5.6128 N   0  0  0  0  0  0  0  0  0  0  0  0
   -3.6084   20.2608   -6.3015 H   0  0  0  0  0  0  0  0  0  0  0  0
   -1.8777   20.3171   -4.7065 C   0  0  0  0  0  0  0  0  0  0  0  0
   -1.4354   19.9782   -3.2999 C   0  0  0  0  0  0  0  0  0  0  0  0
   -4.4328   18.8906   -7.6831 C   0  0  0  0  0  0  0  0  0  0  0  0
   -5.6146   19.8223   -7.8058 C   0  0  0  0  0  0  0  0  0  0  0  0
   -6.3826   20.1049   -6.9014 O   0  0  0  0  0  0  0  0  0  0  0  0
   -5.7205   20.3085   -9.0399 O   0  0  0  0  0  0  0  0  0  0  0  0
   -5.8255   21.7162   -9.2445 C   0  0  0  0  0  0  0  0  0  0  0  0
   -7.1006   22.0216  -10.0001 C   0  0  0  0  0  0  0  0  0  0  0  0
   -0.1145   18.7649   -5.4585 C   0  0  0  0  0  0  0  0  0  0  0  0
    0.8584   19.4116   -6.4169 C   0  0  0  0  0  0  0  0  0  0  0  0
    1.3721   18.6825   -7.4834 C   0  0  0  0  0  0  0  0  0  0  0  0
    2.2681   19.2777   -8.3648 C   0  0  0  0  0  0  0  0  0  0  0  0
    2.6494   20.6007   -8.1797 C   0  0  0  0  0  0  0  0  0  0  0  0
    3.5223   21.1803   -9.0388 N   0  0  0  0  0  0  0  0  0  0  0  0
    2.1358   21.3298   -7.1132 C   0  0  0  0  0  0  0  0  0  0  0  0
    1.2410   20.7350   -6.2322 C   0  0  0  0  0  0  0  0  0  0  0  0
    3.8860   20.6639   -9.7940 H   0  0  0  0  0  0  0  0  0  0  0  0
    3.7928   22.1178   -8.9078 H   0  0  0  0  0  0  0  0  0  0  0  0
 19 18  1  0  0  0
 18 17  2  0  0  0
 18 20  1  0  0  0
 17 16  1  0  0  0
 20 21  2  0  0  0
 16 15  2  0  0  0
 21 15  1  0  0  0
 15 14  1  0  0  0
 14  4  1  0  0  0
  1  2  2  0  0  0
  4  2  1  0  0  0
  4  6  1  0  0  0
  2  3  1  0  0  0
 10  9  2  0  0  0
 12 13  1  0  0  0
 12 11  1  0  0  0
  6  7  1  0  0  0
 11  9  1  0  0  0
  9  8  1  0  0  0
  3  8  1  0  0  0
  3  5  1  0  0  0
 19 22  1  0  0  0
 19 23  1  0  0  0
M  END
> <minimizedAffinity>
-4.98126

$$$$
6GJJ_L36_A_201


 23 23  0  0  0  0  0  0  0  0999 V2000
   -5.1682   23.0020   -8.3616 O   0  0  0  0  0  0  0  0  0  0  0  0
   -5.5266   21.9303   -7.8753 C   0  0  0  0  0  0  0  0  0  0  0  0
   -6.8088   21.6902   -7.6168 N   0  0  0  0  0  0  0  0  0  0  0  0
   -4.6430   20.9779   -7.5912 N   0  0  0  0  0  0  0  0  0  0  0  0
   -7.0612   20.8464   -7.1770 H   0  0  0  0  0  0  0  0  0  0  0  0
   -5.0517   19.6223   -7.2568 C   0  0  0  0  0  0  0  0  0  0  0  0
   -4.1404   18.6332   -7.9499 C   0  0  0  0  0  0  0  0  0  0  0  0
   -7.8431   22.6432   -7.9680 C   0  0  0  0  0  0  0  0  0  0  0  0
   -8.3788   22.3949   -9.3575 C   0  0  0  0  0  0  0  0  0  0  0  0
   -8.8080   23.2549  -10.1086 O   0  0  0  0  0  0  0  0  0  0  0  0
   -8.3252   21.1032   -9.6724 O   0  0  0  0  0  0  0  0  0  0  0  0
   -7.6220   20.6830  -10.8400 C   0  0  0  0  0  0  0  0  0  0  0  0
   -6.7934   19.4588  -10.5156 C   0  0  0  0  0  0  0  0  0  0  0  0
   -3.2097   21.2268   -7.5975 C   0  0  0  0  0  0  0  0  0  0  0  0
   -2.6650   21.5894   -6.2355 C   0  0  0  0  0  0  0  0  0  0  0  0
   -2.6113   22.9212   -5.8404 C   0  0  0  0  0  0  0  0  0  0  0  0
   -2.1092   23.2546   -4.5870 C   0  0  0  0  0  0  0  0  0  0  0  0
   -1.6619   22.2569   -3.7300 C   0  0  0  0  0  0  0  0  0  0  0  0
   -1.1730   22.5822   -2.5090 N   0  0  0  0  0  0  0  0  0  0  0  0
   -1.7156   20.9250   -4.1252 C   0  0  0  0  0  0  0  0  0  0  0  0
   -2.2166   20.5919   -5.3776 C   0  0  0  0  0  0  0  0  0  0  0  0
   -1.1350   23.5254   -2.2293 H   0  0  0  0  0  0  0  0  0  0  0  0
   -0.8558   21.8754   -1.9014 H   0  0  0  0  0  0  0  0  0  0  0  0
 19 18  1  0  0  0
 18 17  2  0  0  0
 18 20  1  0  0  0
 17 16  1  0  0  0
 20 21  2  0  0  0
 16 15  2  0  0  0
 21 15  1  0  0  0
 15 14  1  0  0  0
 14  4  1  0  0  0
  1  2  2  0  0  0
  4  2  1  0  0  0
  4  6  1  0  0  0
  2  3  1  0  0  0
 10  9  2  0  0  0
 12 13  1  0  0  0
 12 11  1  0  0  0
  6  7  1  0  0  0
 11  9  1  0  0  0
  9  8  1  0  0  0
  3  8  1  0  0  0
  3  5  1  0  0  0
 19 22  1  0  0  0
 19 23  1  0  0  0
M  END
> <minimizedAffinity>
-4.88214

$$$$
