5MGF_7MW_A_2001


 14 14  0  0  0  0  0  0  0  0999 V2000
  -24.6907   -9.6360    0.5100 C   0  0  0  0  0  0  0  0  0  0  0  0
  -23.3969   -9.1768    0.6489 C   0  0  0  0  0  0  0  0  0  0  0  0
  -22.6142  -10.0340    0.0026 N   0  0  0  0  0  0  0  0  0  0  0  0
  -23.3367  -11.0198   -0.5410 C   0  0  0  0  0  0  0  0  0  0  0  0
  -24.6597  -10.7845   -0.2264 C   0  0  0  0  0  0  0  0  0  0  0  0
  -21.6354   -9.9544   -0.0668 H   0  0  0  0  0  0  0  0  0  0  0  0
  -25.9015   -8.9508    1.0950 C   0  0  0  0  0  0  0  0  0  0  0  0
  -26.8829   -9.6017    1.4441 O   0  0  0  0  0  0  0  0  0  0  0  0
  -26.2099   -6.7071   -0.0714 C   0  0  0  0  0  0  0  0  0  0  0  0
  -25.8837   -7.4064    1.2304 C   0  0  0  0  0  0  0  0  0  0  0  0
  -22.7547  -12.1810   -1.3600 C   0  0  0  0  0  0  0  0  0  0  0  0
  -21.5275  -12.2500   -1.4998 O   0  0  0  0  0  0  0  0  0  0  0  0
  -23.5895  -13.2742   -1.7775 O   0  0  0  0  0  0  0  0  0  0  0  0
  -24.5134  -12.9470   -2.8030 C   0  0  0  0  0  0  0  0  0  0  0  0
  9 10  1  0  0  0
  8  7  2  0  0  0
 10  7  1  0  0  0
  7  1  1  0  0  0
  1  5  1  0  0  0
  1  2  2  0  0  0
  5  4  2  0  0  0
  2  3  1  0  0  0
  4  3  1  0  0  0
  4 11  1  0  0  0
 12 11  2  0  0  0
 11 13  1  0  0  0
 13 14  1  0  0  0
  3  6  1  0  0  0
M  END
> <minimizedAffinity>
-5.77215

$$$$
5MGF_7MW_A_2001


 14 14  0  0  0  0  0  0  0  0999 V2000
  -25.5331   -8.9954    0.6683 C   0  0  0  0  0  0  0  0  0  0  0  0
  -26.0221  -10.2367    1.0204 C   0  0  0  0  0  0  0  0  0  0  0  0
  -25.1164  -11.1291    0.6354 N   0  0  0  0  0  0  0  0  0  0  0  0
  -24.0739  -10.5266    0.0527 C   0  0  0  0  0  0  0  0  0  0  0  0
  -24.3227   -9.1691    0.0624 C   0  0  0  0  0  0  0  0  0  0  0  0
  -25.2010  -12.1018    0.7618 H   0  0  0  0  0  0  0  0  0  0  0  0
  -26.2537   -7.6949    0.9275 C   0  0  0  0  0  0  0  0  0  0  0  0
  -26.2671   -7.1985    2.0510 O   0  0  0  0  0  0  0  0  0  0  0  0
  -28.2817   -7.7078   -0.6141 C   0  0  0  0  0  0  0  0  0  0  0  0
  -26.9889   -7.0091   -0.2526 C   0  0  0  0  0  0  0  0  0  0  0  0
  -22.8447  -11.2556   -0.5090 C   0  0  0  0  0  0  0  0  0  0  0  0
  -21.7202  -10.8267   -0.2229 O   0  0  0  0  0  0  0  0  0  0  0  0
  -22.9843  -12.5219   -1.1749 O   0  0  0  0  0  0  0  0  0  0  0  0
  -23.9289  -12.5259   -2.2332 C   0  0  0  0  0  0  0  0  0  0  0  0
  9 10  1  0  0  0
  8  7  2  0  0  0
 10  7  1  0  0  0
  7  1  1  0  0  0
  1  5  1  0  0  0
  1  2  2  0  0  0
  5  4  2  0  0  0
  2  3  1  0  0  0
  4  3  1  0  0  0
  4 11  1  0  0  0
 12 11  2  0  0  0
 11 13  1  0  0  0
 13 14  1  0  0  0
  3  6  1  0  0  0
M  END
> <minimizedAffinity>
-5.73538

$$$$
5MGF_7MW_A_2001


 14 14  0  0  0  0  0  0  0  0999 V2000
  -26.7324   -9.2059    0.5757 C   0  0  0  0  0  0  0  0  0  0  0  0
  -26.2491   -7.9259    0.7545 C   0  0  0  0  0  0  0  0  0  0  0  0
  -24.9234   -8.0100    0.7335 N   0  0  0  0  0  0  0  0  0  0  0  0
  -24.5307   -9.2760    0.5535 C   0  0  0  0  0  0  0  0  0  0  0  0
  -25.6681  -10.0513    0.4537 C   0  0  0  0  0  0  0  0  0  0  0  0
  -24.3129   -7.2445    0.8363 H   0  0  0  0  0  0  0  0  0  0  0  0
  -28.1987   -9.5609    0.5332 C   0  0  0  0  0  0  0  0  0  0  0  0
  -28.5989  -10.6288    0.9895 O   0  0  0  0  0  0  0  0  0  0  0  0
  -29.1410   -8.5901   -1.6253 C   0  0  0  0  0  0  0  0  0  0  0  0
  -29.1847   -8.5540   -0.1131 C   0  0  0  0  0  0  0  0  0  0  0  0
  -23.0674   -9.7350    0.4771 C   0  0  0  0  0  0  0  0  0  0  0  0
  -22.1742   -8.8877    0.5984 O   0  0  0  0  0  0  0  0  0  0  0  0
  -22.7372  -11.1340    0.4751 O   0  0  0  0  0  0  0  0  0  0  0  0
  -22.2726  -11.6242   -0.7724 C   0  0  0  0  0  0  0  0  0  0  0  0
  9 10  1  0  0  0
  8  7  2  0  0  0
 10  7  1  0  0  0
  7  1  1  0  0  0
  1  5  1  0  0  0
  1  2  2  0  0  0
  5  4  2  0  0  0
  2  3  1  0  0  0
  4  3  1  0  0  0
  4 11  1  0  0  0
 12 11  2  0  0  0
 11 13  1  0  0  0
 13 14  1  0  0  0
  3  6  1  0  0  0
M  END
> <minimizedAffinity>
-5.31370

$$$$
5MGF_7MW_A_2001


 14 14  0  0  0  0  0  0  0  0999 V2000
  -24.3914   -9.6410    0.5808 C   0  0  0  0  0  0  0  0  0  0  0  0
  -25.3130  -10.5849    0.9855 C   0  0  0  0  0  0  0  0  0  0  0  0
  -26.4717   -9.9516    1.1314 N   0  0  0  0  0  0  0  0  0  0  0  0
  -26.3418   -8.6516    0.8446 C   0  0  0  0  0  0  0  0  0  0  0  0
  -25.0244   -8.4351    0.4948 C   0  0  0  0  0  0  0  0  0  0  0  0
  -27.3119  -10.3809    1.4125 H   0  0  0  0  0  0  0  0  0  0  0  0
  -22.9395   -9.9401    0.2972 C   0  0  0  0  0  0  0  0  0  0  0  0
  -22.0941   -9.0506    0.3503 O   0  0  0  0  0  0  0  0  0  0  0  0
  -22.9133  -11.7432   -1.5022 C   0  0  0  0  0  0  0  0  0  0  0  0
  -22.5430  -11.3912   -0.0777 C   0  0  0  0  0  0  0  0  0  0  0  0
  -27.4816   -7.6245    0.9065 C   0  0  0  0  0  0  0  0  0  0  0  0
  -27.2231   -6.4757    1.2857 O   0  0  0  0  0  0  0  0  0  0  0  0
  -28.7694   -7.9238    0.3426 O   0  0  0  0  0  0  0  0  0  0  0  0
  -28.7431   -8.2476   -1.0383 C   0  0  0  0  0  0  0  0  0  0  0  0
  9 10  1  0  0  0
  8  7  2  0  0  0
 10  7  1  0  0  0
  7  1  1  0  0  0
  1  5  1  0  0  0
  1  2  2  0  0  0
  5  4  2  0  0  0
  2  3  1  0  0  0
  4  3  1  0  0  0
  4 11  1  0  0  0
 12 11  2  0  0  0
 11 13  1  0  0  0
 13 14  1  0  0  0
  3  6  1  0  0  0
M  END
> <minimizedAffinity>
-5.29114

$$$$
5MGF_7MW_A_2001


 14 14  0  0  0  0  0  0  0  0999 V2000
  -24.4179   -9.6071    0.5485 C   0  0  0  0  0  0  0  0  0  0  0  0
  -25.3431  -10.5690    0.8990 C   0  0  0  0  0  0  0  0  0  0  0  0
  -26.5208   -9.9587    0.9748 N   0  0  0  0  0  0  0  0  0  0  0  0
  -26.3998   -8.6564    0.6943 C   0  0  0  0  0  0  0  0  0  0  0  0
  -25.0684   -8.4140    0.4232 C   0  0  0  0  0  0  0  0  0  0  0  0
  -27.3676  -10.4045    1.2059 H   0  0  0  0  0  0  0  0  0  0  0  0
  -22.9461   -9.8774    0.3524 C   0  0  0  0  0  0  0  0  0  0  0  0
  -22.1262   -8.9655    0.4224 O   0  0  0  0  0  0  0  0  0  0  0  0
  -22.7641  -11.7272   -1.3897 C   0  0  0  0  0  0  0  0  0  0  0  0
  -22.4954  -11.3287    0.0452 C   0  0  0  0  0  0  0  0  0  0  0  0
  -27.5612   -7.6521    0.6866 C   0  0  0  0  0  0  0  0  0  0  0  0
  -28.7143   -8.0796    0.8208 O   0  0  0  0  0  0  0  0  0  0  0  0
  -27.3078   -6.2379    0.7332 O   0  0  0  0  0  0  0  0  0  0  0  0
  -27.1701   -5.7107    2.0429 C   0  0  0  0  0  0  0  0  0  0  0  0
  9 10  1  0  0  0
  8  7  2  0  0  0
 10  7  1  0  0  0
  7  1  1  0  0  0
  1  5  1  0  0  0
  1  2  2  0  0  0
  5  4  2  0  0  0
  2  3  1  0  0  0
  4  3  1  0  0  0
  4 11  1  0  0  0
 12 11  2  0  0  0
 11 13  1  0  0  0
 13 14  1  0  0  0
  3  6  1  0  0  0
M  END
> <minimizedAffinity>
-5.24119

$$$$
5MGF_7MW_A_2001


 14 14  0  0  0  0  0  0  0  0999 V2000
  -24.8098   -9.1789    0.5669 C   0  0  0  0  0  0  0  0  0  0  0  0
  -25.2865   -7.8925    0.7147 C   0  0  0  0  0  0  0  0  0  0  0  0
  -26.6126   -7.9700    0.6931 N   0  0  0  0  0  0  0  0  0  0  0  0
  -27.0117   -9.2371    0.5365 C   0  0  0  0  0  0  0  0  0  0  0  0
  -25.8783  -10.0200    0.4518 C   0  0  0  0  0  0  0  0  0  0  0  0
  -27.2192   -7.1995    0.7805 H   0  0  0  0  0  0  0  0  0  0  0  0
  -23.3454   -9.5431    0.5395 C   0  0  0  0  0  0  0  0  0  0  0  0
  -22.4816   -8.6763    0.6453 O   0  0  0  0  0  0  0  0  0  0  0  0
  -22.9963  -11.4708   -1.0888 C   0  0  0  0  0  0  0  0  0  0  0  0
  -22.9574  -11.0332    0.3593 C   0  0  0  0  0  0  0  0  0  0  0  0
  -28.4774   -9.6902    0.4703 C   0  0  0  0  0  0  0  0  0  0  0  0
  -28.8326  -10.6488    1.1669 O   0  0  0  0  0  0  0  0  0  0  0  0
  -29.4592   -8.8976   -0.2182 O   0  0  0  0  0  0  0  0  0  0  0  0
  -29.2573   -8.8024   -1.6191 C   0  0  0  0  0  0  0  0  0  0  0  0
  9 10  1  0  0  0
  8  7  2  0  0  0
 10  7  1  0  0  0
  7  1  1  0  0  0
  1  5  1  0  0  0
  1  2  2  0  0  0
  5  4  2  0  0  0
  2  3  1  0  0  0
  4  3  1  0  0  0
  4 11  1  0  0  0
 12 11  2  0  0  0
 11 13  1  0  0  0
 13 14  1  0  0  0
  3  6  1  0  0  0
M  END
> <minimizedAffinity>
-5.20951

$$$$
5MGF_7MW_A_2001


 14 14  0  0  0  0  0  0  0  0999 V2000
  -27.6054   -8.6776    0.2582 C   0  0  0  0  0  0  0  0  0  0  0  0
  -27.7730  -10.0116    0.5688 C   0  0  0  0  0  0  0  0  0  0  0  0
  -26.5574  -10.5263    0.7185 N   0  0  0  0  0  0  0  0  0  0  0  0
  -25.6191   -9.5943    0.5178 C   0  0  0  0  0  0  0  0  0  0  0  0
  -26.2672   -8.4124    0.2213 C   0  0  0  0  0  0  0  0  0  0  0  0
  -26.3723  -11.4660    0.9463 H   0  0  0  0  0  0  0  0  0  0  0  0
  -28.7410   -7.7159    0.0071 C   0  0  0  0  0  0  0  0  0  0  0  0
  -28.6696   -6.5490    0.3841 O   0  0  0  0  0  0  0  0  0  0  0  0
  -29.7324   -8.5961   -2.1682 C   0  0  0  0  0  0  0  0  0  0  0  0
  -30.0048   -8.2386   -0.7232 C   0  0  0  0  0  0  0  0  0  0  0  0
  -24.1066   -9.8417    0.6125 C   0  0  0  0  0  0  0  0  0  0  0  0
  -23.5941   -9.9531    1.7329 O   0  0  0  0  0  0  0  0  0  0  0  0
  -23.3384  -10.1451   -0.5639 O   0  0  0  0  0  0  0  0  0  0  0  0
  -23.3673  -11.5110   -0.9460 C   0  0  0  0  0  0  0  0  0  0  0  0
  9 10  1  0  0  0
  8  7  2  0  0  0
 10  7  1  0  0  0
  7  1  1  0  0  0
  1  5  1  0  0  0
  1  2  2  0  0  0
  5  4  2  0  0  0
  2  3  1  0  0  0
  4  3  1  0  0  0
  4 11  1  0  0  0
 12 11  2  0  0  0
 11 13  1  0  0  0
 13 14  1  0  0  0
  3  6  1  0  0  0
M  END
> <minimizedAffinity>
-5.16371

$$$$
5MGF_7MW_A_2001


 14 14  0  0  0  0  0  0  0  0999 V2000
  -26.1587   -9.1898    0.6884 C   0  0  0  0  0  0  0  0  0  0  0  0
  -26.9711   -8.1229    0.3635 C   0  0  0  0  0  0  0  0  0  0  0  0
  -28.1913   -8.6134    0.1747 N   0  0  0  0  0  0  0  0  0  0  0  0
  -28.2041   -9.9383    0.3585 C   0  0  0  0  0  0  0  0  0  0  0  0
  -26.9191  -10.3230    0.6834 C   0  0  0  0  0  0  0  0  0  0  0  0
  -28.9790   -8.0750   -0.0675 H   0  0  0  0  0  0  0  0  0  0  0  0
  -24.6838   -9.0731    0.9867 C   0  0  0  0  0  0  0  0  0  0  0  0
  -24.1290   -7.9772    0.9874 O   0  0  0  0  0  0  0  0  0  0  0  0
  -22.9230  -10.7182    0.1605 C   0  0  0  0  0  0  0  0  0  0  0  0
  -23.8833  -10.3688    1.2766 C   0  0  0  0  0  0  0  0  0  0  0  0
  -29.4484  -10.8278    0.2228 C   0  0  0  0  0  0  0  0  0  0  0  0
  -30.1112  -11.0770    1.2371 O   0  0  0  0  0  0  0  0  0  0  0  0
  -29.9522  -11.1906   -1.0736 O   0  0  0  0  0  0  0  0  0  0  0  0
  -29.0190  -11.0313   -2.1301 C   0  0  0  0  0  0  0  0  0  0  0  0
  9 10  1  0  0  0
  8  7  2  0  0  0
 10  7  1  0  0  0
  7  1  1  0  0  0
  1  5  1  0  0  0
  1  2  2  0  0  0
  5  4  2  0  0  0
  2  3  1  0  0  0
  4  3  1  0  0  0
  4 11  1  0  0  0
 12 11  2  0  0  0
 11 13  1  0  0  0
 13 14  1  0  0  0
  3  6  1  0  0  0
M  END
> <minimizedAffinity>
-4.87617

$$$$
5MGF_7MW_A_2001


 14 14  0  0  0  0  0  0  0  0999 V2000
  -28.3241   -8.6565   -0.5007 C   0  0  0  0  0  0  0  0  0  0  0  0
  -27.9873   -9.9387   -0.1179 C   0  0  0  0  0  0  0  0  0  0  0  0
  -28.5461  -10.7612   -0.9989 N   0  0  0  0  0  0  0  0  0  0  0  0
  -29.2254  -10.0751   -1.9247 C   0  0  0  0  0  0  0  0  0  0  0  0
  -29.0975   -8.7346   -1.6223 C   0  0  0  0  0  0  0  0  0  0  0  0
  -28.4703  -11.7425   -0.9739 H   0  0  0  0  0  0  0  0  0  0  0  0
  -27.8893   -7.4106    0.2318 C   0  0  0  0  0  0  0  0  0  0  0  0
  -28.6271   -6.8788    1.0574 O   0  0  0  0  0  0  0  0  0  0  0  0
  -25.3915   -7.4306    0.7322 C   0  0  0  0  0  0  0  0  0  0  0  0
  -26.4976   -6.8096   -0.0931 C   0  0  0  0  0  0  0  0  0  0  0  0
  -29.9923  -10.7085   -3.0946 C   0  0  0  0  0  0  0  0  0  0  0  0
  -30.1933  -11.9290   -3.0789 O   0  0  0  0  0  0  0  0  0  0  0  0
  -30.6421   -9.8844   -4.0769 O   0  0  0  0  0  0  0  0  0  0  0  0
  -32.0589   -9.9499   -4.0515 C   0  0  0  0  0  0  0  0  0  0  0  0
  9 10  1  0  0  0
  8  7  2  0  0  0
 10  7  1  0  0  0
  7  1  1  0  0  0
  1  5  1  0  0  0
  1  2  2  0  0  0
  5  4  2  0  0  0
  2  3  1  0  0  0
  4  3  1  0  0  0
  4 11  1  0  0  0
 12 11  2  0  0  0
 11 13  1  0  0  0
 13 14  1  0  0  0
  3  6  1  0  0  0
M  END
> <minimizedAffinity>
-4.82035

$$$$
5MGF_7MW_A_2001


 14 14  0  0  0  0  0  0  0  0999 V2000
  -25.4506   -8.8218    0.6415 C   0  0  0  0  0  0  0  0  0  0  0  0
  -25.1706   -7.4713    0.6842 C   0  0  0  0  0  0  0  0  0  0  0  0
  -26.3214   -6.8349    0.4954 N   0  0  0  0  0  0  0  0  0  0  0  0
  -27.3239   -7.7051    0.3311 C   0  0  0  0  0  0  0  0  0  0  0  0
  -26.7883   -8.9740    0.4184 C   0  0  0  0  0  0  0  0  0  0  0  0
  -26.4226   -5.8558    0.4787 H   0  0  0  0  0  0  0  0  0  0  0  0
  -24.4173   -9.9082    0.8142 C   0  0  0  0  0  0  0  0  0  0  0  0
  -23.6126   -9.8667    1.7413 O   0  0  0  0  0  0  0  0  0  0  0  0
  -22.9763  -11.4520   -0.6105 C   0  0  0  0  0  0  0  0  0  0  0  0
  -24.3854  -11.0683   -0.2138 C   0  0  0  0  0  0  0  0  0  0  0  0
  -28.7898   -7.3152    0.0926 C   0  0  0  0  0  0  0  0  0  0  0  0
  -29.2291   -6.2985    0.6437 O   0  0  0  0  0  0  0  0  0  0  0  0
  -29.5744   -7.9889   -0.9059 O   0  0  0  0  0  0  0  0  0  0  0  0
  -30.5575   -8.8679   -0.3833 C   0  0  0  0  0  0  0  0  0  0  0  0
  9 10  1  0  0  0
  8  7  2  0  0  0
 10  7  1  0  0  0
  7  1  1  0  0  0
  1  5  1  0  0  0
  1  2  2  0  0  0
  5  4  2  0  0  0
  2  3  1  0  0  0
  4  3  1  0  0  0
  4 11  1  0  0  0
 12 11  2  0  0  0
 11 13  1  0  0  0
 13 14  1  0  0  0
  3  6  1  0  0  0
M  END
> <minimizedAffinity>
-4.69237

$$$$
