2QZR_S79_A_500


 32 36  0  0  0  0  0  0  0  0999 V2000
   14.0194   15.8608   24.9509 N   0  0  0  0  0  0  0  0  0  0  0  0
   14.8847   16.3521   23.9402 C   0  0  0  0  0  0  0  0  0  0  0  0
   14.5003   16.2261   22.6524 N   0  0  0  0  0  0  0  0  0  0  0  0
   15.3067   16.6805   21.6714 C   0  0  0  0  0  0  0  0  0  0  0  0
   14.9124   16.5689   20.2147 C   0  0  0  0  0  0  0  0  0  0  0  0
   15.8484   17.0903   19.2510 C   0  0  0  0  0  0  0  0  0  0  0  0
   15.6622   17.0981   17.9322 N   0  0  0  0  0  0  0  0  0  0  0  0
   16.7093   17.6382   17.4417 C   0  0  0  0  0  0  0  0  0  0  0  0
   17.6482   18.0477   18.3122 N   0  0  0  0  0  0  0  0  0  0  0  0
   16.8984   17.6038   19.5368 C   0  0  0  0  0  0  0  0  0  0  0  0
   17.4065   17.7652   20.8792 C   0  0  0  0  0  0  0  0  0  0  0  0
   16.5288   17.2651   22.0003 C   0  0  0  0  0  0  0  0  0  0  0  0
   16.8955   17.3716   23.3437 C   0  0  0  0  0  0  0  0  0  0  0  0
   18.1192   17.9433   23.6837 O   0  0  0  0  0  0  0  0  0  0  0  0
   16.0606   16.9132   24.2955 N   0  0  0  0  0  0  0  0  0  0  0  0
   13.1593   15.4495   24.7054 H   0  0  0  0  0  0  0  0  0  0  0  0
   14.2789   15.9312   25.8980 H   0  0  0  0  0  0  0  0  0  0  0  0
   14.8807   16.7583   17.4392 H   0  0  0  0  0  0  0  0  0  0  0  0
   16.3062   16.9868   25.2460 H   0  0  0  0  0  0  0  0  0  0  0  0
   16.8966   17.8119   16.1123 N   0  0  0  0  0  0  0  0  0  0  0  0
   17.5853   18.4131   15.7468 H   0  0  0  0  0  0  0  0  0  0  0  0
   16.0029   17.0424   15.2699 C   0  0  0  0  0  0  0  0  0  0  0  0
   14.7024   17.8058   15.0591 C   0  0  0  0  0  0  0  0  0  0  0  0
   13.4610   17.1673   15.1381 C   0  0  0  0  0  0  0  0  0  0  0  0
   13.3562   15.8027   15.4212 C   0  0  0  0  0  0  0  0  0  0  0  0
   12.1047   15.1862   15.5065 C   0  0  0  0  0  0  0  0  0  0  0  0
   10.9423   15.9285   15.2902 C   0  0  0  0  0  0  0  0  0  0  0  0
   11.0433   17.2928   15.0046 C   0  0  0  0  0  0  0  0  0  0  0  0
   12.2946   17.9115   14.9233 C   0  0  0  0  0  0  0  0  0  0  0  0
   12.3738   19.2778   14.6377 C   0  0  0  0  0  0  0  0  0  0  0  0
   13.6192   19.9116   14.5552 C   0  0  0  0  0  0  0  0  0  0  0  0
   14.7864   19.1727   14.7624 C   0  0  0  0  0  0  0  0  0  0  0  0
 31 30  2  0  0  0
 31 32  1  0  0  0
 30 29  1  0  0  0
 32 23  2  0  0  0
 29 28  2  0  0  0
 29 24  1  0  0  0
 28 27  1  0  0  0
 23 24  1  0  0  0
 23 22  1  0  0  0
 24 25  2  0  0  0
 27 26  2  0  0  0
 25 26  1  0  0  0
 22 20  1  0  0  0
 20  8  1  0  0  0
  8  7  1  0  0  0
  8  9  2  0  0  0
  7  6  1  0  0  0
  9 10  1  0  0  0
  6 10  2  0  0  0
  6  5  1  0  0  0
 10 11  1  0  0  0
  5  4  2  0  0  0
 11 12  2  0  0  0
  4 12  1  0  0  0
  4  3  1  0  0  0
 12 13  1  0  0  0
  3  2  2  0  0  0
 13 14  2  0  0  0
 13 15  1  0  0  0
  2 15  1  0  0  0
  2  1  1  0  0  0
  1 16  1  0  0  0
  1 17  1  0  0  0
  7 18  1  0  0  0
 20 21  1  0  0  0
 15 19  1  0  0  0
M  END
> <minimizedAffinity>
-10.32874

$$$$
2QZR_S79_A_500


 32 36  0  0  0  0  0  0  0  0999 V2000
   13.9753   15.8999   24.9033 N   0  0  0  0  0  0  0  0  0  0  0  0
   14.8666   16.3771   23.9086 C   0  0  0  0  0  0  0  0  0  0  0  0
   14.5130   16.2382   22.6133 N   0  0  0  0  0  0  0  0  0  0  0  0
   15.3445   16.6791   21.6472 C   0  0  0  0  0  0  0  0  0  0  0  0
   14.9851   16.5529   20.1828 C   0  0  0  0  0  0  0  0  0  0  0  0
   15.9461   17.0604   19.2363 C   0  0  0  0  0  0  0  0  0  0  0  0
   15.7919   17.0543   17.9135 N   0  0  0  0  0  0  0  0  0  0  0  0
   16.8525   17.5855   17.4426 C   0  0  0  0  0  0  0  0  0  0  0  0
   17.7716   18.0013   18.3311 N   0  0  0  0  0  0  0  0  0  0  0  0
   16.9908   17.5734   19.5419 C   0  0  0  0  0  0  0  0  0  0  0  0
   17.4668   17.7478   20.8943 C   0  0  0  0  0  0  0  0  0  0  0  0
   16.5605   17.2631   21.9993 C   0  0  0  0  0  0  0  0  0  0  0  0
   16.8950   17.3830   23.3499 C   0  0  0  0  0  0  0  0  0  0  0  0
   18.1122   17.9543   23.7132 O   0  0  0  0  0  0  0  0  0  0  0  0
   16.0356   16.9380   24.2861 N   0  0  0  0  0  0  0  0  0  0  0  0
   13.1198   15.4889   24.6416 H   0  0  0  0  0  0  0  0  0  0  0  0
   14.2120   15.9798   25.8556 H   0  0  0  0  0  0  0  0  0  0  0  0
   15.0213   16.7118   17.4054 H   0  0  0  0  0  0  0  0  0  0  0  0
   16.2584   17.0212   25.2414 H   0  0  0  0  0  0  0  0  0  0  0  0
   17.0726   17.7439   16.1163 N   0  0  0  0  0  0  0  0  0  0  0  0
   17.8645   18.2085   15.7608 H   0  0  0  0  0  0  0  0  0  0  0  0
   16.0498   17.1752   15.2612 C   0  0  0  0  0  0  0  0  0  0  0  0
   15.5115   18.2408   14.3163 C   0  0  0  0  0  0  0  0  0  0  0  0
   15.9165   18.3019   12.9794 C   0  0  0  0  0  0  0  0  0  0  0  0
   16.8268   17.3845   12.4475 C   0  0  0  0  0  0  0  0  0  0  0  0
   17.2101   17.4566   11.1053 C   0  0  0  0  0  0  0  0  0  0  0  0
   16.6980   18.4628   10.2841 C   0  0  0  0  0  0  0  0  0  0  0  0
   15.7893   19.3834   10.8131 C   0  0  0  0  0  0  0  0  0  0  0  0
   15.4019   19.3095   12.1545 C   0  0  0  0  0  0  0  0  0  0  0  0
   14.4905   20.2393   12.6639 C   0  0  0  0  0  0  0  0  0  0  0  0
   14.0915   20.1768   14.0042 C   0  0  0  0  0  0  0  0  0  0  0  0
   14.6066   19.1775   14.8333 C   0  0  0  0  0  0  0  0  0  0  0  0
 31 30  2  0  0  0
 31 32  1  0  0  0
 30 29  1  0  0  0
 32 23  2  0  0  0
 29 28  2  0  0  0
 29 24  1  0  0  0
 28 27  1  0  0  0
 23 24  1  0  0  0
 23 22  1  0  0  0
 24 25  2  0  0  0
 27 26  2  0  0  0
 25 26  1  0  0  0
 22 20  1  0  0  0
 20  8  1  0  0  0
  8  7  1  0  0  0
  8  9  2  0  0  0
  7  6  1  0  0  0
  9 10  1  0  0  0
  6 10  2  0  0  0
  6  5  1  0  0  0
 10 11  1  0  0  0
  5  4  2  0  0  0
 11 12  2  0  0  0
  4 12  1  0  0  0
  4  3  1  0  0  0
 12 13  1  0  0  0
  3  2  2  0  0  0
 13 14  2  0  0  0
 13 15  1  0  0  0
  2 15  1  0  0  0
  2  1  1  0  0  0
  1 16  1  0  0  0
  1 17  1  0  0  0
  7 18  1  0  0  0
 20 21  1  0  0  0
 15 19  1  0  0  0
M  END
> <minimizedAffinity>
-9.65202

$$$$
2QZR_S79_A_500


 32 36  0  0  0  0  0  0  0  0999 V2000
   15.8157   16.3086   24.2756 N   0  0  0  0  0  0  0  0  0  0  0  0
   16.1398   16.6919   22.9491 C   0  0  0  0  0  0  0  0  0  0  0  0
   15.2529   16.4175   21.9693 N   0  0  0  0  0  0  0  0  0  0  0  0
   15.5386   16.7671   20.6983 C   0  0  0  0  0  0  0  0  0  0  0  0
   14.5701   16.4879   19.5696 C   0  0  0  0  0  0  0  0  0  0  0  0
   14.9764   16.9072   18.2521 C   0  0  0  0  0  0  0  0  0  0  0  0
   14.2476   16.7643   17.1465 N   0  0  0  0  0  0  0  0  0  0  0  0
   14.9542   17.2568   16.2046 C   0  0  0  0  0  0  0  0  0  0  0  0
   16.1485   17.7717   16.5445 N   0  0  0  0  0  0  0  0  0  0  0  0
   16.0168   17.4607   18.0089 C   0  0  0  0  0  0  0  0  0  0  0  0
   17.0366   17.7777   18.9814 C   0  0  0  0  0  0  0  0  0  0  0  0
   16.7487   17.3979   20.4133 C   0  0  0  0  0  0  0  0  0  0  0  0
   17.6444   17.6589   21.4525 C   0  0  0  0  0  0  0  0  0  0  0  0
   18.8613   18.2782   21.1780 O   0  0  0  0  0  0  0  0  0  0  0  0
   17.3207   17.3019   22.7098 N   0  0  0  0  0  0  0  0  0  0  0  0
   14.9581   15.8632   24.4636 H   0  0  0  0  0  0  0  0  0  0  0  0
   16.4482   16.4880   25.0084 H   0  0  0  0  0  0  0  0  0  0  0  0
   13.3518   16.3630   17.0715 H   0  0  0  0  0  0  0  0  0  0  0  0
   17.9421   17.4847   23.4513 H   0  0  0  0  0  0  0  0  0  0  0  0
   14.5488   17.2816   14.9132 N   0  0  0  0  0  0  0  0  0  0  0  0
   14.4694   16.4674   14.3655 H   0  0  0  0  0  0  0  0  0  0  0  0
   14.2410   18.6020   14.4011 C   0  0  0  0  0  0  0  0  0  0  0  0
   12.7456   18.8660   14.5111 C   0  0  0  0  0  0  0  0  0  0  0  0
   12.2448   20.1583   14.6964 C   0  0  0  0  0  0  0  0  0  0  0  0
   13.0920   21.2666   14.7814 C   0  0  0  0  0  0  0  0  0  0  0  0
   12.5701   22.5514   14.9557 C   0  0  0  0  0  0  0  0  0  0  0  0
   11.1910   22.7379   15.0656 C   0  0  0  0  0  0  0  0  0  0  0  0
   10.3408   21.6318   14.9835 C   0  0  0  0  0  0  0  0  0  0  0  0
   10.8616   20.3465   14.8047 C   0  0  0  0  0  0  0  0  0  0  0  0
    9.9939   19.2532   14.7236 C   0  0  0  0  0  0  0  0  0  0  0  0
   10.5003   17.9608   14.5426 C   0  0  0  0  0  0  0  0  0  0  0  0
   11.8798   17.7666   14.4402 C   0  0  0  0  0  0  0  0  0  0  0  0
 31 30  2  0  0  0
 31 32  1  0  0  0
 30 29  1  0  0  0
 32 23  2  0  0  0
 29 28  2  0  0  0
 29 24  1  0  0  0
 28 27  1  0  0  0
 23 24  1  0  0  0
 23 22  1  0  0  0
 24 25  2  0  0  0
 27 26  2  0  0  0
 25 26  1  0  0  0
 22 20  1  0  0  0
 20  8  1  0  0  0
  8  7  1  0  0  0
  8  9  2  0  0  0
  7  6  1  0  0  0
  9 10  1  0  0  0
  6 10  2  0  0  0
  6  5  1  0  0  0
 10 11  1  0  0  0
  5  4  2  0  0  0
 11 12  2  0  0  0
  4 12  1  0  0  0
  4  3  1  0  0  0
 12 13  1  0  0  0
  3  2  2  0  0  0
 13 14  2  0  0  0
 13 15  1  0  0  0
  2 15  1  0  0  0
  2  1  1  0  0  0
  1 16  1  0  0  0
  1 17  1  0  0  0
  7 18  1  0  0  0
 20 21  1  0  0  0
 15 19  1  0  0  0
M  END
> <minimizedAffinity>
-9.43056

$$$$
2QZR_S79_A_500


 32 36  0  0  0  0  0  0  0  0999 V2000
   15.1652   16.3746   23.3919 N   0  0  0  0  0  0  0  0  0  0  0  0
   15.7801   16.7887   22.1827 C   0  0  0  0  0  0  0  0  0  0  0  0
   15.1194   16.5785   21.0246 N   0  0  0  0  0  0  0  0  0  0  0  0
   15.6837   16.9584   19.8600 C   0  0  0  0  0  0  0  0  0  0  0  0
   14.9757   16.7513   18.5388 C   0  0  0  0  0  0  0  0  0  0  0  0
   15.6697   17.1981   17.3575 C   0  0  0  0  0  0  0  0  0  0  0  0
   15.1944   17.1176   16.1160 N   0  0  0  0  0  0  0  0  0  0  0  0
   16.1021   17.6144   15.3689 C   0  0  0  0  0  0  0  0  0  0  0  0
   17.2084   18.0743   15.9785 N   0  0  0  0  0  0  0  0  0  0  0  0
   16.7534   17.7210   17.3666 C   0  0  0  0  0  0  0  0  0  0  0  0
   17.5466   17.9691   18.5479 C   0  0  0  0  0  0  0  0  0  0  0  0
   16.9443   17.5539   19.8678 C   0  0  0  0  0  0  0  0  0  0  0  0
   17.6003   17.7484   21.0853 C   0  0  0  0  0  0  0  0  0  0  0  0
   18.8649   18.3318   21.1044 O   0  0  0  0  0  0  0  0  0  0  0  0
   17.0016   17.3629   22.2281 N   0  0  0  0  0  0  0  0  0  0  0  0
   14.2749   15.9547   23.3728 H   0  0  0  0  0  0  0  0  0  0  0  0
   15.6286   16.5071   24.2503 H   0  0  0  0  0  0  0  0  0  0  0  0
   14.3251   16.7516   15.8338 H   0  0  0  0  0  0  0  0  0  0  0  0
   17.4523   17.4989   23.0927 H   0  0  0  0  0  0  0  0  0  0  0  0
   15.9873   17.6956   14.0225 N   0  0  0  0  0  0  0  0  0  0  0  0
   15.4675   17.0482   13.4935 H   0  0  0  0  0  0  0  0  0  0  0  0
   16.6906   18.8114   13.4217 C   0  0  0  0  0  0  0  0  0  0  0  0
   17.7255   18.2992   12.4294 C   0  0  0  0  0  0  0  0  0  0  0  0
   17.4616   18.2571   11.0569 C   0  0  0  0  0  0  0  0  0  0  0  0
   16.2404   18.6896   10.5326 C   0  0  0  0  0  0  0  0  0  0  0  0
   16.0009   18.6492    9.1562 C   0  0  0  0  0  0  0  0  0  0  0  0
   16.9784   18.1565    8.2896 C   0  0  0  0  0  0  0  0  0  0  0  0
   18.1999   17.7209    8.8105 C   0  0  0  0  0  0  0  0  0  0  0  0
   18.4421   17.7649   10.1869 C   0  0  0  0  0  0  0  0  0  0  0  0
   19.6713   17.3257   10.6878 C   0  0  0  0  0  0  0  0  0  0  0  0
   19.9292   17.3657   12.0630 C   0  0  0  0  0  0  0  0  0  0  0  0
   18.9522   17.8498   12.9362 C   0  0  0  0  0  0  0  0  0  0  0  0
 31 30  2  0  0  0
 31 32  1  0  0  0
 30 29  1  0  0  0
 32 23  2  0  0  0
 29 28  2  0  0  0
 29 24  1  0  0  0
 28 27  1  0  0  0
 23 24  1  0  0  0
 23 22  1  0  0  0
 24 25  2  0  0  0
 27 26  2  0  0  0
 25 26  1  0  0  0
 22 20  1  0  0  0
 20  8  1  0  0  0
  8  7  1  0  0  0
  8  9  2  0  0  0
  7  6  1  0  0  0
  9 10  1  0  0  0
  6 10  2  0  0  0
  6  5  1  0  0  0
 10 11  1  0  0  0
  5  4  2  0  0  0
 11 12  2  0  0  0
  4 12  1  0  0  0
  4  3  1  0  0  0
 12 13  1  0  0  0
  3  2  2  0  0  0
 13 14  2  0  0  0
 13 15  1  0  0  0
  2 15  1  0  0  0
  2  1  1  0  0  0
  1 16  1  0  0  0
  1 17  1  0  0  0
  7 18  1  0  0  0
 20 21  1  0  0  0
 15 19  1  0  0  0
M  END
> <minimizedAffinity>
-9.16636

$$$$
2QZR_S79_A_500


 32 36  0  0  0  0  0  0  0  0999 V2000
   11.4935   15.5465   18.9605 N   0  0  0  0  0  0  0  0  0  0  0  0
   12.6873   16.1088   18.4404 C   0  0  0  0  0  0  0  0  0  0  0  0
   12.6280   16.7512   17.2547 N   0  0  0  0  0  0  0  0  0  0  0  0
   13.7496   17.2909   16.7353 C   0  0  0  0  0  0  0  0  0  0  0  0
   13.7283   18.0280   15.4140 C   0  0  0  0  0  0  0  0  0  0  0  0
   14.9837   18.5672   14.9555 C   0  0  0  0  0  0  0  0  0  0  0  0
   15.1518   19.2611   13.8312 N   0  0  0  0  0  0  0  0  0  0  0  0
   16.3936   19.5527   13.7912 C   0  0  0  0  0  0  0  0  0  0  0  0
   17.1503   19.1368   14.8214 N   0  0  0  0  0  0  0  0  0  0  0  0
   16.0215   18.4707   15.5567 C   0  0  0  0  0  0  0  0  0  0  0  0
   16.1910   17.7868   16.8175 C   0  0  0  0  0  0  0  0  0  0  0  0
   14.9551   17.1698   17.4251 C   0  0  0  0  0  0  0  0  0  0  0  0
   14.9785   16.4918   18.6458 C   0  0  0  0  0  0  0  0  0  0  0  0
   16.1792   16.3546   19.3382 O   0  0  0  0  0  0  0  0  0  0  0  0
   13.8368   15.9729   19.1361 N   0  0  0  0  0  0  0  0  0  0  0  0
   10.6488   15.6384   18.4633 H   0  0  0  0  0  0  0  0  0  0  0  0
   11.5096   15.0644   19.8187 H   0  0  0  0  0  0  0  0  0  0  0  0
   14.4626   19.4991   13.1696 H   0  0  0  0  0  0  0  0  0  0  0  0
   13.8400   15.4967   19.9977 H   0  0  0  0  0  0  0  0  0  0  0  0
   16.9555   20.2518   12.7771 N   0  0  0  0  0  0  0  0  0  0  0  0
   16.4673   20.9427   12.2736 H   0  0  0  0  0  0  0  0  0  0  0  0
   18.3327   19.9021   12.4917 C   0  0  0  0  0  0  0  0  0  0  0  0
   18.3854   18.8716   11.3720 C   0  0  0  0  0  0  0  0  0  0  0  0
   19.2480   17.7728   11.4322 C   0  0  0  0  0  0  0  0  0  0  0  0
   20.0948   17.5657   12.5246 C   0  0  0  0  0  0  0  0  0  0  0  0
   20.9415   16.4546   12.5699 C   0  0  0  0  0  0  0  0  0  0  0  0
   20.9623   15.5464   11.5098 C   0  0  0  0  0  0  0  0  0  0  0  0
   20.1185   15.7515   10.4147 C   0  0  0  0  0  0  0  0  0  0  0  0
   19.2679   16.8603   10.3704 C   0  0  0  0  0  0  0  0  0  0  0  0
   18.4305   17.0466    9.2663 C   0  0  0  0  0  0  0  0  0  0  0  0
   17.5720   18.1507    9.2086 C   0  0  0  0  0  0  0  0  0  0  0  0
   17.5525   19.0675   10.2624 C   0  0  0  0  0  0  0  0  0  0  0  0
 31 30  2  0  0  0
 31 32  1  0  0  0
 30 29  1  0  0  0
 32 23  2  0  0  0
 29 28  2  0  0  0
 29 24  1  0  0  0
 28 27  1  0  0  0
 23 24  1  0  0  0
 23 22  1  0  0  0
 24 25  2  0  0  0
 27 26  2  0  0  0
 25 26  1  0  0  0
 22 20  1  0  0  0
 20  8  1  0  0  0
  8  7  1  0  0  0
  8  9  2  0  0  0
  7  6  1  0  0  0
  9 10  1  0  0  0
  6 10  2  0  0  0
  6  5  1  0  0  0
 10 11  1  0  0  0
  5  4  2  0  0  0
 11 12  2  0  0  0
  4 12  1  0  0  0
  4  3  1  0  0  0
 12 13  1  0  0  0
  3  2  2  0  0  0
 13 14  2  0  0  0
 13 15  1  0  0  0
  2 15  1  0  0  0
  2  1  1  0  0  0
  1 16  1  0  0  0
  1 17  1  0  0  0
  7 18  1  0  0  0
 20 21  1  0  0  0
 15 19  1  0  0  0
M  END
> <minimizedAffinity>
-9.07290

$$$$
2QZR_S79_A_500


 32 36  0  0  0  0  0  0  0  0999 V2000
   17.3666   17.1009   22.8221 N   0  0  0  0  0  0  0  0  0  0  0  0
   16.8113   17.0587   21.5177 C   0  0  0  0  0  0  0  0  0  0  0  0
   17.3867   17.8074   20.5531 N   0  0  0  0  0  0  0  0  0  0  0  0
   16.8755   17.7892   19.3051 C   0  0  0  0  0  0  0  0  0  0  0  0
   17.4935   18.6050   18.1905 C   0  0  0  0  0  0  0  0  0  0  0  0
   16.8676   18.5076   16.8960 C   0  0  0  0  0  0  0  0  0  0  0  0
   17.2842   19.1343   15.7972 N   0  0  0  0  0  0  0  0  0  0  0  0
   16.4704   18.7888   14.8766 C   0  0  0  0  0  0  0  0  0  0  0  0
   15.4918   17.9331   15.2185 N   0  0  0  0  0  0  0  0  0  0  0  0
   15.9070   17.8229   16.6587 C   0  0  0  0  0  0  0  0  0  0  0  0
   15.2097   17.0059   17.6244 C   0  0  0  0  0  0  0  0  0  0  0  0
   15.7555   17.0054   19.0313 C   0  0  0  0  0  0  0  0  0  0  0  0
   15.1833   16.2497   20.0570 C   0  0  0  0  0  0  0  0  0  0  0  0
   14.0573   15.4720   19.7979 O   0  0  0  0  0  0  0  0  0  0  0  0
   15.7265   16.2877   21.2884 N   0  0  0  0  0  0  0  0  0  0  0  0
   18.1574   17.6590   23.0026 H   0  0  0  0  0  0  0  0  0  0  0  0
   16.9614   16.5722   23.5470 H   0  0  0  0  0  0  0  0  0  0  0  0
   18.0576   19.7375   15.7127 H   0  0  0  0  0  0  0  0  0  0  0  0
   15.3346   15.7558   22.0184 H   0  0  0  0  0  0  0  0  0  0  0  0
   16.5620   19.2391   13.6033 N   0  0  0  0  0  0  0  0  0  0  0  0
   15.7725   19.4803   13.0668 H   0  0  0  0  0  0  0  0  0  0  0  0
   17.9148   19.3377   13.0924 C   0  0  0  0  0  0  0  0  0  0  0  0
   18.0527   18.5068   11.8240 C   0  0  0  0  0  0  0  0  0  0  0  0
   19.0454   17.5304   11.6962 C   0  0  0  0  0  0  0  0  0  0  0  0
   19.9506   17.2672   12.7278 C   0  0  0  0  0  0  0  0  0  0  0  0
   20.9286   16.2791   12.5836 C   0  0  0  0  0  0  0  0  0  0  0  0
   21.0220   15.5548   11.3938 C   0  0  0  0  0  0  0  0  0  0  0  0
   20.1199   15.8169   10.3590 C   0  0  0  0  0  0  0  0  0  0  0  0
   19.1384   16.8021   10.5039 C   0  0  0  0  0  0  0  0  0  0  0  0
   18.2446   17.0479    9.4573 C   0  0  0  0  0  0  0  0  0  0  0  0
   17.2554   18.0296    9.5884 C   0  0  0  0  0  0  0  0  0  0  0  0
   17.1620   18.7635   10.7732 C   0  0  0  0  0  0  0  0  0  0  0  0
 31 30  2  0  0  0
 31 32  1  0  0  0
 30 29  1  0  0  0
 32 23  2  0  0  0
 29 28  2  0  0  0
 29 24  1  0  0  0
 28 27  1  0  0  0
 23 24  1  0  0  0
 23 22  1  0  0  0
 24 25  2  0  0  0
 27 26  2  0  0  0
 25 26  1  0  0  0
 22 20  1  0  0  0
 20  8  1  0  0  0
  8  7  1  0  0  0
  8  9  2  0  0  0
  7  6  1  0  0  0
  9 10  1  0  0  0
  6 10  2  0  0  0
  6  5  1  0  0  0
 10 11  1  0  0  0
  5  4  2  0  0  0
 11 12  2  0  0  0
  4 12  1  0  0  0
  4  3  1  0  0  0
 12 13  1  0  0  0
  3  2  2  0  0  0
 13 14  2  0  0  0
 13 15  1  0  0  0
  2 15  1  0  0  0
  2  1  1  0  0  0
  1 16  1  0  0  0
  1 17  1  0  0  0
  7 18  1  0  0  0
 20 21  1  0  0  0
 15 19  1  0  0  0
M  END
> <minimizedAffinity>
-9.05180

$$$$
2QZR_S79_A_500


 32 36  0  0  0  0  0  0  0  0999 V2000
   13.6155   13.2943   20.0510 N   0  0  0  0  0  0  0  0  0  0  0  0
   13.6612   14.3268   19.0797 C   0  0  0  0  0  0  0  0  0  0  0  0
   14.8230   14.9923   18.9080 N   0  0  0  0  0  0  0  0  0  0  0  0
   14.8923   15.9820   17.9942 C   0  0  0  0  0  0  0  0  0  0  0  0
   16.1761   16.7484   17.7613 C   0  0  0  0  0  0  0  0  0  0  0  0
   16.1374   17.7826   16.7585 C   0  0  0  0  0  0  0  0  0  0  0  0
   17.1724   18.5424   16.4046 N   0  0  0  0  0  0  0  0  0  0  0  0
   16.7295   19.3237   15.4978 C   0  0  0  0  0  0  0  0  0  0  0  0
   15.4407   19.1781   15.1447 N   0  0  0  0  0  0  0  0  0  0  0  0
   15.1637   18.0576   16.1073 C   0  0  0  0  0  0  0  0  0  0  0  0
   13.8735   17.4202   16.2316 C   0  0  0  0  0  0  0  0  0  0  0  0
   13.7617   16.3095   17.2471 C   0  0  0  0  0  0  0  0  0  0  0  0
   12.5755   15.6033   17.4579 C   0  0  0  0  0  0  0  0  0  0  0  0
   11.4365   15.9295   16.7255 O   0  0  0  0  0  0  0  0  0  0  0  0
   12.5470   14.6166   18.3737 N   0  0  0  0  0  0  0  0  0  0  0  0
   14.4207   13.0731   20.5725 H   0  0  0  0  0  0  0  0  0  0  0  0
   12.7786   12.7988   20.2037 H   0  0  0  0  0  0  0  0  0  0  0  0
   18.0873   18.5085   16.7666 H   0  0  0  0  0  0  0  0  0  0  0  0
   11.7178   14.1088   18.5279 H   0  0  0  0  0  0  0  0  0  0  0  0
   17.4951   20.2629   14.8941 N   0  0  0  0  0  0  0  0  0  0  0  0
   18.1433   20.8168   15.3862 H   0  0  0  0  0  0  0  0  0  0  0  0
   17.2845   20.3881   13.4656 C   0  0  0  0  0  0  0  0  0  0  0  0
   18.2642   19.4955   12.7162 C   0  0  0  0  0  0  0  0  0  0  0  0
   17.8875   18.8126   11.5556 C   0  0  0  0  0  0  0  0  0  0  0  0
   16.5988   18.9236   11.0265 C   0  0  0  0  0  0  0  0  0  0  0  0
   16.2461   18.2410    9.8589 C   0  0  0  0  0  0  0  0  0  0  0  0
   17.1780   17.4229    9.2175 C   0  0  0  0  0  0  0  0  0  0  0  0
   18.4670   17.3076    9.7450 C   0  0  0  0  0  0  0  0  0  0  0  0
   18.8222   17.9935   10.9106 C   0  0  0  0  0  0  0  0  0  0  0  0
   20.1174   17.8659   11.4213 C   0  0  0  0  0  0  0  0  0  0  0  0
   20.4884   18.5480   12.5860 C   0  0  0  0  0  0  0  0  0  0  0  0
   19.5580   19.3615   13.2371 C   0  0  0  0  0  0  0  0  0  0  0  0
 31 30  2  0  0  0
 31 32  1  0  0  0
 30 29  1  0  0  0
 32 23  2  0  0  0
 29 28  2  0  0  0
 29 24  1  0  0  0
 28 27  1  0  0  0
 23 24  1  0  0  0
 23 22  1  0  0  0
 24 25  2  0  0  0
 27 26  2  0  0  0
 25 26  1  0  0  0
 22 20  1  0  0  0
 20  8  1  0  0  0
  8  7  1  0  0  0
  8  9  2  0  0  0
  7  6  1  0  0  0
  9 10  1  0  0  0
  6 10  2  0  0  0
  6  5  1  0  0  0
 10 11  1  0  0  0
  5  4  2  0  0  0
 11 12  2  0  0  0
  4 12  1  0  0  0
  4  3  1  0  0  0
 12 13  1  0  0  0
  3  2  2  0  0  0
 13 14  2  0  0  0
 13 15  1  0  0  0
  2 15  1  0  0  0
  2  1  1  0  0  0
  1 16  1  0  0  0
  1 17  1  0  0  0
  7 18  1  0  0  0
 20 21  1  0  0  0
 15 19  1  0  0  0
M  END
> <minimizedAffinity>
-8.96528

$$$$
2QZR_S79_A_500


 32 36  0  0  0  0  0  0  0  0999 V2000
   15.9734   20.8710    7.7105 N   0  0  0  0  0  0  0  0  0  0  0  0
   16.2982   20.1113    8.8634 C   0  0  0  0  0  0  0  0  0  0  0  0
   16.1707   20.6977   10.0725 N   0  0  0  0  0  0  0  0  0  0  0  0
   16.4776   19.9991   11.1847 C   0  0  0  0  0  0  0  0  0  0  0  0
   16.3409   20.6128   12.5611 C   0  0  0  0  0  0  0  0  0  0  0  0
   16.6931   19.7746   13.6792 C   0  0  0  0  0  0  0  0  0  0  0  0
   16.6159   20.1360   14.9588 N   0  0  0  0  0  0  0  0  0  0  0  0
   17.0126   19.1225   15.6254 C   0  0  0  0  0  0  0  0  0  0  0  0
   17.3592   18.0296   14.9236 N   0  0  0  0  0  0  0  0  0  0  0  0
   17.0742   18.6377   13.5790 C   0  0  0  0  0  0  0  0  0  0  0  0
   17.2630   17.9312   12.3335 C   0  0  0  0  0  0  0  0  0  0  0  0
   16.9303   18.6856   11.0696 C   0  0  0  0  0  0  0  0  0  0  0  0
   17.0561   18.1151    9.8011 C   0  0  0  0  0  0  0  0  0  0  0  0
   17.5185   16.8075    9.6732 O   0  0  0  0  0  0  0  0  0  0  0  0
   16.7330   18.8414    8.7143 N   0  0  0  0  0  0  0  0  0  0  0  0
   15.6553   21.7978    7.8053 H   0  0  0  0  0  0  0  0  0  0  0  0
   16.0660   20.4714    6.8155 H   0  0  0  0  0  0  0  0  0  0  0  0
   16.3159   21.0031   15.3156 H   0  0  0  0  0  0  0  0  0  0  0  0
   16.8133   18.4486    7.8152 H   0  0  0  0  0  0  0  0  0  0  0  0
   17.0879   19.1113   16.9770 N   0  0  0  0  0  0  0  0  0  0  0  0
   16.8699   19.8976   17.5278 H   0  0  0  0  0  0  0  0  0  0  0  0
   17.5149   17.8498   17.5486 C   0  0  0  0  0  0  0  0  0  0  0  0
   16.3776   17.2317   18.3504 C   0  0  0  0  0  0  0  0  0  0  0  0
   16.4327   17.1426   19.7448 C   0  0  0  0  0  0  0  0  0  0  0  0
   17.5290   17.6229   20.4663 C   0  0  0  0  0  0  0  0  0  0  0  0
   17.5592   17.5340   21.8609 C   0  0  0  0  0  0  0  0  0  0  0  0
   16.4965   16.9445   22.5480 C   0  0  0  0  0  0  0  0  0  0  0  0
   15.3995   16.4610   21.8296 C   0  0  0  0  0  0  0  0  0  0  0  0
   15.3664   16.5534   20.4349 C   0  0  0  0  0  0  0  0  0  0  0  0
   14.2590   16.0649   19.7350 C   0  0  0  0  0  0  0  0  0  0  0  0
   14.2105   16.1523   18.3387 C   0  0  0  0  0  0  0  0  0  0  0  0
   15.2744   16.7334   17.6447 C   0  0  0  0  0  0  0  0  0  0  0  0
 31 30  2  0  0  0
 31 32  1  0  0  0
 30 29  1  0  0  0
 32 23  2  0  0  0
 29 28  2  0  0  0
 29 24  1  0  0  0
 28 27  1  0  0  0
 23 24  1  0  0  0
 23 22  1  0  0  0
 24 25  2  0  0  0
 27 26  2  0  0  0
 25 26  1  0  0  0
 22 20  1  0  0  0
 20  8  1  0  0  0
  8  7  1  0  0  0
  8  9  2  0  0  0
  7  6  1  0  0  0
  9 10  1  0  0  0
  6 10  2  0  0  0
  6  5  1  0  0  0
 10 11  1  0  0  0
  5  4  2  0  0  0
 11 12  2  0  0  0
  4 12  1  0  0  0
  4  3  1  0  0  0
 12 13  1  0  0  0
  3  2  2  0  0  0
 13 14  2  0  0  0
 13 15  1  0  0  0
  2 15  1  0  0  0
  2  1  1  0  0  0
  1 16  1  0  0  0
  1 17  1  0  0  0
  7 18  1  0  0  0
 20 21  1  0  0  0
 15 19  1  0  0  0
M  END
> <minimizedAffinity>
-8.90881

$$$$
2QZR_S79_A_500


 32 36  0  0  0  0  0  0  0  0999 V2000
   21.6737   20.0674   11.8335 N   0  0  0  0  0  0  0  0  0  0  0  0
   20.4760   19.3121   11.7517 C   0  0  0  0  0  0  0  0  0  0  0  0
   19.7478   19.1441   12.8757 N   0  0  0  0  0  0  0  0  0  0  0  0
   18.6071   18.4261   12.8266 C   0  0  0  0  0  0  0  0  0  0  0  0
   17.7544   18.2198   14.0595 C   0  0  0  0  0  0  0  0  0  0  0  0
   16.5550   17.4388   13.8914 C   0  0  0  0  0  0  0  0  0  0  0  0
   15.6756   17.1724   14.8555 N   0  0  0  0  0  0  0  0  0  0  0  0
   14.7686   16.4628   14.3052 C   0  0  0  0  0  0  0  0  0  0  0  0
   14.9100   16.2038   12.9938 N   0  0  0  0  0  0  0  0  0  0  0  0
   16.2007   16.9595   12.8461 C   0  0  0  0  0  0  0  0  0  0  0  0
   16.9192   17.0647   11.5976 C   0  0  0  0  0  0  0  0  0  0  0  0
   18.2013   17.8604   11.6188 C   0  0  0  0  0  0  0  0  0  0  0  0
   18.9847   18.0500   10.4783 C   0  0  0  0  0  0  0  0  0  0  0  0
   18.5952   17.4799    9.2687 O   0  0  0  0  0  0  0  0  0  0  0  0
   20.1132   18.7793   10.5649 N   0  0  0  0  0  0  0  0  0  0  0  0
   21.9497   20.4612   12.6926 H   0  0  0  0  0  0  0  0  0  0  0  0
   22.2292   20.1979   11.0312 H   0  0  0  0  0  0  0  0  0  0  0  0
   15.7166   17.4621   15.7955 H   0  0  0  0  0  0  0  0  0  0  0  0
   20.6712   18.9236    9.7668 H   0  0  0  0  0  0  0  0  0  0  0  0
   13.6976   15.9817   14.9789 N   0  0  0  0  0  0  0  0  0  0  0  0
   13.2222   15.1636   14.7067 H   0  0  0  0  0  0  0  0  0  0  0  0
   13.3063   16.7665   16.1328 C   0  0  0  0  0  0  0  0  0  0  0  0
   13.5343   15.9653   17.4073 C   0  0  0  0  0  0  0  0  0  0  0  0
   14.5584   16.2927   18.3012 C   0  0  0  0  0  0  0  0  0  0  0  0
   15.4139   17.3735   18.0705 C   0  0  0  0  0  0  0  0  0  0  0  0
   16.4245   17.6904   18.9825 C   0  0  0  0  0  0  0  0  0  0  0  0
   16.6009   16.9144   20.1296 C   0  0  0  0  0  0  0  0  0  0  0  0
   15.7488   15.8315   20.3625 C   0  0  0  0  0  0  0  0  0  0  0  0
   14.7348   15.5162   19.4529 C   0  0  0  0  0  0  0  0  0  0  0  0
   13.8920   14.4295   19.7052 C   0  0  0  0  0  0  0  0  0  0  0  0
   12.8711   14.1029   18.8049 C   0  0  0  0  0  0  0  0  0  0  0  0
   12.6946   14.8703   17.6512 C   0  0  0  0  0  0  0  0  0  0  0  0
 31 30  2  0  0  0
 31 32  1  0  0  0
 30 29  1  0  0  0
 32 23  2  0  0  0
 29 28  2  0  0  0
 29 24  1  0  0  0
 28 27  1  0  0  0
 23 24  1  0  0  0
 23 22  1  0  0  0
 24 25  2  0  0  0
 27 26  2  0  0  0
 25 26  1  0  0  0
 22 20  1  0  0  0
 20  8  1  0  0  0
  8  7  1  0  0  0
  8  9  2  0  0  0
  7  6  1  0  0  0
  9 10  1  0  0  0
  6 10  2  0  0  0
  6  5  1  0  0  0
 10 11  1  0  0  0
  5  4  2  0  0  0
 11 12  2  0  0  0
  4 12  1  0  0  0
  4  3  1  0  0  0
 12 13  1  0  0  0
  3  2  2  0  0  0
 13 14  2  0  0  0
 13 15  1  0  0  0
  2 15  1  0  0  0
  2  1  1  0  0  0
  1 16  1  0  0  0
  1 17  1  0  0  0
  7 18  1  0  0  0
 20 21  1  0  0  0
 15 19  1  0  0  0
M  END
> <minimizedAffinity>
-8.87650

$$$$
2QZR_S79_A_500


 32 36  0  0  0  0  0  0  0  0999 V2000
   19.9691   19.9089    9.0409 N   0  0  0  0  0  0  0  0  0  0  0  0
   18.8347   19.7621    9.8794 C   0  0  0  0  0  0  0  0  0  0  0  0
   18.6187   18.5624   10.4590 N   0  0  0  0  0  0  0  0  0  0  0  0
   17.5446   18.3945   11.2573 C   0  0  0  0  0  0  0  0  0  0  0  0
   17.2682   17.0702   11.9352 C   0  0  0  0  0  0  0  0  0  0  0  0
   16.0944   17.0043   12.7686 C   0  0  0  0  0  0  0  0  0  0  0  0
   15.7061   15.9328   13.4576 N   0  0  0  0  0  0  0  0  0  0  0  0
   14.6348   16.2811   14.0576 C   0  0  0  0  0  0  0  0  0  0  0  0
   14.2168   17.5453   13.8726 N   0  0  0  0  0  0  0  0  0  0  0  0
   15.3443   17.9265   12.9550 C   0  0  0  0  0  0  0  0  0  0  0  0
   15.4774   19.2383   12.3653 C   0  0  0  0  0  0  0  0  0  0  0  0
   16.6683   19.4587   11.4650 C   0  0  0  0  0  0  0  0  0  0  0  0
   16.9209   20.6831   10.8425 C   0  0  0  0  0  0  0  0  0  0  0  0
   16.0461   21.7499   11.0336 O   0  0  0  0  0  0  0  0  0  0  0  0
   18.0077   20.8146   10.0587 N   0  0  0  0  0  0  0  0  0  0  0  0
   20.5800   19.1494    8.9018 H   0  0  0  0  0  0  0  0  0  0  0  0
   20.1457   20.7701    8.5979 H   0  0  0  0  0  0  0  0  0  0  0  0
   16.1519   15.0558   13.4961 H   0  0  0  0  0  0  0  0  0  0  0  0
   18.1986   21.6742    9.6182 H   0  0  0  0  0  0  0  0  0  0  0  0
   13.9300   15.4446   14.8552 N   0  0  0  0  0  0  0  0  0  0  0  0
   13.9507   14.4661   14.7491 H   0  0  0  0  0  0  0  0  0  0  0  0
   13.1426   16.1042   15.8777 C   0  0  0  0  0  0  0  0  0  0  0  0
   13.5964   15.6477   17.2575 C   0  0  0  0  0  0  0  0  0  0  0  0
   14.6547   16.2754   17.9218 C   0  0  0  0  0  0  0  0  0  0  0  0
   15.3387   17.3538   17.3541 C   0  0  0  0  0  0  0  0  0  0  0  0
   16.3868   17.9742   18.0399 C   0  0  0  0  0  0  0  0  0  0  0  0
   16.7739   17.5075   19.2974 C   0  0  0  0  0  0  0  0  0  0  0  0
   16.0937   16.4277   19.8672 C   0  0  0  0  0  0  0  0  0  0  0  0
   15.0422   15.8093   19.1839 C   0  0  0  0  0  0  0  0  0  0  0  0
   14.3737   14.7314   19.7720 C   0  0  0  0  0  0  0  0  0  0  0  0
   13.3177   14.1034   19.1011 C   0  0  0  0  0  0  0  0  0  0  0  0
   12.9311   14.5603   17.8390 C   0  0  0  0  0  0  0  0  0  0  0  0
 31 30  2  0  0  0
 31 32  1  0  0  0
 30 29  1  0  0  0
 32 23  2  0  0  0
 29 28  2  0  0  0
 29 24  1  0  0  0
 28 27  1  0  0  0
 23 24  1  0  0  0
 23 22  1  0  0  0
 24 25  2  0  0  0
 27 26  2  0  0  0
 25 26  1  0  0  0
 22 20  1  0  0  0
 20  8  1  0  0  0
  8  7  1  0  0  0
  8  9  2  0  0  0
  7  6  1  0  0  0
  9 10  1  0  0  0
  6 10  2  0  0  0
  6  5  1  0  0  0
 10 11  1  0  0  0
  5  4  2  0  0  0
 11 12  2  0  0  0
  4 12  1  0  0  0
  4  3  1  0  0  0
 12 13  1  0  0  0
  3  2  2  0  0  0
 13 14  2  0  0  0
 13 15  1  0  0  0
  2 15  1  0  0  0
  2  1  1  0  0  0
  1 16  1  0  0  0
  1 17  1  0  0  0
  7 18  1  0  0  0
 20 21  1  0  0  0
 15 19  1  0  0  0
M  END
> <minimizedAffinity>
-8.46647

$$$$
