3V3Q_TMY_A_301


 27 27  0  0  0  0  0  0  0  0999 V2000
  -16.8451   24.6080    7.3787 C   0  0  0  0  0  0  0  0  0  0  0  0
  -17.7180   25.5570    7.9382 C   0  0  0  0  0  0  0  0  0  0  0  0
  -17.6472   26.9096    7.4874 C   0  0  0  0  0  0  0  0  0  0  0  0
  -16.7372   27.2849    6.5070 C   0  0  0  0  0  0  0  0  0  0  0  0
  -15.8797   26.3675    5.9414 C   0  0  0  0  0  0  0  0  0  0  0  0
  -15.8887   25.0423    6.3290 C   0  0  0  0  0  0  0  0  0  0  0  0
  -14.8894   24.1313    5.6610 C   0  0  0  0  0  0  0  0  0  0  0  0
  -15.2210   23.4611    4.7071 O   0  0  0  0  0  0  0  0  0  0  0  0
  -13.4660   24.1200    6.1765 C   0  0  0  0  0  0  0  0  0  0  0  0
  -12.3534   23.6924    5.2128 C   0  0  0  0  0  0  0  0  0  0  0  0
  -11.0879   24.4808    5.5639 C   0  0  0  0  0  0  0  0  0  0  0  0
  -10.9509   24.7607    7.0688 C   0  0  0  0  0  0  0  0  0  0  0  0
  -10.9471   26.2585    7.4045 C   0  0  0  0  0  0  0  0  0  0  0  0
  -11.1104   27.1342    6.1636 C   0  0  0  0  0  0  0  0  0  0  0  0
  -12.5014   27.7289    6.1126 C   0  0  0  0  0  0  0  0  0  0  0  0
  -18.6303   25.2145    8.8997 O   0  0  0  0  0  0  0  0  0  0  0  0
  -19.8789   24.6607    8.4715 C   0  0  0  0  0  0  0  0  0  0  0  0
  -18.4864   27.8793    7.9603 O   0  0  0  0  0  0  0  0  0  0  0  0
  -19.6420   28.0679    7.1939 C   0  0  0  0  0  0  0  0  0  0  0  0
  -16.6559   28.5577    6.0687 O   0  0  0  0  0  0  0  0  0  0  0  0
  -15.6831   29.4442    6.6341 C   0  0  0  0  0  0  0  0  0  0  0  0
  -16.7686   23.1786    7.7255 C   0  0  0  0  0  0  0  0  0  0  0  0
  -16.2299   22.8053    8.9039 C   0  0  0  0  0  0  0  0  0  0  0  0
  -17.0378   22.3491    9.8674 O   0  0  0  0  0  0  0  0  0  0  0  0
  -14.7884   22.8744    9.1475 O   0  0  0  0  0  0  0  0  0  0  0  0
  -14.2772   22.6984   10.4753 C   0  0  0  0  0  0  0  0  0  0  0  0
  -13.7252   21.3101   10.7697 C   0  0  0  0  0  0  0  0  0  0  0  0
  1  2  2  0  0  0
  1  6  1  0  0  0
  1 22  1  0  0  0
  2  3  1  0  0  0
  2 16  1  0  0  0
  3  4  2  0  0  0
  3 18  1  0  0  0
  4  5  1  0  0  0
  4 20  1  0  0  0
  5  6  2  0  0  0
  6  7  1  0  0  0
 22 23  1  0  0  0
 23 24  2  0  0  0
 23 25  1  0  0  0
 25 26  1  0  0  0
 26 27  1  0  0  0
  7  9  1  0  0  0
  7  8  2  0  0  0
  9 10  1  0  0  0
 10 11  1  0  0  0
 11 12  1  0  0  0
 12 13  1  0  0  0
 13 14  1  0  0  0
 14 15  1  0  0  0
 16 17  1  0  0  0
 18 19  1  0  0  0
 20 21  1  0  0  0
M  END
> <minimizedAffinity>
-5.12855

$$$$
3V3Q_TMY_A_301


 27 27  0  0  0  0  0  0  0  0999 V2000
  -18.5908   26.9640    7.4232 C   0  0  0  0  0  0  0  0  0  0  0  0
  -19.2112   27.1245    8.6741 C   0  0  0  0  0  0  0  0  0  0  0  0
  -19.0184   26.1234    9.6733 C   0  0  0  0  0  0  0  0  0  0  0  0
  -18.2256   25.0108    9.4204 C   0  0  0  0  0  0  0  0  0  0  0  0
  -17.6032   24.8407    8.2037 C   0  0  0  0  0  0  0  0  0  0  0  0
  -17.7459   25.7656    7.1886 C   0  0  0  0  0  0  0  0  0  0  0  0
  -17.0399   25.4651    5.8901 C   0  0  0  0  0  0  0  0  0  0  0  0
  -17.6635   25.0309    4.9458 O   0  0  0  0  0  0  0  0  0  0  0  0
  -15.5605   25.7689    5.7860 C   0  0  0  0  0  0  0  0  0  0  0  0
  -14.6085   24.6135    5.4569 C   0  0  0  0  0  0  0  0  0  0  0  0
  -14.5305   23.6952    6.6804 C   0  0  0  0  0  0  0  0  0  0  0  0
  -13.1450   23.0569    6.8669 C   0  0  0  0  0  0  0  0  0  0  0  0
  -12.0180   23.8602    6.2029 C   0  0  0  0  0  0  0  0  0  0  0  0
  -11.2171   24.6828    7.2104 C   0  0  0  0  0  0  0  0  0  0  0  0
  -11.2329   26.1483    6.8315 C   0  0  0  0  0  0  0  0  0  0  0  0
  -19.9911   28.2142    8.9543 O   0  0  0  0  0  0  0  0  0  0  0  0
  -21.3606   28.1825    8.5388 C   0  0  0  0  0  0  0  0  0  0  0  0
  -19.5615   26.2283   10.9232 O   0  0  0  0  0  0  0  0  0  0  0  0
  -20.8147   25.6212   11.0618 C   0  0  0  0  0  0  0  0  0  0  0  0
  -18.0319   24.0550   10.3519 O   0  0  0  0  0  0  0  0  0  0  0  0
  -18.5619   22.7406   10.1435 C   0  0  0  0  0  0  0  0  0  0  0  0
  -18.6844   27.8833    6.2762 C   0  0  0  0  0  0  0  0  0  0  0  0
  -18.0397   29.0669    6.3148 C   0  0  0  0  0  0  0  0  0  0  0  0
  -18.7048   30.1511    6.7288 O   0  0  0  0  0  0  0  0  0  0  0  0
  -16.6333   29.1901    5.9292 O   0  0  0  0  0  0  0  0  0  0  0  0
  -15.6281   29.3723    6.9352 C   0  0  0  0  0  0  0  0  0  0  0  0
  -14.6263   30.4819    6.6453 C   0  0  0  0  0  0  0  0  0  0  0  0
  1  2  2  0  0  0
  1  6  1  0  0  0
  1 22  1  0  0  0
  2  3  1  0  0  0
  2 16  1  0  0  0
  3  4  2  0  0  0
  3 18  1  0  0  0
  4  5  1  0  0  0
  4 20  1  0  0  0
  5  6  2  0  0  0
  6  7  1  0  0  0
 22 23  1  0  0  0
 23 24  2  0  0  0
 23 25  1  0  0  0
 25 26  1  0  0  0
 26 27  1  0  0  0
  7  9  1  0  0  0
  7  8  2  0  0  0
  9 10  1  0  0  0
 10 11  1  0  0  0
 11 12  1  0  0  0
 12 13  1  0  0  0
 13 14  1  0  0  0
 14 15  1  0  0  0
 16 17  1  0  0  0
 18 19  1  0  0  0
 20 21  1  0  0  0
M  END
> <minimizedAffinity>
-4.96590

$$$$
3V3Q_TMY_A_301


 27 27  0  0  0  0  0  0  0  0999 V2000
  -14.0612   23.5041    6.3886 C   0  0  0  0  0  0  0  0  0  0  0  0
  -13.1156   23.1066    7.3496 C   0  0  0  0  0  0  0  0  0  0  0  0
  -13.5755   22.5489    8.5805 C   0  0  0  0  0  0  0  0  0  0  0  0
  -14.9340   22.3930    8.8260 C   0  0  0  0  0  0  0  0  0  0  0  0
  -15.8748   22.7690    7.8931 C   0  0  0  0  0  0  0  0  0  0  0  0
  -15.5050   23.3180    6.6815 C   0  0  0  0  0  0  0  0  0  0  0  0
  -16.6195   23.7163    5.7465 C   0  0  0  0  0  0  0  0  0  0  0  0
  -17.0553   22.9178    4.9457 O   0  0  0  0  0  0  0  0  0  0  0  0
  -17.2058   25.1063    5.8735 C   0  0  0  0  0  0  0  0  0  0  0  0
  -18.0317   25.4291    7.1237 C   0  0  0  0  0  0  0  0  0  0  0  0
  -17.4931   26.7287    7.7299 C   0  0  0  0  0  0  0  0  0  0  0  0
  -16.5432   27.4844    6.7872 C   0  0  0  0  0  0  0  0  0  0  0  0
  -16.4954   28.9935    7.0639 C   0  0  0  0  0  0  0  0  0  0  0  0
  -15.2150   29.6415    6.5409 C   0  0  0  0  0  0  0  0  0  0  0  0
  -15.5080   31.0138    5.9731 C   0  0  0  0  0  0  0  0  0  0  0  0
  -11.7706   23.2408    7.1318 O   0  0  0  0  0  0  0  0  0  0  0  0
  -11.1631   24.4980    7.4473 C   0  0  0  0  0  0  0  0  0  0  0  0
  -12.7147   22.1089    9.5468 O   0  0  0  0  0  0  0  0  0  0  0  0
  -12.2488   20.8033    9.3550 C   0  0  0  0  0  0  0  0  0  0  0  0
  -15.3871   21.8682    9.9827 O   0  0  0  0  0  0  0  0  0  0  0  0
  -16.3951   22.5584   10.7307 C   0  0  0  0  0  0  0  0  0  0  0  0
  -13.7736   24.1043    5.0747 C   0  0  0  0  0  0  0  0  0  0  0  0
  -13.2607   23.3401    4.0893 C   0  0  0  0  0  0  0  0  0  0  0  0
  -11.9900   23.5321    3.7183 O   0  0  0  0  0  0  0  0  0  0  0  0
  -14.0533   22.3020    3.4288 O   0  0  0  0  0  0  0  0  0  0  0  0
  -13.8176   20.9203    3.7306 C   0  0  0  0  0  0  0  0  0  0  0  0
  -15.0095   20.1831    4.3262 C   0  0  0  0  0  0  0  0  0  0  0  0
  1  2  2  0  0  0
  1  6  1  0  0  0
  1 22  1  0  0  0
  2  3  1  0  0  0
  2 16  1  0  0  0
  3  4  2  0  0  0
  3 18  1  0  0  0
  4  5  1  0  0  0
  4 20  1  0  0  0
  5  6  2  0  0  0
  6  7  1  0  0  0
 22 23  1  0  0  0
 23 24  2  0  0  0
 23 25  1  0  0  0
 25 26  1  0  0  0
 26 27  1  0  0  0
  7  9  1  0  0  0
  7  8  2  0  0  0
  9 10  1  0  0  0
 10 11  1  0  0  0
 11 12  1  0  0  0
 12 13  1  0  0  0
 13 14  1  0  0  0
 14 15  1  0  0  0
 16 17  1  0  0  0
 18 19  1  0  0  0
 20 21  1  0  0  0
M  END
> <minimizedAffinity>
-4.95791

$$$$
3V3Q_TMY_A_301


 27 27  0  0  0  0  0  0  0  0999 V2000
  -13.7179   20.0687    7.9893 C   0  0  0  0  0  0  0  0  0  0  0  0
  -13.8597   19.8694    6.6052 C   0  0  0  0  0  0  0  0  0  0  0  0
  -13.2583   20.8033    5.7086 C   0  0  0  0  0  0  0  0  0  0  0  0
  -12.5379   21.8887    6.1914 C   0  0  0  0  0  0  0  0  0  0  0  0
  -12.3814   22.0956    7.5440 C   0  0  0  0  0  0  0  0  0  0  0  0
  -12.9367   21.2361    8.4709 C   0  0  0  0  0  0  0  0  0  0  0  0
  -12.7231   21.5736    9.9253 C   0  0  0  0  0  0  0  0  0  0  0  0
  -11.7315   21.1806   10.5009 O   0  0  0  0  0  0  0  0  0  0  0  0
  -13.7429   22.4508   10.6198 C   0  0  0  0  0  0  0  0  0  0  0  0
  -14.9589   21.7734   11.2618 C   0  0  0  0  0  0  0  0  0  0  0  0
  -16.2048   22.5899   10.9045 C   0  0  0  0  0  0  0  0  0  0  0  0
  -16.1786   23.1299    9.4659 C   0  0  0  0  0  0  0  0  0  0  0  0
  -16.8265   22.1757    8.4530 C   0  0  0  0  0  0  0  0  0  0  0  0
  -16.3958   22.4700    7.0173 C   0  0  0  0  0  0  0  0  0  0  0  0
  -15.6607   23.7912    6.9437 C   0  0  0  0  0  0  0  0  0  0  0  0
  -14.5569   18.8046    6.1008 O   0  0  0  0  0  0  0  0  0  0  0  0
  -15.9491   18.9869    5.8225 C   0  0  0  0  0  0  0  0  0  0  0  0
  -13.3249   20.6557    4.3514 O   0  0  0  0  0  0  0  0  0  0  0  0
  -12.3278   19.8371    3.8093 C   0  0  0  0  0  0  0  0  0  0  0  0
  -11.9629   22.7812    5.3598 O   0  0  0  0  0  0  0  0  0  0  0  0
  -11.9921   24.1764    5.6830 C   0  0  0  0  0  0  0  0  0  0  0  0
  -14.2742   19.2197    9.0567 C   0  0  0  0  0  0  0  0  0  0  0  0
  -13.6533   18.0692    9.3866 C   0  0  0  0  0  0  0  0  0  0  0  0
  -14.0447   16.9329    8.7992 O   0  0  0  0  0  0  0  0  0  0  0  0
  -12.5583   18.0364   10.3570 O   0  0  0  0  0  0  0  0  0  0  0  0
  -12.8173   17.6636   11.7169 C   0  0  0  0  0  0  0  0  0  0  0  0
  -12.9263   18.8295   12.6904 C   0  0  0  0  0  0  0  0  0  0  0  0
  1  2  2  0  0  0
  1  6  1  0  0  0
  1 22  1  0  0  0
  2  3  1  0  0  0
  2 16  1  0  0  0
  3  4  2  0  0  0
  3 18  1  0  0  0
  4  5  1  0  0  0
  4 20  1  0  0  0
  5  6  2  0  0  0
  6  7  1  0  0  0
 22 23  1  0  0  0
 23 24  2  0  0  0
 23 25  1  0  0  0
 25 26  1  0  0  0
 26 27  1  0  0  0
  7  9  1  0  0  0
  7  8  2  0  0  0
  9 10  1  0  0  0
 10 11  1  0  0  0
 11 12  1  0  0  0
 12 13  1  0  0  0
 13 14  1  0  0  0
 14 15  1  0  0  0
 16 17  1  0  0  0
 18 19  1  0  0  0
 20 21  1  0  0  0
M  END
> <minimizedAffinity>
-4.95438

$$$$
3V3Q_TMY_A_301


 27 27  0  0  0  0  0  0  0  0999 V2000
  -13.9992   21.9974    7.3869 C   0  0  0  0  0  0  0  0  0  0  0  0
  -15.1236   22.8355    7.4810 C   0  0  0  0  0  0  0  0  0  0  0  0
  -15.6758   23.1070    8.7690 C   0  0  0  0  0  0  0  0  0  0  0  0
  -15.1102   22.5599    9.9140 C   0  0  0  0  0  0  0  0  0  0  0  0
  -14.0035   21.7433    9.8422 C   0  0  0  0  0  0  0  0  0  0  0  0
  -13.4168   21.4341    8.6313 C   0  0  0  0  0  0  0  0  0  0  0  0
  -12.2250   20.5105    8.6689 C   0  0  0  0  0  0  0  0  0  0  0  0
  -11.1178   20.9555    8.8814 O   0  0  0  0  0  0  0  0  0  0  0  0
  -12.4572   19.0253    8.4897 C   0  0  0  0  0  0  0  0  0  0  0  0
  -13.8910   18.5446    8.2393 C   0  0  0  0  0  0  0  0  0  0  0  0
  -14.3151   17.6693    9.4228 C   0  0  0  0  0  0  0  0  0  0  0  0
  -15.2281   18.4032   10.4177 C   0  0  0  0  0  0  0  0  0  0  0  0
  -14.6826   18.3971   11.8525 C   0  0  0  0  0  0  0  0  0  0  0  0
  -13.2010   18.0302   11.9109 C   0  0  0  0  0  0  0  0  0  0  0  0
  -12.5220   18.7447   13.0598 C   0  0  0  0  0  0  0  0  0  0  0  0
  -15.6970   23.3950    6.3708 O   0  0  0  0  0  0  0  0  0  0  0  0
  -15.2513   24.6948    5.9696 C   0  0  0  0  0  0  0  0  0  0  0  0
  -16.7464   23.9391    8.9413 O   0  0  0  0  0  0  0  0  0  0  0  0
  -17.9909   23.3244    8.7634 C   0  0  0  0  0  0  0  0  0  0  0  0
  -15.6179   22.8052   11.1391 O   0  0  0  0  0  0  0  0  0  0  0  0
  -16.3648   21.7877   11.8165 C   0  0  0  0  0  0  0  0  0  0  0  0
  -13.3052   21.6006    6.1498 C   0  0  0  0  0  0  0  0  0  0  0  0
  -12.3939   22.4288    5.6004 C   0  0  0  0  0  0  0  0  0  0  0  0
  -12.1036   22.2986    4.3012 O   0  0  0  0  0  0  0  0  0  0  0  0
  -11.7284   23.4699    6.3847 O   0  0  0  0  0  0  0  0  0  0  0  0
  -11.5179   24.7697    5.8174 C   0  0  0  0  0  0  0  0  0  0  0  0
  -11.1653   25.8574    6.8230 C   0  0  0  0  0  0  0  0  0  0  0  0
  1  2  2  0  0  0
  1  6  1  0  0  0
  1 22  1  0  0  0
  2  3  1  0  0  0
  2 16  1  0  0  0
  3  4  2  0  0  0
  3 18  1  0  0  0
  4  5  1  0  0  0
  4 20  1  0  0  0
  5  6  2  0  0  0
  6  7  1  0  0  0
 22 23  1  0  0  0
 23 24  2  0  0  0
 23 25  1  0  0  0
 25 26  1  0  0  0
 26 27  1  0  0  0
  7  9  1  0  0  0
  7  8  2  0  0  0
  9 10  1  0  0  0
 10 11  1  0  0  0
 11 12  1  0  0  0
 12 13  1  0  0  0
 13 14  1  0  0  0
 14 15  1  0  0  0
 16 17  1  0  0  0
 18 19  1  0  0  0
 20 21  1  0  0  0
M  END
> <minimizedAffinity>
-4.92233

$$$$
3V3Q_TMY_A_301


 27 27  0  0  0  0  0  0  0  0999 V2000
  -14.1201   22.7366    6.5947 C   0  0  0  0  0  0  0  0  0  0  0  0
  -13.4366   22.1076    7.6496 C   0  0  0  0  0  0  0  0  0  0  0  0
  -14.0307   22.0972    8.9475 C   0  0  0  0  0  0  0  0  0  0  0  0
  -15.2671   22.6913    9.1675 C   0  0  0  0  0  0  0  0  0  0  0  0
  -15.9553   23.3050    8.1446 C   0  0  0  0  0  0  0  0  0  0  0  0
  -15.4422   23.3568    6.8638 C   0  0  0  0  0  0  0  0  0  0  0  0
  -16.2697   24.0759    5.8279 C   0  0  0  0  0  0  0  0  0  0  0  0
  -17.0706   23.4619    5.1567 O   0  0  0  0  0  0  0  0  0  0  0  0
  -16.1109   25.5753    5.6914 C   0  0  0  0  0  0  0  0  0  0  0  0
  -16.8580   26.4729    6.6842 C   0  0  0  0  0  0  0  0  0  0  0  0
  -16.3393   27.9046    6.5178 C   0  0  0  0  0  0  0  0  0  0  0  0
  -17.4498   28.9625    6.6154 C   0  0  0  0  0  0  0  0  0  0  0  0
  -18.8257   28.3628    6.9374 C   0  0  0  0  0  0  0  0  0  0  0  0
  -19.8637   28.6749    5.8612 C   0  0  0  0  0  0  0  0  0  0  0  0
  -19.6895   27.7541    4.6725 C   0  0  0  0  0  0  0  0  0  0  0  0
  -12.2209   21.5071    7.4605 O   0  0  0  0  0  0  0  0  0  0  0  0
  -12.2055   20.1807    6.9224 C   0  0  0  0  0  0  0  0  0  0  0  0
  -13.4414   21.4756   10.0127 O   0  0  0  0  0  0  0  0  0  0  0  0
  -13.8201   20.1395   10.1844 C   0  0  0  0  0  0  0  0  0  0  0  0
  -15.8438   22.6913   10.3866 O   0  0  0  0  0  0  0  0  0  0  0  0
  -17.1199   22.0668   10.5701 C   0  0  0  0  0  0  0  0  0  0  0  0
  -13.6594   22.8537    5.2006 C   0  0  0  0  0  0  0  0  0  0  0  0
  -12.6859   23.7337    4.8908 C   0  0  0  0  0  0  0  0  0  0  0  0
  -11.8964   23.4801    3.8412 O   0  0  0  0  0  0  0  0  0  0  0  0
  -12.4824   24.9598    5.6635 O   0  0  0  0  0  0  0  0  0  0  0  0
  -11.1653   25.3214    6.0995 C   0  0  0  0  0  0  0  0  0  0  0  0
  -10.7571   24.7453    7.4486 C   0  0  0  0  0  0  0  0  0  0  0  0
  1  2  2  0  0  0
  1  6  1  0  0  0
  1 22  1  0  0  0
  2  3  1  0  0  0
  2 16  1  0  0  0
  3  4  2  0  0  0
  3 18  1  0  0  0
  4  5  1  0  0  0
  4 20  1  0  0  0
  5  6  2  0  0  0
  6  7  1  0  0  0
 22 23  1  0  0  0
 23 24  2  0  0  0
 23 25  1  0  0  0
 25 26  1  0  0  0
 26 27  1  0  0  0
  7  9  1  0  0  0
  7  8  2  0  0  0
  9 10  1  0  0  0
 10 11  1  0  0  0
 11 12  1  0  0  0
 12 13  1  0  0  0
 13 14  1  0  0  0
 14 15  1  0  0  0
 16 17  1  0  0  0
 18 19  1  0  0  0
 20 21  1  0  0  0
M  END
> <minimizedAffinity>
-4.80939

$$$$
3V3Q_TMY_A_301


 27 27  0  0  0  0  0  0  0  0999 V2000
  -17.5796   25.9332    7.1224 C   0  0  0  0  0  0  0  0  0  0  0  0
  -18.3164   26.2480    8.2773 C   0  0  0  0  0  0  0  0  0  0  0  0
  -18.2829   25.3469    9.3839 C   0  0  0  0  0  0  0  0  0  0  0  0
  -17.5302   24.1805    9.3277 C   0  0  0  0  0  0  0  0  0  0  0  0
  -16.7954   23.8595    8.2079 C   0  0  0  0  0  0  0  0  0  0  0  0
  -16.7817   24.6811    7.0984 C   0  0  0  0  0  0  0  0  0  0  0  0
  -15.9626   24.2185    5.9194 C   0  0  0  0  0  0  0  0  0  0  0  0
  -16.4357   23.4417    5.1182 O   0  0  0  0  0  0  0  0  0  0  0  0
  -14.5712   24.7872    5.7397 C   0  0  0  0  0  0  0  0  0  0  0  0
  -13.3975   23.8057    5.6463 C   0  0  0  0  0  0  0  0  0  0  0  0
  -13.0923   23.2901    7.0560 C   0  0  0  0  0  0  0  0  0  0  0  0
  -11.7177   23.7387    7.5767 C   0  0  0  0  0  0  0  0  0  0  0  0
  -11.0239   24.7483    6.6517 C   0  0  0  0  0  0  0  0  0  0  0  0
  -11.0652   26.1709    7.2064 C   0  0  0  0  0  0  0  0  0  0  0  0
  -11.5515   27.1391    6.1494 C   0  0  0  0  0  0  0  0  0  0  0  0
  -19.0604   27.3939    8.3641 O   0  0  0  0  0  0  0  0  0  0  0  0
  -20.4265   27.3393    7.9400 C   0  0  0  0  0  0  0  0  0  0  0  0
  -18.9458   25.6031   10.5515 O   0  0  0  0  0  0  0  0  0  0  0  0
  -20.2031   24.9961   10.6475 C   0  0  0  0  0  0  0  0  0  0  0  0
  -17.4863   23.3175   10.3631 O   0  0  0  0  0  0  0  0  0  0  0  0
  -17.9337   21.9685   10.1844 C   0  0  0  0  0  0  0  0  0  0  0  0
  -17.5038   26.7334    5.8882 C   0  0  0  0  0  0  0  0  0  0  0  0
  -18.5044   26.6671    4.9869 C   0  0  0  0  0  0  0  0  0  0  0  0
  -18.9899   27.8042    4.4765 O   0  0  0  0  0  0  0  0  0  0  0  0
  -19.0598   25.3868    4.5463 O   0  0  0  0  0  0  0  0  0  0  0  0
  -20.3986   25.0239    4.9093 C   0  0  0  0  0  0  0  0  0  0  0  0
  -20.5037   24.0482    6.0737 C   0  0  0  0  0  0  0  0  0  0  0  0
  1  2  2  0  0  0
  1  6  1  0  0  0
  1 22  1  0  0  0
  2  3  1  0  0  0
  2 16  1  0  0  0
  3  4  2  0  0  0
  3 18  1  0  0  0
  4  5  1  0  0  0
  4 20  1  0  0  0
  5  6  2  0  0  0
  6  7  1  0  0  0
 22 23  1  0  0  0
 23 24  2  0  0  0
 23 25  1  0  0  0
 25 26  1  0  0  0
 26 27  1  0  0  0
  7  9  1  0  0  0
  7  8  2  0  0  0
  9 10  1  0  0  0
 10 11  1  0  0  0
 11 12  1  0  0  0
 12 13  1  0  0  0
 13 14  1  0  0  0
 14 15  1  0  0  0
 16 17  1  0  0  0
 18 19  1  0  0  0
 20 21  1  0  0  0
M  END
> <minimizedAffinity>
-4.79068

$$$$
3V3Q_TMY_A_301


 27 27  0  0  0  0  0  0  0  0999 V2000
  -13.6021   20.6819    6.5147 C   0  0  0  0  0  0  0  0  0  0  0  0
  -12.8467   21.2476    5.4730 C   0  0  0  0  0  0  0  0  0  0  0  0
  -13.2755   22.4839    4.9026 C   0  0  0  0  0  0  0  0  0  0  0  0
  -14.4159   23.1246    5.3708 C   0  0  0  0  0  0  0  0  0  0  0  0
  -15.1640   22.5897    6.3960 C   0  0  0  0  0  0  0  0  0  0  0  0
  -14.8124   21.3962    6.9944 C   0  0  0  0  0  0  0  0  0  0  0  0
  -15.7179   20.8916    8.0900 C   0  0  0  0  0  0  0  0  0  0  0  0
  -16.6597   20.1782    7.8195 O   0  0  0  0  0  0  0  0  0  0  0  0
  -15.3882   21.2534    9.5225 C   0  0  0  0  0  0  0  0  0  0  0  0
  -14.3221   22.3271    9.7680 C   0  0  0  0  0  0  0  0  0  0  0  0
  -13.3621   21.8101   10.8439 C   0  0  0  0  0  0  0  0  0  0  0  0
  -13.8702   20.5401   11.5444 C   0  0  0  0  0  0  0  0  0  0  0  0
  -12.7456   19.7159   12.1863 C   0  0  0  0  0  0  0  0  0  0  0  0
  -13.2417   18.3777   12.7306 C   0  0  0  0  0  0  0  0  0  0  0  0
  -12.1164   17.3656   12.7580 C   0  0  0  0  0  0  0  0  0  0  0  0
  -11.7144   20.6430    4.9969 O   0  0  0  0  0  0  0  0  0  0  0  0
  -11.8425   19.7802    3.8619 C   0  0  0  0  0  0  0  0  0  0  0  0
  -12.5735   23.1103    3.9111 O   0  0  0  0  0  0  0  0  0  0  0  0
  -11.5531   23.9518    4.3683 C   0  0  0  0  0  0  0  0  0  0  0  0
  -14.8362   24.2929    4.8444 O   0  0  0  0  0  0  0  0  0  0  0  0
  -15.3692   25.3089    5.7021 C   0  0  0  0  0  0  0  0  0  0  0  0
  -13.3194   19.4159    7.2122 C   0  0  0  0  0  0  0  0  0  0  0  0
  -12.4392   19.3983    8.2335 C   0  0  0  0  0  0  0  0  0  0  0  0
  -11.5306   20.3762    8.3196 O   0  0  0  0  0  0  0  0  0  0  0  0
  -12.4629   18.3476    9.2520 O   0  0  0  0  0  0  0  0  0  0  0  0
  -13.3394   17.2232    9.1008 C   0  0  0  0  0  0  0  0  0  0  0  0
  -14.7429   17.4267    9.6553 C   0  0  0  0  0  0  0  0  0  0  0  0
  1  2  2  0  0  0
  1  6  1  0  0  0
  1 22  1  0  0  0
  2  3  1  0  0  0
  2 16  1  0  0  0
  3  4  2  0  0  0
  3 18  1  0  0  0
  4  5  1  0  0  0
  4 20  1  0  0  0
  5  6  2  0  0  0
  6  7  1  0  0  0
 22 23  1  0  0  0
 23 24  2  0  0  0
 23 25  1  0  0  0
 25 26  1  0  0  0
 26 27  1  0  0  0
  7  9  1  0  0  0
  7  8  2  0  0  0
  9 10  1  0  0  0
 10 11  1  0  0  0
 11 12  1  0  0  0
 12 13  1  0  0  0
 13 14  1  0  0  0
 14 15  1  0  0  0
 16 17  1  0  0  0
 18 19  1  0  0  0
 20 21  1  0  0  0
M  END
> <minimizedAffinity>
-4.78372

$$$$
3V3Q_TMY_A_301


 27 27  0  0  0  0  0  0  0  0999 V2000
  -13.2287   22.6402    8.3888 C   0  0  0  0  0  0  0  0  0  0  0  0
  -12.4976   23.3508    7.4212 C   0  0  0  0  0  0  0  0  0  0  0  0
  -13.1907   23.9085    6.3049 C   0  0  0  0  0  0  0  0  0  0  0  0
  -14.5661   23.7602    6.1765 C   0  0  0  0  0  0  0  0  0  0  0  0
  -15.3002   23.0744    7.1186 C   0  0  0  0  0  0  0  0  0  0  0  0
  -14.6982   22.5055    8.2232 C   0  0  0  0  0  0  0  0  0  0  0  0
  -15.5953   21.7565    9.1767 C   0  0  0  0  0  0  0  0  0  0  0  0
  -15.7912   22.1878   10.2923 O   0  0  0  0  0  0  0  0  0  0  0  0
  -16.2769   20.4965    8.6870 C   0  0  0  0  0  0  0  0  0  0  0  0
  -15.7098   19.1468    9.1410 C   0  0  0  0  0  0  0  0  0  0  0  0
  -14.8421   18.5880    8.0091 C   0  0  0  0  0  0  0  0  0  0  0  0
  -15.0182   19.3471    6.6845 C   0  0  0  0  0  0  0  0  0  0  0  0
  -13.6912   19.8451    6.0952 C   0  0  0  0  0  0  0  0  0  0  0  0
  -13.6831   19.8125    4.5681 C   0  0  0  0  0  0  0  0  0  0  0  0
  -12.2647   19.8759    4.0431 C   0  0  0  0  0  0  0  0  0  0  0  0
  -11.1430   23.5198    7.5259 O   0  0  0  0  0  0  0  0  0  0  0  0
  -10.6443   24.8526    7.6806 C   0  0  0  0  0  0  0  0  0  0  0  0
  -12.5521   24.6405    5.3433 O   0  0  0  0  0  0  0  0  0  0  0  0
  -11.9406   23.8745    4.3445 C   0  0  0  0  0  0  0  0  0  0  0  0
  -15.2379   24.2800    5.1290 O   0  0  0  0  0  0  0  0  0  0  0  0
  -16.0065   25.4767    5.2997 C   0  0  0  0  0  0  0  0  0  0  0  0
  -12.6847   21.9915    9.5940 C   0  0  0  0  0  0  0  0  0  0  0  0
  -12.1536   20.7553    9.5049 C   0  0  0  0  0  0  0  0  0  0  0  0
  -11.1798   20.5335    8.6151 O   0  0  0  0  0  0  0  0  0  0  0  0
  -12.6059   19.6597   10.3634 O   0  0  0  0  0  0  0  0  0  0  0  0
  -13.1147   19.9400   11.6742 C   0  0  0  0  0  0  0  0  0  0  0  0
  -12.7848   18.8902   12.7267 C   0  0  0  0  0  0  0  0  0  0  0  0
  1  2  2  0  0  0
  1  6  1  0  0  0
  1 22  1  0  0  0
  2  3  1  0  0  0
  2 16  1  0  0  0
  3  4  2  0  0  0
  3 18  1  0  0  0
  4  5  1  0  0  0
  4 20  1  0  0  0
  5  6  2  0  0  0
  6  7  1  0  0  0
 22 23  1  0  0  0
 23 24  2  0  0  0
 23 25  1  0  0  0
 25 26  1  0  0  0
 26 27  1  0  0  0
  7  9  1  0  0  0
  7  8  2  0  0  0
  9 10  1  0  0  0
 10 11  1  0  0  0
 11 12  1  0  0  0
 12 13  1  0  0  0
 13 14  1  0  0  0
 14 15  1  0  0  0
 16 17  1  0  0  0
 18 19  1  0  0  0
 20 21  1  0  0  0
M  END
> <minimizedAffinity>
-4.74949

$$$$
3V3Q_TMY_A_301


 27 27  0  0  0  0  0  0  0  0999 V2000
  -13.8608   22.4516    7.2430 C   0  0  0  0  0  0  0  0  0  0  0  0
  -13.5428   23.2846    6.1564 C   0  0  0  0  0  0  0  0  0  0  0  0
  -12.8458   22.7285    5.0417 C   0  0  0  0  0  0  0  0  0  0  0  0
  -12.4919   21.3851    5.0235 C   0  0  0  0  0  0  0  0  0  0  0  0
  -12.8023   20.5518    6.0752 C   0  0  0  0  0  0  0  0  0  0  0  0
  -13.4724   21.0194    7.1881 C   0  0  0  0  0  0  0  0  0  0  0  0
  -13.7375   20.0247    8.2904 C   0  0  0  0  0  0  0  0  0  0  0  0
  -14.7780   19.4033    8.3108 O   0  0  0  0  0  0  0  0  0  0  0  0
  -12.6578   19.7895    9.3252 C   0  0  0  0  0  0  0  0  0  0  0  0
  -12.6078   20.7227   10.5401 C   0  0  0  0  0  0  0  0  0  0  0  0
  -13.4886   20.1224   11.6403 C   0  0  0  0  0  0  0  0  0  0  0  0
  -12.8068   18.9712   12.3964 C   0  0  0  0  0  0  0  0  0  0  0  0
  -13.5527   17.6365   12.2600 C   0  0  0  0  0  0  0  0  0  0  0  0
  -12.6066   16.4372   12.2644 C   0  0  0  0  0  0  0  0  0  0  0  0
  -11.4534   16.6741   13.2158 C   0  0  0  0  0  0  0  0  0  0  0  0
  -13.8859   24.6099    6.1431 O   0  0  0  0  0  0  0  0  0  0  0  0
  -15.1475   24.9695    5.5703 C   0  0  0  0  0  0  0  0  0  0  0  0
  -12.5334   23.4685    3.9357 O   0  0  0  0  0  0  0  0  0  0  0  0
  -11.3395   24.1908    4.0417 C   0  0  0  0  0  0  0  0  0  0  0  0
  -11.8334   20.8422    3.9793 O   0  0  0  0  0  0  0  0  0  0  0  0
  -12.1329   19.5032    3.5676 C   0  0  0  0  0  0  0  0  0  0  0  0
  -14.5629   22.8506    8.4747 C   0  0  0  0  0  0  0  0  0  0  0  0
  -15.9109   22.8481    8.5056 C   0  0  0  0  0  0  0  0  0  0  0  0
  -16.5791   22.3058    7.4816 O   0  0  0  0  0  0  0  0  0  0  0  0
  -16.6559   23.4098    9.6331 O   0  0  0  0  0  0  0  0  0  0  0  0
  -16.6982   22.7096   10.8836 C   0  0  0  0  0  0  0  0  0  0  0  0
  -16.9302   21.2090   10.7692 C   0  0  0  0  0  0  0  0  0  0  0  0
  1  2  2  0  0  0
  1  6  1  0  0  0
  1 22  1  0  0  0
  2  3  1  0  0  0
  2 16  1  0  0  0
  3  4  2  0  0  0
  3 18  1  0  0  0
  4  5  1  0  0  0
  4 20  1  0  0  0
  5  6  2  0  0  0
  6  7  1  0  0  0
 22 23  1  0  0  0
 23 24  2  0  0  0
 23 25  1  0  0  0
 25 26  1  0  0  0
 26 27  1  0  0  0
  7  9  1  0  0  0
  7  8  2  0  0  0
  9 10  1  0  0  0
 10 11  1  0  0  0
 11 12  1  0  0  0
 12 13  1  0  0  0
 13 14  1  0  0  0
 14 15  1  0  0  0
 16 17  1  0  0  0
 18 19  1  0  0  0
 20 21  1  0  0  0
M  END
> <minimizedAffinity>
-4.74564

$$$$
