3PWM_017_B_402


 42 45  0  0  0  0  0  0  0  0999 V2000
   13.7680   19.1605   18.0855 C   0  0  0  0  0  0  0  0  0  0  0  0
   14.8522   18.3807   18.5564 O   0  0  0  0  0  0  0  0  0  0  0  0
   15.3008   17.9632   17.8044 H   0  0  0  0  0  0  0  0  0  0  0  0
   12.7035   18.3111   17.4028 C   0  0  0  0  0  0  0  0  0  0  0  0
   11.4054   18.9404   17.5607 N   0  0  0  0  0  0  0  0  0  0  0  0
   10.6980   19.4150   16.1611 S   0  0  0  0  0  0  0  0  0  0  0  0
   11.7862   19.6828   15.1889 O   0  0  0  0  0  0  0  0  0  0  0  0
    9.8497   20.6019   16.4533 O   0  0  0  0  0  0  0  0  0  0  0  0
    7.5287   14.9787   13.9798 N   0  0  0  0  0  0  0  0  0  0  0  0
    8.1893   16.0039   14.5294 C   0  0  0  0  0  0  0  0  0  0  0  0
    7.5664   17.1961   14.8658 C   0  0  0  0  0  0  0  0  0  0  0  0
    8.3022   18.2385   15.4470 C   0  0  0  0  0  0  0  0  0  0  0  0
    9.6831   18.1179   15.5315 C   0  0  0  0  0  0  0  0  0  0  0  0
   10.2966   16.9369   15.1521 C   0  0  0  0  0  0  0  0  0  0  0  0
    9.5746   15.8778   14.6473 C   0  0  0  0  0  0  0  0  0  0  0  0
    6.5506   15.0223   13.8759 H   0  0  0  0  0  0  0  0  0  0  0  0
    8.0205   14.1806   13.6791 H   0  0  0  0  0  0  0  0  0  0  0  0
   10.5448   18.3814   18.5716 C   0  0  0  0  0  0  0  0  0  0  0  0
   10.6777   18.9626   19.9964 C   0  0  0  0  0  0  0  0  0  0  0  0
   10.6509   20.4882   19.9822 C   0  0  0  0  0  0  0  0  0  0  0  0
    9.4764   18.4510   20.8295 C   0  0  0  0  0  0  0  0  0  0  0  0
   14.2646   20.2888   17.1832 C   0  0  0  0  0  0  0  0  0  0  0  0
   15.1081   21.1742   17.9837 N   0  0  0  0  0  0  0  0  0  0  0  0
   14.7472   22.1515   18.8156 C   0  0  0  0  0  0  0  0  0  0  0  0
   13.5640   22.4285   19.0319 O   0  0  0  0  0  0  0  0  0  0  0  0
   16.0778   21.0285   17.8964 H   0  0  0  0  0  0  0  0  0  0  0  0
   15.7881   22.8046   19.3797 O   0  0  0  0  0  0  0  0  0  0  0  0
   15.5574   24.2022   19.6340 C   0  0  0  0  0  0  0  0  0  0  0  0
   16.2703   24.5595   20.9451 C   0  0  0  0  0  0  0  0  0  0  0  0
   17.6504   24.5472   20.5670 O   0  0  0  0  0  0  0  0  0  0  0  0
   17.7406   25.1143   19.2686 C   0  0  0  0  0  0  0  0  0  0  0  0
   18.6571   24.3600   18.4576 O   0  0  0  0  0  0  0  0  0  0  0  0
   17.9204   23.5729   17.5728 C   0  0  0  0  0  0  0  0  0  0  0  0
   16.6467   24.3896   17.2781 C   0  0  0  0  0  0  0  0  0  0  0  0
   16.3640   25.0035   18.6279 C   0  0  0  0  0  0  0  0  0  0  0  0
   15.0578   19.7729   15.9940 C   0  0  0  0  0  0  0  0  0  0  0  0
   16.8204   21.1970   14.8780 C   0  0  0  0  0  0  0  0  0  0  0  0
   17.2107   22.2706   14.0824 C   0  0  0  0  0  0  0  0  0  0  0  0
   16.2672   23.0973   13.4861 C   0  0  0  0  0  0  0  0  0  0  0  0
   14.9255   22.7712   13.6544 C   0  0  0  0  0  0  0  0  0  0  0  0
   14.5253   21.7036   14.4435 C   0  0  0  0  0  0  0  0  0  0  0  0
   15.4784   20.9159   15.0690 C   0  0  0  0  0  0  0  0  0  0  0  0
  9 10  1  0  0  0
 10 11  2  0  0  0
 10 15  1  0  0  0
 11 12  1  0  0  0
 12 13  2  0  0  0
 13 14  1  0  0  0
 13  6  1  0  0  0
 14 15  2  0  0  0
  6  7  2  0  0  0
  6  8  2  0  0  0
  6  5  1  0  0  0
  5 18  1  0  0  0
  5  4  1  0  0  0
 18 19  1  0  0  0
 19 20  1  0  0  0
 19 21  1  0  0  0
  4  1  1  0  0  0
  1  2  1  0  0  0
  1 22  1  0  0  0
 22 23  1  0  0  0
 22 36  1  0  0  0
 23 24  1  0  0  0
 24 25  2  0  0  0
 24 27  1  0  0  0
 27 28  1  0  0  0
 28 29  1  0  0  0
 28 35  1  0  0  0
 29 30  1  0  0  0
 30 31  1  0  0  0
 31 32  1  0  0  0
 31 35  1  0  0  0
 32 33  1  0  0  0
 33 34  1  0  0  0
 34 35  1  0  0  0
 36 42  1  0  0  0
 37 38  2  0  0  0
 37 42  1  0  0  0
 38 39  1  0  0  0
 39 40  2  0  0  0
 40 41  1  0  0  0
 41 42  2  0  0  0
  9 16  1  0  0  0
  9 17  1  0  0  0
  2  3  1  0  0  0
 23 26  1  0  0  0
M  END
> <minimizedAffinity>
-9.96015

$$$$
3PWM_017_B_402


 42 45  0  0  0  0  0  0  0  0999 V2000
   13.0308   18.7102   18.1885 C   0  0  0  0  0  0  0  0  0  0  0  0
   13.5897   17.5423   18.7623 O   0  0  0  0  0  0  0  0  0  0  0  0
   13.4862   17.5743   19.7262 H   0  0  0  0  0  0  0  0  0  0  0  0
   13.7603   19.9725   18.6300 C   0  0  0  0  0  0  0  0  0  0  0  0
   13.5626   21.0178   17.6430 N   0  0  0  0  0  0  0  0  0  0  0  0
   12.8947   22.3954   18.2266 S   0  0  0  0  0  0  0  0  0  0  0  0
   12.0260   22.0123   19.3668 O   0  0  0  0  0  0  0  0  0  0  0  0
   12.1645   23.0603   17.1138 O   0  0  0  0  0  0  0  0  0  0  0  0
   17.0463   26.1489   20.0038 N   0  0  0  0  0  0  0  0  0  0  0  0
   16.0992   25.2632   19.6752 C   0  0  0  0  0  0  0  0  0  0  0  0
   16.1298   23.9461   20.1074 C   0  0  0  0  0  0  0  0  0  0  0  0
   15.1084   23.0581   19.7413 C   0  0  0  0  0  0  0  0  0  0  0  0
   14.1596   23.4731   18.8158 C   0  0  0  0  0  0  0  0  0  0  0  0
   14.1665   24.7797   18.3600 C   0  0  0  0  0  0  0  0  0  0  0  0
   15.1231   25.6824   18.7695 C   0  0  0  0  0  0  0  0  0  0  0  0
   17.7556   25.8983   20.6389 H   0  0  0  0  0  0  0  0  0  0  0  0
   17.0340   27.0513   19.6106 H   0  0  0  0  0  0  0  0  0  0  0  0
   14.5974   21.1620   16.6513 C   0  0  0  0  0  0  0  0  0  0  0  0
   14.4510   20.3178   15.3662 C   0  0  0  0  0  0  0  0  0  0  0  0
   13.2660   20.7823   14.5247 C   0  0  0  0  0  0  0  0  0  0  0  0
   15.7483   20.4893   14.5376 C   0  0  0  0  0  0  0  0  0  0  0  0
   11.5315   18.7878   18.4713 C   0  0  0  0  0  0  0  0  0  0  0  0
   10.8824   17.6653   17.7969 N   0  0  0  0  0  0  0  0  0  0  0  0
   10.5381   17.5417   16.5148 C   0  0  0  0  0  0  0  0  0  0  0  0
   10.7626   18.4271   15.6846 O   0  0  0  0  0  0  0  0  0  0  0  0
   10.6697   16.8929   18.3690 H   0  0  0  0  0  0  0  0  0  0  0  0
    9.9194   16.3756   16.2224 O   0  0  0  0  0  0  0  0  0  0  0  0
    8.9809   16.4467   15.1337 C   0  0  0  0  0  0  0  0  0  0  0  0
    9.0369   15.1087   14.3842 C   0  0  0  0  0  0  0  0  0  0  0  0
    8.3811   14.2136   15.2877 O   0  0  0  0  0  0  0  0  0  0  0  0
    7.2920   14.9164   15.8669 C   0  0  0  0  0  0  0  0  0  0  0  0
    7.2069   14.6326   17.2736 O   0  0  0  0  0  0  0  0  0  0  0  0
    7.7047   15.7292   17.9771 C   0  0  0  0  0  0  0  0  0  0  0  0
    7.3594   16.9526   17.1052 C   0  0  0  0  0  0  0  0  0  0  0  0
    7.5796   16.4038   15.7163 C   0  0  0  0  0  0  0  0  0  0  0  0
   11.2189   18.7345   19.9575 C   0  0  0  0  0  0  0  0  0  0  0  0
    9.1759   17.7554   21.0748 C   0  0  0  0  0  0  0  0  0  0  0  0
    7.7993   17.6729   21.2641 C   0  0  0  0  0  0  0  0  0  0  0  0
    6.9321   18.5063   20.5694 C   0  0  0  0  0  0  0  0  0  0  0  0
    7.4916   19.4691   19.7360 C   0  0  0  0  0  0  0  0  0  0  0  0
    8.8613   19.5612   19.5408 C   0  0  0  0  0  0  0  0  0  0  0  0
    9.7106   18.6918   20.2065 C   0  0  0  0  0  0  0  0  0  0  0  0
  9 10  1  0  0  0
 10 11  2  0  0  0
 10 15  1  0  0  0
 11 12  1  0  0  0
 12 13  2  0  0  0
 13 14  1  0  0  0
 13  6  1  0  0  0
 14 15  2  0  0  0
  6  7  2  0  0  0
  6  8  2  0  0  0
  6  5  1  0  0  0
  5 18  1  0  0  0
  5  4  1  0  0  0
 18 19  1  0  0  0
 19 20  1  0  0  0
 19 21  1  0  0  0
  4  1  1  0  0  0
  1  2  1  0  0  0
  1 22  1  0  0  0
 22 23  1  0  0  0
 22 36  1  0  0  0
 23 24  1  0  0  0
 24 25  2  0  0  0
 24 27  1  0  0  0
 27 28  1  0  0  0
 28 29  1  0  0  0
 28 35  1  0  0  0
 29 30  1  0  0  0
 30 31  1  0  0  0
 31 32  1  0  0  0
 31 35  1  0  0  0
 32 33  1  0  0  0
 33 34  1  0  0  0
 34 35  1  0  0  0
 36 42  1  0  0  0
 37 38  2  0  0  0
 37 42  1  0  0  0
 38 39  1  0  0  0
 39 40  2  0  0  0
 40 41  1  0  0  0
 41 42  2  0  0  0
  9 16  1  0  0  0
  9 17  1  0  0  0
  2  3  1  0  0  0
 23 26  1  0  0  0
M  END
> <minimizedAffinity>
-9.77152

$$$$
3PWM_017_B_402


 42 45  0  0  0  0  0  0  0  0999 V2000
   13.4418   19.2810   17.8599 C   0  0  0  0  0  0  0  0  0  0  0  0
   14.4399   18.4514   18.4265 O   0  0  0  0  0  0  0  0  0  0  0  0
   14.9439   18.0218   17.7178 H   0  0  0  0  0  0  0  0  0  0  0  0
   12.4169   18.4840   17.0632 C   0  0  0  0  0  0  0  0  0  0  0  0
   11.3076   18.1206   17.9254 N   0  0  0  0  0  0  0  0  0  0  0  0
   10.8516   19.2846   18.9845 S   0  0  0  0  0  0  0  0  0  0  0  0
   10.6237   20.5243   18.2018 O   0  0  0  0  0  0  0  0  0  0  0  0
   11.9179   19.4134   20.0142 O   0  0  0  0  0  0  0  0  0  0  0  0
    5.9452   17.5638   21.7137 N   0  0  0  0  0  0  0  0  0  0  0  0
    7.0297   18.0307   21.0851 C   0  0  0  0  0  0  0  0  0  0  0  0
    6.9484   18.8715   19.9856 C   0  0  0  0  0  0  0  0  0  0  0  0
    8.1157   19.3400   19.3662 C   0  0  0  0  0  0  0  0  0  0  0  0
    9.3409   18.8245   19.7686 C   0  0  0  0  0  0  0  0  0  0  0  0
    9.4032   17.9523   20.8412 C   0  0  0  0  0  0  0  0  0  0  0  0
    8.2680   17.5414   21.5048 C   0  0  0  0  0  0  0  0  0  0  0  0
    5.0503   17.8799   21.4521 H   0  0  0  0  0  0  0  0  0  0  0  0
    6.0420   16.9040   22.4381 H   0  0  0  0  0  0  0  0  0  0  0  0
   10.2589   17.3402   17.3201 C   0  0  0  0  0  0  0  0  0  0  0  0
   10.0056   17.5664   15.8135 C   0  0  0  0  0  0  0  0  0  0  0  0
    9.5893   16.2743   15.1168 C   0  0  0  0  0  0  0  0  0  0  0  0
    8.8585   18.5981   15.6767 C   0  0  0  0  0  0  0  0  0  0  0  0
   14.0731   20.3951   17.0267 C   0  0  0  0  0  0  0  0  0  0  0  0
   14.9119   21.2039   17.9089 N   0  0  0  0  0  0  0  0  0  0  0  0
   14.5482   22.1303   18.7960 C   0  0  0  0  0  0  0  0  0  0  0  0
   13.3654   22.4192   18.9987 O   0  0  0  0  0  0  0  0  0  0  0  0
   15.8804   21.0421   17.8382 H   0  0  0  0  0  0  0  0  0  0  0  0
   15.5861   22.7190   19.4319 O   0  0  0  0  0  0  0  0  0  0  0  0
   15.3976   24.1139   19.7315 C   0  0  0  0  0  0  0  0  0  0  0  0
   16.1035   24.4024   21.0632 C   0  0  0  0  0  0  0  0  0  0  0  0
   17.4875   24.3575   20.7025 O   0  0  0  0  0  0  0  0  0  0  0  0
   17.6142   24.9654   19.4257 C   0  0  0  0  0  0  0  0  0  0  0  0
   18.5168   24.2094   18.6008 O   0  0  0  0  0  0  0  0  0  0  0  0
   17.7671   23.4778   17.6800 C   0  0  0  0  0  0  0  0  0  0  0  0
   16.5250   24.3458   17.3975 C   0  0  0  0  0  0  0  0  0  0  0  0
   16.2437   24.9221   18.7641 C   0  0  0  0  0  0  0  0  0  0  0  0
   14.9149   19.8561   15.8820 C   0  0  0  0  0  0  0  0  0  0  0  0
   16.7966   21.2150   14.8854 C   0  0  0  0  0  0  0  0  0  0  0  0
   17.2764   22.2775   14.1249 C   0  0  0  0  0  0  0  0  0  0  0  0
   16.4040   23.1469   13.4826 C   0  0  0  0  0  0  0  0  0  0  0  0
   15.0426   22.8750   13.5688 C   0  0  0  0  0  0  0  0  0  0  0  0
   14.5536   21.8188   14.3224 C   0  0  0  0  0  0  0  0  0  0  0  0
   15.4354   20.9878   14.9947 C   0  0  0  0  0  0  0  0  0  0  0  0
  9 10  1  0  0  0
 10 11  2  0  0  0
 10 15  1  0  0  0
 11 12  1  0  0  0
 12 13  2  0  0  0
 13 14  1  0  0  0
 13  6  1  0  0  0
 14 15  2  0  0  0
  6  7  2  0  0  0
  6  8  2  0  0  0
  6  5  1  0  0  0
  5 18  1  0  0  0
  5  4  1  0  0  0
 18 19  1  0  0  0
 19 20  1  0  0  0
 19 21  1  0  0  0
  4  1  1  0  0  0
  1  2  1  0  0  0
  1 22  1  0  0  0
 22 23  1  0  0  0
 22 36  1  0  0  0
 23 24  1  0  0  0
 24 25  2  0  0  0
 24 27  1  0  0  0
 27 28  1  0  0  0
 28 29  1  0  0  0
 28 35  1  0  0  0
 29 30  1  0  0  0
 30 31  1  0  0  0
 31 32  1  0  0  0
 31 35  1  0  0  0
 32 33  1  0  0  0
 33 34  1  0  0  0
 34 35  1  0  0  0
 36 42  1  0  0  0
 37 38  2  0  0  0
 37 42  1  0  0  0
 38 39  1  0  0  0
 39 40  2  0  0  0
 40 41  1  0  0  0
 41 42  2  0  0  0
  9 16  1  0  0  0
  9 17  1  0  0  0
  2  3  1  0  0  0
 23 26  1  0  0  0
M  END
> <minimizedAffinity>
-9.54258

$$$$
3PWM_017_B_402


 42 45  0  0  0  0  0  0  0  0999 V2000
   12.9135   20.4641   18.7888 C   0  0  0  0  0  0  0  0  0  0  0  0
   13.2492   19.1043   18.9978 O   0  0  0  0  0  0  0  0  0  0  0  0
   12.8527   18.5621   18.2979 H   0  0  0  0  0  0  0  0  0  0  0  0
   11.4133   20.7076   18.8920 C   0  0  0  0  0  0  0  0  0  0  0  0
   10.7309   19.4462   19.1143 N   0  0  0  0  0  0  0  0  0  0  0  0
   10.1815   19.2228   20.6416 S   0  0  0  0  0  0  0  0  0  0  0  0
    9.9580   20.5673   21.2278 O   0  0  0  0  0  0  0  0  0  0  0  0
   11.1853   18.4075   21.3773 O   0  0  0  0  0  0  0  0  0  0  0  0
    4.9455   16.5676   20.5105 N   0  0  0  0  0  0  0  0  0  0  0  0
    6.1712   17.1032   20.5107 C   0  0  0  0  0  0  0  0  0  0  0  0
    7.2910   16.3994   20.9267 C   0  0  0  0  0  0  0  0  0  0  0  0
    8.5558   17.0038   20.9007 C   0  0  0  0  0  0  0  0  0  0  0  0
    8.6453   18.3581   20.6065 C   0  0  0  0  0  0  0  0  0  0  0  0
    7.5118   19.0591   20.2338 C   0  0  0  0  0  0  0  0  0  0  0  0
    6.2738   18.4569   20.1851 C   0  0  0  0  0  0  0  0  0  0  0  0
    4.8239   15.6165   20.7339 H   0  0  0  0  0  0  0  0  0  0  0  0
    4.1650   17.1244   20.2870 H   0  0  0  0  0  0  0  0  0  0  0  0
    9.8900   18.9789   18.0420 C   0  0  0  0  0  0  0  0  0  0  0  0
   10.3427   17.6948   17.3130 C   0  0  0  0  0  0  0  0  0  0  0  0
    9.1715   16.7470   17.0717 C   0  0  0  0  0  0  0  0  0  0  0  0
   10.9359   18.1122   15.9445 C   0  0  0  0  0  0  0  0  0  0  0  0
   13.4841   20.9648   17.4631 C   0  0  0  0  0  0  0  0  0  0  0  0
   14.4244   22.0459   17.7516 N   0  0  0  0  0  0  0  0  0  0  0  0
   14.1782   23.3398   17.9581 C   0  0  0  0  0  0  0  0  0  0  0  0
   13.0341   23.8027   17.9435 O   0  0  0  0  0  0  0  0  0  0  0  0
   15.3716   21.7818   17.8002 H   0  0  0  0  0  0  0  0  0  0  0  0
   15.2878   24.0829   18.1699 O   0  0  0  0  0  0  0  0  0  0  0  0
   15.1624   25.0727   19.2070 C   0  0  0  0  0  0  0  0  0  0  0  0
   15.2597   24.3472   20.5557 C   0  0  0  0  0  0  0  0  0  0  0  0
   16.6477   24.0075   20.6315 O   0  0  0  0  0  0  0  0  0  0  0  0
   17.3826   25.1010   20.1025 C   0  0  0  0  0  0  0  0  0  0  0  0
   18.4508   24.6258   19.2660 O   0  0  0  0  0  0  0  0  0  0  0  0
   18.0839   24.8091   17.9330 C   0  0  0  0  0  0  0  0  0  0  0  0
   17.1996   26.0716   17.9326 C   0  0  0  0  0  0  0  0  0  0  0  0
   16.4336   25.9027   19.2223 C   0  0  0  0  0  0  0  0  0  0  0  0
   14.1959   19.8685   16.6880 C   0  0  0  0  0  0  0  0  0  0  0  0
   15.7355   20.1930   14.7120 C   0  0  0  0  0  0  0  0  0  0  0  0
   15.9970   20.6291   13.4162 C   0  0  0  0  0  0  0  0  0  0  0  0
   14.9959   21.1966   12.6383 C   0  0  0  0  0  0  0  0  0  0  0  0
   13.7132   21.2467   13.1739 C   0  0  0  0  0  0  0  0  0  0  0  0
   13.4410   20.8141   14.4628 C   0  0  0  0  0  0  0  0  0  0  0  0
   14.4608   20.2926   15.2427 C   0  0  0  0  0  0  0  0  0  0  0  0
  9 10  1  0  0  0
 10 11  2  0  0  0
 10 15  1  0  0  0
 11 12  1  0  0  0
 12 13  2  0  0  0
 13 14  1  0  0  0
 13  6  1  0  0  0
 14 15  2  0  0  0
  6  7  2  0  0  0
  6  8  2  0  0  0
  6  5  1  0  0  0
  5 18  1  0  0  0
  5  4  1  0  0  0
 18 19  1  0  0  0
 19 20  1  0  0  0
 19 21  1  0  0  0
  4  1  1  0  0  0
  1  2  1  0  0  0
  1 22  1  0  0  0
 22 23  1  0  0  0
 22 36  1  0  0  0
 23 24  1  0  0  0
 24 25  2  0  0  0
 24 27  1  0  0  0
 27 28  1  0  0  0
 28 29  1  0  0  0
 28 35  1  0  0  0
 29 30  1  0  0  0
 30 31  1  0  0  0
 31 32  1  0  0  0
 31 35  1  0  0  0
 32 33  1  0  0  0
 33 34  1  0  0  0
 34 35  1  0  0  0
 36 42  1  0  0  0
 37 38  2  0  0  0
 37 42  1  0  0  0
 38 39  1  0  0  0
 39 40  2  0  0  0
 40 41  1  0  0  0
 41 42  2  0  0  0
  9 16  1  0  0  0
  9 17  1  0  0  0
  2  3  1  0  0  0
 23 26  1  0  0  0
M  END
> <minimizedAffinity>
-9.41574

$$$$
3PWM_017_B_402


 42 45  0  0  0  0  0  0  0  0999 V2000
   12.5169   18.6620   17.6040 C   0  0  0  0  0  0  0  0  0  0  0  0
   12.4758   18.5843   19.0174 O   0  0  0  0  0  0  0  0  0  0  0  0
   11.6004   18.8600   19.3310 H   0  0  0  0  0  0  0  0  0  0  0  0
   12.3406   20.0894   17.1020 C   0  0  0  0  0  0  0  0  0  0  0  0
   13.6035   20.7978   17.1997 N   0  0  0  0  0  0  0  0  0  0  0  0
   13.9494   21.3816   18.6910 S   0  0  0  0  0  0  0  0  0  0  0  0
   14.8261   20.3877   19.3580 O   0  0  0  0  0  0  0  0  0  0  0  0
   12.6642   21.6197   19.4017 O   0  0  0  0  0  0  0  0  0  0  0  0
   17.0854   26.3266   18.2497 N   0  0  0  0  0  0  0  0  0  0  0  0
   16.3108   25.2377   18.3088 C   0  0  0  0  0  0  0  0  0  0  0  0
   14.9522   25.3045   18.5775 C   0  0  0  0  0  0  0  0  0  0  0  0
   14.1819   24.1338   18.6211 C   0  0  0  0  0  0  0  0  0  0  0  0
   14.8255   22.9052   18.5508 C   0  0  0  0  0  0  0  0  0  0  0  0
   16.1898   22.8536   18.3247 C   0  0  0  0  0  0  0  0  0  0  0  0
   16.9462   23.9989   18.2070 C   0  0  0  0  0  0  0  0  0  0  0  0
   16.6819   27.2221   18.3170 H   0  0  0  0  0  0  0  0  0  0  0  0
   18.0591   26.2326   18.1388 H   0  0  0  0  0  0  0  0  0  0  0  0
   14.6998   20.2538   16.4399 C   0  0  0  0  0  0  0  0  0  0  0  0
   14.7965   20.6781   14.9580 C   0  0  0  0  0  0  0  0  0  0  0  0
   14.5371   22.1719   14.7866 C   0  0  0  0  0  0  0  0  0  0  0  0
   16.2317   20.3622   14.4686 C   0  0  0  0  0  0  0  0  0  0  0  0
   11.5011   17.7068   16.9797 C   0  0  0  0  0  0  0  0  0  0  0  0
   10.4705   17.4233   17.9765 N   0  0  0  0  0  0  0  0  0  0  0  0
    9.5875   18.2544   18.5307 C   0  0  0  0  0  0  0  0  0  0  0  0
    9.5270   19.4491   18.2265 O   0  0  0  0  0  0  0  0  0  0  0  0
   10.4214   16.4884   18.2811 H   0  0  0  0  0  0  0  0  0  0  0  0
    8.7869   17.6709   19.4510 O   0  0  0  0  0  0  0  0  0  0  0  0
    7.5134   17.2273   18.9487 C   0  0  0  0  0  0  0  0  0  0  0  0
    7.6911   15.7920   18.4354 C   0  0  0  0  0  0  0  0  0  0  0  0
    7.8157   15.0378   19.6450 O   0  0  0  0  0  0  0  0  0  0  0  0
    6.9060   15.5890   20.5854 C   0  0  0  0  0  0  0  0  0  0  0  0
    7.5203   15.6747   21.8823 O   0  0  0  0  0  0  0  0  0  0  0  0
    7.8709   17.0037   22.1189 C   0  0  0  0  0  0  0  0  0  0  0  0
    6.8054   17.8353   21.3779 C   0  0  0  0  0  0  0  0  0  0  0  0
    6.5900   17.0081   20.1337 C   0  0  0  0  0  0  0  0  0  0  0  0
   10.8533   18.2847   15.7323 C   0  0  0  0  0  0  0  0  0  0  0  0
    8.4173   17.8960   15.1888 C   0  0  0  0  0  0  0  0  0  0  0  0
    7.3609   17.0794   14.7955 C   0  0  0  0  0  0  0  0  0  0  0  0
    7.5720   15.7451   14.4725 C   0  0  0  0  0  0  0  0  0  0  0  0
    8.8818   15.2771   14.4876 C   0  0  0  0  0  0  0  0  0  0  0  0
    9.9419   16.0819   14.8765 C   0  0  0  0  0  0  0  0  0  0  0  0
    9.7082   17.3985   15.2400 C   0  0  0  0  0  0  0  0  0  0  0  0
  9 10  1  0  0  0
 10 11  2  0  0  0
 10 15  1  0  0  0
 11 12  1  0  0  0
 12 13  2  0  0  0
 13 14  1  0  0  0
 13  6  1  0  0  0
 14 15  2  0  0  0
  6  7  2  0  0  0
  6  8  2  0  0  0
  6  5  1  0  0  0
  5 18  1  0  0  0
  5  4  1  0  0  0
 18 19  1  0  0  0
 19 20  1  0  0  0
 19 21  1  0  0  0
  4  1  1  0  0  0
  1  2  1  0  0  0
  1 22  1  0  0  0
 22 23  1  0  0  0
 22 36  1  0  0  0
 23 24  1  0  0  0
 24 25  2  0  0  0
 24 27  1  0  0  0
 27 28  1  0  0  0
 28 29  1  0  0  0
 28 35  1  0  0  0
 29 30  1  0  0  0
 30 31  1  0  0  0
 31 32  1  0  0  0
 31 35  1  0  0  0
 32 33  1  0  0  0
 33 34  1  0  0  0
 34 35  1  0  0  0
 36 42  1  0  0  0
 37 38  2  0  0  0
 37 42  1  0  0  0
 38 39  1  0  0  0
 39 40  2  0  0  0
 40 41  1  0  0  0
 41 42  2  0  0  0
  9 16  1  0  0  0
  9 17  1  0  0  0
  2  3  1  0  0  0
 23 26  1  0  0  0
M  END
> <minimizedAffinity>
-9.33144

$$$$
3PWM_017_B_402


 42 45  0  0  0  0  0  0  0  0999 V2000
   12.7770   18.7103   18.0899 C   0  0  0  0  0  0  0  0  0  0  0  0
   13.6604   17.8362   18.7689 O   0  0  0  0  0  0  0  0  0  0  0  0
   13.3733   16.9192   18.6363 H   0  0  0  0  0  0  0  0  0  0  0  0
   11.3622   18.6464   18.6508 C   0  0  0  0  0  0  0  0  0  0  0  0
   11.2851   19.4376   19.8649 N   0  0  0  0  0  0  0  0  0  0  0  0
   11.1101   21.0488   19.6243 S   0  0  0  0  0  0  0  0  0  0  0  0
   10.8492   21.6639   20.9490 O   0  0  0  0  0  0  0  0  0  0  0  0
   10.0104   21.2508   18.6426 O   0  0  0  0  0  0  0  0  0  0  0  0
   15.9459   23.3843   17.2487 N   0  0  0  0  0  0  0  0  0  0  0  0
   14.8811   22.8570   17.8632 C   0  0  0  0  0  0  0  0  0  0  0  0
   14.9955   21.9076   18.8672 C   0  0  0  0  0  0  0  0  0  0  0  0
   13.8482   21.3911   19.4857 C   0  0  0  0  0  0  0  0  0  0  0  0
   12.6021   21.7237   18.9707 C   0  0  0  0  0  0  0  0  0  0  0  0
   12.5048   22.6411   17.9392 C   0  0  0  0  0  0  0  0  0  0  0  0
   13.6233   23.2111   17.3719 C   0  0  0  0  0  0  0  0  0  0  0  0
   16.8534   23.1634   17.5601 H   0  0  0  0  0  0  0  0  0  0  0  0
   15.8221   23.9932   16.4851 H   0  0  0  0  0  0  0  0  0  0  0  0
   10.5500   18.8562   20.9589 C   0  0  0  0  0  0  0  0  0  0  0  0
    9.2018   18.1871   20.6126 C   0  0  0  0  0  0  0  0  0  0  0  0
    8.8289   17.1189   21.6363 C   0  0  0  0  0  0  0  0  0  0  0  0
    8.1119   19.2876   20.6214 C   0  0  0  0  0  0  0  0  0  0  0  0
   12.8078   18.4491   16.5850 C   0  0  0  0  0  0  0  0  0  0  0  0
   11.8454   17.3903   16.2869 N   0  0  0  0  0  0  0  0  0  0  0  0
   10.8137   17.4070   15.4427 C   0  0  0  0  0  0  0  0  0  0  0  0
   10.5451   18.3934   14.7509 O   0  0  0  0  0  0  0  0  0  0  0  0
   11.9773   16.5473   16.7780 H   0  0  0  0  0  0  0  0  0  0  0  0
   10.0971   16.2605   15.4285 O   0  0  0  0  0  0  0  0  0  0  0  0
    8.8400   16.3430   14.7328 C   0  0  0  0  0  0  0  0  0  0  0  0
    8.5299   14.9504   14.1675 C   0  0  0  0  0  0  0  0  0  0  0  0
    8.1769   14.2066   15.3378 O   0  0  0  0  0  0  0  0  0  0  0  0
    7.4185   15.0662   16.1753 C   0  0  0  0  0  0  0  0  0  0  0  0
    7.8200   14.9080   17.5466 O   0  0  0  0  0  0  0  0  0  0  0  0
    8.6125   15.9986   17.9042 C   0  0  0  0  0  0  0  0  0  0  0  0
    8.0674   17.1771   17.0736 C   0  0  0  0  0  0  0  0  0  0  0  0
    7.7388   16.4973   15.7665 C   0  0  0  0  0  0  0  0  0  0  0  0
   12.4641   19.6881   15.7749 C   0  0  0  0  0  0  0  0  0  0  0  0
   14.9695   19.9062   15.5390 C   0  0  0  0  0  0  0  0  0  0  0  0
   16.1057   20.4805   14.9758 C   0  0  0  0  0  0  0  0  0  0  0  0
   15.9999   21.4552   13.9920 C   0  0  0  0  0  0  0  0  0  0  0  0
   14.7249   21.7823   13.5424 C   0  0  0  0  0  0  0  0  0  0  0  0
   13.5864   21.2158   14.0951 C   0  0  0  0  0  0  0  0  0  0  0  0
   13.7076   20.2782   15.1082 C   0  0  0  0  0  0  0  0  0  0  0  0
  9 10  1  0  0  0
 10 11  2  0  0  0
 10 15  1  0  0  0
 11 12  1  0  0  0
 12 13  2  0  0  0
 13 14  1  0  0  0
 13  6  1  0  0  0
 14 15  2  0  0  0
  6  7  2  0  0  0
  6  8  2  0  0  0
  6  5  1  0  0  0
  5 18  1  0  0  0
  5  4  1  0  0  0
 18 19  1  0  0  0
 19 20  1  0  0  0
 19 21  1  0  0  0
  4  1  1  0  0  0
  1  2  1  0  0  0
  1 22  1  0  0  0
 22 23  1  0  0  0
 22 36  1  0  0  0
 23 24  1  0  0  0
 24 25  2  0  0  0
 24 27  1  0  0  0
 27 28  1  0  0  0
 28 29  1  0  0  0
 28 35  1  0  0  0
 29 30  1  0  0  0
 30 31  1  0  0  0
 31 32  1  0  0  0
 31 35  1  0  0  0
 32 33  1  0  0  0
 33 34  1  0  0  0
 34 35  1  0  0  0
 36 42  1  0  0  0
 37 38  2  0  0  0
 37 42  1  0  0  0
 38 39  1  0  0  0
 39 40  2  0  0  0
 40 41  1  0  0  0
 41 42  2  0  0  0
  9 16  1  0  0  0
  9 17  1  0  0  0
  2  3  1  0  0  0
 23 26  1  0  0  0
M  END
> <minimizedAffinity>
-9.32310

$$$$
3PWM_017_B_402


 42 45  0  0  0  0  0  0  0  0999 V2000
   11.8403   21.5608   16.9694 C   0  0  0  0  0  0  0  0  0  0  0  0
   10.9966   22.6980   16.9888 O   0  0  0  0  0  0  0  0  0  0  0  0
   10.2386   22.5285   17.5700 H   0  0  0  0  0  0  0  0  0  0  0  0
   11.1455   20.3405   16.3790 C   0  0  0  0  0  0  0  0  0  0  0  0
   12.1412   19.3887   15.9221 N   0  0  0  0  0  0  0  0  0  0  0  0
   11.8201   17.8263   16.2968 S   0  0  0  0  0  0  0  0  0  0  0  0
   12.2431   17.6172   17.7034 O   0  0  0  0  0  0  0  0  0  0  0  0
   12.5369   16.9621   15.3205 O   0  0  0  0  0  0  0  0  0  0  0  0
    6.0518   16.7382   16.1359 N   0  0  0  0  0  0  0  0  0  0  0  0
    7.3546   17.0406   16.1121 C   0  0  0  0  0  0  0  0  0  0  0  0
    8.0563   17.2170   14.9292 C   0  0  0  0  0  0  0  0  0  0  0  0
    9.4201   17.5408   14.9580 C   0  0  0  0  0  0  0  0  0  0  0  0
   10.0873   17.5239   16.1759 C   0  0  0  0  0  0  0  0  0  0  0  0
    9.3814   17.3042   17.3457 C   0  0  0  0  0  0  0  0  0  0  0  0
    8.0262   17.0570   17.3358 C   0  0  0  0  0  0  0  0  0  0  0  0
    5.5366   16.7143   15.2973 H   0  0  0  0  0  0  0  0  0  0  0  0
    5.6082   16.5396   16.9920 H   0  0  0  0  0  0  0  0  0  0  0  0
   12.7216   19.6450   14.6288 C   0  0  0  0  0  0  0  0  0  0  0  0
   13.7743   20.7724   14.5505 C   0  0  0  0  0  0  0  0  0  0  0  0
   15.1537   20.2793   14.9774 C   0  0  0  0  0  0  0  0  0  0  0  0
   13.8488   21.2482   13.0785 C   0  0  0  0  0  0  0  0  0  0  0  0
   12.4030   21.2806   18.3617 C   0  0  0  0  0  0  0  0  0  0  0  0
   13.6645   22.0061   18.4974 N   0  0  0  0  0  0  0  0  0  0  0  0
   14.8358   21.5732   18.9644 C   0  0  0  0  0  0  0  0  0  0  0  0
   15.0023   20.4125   19.3500 O   0  0  0  0  0  0  0  0  0  0  0  0
   13.6468   22.9454   18.2029 H   0  0  0  0  0  0  0  0  0  0  0  0
   15.8024   22.5184   18.9837 O   0  0  0  0  0  0  0  0  0  0  0  0
   15.3594   23.8266   19.3879 C   0  0  0  0  0  0  0  0  0  0  0  0
   15.8226   24.0475   20.8341 C   0  0  0  0  0  0  0  0  0  0  0  0
   17.2329   24.2405   20.6874 O   0  0  0  0  0  0  0  0  0  0  0  0
   17.4368   25.0102   19.5120 C   0  0  0  0  0  0  0  0  0  0  0  0
   18.5506   24.4933   18.7644 O   0  0  0  0  0  0  0  0  0  0  0  0
   18.0575   23.7811   17.6714 C   0  0  0  0  0  0  0  0  0  0  0  0
   16.7456   24.4947   17.2893 C   0  0  0  0  0  0  0  0  0  0  0  0
   16.1935   24.8563   18.6469 C   0  0  0  0  0  0  0  0  0  0  0  0
   11.4521   21.7079   19.4675 C   0  0  0  0  0  0  0  0  0  0  0  0
    9.2338   20.5175   19.6742 C   0  0  0  0  0  0  0  0  0  0  0  0
    8.4336   19.4834   20.1518 C   0  0  0  0  0  0  0  0  0  0  0  0
    8.9713   18.4653   20.9286 C   0  0  0  0  0  0  0  0  0  0  0  0
   10.3445   18.4794   21.1501 C   0  0  0  0  0  0  0  0  0  0  0  0
   11.1513   19.5035   20.6782 C   0  0  0  0  0  0  0  0  0  0  0  0
   10.5916   20.5365   19.9433 C   0  0  0  0  0  0  0  0  0  0  0  0
  9 10  1  0  0  0
 10 11  2  0  0  0
 10 15  1  0  0  0
 11 12  1  0  0  0
 12 13  2  0  0  0
 13 14  1  0  0  0
 13  6  1  0  0  0
 14 15  2  0  0  0
  6  7  2  0  0  0
  6  8  2  0  0  0
  6  5  1  0  0  0
  5 18  1  0  0  0
  5  4  1  0  0  0
 18 19  1  0  0  0
 19 20  1  0  0  0
 19 21  1  0  0  0
  4  1  1  0  0  0
  1  2  1  0  0  0
  1 22  1  0  0  0
 22 23  1  0  0  0
 22 36  1  0  0  0
 23 24  1  0  0  0
 24 25  2  0  0  0
 24 27  1  0  0  0
 27 28  1  0  0  0
 28 29  1  0  0  0
 28 35  1  0  0  0
 29 30  1  0  0  0
 30 31  1  0  0  0
 31 32  1  0  0  0
 31 35  1  0  0  0
 32 33  1  0  0  0
 33 34  1  0  0  0
 34 35  1  0  0  0
 36 42  1  0  0  0
 37 38  2  0  0  0
 37 42  1  0  0  0
 38 39  1  0  0  0
 39 40  2  0  0  0
 40 41  1  0  0  0
 41 42  2  0  0  0
  9 16  1  0  0  0
  9 17  1  0  0  0
  2  3  1  0  0  0
 23 26  1  0  0  0
M  END
> <minimizedAffinity>
-9.28781

$$$$
3PWM_017_B_402


 42 45  0  0  0  0  0  0  0  0999 V2000
   13.2973   19.7355   16.3127 C   0  0  0  0  0  0  0  0  0  0  0  0
   13.6057   18.5178   15.6589 O   0  0  0  0  0  0  0  0  0  0  0  0
   13.8898   17.8617   16.3145 H   0  0  0  0  0  0  0  0  0  0  0  0
   14.5158   20.3470   16.9923 C   0  0  0  0  0  0  0  0  0  0  0  0
   14.5012   21.7868   16.8111 N   0  0  0  0  0  0  0  0  0  0  0  0
   14.4879   22.6535   18.2014 S   0  0  0  0  0  0  0  0  0  0  0  0
   14.6736   21.6940   19.3177 O   0  0  0  0  0  0  0  0  0  0  0  0
   13.2048   23.4043   18.2636 O   0  0  0  0  0  0  0  0  0  0  0  0
   19.1185   26.2646   18.2310 N   0  0  0  0  0  0  0  0  0  0  0  0
   18.0201   25.5022   18.1891 C   0  0  0  0  0  0  0  0  0  0  0  0
   16.7613   25.9927   18.5008 C   0  0  0  0  0  0  0  0  0  0  0  0
   15.6396   25.1542   18.4342 C   0  0  0  0  0  0  0  0  0  0  0  0
   15.8299   23.7971   18.2089 C   0  0  0  0  0  0  0  0  0  0  0  0
   17.0987   23.3140   17.9409 C   0  0  0  0  0  0  0  0  0  0  0  0
   18.1996   24.1419   17.9316 C   0  0  0  0  0  0  0  0  0  0  0  0
   19.0412   27.2297   18.4095 H   0  0  0  0  0  0  0  0  0  0  0  0
   20.0040   25.8606   18.0835 H   0  0  0  0  0  0  0  0  0  0  0  0
   15.2995   22.3009   15.7277 C   0  0  0  0  0  0  0  0  0  0  0  0
   15.9432   21.2610   14.7845 C   0  0  0  0  0  0  0  0  0  0  0  0
   15.2823   21.2696   13.4092 C   0  0  0  0  0  0  0  0  0  0  0  0
   17.4380   21.6323   14.6212 C   0  0  0  0  0  0  0  0  0  0  0  0
   12.1342   19.5480   17.2853 C   0  0  0  0  0  0  0  0  0  0  0  0
   11.3151   18.4363   16.8065 N   0  0  0  0  0  0  0  0  0  0  0  0
    9.9891   18.2995   16.8301 C   0  0  0  0  0  0  0  0  0  0  0  0
    9.2449   19.1751   17.2808 O   0  0  0  0  0  0  0  0  0  0  0  0
   11.8116   17.6836   16.4115 H   0  0  0  0  0  0  0  0  0  0  0  0
    9.5495   17.1224   16.3307 O   0  0  0  0  0  0  0  0  0  0  0  0
    9.2273   17.1445   14.9283 C   0  0  0  0  0  0  0  0  0  0  0  0
   10.2202   16.2215   14.2091 C   0  0  0  0  0  0  0  0  0  0  0  0
    9.7772   14.9177   14.5982 O   0  0  0  0  0  0  0  0  0  0  0  0
    8.3576   14.9368   14.6097 C   0  0  0  0  0  0  0  0  0  0  0  0
    7.8589   14.2380   15.7628 O   0  0  0  0  0  0  0  0  0  0  0  0
    7.4312   15.1786   16.6995 C   0  0  0  0  0  0  0  0  0  0  0  0
    6.9256   16.3716   15.8645 C   0  0  0  0  0  0  0  0  0  0  0  0
    7.9239   16.3910   14.7324 C   0  0  0  0  0  0  0  0  0  0  0  0
   12.6040   19.2574   18.7010 C   0  0  0  0  0  0  0  0  0  0  0  0
   10.8451   18.7477   20.4408 C   0  0  0  0  0  0  0  0  0  0  0  0
    9.8569   19.1375   21.3404 C   0  0  0  0  0  0  0  0  0  0  0  0
    9.5512   20.4793   21.5278 C   0  0  0  0  0  0  0  0  0  0  0  0
   10.3143   21.4170   20.8399 C   0  0  0  0  0  0  0  0  0  0  0  0
   11.3019   21.0403   19.9424 C   0  0  0  0  0  0  0  0  0  0  0  0
   11.5634   19.6958   19.7324 C   0  0  0  0  0  0  0  0  0  0  0  0
  9 10  1  0  0  0
 10 11  2  0  0  0
 10 15  1  0  0  0
 11 12  1  0  0  0
 12 13  2  0  0  0
 13 14  1  0  0  0
 13  6  1  0  0  0
 14 15  2  0  0  0
  6  7  2  0  0  0
  6  8  2  0  0  0
  6  5  1  0  0  0
  5 18  1  0  0  0
  5  4  1  0  0  0
 18 19  1  0  0  0
 19 20  1  0  0  0
 19 21  1  0  0  0
  4  1  1  0  0  0
  1  2  1  0  0  0
  1 22  1  0  0  0
 22 23  1  0  0  0
 22 36  1  0  0  0
 23 24  1  0  0  0
 24 25  2  0  0  0
 24 27  1  0  0  0
 27 28  1  0  0  0
 28 29  1  0  0  0
 28 35  1  0  0  0
 29 30  1  0  0  0
 30 31  1  0  0  0
 31 32  1  0  0  0
 31 35  1  0  0  0
 32 33  1  0  0  0
 33 34  1  0  0  0
 34 35  1  0  0  0
 36 42  1  0  0  0
 37 38  2  0  0  0
 37 42  1  0  0  0
 38 39  1  0  0  0
 39 40  2  0  0  0
 40 41  1  0  0  0
 41 42  2  0  0  0
  9 16  1  0  0  0
  9 17  1  0  0  0
  2  3  1  0  0  0
 23 26  1  0  0  0
M  END
> <minimizedAffinity>
-9.25333

$$$$
3PWM_017_B_402


 42 45  0  0  0  0  0  0  0  0999 V2000
   11.8545   18.3824   17.7142 C   0  0  0  0  0  0  0  0  0  0  0  0
   12.4211   17.1043   17.9397 O   0  0  0  0  0  0  0  0  0  0  0  0
   11.8402   16.4228   17.5668 H   0  0  0  0  0  0  0  0  0  0  0  0
   10.5211   18.5539   18.4306 C   0  0  0  0  0  0  0  0  0  0  0  0
   10.7436   19.1532   19.7335 N   0  0  0  0  0  0  0  0  0  0  0  0
   10.8492   20.7882   19.7279 S   0  0  0  0  0  0  0  0  0  0  0  0
   10.5259   21.2528   21.0994 O   0  0  0  0  0  0  0  0  0  0  0  0
    9.9221   21.3058   18.6857 O   0  0  0  0  0  0  0  0  0  0  0  0
   16.2394   22.6497   18.3269 N   0  0  0  0  0  0  0  0  0  0  0  0
   15.0457   22.1782   18.7039 C   0  0  0  0  0  0  0  0  0  0  0  0
   14.8334   20.8403   18.9994 C   0  0  0  0  0  0  0  0  0  0  0  0
   13.5643   20.3971   19.3976 C   0  0  0  0  0  0  0  0  0  0  0  0
   12.4958   21.2822   19.3364 C   0  0  0  0  0  0  0  0  0  0  0  0
   12.7156   22.6060   18.9982 C   0  0  0  0  0  0  0  0  0  0  0  0
   13.9720   23.0699   18.6756 C   0  0  0  0  0  0  0  0  0  0  0  0
   17.0260   22.0576   18.3305 H   0  0  0  0  0  0  0  0  0  0  0  0
   16.3314   23.5887   18.0459 H   0  0  0  0  0  0  0  0  0  0  0  0
   10.0503   18.5465   20.8409 C   0  0  0  0  0  0  0  0  0  0  0  0
    8.6975   17.8704   20.5276 C   0  0  0  0  0  0  0  0  0  0  0  0
    8.3478   16.8114   21.5689 C   0  0  0  0  0  0  0  0  0  0  0  0
    7.6049   18.9681   20.5470 C   0  0  0  0  0  0  0  0  0  0  0  0
   11.7402   18.6674   16.2177 C   0  0  0  0  0  0  0  0  0  0  0  0
   12.9177   19.4303   15.8083 N   0  0  0  0  0  0  0  0  0  0  0  0
   13.0584   20.7492   15.6741 C   0  0  0  0  0  0  0  0  0  0  0  0
   12.1398   21.5373   15.9163 O   0  0  0  0  0  0  0  0  0  0  0  0
   13.7185   18.8957   15.6030 H   0  0  0  0  0  0  0  0  0  0  0  0
   14.2821   21.1299   15.2431 O   0  0  0  0  0  0  0  0  0  0  0  0
   14.6594   20.6051   13.9573 C   0  0  0  0  0  0  0  0  0  0  0  0
   13.8807   21.3863   12.8903 C   0  0  0  0  0  0  0  0  0  0  0  0
   14.5303   22.6613   12.8963 O   0  0  0  0  0  0  0  0  0  0  0  0
   15.9217   22.4289   13.0560 C   0  0  0  0  0  0  0  0  0  0  0  0
   16.4833   23.3782   13.9780 O   0  0  0  0  0  0  0  0  0  0  0  0
   16.6933   22.7380   15.1991 C   0  0  0  0  0  0  0  0  0  0  0  0
   17.0164   21.2760   14.8326 C   0  0  0  0  0  0  0  0  0  0  0  0
   16.0837   21.0445   13.6686 C   0  0  0  0  0  0  0  0  0  0  0  0
   11.6489   17.3953   15.3912 C   0  0  0  0  0  0  0  0  0  0  0  0
    9.2017   17.9951   15.2136 C   0  0  0  0  0  0  0  0  0  0  0  0
    7.8689   17.6655   14.9837 C   0  0  0  0  0  0  0  0  0  0  0  0
    7.5030   16.3706   14.6395 C   0  0  0  0  0  0  0  0  0  0  0  0
    8.5200   15.4379   14.4640 C   0  0  0  0  0  0  0  0  0  0  0  0
    9.8508   15.7555   14.6890 C   0  0  0  0  0  0  0  0  0  0  0  0
   10.1949   17.0406   15.0768 C   0  0  0  0  0  0  0  0  0  0  0  0
  9 10  1  0  0  0
 10 11  2  0  0  0
 10 15  1  0  0  0
 11 12  1  0  0  0
 12 13  2  0  0  0
 13 14  1  0  0  0
 13  6  1  0  0  0
 14 15  2  0  0  0
  6  7  2  0  0  0
  6  8  2  0  0  0
  6  5  1  0  0  0
  5 18  1  0  0  0
  5  4  1  0  0  0
 18 19  1  0  0  0
 19 20  1  0  0  0
 19 21  1  0  0  0
  4  1  1  0  0  0
  1  2  1  0  0  0
  1 22  1  0  0  0
 22 23  1  0  0  0
 22 36  1  0  0  0
 23 24  1  0  0  0
 24 25  2  0  0  0
 24 27  1  0  0  0
 27 28  1  0  0  0
 28 29  1  0  0  0
 28 35  1  0  0  0
 29 30  1  0  0  0
 30 31  1  0  0  0
 31 32  1  0  0  0
 31 35  1  0  0  0
 32 33  1  0  0  0
 33 34  1  0  0  0
 34 35  1  0  0  0
 36 42  1  0  0  0
 37 38  2  0  0  0
 37 42  1  0  0  0
 38 39  1  0  0  0
 39 40  2  0  0  0
 40 41  1  0  0  0
 41 42  2  0  0  0
  9 16  1  0  0  0
  9 17  1  0  0  0
  2  3  1  0  0  0
 23 26  1  0  0  0
M  END
> <minimizedAffinity>
-9.18578

$$$$
3PWM_017_B_402


 42 45  0  0  0  0  0  0  0  0999 V2000
   12.4391   18.6957   17.8305 C   0  0  0  0  0  0  0  0  0  0  0  0
   13.1432   17.5431   18.2562 O   0  0  0  0  0  0  0  0  0  0  0  0
   12.5786   16.7616   18.1497 H   0  0  0  0  0  0  0  0  0  0  0  0
   11.2100   18.9671   18.6885 C   0  0  0  0  0  0  0  0  0  0  0  0
   11.2927   20.3046   19.2458 N   0  0  0  0  0  0  0  0  0  0  0  0
   10.0998   20.6824   20.3035 S   0  0  0  0  0  0  0  0  0  0  0  0
    9.3575   21.8338   19.7339 O   0  0  0  0  0  0  0  0  0  0  0  0
   10.7271   20.9669   21.6223 O   0  0  0  0  0  0  0  0  0  0  0  0
    6.2287   16.2891   20.7462 N   0  0  0  0  0  0  0  0  0  0  0  0
    7.1706   17.2338   20.6483 C   0  0  0  0  0  0  0  0  0  0  0  0
    8.3310   17.2094   21.4068 C   0  0  0  0  0  0  0  0  0  0  0  0
    9.2918   18.2200   21.2615 C   0  0  0  0  0  0  0  0  0  0  0  0
    8.9918   19.3210   20.4701 C   0  0  0  0  0  0  0  0  0  0  0  0
    7.8097   19.3517   19.7511 C   0  0  0  0  0  0  0  0  0  0  0  0
    6.8900   18.3291   19.8295 C   0  0  0  0  0  0  0  0  0  0  0  0
    6.3817   15.4981   21.3121 H   0  0  0  0  0  0  0  0  0  0  0  0
    5.3823   16.3847   20.2524 H   0  0  0  0  0  0  0  0  0  0  0  0
   12.6151   20.7868   19.5520 C   0  0  0  0  0  0  0  0  0  0  0  0
   13.0217   22.1415   18.9317 C   0  0  0  0  0  0  0  0  0  0  0  0
   14.4392   22.0952   18.3687 C   0  0  0  0  0  0  0  0  0  0  0  0
   12.0365   22.4471   17.7763 C   0  0  0  0  0  0  0  0  0  0  0  0
   12.0903   18.5994   16.3463 C   0  0  0  0  0  0  0  0  0  0  0  0
   10.7516   18.0246   16.2295 N   0  0  0  0  0  0  0  0  0  0  0  0
   10.2591   17.2305   15.2787 C   0  0  0  0  0  0  0  0  0  0  0  0
   10.9395   16.8484   14.3223 O   0  0  0  0  0  0  0  0  0  0  0  0
   10.1265   18.2561   16.9540 H   0  0  0  0  0  0  0  0  0  0  0  0
    8.9600   16.9006   15.4572 O   0  0  0  0  0  0  0  0  0  0  0  0
    8.3925   16.0945   14.4088 C   0  0  0  0  0  0  0  0  0  0  0  0
    9.0398   14.7054   14.4890 C   0  0  0  0  0  0  0  0  0  0  0  0
    8.4370   14.1438   15.6590 O   0  0  0  0  0  0  0  0  0  0  0  0
    7.0746   14.5428   15.6686 C   0  0  0  0  0  0  0  0  0  0  0  0
    6.6756   14.9226   16.9965 O   0  0  0  0  0  0  0  0  0  0  0  0
    6.6168   16.3146   17.0596 C   0  0  0  0  0  0  0  0  0  0  0  0
    6.2011   16.7610   15.6440 C   0  0  0  0  0  0  0  0  0  0  0  0
    6.9562   15.7764   14.7843 C   0  0  0  0  0  0  0  0  0  0  0  0
   12.1222   19.9524   15.6550 C   0  0  0  0  0  0  0  0  0  0  0  0
   14.6232   19.6244   15.5224 C   0  0  0  0  0  0  0  0  0  0  0  0
   15.8714   19.8993   14.9709 C   0  0  0  0  0  0  0  0  0  0  0  0
   16.0033   20.7859   13.9099 C   0  0  0  0  0  0  0  0  0  0  0  0
   14.8402   21.3304   13.3757 C   0  0  0  0  0  0  0  0  0  0  0  0
   13.5916   21.0627   13.9162 C   0  0  0  0  0  0  0  0  0  0  0  0
   13.4817   20.2116   15.0042 C   0  0  0  0  0  0  0  0  0  0  0  0
  9 10  1  0  0  0
 10 11  2  0  0  0
 10 15  1  0  0  0
 11 12  1  0  0  0
 12 13  2  0  0  0
 13 14  1  0  0  0
 13  6  1  0  0  0
 14 15  2  0  0  0
  6  7  2  0  0  0
  6  8  2  0  0  0
  6  5  1  0  0  0
  5 18  1  0  0  0
  5  4  1  0  0  0
 18 19  1  0  0  0
 19 20  1  0  0  0
 19 21  1  0  0  0
  4  1  1  0  0  0
  1  2  1  0  0  0
  1 22  1  0  0  0
 22 23  1  0  0  0
 22 36  1  0  0  0
 23 24  1  0  0  0
 24 25  2  0  0  0
 24 27  1  0  0  0
 27 28  1  0  0  0
 28 29  1  0  0  0
 28 35  1  0  0  0
 29 30  1  0  0  0
 30 31  1  0  0  0
 31 32  1  0  0  0
 31 35  1  0  0  0
 32 33  1  0  0  0
 33 34  1  0  0  0
 34 35  1  0  0  0
 36 42  1  0  0  0
 37 38  2  0  0  0
 37 42  1  0  0  0
 38 39  1  0  0  0
 39 40  2  0  0  0
 40 41  1  0  0  0
 41 42  2  0  0  0
  9 16  1  0  0  0
  9 17  1  0  0  0
  2  3  1  0  0  0
 23 26  1  0  0  0
M  END
> <minimizedAffinity>
-9.14385

$$$$
