3ZCL_5TF_A_1


 26 29  0  0  0  0  0  0  0  0999 V2000
   18.4122   82.4532    4.9649 C   0  0  0  0  0  0  0  0  0  0  0  0
   17.7445   81.4636    5.9024 C   0  0  0  0  0  0  0  0  0  0  0  0
   17.5413   81.8215    7.1927 C   0  0  0  0  0  0  0  0  0  0  0  0
   17.9546   83.1053    7.6390 C   0  0  0  0  0  0  0  0  0  0  0  0
   17.8947   83.7215    8.7960 N   0  0  0  0  0  0  0  0  0  0  0  0
   18.4609   84.9701    8.6330 N   0  0  0  0  0  0  0  0  0  0  0  0
   18.8548   85.0893    7.3761 C   0  0  0  0  0  0  0  0  0  0  0  0
   18.5527   83.9290    6.7036 N   0  0  0  0  0  0  0  0  0  0  0  0
   18.7975   83.6526    5.3872 N   0  0  0  0  0  0  0  0  0  0  0  0
   18.6038   82.0544    3.6545 N   0  0  0  0  0  0  0  0  0  0  0  0
   18.2046   81.2000    3.3720 H   0  0  0  0  0  0  0  0  0  0  0  0
   20.7056   82.1379    2.4192 C   0  0  0  0  0  0  0  0  0  0  0  0
   19.3587   82.8151    2.6604 C   0  0  0  0  0  0  0  0  0  0  0  0
   18.5599   82.8921    1.3689 C   0  0  0  0  0  0  0  0  0  0  0  0
   19.5221   86.2669    6.7286 C   0  0  0  0  0  0  0  0  0  0  0  0
   19.0393   87.5854    7.3396 C   0  0  0  0  0  0  0  0  0  0  0  0
   21.0317   86.1261    6.8217 C   0  0  0  0  0  0  0  0  0  0  0  0
   21.8324   86.1399    7.9662 C   0  0  0  0  0  0  0  0  0  0  0  0
   23.1446   85.9806    7.6027 N   0  0  0  0  0  0  0  0  0  0  0  0
   23.2240   85.8607    6.2466 C   0  0  0  0  0  0  0  0  0  0  0  0
   24.3796   85.6880    5.5384 N   0  0  0  0  0  0  0  0  0  0  0  0
   24.2004   85.5942    4.1743 C   0  0  0  0  0  0  0  0  0  0  0  0
   22.9581   85.6635    3.5114 C   0  0  0  0  0  0  0  0  0  0  0  0
   21.7912   85.8447    4.3007 C   0  0  0  0  0  0  0  0  0  0  0  0
   21.9209   85.9472    5.7222 C   0  0  0  0  0  0  0  0  0  0  0  0
   23.9090   85.9566    8.2227 H   0  0  0  0  0  0  0  0  0  0  0  0
 12 13  1  0  0  0
 13 14  1  0  0  0
 13 10  1  0  0  0
 10  1  1  0  0  0
  1  2  1  0  0  0
  1  9  2  0  0  0
  2  3  2  0  0  0
  3  4  1  0  0  0
  4  5  2  0  0  0
  4  8  1  0  0  0
  5  6  1  0  0  0
  6  7  2  0  0  0
  7 15  1  0  0  0
  7  8  1  0  0  0
 15 16  1  0  0  0
 15 17  1  0  0  0
 17 18  2  0  0  0
 17 25  1  0  0  0
 18 19  1  0  0  0
 19 20  1  0  0  0
 20 21  2  0  0  0
 20 25  1  0  0  0
 21 22  1  0  0  0
 22 23  2  0  0  0
 23 24  1  0  0  0
 24 25  2  0  0  0
  8  9  1  0  0  0
 10 11  1  0  0  0
 19 26  1  0  0  0
M  END
> <minimizedAffinity>
-10.97857

$$$$
3ZCL_5TF_A_1


 26 29  0  0  0  0  0  0  0  0999 V2000
   22.1308   85.7778    4.7773 C   0  0  0  0  0  0  0  0  0  0  0  0
   23.5195   85.4955    4.2335 C   0  0  0  0  0  0  0  0  0  0  0  0
   23.6486   84.6645    3.1719 C   0  0  0  0  0  0  0  0  0  0  0  0
   22.4908   84.0780    2.5941 C   0  0  0  0  0  0  0  0  0  0  0  0
   22.3008   83.2571    1.5881 N   0  0  0  0  0  0  0  0  0  0  0  0
   20.9431   83.0277    1.4882 N   0  0  0  0  0  0  0  0  0  0  0  0
   20.3321   83.7161    2.4379 C   0  0  0  0  0  0  0  0  0  0  0  0
   21.2749   84.4016    3.1665 N   0  0  0  0  0  0  0  0  0  0  0  0
   21.0510   85.2263    4.2339 N   0  0  0  0  0  0  0  0  0  0  0  0
   22.0362   86.6309    5.8618 N   0  0  0  0  0  0  0  0  0  0  0  0
   22.5306   87.4813    5.8209 H   0  0  0  0  0  0  0  0  0  0  0  0
   22.1945   86.1559    8.2492 C   0  0  0  0  0  0  0  0  0  0  0  0
   21.2524   86.3561    7.0646 C   0  0  0  0  0  0  0  0  0  0  0  0
   20.3034   87.5151    7.3258 C   0  0  0  0  0  0  0  0  0  0  0  0
   18.8607   83.7835    2.7239 C   0  0  0  0  0  0  0  0  0  0  0  0
   18.0359   83.5459    1.4559 C   0  0  0  0  0  0  0  0  0  0  0  0
   18.4978   82.7976    3.8210 C   0  0  0  0  0  0  0  0  0  0  0  0
   18.1939   81.4398    3.6973 C   0  0  0  0  0  0  0  0  0  0  0  0
   17.9246   80.9213    4.9376 N   0  0  0  0  0  0  0  0  0  0  0  0
   18.0463   81.9064    5.8727 C   0  0  0  0  0  0  0  0  0  0  0  0
   17.8496   81.7454    7.2151 N   0  0  0  0  0  0  0  0  0  0  0  0
   18.0314   82.8936    7.9569 C   0  0  0  0  0  0  0  0  0  0  0  0
   18.3890   84.1521    7.4316 C   0  0  0  0  0  0  0  0  0  0  0  0
   18.5793   84.2584    6.0280 C   0  0  0  0  0  0  0  0  0  0  0  0
   18.4039   83.0962    5.2116 C   0  0  0  0  0  0  0  0  0  0  0  0
   17.6816   79.9856    5.1237 H   0  0  0  0  0  0  0  0  0  0  0  0
 12 13  1  0  0  0
 13 14  1  0  0  0
 13 10  1  0  0  0
 10  1  1  0  0  0
  1  2  1  0  0  0
  1  9  2  0  0  0
  2  3  2  0  0  0
  3  4  1  0  0  0
  4  5  2  0  0  0
  4  8  1  0  0  0
  5  6  1  0  0  0
  6  7  2  0  0  0
  7 15  1  0  0  0
  7  8  1  0  0  0
 15 16  1  0  0  0
 15 17  1  0  0  0
 17 18  2  0  0  0
 17 25  1  0  0  0
 18 19  1  0  0  0
 19 20  1  0  0  0
 20 21  2  0  0  0
 20 25  1  0  0  0
 21 22  1  0  0  0
 22 23  2  0  0  0
 23 24  1  0  0  0
 24 25  2  0  0  0
  8  9  1  0  0  0
 10 11  1  0  0  0
 19 26  1  0  0  0
M  END
> <minimizedAffinity>
-9.02545

$$$$
3ZCL_5TF_A_1


 26 29  0  0  0  0  0  0  0  0999 V2000
   18.7072   84.9922    7.0605 C   0  0  0  0  0  0  0  0  0  0  0  0
   18.2580   83.9283    8.0457 C   0  0  0  0  0  0  0  0  0  0  0  0
   17.9872   82.6841    7.5846 C   0  0  0  0  0  0  0  0  0  0  0  0
   18.1271   82.4024    6.1992 C   0  0  0  0  0  0  0  0  0  0  0  0
   17.9442   81.3241    5.4741 N   0  0  0  0  0  0  0  0  0  0  0  0
   18.2380   81.6477    4.1646 N   0  0  0  0  0  0  0  0  0  0  0  0
   18.5955   82.9202    4.1188 C   0  0  0  0  0  0  0  0  0  0  0  0
   18.5421   83.4429    5.3892 N   0  0  0  0  0  0  0  0  0  0  0  0
   18.8360   84.7240    5.7655 N   0  0  0  0  0  0  0  0  0  0  0  0
   18.9752   86.2513    7.5660 N   0  0  0  0  0  0  0  0  0  0  0  0
   18.3607   86.6135    8.2446 H   0  0  0  0  0  0  0  0  0  0  0  0
   19.8865   88.5127    7.6429 C   0  0  0  0  0  0  0  0  0  0  0  0
   20.1086   87.0810    7.1615 C   0  0  0  0  0  0  0  0  0  0  0  0
   21.3889   86.5109    7.7515 C   0  0  0  0  0  0  0  0  0  0  0  0
   19.0051   83.7184    2.9162 C   0  0  0  0  0  0  0  0  0  0  0  0
   18.6657   85.2013    3.0904 C   0  0  0  0  0  0  0  0  0  0  0  0
   20.4831   83.5116    2.6328 C   0  0  0  0  0  0  0  0  0  0  0  0
   21.0844   82.5126    1.8636 C   0  0  0  0  0  0  0  0  0  0  0  0
   22.4433   82.6945    1.8676 N   0  0  0  0  0  0  0  0  0  0  0  0
   22.7479   83.7903    2.6198 C   0  0  0  0  0  0  0  0  0  0  0  0
   24.0092   84.2662    2.8418 N   0  0  0  0  0  0  0  0  0  0  0  0
   24.0594   85.3903    3.6392 C   0  0  0  0  0  0  0  0  0  0  0  0
   22.9408   86.0360    4.2043 C   0  0  0  0  0  0  0  0  0  0  0  0
   21.6547   85.4947    3.9389 C   0  0  0  0  0  0  0  0  0  0  0  0
   21.5461   84.3289    3.1161 C   0  0  0  0  0  0  0  0  0  0  0  0
   23.0961   82.1239    1.4011 H   0  0  0  0  0  0  0  0  0  0  0  0
 12 13  1  0  0  0
 13 14  1  0  0  0
 13 10  1  0  0  0
 10  1  1  0  0  0
  1  2  1  0  0  0
  1  9  2  0  0  0
  2  3  2  0  0  0
  3  4  1  0  0  0
  4  5  2  0  0  0
  4  8  1  0  0  0
  5  6  1  0  0  0
  6  7  2  0  0  0
  7 15  1  0  0  0
  7  8  1  0  0  0
 15 16  1  0  0  0
 15 17  1  0  0  0
 17 18  2  0  0  0
 17 25  1  0  0  0
 18 19  1  0  0  0
 19 20  1  0  0  0
 20 21  2  0  0  0
 20 25  1  0  0  0
 21 22  1  0  0  0
 22 23  2  0  0  0
 23 24  1  0  0  0
 24 25  2  0  0  0
  8  9  1  0  0  0
 10 11  1  0  0  0
 19 26  1  0  0  0
M  END
> <minimizedAffinity>
-8.27286

$$$$
3ZCL_5TF_A_1


 26 29  0  0  0  0  0  0  0  0999 V2000
   23.1320   85.3933    3.4546 C   0  0  0  0  0  0  0  0  0  0  0  0
   24.4829   85.4809    4.1413 C   0  0  0  0  0  0  0  0  0  0  0  0
   24.5242   85.7339    5.4711 C   0  0  0  0  0  0  0  0  0  0  0  0
   23.3120   85.9116    6.1903 C   0  0  0  0  0  0  0  0  0  0  0  0
   23.0372   86.1608    7.4490 N   0  0  0  0  0  0  0  0  0  0  0  0
   21.6636   86.2305    7.5697 N   0  0  0  0  0  0  0  0  0  0  0  0
   21.1284   86.0211    6.3786 C   0  0  0  0  0  0  0  0  0  0  0  0
   22.1372   85.8117    5.4686 N   0  0  0  0  0  0  0  0  0  0  0  0
   22.0010   85.5609    4.1314 N   0  0  0  0  0  0  0  0  0  0  0  0
   23.1274   85.1336    2.0961 N   0  0  0  0  0  0  0  0  0  0  0  0
   22.4425   85.5784    1.5463 H   0  0  0  0  0  0  0  0  0  0  0  0
   23.2985   83.2461    0.5603 C   0  0  0  0  0  0  0  0  0  0  0  0
   24.0701   84.2435    1.4209 C   0  0  0  0  0  0  0  0  0  0  0  0
   25.0189   85.0673    0.5645 C   0  0  0  0  0  0  0  0  0  0  0  0
   19.6730   85.9992    6.0147 C   0  0  0  0  0  0  0  0  0  0  0  0
   19.4767   85.7224    4.5216 C   0  0  0  0  0  0  0  0  0  0  0  0
   18.9367   84.9855    6.8737 C   0  0  0  0  0  0  0  0  0  0  0  0
   18.5228   85.1156    8.2015 C   0  0  0  0  0  0  0  0  0  0  0  0
   17.8914   83.9637    8.5939 N   0  0  0  0  0  0  0  0  0  0  0  0
   17.8795   83.0812    7.5544 C   0  0  0  0  0  0  0  0  0  0  0  0
   17.3309   81.8304    7.5906 N   0  0  0  0  0  0  0  0  0  0  0  0
   17.4462   81.1259    6.4107 C   0  0  0  0  0  0  0  0  0  0  0  0
   18.0653   81.6024    5.2372 C   0  0  0  0  0  0  0  0  0  0  0  0
   18.6185   82.9104    5.2599 C   0  0  0  0  0  0  0  0  0  0  0  0
   18.5254   83.6851    6.4596 C   0  0  0  0  0  0  0  0  0  0  0  0
   17.5073   83.7995    9.4853 H   0  0  0  0  0  0  0  0  0  0  0  0
 12 13  1  0  0  0
 13 14  1  0  0  0
 13 10  1  0  0  0
 10  1  1  0  0  0
  1  2  1  0  0  0
  1  9  2  0  0  0
  2  3  2  0  0  0
  3  4  1  0  0  0
  4  5  2  0  0  0
  4  8  1  0  0  0
  5  6  1  0  0  0
  6  7  2  0  0  0
  7 15  1  0  0  0
  7  8  1  0  0  0
 15 16  1  0  0  0
 15 17  1  0  0  0
 17 18  2  0  0  0
 17 25  1  0  0  0
 18 19  1  0  0  0
 19 20  1  0  0  0
 20 21  2  0  0  0
 20 25  1  0  0  0
 21 22  1  0  0  0
 22 23  2  0  0  0
 23 24  1  0  0  0
 24 25  2  0  0  0
  8  9  1  0  0  0
 10 11  1  0  0  0
 19 26  1  0  0  0
M  END
> <minimizedAffinity>
-8.26410

$$$$
3ZCL_5TF_A_1


 26 29  0  0  0  0  0  0  0  0999 V2000
   22.9522   83.0573    1.4559 C   0  0  0  0  0  0  0  0  0  0  0  0
   23.6229   82.1902    0.4060 C   0  0  0  0  0  0  0  0  0  0  0  0
   22.8500   81.5535   -0.5058 C   0  0  0  0  0  0  0  0  0  0  0  0
   21.4385   81.7083   -0.4610 C   0  0  0  0  0  0  0  0  0  0  0  0
   20.4545   81.2331   -1.1876 N   0  0  0  0  0  0  0  0  0  0  0  0
   19.2758   81.7313   -0.6695 N   0  0  0  0  0  0  0  0  0  0  0  0
   19.5669   82.5025    0.3647 C   0  0  0  0  0  0  0  0  0  0  0  0
   20.9308   82.5205    0.5358 N   0  0  0  0  0  0  0  0  0  0  0  0
   21.6316   83.1986    1.4942 N   0  0  0  0  0  0  0  0  0  0  0  0
   23.7719   83.6927    2.3710 N   0  0  0  0  0  0  0  0  0  0  0  0
   24.2218   83.1365    3.0473 H   0  0  0  0  0  0  0  0  0  0  0  0
   24.3200   85.5654    3.8347 C   0  0  0  0  0  0  0  0  0  0  0  0
   24.0158   85.1336    2.4023 C   0  0  0  0  0  0  0  0  0  0  0  0
   25.1799   85.4697    1.4837 C   0  0  0  0  0  0  0  0  0  0  0  0
   18.6163   83.2611    1.2434 C   0  0  0  0  0  0  0  0  0  0  0  0
   17.2973   83.5467    0.5200 C   0  0  0  0  0  0  0  0  0  0  0  0
   18.3908   82.5049    2.5414 C   0  0  0  0  0  0  0  0  0  0  0  0
   18.0570   81.1592    2.7113 C   0  0  0  0  0  0  0  0  0  0  0  0
   17.9489   80.8850    4.0502 N   0  0  0  0  0  0  0  0  0  0  0  0
   18.2056   82.0187    4.7633 C   0  0  0  0  0  0  0  0  0  0  0  0
   18.1872   82.1118    6.1263 N   0  0  0  0  0  0  0  0  0  0  0  0
   18.4797   83.3684    6.6132 C   0  0  0  0  0  0  0  0  0  0  0  0
   18.7791   84.4966    5.8225 C   0  0  0  0  0  0  0  0  0  0  0  0
   18.7823   84.3388    4.4109 C   0  0  0  0  0  0  0  0  0  0  0  0
   18.4862   83.0546    3.8530 C   0  0  0  0  0  0  0  0  0  0  0  0
   17.7218   80.0082    4.4359 H   0  0  0  0  0  0  0  0  0  0  0  0
 12 13  1  0  0  0
 13 14  1  0  0  0
 13 10  1  0  0  0
 10  1  1  0  0  0
  1  2  1  0  0  0
  1  9  2  0  0  0
  2  3  2  0  0  0
  3  4  1  0  0  0
  4  5  2  0  0  0
  4  8  1  0  0  0
  5  6  1  0  0  0
  6  7  2  0  0  0
  7 15  1  0  0  0
  7  8  1  0  0  0
 15 16  1  0  0  0
 15 17  1  0  0  0
 17 18  2  0  0  0
 17 25  1  0  0  0
 18 19  1  0  0  0
 19 20  1  0  0  0
 20 21  2  0  0  0
 20 25  1  0  0  0
 21 22  1  0  0  0
 22 23  2  0  0  0
 23 24  1  0  0  0
 24 25  2  0  0  0
  8  9  1  0  0  0
 10 11  1  0  0  0
 19 26  1  0  0  0
M  END
> <minimizedAffinity>
-8.05154

$$$$
3ZCL_5TF_A_1


 26 29  0  0  0  0  0  0  0  0999 V2000
   18.7158   85.0785    7.1475 C   0  0  0  0  0  0  0  0  0  0  0  0
   18.3079   83.9985    8.1330 C   0  0  0  0  0  0  0  0  0  0  0  0
   18.0153   82.7625    7.6630 C   0  0  0  0  0  0  0  0  0  0  0  0
   18.0946   82.5044    6.2683 C   0  0  0  0  0  0  0  0  0  0  0  0
   17.8786   81.4388    5.5335 N   0  0  0  0  0  0  0  0  0  0  0  0
   18.1160   81.7845    4.2182 N   0  0  0  0  0  0  0  0  0  0  0  0
   18.4733   83.0572    4.1787 C   0  0  0  0  0  0  0  0  0  0  0  0
   18.4759   83.5581    5.4588 N   0  0  0  0  0  0  0  0  0  0  0  0
   18.7879   84.8324    5.8438 N   0  0  0  0  0  0  0  0  0  0  0  0
   19.0076   86.3287    7.6623 N   0  0  0  0  0  0  0  0  0  0  0  0
   18.4054   86.6933    8.3505 H   0  0  0  0  0  0  0  0  0  0  0  0
   19.9210   88.5904    7.6911 C   0  0  0  0  0  0  0  0  0  0  0  0
   20.1491   87.1454    7.2542 C   0  0  0  0  0  0  0  0  0  0  0  0
   21.4181   86.5908    7.8820 C   0  0  0  0  0  0  0  0  0  0  0  0
   18.8318   83.8753    2.9731 C   0  0  0  0  0  0  0  0  0  0  0  0
   19.7101   85.0707    3.3529 C   0  0  0  0  0  0  0  0  0  0  0  0
   19.5008   82.9982    1.9288 C   0  0  0  0  0  0  0  0  0  0  0  0
   20.8091   82.5089    1.9204 C   0  0  0  0  0  0  0  0  0  0  0  0
   21.0034   81.7554    0.7916 N   0  0  0  0  0  0  0  0  0  0  0  0
   19.8529   81.7371    0.0598 C   0  0  0  0  0  0  0  0  0  0  0  0
   19.6858   81.0813   -1.1271 N   0  0  0  0  0  0  0  0  0  0  0  0
   18.4280   81.2143   -1.6766 C   0  0  0  0  0  0  0  0  0  0  0  0
   17.3673   81.9497   -1.1096 C   0  0  0  0  0  0  0  0  0  0  0  0
   17.6008   82.6111    0.1256 C   0  0  0  0  0  0  0  0  0  0  0  0
   18.8891   82.5048    0.7397 C   0  0  0  0  0  0  0  0  0  0  0  0
   21.8412   81.2995    0.5479 H   0  0  0  0  0  0  0  0  0  0  0  0
 12 13  1  0  0  0
 13 14  1  0  0  0
 13 10  1  0  0  0
 10  1  1  0  0  0
  1  2  1  0  0  0
  1  9  2  0  0  0
  2  3  2  0  0  0
  3  4  1  0  0  0
  4  5  2  0  0  0
  4  8  1  0  0  0
  5  6  1  0  0  0
  6  7  2  0  0  0
  7 15  1  0  0  0
  7  8  1  0  0  0
 15 16  1  0  0  0
 15 17  1  0  0  0
 17 18  2  0  0  0
 17 25  1  0  0  0
 18 19  1  0  0  0
 19 20  1  0  0  0
 20 21  2  0  0  0
 20 25  1  0  0  0
 21 22  1  0  0  0
 22 23  2  0  0  0
 23 24  1  0  0  0
 24 25  2  0  0  0
  8  9  1  0  0  0
 10 11  1  0  0  0
 19 26  1  0  0  0
M  END
> <minimizedAffinity>
-7.98874

$$$$
