4BCM_T7Z_A_1297


 35 38  0  0  0  0  0  0  0  0999 V2000
    6.8161   22.3731   24.3293 N   0  0  0  0  0  0  0  0  0  0  0  0
    7.0361   21.9801   25.2047 H   0  0  0  0  0  0  0  0  0  0  0  0
    7.4534   21.7736   23.1523 C   0  0  0  0  0  0  0  0  0  0  0  0
    6.7576   21.3995   21.9929 C   0  0  0  0  0  0  0  0  0  0  0  0
    7.4680   20.8222   20.8976 C   0  0  0  0  0  0  0  0  0  0  0  0
    8.8721   20.6450   20.9827 C   0  0  0  0  0  0  0  0  0  0  0  0
    9.6705   20.0534   19.8681 C   0  0  0  0  0  0  0  0  0  0  0  0
    9.5530   21.0216   22.1300 C   0  0  0  0  0  0  0  0  0  0  0  0
    8.8427   21.5869   23.2167 C   0  0  0  0  0  0  0  0  0  0  0  0
    6.5746   20.3258   19.3969 S   0  0  0  0  0  0  0  0  0  0  0  0
    6.5531   21.4141   18.4567 O   0  0  0  0  0  0  0  0  0  0  0  0
    7.1883   19.1831   18.7757 O   0  0  0  0  0  0  0  0  0  0  0  0
    5.0670   19.8843   19.8686 N   0  0  0  0  0  0  0  0  0  0  0  0
    4.1770   20.8067   19.4370 C   0  0  0  0  0  0  0  0  0  0  0  0
    2.8322   20.5733   20.0452 C   0  0  0  0  0  0  0  0  0  0  0  0
    2.4170   19.1910   19.8692 O   0  0  0  0  0  0  0  0  0  0  0  0
    3.3905   18.3522   20.5559 C   0  0  0  0  0  0  0  0  0  0  0  0
    4.7825   18.5748   20.0682 C   0  0  0  0  0  0  0  0  0  0  0  0
    3.8768   24.4741   23.6030 C   0  0  0  0  0  0  0  0  0  0  0  0
    4.7456   23.4304   23.6143 N   0  0  0  0  0  0  0  0  0  0  0  0
    5.8977   23.4840   24.3237 C   0  0  0  0  0  0  0  0  0  0  0  0
    6.2340   24.5745   25.0168 N   0  0  0  0  0  0  0  0  0  0  0  0
    5.4288   25.6529   25.0436 C   0  0  0  0  0  0  0  0  0  0  0  0
    4.2001   25.6286   24.3230 C   0  0  0  0  0  0  0  0  0  0  0  0
   -1.1445   24.0978   19.5044 C   0  0  0  0  0  0  0  0  0  0  0  0
    0.2825   23.9979   19.5792 N   0  0  0  0  0  0  0  0  0  0  0  0
    0.9506   24.1161   20.8789 C   0  0  0  0  0  0  0  0  0  0  0  0
    0.2567   24.1453   22.1134 N   0  0  0  0  0  0  0  0  0  0  0  0
    1.2205   24.2760   23.2728 C   0  0  0  0  0  0  0  0  0  0  0  0
    0.7564   24.3445   24.7300 C   0  0  0  0  0  0  0  0  0  0  0  0
    2.5856   24.3221   22.7796 C   0  0  0  0  0  0  0  0  0  0  0  0
    2.5813   24.2313   21.1467 S   0  0  0  0  0  0  0  0  0  0  0  0
   -0.7218   24.0882   22.2049 H   0  0  0  0  0  0  0  0  0  0  0  0
    3.3055   26.8256   24.3712 C   0  0  0  0  0  0  0  0  0  0  0  0
    2.5975   27.7399   24.3909 N   0  0  0  0  0  0  0  0  0  0  0  0
 25 26  1  0  0  0
 26 27  2  0  0  0
 27 28  1  0  0  0
 27 32  1  0  0  0
 28 29  1  0  0  0
 29 30  1  0  0  0
 29 31  2  0  0  0
 31 19  1  0  0  0
 31 32  1  0  0  0
 19 20  1  0  0  0
 19 24  2  0  0  0
 20 21  2  0  0  0
 21  1  1  0  0  0
 21 22  1  0  0  0
  1  3  1  0  0  0
  3  4  1  0  0  0
  3  9  2  0  0  0
  4  5  2  0  0  0
  5 10  1  0  0  0
  5  6  1  0  0  0
 10 13  1  0  0  0
 10 11  2  0  0  0
 10 12  2  0  0  0
 13 14  1  0  0  0
 13 18  1  0  0  0
 14 15  1  0  0  0
 15 16  1  0  0  0
 16 17  1  0  0  0
 17 18  1  0  0  0
  6  7  1  0  0  0
  6  8  2  0  0  0
  8  9  1  0  0  0
 22 23  2  0  0  0
 23 24  1  0  0  0
 24 34  1  0  0  0
 34 35  3  0  0  0
 28 33  1  0  0  0
  1  2  1  0  0  0
M  END
> <minimizedAffinity>
-9.19529

$$$$
4BCM_T7Z_A_1297


 35 38  0  0  0  0  0  0  0  0999 V2000
    8.0884   22.3793   23.9736 N   0  0  0  0  0  0  0  0  0  0  0  0
    8.8839   22.3236   24.5510 H   0  0  0  0  0  0  0  0  0  0  0  0
    7.0282   23.3032   24.3896 C   0  0  0  0  0  0  0  0  0  0  0  0
    5.9506   23.6747   23.5716 C   0  0  0  0  0  0  0  0  0  0  0  0
    4.9669   24.5825   24.0677 C   0  0  0  0  0  0  0  0  0  0  0  0
    5.0771   25.0900   25.3869 C   0  0  0  0  0  0  0  0  0  0  0  0
    4.0767   26.0366   25.9637 C   0  0  0  0  0  0  0  0  0  0  0  0
    6.1425   24.7143   26.1905 C   0  0  0  0  0  0  0  0  0  0  0  0
    7.1197   23.8195   25.6913 C   0  0  0  0  0  0  0  0  0  0  0  0
    3.5741   25.0768   23.0129 S   0  0  0  0  0  0  0  0  0  0  0  0
    3.2398   26.4544   23.2565 O   0  0  0  0  0  0  0  0  0  0  0  0
    3.8876   24.9108   21.6193 O   0  0  0  0  0  0  0  0  0  0  0  0
    2.3318   24.0657   23.3659 N   0  0  0  0  0  0  0  0  0  0  0  0
    1.2255   24.7959   23.6347 C   0  0  0  0  0  0  0  0  0  0  0  0
    0.1409   23.9323   24.1921 C   0  0  0  0  0  0  0  0  0  0  0  0
   -0.0816   22.7701   23.3472 O   0  0  0  0  0  0  0  0  0  0  0  0
    1.1577   22.0041   23.3237 C   0  0  0  0  0  0  0  0  0  0  0  0
    2.3204   22.8116   22.8535 C   0  0  0  0  0  0  0  0  0  0  0  0
    6.9080   20.5515   20.9992 C   0  0  0  0  0  0  0  0  0  0  0  0
    6.9289   21.3375   22.1064 N   0  0  0  0  0  0  0  0  0  0  0  0
    8.0743   21.5453   22.7980 C   0  0  0  0  0  0  0  0  0  0  0  0
    9.2194   20.9644   22.4318 N   0  0  0  0  0  0  0  0  0  0  0  0
    9.2741   20.1626   21.3519 C   0  0  0  0  0  0  0  0  0  0  0  0
    8.0932   19.9327   20.5889 C   0  0  0  0  0  0  0  0  0  0  0  0
    1.2931   19.0533   18.1042 C   0  0  0  0  0  0  0  0  0  0  0  0
    2.1555   18.6885   19.1881 N   0  0  0  0  0  0  0  0  0  0  0  0
    3.3689   19.4706   19.4442 C   0  0  0  0  0  0  0  0  0  0  0  0
    3.6615   20.6934   18.7920 N   0  0  0  0  0  0  0  0  0  0  0  0
    4.9833   21.2571   19.2667 C   0  0  0  0  0  0  0  0  0  0  0  0
    5.5649   22.5667   18.7279 C   0  0  0  0  0  0  0  0  0  0  0  0
    5.5649   20.3804   20.2676 C   0  0  0  0  0  0  0  0  0  0  0  0
    4.5840   19.0935   20.5050 S   0  0  0  0  0  0  0  0  0  0  0  0
    3.0823   21.1196   18.1196 H   0  0  0  0  0  0  0  0  0  0  0  0
    8.1673   19.0526   19.3825 C   0  0  0  0  0  0  0  0  0  0  0  0
    8.2148   18.3520   18.4636 N   0  0  0  0  0  0  0  0  0  0  0  0
 25 26  1  0  0  0
 26 27  2  0  0  0
 27 28  1  0  0  0
 27 32  1  0  0  0
 28 29  1  0  0  0
 29 30  1  0  0  0
 29 31  2  0  0  0
 31 19  1  0  0  0
 31 32  1  0  0  0
 19 20  1  0  0  0
 19 24  2  0  0  0
 20 21  2  0  0  0
 21  1  1  0  0  0
 21 22  1  0  0  0
  1  3  1  0  0  0
  3  4  1  0  0  0
  3  9  2  0  0  0
  4  5  2  0  0  0
  5 10  1  0  0  0
  5  6  1  0  0  0
 10 13  1  0  0  0
 10 11  2  0  0  0
 10 12  2  0  0  0
 13 14  1  0  0  0
 13 18  1  0  0  0
 14 15  1  0  0  0
 15 16  1  0  0  0
 16 17  1  0  0  0
 17 18  1  0  0  0
  6  7  1  0  0  0
  6  8  2  0  0  0
  8  9  1  0  0  0
 22 23  2  0  0  0
 23 24  1  0  0  0
 24 34  1  0  0  0
 34 35  3  0  0  0
 28 33  1  0  0  0
  1  2  1  0  0  0
M  END
> <minimizedAffinity>
-9.13734

$$$$
4BCM_T7Z_A_1297


 35 38  0  0  0  0  0  0  0  0999 V2000
    7.4689   23.8041   25.9829 N   0  0  0  0  0  0  0  0  0  0  0  0
    8.0141   23.7520   26.8010 H   0  0  0  0  0  0  0  0  0  0  0  0
    6.2407   24.6025   26.0521 C   0  0  0  0  0  0  0  0  0  0  0  0
    5.4421   24.9051   24.9389 C   0  0  0  0  0  0  0  0  0  0  0  0
    4.2627   25.6913   25.1080 C   0  0  0  0  0  0  0  0  0  0  0  0
    3.8985   26.1475   26.4000 C   0  0  0  0  0  0  0  0  0  0  0  0
    2.6737   26.9670   26.6409 C   0  0  0  0  0  0  0  0  0  0  0  0
    4.6905   25.8402   27.4956 C   0  0  0  0  0  0  0  0  0  0  0  0
    5.8634   25.0664   27.3216 C   0  0  0  0  0  0  0  0  0  0  0  0
    3.2283   26.0964   23.6718 S   0  0  0  0  0  0  0  0  0  0  0  0
    2.5930   27.3716   23.8696 O   0  0  0  0  0  0  0  0  0  0  0  0
    4.0057   26.1435   22.4629 O   0  0  0  0  0  0  0  0  0  0  0  0
    2.1400   24.8794   23.5148 N   0  0  0  0  0  0  0  0  0  0  0  0
    2.6837   23.8883   22.7722 C   0  0  0  0  0  0  0  0  0  0  0  0
    1.6516   22.8726   22.4037 C   0  0  0  0  0  0  0  0  0  0  0  0
    0.9198   22.4277   23.5788 O   0  0  0  0  0  0  0  0  0  0  0  0
    0.2476   23.5918   24.1408 C   0  0  0  0  0  0  0  0  0  0  0  0
    1.1948   24.6967   24.4681 C   0  0  0  0  0  0  0  0  0  0  0  0
    7.5569   21.6889   22.9664 C   0  0  0  0  0  0  0  0  0  0  0  0
    7.1081   22.3669   24.0540 N   0  0  0  0  0  0  0  0  0  0  0  0
    7.9522   23.0887   24.8287 C   0  0  0  0  0  0  0  0  0  0  0  0
    9.2604   23.1390   24.5666 N   0  0  0  0  0  0  0  0  0  0  0  0
    9.7806   22.4831   23.5124 C   0  0  0  0  0  0  0  0  0  0  0  0
    8.9219   21.7262   22.6643 C   0  0  0  0  0  0  0  0  0  0  0  0
    2.7440   19.0329   19.5118 C   0  0  0  0  0  0  0  0  0  0  0  0
    3.3780   20.2793   19.8220 N   0  0  0  0  0  0  0  0  0  0  0  0
    4.5651   20.2946   20.6823 C   0  0  0  0  0  0  0  0  0  0  0  0
    5.2475   19.1229   21.0918 N   0  0  0  0  0  0  0  0  0  0  0  0
    6.4286   19.4649   21.9741 C   0  0  0  0  0  0  0  0  0  0  0  0
    7.3468   18.3984   22.5765 C   0  0  0  0  0  0  0  0  0  0  0  0
    6.5258   20.9048   22.1355 C   0  0  0  0  0  0  0  0  0  0  0  0
    5.3114   21.6311   21.3156 S   0  0  0  0  0  0  0  0  0  0  0  0
    4.9881   18.2081   20.8366 H   0  0  0  0  0  0  0  0  0  0  0  0
    9.5069   21.0135   21.4873 C   0  0  0  0  0  0  0  0  0  0  0  0
    9.9573   20.4844   20.5628 N   0  0  0  0  0  0  0  0  0  0  0  0
 25 26  1  0  0  0
 26 27  2  0  0  0
 27 28  1  0  0  0
 27 32  1  0  0  0
 28 29  1  0  0  0
 29 30  1  0  0  0
 29 31  2  0  0  0
 31 19  1  0  0  0
 31 32  1  0  0  0
 19 20  1  0  0  0
 19 24  2  0  0  0
 20 21  2  0  0  0
 21  1  1  0  0  0
 21 22  1  0  0  0
  1  3  1  0  0  0
  3  4  1  0  0  0
  3  9  2  0  0  0
  4  5  2  0  0  0
  5 10  1  0  0  0
  5  6  1  0  0  0
 10 13  1  0  0  0
 10 11  2  0  0  0
 10 12  2  0  0  0
 13 14  1  0  0  0
 13 18  1  0  0  0
 14 15  1  0  0  0
 15 16  1  0  0  0
 16 17  1  0  0  0
 17 18  1  0  0  0
  6  7  1  0  0  0
  6  8  2  0  0  0
  8  9  1  0  0  0
 22 23  2  0  0  0
 23 24  1  0  0  0
 24 34  1  0  0  0
 34 35  3  0  0  0
 28 33  1  0  0  0
  1  2  1  0  0  0
M  END
> <minimizedAffinity>
-8.71509

$$$$
4BCM_T7Z_A_1297


 35 38  0  0  0  0  0  0  0  0999 V2000
    6.9004   23.8574   24.1766 N   0  0  0  0  0  0  0  0  0  0  0  0
    7.8377   24.1576   24.1526 H   0  0  0  0  0  0  0  0  0  0  0  0
    5.9894   24.5912   25.0611 C   0  0  0  0  0  0  0  0  0  0  0  0
    4.8428   25.2658   24.6154 C   0  0  0  0  0  0  0  0  0  0  0  0
    4.0172   25.9534   25.5553 C   0  0  0  0  0  0  0  0  0  0  0  0
    4.3527   25.9372   26.9327 C   0  0  0  0  0  0  0  0  0  0  0  0
    3.5251   26.6316   27.9636 C   0  0  0  0  0  0  0  0  0  0  0  0
    5.4849   25.2644   27.3657 C   0  0  0  0  0  0  0  0  0  0  0  0
    6.3047   24.5903   26.4285 C   0  0  0  0  0  0  0  0  0  0  0  0
    2.5368   26.8374   24.9867 S   0  0  0  0  0  0  0  0  0  0  0  0
    1.9615   27.5808   26.0754 O   0  0  0  0  0  0  0  0  0  0  0  0
    2.8474   27.7435   23.9140 O   0  0  0  0  0  0  0  0  0  0  0  0
    1.5072   25.7049   24.3972 N   0  0  0  0  0  0  0  0  0  0  0  0
    1.7966   25.4735   23.0964 C   0  0  0  0  0  0  0  0  0  0  0  0
    0.7390   24.6329   22.4578 C   0  0  0  0  0  0  0  0  0  0  0  0
    0.4763   23.4416   23.2490 O   0  0  0  0  0  0  0  0  0  0  0  0
   -0.0025   23.8809   24.5531 C   0  0  0  0  0  0  0  0  0  0  0  0
    0.9579   24.7947   25.2370 C   0  0  0  0  0  0  0  0  0  0  0  0
    5.2657   21.8028   21.5905 C   0  0  0  0  0  0  0  0  0  0  0  0
    5.6010   22.8543   22.3817 N   0  0  0  0  0  0  0  0  0  0  0  0
    6.5512   22.7373   23.3392 C   0  0  0  0  0  0  0  0  0  0  0  0
    7.1748   21.5771   23.5577 N   0  0  0  0  0  0  0  0  0  0  0  0
    6.8873   20.4876   22.8211 C   0  0  0  0  0  0  0  0  0  0  0  0
    5.9048   20.5755   21.7933 C   0  0  0  0  0  0  0  0  0  0  0  0
    0.2315   22.2844   17.5189 C   0  0  0  0  0  0  0  0  0  0  0  0
    0.5758   22.1130   18.8987 N   0  0  0  0  0  0  0  0  0  0  0  0
    1.9845   22.1446   19.3039 C   0  0  0  0  0  0  0  0  0  0  0  0
    3.0386   22.5174   18.4344 N   0  0  0  0  0  0  0  0  0  0  0  0
    4.3743   22.4485   19.1425 C   0  0  0  0  0  0  0  0  0  0  0  0
    5.6964   22.7857   18.4485 C   0  0  0  0  0  0  0  0  0  0  0  0
    4.1838   22.0286   20.5196 C   0  0  0  0  0  0  0  0  0  0  0  0
    2.5934   21.7682   20.7978 S   0  0  0  0  0  0  0  0  0  0  0  0
    2.9184   22.7856   17.4947 H   0  0  0  0  0  0  0  0  0  0  0  0
    5.6033   19.3639   20.9707 C   0  0  0  0  0  0  0  0  0  0  0  0
    5.3866   18.4356   20.3159 N   0  0  0  0  0  0  0  0  0  0  0  0
 25 26  1  0  0  0
 26 27  2  0  0  0
 27 28  1  0  0  0
 27 32  1  0  0  0
 28 29  1  0  0  0
 29 30  1  0  0  0
 29 31  2  0  0  0
 31 19  1  0  0  0
 31 32  1  0  0  0
 19 20  1  0  0  0
 19 24  2  0  0  0
 20 21  2  0  0  0
 21  1  1  0  0  0
 21 22  1  0  0  0
  1  3  1  0  0  0
  3  4  1  0  0  0
  3  9  2  0  0  0
  4  5  2  0  0  0
  5 10  1  0  0  0
  5  6  1  0  0  0
 10 13  1  0  0  0
 10 11  2  0  0  0
 10 12  2  0  0  0
 13 14  1  0  0  0
 13 18  1  0  0  0
 14 15  1  0  0  0
 15 16  1  0  0  0
 16 17  1  0  0  0
 17 18  1  0  0  0
  6  7  1  0  0  0
  6  8  2  0  0  0
  8  9  1  0  0  0
 22 23  2  0  0  0
 23 24  1  0  0  0
 24 34  1  0  0  0
 34 35  3  0  0  0
 28 33  1  0  0  0
  1  2  1  0  0  0
M  END
> <minimizedAffinity>
-8.19293

$$$$
4BCM_T7Z_A_1297


 35 38  0  0  0  0  0  0  0  0999 V2000
    6.5200   24.7117   24.9557 N   0  0  0  0  0  0  0  0  0  0  0  0
    7.4382   25.0573   25.0373 H   0  0  0  0  0  0  0  0  0  0  0  0
    5.4714   25.4308   25.6864 C   0  0  0  0  0  0  0  0  0  0  0  0
    5.3909   25.4841   27.0861 C   0  0  0  0  0  0  0  0  0  0  0  0
    4.3304   26.2112   27.7059 C   0  0  0  0  0  0  0  0  0  0  0  0
    3.3756   26.8863   26.9042 C   0  0  0  0  0  0  0  0  0  0  0  0
    2.2485   27.6683   27.4941 C   0  0  0  0  0  0  0  0  0  0  0  0
    3.4647   26.8327   25.5217 C   0  0  0  0  0  0  0  0  0  0  0  0
    4.5142   26.1038   24.9117 C   0  0  0  0  0  0  0  0  0  0  0  0
    4.2123   26.2776   29.5165 S   0  0  0  0  0  0  0  0  0  0  0  0
    5.0821   25.2921   30.1007 O   0  0  0  0  0  0  0  0  0  0  0  0
    4.5733   27.5763   30.0178 O   0  0  0  0  0  0  0  0  0  0  0  0
    2.6381   26.0187   29.8973 N   0  0  0  0  0  0  0  0  0  0  0  0
    2.3128   24.7395   29.6022 C   0  0  0  0  0  0  0  0  0  0  0  0
    0.8372   24.5286   29.7066 C   0  0  0  0  0  0  0  0  0  0  0  0
    0.3340   25.0106   30.9828 O   0  0  0  0  0  0  0  0  0  0  0  0
    0.6056   26.4406   31.0468 C   0  0  0  0  0  0  0  0  0  0  0  0
    2.0528   26.7565   30.8713 C   0  0  0  0  0  0  0  0  0  0  0  0
    5.2809   22.4686   22.3072 C   0  0  0  0  0  0  0  0  0  0  0  0
    5.4648   23.5637   23.0889 N   0  0  0  0  0  0  0  0  0  0  0  0
    6.3315   23.5460   24.1291 C   0  0  0  0  0  0  0  0  0  0  0  0
    7.0174   22.4435   24.4401 N   0  0  0  0  0  0  0  0  0  0  0  0
    6.8788   21.3157   23.7183 C   0  0  0  0  0  0  0  0  0  0  0  0
    5.9886   21.3000   22.6062 C   0  0  0  0  0  0  0  0  0  0  0  0
    0.5390   22.6281   17.8752 C   0  0  0  0  0  0  0  0  0  0  0  0
    0.7943   22.7091   19.2824 N   0  0  0  0  0  0  0  0  0  0  0  0
    2.1759   22.6752   19.7719 C   0  0  0  0  0  0  0  0  0  0  0  0
    3.3070   22.7483   18.9224 N   0  0  0  0  0  0  0  0  0  0  0  0
    4.5898   22.6867   19.7229 C   0  0  0  0  0  0  0  0  0  0  0  0
    5.9741   22.7331   19.0710 C   0  0  0  0  0  0  0  0  0  0  0  0
    4.2856   22.5815   21.1389 C   0  0  0  0  0  0  0  0  0  0  0  0
    2.6641   22.5524   21.3501 S   0  0  0  0  0  0  0  0  0  0  0  0
    3.2642   22.8285   17.9421 H   0  0  0  0  0  0  0  0  0  0  0  0
    5.8529   20.0471   21.8016 C   0  0  0  0  0  0  0  0  0  0  0  0
    5.7719   19.0708   21.1870 N   0  0  0  0  0  0  0  0  0  0  0  0
 25 26  1  0  0  0
 26 27  2  0  0  0
 27 28  1  0  0  0
 27 32  1  0  0  0
 28 29  1  0  0  0
 29 30  1  0  0  0
 29 31  2  0  0  0
 31 19  1  0  0  0
 31 32  1  0  0  0
 19 20  1  0  0  0
 19 24  2  0  0  0
 20 21  2  0  0  0
 21  1  1  0  0  0
 21 22  1  0  0  0
  1  3  1  0  0  0
  3  4  1  0  0  0
  3  9  2  0  0  0
  4  5  2  0  0  0
  5 10  1  0  0  0
  5  6  1  0  0  0
 10 13  1  0  0  0
 10 11  2  0  0  0
 10 12  2  0  0  0
 13 14  1  0  0  0
 13 18  1  0  0  0
 14 15  1  0  0  0
 15 16  1  0  0  0
 16 17  1  0  0  0
 17 18  1  0  0  0
  6  7  1  0  0  0
  6  8  2  0  0  0
  8  9  1  0  0  0
 22 23  2  0  0  0
 23 24  1  0  0  0
 24 34  1  0  0  0
 34 35  3  0  0  0
 28 33  1  0  0  0
  1  2  1  0  0  0
M  END
> <minimizedAffinity>
-8.12434

$$$$
4BCM_T7Z_A_1297


 35 38  0  0  0  0  0  0  0  0999 V2000
    4.6732   24.9133   23.2740 N   0  0  0  0  0  0  0  0  0  0  0  0
    5.0858   25.7070   22.8628 H   0  0  0  0  0  0  0  0  0  0  0  0
    5.2026   23.6057   22.8735 C   0  0  0  0  0  0  0  0  0  0  0  0
    5.1918   23.1297   21.5537 C   0  0  0  0  0  0  0  0  0  0  0  0
    5.7315   21.8405   21.2629 C   0  0  0  0  0  0  0  0  0  0  0  0
    6.2876   21.0573   22.3057 C   0  0  0  0  0  0  0  0  0  0  0  0
    6.8727   19.7051   22.0628 C   0  0  0  0  0  0  0  0  0  0  0  0
    6.2986   21.5368   23.6065 C   0  0  0  0  0  0  0  0  0  0  0  0
    5.7553   22.8130   23.8910 C   0  0  0  0  0  0  0  0  0  0  0  0
    5.7130   21.2119   19.5597 S   0  0  0  0  0  0  0  0  0  0  0  0
    5.5179   22.2990   18.6382 O   0  0  0  0  0  0  0  0  0  0  0  0
    6.9423   20.5392   19.2361 O   0  0  0  0  0  0  0  0  0  0  0  0
    4.5053   20.1052   19.4774 N   0  0  0  0  0  0  0  0  0  0  0  0
    3.3693   20.7148   19.0683 C   0  0  0  0  0  0  0  0  0  0  0  0
    2.1952   19.8014   19.2095 C   0  0  0  0  0  0  0  0  0  0  0  0
    2.4608   18.5159   18.5841 O   0  0  0  0  0  0  0  0  0  0  0  0
    3.5985   17.9219   19.2739 C   0  0  0  0  0  0  0  0  0  0  0  0
    4.8025   18.8023   19.2547 C   0  0  0  0  0  0  0  0  0  0  0  0
    2.7936   26.1461   26.1944 C   0  0  0  0  0  0  0  0  0  0  0  0
    3.7948   25.9253   25.3039 N   0  0  0  0  0  0  0  0  0  0  0  0
    3.6051   25.1448   24.2138 C   0  0  0  0  0  0  0  0  0  0  0  0
    2.4347   24.5430   23.9884 N   0  0  0  0  0  0  0  0  0  0  0  0
    1.3992   24.7052   24.8330 C   0  0  0  0  0  0  0  0  0  0  0  0
    1.5550   25.5322   25.9825 C   0  0  0  0  0  0  0  0  0  0  0  0
    3.8465   30.5982   30.8013 C   0  0  0  0  0  0  0  0  0  0  0  0
    3.0394   30.3059   29.6546 N   0  0  0  0  0  0  0  0  0  0  0  0
    3.1916   29.0184   28.9698 C   0  0  0  0  0  0  0  0  0  0  0  0
    3.9707   27.9507   29.4792 N   0  0  0  0  0  0  0  0  0  0  0  0
    3.9326   26.7599   28.5460 C   0  0  0  0  0  0  0  0  0  0  0  0
    4.6920   25.4616   28.8309 C   0  0  0  0  0  0  0  0  0  0  0  0
    3.0937   27.0565   27.3983 C   0  0  0  0  0  0  0  0  0  0  0  0
    2.5079   28.5780   27.5267 S   0  0  0  0  0  0  0  0  0  0  0  0
    4.4702   27.9795   30.3270 H   0  0  0  0  0  0  0  0  0  0  0  0
    0.3945   25.7182   26.9067 C   0  0  0  0  0  0  0  0  0  0  0  0
   -0.5184   25.8679   27.6008 N   0  0  0  0  0  0  0  0  0  0  0  0
 25 26  1  0  0  0
 26 27  2  0  0  0
 27 28  1  0  0  0
 27 32  1  0  0  0
 28 29  1  0  0  0
 29 30  1  0  0  0
 29 31  2  0  0  0
 31 19  1  0  0  0
 31 32  1  0  0  0
 19 20  1  0  0  0
 19 24  2  0  0  0
 20 21  2  0  0  0
 21  1  1  0  0  0
 21 22  1  0  0  0
  1  3  1  0  0  0
  3  4  1  0  0  0
  3  9  2  0  0  0
  4  5  2  0  0  0
  5 10  1  0  0  0
  5  6  1  0  0  0
 10 13  1  0  0  0
 10 11  2  0  0  0
 10 12  2  0  0  0
 13 14  1  0  0  0
 13 18  1  0  0  0
 14 15  1  0  0  0
 15 16  1  0  0  0
 16 17  1  0  0  0
 17 18  1  0  0  0
  6  7  1  0  0  0
  6  8  2  0  0  0
  8  9  1  0  0  0
 22 23  2  0  0  0
 23 24  1  0  0  0
 24 34  1  0  0  0
 34 35  3  0  0  0
 28 33  1  0  0  0
  1  2  1  0  0  0
M  END
> <minimizedAffinity>
-7.93657

$$$$
4BCM_T7Z_A_1297


 35 38  0  0  0  0  0  0  0  0999 V2000
    2.8444   24.7167   20.9118 N   0  0  0  0  0  0  0  0  0  0  0  0
    2.9910   25.4807   20.3084 H   0  0  0  0  0  0  0  0  0  0  0  0
    3.7672   24.5761   22.0429 C   0  0  0  0  0  0  0  0  0  0  0  0
    4.6768   23.5170   22.1819 C   0  0  0  0  0  0  0  0  0  0  0  0
    5.5354   23.4677   23.3212 C   0  0  0  0  0  0  0  0  0  0  0  0
    5.4738   24.4957   24.2956 C   0  0  0  0  0  0  0  0  0  0  0  0
    6.3504   24.5026   25.5045 C   0  0  0  0  0  0  0  0  0  0  0  0
    4.5755   25.5413   24.1486 C   0  0  0  0  0  0  0  0  0  0  0  0
    3.7208   25.5818   23.0205 C   0  0  0  0  0  0  0  0  0  0  0  0
    6.7088   22.0957   23.5147 S   0  0  0  0  0  0  0  0  0  0  0  0
    8.0421   22.6104   23.6768 O   0  0  0  0  0  0  0  0  0  0  0  0
    6.3798   21.2816   24.6536 O   0  0  0  0  0  0  0  0  0  0  0  0
    6.5648   21.1583   22.1765 N   0  0  0  0  0  0  0  0  0  0  0  0
    7.6638   21.3131   21.4035 C   0  0  0  0  0  0  0  0  0  0  0  0
    7.4704   20.6689   20.0692 C   0  0  0  0  0  0  0  0  0  0  0  0
    7.0134   19.2966   20.2178 O   0  0  0  0  0  0  0  0  0  0  0  0
    5.7298   19.3364   20.9061 C   0  0  0  0  0  0  0  0  0  0  0  0
    5.8073   20.0359   22.2213 C   0  0  0  0  0  0  0  0  0  0  0  0
    0.9116   21.8478   19.6412 C   0  0  0  0  0  0  0  0  0  0  0  0
    1.9450   22.6770   19.9388 N   0  0  0  0  0  0  0  0  0  0  0  0
    1.7428   23.8405   20.6012 C   0  0  0  0  0  0  0  0  0  0  0  0
    0.5172   24.2273   20.9630 N   0  0  0  0  0  0  0  0  0  0  0  0
   -0.5576   23.4635   20.6922 C   0  0  0  0  0  0  0  0  0  0  0  0
   -0.3835   22.2244   20.0111 C   0  0  0  0  0  0  0  0  0  0  0  0
    2.9055   16.2670   16.9892 C   0  0  0  0  0  0  0  0  0  0  0  0
    2.8803   17.0075   18.2151 N   0  0  0  0  0  0  0  0  0  0  0  0
    2.1830   18.2961   18.2697 C   0  0  0  0  0  0  0  0  0  0  0  0
    1.3650   18.7859   17.2222 N   0  0  0  0  0  0  0  0  0  0  0  0
    0.7878   20.1398   17.5743 C   0  0  0  0  0  0  0  0  0  0  0  0
   -0.1271   20.9203   16.6271 C   0  0  0  0  0  0  0  0  0  0  0  0
    1.2342   20.5399   18.8970 C   0  0  0  0  0  0  0  0  0  0  0  0
    2.2123   19.3853   19.5174 S   0  0  0  0  0  0  0  0  0  0  0  0
    1.1947   18.3093   16.3777 H   0  0  0  0  0  0  0  0  0  0  0  0
   -1.5816   21.3760   19.7281 C   0  0  0  0  0  0  0  0  0  0  0  0
   -2.5171   20.7244   19.5336 N   0  0  0  0  0  0  0  0  0  0  0  0
 25 26  1  0  0  0
 26 27  2  0  0  0
 27 28  1  0  0  0
 27 32  1  0  0  0
 28 29  1  0  0  0
 29 30  1  0  0  0
 29 31  2  0  0  0
 31 19  1  0  0  0
 31 32  1  0  0  0
 19 20  1  0  0  0
 19 24  2  0  0  0
 20 21  2  0  0  0
 21  1  1  0  0  0
 21 22  1  0  0  0
  1  3  1  0  0  0
  3  4  1  0  0  0
  3  9  2  0  0  0
  4  5  2  0  0  0
  5 10  1  0  0  0
  5  6  1  0  0  0
 10 13  1  0  0  0
 10 11  2  0  0  0
 10 12  2  0  0  0
 13 14  1  0  0  0
 13 18  1  0  0  0
 14 15  1  0  0  0
 15 16  1  0  0  0
 16 17  1  0  0  0
 17 18  1  0  0  0
  6  7  1  0  0  0
  6  8  2  0  0  0
  8  9  1  0  0  0
 22 23  2  0  0  0
 23 24  1  0  0  0
 24 34  1  0  0  0
 34 35  3  0  0  0
 28 33  1  0  0  0
  1  2  1  0  0  0
M  END
> <minimizedAffinity>
-7.88847

$$$$
4BCM_T7Z_A_1297


 35 38  0  0  0  0  0  0  0  0999 V2000
    5.4757   25.3271   24.6008 N   0  0  0  0  0  0  0  0  0  0  0  0
    5.9190   26.1086   24.1983 H   0  0  0  0  0  0  0  0  0  0  0  0
    4.8209   25.5287   25.8975 C   0  0  0  0  0  0  0  0  0  0  0  0
    3.4449   25.7556   26.0507 C   0  0  0  0  0  0  0  0  0  0  0  0
    2.9003   25.9410   27.3571 C   0  0  0  0  0  0  0  0  0  0  0  0
    3.7499   25.8796   28.4905 C   0  0  0  0  0  0  0  0  0  0  0  0
    3.2382   26.0587   29.8818 C   0  0  0  0  0  0  0  0  0  0  0  0
    5.1079   25.6503   28.3310 C   0  0  0  0  0  0  0  0  0  0  0  0
    5.6444   25.4746   27.0325 C   0  0  0  0  0  0  0  0  0  0  0  0
    1.1224   26.2450   27.5646 S   0  0  0  0  0  0  0  0  0  0  0  0
    0.4155   25.8488   26.3762 O   0  0  0  0  0  0  0  0  0  0  0  0
    0.5941   25.5182   28.6874 O   0  0  0  0  0  0  0  0  0  0  0  0
    0.9505   27.8447   27.8837 N   0  0  0  0  0  0  0  0  0  0  0  0
    0.2156   27.9982   29.0087 C   0  0  0  0  0  0  0  0  0  0  0  0
   -0.1670   29.4296   29.2026 C   0  0  0  0  0  0  0  0  0  0  0  0
    0.9979   30.2946   29.1081 O   0  0  0  0  0  0  0  0  0  0  0  0
    1.5504   30.1376   27.7691 C   0  0  0  0  0  0  0  0  0  0  0  0
    1.8907   28.7200   27.4532 C   0  0  0  0  0  0  0  0  0  0  0  0
    4.8158   22.7459   22.0547 C   0  0  0  0  0  0  0  0  0  0  0  0
    4.7704   23.9082   22.7554 N   0  0  0  0  0  0  0  0  0  0  0  0
    5.5307   24.0914   23.8608 C   0  0  0  0  0  0  0  0  0  0  0  0
    6.3332   23.1266   24.3169 N   0  0  0  0  0  0  0  0  0  0  0  0
    6.4223   21.9430   23.6820 C   0  0  0  0  0  0  0  0  0  0  0  0
    5.6502   21.7183   22.5060 C   0  0  0  0  0  0  0  0  0  0  0  0
    0.5269   21.9009   17.2541 C   0  0  0  0  0  0  0  0  0  0  0  0
    0.6374   22.1245   18.6647 N   0  0  0  0  0  0  0  0  0  0  0  0
    1.9598   22.3216   19.2663 C   0  0  0  0  0  0  0  0  0  0  0  0
    3.1452   22.4866   18.5087 N   0  0  0  0  0  0  0  0  0  0  0  0
    4.3450   22.6664   19.4134 C   0  0  0  0  0  0  0  0  0  0  0  0
    5.7655   22.8556   18.8751 C   0  0  0  0  0  0  0  0  0  0  0  0
    3.9271   22.6287   20.8037 C   0  0  0  0  0  0  0  0  0  0  0  0
    2.3113   22.3897   20.8836 S   0  0  0  0  0  0  0  0  0  0  0  0
    3.1835   22.4846   17.5249 H   0  0  0  0  0  0  0  0  0  0  0  0
    5.7674   20.4060   21.7994 C   0  0  0  0  0  0  0  0  0  0  0  0
    5.8471   19.3790   21.2736 N   0  0  0  0  0  0  0  0  0  0  0  0
 25 26  1  0  0  0
 26 27  2  0  0  0
 27 28  1  0  0  0
 27 32  1  0  0  0
 28 29  1  0  0  0
 29 30  1  0  0  0
 29 31  2  0  0  0
 31 19  1  0  0  0
 31 32  1  0  0  0
 19 20  1  0  0  0
 19 24  2  0  0  0
 20 21  2  0  0  0
 21  1  1  0  0  0
 21 22  1  0  0  0
  1  3  1  0  0  0
  3  4  1  0  0  0
  3  9  2  0  0  0
  4  5  2  0  0  0
  5 10  1  0  0  0
  5  6  1  0  0  0
 10 13  1  0  0  0
 10 11  2  0  0  0
 10 12  2  0  0  0
 13 14  1  0  0  0
 13 18  1  0  0  0
 14 15  1  0  0  0
 15 16  1  0  0  0
 16 17  1  0  0  0
 17 18  1  0  0  0
  6  7  1  0  0  0
  6  8  2  0  0  0
  8  9  1  0  0  0
 22 23  2  0  0  0
 23 24  1  0  0  0
 24 34  1  0  0  0
 34 35  3  0  0  0
 28 33  1  0  0  0
  1  2  1  0  0  0
M  END
> <minimizedAffinity>
-7.83428

$$$$
4BCM_T7Z_A_1297


 35 38  0  0  0  0  0  0  0  0999 V2000
    4.0624   23.1697   19.9194 N   0  0  0  0  0  0  0  0  0  0  0  0
    4.4605   23.7490   19.2301 H   0  0  0  0  0  0  0  0  0  0  0  0
    4.8752   22.8967   21.1091 C   0  0  0  0  0  0  0  0  0  0  0  0
    5.9518   21.9973   21.1300 C   0  0  0  0  0  0  0  0  0  0  0  0
    6.6836   21.7990   22.3395 C   0  0  0  0  0  0  0  0  0  0  0  0
    6.3277   22.5223   23.5058 C   0  0  0  0  0  0  0  0  0  0  0  0
    7.0592   22.3628   24.7978 C   0  0  0  0  0  0  0  0  0  0  0  0
    5.2654   23.4126   23.4757 C   0  0  0  0  0  0  0  0  0  0  0  0
    4.5379   23.6002   22.2756 C   0  0  0  0  0  0  0  0  0  0  0  0
    8.0723   20.6298   22.3788 S   0  0  0  0  0  0  0  0  0  0  0  0
    9.2629   21.2981   22.8313 O   0  0  0  0  0  0  0  0  0  0  0  0
    7.7982   19.5201   23.2515 O   0  0  0  0  0  0  0  0  0  0  0  0
    8.2342   20.0370   20.8581 N   0  0  0  0  0  0  0  0  0  0  0  0
    9.4839   20.2951   20.4099 C   0  0  0  0  0  0  0  0  0  0  0  0
    9.5995   19.9893   18.9518 C   0  0  0  0  0  0  0  0  0  0  0  0
    9.1082   18.6517   18.6625 O   0  0  0  0  0  0  0  0  0  0  0  0
    7.7004   18.6139   19.0360 C   0  0  0  0  0  0  0  0  0  0  0  0
    7.4769   18.9853   20.4633 C   0  0  0  0  0  0  0  0  0  0  0  0
    0.3960   22.8016   19.9734 C   0  0  0  0  0  0  0  0  0  0  0  0
    1.6492   23.2694   20.2071 N   0  0  0  0  0  0  0  0  0  0  0  0
    2.7350   22.6687   19.6651 C   0  0  0  0  0  0  0  0  0  0  0  0
    2.6150   21.5795   18.9023 N   0  0  0  0  0  0  0  0  0  0  0  0
    1.4060   21.0510   18.6359 C   0  0  0  0  0  0  0  0  0  0  0  0
    0.2386   21.6643   19.1748 C   0  0  0  0  0  0  0  0  0  0  0  0
   -4.2779   26.6313   22.3487 C   0  0  0  0  0  0  0  0  0  0  0  0
   -3.3969   26.4575   21.2327 N   0  0  0  0  0  0  0  0  0  0  0  0
   -2.5184   25.2849   21.1780 C   0  0  0  0  0  0  0  0  0  0  0  0
   -2.6092   24.1987   22.0826 N   0  0  0  0  0  0  0  0  0  0  0  0
   -1.5678   23.1460   21.7704 C   0  0  0  0  0  0  0  0  0  0  0  0
   -1.4194   21.8613   22.5895 C   0  0  0  0  0  0  0  0  0  0  0  0
   -0.7812   23.5533   20.6197 C   0  0  0  0  0  0  0  0  0  0  0  0
   -1.2994   25.0113   20.0903 S   0  0  0  0  0  0  0  0  0  0  0  0
   -3.2625   24.1369   22.8165 H   0  0  0  0  0  0  0  0  0  0  0  0
   -1.1008   21.0788   18.8610 C   0  0  0  0  0  0  0  0  0  0  0  0
   -2.1308   20.6263   18.5926 N   0  0  0  0  0  0  0  0  0  0  0  0
 25 26  1  0  0  0
 26 27  2  0  0  0
 27 28  1  0  0  0
 27 32  1  0  0  0
 28 29  1  0  0  0
 29 30  1  0  0  0
 29 31  2  0  0  0
 31 19  1  0  0  0
 31 32  1  0  0  0
 19 20  1  0  0  0
 19 24  2  0  0  0
 20 21  2  0  0  0
 21  1  1  0  0  0
 21 22  1  0  0  0
  1  3  1  0  0  0
  3  4  1  0  0  0
  3  9  2  0  0  0
  4  5  2  0  0  0
  5 10  1  0  0  0
  5  6  1  0  0  0
 10 13  1  0  0  0
 10 11  2  0  0  0
 10 12  2  0  0  0
 13 14  1  0  0  0
 13 18  1  0  0  0
 14 15  1  0  0  0
 15 16  1  0  0  0
 16 17  1  0  0  0
 17 18  1  0  0  0
  6  7  1  0  0  0
  6  8  2  0  0  0
  8  9  1  0  0  0
 22 23  2  0  0  0
 23 24  1  0  0  0
 24 34  1  0  0  0
 34 35  3  0  0  0
 28 33  1  0  0  0
  1  2  1  0  0  0
M  END
> <minimizedAffinity>
-7.81146

$$$$
4BCM_T7Z_A_1297


 35 38  0  0  0  0  0  0  0  0999 V2000
    3.5091   19.3571   20.6029 N   0  0  0  0  0  0  0  0  0  0  0  0
    3.1394   18.4647   20.7932 H   0  0  0  0  0  0  0  0  0  0  0  0
    4.9674   19.4626   20.4904 C   0  0  0  0  0  0  0  0  0  0  0  0
    5.8048   19.8654   21.5416 C   0  0  0  0  0  0  0  0  0  0  0  0
    7.2152   19.9373   21.3339 C   0  0  0  0  0  0  0  0  0  0  0  0
    7.7610   19.5871   20.0731 C   0  0  0  0  0  0  0  0  0  0  0  0
    9.2278   19.6357   19.7974 C   0  0  0  0  0  0  0  0  0  0  0  0
    6.9273   19.1856   19.0408 C   0  0  0  0  0  0  0  0  0  0  0  0
    5.5282   19.1231   19.2497 C   0  0  0  0  0  0  0  0  0  0  0  0
    8.3059   20.4671   22.6853 S   0  0  0  0  0  0  0  0  0  0  0  0
    8.5269   19.3741   23.5938 O   0  0  0  0  0  0  0  0  0  0  0  0
    9.5746   20.9243   22.1860 O   0  0  0  0  0  0  0  0  0  0  0  0
    7.5715   21.7399   23.4140 N   0  0  0  0  0  0  0  0  0  0  0  0
    8.4801   22.4141   24.1551 C   0  0  0  0  0  0  0  0  0  0  0  0
    7.8104   23.4311   25.0211 C   0  0  0  0  0  0  0  0  0  0  0  0
    6.9142   24.2677   24.2394 O   0  0  0  0  0  0  0  0  0  0  0  0
    5.8940   23.3988   23.6676 C   0  0  0  0  0  0  0  0  0  0  0  0
    6.4752   22.2976   22.8462 C   0  0  0  0  0  0  0  0  0  0  0  0
    1.6807   22.5008   21.1991 C   0  0  0  0  0  0  0  0  0  0  0  0
    2.5671   21.4798   21.3260 N   0  0  0  0  0  0  0  0  0  0  0  0
    2.5665   20.4383   20.4607 C   0  0  0  0  0  0  0  0  0  0  0  0
    1.6778   20.3642   19.4670 N   0  0  0  0  0  0  0  0  0  0  0  0
    0.7608   21.3328   19.2851 C   0  0  0  0  0  0  0  0  0  0  0  0
    0.7402   22.4529   20.1652 C   0  0  0  0  0  0  0  0  0  0  0  0
    2.7844   27.4281   25.2804 C   0  0  0  0  0  0  0  0  0  0  0  0
    3.1685   26.8836   24.0124 N   0  0  0  0  0  0  0  0  0  0  0  0
    2.4963   25.6835   23.5049 C   0  0  0  0  0  0  0  0  0  0  0  0
    1.3486   25.1165   24.1111 N   0  0  0  0  0  0  0  0  0  0  0  0
    0.8911   23.8859   23.3584 C   0  0  0  0  0  0  0  0  0  0  0  0
   -0.3209   23.0560   23.7893 C   0  0  0  0  0  0  0  0  0  0  0  0
    1.7609   23.6499   22.2197 C   0  0  0  0  0  0  0  0  0  0  0  0
    2.9287   24.7940   22.1761 S   0  0  0  0  0  0  0  0  0  0  0  0
    0.9073   25.4750   24.9149 H   0  0  0  0  0  0  0  0  0  0  0  0
   -0.2725   23.5308   19.9460 C   0  0  0  0  0  0  0  0  0  0  0  0
   -1.0707   24.3539   19.7952 N   0  0  0  0  0  0  0  0  0  0  0  0
 25 26  1  0  0  0
 26 27  2  0  0  0
 27 28  1  0  0  0
 27 32  1  0  0  0
 28 29  1  0  0  0
 29 30  1  0  0  0
 29 31  2  0  0  0
 31 19  1  0  0  0
 31 32  1  0  0  0
 19 20  1  0  0  0
 19 24  2  0  0  0
 20 21  2  0  0  0
 21  1  1  0  0  0
 21 22  1  0  0  0
  1  3  1  0  0  0
  3  4  1  0  0  0
  3  9  2  0  0  0
  4  5  2  0  0  0
  5 10  1  0  0  0
  5  6  1  0  0  0
 10 13  1  0  0  0
 10 11  2  0  0  0
 10 12  2  0  0  0
 13 14  1  0  0  0
 13 18  1  0  0  0
 14 15  1  0  0  0
 15 16  1  0  0  0
 16 17  1  0  0  0
 17 18  1  0  0  0
  6  7  1  0  0  0
  6  8  2  0  0  0
  8  9  1  0  0  0
 22 23  2  0  0  0
 23 24  1  0  0  0
 24 34  1  0  0  0
 34 35  3  0  0  0
 28 33  1  0  0  0
  1  2  1  0  0  0
M  END
> <minimizedAffinity>
-7.77528

$$$$
