1S89_PGA_A_201


 12 11  0  0  0  0  0  0  0  0999 V2000
   84.7944  -12.6148   66.2266 P   0  0  0  0  0  0  0  0  0  0  0  0
   85.1746  -11.1999   66.0664 O   0  0  0  0  0  0  0  0  0  0  0  0
   83.8994  -13.1961   65.1719 O   0  0  0  0  0  0  0  0  0  0  0  0
   84.3989  -12.9810   67.6067 O   0  0  0  0  0  0  0  0  0  0  0  0
   84.2108  -12.9202   64.2956 H   0  0  0  0  0  0  0  0  0  0  0  0
   85.0142  -12.5758   68.2376 H   0  0  0  0  0  0  0  0  0  0  0  0
   86.1878  -13.3669   65.9530 O   0  0  0  0  0  0  0  0  0  0  0  0
   86.2542  -14.7596   66.1393 C   0  0  0  0  0  0  0  0  0  0  0  0
   86.5776  -15.4751   64.8507 C   0  0  0  0  0  0  0  0  0  0  0  0
   85.7046  -15.4906   63.9541 O   0  0  0  0  0  0  0  0  0  0  0  0
   87.7030  -16.0243   64.7295 O   0  0  0  0  0  0  0  0  0  0  0  0
   88.3221  -15.9838   65.4316 H   0  0  0  0  0  0  0  0  0  0  0  0
  1  7  1  0  0  0
  1  2  2  0  0  0
  1  3  1  0  0  0
  1  4  1  0  0  0
  7  8  1  0  0  0
  8  9  1  0  0  0
  9 10  2  0  0  0
  9 11  1  0  0  0
  3  5  1  0  0  0
  4  6  1  0  0  0
 11 12  1  0  0  0
M  END
> <minimizedAffinity>
-6.66026

$$$$
1S89_PGA_A_201


 12 11  0  0  0  0  0  0  0  0999 V2000
   84.9743  -12.5591   66.2637 P   0  0  0  0  0  0  0  0  0  0  0  0
   86.1707  -13.3957   66.0616 O   0  0  0  0  0  0  0  0  0  0  0  0
   85.1361  -11.0848   66.0357 O   0  0  0  0  0  0  0  0  0  0  0  0
   84.2072  -12.8884   67.4877 O   0  0  0  0  0  0  0  0  0  0  0  0
   85.6445  -10.9373   65.2229 H   0  0  0  0  0  0  0  0  0  0  0  0
   84.1388  -13.8519   67.5769 H   0  0  0  0  0  0  0  0  0  0  0  0
   84.0462  -13.0018   65.0290 O   0  0  0  0  0  0  0  0  0  0  0  0
   84.2633  -14.2580   64.4343 C   0  0  0  0  0  0  0  0  0  0  0  0
   83.0138  -15.1038   64.4564 C   0  0  0  0  0  0  0  0  0  0  0  0
   82.9143  -15.9788   65.3455 O   0  0  0  0  0  0  0  0  0  0  0  0
   82.1284  -14.8980   63.5866 O   0  0  0  0  0  0  0  0  0  0  0  0
   82.2516  -14.2295   62.9416 H   0  0  0  0  0  0  0  0  0  0  0  0
  1  7  1  0  0  0
  1  2  2  0  0  0
  1  3  1  0  0  0
  1  4  1  0  0  0
  7  8  1  0  0  0
  8  9  1  0  0  0
  9 10  2  0  0  0
  9 11  1  0  0  0
  3  5  1  0  0  0
  4  6  1  0  0  0
 11 12  1  0  0  0
M  END
> <minimizedAffinity>
-6.14149

$$$$
1S89_PGA_A_201


 12 11  0  0  0  0  0  0  0  0999 V2000
   83.3496  -15.2767   64.2121 P   0  0  0  0  0  0  0  0  0  0  0  0
   82.6511  -14.4187   63.2384 O   0  0  0  0  0  0  0  0  0  0  0  0
   84.7530  -15.6820   63.8689 O   0  0  0  0  0  0  0  0  0  0  0  0
   82.5238  -16.3887   64.7382 O   0  0  0  0  0  0  0  0  0  0  0  0
   85.2384  -14.9128   63.5319 H   0  0  0  0  0  0  0  0  0  0  0  0
   81.6328  -16.0625   64.9396 H   0  0  0  0  0  0  0  0  0  0  0  0
   83.5703  -14.2699   65.4447 O   0  0  0  0  0  0  0  0  0  0  0  0
   84.8638  -13.7760   65.6932 C   0  0  0  0  0  0  0  0  0  0  0  0
   84.8209  -12.4524   66.4166 C   0  0  0  0  0  0  0  0  0  0  0  0
   84.7787  -12.4693   67.6672 O   0  0  0  0  0  0  0  0  0  0  0  0
   84.8286  -11.3922   65.7393 O   0  0  0  0  0  0  0  0  0  0  0  0
   84.8610  -11.4341   64.8038 H   0  0  0  0  0  0  0  0  0  0  0  0
  1  7  1  0  0  0
  1  2  2  0  0  0
  1  3  1  0  0  0
  1  4  1  0  0  0
  7  8  1  0  0  0
  8  9  1  0  0  0
  9 10  2  0  0  0
  9 11  1  0  0  0
  3  5  1  0  0  0
  4  6  1  0  0  0
 11 12  1  0  0  0
M  END
> <minimizedAffinity>
-5.98523

$$$$
1S89_PGA_A_201


 12 11  0  0  0  0  0  0  0  0999 V2000
   84.9149  -12.7619   66.3239 P   0  0  0  0  0  0  0  0  0  0  0  0
   84.4470  -12.7601   67.7215 O   0  0  0  0  0  0  0  0  0  0  0  0
   86.2810  -13.3288   66.0709 O   0  0  0  0  0  0  0  0  0  0  0  0
   84.6554  -11.4961   65.5989 O   0  0  0  0  0  0  0  0  0  0  0  0
   86.3870  -14.1526   66.5719 H   0  0  0  0  0  0  0  0  0  0  0  0
   83.7603  -11.1837   65.8041 H   0  0  0  0  0  0  0  0  0  0  0  0
   83.9532  -13.8600   65.6523 O   0  0  0  0  0  0  0  0  0  0  0  0
   84.5345  -14.9716   65.0157 C   0  0  0  0  0  0  0  0  0  0  0  0
   83.4849  -15.8970   64.4510 C   0  0  0  0  0  0  0  0  0  0  0  0
   82.4190  -16.0347   65.0923 O   0  0  0  0  0  0  0  0  0  0  0  0
   83.7209  -16.4896   63.3666 O   0  0  0  0  0  0  0  0  0  0  0  0
   84.5359  -16.3520   62.9252 H   0  0  0  0  0  0  0  0  0  0  0  0
  1  7  1  0  0  0
  1  2  2  0  0  0
  1  3  1  0  0  0
  1  4  1  0  0  0
  7  8  1  0  0  0
  8  9  1  0  0  0
  9 10  2  0  0  0
  9 11  1  0  0  0
  3  5  1  0  0  0
  4  6  1  0  0  0
 11 12  1  0  0  0
M  END
> <minimizedAffinity>
-5.95569

$$$$
1S89_PGA_A_201


 12 11  0  0  0  0  0  0  0  0999 V2000
   84.8417  -12.8115   66.2898 P   0  0  0  0  0  0  0  0  0  0  0  0
   84.7026  -11.4867   65.6593 O   0  0  0  0  0  0  0  0  0  0  0  0
   84.3600  -12.9386   67.7052 O   0  0  0  0  0  0  0  0  0  0  0  0
   86.1521  -13.4597   66.0497 O   0  0  0  0  0  0  0  0  0  0  0  0
   83.5018  -12.4957   67.7957 H   0  0  0  0  0  0  0  0  0  0  0  0
   86.4056  -13.3422   65.1208 H   0  0  0  0  0  0  0  0  0  0  0  0
   83.7635  -13.6820   65.4764 O   0  0  0  0  0  0  0  0  0  0  0  0
   84.1135  -14.9803   65.0630 C   0  0  0  0  0  0  0  0  0  0  0  0
   83.2996  -15.4191   63.8705 C   0  0  0  0  0  0  0  0  0  0  0  0
   83.8592  -16.1367   63.0113 O   0  0  0  0  0  0  0  0  0  0  0  0
   82.1001  -15.0488   63.7871 O   0  0  0  0  0  0  0  0  0  0  0  0
   81.7281  -14.5111   64.4583 H   0  0  0  0  0  0  0  0  0  0  0  0
  1  7  1  0  0  0
  1  2  2  0  0  0
  1  3  1  0  0  0
  1  4  1  0  0  0
  7  8  1  0  0  0
  8  9  1  0  0  0
  9 10  2  0  0  0
  9 11  1  0  0  0
  3  5  1  0  0  0
  4  6  1  0  0  0
 11 12  1  0  0  0
M  END
> <minimizedAffinity>
-5.94814

$$$$
1S89_PGA_A_201


 12 11  0  0  0  0  0  0  0  0999 V2000
   83.2189  -15.1884   64.0797 P   0  0  0  0  0  0  0  0  0  0  0  0
   82.8051  -15.8062   65.3522 O   0  0  0  0  0  0  0  0  0  0  0  0
   82.1273  -14.8545   63.1058 O   0  0  0  0  0  0  0  0  0  0  0  0
   84.3968  -15.8313   63.4517 O   0  0  0  0  0  0  0  0  0  0  0  0
   81.3891  -14.4384   63.5778 H   0  0  0  0  0  0  0  0  0  0  0  0
   85.0626  -16.0205   64.1312 H   0  0  0  0  0  0  0  0  0  0  0  0
   83.7125  -13.7365   64.5596 O   0  0  0  0  0  0  0  0  0  0  0  0
   84.8434  -13.6458   65.3913 C   0  0  0  0  0  0  0  0  0  0  0  0
   84.7272  -12.4938   66.3590 C   0  0  0  0  0  0  0  0  0  0  0  0
   84.9758  -11.3436   65.9332 O   0  0  0  0  0  0  0  0  0  0  0  0
   84.3884  -12.7332   67.5467 O   0  0  0  0  0  0  0  0  0  0  0  0
   84.2131  -13.6136   67.8156 H   0  0  0  0  0  0  0  0  0  0  0  0
  1  7  1  0  0  0
  1  2  2  0  0  0
  1  3  1  0  0  0
  1  4  1  0  0  0
  7  8  1  0  0  0
  8  9  1  0  0  0
  9 10  2  0  0  0
  9 11  1  0  0  0
  3  5  1  0  0  0
  4  6  1  0  0  0
 11 12  1  0  0  0
M  END
> <minimizedAffinity>
-5.91569

$$$$
1S89_PGA_A_201


 12 11  0  0  0  0  0  0  0  0999 V2000
   85.4266  -15.2245   65.0257 P   0  0  0  0  0  0  0  0  0  0  0  0
   86.6569  -15.2501   65.8369 O   0  0  0  0  0  0  0  0  0  0  0  0
   84.1441  -15.5451   65.7355 O   0  0  0  0  0  0  0  0  0  0  0  0
   85.5578  -15.8916   63.7093 O   0  0  0  0  0  0  0  0  0  0  0  0
   84.1204  -15.0797   66.5863 H   0  0  0  0  0  0  0  0  0  0  0  0
   86.4039  -15.6444   63.3044 H   0  0  0  0  0  0  0  0  0  0  0  0
   85.2675  -13.6567   64.7117 O   0  0  0  0  0  0  0  0  0  0  0  0
   84.2901  -12.9220   65.4073 C   0  0  0  0  0  0  0  0  0  0  0  0
   84.8885  -12.1663   66.5682 C   0  0  0  0  0  0  0  0  0  0  0  0
   85.5027  -11.1041   66.3218 O   0  0  0  0  0  0  0  0  0  0  0  0
   84.7481  -12.6304   67.7291 O   0  0  0  0  0  0  0  0  0  0  0  0
   84.2787  -13.4307   67.8602 H   0  0  0  0  0  0  0  0  0  0  0  0
  1  7  1  0  0  0
  1  2  2  0  0  0
  1  3  1  0  0  0
  1  4  1  0  0  0
  7  8  1  0  0  0
  8  9  1  0  0  0
  9 10  2  0  0  0
  9 11  1  0  0  0
  3  5  1  0  0  0
  4  6  1  0  0  0
 11 12  1  0  0  0
M  END
> <minimizedAffinity>
-5.86042

$$$$
1S89_PGA_A_201


 12 11  0  0  0  0  0  0  0  0999 V2000
   84.8475  -13.6206   65.8867 P   0  0  0  0  0  0  0  0  0  0  0  0
   85.8742  -14.5825   65.4474 O   0  0  0  0  0  0  0  0  0  0  0  0
   84.8018  -12.3063   65.1643 O   0  0  0  0  0  0  0  0  0  0  0  0
   84.7311  -13.4921   67.3581 O   0  0  0  0  0  0  0  0  0  0  0  0
   84.8825  -12.4590   64.2098 H   0  0  0  0  0  0  0  0  0  0  0  0
   84.7674  -14.3726   67.7634 H   0  0  0  0  0  0  0  0  0  0  0  0
   83.4929  -14.3332   65.3977 O   0  0  0  0  0  0  0  0  0  0  0  0
   83.3762  -14.7137   64.0484 C   0  0  0  0  0  0  0  0  0  0  0  0
   83.5498  -16.2028   63.8768 C   0  0  0  0  0  0  0  0  0  0  0  0
   82.6819  -16.9551   64.3738 O   0  0  0  0  0  0  0  0  0  0  0  0
   84.5528  -16.6264   63.2464 O   0  0  0  0  0  0  0  0  0  0  0  0
   85.1744  -16.0206   62.8934 H   0  0  0  0  0  0  0  0  0  0  0  0
  1  7  1  0  0  0
  1  2  2  0  0  0
  1  3  1  0  0  0
  1  4  1  0  0  0
  7  8  1  0  0  0
  8  9  1  0  0  0
  9 10  2  0  0  0
  9 11  1  0  0  0
  3  5  1  0  0  0
  4  6  1  0  0  0
 11 12  1  0  0  0
M  END
> <minimizedAffinity>
-5.10038

$$$$
1S89_PGA_A_201


 12 11  0  0  0  0  0  0  0  0999 V2000
   86.5355  -15.1440   65.5531 P   0  0  0  0  0  0  0  0  0  0  0  0
   87.4853  -15.8714   64.6924 O   0  0  0  0  0  0  0  0  0  0  0  0
   86.9466  -13.7726   66.0023 O   0  0  0  0  0  0  0  0  0  0  0  0
   85.9457  -15.9690   66.6331 O   0  0  0  0  0  0  0  0  0  0  0  0
   87.3231  -13.2860   65.2524 H   0  0  0  0  0  0  0  0  0  0  0  0
   85.7024  -16.8388   66.2794 H   0  0  0  0  0  0  0  0  0  0  0  0
   85.3348  -14.8299   64.5324 O   0  0  0  0  0  0  0  0  0  0  0  0
   84.5222  -15.8914   64.0947 C   0  0  0  0  0  0  0  0  0  0  0  0
   83.1222  -15.7800   64.6465 C   0  0  0  0  0  0  0  0  0  0  0  0
   82.3512  -16.7532   64.4891 O   0  0  0  0  0  0  0  0  0  0  0  0
   82.7873  -14.7213   65.2379 O   0  0  0  0  0  0  0  0  0  0  0  0
   83.4031  -14.0209   65.3294 H   0  0  0  0  0  0  0  0  0  0  0  0
  1  7  1  0  0  0
  1  2  2  0  0  0
  1  3  1  0  0  0
  1  4  1  0  0  0
  7  8  1  0  0  0
  8  9  1  0  0  0
  9 10  2  0  0  0
  9 11  1  0  0  0
  3  5  1  0  0  0
  4  6  1  0  0  0
 11 12  1  0  0  0
M  END
> <minimizedAffinity>
-4.96750

$$$$
1S89_PGA_A_201


 12 11  0  0  0  0  0  0  0  0999 V2000
   85.3432  -14.9759   65.1959 P   0  0  0  0  0  0  0  0  0  0  0  0
   85.1230  -13.5304   65.0113 O   0  0  0  0  0  0  0  0  0  0  0  0
   85.9892  -15.4007   66.4819 O   0  0  0  0  0  0  0  0  0  0  0  0
   85.8937  -15.6599   64.0024 O   0  0  0  0  0  0  0  0  0  0  0  0
   85.5860  -14.9188   67.2209 H   0  0  0  0  0  0  0  0  0  0  0  0
   85.4361  -15.3425   63.2082 H   0  0  0  0  0  0  0  0  0  0  0  0
   83.8417  -15.5226   65.3641 O   0  0  0  0  0  0  0  0  0  0  0  0
   83.0314  -15.6410   64.2204 C   0  0  0  0  0  0  0  0  0  0  0  0
   82.8589  -17.0833   63.8117 C   0  0  0  0  0  0  0  0  0  0  0  0
   83.7041  -17.5763   63.0314 O   0  0  0  0  0  0  0  0  0  0  0  0
   81.8796  -17.7284   64.2674 O   0  0  0  0  0  0  0  0  0  0  0  0
   81.2744  -17.3123   64.8493 H   0  0  0  0  0  0  0  0  0  0  0  0
  1  7  1  0  0  0
  1  2  2  0  0  0
  1  3  1  0  0  0
  1  4  1  0  0  0
  7  8  1  0  0  0
  8  9  1  0  0  0
  9 10  2  0  0  0
  9 11  1  0  0  0
  3  5  1  0  0  0
  4  6  1  0  0  0
 11 12  1  0  0  0
M  END
> <minimizedAffinity>
-4.73102

$$$$
