4E0X_KAI_A_301


 18 18  0  0  0  0  0  0  0  0999 V2000
   -0.7901   33.8955  104.9177 N   0  0  0  0  0  0  0  0  0  0  0  0
    0.0129   33.6169  103.6916 C   0  0  0  0  0  0  0  0  0  0  0  0
   -1.9814   34.7783  104.5274 C   0  0  0  0  0  0  0  0  0  0  0  0
   -1.5668   35.3671  103.1609 C   0  0  0  0  0  0  0  0  0  0  0  0
   -0.8053   34.1756  102.5212 C   0  0  0  0  0  0  0  0  0  0  0  0
   -0.2127   34.3805  105.6046 H   0  0  0  0  0  0  0  0  0  0  0  0
   -3.2997   33.9228  104.4780 C   0  0  0  0  0  0  0  0  0  0  0  0
   -4.1510   34.3656  103.6441 O   0  0  0  0  0  0  0  0  0  0  0  0
   -3.4060   32.9186  105.2343 O   0  0  0  0  0  0  0  0  0  0  0  0
   -2.7039   32.6900  105.8111 H   0  0  0  0  0  0  0  0  0  0  0  0
    1.4751   34.2470  101.3325 C   0  0  0  0  0  0  0  0  0  0  0  0
   -0.5968   34.9732  100.1377 C   0  0  0  0  0  0  0  0  0  0  0  0
   -0.0203   34.4982  101.2628 C   0  0  0  0  0  0  0  0  0  0  0  0
   -0.6846   36.6300  103.2884 C   0  0  0  0  0  0  0  0  0  0  0  0
   -1.4151   37.9405  103.5616 C   0  0  0  0  0  0  0  0  0  0  0  0
   -1.8950   38.0414  104.7351 O   0  0  0  0  0  0  0  0  0  0  0  0
   -1.4925   38.7908  102.6236 O   0  0  0  0  0  0  0  0  0  0  0  0
   -1.7762   37.3456  105.3512 H   0  0  0  0  0  0  0  0  0  0  0  0
  1  2  1  0  0  0
  1  3  1  0  0  0
  2  5  1  0  0  0
 11 13  2  0  0  0
 12 13  1  0  0  0
  3  4  1  0  0  0
  3  7  1  0  0  0
  4 14  1  0  0  0
  4  5  1  0  0  0
 14 15  1  0  0  0
  5 13  1  0  0  0
 15 16  1  0  0  0
 15 17  2  0  0  0
  7  8  2  0  0  0
  7  9  1  0  0  0
  1  6  1  0  0  0
 16 18  1  0  0  0
  9 10  1  0  0  0
M  END
> <minimizedAffinity>
-8.19090

$$$$
4E0X_KAI_A_301


 18 18  0  0  0  0  0  0  0  0999 V2000
    1.9034   34.4102  101.5721 N   0  0  0  0  0  0  0  0  0  0  0  0
    0.5301   34.2762  101.0047 C   0  0  0  0  0  0  0  0  0  0  0  0
    1.7832   34.8653  103.0313 C   0  0  0  0  0  0  0  0  0  0  0  0
    0.3483   35.4300  103.1202 C   0  0  0  0  0  0  0  0  0  0  0  0
   -0.4296   34.4655  102.1856 C   0  0  0  0  0  0  0  0  0  0  0  0
    2.4305   35.1012  101.0382 H   0  0  0  0  0  0  0  0  0  0  0  0
    2.0531   33.6582  104.0019 C   0  0  0  0  0  0  0  0  0  0  0  0
    3.1671   33.0845  103.7872 O   0  0  0  0  0  0  0  0  0  0  0  0
    1.1855   33.3653  104.8699 O   0  0  0  0  0  0  0  0  0  0  0  0
    0.3965   33.8670  104.9316 H   0  0  0  0  0  0  0  0  0  0  0  0
   -2.8599   34.8259  102.9485 C   0  0  0  0  0  0  0  0  0  0  0  0
   -2.1871   35.3237  100.5933 C   0  0  0  0  0  0  0  0  0  0  0  0
   -1.8402   34.8955  101.8263 C   0  0  0  0  0  0  0  0  0  0  0  0
    0.2479   36.9030  102.6622 C   0  0  0  0  0  0  0  0  0  0  0  0
   -0.1133   37.9224  103.7375 C   0  0  0  0  0  0  0  0  0  0  0  0
    0.8556   38.6538  104.1167 O   0  0  0  0  0  0  0  0  0  0  0  0
   -1.3086   37.9494  104.1610 O   0  0  0  0  0  0  0  0  0  0  0  0
    1.7028   38.5459  103.7313 H   0  0  0  0  0  0  0  0  0  0  0  0
  1  2  1  0  0  0
  1  3  1  0  0  0
  2  5  1  0  0  0
 11 13  2  0  0  0
 12 13  1  0  0  0
  3  4  1  0  0  0
  3  7  1  0  0  0
  4 14  1  0  0  0
  4  5  1  0  0  0
 14 15  1  0  0  0
  5 13  1  0  0  0
 15 16  1  0  0  0
 15 17  2  0  0  0
  7  8  2  0  0  0
  7  9  1  0  0  0
  1  6  1  0  0  0
 16 18  1  0  0  0
  9 10  1  0  0  0
M  END
> <minimizedAffinity>
-7.78215

$$$$
4E0X_KAI_A_301


 18 18  0  0  0  0  0  0  0  0999 V2000
   -0.2852   38.2478  103.8501 N   0  0  0  0  0  0  0  0  0  0  0  0
   -1.2952   37.3815  103.1754 C   0  0  0  0  0  0  0  0  0  0  0  0
    1.0450   38.1178  103.0988 C   0  0  0  0  0  0  0  0  0  0  0  0
    0.8793   36.8144  102.2867 C   0  0  0  0  0  0  0  0  0  0  0  0
   -0.6211   36.8746  101.8947 C   0  0  0  0  0  0  0  0  0  0  0  0
   -0.1651   37.9473  104.8174 H   0  0  0  0  0  0  0  0  0  0  0  0
    1.2963   39.3920  102.2124 C   0  0  0  0  0  0  0  0  0  0  0  0
    2.4424   39.3992  101.6624 O   0  0  0  0  0  0  0  0  0  0  0  0
    0.3895   40.2649  102.1249 O   0  0  0  0  0  0  0  0  0  0  0  0
   -0.4204   40.1464  102.5810 H   0  0  0  0  0  0  0  0  0  0  0  0
   -2.3198   34.9533  102.0988 C   0  0  0  0  0  0  0  0  0  0  0  0
   -0.7592   35.0594  100.1493 C   0  0  0  0  0  0  0  0  0  0  0  0
   -1.1974   35.5994  101.3069 C   0  0  0  0  0  0  0  0  0  0  0  0
    1.2254   35.5463  103.1001 C   0  0  0  0  0  0  0  0  0  0  0  0
    2.6662   35.4265  103.5856 C   0  0  0  0  0  0  0  0  0  0  0  0
    2.7854   35.0393  104.7912 O   0  0  0  0  0  0  0  0  0  0  0  0
    3.5978   35.7242  102.7780 O   0  0  0  0  0  0  0  0  0  0  0  0
    2.0219   34.8455  105.2986 H   0  0  0  0  0  0  0  0  0  0  0  0
  1  2  1  0  0  0
  1  3  1  0  0  0
  2  5  1  0  0  0
 11 13  2  0  0  0
 12 13  1  0  0  0
  3  4  1  0  0  0
  3  7  1  0  0  0
  4 14  1  0  0  0
  4  5  1  0  0  0
 14 15  1  0  0  0
  5 13  1  0  0  0
 15 16  1  0  0  0
 15 17  2  0  0  0
  7  8  2  0  0  0
  7  9  1  0  0  0
  1  6  1  0  0  0
 16 18  1  0  0  0
  9 10  1  0  0  0
M  END
> <minimizedAffinity>
-7.77150

$$$$
4E0X_KAI_A_301


 18 18  0  0  0  0  0  0  0  0999 V2000
   -2.2010   36.9277  103.6327 N   0  0  0  0  0  0  0  0  0  0  0  0
   -0.8742   37.6043  103.7203 C   0  0  0  0  0  0  0  0  0  0  0  0
   -1.9708   35.4496  103.2965 C   0  0  0  0  0  0  0  0  0  0  0  0
   -0.5300   35.4222  102.7404 C   0  0  0  0  0  0  0  0  0  0  0  0
    0.1712   36.4863  103.6263 C   0  0  0  0  0  0  0  0  0  0  0  0
   -2.7622   37.3639  102.9010 H   0  0  0  0  0  0  0  0  0  0  0  0
   -2.1751   34.5617  104.5779 C   0  0  0  0  0  0  0  0  0  0  0  0
   -3.3489   34.6430  105.0594 O   0  0  0  0  0  0  0  0  0  0  0  0
   -1.2067   33.8773  105.0087 O   0  0  0  0  0  0  0  0  0  0  0  0
   -0.3824   33.8999  104.5638 H   0  0  0  0  0  0  0  0  0  0  0  0
    2.6543   35.8810  103.3330 C   0  0  0  0  0  0  0  0  0  0  0  0
    1.8103   38.1287  102.6382 C   0  0  0  0  0  0  0  0  0  0  0  0
    1.5538   36.9135  103.1684 C   0  0  0  0  0  0  0  0  0  0  0  0
   -0.4553   35.7666  101.2353 C   0  0  0  0  0  0  0  0  0  0  0  0
    0.4694   34.8988  100.3881 C   0  0  0  0  0  0  0  0  0  0  0  0
    0.8453   33.8227  100.9522 O   0  0  0  0  0  0  0  0  0  0  0  0
    0.7874   35.3125   99.2320 O   0  0  0  0  0  0  0  0  0  0  0  0
    0.5451   33.6168  101.8156 H   0  0  0  0  0  0  0  0  0  0  0  0
  1  2  1  0  0  0
  1  3  1  0  0  0
  2  5  1  0  0  0
 11 13  2  0  0  0
 12 13  1  0  0  0
  3  4  1  0  0  0
  3  7  1  0  0  0
  4 14  1  0  0  0
  4  5  1  0  0  0
 14 15  1  0  0  0
  5 13  1  0  0  0
 15 16  1  0  0  0
 15 17  2  0  0  0
  7  8  2  0  0  0
  7  9  1  0  0  0
  1  6  1  0  0  0
 16 18  1  0  0  0
  9 10  1  0  0  0
M  END
> <minimizedAffinity>
-7.45924

$$$$
4E0X_KAI_A_301


 18 18  0  0  0  0  0  0  0  0999 V2000
   -0.6967   37.4527  103.1468 N   0  0  0  0  0  0  0  0  0  0  0  0
   -1.2489   37.2087  101.7825 C   0  0  0  0  0  0  0  0  0  0  0  0
    0.2671   36.3112  103.4915 C   0  0  0  0  0  0  0  0  0  0  0  0
   -0.1174   35.1956  102.4947 C   0  0  0  0  0  0  0  0  0  0  0  0
   -0.4666   36.0143  101.2233 C   0  0  0  0  0  0  0  0  0  0  0  0
   -1.4569   37.4784  103.8264 H   0  0  0  0  0  0  0  0  0  0  0  0
    1.7565   36.7974  103.3585 C   0  0  0  0  0  0  0  0  0  0  0  0
    1.9506   37.9521  103.8536 O   0  0  0  0  0  0  0  0  0  0  0  0
    2.5978   36.0446  102.7953 O   0  0  0  0  0  0  0  0  0  0  0  0
    2.3323   35.2079  102.4675 H   0  0  0  0  0  0  0  0  0  0  0  0
   -0.2314   34.5391   99.1287 C   0  0  0  0  0  0  0  0  0  0  0  0
   -2.4941   35.1601   99.9902 C   0  0  0  0  0  0  0  0  0  0  0  0
   -1.1515   35.2400  100.1118 C   0  0  0  0  0  0  0  0  0  0  0  0
   -1.3019   34.3302  102.9821 C   0  0  0  0  0  0  0  0  0  0  0  0
   -1.8340   34.6367  104.3781 C   0  0  0  0  0  0  0  0  0  0  0  0
   -1.3266   33.9263  105.3030 O   0  0  0  0  0  0  0  0  0  0  0  0
   -2.7190   35.5374  104.4982 O   0  0  0  0  0  0  0  0  0  0  0  0
   -0.6746   33.2855  105.0973 H   0  0  0  0  0  0  0  0  0  0  0  0
  1  2  1  0  0  0
  1  3  1  0  0  0
  2  5  1  0  0  0
 11 13  2  0  0  0
 12 13  1  0  0  0
  3  4  1  0  0  0
  3  7  1  0  0  0
  4 14  1  0  0  0
  4  5  1  0  0  0
 14 15  1  0  0  0
  5 13  1  0  0  0
 15 16  1  0  0  0
 15 17  2  0  0  0
  7  8  2  0  0  0
  7  9  1  0  0  0
  1  6  1  0  0  0
 16 18  1  0  0  0
  9 10  1  0  0  0
M  END
> <minimizedAffinity>
-7.04739

$$$$
4E0X_KAI_A_301


 18 18  0  0  0  0  0  0  0  0999 V2000
   -1.4163   38.3237  102.3517 N   0  0  0  0  0  0  0  0  0  0  0  0
   -0.0178   38.8430  102.3660 C   0  0  0  0  0  0  0  0  0  0  0  0
   -1.3932   36.8552  102.7917 C   0  0  0  0  0  0  0  0  0  0  0  0
    0.0818   36.4396  102.5982 C   0  0  0  0  0  0  0  0  0  0  0  0
    0.8315   37.7367  103.0035 C   0  0  0  0  0  0  0  0  0  0  0  0
   -1.8003   38.3948  101.4094 H   0  0  0  0  0  0  0  0  0  0  0  0
   -1.9024   36.7228  104.2734 C   0  0  0  0  0  0  0  0  0  0  0  0
   -2.0310   37.8439  104.8589 O   0  0  0  0  0  0  0  0  0  0  0  0
   -2.1270   35.5734  104.7427 O   0  0  0  0  0  0  0  0  0  0  0  0
   -1.9940   34.8151  104.2087 H   0  0  0  0  0  0  0  0  0  0  0  0
    2.7500   38.8484  101.6988 C   0  0  0  0  0  0  0  0  0  0  0  0
    3.2043   36.9062  103.2052 C   0  0  0  0  0  0  0  0  0  0  0  0
    2.3125   37.7692  102.6726 C   0  0  0  0  0  0  0  0  0  0  0  0
    0.4025   36.0014  101.1510 C   0  0  0  0  0  0  0  0  0  0  0  0
    0.7746   34.5354  100.9549 C   0  0  0  0  0  0  0  0  0  0  0  0
    1.0864   34.2261   99.7614 O   0  0  0  0  0  0  0  0  0  0  0  0
    0.7328   33.7662  101.9626 O   0  0  0  0  0  0  0  0  0  0  0  0
    1.0832   34.8813   99.0915 H   0  0  0  0  0  0  0  0  0  0  0  0
  1  2  1  0  0  0
  1  3  1  0  0  0
  2  5  1  0  0  0
 11 13  2  0  0  0
 12 13  1  0  0  0
  3  4  1  0  0  0
  3  7  1  0  0  0
  4 14  1  0  0  0
  4  5  1  0  0  0
 14 15  1  0  0  0
  5 13  1  0  0  0
 15 16  1  0  0  0
 15 17  2  0  0  0
  7  8  2  0  0  0
  7  9  1  0  0  0
  1  6  1  0  0  0
 16 18  1  0  0  0
  9 10  1  0  0  0
M  END
> <minimizedAffinity>
-7.04378

$$$$
4E0X_KAI_A_301


 18 18  0  0  0  0  0  0  0  0999 V2000
   -2.0080   35.8944  102.1217 N   0  0  0  0  0  0  0  0  0  0  0  0
   -1.1349   37.1039  102.1473 C   0  0  0  0  0  0  0  0  0  0  0  0
   -1.3626   34.8115  102.9943 C   0  0  0  0  0  0  0  0  0  0  0  0
    0.1055   35.2739  103.1231 C   0  0  0  0  0  0  0  0  0  0  0  0
   -0.0539   36.8159  103.1960 C   0  0  0  0  0  0  0  0  0  0  0  0
   -2.0991   35.5558  101.1639 H   0  0  0  0  0  0  0  0  0  0  0  0
   -2.1171   34.6991  104.3692 C   0  0  0  0  0  0  0  0  0  0  0  0
   -3.2220   35.3277  104.3851 O   0  0  0  0  0  0  0  0  0  0  0  0
   -1.5917   34.0324  105.3027 O   0  0  0  0  0  0  0  0  0  0  0  0
   -0.7660   33.6100  105.1695 H   0  0  0  0  0  0  0  0  0  0  0  0
    2.4277   37.0819  103.8202 C   0  0  0  0  0  0  0  0  0  0  0  0
    1.3222   38.7309  102.3015 C   0  0  0  0  0  0  0  0  0  0  0  0
    1.2288   37.6155  103.0572 C   0  0  0  0  0  0  0  0  0  0  0  0
    0.9872   34.8282  101.9342 C   0  0  0  0  0  0  0  0  0  0  0  0
    2.1159   33.8547  102.2568 C   0  0  0  0  0  0  0  0  0  0  0  0
    1.7410   32.7871  102.8375 O   0  0  0  0  0  0  0  0  0  0  0  0
    3.2996   34.1831  101.9410 O   0  0  0  0  0  0  0  0  0  0  0  0
    0.8330   32.6488  103.0231 H   0  0  0  0  0  0  0  0  0  0  0  0
  1  2  1  0  0  0
  1  3  1  0  0  0
  2  5  1  0  0  0
 11 13  2  0  0  0
 12 13  1  0  0  0
  3  4  1  0  0  0
  3  7  1  0  0  0
  4 14  1  0  0  0
  4  5  1  0  0  0
 14 15  1  0  0  0
  5 13  1  0  0  0
 15 16  1  0  0  0
 15 17  2  0  0  0
  7  8  2  0  0  0
  7  9  1  0  0  0
  1  6  1  0  0  0
 16 18  1  0  0  0
  9 10  1  0  0  0
M  END
> <minimizedAffinity>
-7.01365

$$$$
4E0X_KAI_A_301


 18 18  0  0  0  0  0  0  0  0999 V2000
   -1.3462   34.4909  103.5528 N   0  0  0  0  0  0  0  0  0  0  0  0
   -1.2477   35.9746  103.6740 C   0  0  0  0  0  0  0  0  0  0  0  0
   -0.1538   33.9912  102.7285 C   0  0  0  0  0  0  0  0  0  0  0  0
    0.3460   35.2604  102.0037 C   0  0  0  0  0  0  0  0  0  0  0  0
    0.1159   36.3520  103.0827 C   0  0  0  0  0  0  0  0  0  0  0  0
   -2.2172   34.2408  103.0848 H   0  0  0  0  0  0  0  0  0  0  0  0
    0.9196   33.3312  103.6688 C   0  0  0  0  0  0  0  0  0  0  0  0
    1.8978   32.8267  103.0326 O   0  0  0  0  0  0  0  0  0  0  0  0
    0.7334   33.3487  104.9166 O   0  0  0  0  0  0  0  0  0  0  0  0
   -0.0336   33.7544  105.2702 H   0  0  0  0  0  0  0  0  0  0  0  0
   -1.0403   38.5724  102.4897 C   0  0  0  0  0  0  0  0  0  0  0  0
    1.4423   38.3501  102.3023 C   0  0  0  0  0  0  0  0  0  0  0  0
    0.2531   37.7861  102.6049 C   0  0  0  0  0  0  0  0  0  0  0  0
   -0.4237   35.5533  100.6956 C   0  0  0  0  0  0  0  0  0  0  0  0
    0.0126   34.7674   99.4636 C   0  0  0  0  0  0  0  0  0  0  0  0
    1.2419   34.4414   99.4548 O   0  0  0  0  0  0  0  0  0  0  0  0
   -0.8546   34.5209   98.5714 O   0  0  0  0  0  0  0  0  0  0  0  0
    1.7945   34.6781  100.1735 H   0  0  0  0  0  0  0  0  0  0  0  0
  1  2  1  0  0  0
  1  3  1  0  0  0
  2  5  1  0  0  0
 11 13  2  0  0  0
 12 13  1  0  0  0
  3  4  1  0  0  0
  3  7  1  0  0  0
  4 14  1  0  0  0
  4  5  1  0  0  0
 14 15  1  0  0  0
  5 13  1  0  0  0
 15 16  1  0  0  0
 15 17  2  0  0  0
  7  8  2  0  0  0
  7  9  1  0  0  0
  1  6  1  0  0  0
 16 18  1  0  0  0
  9 10  1  0  0  0
M  END
> <minimizedAffinity>
-6.94017

$$$$
4E0X_KAI_A_301


 18 18  0  0  0  0  0  0  0  0999 V2000
   -1.4089   38.6221  103.0584 N   0  0  0  0  0  0  0  0  0  0  0  0
   -1.7051   37.8961  101.7892 C   0  0  0  0  0  0  0  0  0  0  0  0
   -0.3611   37.8224  103.8417 C   0  0  0  0  0  0  0  0  0  0  0  0
   -0.4294   36.4146  103.2097 C   0  0  0  0  0  0  0  0  0  0  0  0
   -0.6883   36.7505  101.7168 C   0  0  0  0  0  0  0  0  0  0  0  0
   -2.2610   38.7085  103.6125 H   0  0  0  0  0  0  0  0  0  0  0  0
    1.0491   38.5069  103.7195 C   0  0  0  0  0  0  0  0  0  0  0  0
    2.0119   37.7128  103.9614 O   0  0  0  0  0  0  0  0  0  0  0  0
    1.1114   39.7289  103.4118 O   0  0  0  0  0  0  0  0  0  0  0  0
    0.3247   40.2135  103.2559 H   0  0  0  0  0  0  0  0  0  0  0  0
    0.0641   34.7116  100.3400 C   0  0  0  0  0  0  0  0  0  0  0  0
   -2.3602   35.2951  100.5137 C   0  0  0  0  0  0  0  0  0  0  0  0
   -1.0798   35.5762  100.8384 C   0  0  0  0  0  0  0  0  0  0  0  0
   -1.5435   35.5318  103.8169 C   0  0  0  0  0  0  0  0  0  0  0  0
   -1.1435   34.1138  104.2109 C   0  0  0  0  0  0  0  0  0  0  0  0
   -1.9067   33.5711  105.0715 O   0  0  0  0  0  0  0  0  0  0  0  0
   -0.1095   33.6116  103.6749 O   0  0  0  0  0  0  0  0  0  0  0  0
   -2.6485   34.0390  105.4012 H   0  0  0  0  0  0  0  0  0  0  0  0
  1  2  1  0  0  0
  1  3  1  0  0  0
  2  5  1  0  0  0
 11 13  2  0  0  0
 12 13  1  0  0  0
  3  4  1  0  0  0
  3  7  1  0  0  0
  4 14  1  0  0  0
  4  5  1  0  0  0
 14 15  1  0  0  0
  5 13  1  0  0  0
 15 16  1  0  0  0
 15 17  2  0  0  0
  7  8  2  0  0  0
  7  9  1  0  0  0
  1  6  1  0  0  0
 16 18  1  0  0  0
  9 10  1  0  0  0
M  END
> <minimizedAffinity>
-6.90499

$$$$
4E0X_KAI_A_301


 18 18  0  0  0  0  0  0  0  0999 V2000
   -1.5358   35.6433  100.4807 N   0  0  0  0  0  0  0  0  0  0  0  0
   -1.7702   34.8574  101.7270 C   0  0  0  0  0  0  0  0  0  0  0  0
   -0.0281   35.6756  100.2038 C   0  0  0  0  0  0  0  0  0  0  0  0
    0.6005   35.2964  101.5628 C   0  0  0  0  0  0  0  0  0  0  0  0
   -0.4123   34.2496  102.0985 C   0  0  0  0  0  0  0  0  0  0  0  0
   -1.8839   36.5942  100.6027 H   0  0  0  0  0  0  0  0  0  0  0  0
    0.3325   34.6848   99.0375 C   0  0  0  0  0  0  0  0  0  0  0  0
   -0.6800   34.3219   98.3598 O   0  0  0  0  0  0  0  0  0  0  0  0
    1.5359   34.3412   98.8767 O   0  0  0  0  0  0  0  0  0  0  0  0
    2.1995   34.6789   99.4455 H   0  0  0  0  0  0  0  0  0  0  0  0
   -1.4247   34.1469  104.4614 C   0  0  0  0  0  0  0  0  0  0  0  0
    0.8802   33.2791  104.0347 C   0  0  0  0  0  0  0  0  0  0  0  0
   -0.2420   33.8574  103.5549 C   0  0  0  0  0  0  0  0  0  0  0  0
    0.7588   36.5040  102.5147 C   0  0  0  0  0  0  0  0  0  0  0  0
    2.1424   36.7095  103.1224 C   0  0  0  0  0  0  0  0  0  0  0  0
    3.0125   35.8597  102.7505 O   0  0  0  0  0  0  0  0  0  0  0  0
    2.3049   37.6724  103.9318 O   0  0  0  0  0  0  0  0  0  0  0  0
    2.7792   35.1853  102.1433 H   0  0  0  0  0  0  0  0  0  0  0  0
  1  2  1  0  0  0
  1  3  1  0  0  0
  2  5  1  0  0  0
 11 13  2  0  0  0
 12 13  1  0  0  0
  3  4  1  0  0  0
  3  7  1  0  0  0
  4 14  1  0  0  0
  4  5  1  0  0  0
 14 15  1  0  0  0
  5 13  1  0  0  0
 15 16  1  0  0  0
 15 17  2  0  0  0
  7  8  2  0  0  0
  7  9  1  0  0  0
  1  6  1  0  0  0
 16 18  1  0  0  0
  9 10  1  0  0  0
M  END
> <minimizedAffinity>
-6.84732

$$$$
