1UTL_PRA_M_246


 13 13  0  0  0  0  0  0  0  0999 V2000
   23.4042   15.9265   58.9150 C   0  0  0  0  0  0  0  0  0  0  0  0
   22.9603   14.5220   58.5925 C   0  0  0  0  0  0  0  0  0  0  0  0
   21.7038   14.0521   58.9852 C   0  0  0  0  0  0  0  0  0  0  0  0
   21.2688   12.7453   58.6358 C   0  0  0  0  0  0  0  0  0  0  0  0
   22.1028   11.9048   57.8886 C   0  0  0  0  0  0  0  0  0  0  0  0
   23.3652   12.3643   57.4927 C   0  0  0  0  0  0  0  0  0  0  0  0
   23.7855   13.6726   57.8485 C   0  0  0  0  0  0  0  0  0  0  0  0
   23.1906   16.9716   57.8318 C   0  0  0  0  0  0  0  0  0  0  0  0
   24.5004   17.3805   57.1757 C   0  0  0  0  0  0  0  0  0  0  0  0
   25.7089   17.0303   57.9905 N   0  0  0  0  0  0  0  0  0  0  0  0
   25.6744   17.5269   58.8807 H   0  0  0  0  0  0  0  0  0  0  0  0
   26.5513   17.3006   57.4828 H   0  0  0  0  0  0  0  0  0  0  0  0
   25.7234   16.0250   58.1623 H   0  0  0  0  0  0  0  0  0  0  0  0
  9  8  1  0  0  0
  9 10  1  0  0  0
  8  1  1  0  0  0
  1  2  1  0  0  0
  2  3  2  0  0  0
  2  7  1  0  0  0
  3  4  1  0  0  0
  4  5  2  0  0  0
  5  6  1  0  0  0
  6  7  2  0  0  0
 10 11  1  0  0  0
 10 12  1  0  0  0
 10 13  1  0  0  0
M  CHG 1  10   1
M  END
> <minimizedAffinity>
-4.73215

$$$$
1UTL_PRA_M_246


 13 13  0  0  0  0  0  0  0  0999 V2000
   23.4779   15.8259   58.8923 C   0  0  0  0  0  0  0  0  0  0  0  0
   23.0057   14.4451   58.5128 C   0  0  0  0  0  0  0  0  0  0  0  0
   23.8417   13.5565   57.8306 C   0  0  0  0  0  0  0  0  0  0  0  0
   23.4110   12.2387   57.5193 C   0  0  0  0  0  0  0  0  0  0  0  0
   22.1314   11.8120   57.8943 C   0  0  0  0  0  0  0  0  0  0  0  0
   21.2843   12.6952   58.5753 C   0  0  0  0  0  0  0  0  0  0  0  0
   21.7289   14.0084   58.8801 C   0  0  0  0  0  0  0  0  0  0  0  0
   23.2269   16.9315   57.8796 C   0  0  0  0  0  0  0  0  0  0  0  0
   24.5061   17.3492   57.1709 C   0  0  0  0  0  0  0  0  0  0  0  0
   25.7481   17.0283   57.9465 N   0  0  0  0  0  0  0  0  0  0  0  0
   25.7381   17.5376   58.8303 H   0  0  0  0  0  0  0  0  0  0  0  0
   26.5676   17.3030   57.4050 H   0  0  0  0  0  0  0  0  0  0  0  0
   25.7835   16.0260   58.1322 H   0  0  0  0  0  0  0  0  0  0  0  0
  9  8  1  0  0  0
  9 10  1  0  0  0
  8  1  1  0  0  0
  1  2  1  0  0  0
  2  3  2  0  0  0
  2  7  1  0  0  0
  3  4  1  0  0  0
  4  5  2  0  0  0
  5  6  1  0  0  0
  6  7  2  0  0  0
 10 11  1  0  0  0
 10 12  1  0  0  0
 10 13  1  0  0  0
M  CHG 1  10   1
M  END
> <minimizedAffinity>
-4.69448

$$$$
1UTL_PRA_M_246


 13 13  0  0  0  0  0  0  0  0999 V2000
   22.2761   15.5562   58.3538 C   0  0  0  0  0  0  0  0  0  0  0  0
   22.6019   14.1433   58.7674 C   0  0  0  0  0  0  0  0  0  0  0  0
   23.8804   13.7963   59.2131 C   0  0  0  0  0  0  0  0  0  0  0  0
   24.1702   12.4756   59.6499 C   0  0  0  0  0  0  0  0  0  0  0  0
   23.1690   11.4970   59.6370 C   0  0  0  0  0  0  0  0  0  0  0  0
   21.8851   11.8329   59.1893 C   0  0  0  0  0  0  0  0  0  0  0  0
   21.6106   13.1568   58.7568 C   0  0  0  0  0  0  0  0  0  0  0  0
   23.3108   16.6178   58.6903 C   0  0  0  0  0  0  0  0  0  0  0  0
   24.1121   17.0334   57.4661 C   0  0  0  0  0  0  0  0  0  0  0  0
   25.5853   17.1327   57.7247 N   0  0  0  0  0  0  0  0  0  0  0  0
   25.7591   17.8489   58.4299 H   0  0  0  0  0  0  0  0  0  0  0  0
   26.0661   17.3826   56.8606 H   0  0  0  0  0  0  0  0  0  0  0  0
   25.9330   16.2342   58.0597 H   0  0  0  0  0  0  0  0  0  0  0  0
  9  8  1  0  0  0
  9 10  1  0  0  0
  8  1  1  0  0  0
  1  2  1  0  0  0
  2  3  2  0  0  0
  2  7  1  0  0  0
  3  4  1  0  0  0
  4  5  2  0  0  0
  5  6  1  0  0  0
  6  7  2  0  0  0
 10 11  1  0  0  0
 10 12  1  0  0  0
 10 13  1  0  0  0
M  CHG 1  10   1
M  END
> <minimizedAffinity>
-4.59147

$$$$
1UTL_PRA_M_246


 13 13  0  0  0  0  0  0  0  0999 V2000
   22.2902   15.5634   58.4134 C   0  0  0  0  0  0  0  0  0  0  0  0
   22.5874   14.1539   58.8589 C   0  0  0  0  0  0  0  0  0  0  0  0
   21.5978   13.1668   58.8451 C   0  0  0  0  0  0  0  0  0  0  0  0
   21.8940   11.8279   59.2175 C   0  0  0  0  0  0  0  0  0  0  0  0
   23.1926   11.4794   59.6079 C   0  0  0  0  0  0  0  0  0  0  0  0
   24.1911   12.4612   59.6286 C   0  0  0  0  0  0  0  0  0  0  0  0
   23.8802   13.7944   59.2530 C   0  0  0  0  0  0  0  0  0  0  0  0
   23.3497   16.6098   58.7194 C   0  0  0  0  0  0  0  0  0  0  0  0
   24.1213   17.0135   57.4724 C   0  0  0  0  0  0  0  0  0  0  0  0
   25.5983   17.1325   57.6990 N   0  0  0  0  0  0  0  0  0  0  0  0
   25.7787   17.8620   58.3887 H   0  0  0  0  0  0  0  0  0  0  0  0
   26.0586   17.3731   56.8212 H   0  0  0  0  0  0  0  0  0  0  0  0
   25.9624   16.2434   58.0414 H   0  0  0  0  0  0  0  0  0  0  0  0
  9  8  1  0  0  0
  9 10  1  0  0  0
  8  1  1  0  0  0
  1  2  1  0  0  0
  2  3  2  0  0  0
  2  7  1  0  0  0
  3  4  1  0  0  0
  4  5  2  0  0  0
  5  6  1  0  0  0
  6  7  2  0  0  0
 10 11  1  0  0  0
 10 12  1  0  0  0
 10 13  1  0  0  0
M  CHG 1  10   1
M  END
> <minimizedAffinity>
-4.58649

$$$$
1UTL_PRA_M_246


 13 13  0  0  0  0  0  0  0  0999 V2000
   22.7372   12.7381   58.5928 C   0  0  0  0  0  0  0  0  0  0  0  0
   22.9923   14.2046   58.3524 C   0  0  0  0  0  0  0  0  0  0  0  0
   24.2617   14.6697   57.9975 C   0  0  0  0  0  0  0  0  0  0  0  0
   24.4870   16.0454   57.7224 C   0  0  0  0  0  0  0  0  0  0  0  0
   23.4301   16.9597   57.8064 C   0  0  0  0  0  0  0  0  0  0  0  0
   22.1546   16.5052   58.1644 C   0  0  0  0  0  0  0  0  0  0  0  0
   21.9449   15.1276   58.4354 C   0  0  0  0  0  0  0  0  0  0  0  0
   21.6905   12.0774   57.7102 C   0  0  0  0  0  0  0  0  0  0  0  0
   20.4694   11.6468   58.5081 C   0  0  0  0  0  0  0  0  0  0  0  0
   20.6776   11.7031   59.9915 N   0  0  0  0  0  0  0  0  0  0  0  0
   21.4251   11.0608   60.2545 H   0  0  0  0  0  0  0  0  0  0  0  0
   19.8158   11.4345   60.4663 H   0  0  0  0  0  0  0  0  0  0  0  0
   20.9338   12.6523   60.2631 H   0  0  0  0  0  0  0  0  0  0  0  0
  9  8  1  0  0  0
  9 10  1  0  0  0
  8  1  1  0  0  0
  1  2  1  0  0  0
  2  3  2  0  0  0
  2  7  1  0  0  0
  3  4  1  0  0  0
  4  5  2  0  0  0
  5  6  1  0  0  0
  6  7  2  0  0  0
 10 11  1  0  0  0
 10 12  1  0  0  0
 10 13  1  0  0  0
M  CHG 1  10   1
M  END
> <minimizedAffinity>
-4.24499

$$$$
1UTL_PRA_M_246


 13 13  0  0  0  0  0  0  0  0999 V2000
   22.6597   12.4257   58.4288 C   0  0  0  0  0  0  0  0  0  0  0  0
   22.8954   13.9075   58.2792 C   0  0  0  0  0  0  0  0  0  0  0  0
   21.8760   14.8311   58.5269 C   0  0  0  0  0  0  0  0  0  0  0  0
   22.1156   16.2286   58.4340 C   0  0  0  0  0  0  0  0  0  0  0  0
   23.3875   16.7006   58.0881 C   0  0  0  0  0  0  0  0  0  0  0  0
   24.4156   15.7839   57.8346 C   0  0  0  0  0  0  0  0  0  0  0  0
   24.1611   14.3908   57.9323 C   0  0  0  0  0  0  0  0  0  0  0  0
   21.2549   11.9280   58.1290 C   0  0  0  0  0  0  0  0  0  0  0  0
   20.6425   11.2124   59.3233 C   0  0  0  0  0  0  0  0  0  0  0  0
   21.0776   11.7764   60.6422 N   0  0  0  0  0  0  0  0  0  0  0  0
   22.0874   11.6718   60.7403 H   0  0  0  0  0  0  0  0  0  0  0  0
   20.6089   11.2758   61.3973 H   0  0  0  0  0  0  0  0  0  0  0  0
   20.8324   12.7655   60.6865 H   0  0  0  0  0  0  0  0  0  0  0  0
  9  8  1  0  0  0
  9 10  1  0  0  0
  8  1  1  0  0  0
  1  2  1  0  0  0
  2  3  2  0  0  0
  2  7  1  0  0  0
  3  4  1  0  0  0
  4  5  2  0  0  0
  5  6  1  0  0  0
  6  7  2  0  0  0
 10 11  1  0  0  0
 10 12  1  0  0  0
 10 13  1  0  0  0
M  CHG 1  10   1
M  END
> <minimizedAffinity>
-4.14281

$$$$
1UTL_PRA_M_246


 13 13  0  0  0  0  0  0  0  0999 V2000
   22.5772   12.7777   59.7410 C   0  0  0  0  0  0  0  0  0  0  0  0
   22.8541   14.1580   59.2010 C   0  0  0  0  0  0  0  0  0  0  0  0
   24.1617   14.6331   59.0653 C   0  0  0  0  0  0  0  0  0  0  0  0
   24.4210   15.9146   58.5090 C   0  0  0  0  0  0  0  0  0  0  0  0
   23.3594   16.7244   58.0881 C   0  0  0  0  0  0  0  0  0  0  0  0
   22.0450   16.2597   58.2224 C   0  0  0  0  0  0  0  0  0  0  0  0
   21.8017   14.9768   58.7792 C   0  0  0  0  0  0  0  0  0  0  0  0
   23.6391   11.7213   59.4813 C   0  0  0  0  0  0  0  0  0  0  0  0
   23.4895   11.0975   58.1023 C   0  0  0  0  0  0  0  0  0  0  0  0
   24.6300   11.4098   57.1810 N   0  0  0  0  0  0  0  0  0  0  0  0
   24.6784   12.4172   57.0292 H   0  0  0  0  0  0  0  0  0  0  0  0
   24.4851   10.9379   56.2884 H   0  0  0  0  0  0  0  0  0  0  0  0
   25.5027   11.0866   57.5986 H   0  0  0  0  0  0  0  0  0  0  0  0
  9  8  1  0  0  0
  9 10  1  0  0  0
  8  1  1  0  0  0
  1  2  1  0  0  0
  2  3  2  0  0  0
  2  7  1  0  0  0
  3  4  1  0  0  0
  4  5  2  0  0  0
  5  6  1  0  0  0
  6  7  2  0  0  0
 10 11  1  0  0  0
 10 12  1  0  0  0
 10 13  1  0  0  0
M  CHG 1  10   1
M  END
> <minimizedAffinity>
-4.12256

$$$$
1UTL_PRA_M_246


 13 13  0  0  0  0  0  0  0  0999 V2000
   23.3267   12.1604   57.6873 C   0  0  0  0  0  0  0  0  0  0  0  0
   23.1828   13.6036   58.0997 C   0  0  0  0  0  0  0  0  0  0  0  0
   21.9780   14.0932   58.6119 C   0  0  0  0  0  0  0  0  0  0  0  0
   21.8611   15.4409   59.0467 C   0  0  0  0  0  0  0  0  0  0  0  0
   22.9615   16.3025   58.9642 C   0  0  0  0  0  0  0  0  0  0  0  0
   24.1727   15.8233   58.4494 C   0  0  0  0  0  0  0  0  0  0  0  0
   24.2744   14.4741   58.0200 C   0  0  0  0  0  0  0  0  0  0  0  0
   22.1776   11.5643   56.8901 C   0  0  0  0  0  0  0  0  0  0  0  0
   22.6500   10.4570   55.9605 C   0  0  0  0  0  0  0  0  0  0  0  0
   23.1132   10.9578   54.6258 N   0  0  0  0  0  0  0  0  0  0  0  0
   22.3376   11.4146   54.1462 H   0  0  0  0  0  0  0  0  0  0  0  0
   23.4452   10.1733   54.0648 H   0  0  0  0  0  0  0  0  0  0  0  0
   23.8721   11.6264   54.7582 H   0  0  0  0  0  0  0  0  0  0  0  0
  9  8  1  0  0  0
  9 10  1  0  0  0
  8  1  1  0  0  0
  1  2  1  0  0  0
  2  3  2  0  0  0
  2  7  1  0  0  0
  3  4  1  0  0  0
  4  5  2  0  0  0
  5  6  1  0  0  0
  6  7  2  0  0  0
 10 11  1  0  0  0
 10 12  1  0  0  0
 10 13  1  0  0  0
M  CHG 1  10   1
M  END
> <minimizedAffinity>
-4.02934

$$$$
1UTL_PRA_M_246


 13 13  0  0  0  0  0  0  0  0999 V2000
   22.6812   14.0558   59.4096 C   0  0  0  0  0  0  0  0  0  0  0  0
   23.4900   12.7973   59.5980 C   0  0  0  0  0  0  0  0  0  0  0  0
   24.8816   12.8431   59.7215 C   0  0  0  0  0  0  0  0  0  0  0  0
   25.6357   11.6606   59.9495 C   0  0  0  0  0  0  0  0  0  0  0  0
   24.9872   10.4240   60.0522 C   0  0  0  0  0  0  0  0  0  0  0  0
   23.5935   10.3661   59.9268 C   0  0  0  0  0  0  0  0  0  0  0  0
   22.8536   11.5562   59.7000 C   0  0  0  0  0  0  0  0  0  0  0  0
   23.0553   14.9323   58.2252 C   0  0  0  0  0  0  0  0  0  0  0  0
   23.5991   16.2811   58.6704 C   0  0  0  0  0  0  0  0  0  0  0  0
   25.0504   16.4734   58.3480 N   0  0  0  0  0  0  0  0  0  0  0  0
   25.6038   15.7718   58.8398 H   0  0  0  0  0  0  0  0  0  0  0  0
   25.3434   17.4051   58.6420 H   0  0  0  0  0  0  0  0  0  0  0  0
   25.1913   16.3741   57.3426 H   0  0  0  0  0  0  0  0  0  0  0  0
  9  8  1  0  0  0
  9 10  1  0  0  0
  8  1  1  0  0  0
  1  2  1  0  0  0
  2  3  2  0  0  0
  2  7  1  0  0  0
  3  4  1  0  0  0
  4  5  2  0  0  0
  5  6  1  0  0  0
  6  7  2  0  0  0
 10 11  1  0  0  0
 10 12  1  0  0  0
 10 13  1  0  0  0
M  CHG 1  10   1
M  END
> <minimizedAffinity>
-3.94000

$$$$
1UTL_PRA_M_246


 13 13  0  0  0  0  0  0  0  0999 V2000
   22.5671   13.6761   59.5661 C   0  0  0  0  0  0  0  0  0  0  0  0
   21.7457   12.4336   59.3312 C   0  0  0  0  0  0  0  0  0  0  0  0
   21.4874   11.5305   60.3663 C   0  0  0  0  0  0  0  0  0  0  0  0
   20.6711   10.3871   60.1536 C   0  0  0  0  0  0  0  0  0  0  0  0
   20.1124   10.1489   58.8921 C   0  0  0  0  0  0  0  0  0  0  0  0
   20.3673   11.0457   57.8469 C   0  0  0  0  0  0  0  0  0  0  0  0
   21.1841   12.1841   58.0749 C   0  0  0  0  0  0  0  0  0  0  0  0
   22.8700   14.5305   58.3458 C   0  0  0  0  0  0  0  0  0  0  0  0
   22.2802   15.9266   58.4734 C   0  0  0  0  0  0  0  0  0  0  0  0
   23.2984   16.9745   58.8081 N   0  0  0  0  0  0  0  0  0  0  0  0
   23.7182   16.7638   59.7135 H   0  0  0  0  0  0  0  0  0  0  0  0
   22.8460   17.8879   58.8474 H   0  0  0  0  0  0  0  0  0  0  0  0
   24.0238   16.9850   58.0911 H   0  0  0  0  0  0  0  0  0  0  0  0
  9  8  1  0  0  0
  9 10  1  0  0  0
  8  1  1  0  0  0
  1  2  1  0  0  0
  2  3  2  0  0  0
  2  7  1  0  0  0
  3  4  1  0  0  0
  4  5  2  0  0  0
  5  6  1  0  0  0
  6  7  2  0  0  0
 10 11  1  0  0  0
 10 12  1  0  0  0
 10 13  1  0  0  0
M  CHG 1  10   1
M  END
> <minimizedAffinity>
-3.76260

$$$$
